
     RDKit          3D

 18 17  0  0  0  0  0  0  0  0999 V2000
    2.2026   -0.7213   -0.2612 C   0  0  0  0  0  0  0  0  0  0  0  0
    1.5384    0.2638    0.6915 C   0  0  0  0  0  0  0  0  0  0  0  0
    2.2584    1.5946    0.7694 C   0  0  0  0  0  0  0  0  0  0  0  0
    2.2212    2.2185   -0.4893 O   0  0  0  0  0  0  0  0  0  0  0  0
    2.8988    3.4488   -0.5204 C   0  0  0  0  0  0  0  0  0  0  0  0
    2.7981    4.0296   -1.9118 C   0  0  0  0  0  0  0  0  0  0  0  0
    3.2294   -0.9309    0.0486 H   0  0  0  0  0  0  0  0  0  0  0  0
    2.2338   -0.3181   -1.2734 H   0  0  0  0  0  0  0  0  0  0  0  0
    1.6610   -1.6680   -0.2875 H   0  0  0  0  0  0  0  0  0  0  0  0
    1.4990   -0.1566    1.7002 H   0  0  0  0  0  0  0  0  0  0  0  0
    0.5055    0.4455    0.3835 H   0  0  0  0  0  0  0  0  0  0  0  0
    3.3038    1.4410    1.0808 H   0  0  0  0  0  0  0  0  0  0  0  0
    1.7844    2.2410    1.5226 H   0  0  0  0  0  0  0  0  0  0  0  0
    2.4596    4.1376    0.2164 H   0  0  0  0  0  0  0  0  0  0  0  0
    3.9524    3.3035   -0.2397 H   0  0  0  0  0  0  0  0  0  0  0  0
    1.7543    4.1869   -2.1856 H   0  0  0  0  0  0  0  0  0  0  0  0
    3.2472    3.3545   -2.6411 H   0  0  0  0  0  0  0  0  0  0  0  0
    3.3178    4.9878   -1.9600 H   0  0  0  0  0  0  0  0  0  0  0  0
  1  2  1  0
  1  7  1  0
  1  8  1  0
  1  9  1  0
  2  3  1  0
  2 10  1  0
  2 11  1  0
  3  4  1  0
  3 12  1  0
  3 13  1  0
  4  5  1  0
  5  6  1  0
  5 14  1  0
  5 15  1  0
  6 16  1  0
  6 17  1  0
  6 18  1  0
M  END
>  <reaction>  (1) 
rmg_rxn_347

>  <mol_properties>  (1) 
{"4": {"label": "donator", "atom_type": "Cs"}, "13": {"label": "d_hydrogen", "atom_type": "H0"}}

>  <type>  (1) 
r1h

$$$$

     RDKit          3D

  8  7  0  0  0  0  0  0  0  0999 V2000
    1.3778   -0.6812    0.2772 C   0  0  0  0  0  3  0  0  0  0  0  0
    0.4890    0.2108   -0.0590 C   0  0  0  0  0  0  0  0  0  0  0  0
   -1.0010    0.0286   -0.0323 C   0  0  0  0  0  0  0  0  0  0  0  0
    2.4535   -0.7507    0.3287 H   0  0  0  0  0  0  0  0  0  0  0  0
    0.8447    1.1899   -0.3945 H   0  0  0  0  0  0  0  0  0  0  0  0
   -1.4635    0.7638    0.6301 H   0  0  0  0  0  0  0  0  0  0  0  0
   -1.2709   -0.9687    0.3117 H   0  0  0  0  0  0  0  0  0  0  0  0
   -1.4218    0.1801   -1.0289 H   0  0  0  0  0  0  0  0  0  0  0  0
  1  2  2  3
  1  4  1  0
  2  3  1  0
  2  5  1  0
  3  6  1  0
  3  7  1  0
  3  8  1  0
M  RAD  1   1   2
M  END
>  <reaction>  (2) 
rmg_rxn_347

>  <mol_properties>  (2) 
{"0": {"label": "acceptor", "atom_type": "Cd"}}

>  <type>  (2) 
r2

$$$$

     RDKit          3D

  9  8  0  0  0  0  0  0  0  0999 V2000
    1.1303   -0.2933   -0.7510 C   0  0  0  0  0  0  0  0  0  0  0  0
    0.2866    0.4560   -0.0588 C   0  0  0  0  0  0  0  0  0  0  0  0
   -0.9719   -0.0331    0.5823 C   0  0  0  0  0  0  0  0  0  0  0  0
    2.0274    0.1230   -1.1916 H   0  0  0  0  0  0  0  0  0  0  0  0
    0.9532   -1.3530   -0.9023 H   0  0  0  0  0  0  0  0  0  0  0  0
    0.5065    1.5132    0.0659 H   0  0  0  0  0  0  0  0  0  0  0  0
   -0.9526    0.1426    1.6610 H   0  0  0  0  0  0  0  0  0  0  0  0
   -1.1182   -1.1002    0.4106 H   0  0  0  0  0  0  0  0  0  0  0  0
   -1.8412    0.5010    0.1901 H   0  0  0  0  0  0  0  0  0  0  0  0
  1  2  2  3
  1  4  1  0
  1  5  1  0
  2  3  1  0
  2  6  1  0
  3  7  1  0
  3  8  1  0
  3  9  1  0
M  END
>  <reaction>  (3) 
rmg_rxn_347

>  <mol_properties>  (3) 
{"0": {"label": "acceptor", "atom_type": "Cd"}, "8": {"label": "a_hydrogen", "atom_type": "H0"}}

>  <type>  (3) 
r2h

$$$$

     RDKit          3D

 26 24  0  0  0  0  0  0  0  0999 V2000
   -0.4418    1.0057    2.0163 C   0  0  0  0  0  3  0  0  0  0  0  0
    0.7436    1.2038    2.5485 C   0  0  0  0  0  0  0  0  0  0  0  0
    1.0513    1.2351    4.0188 C   0  0  0  0  0  0  0  0  0  0  0  0
   -1.3850    0.8297    2.5229 H   0  0  0  0  0  0  0  0  0  0  0  0
    1.5937    1.3625    1.8849 H   0  0  0  0  0  0  0  0  0  0  0  0
    1.7863    0.4678    4.2749 H   0  0  0  0  0  0  0  0  0  0  0  0
    0.1553    1.0677    4.6167 H   0  0  0  0  0  0  0  0  0  0  0  0
    1.4808    2.1994    4.3017 H   0  0  0  0  0  0  0  0  0  0  0  0
    0.4352   -2.3940   -2.9457 C   0  0  0  0  0  0  0  0  0  0  0  0
    0.4760   -2.3921   -1.4233 C   0  0  0  0  0  0  0  0  0  0  0  0
    0.6111   -1.0055   -0.8306 C   0  0  0  0  0  0  0  0  0  0  0  0
   -0.5248   -0.2412   -1.1733 O   0  0  0  0  0  0  0  0  0  0  0  0
   -0.4838    1.0624   -0.7111 C   0  0  0  0  0  0  0  0  0  0  0  0
   -1.6949    1.8285   -1.1620 C   0  0  0  0  0  0  0  0  0  0  0  0
    1.3469   -1.9571   -3.3607 H   0  0  0  0  0  0  0  0  0  0  0  0
   -0.4113   -1.8122   -3.3107 H   0  0  0  0  0  0  0  0  0  0  0  0
    0.3434   -3.4091   -3.3347 H   0  0  0  0  0  0  0  0  0  0  0  0
    1.3198   -2.9903   -1.0686 H   0  0  0  0  0  0  0  0  0  0  0  0
   -0.4295   -2.8544   -1.0222 H   0  0  0  0  0  0  0  0  0  0  0  0
    1.5157   -0.5117   -1.2174 H   0  0  0  0  0  0  0  0  0  0  0  0
    0.7011   -1.0567    0.2616 H   0  0  0  0  0  0  0  0  0  0  0  0
   -0.4898    1.0461    0.5277 H   0  0  0  0  0  0  0  0  0  0  0  0
    0.4635    1.5572   -0.9696 H   0  0  0  0  0  0  0  0  0  0  0  0
   -2.6056    1.3348   -0.8199 H   0  0  0  0  0  0  0  0  0  0  0  0
   -1.7317    1.8980   -2.2516 H   0  0  0  0  0  0  0  0  0  0  0  0
   -1.6718    2.8381   -0.7497 H   0  0  0  0  0  0  0  0  0  0  0  0
  1  2  2  3
  1  4  1  0
  2  3  1  0
  2  5  1  0
  3  6  1  0
  3  7  1  0
  3  8  1  0
  9 10  1  0
  9 15  1  0
  9 16  1  0
  9 17  1  0
 10 11  1  0
 10 18  1  0
 10 19  1  0
 11 12  1  0
 11 20  1  0
 11 21  1  0
 12 13  1  0
 13 14  1  0
 13 22  1  0
 13 23  1  0
 14 24  1  0
 14 25  1  0
 14 26  1  0
M  RAD  1   1   2
M  END
>  <reaction>  (4) 
rmg_rxn_347

>  <mol_properties>  (4) 
{"0": {"label": "*3", "atom_type": "Cd"}, "1": {"label": "*4", "atom_type": "Cd"}, "11": {"label": "*0", "atom_type": "O2s"}, "12": {"label": "*1", "atom_type": "Cs"}, "21": {"label": "*2", "atom_type": "H0"}}

>  <type>  (4) 
ts

$$$$

     RDKit          3D

 26 24  0  0  0  0  0  0  0  0999 V2000
   -0.3616    0.8191    1.9546 C   0  0  0  0  0  0  0  0  0  0  0  0
    0.6104    1.4573    2.5873 C   0  0  0  0  0  0  0  0  0  0  0  0
    0.4261    2.3441    3.7764 C   0  0  0  0  0  0  0  0  0  0  0  0
   -1.3952    0.9036    2.2732 H   0  0  0  0  0  0  0  0  0  0  0  0
    1.6309    1.3419    2.2313 H   0  0  0  0  0  0  0  0  0  0  0  0
    1.0002    1.9744    4.6299 H   0  0  0  0  0  0  0  0  0  0  0  0
   -0.6229    2.4060    4.0688 H   0  0  0  0  0  0  0  0  0  0  0  0
    0.7855    3.3549    3.5672 H   0  0  0  0  0  0  0  0  0  0  0  0
    0.7320   -2.5624   -2.8916 C   0  0  0  0  0  0  0  0  0  0  0  0
    0.7320   -2.5624   -1.3687 C   0  0  0  0  0  0  0  0  0  0  0  0
    0.7320   -1.1693   -0.7732 C   0  0  0  0  0  0  0  0  0  0  0  0
   -0.4510   -0.5057   -1.1408 O   0  0  0  0  0  0  0  0  0  0  0  0
   -0.5217    0.8123   -0.6599 C   0  0  0  0  0  3  0  0  0  0  0  0
   -1.8250    1.4301   -1.1108 C   0  0  0  0  0  0  0  0  0  0  0  0
    1.6141   -2.0481   -3.2813 H   0  0  0  0  0  0  0  0  0  0  0  0
   -0.1507   -2.0527   -3.2777 H   0  0  0  0  0  0  0  0  0  0  0  0
    0.7375   -3.5803   -3.2843 H   0  0  0  0  0  0  0  0  0  0  0  0
    1.6135   -3.0889   -0.9925 H   0  0  0  0  0  0  0  0  0  0  0  0
   -0.1424   -3.1004   -0.9935 H   0  0  0  0  0  0  0  0  0  0  0  0
    1.6062   -0.6042   -1.1336 H   0  0  0  0  0  0  0  0  0  0  0  0
    0.8068   -1.2232    0.3228 H   0  0  0  0  0  0  0  0  0  0  0  0
   -0.4410    0.8158    0.6578 H   0  0  0  0  0  0  0  0  0  0  0  0
    0.3312    1.3953   -1.0378 H   0  0  0  0  0  0  0  0  0  0  0  0
   -2.6714    0.8607   -0.7251 H   0  0  0  0  0  0  0  0  0  0  0  0
   -1.8858    1.4420   -2.1996 H   0  0  0  0  0  0  0  0  0  0  0  0
   -1.9026    2.4561   -0.7477 H   0  0  0  0  0  0  0  0  0  0  0  0
  1  2  2  3
  1  4  1  0
  1 22  1  0
  2  3  1  0
  2  5  1  0
  3  6  1  0
  3  7  1  0
  3  8  1  0
  9 10  1  0
  9 15  1  0
  9 16  1  0
  9 17  1  0
 10 11  1  0
 10 18  1  0
 10 19  1  0
 11 12  1  0
 11 20  1  0
 11 21  1  0
 12 13  1  0
 13 14  1  0
 13 23  1  0
 14 24  1  0
 14 25  1  0
 14 26  1  0
M  RAD  1  13   2
M  END
>  <reaction>  (5) 
rmg_rxn_347

>  <mol_properties>  (5) 
{"0": {"label": "*3", "atom_type": "Cd"}, "1": {"label": "*4", "atom_type": "Cd"}, "11": {"label": "*0", "atom_type": "O2s"}, "12": {"label": "*1", "atom_type": "Cs"}, "21": {"label": "*2", "atom_type": "H0"}}

>  <type>  (5) 
unop_1

>  <geom_source>  (5) 
Heuristics

$$$$

     RDKit          3D

 26 24  0  0  0  0  0  0  0  0999 V2000
   -0.3771    1.2544    1.9221 C   0  0  0  0  0  0  0  0  0  0  0  0
    0.3006    0.3247    2.5769 C   0  0  0  0  0  0  0  0  0  0  0  0
    0.7662    0.4361    3.9929 C   0  0  0  0  0  0  0  0  0  0  0  0
   -0.6479    2.1939    2.3922 H   0  0  0  0  0  0  0  0  0  0  0  0
    0.5492   -0.6009    2.0639 H   0  0  0  0  0  0  0  0  0  0  0  0
    0.3462   -0.3665    4.6046 H   0  0  0  0  0  0  0  0  0  0  0  0
    0.4773    1.3911    4.4336 H   0  0  0  0  0  0  0  0  0  0  0  0
    1.8537    0.3440    4.0531 H   0  0  0  0  0  0  0  0  0  0  0  0
    0.7165   -2.1272   -2.9242 C   0  0  0  0  0  0  0  0  0  0  0  0
    0.7165   -2.1272   -1.4013 C   0  0  0  0  0  0  0  0  0  0  0  0
    0.7165   -0.7341   -0.8057 C   0  0  0  0  0  0  0  0  0  0  0  0
   -0.4665   -0.0705   -1.1733 O   0  0  0  0  0  0  0  0  0  0  0  0
   -0.5372    1.2476   -0.6925 C   0  0  0  0  0  3  0  0  0  0  0  0
   -1.8405    1.8653   -1.1433 C   0  0  0  0  0  0  0  0  0  0  0  0
    1.5986   -1.6128   -3.3138 H   0  0  0  0  0  0  0  0  0  0  0  0
   -0.1662   -1.6175   -3.3102 H   0  0  0  0  0  0  0  0  0  0  0  0
    0.7220   -3.1450   -3.3168 H   0  0  0  0  0  0  0  0  0  0  0  0
    1.5980   -2.6536   -1.0250 H   0  0  0  0  0  0  0  0  0  0  0  0
   -0.1579   -2.6651   -1.0260 H   0  0  0  0  0  0  0  0  0  0  0  0
    1.5907   -0.1690   -1.1661 H   0  0  0  0  0  0  0  0  0  0  0  0
    0.7913   -0.7880    0.2903 H   0  0  0  0  0  0  0  0  0  0  0  0
   -0.4565    1.2510    0.6252 H   0  0  0  0  0  0  0  0  0  0  0  0
    0.3157    1.8305   -1.0703 H   0  0  0  0  0  0  0  0  0  0  0  0
   -2.6869    1.2959   -0.7576 H   0  0  0  0  0  0  0  0  0  0  0  0
   -1.9013    1.8772   -2.2321 H   0  0  0  0  0  0  0  0  0  0  0  0
   -1.9181    2.8914   -0.7802 H   0  0  0  0  0  0  0  0  0  0  0  0
  1  2  2  3
  1  4  1  0
  1 22  1  0
  2  3  1  0
  2  5  1  0
  3  6  1  0
  3  7  1  0
  3  8  1  0
  9 10  1  0
  9 15  1  0
  9 16  1  0
  9 17  1  0
 10 11  1  0
 10 18  1  0
 10 19  1  0
 11 12  1  0
 11 20  1  0
 11 21  1  0
 12 13  1  0
 13 14  1  0
 13 23  1  0
 14 24  1  0
 14 25  1  0
 14 26  1  0
M  RAD  1  13   2
M  END
>  <reaction>  (6) 
rmg_rxn_347

>  <mol_properties>  (6) 
{"0": {"label": "*3", "atom_type": "Cd"}, "1": {"label": "*4", "atom_type": "Cd"}, "11": {"label": "*0", "atom_type": "O2s"}, "12": {"label": "*1", "atom_type": "Cs"}, "21": {"label": "*2", "atom_type": "H0"}}

>  <type>  (6) 
unop_2

>  <geom_source>  (6) 
Heuristics

$$$$

     RDKit          3D

 26 24  0  0  0  0  0  0  0  0999 V2000
   -0.2279    0.7804    1.9343 C   0  0  0  0  0  0  0  0  0  0  0  0
    0.3019    1.7991    2.5931 C   0  0  0  0  0  0  0  0  0  0  0  0
   -0.1905    2.3268    3.9020 C   0  0  0  0  0  0  0  0  0  0  0  0
   -1.0880    0.2430    2.3196 H   0  0  0  0  0  0  0  0  0  0  0  0
    1.1635    2.3067    2.1672 H   0  0  0  0  0  0  0  0  0  0  0  0
    0.5931    2.2739    4.6622 H   0  0  0  0  0  0  0  0  0  0  0  0
   -1.0541    1.7645    4.2592 H   0  0  0  0  0  0  0  0  0  0  0  0
   -0.4763    3.3782    3.8147 H   0  0  0  0  0  0  0  0  0  0  0  0
    0.8657   -2.6011   -2.9120 C   0  0  0  0  0  0  0  0  0  0  0  0
    0.8657   -2.6011   -1.3891 C   0  0  0  0  0  0  0  0  0  0  0  0
    0.8657   -1.2081   -0.7935 C   0  0  0  0  0  0  0  0  0  0  0  0
   -0.3173   -0.5445   -1.1611 O   0  0  0  0  0  0  0  0  0  0  0  0
   -0.3880    0.7736   -0.6802 C   0  0  0  0  0  3  0  0  0  0  0  0
   -1.6913    1.3914   -1.1311 C   0  0  0  0  0  0  0  0  0  0  0  0
    1.7478   -2.0868   -3.3016 H   0  0  0  0  0  0  0  0  0  0  0  0
   -0.0170   -2.0915   -3.2980 H   0  0  0  0  0  0  0  0  0  0  0  0
    0.8712   -3.6190   -3.3046 H   0  0  0  0  0  0  0  0  0  0  0  0
    1.7472   -3.1276   -1.0128 H   0  0  0  0  0  0  0  0  0  0  0  0
   -0.0087   -3.1391   -1.0138 H   0  0  0  0  0  0  0  0  0  0  0  0
    1.7399   -0.6430   -1.1539 H   0  0  0  0  0  0  0  0  0  0  0  0
    0.9405   -1.2620    0.3025 H   0  0  0  0  0  0  0  0  0  0  0  0
   -0.3073    0.7770    0.6375 H   0  0  0  0  0  0  0  0  0  0  0  0
    0.4649    1.3566   -1.0581 H   0  0  0  0  0  0  0  0  0  0  0  0
   -2.5377    0.8220   -0.7454 H   0  0  0  0  0  0  0  0  0  0  0  0
   -1.7521    1.4032   -2.2199 H   0  0  0  0  0  0  0  0  0  0  0  0
   -1.7689    2.4174   -0.7680 H   0  0  0  0  0  0  0  0  0  0  0  0
  1  2  2  3
  1  4  1  0
  1 22  1  0
  2  3  1  0
  2  5  1  0
  3  6  1  0
  3  7  1  0
  3  8  1  0
  9 10  1  0
  9 15  1  0
  9 16  1  0
  9 17  1  0
 10 11  1  0
 10 18  1  0
 10 19  1  0
 11 12  1  0
 11 20  1  0
 11 21  1  0
 12 13  1  0
 13 14  1  0
 13 23  1  0
 14 24  1  0
 14 25  1  0
 14 26  1  0
M  RAD  1  13   2
M  END
>  <reaction>  (7) 
rmg_rxn_347

>  <mol_properties>  (7) 
{"0": {"label": "*3", "atom_type": "Cd"}, "1": {"label": "*4", "atom_type": "Cd"}, "11": {"label": "*0", "atom_type": "O2s"}, "12": {"label": "*1", "atom_type": "Cs"}, "21": {"label": "*2", "atom_type": "H0"}}

>  <type>  (7) 
unop_3

>  <geom_source>  (7) 
Heuristics

$$$$

     RDKit          3D

 26 24  0  0  0  0  0  0  0  0999 V2000
    0.0741    1.1508    1.9084 C   0  0  0  0  0  0  0  0  0  0  0  0
   -0.8132    0.5162    2.6583 C   0  0  0  0  0  0  0  0  0  0  0  0
   -1.2589    0.9504    4.0173 C   0  0  0  0  0  0  0  0  0  0  0  0
    0.5528    2.0634    2.2479 H   0  0  0  0  0  0  0  0  0  0  0  0
   -1.2662   -0.3947    2.2754 H   0  0  0  0  0  0  0  0  0  0  0  0
   -2.3380    1.1229    4.0360 H   0  0  0  0  0  0  0  0  0  0  0  0
   -0.7586    1.8690    4.3264 H   0  0  0  0  0  0  0  0  0  0  0  0
   -1.0490    0.1771    4.7609 H   0  0  0  0  0  0  0  0  0  0  0  0
    1.1677   -2.2307   -2.9379 C   0  0  0  0  0  0  0  0  0  0  0  0
    1.1677   -2.2307   -1.4150 C   0  0  0  0  0  0  0  0  0  0  0  0
    1.1677   -0.8376   -0.8194 C   0  0  0  0  0  0  0  0  0  0  0  0
   -0.0153   -0.1740   -1.1870 O   0  0  0  0  0  0  0  0  0  0  0  0
   -0.0860    1.1440   -0.7061 C   0  0  0  0  0  3  0  0  0  0  0  0
   -1.3893    1.7618   -1.1570 C   0  0  0  0  0  0  0  0  0  0  0  0
    2.0498   -1.7163   -3.3275 H   0  0  0  0  0  0  0  0  0  0  0  0
    0.2850   -1.7210   -3.3239 H   0  0  0  0  0  0  0  0  0  0  0  0
    1.1732   -3.2485   -3.3305 H   0  0  0  0  0  0  0  0  0  0  0  0
    2.0493   -2.7571   -1.0387 H   0  0  0  0  0  0  0  0  0  0  0  0
    0.2934   -2.7686   -1.0397 H   0  0  0  0  0  0  0  0  0  0  0  0
    2.0419   -0.2725   -1.1798 H   0  0  0  0  0  0  0  0  0  0  0  0
    1.2425   -0.8915    0.2766 H   0  0  0  0  0  0  0  0  0  0  0  0
   -0.0053    1.1475    0.6116 H   0  0  0  0  0  0  0  0  0  0  0  0
    0.7669    1.7270   -1.0840 H   0  0  0  0  0  0  0  0  0  0  0  0
   -2.2357    1.1924   -0.7713 H   0  0  0  0  0  0  0  0  0  0  0  0
   -1.4501    1.7737   -2.2458 H   0  0  0  0  0  0  0  0  0  0  0  0
   -1.4669    2.7879   -0.7939 H   0  0  0  0  0  0  0  0  0  0  0  0
  1  2  2  3
  1  4  1  0
  1 22  1  0
  2  3  1  0
  2  5  1  0
  3  6  1  0
  3  7  1  0
  3  8  1  0
  9 10  1  0
  9 15  1  0
  9 16  1  0
  9 17  1  0
 10 11  1  0
 10 18  1  0
 10 19  1  0
 11 12  1  0
 11 20  1  0
 11 21  1  0
 12 13  1  0
 13 14  1  0
 13 23  1  0
 14 24  1  0
 14 25  1  0
 14 26  1  0
M  RAD  1  13   2
M  END
>  <reaction>  (8) 
rmg_rxn_347

>  <mol_properties>  (8) 
{"0": {"label": "*3", "atom_type": "Cd"}, "1": {"label": "*4", "atom_type": "Cd"}, "11": {"label": "*0", "atom_type": "O2s"}, "12": {"label": "*1", "atom_type": "Cs"}, "21": {"label": "*2", "atom_type": "H0"}}

>  <type>  (8) 
unop_4

>  <geom_source>  (8) 
Heuristics

$$$$

     RDKit          3D

 26 24  0  0  0  0  0  0  0  0999 V2000
   -0.1739    0.8095    1.9047 C   0  0  0  0  0  0  0  0  0  0  0  0
   -0.2170    1.9362    2.5983 C   0  0  0  0  0  0  0  0  0  0  0  0
   -0.1329    2.0337    4.0875 C   0  0  0  0  0  0  0  0  0  0  0  0
   -0.0706   -0.1531    2.3945 H   0  0  0  0  0  0  0  0  0  0  0  0
   -0.3214    2.8766    2.0633 H   0  0  0  0  0  0  0  0  0  0  0  0
    0.7210    2.6455    4.3896 H   0  0  0  0  0  0  0  0  0  0  0  0
   -0.0299    1.0496    4.5463 H   0  0  0  0  0  0  0  0  0  0  0  0
   -1.0261    2.5126    4.4969 H   0  0  0  0  0  0  0  0  0  0  0  0
    0.9197   -2.5720   -2.9415 C   0  0  0  0  0  0  0  0  0  0  0  0
    0.9197   -2.5720   -1.4186 C   0  0  0  0  0  0  0  0  0  0  0  0
    0.9197   -1.1790   -0.8231 C   0  0  0  0  0  0  0  0  0  0  0  0
   -0.2633   -0.5154   -1.1907 O   0  0  0  0  0  0  0  0  0  0  0  0
   -0.3341    0.8027   -0.7098 C   0  0  0  0  0  3  0  0  0  0  0  0
   -1.6374    1.4205   -1.1606 C   0  0  0  0  0  0  0  0  0  0  0  0
    1.8017   -2.0577   -3.3312 H   0  0  0  0  0  0  0  0  0  0  0  0
    0.0369   -2.0623   -3.3276 H   0  0  0  0  0  0  0  0  0  0  0  0
    0.9251   -3.5899   -3.3342 H   0  0  0  0  0  0  0  0  0  0  0  0
    1.8012   -3.0985   -1.0424 H   0  0  0  0  0  0  0  0  0  0  0  0
    0.0453   -3.1100   -1.0434 H   0  0  0  0  0  0  0  0  0  0  0  0
    1.7939   -0.6139   -1.1835 H   0  0  0  0  0  0  0  0  0  0  0  0
    0.9944   -1.2329    0.2729 H   0  0  0  0  0  0  0  0  0  0  0  0
   -0.2534    0.8061    0.6079 H   0  0  0  0  0  0  0  0  0  0  0  0
    0.5188    1.3857   -1.0877 H   0  0  0  0  0  0  0  0  0  0  0  0
   -2.4837    0.8511   -0.7750 H   0  0  0  0  0  0  0  0  0  0  0  0
   -1.6982    1.4323   -2.2495 H   0  0  0  0  0  0  0  0  0  0  0  0
   -1.7150    2.4465   -0.7976 H   0  0  0  0  0  0  0  0  0  0  0  0
  1  2  2  3
  1  4  1  0
  1 22  1  0
  2  3  1  0
  2  5  1  0
  3  6  1  0
  3  7  1  0
  3  8  1  0
  9 10  1  0
  9 15  1  0
  9 16  1  0
  9 17  1  0
 10 11  1  0
 10 18  1  0
 10 19  1  0
 11 12  1  0
 11 20  1  0
 11 21  1  0
 12 13  1  0
 13 14  1  0
 13 23  1  0
 14 24  1  0
 14 25  1  0
 14 26  1  0
M  RAD  1  13   2
M  END
>  <reaction>  (9) 
rmg_rxn_347

>  <mol_properties>  (9) 
{"0": {"label": "*3", "atom_type": "Cd"}, "1": {"label": "*4", "atom_type": "Cd"}, "11": {"label": "*0", "atom_type": "O2s"}, "12": {"label": "*1", "atom_type": "Cs"}, "21": {"label": "*2", "atom_type": "H0"}}

>  <type>  (9) 
unop_5

>  <geom_source>  (9) 
Heuristics

$$$$

     RDKit          3D

 26 24  0  0  0  0  0  0  0  0999 V2000
    0.0915    0.9864    1.9209 C   0  0  0  0  0  0  0  0  0  0  0  0
   -0.9889    0.9028    2.6812 C   0  0  0  0  0  0  0  0  0  0  0  0
   -1.2337    1.7032    3.9196 C   0  0  0  0  0  0  0  0  0  0  0  0
    0.9000    1.6695    2.1594 H   0  0  0  0  0  0  0  0  0  0  0  0
   -1.7728    0.2035    2.4018 H   0  0  0  0  0  0  0  0  0  0  0  0
   -2.1451    2.2990    3.8237 H   0  0  0  0  0  0  0  0  0  0  0  0
   -0.4027    2.3779    4.1290 H   0  0  0  0  0  0  0  0  0  0  0  0
   -1.3725    1.0491    4.7842 H   0  0  0  0  0  0  0  0  0  0  0  0
    1.1851   -2.3951   -2.9254 C   0  0  0  0  0  0  0  0  0  0  0  0
    1.1851   -2.3951   -1.4025 C   0  0  0  0  0  0  0  0  0  0  0  0
    1.1851   -1.0020   -0.8069 C   0  0  0  0  0  0  0  0  0  0  0  0
    0.0021   -0.3384   -1.1745 O   0  0  0  0  0  0  0  0  0  0  0  0
   -0.0686    0.9796   -0.6937 C   0  0  0  0  0  3  0  0  0  0  0  0
   -1.3719    1.5974   -1.1445 C   0  0  0  0  0  0  0  0  0  0  0  0
    2.0672   -1.8808   -3.3150 H   0  0  0  0  0  0  0  0  0  0  0  0
    0.3024   -1.8854   -3.3114 H   0  0  0  0  0  0  0  0  0  0  0  0
    1.1906   -3.4129   -3.3180 H   0  0  0  0  0  0  0  0  0  0  0  0
    2.0666   -2.9216   -1.0262 H   0  0  0  0  0  0  0  0  0  0  0  0
    0.3107   -2.9331   -1.0272 H   0  0  0  0  0  0  0  0  0  0  0  0
    2.0593   -0.4369   -1.1673 H   0  0  0  0  0  0  0  0  0  0  0  0
    1.2599   -1.0559    0.2891 H   0  0  0  0  0  0  0  0  0  0  0  0
    0.0121    0.9831    0.6240 H   0  0  0  0  0  0  0  0  0  0  0  0
    0.7843    1.5626   -1.0715 H   0  0  0  0  0  0  0  0  0  0  0  0
   -2.2183    1.0280   -0.7588 H   0  0  0  0  0  0  0  0  0  0  0  0
   -1.4327    1.6093   -2.2333 H   0  0  0  0  0  0  0  0  0  0  0  0
   -1.4495    2.6234   -0.7814 H   0  0  0  0  0  0  0  0  0  0  0  0
  1  2  2  3
  1  4  1  0
  1 22  1  0
  2  3  1  0
  2  5  1  0
  3  6  1  0
  3  7  1  0
  3  8  1  0
  9 10  1  0
  9 15  1  0
  9 16  1  0
  9 17  1  0
 10 11  1  0
 10 18  1  0
 10 19  1  0
 11 12  1  0
 11 20  1  0
 11 21  1  0
 12 13  1  0
 13 14  1  0
 13 23  1  0
 14 24  1  0
 14 25  1  0
 14 26  1  0
M  RAD  1  13   2
M  END
>  <reaction>  (10) 
rmg_rxn_347

>  <mol_properties>  (10) 
{"0": {"label": "*3", "atom_type": "Cd"}, "1": {"label": "*4", "atom_type": "Cd"}, "11": {"label": "*0", "atom_type": "O2s"}, "12": {"label": "*1", "atom_type": "Cs"}, "21": {"label": "*2", "atom_type": "H0"}}

>  <type>  (10) 
unop_6

>  <geom_source>  (10) 
Heuristics

$$$$

     RDKit          3D

 26 24  0  0  0  0  0  0  0  0999 V2000
    0.0148    0.8478    1.9315 C   0  0  0  0  0  0  0  0  0  0  0  0
   -0.9580    1.3380    2.6837 C   0  0  0  0  0  0  0  0  0  0  0  0
   -0.7660    2.2534    3.8497 C   0  0  0  0  0  0  0  0  0  0  0  0
    1.0549    1.0900    2.1226 H   0  0  0  0  0  0  0  0  0  0  0  0
   -1.9851    1.0669    2.4534 H   0  0  0  0  0  0  0  0  0  0  0  0
   -1.2964    3.1965    3.6951 H   0  0  0  0  0  0  0  0  0  0  0  0
    0.2893    2.4754    4.0127 H   0  0  0  0  0  0  0  0  0  0  0  0
   -1.1696    1.8093    4.7633 H   0  0  0  0  0  0  0  0  0  0  0  0
    1.1084   -2.5338   -2.9148 C   0  0  0  0  0  0  0  0  0  0  0  0
    1.1084   -2.5338   -1.3919 C   0  0  0  0  0  0  0  0  0  0  0  0
    1.1084   -1.1407   -0.7963 C   0  0  0  0  0  0  0  0  0  0  0  0
   -0.0746   -0.4771   -1.1639 O   0  0  0  0  0  0  0  0  0  0  0  0
   -0.1454    0.8410   -0.6830 C   0  0  0  0  0  3  0  0  0  0  0  0
   -1.4487    1.4587   -1.1339 C   0  0  0  0  0  0  0  0  0  0  0  0
    1.9904   -2.0194   -3.3044 H   0  0  0  0  0  0  0  0  0  0  0  0
    0.2256   -2.0241   -3.3008 H   0  0  0  0  0  0  0  0  0  0  0  0
    1.1138   -3.5516   -3.3074 H   0  0  0  0  0  0  0  0  0  0  0  0
    1.9899   -3.0602   -1.0156 H   0  0  0  0  0  0  0  0  0  0  0  0
    0.2340   -3.0717   -1.0166 H   0  0  0  0  0  0  0  0  0  0  0  0
    1.9826   -0.5756   -1.1567 H   0  0  0  0  0  0  0  0  0  0  0  0
    1.1831   -1.1946    0.2997 H   0  0  0  0  0  0  0  0  0  0  0  0
   -0.0647    0.8444    0.6346 H   0  0  0  0  0  0  0  0  0  0  0  0
    0.7075    1.4239   -1.0609 H   0  0  0  0  0  0  0  0  0  0  0  0
   -2.2950    0.8893   -0.7482 H   0  0  0  0  0  0  0  0  0  0  0  0
   -1.5095    1.4706   -2.2227 H   0  0  0  0  0  0  0  0  0  0  0  0
   -1.5263    2.4848   -0.7708 H   0  0  0  0  0  0  0  0  0  0  0  0
  1  2  2  3
  1  4  1  0
  1 22  1  0
  2  3  1  0
  2  5  1  0
  3  6  1  0
  3  7  1  0
  3  8  1  0
  9 10  1  0
  9 15  1  0
  9 16  1  0
  9 17  1  0
 10 11  1  0
 10 18  1  0
 10 19  1  0
 11 12  1  0
 11 20  1  0
 11 21  1  0
 12 13  1  0
 13 14  1  0
 13 23  1  0
 14 24  1  0
 14 25  1  0
 14 26  1  0
M  RAD  1  13   2
M  END
>  <reaction>  (11) 
rmg_rxn_347

>  <mol_properties>  (11) 
{"0": {"label": "*3", "atom_type": "Cd"}, "1": {"label": "*4", "atom_type": "Cd"}, "11": {"label": "*0", "atom_type": "O2s"}, "12": {"label": "*1", "atom_type": "Cs"}, "21": {"label": "*2", "atom_type": "H0"}}

>  <type>  (11) 
unop_7

>  <geom_source>  (11) 
Heuristics

$$$$

     RDKit          3D

 26 24  0  0  0  0  0  0  0  0999 V2000
   -0.4591    0.9445    1.9547 C   0  0  0  0  0  0  0  0  0  0  0  0
    0.7060    1.0318    2.5770 C   0  0  0  0  0  0  0  0  0  0  0  0
    0.9764    1.8713    3.7838 C   0  0  0  0  0  0  0  0  0  0  0  0
   -1.3261    1.5002    2.2962 H   0  0  0  0  0  0  0  0  0  0  0  0
    1.5465    0.4560    2.1978 H   0  0  0  0  0  0  0  0  0  0  0  0
    1.3164    1.2537    4.6190 H   0  0  0  0  0  0  0  0  0  0  0  0
    0.0849    2.4150    4.0990 H   0  0  0  0  0  0  0  0  0  0  0  0
    1.7690    2.5967    3.5833 H   0  0  0  0  0  0  0  0  0  0  0  0
    0.6345   -2.4370   -2.8915 C   0  0  0  0  0  0  0  0  0  0  0  0
    0.6345   -2.4370   -1.3686 C   0  0  0  0  0  0  0  0  0  0  0  0
    0.6345   -1.0439   -0.7731 C   0  0  0  0  0  0  0  0  0  0  0  0
   -0.5485   -0.3803   -1.1407 O   0  0  0  0  0  0  0  0  0  0  0  0
   -0.6192    0.9378   -0.6598 C   0  0  0  0  0  3  0  0  0  0  0  0
   -1.9225    1.5555   -1.1107 C   0  0  0  0  0  0  0  0  0  0  0  0
    1.5166   -1.9226   -3.2812 H   0  0  0  0  0  0  0  0  0  0  0  0
   -0.2482   -1.9273   -3.2776 H   0  0  0  0  0  0  0  0  0  0  0  0
    0.6400   -3.4548   -3.2842 H   0  0  0  0  0  0  0  0  0  0  0  0
    1.5161   -2.9634   -0.9924 H   0  0  0  0  0  0  0  0  0  0  0  0
   -0.2399   -2.9749   -0.9934 H   0  0  0  0  0  0  0  0  0  0  0  0
    1.5087   -0.4788   -1.1335 H   0  0  0  0  0  0  0  0  0  0  0  0
    0.7093   -1.0978    0.3229 H   0  0  0  0  0  0  0  0  0  0  0  0
   -0.5385    0.9412    0.6579 H   0  0  0  0  0  0  0  0  0  0  0  0
    0.2337    1.5207   -1.0377 H   0  0  0  0  0  0  0  0  0  0  0  0
   -2.7689    0.9861   -0.7250 H   0  0  0  0  0  0  0  0  0  0  0  0
   -1.9833    1.5674   -2.1995 H   0  0  0  0  0  0  0  0  0  0  0  0
   -2.0001    2.5816   -0.7476 H   0  0  0  0  0  0  0  0  0  0  0  0
  1  2  2  3
  1  4  1  0
  1 22  1  0
  2  3  1  0
  2  5  1  0
  3  6  1  0
  3  7  1  0
  3  8  1  0
  9 10  1  0
  9 15  1  0
  9 16  1  0
  9 17  1  0
 10 11  1  0
 10 18  1  0
 10 19  1  0
 11 12  1  0
 11 20  1  0
 11 21  1  0
 12 13  1  0
 13 14  1  0
 13 23  1  0
 14 24  1  0
 14 25  1  0
 14 26  1  0
M  RAD  1  13   2
M  END
>  <reaction>  (12) 
rmg_rxn_347

>  <mol_properties>  (12) 
{"0": {"label": "*3", "atom_type": "Cd"}, "1": {"label": "*4", "atom_type": "Cd"}, "11": {"label": "*0", "atom_type": "O2s"}, "12": {"label": "*1", "atom_type": "Cs"}, "21": {"label": "*2", "atom_type": "H0"}}

>  <type>  (12) 
unop_8

>  <geom_source>  (12) 
Heuristics

$$$$

     RDKit          3D

 26 24  0  0  0  0  0  0  0  0999 V2000
   -0.0396    1.2800    1.9014 C   0  0  0  0  0  0  0  0  0  0  0  0
   -0.4846    0.2650    2.6251 C   0  0  0  0  0  0  0  0  0  0  0  0
   -0.7858    0.3180    4.0882 C   0  0  0  0  0  0  0  0  0  0  0  0
    0.1418    2.2540    2.3436 H   0  0  0  0  0  0  0  0  0  0  0  0
   -0.6514   -0.6922    2.1377 H   0  0  0  0  0  0  0  0  0  0  0  0
   -1.8315    0.0637    4.2795 H   0  0  0  0  0  0  0  0  0  0  0  0
   -0.5927    1.3097    4.4993 H   0  0  0  0  0  0  0  0  0  0  0  0
   -0.1783   -0.4064    4.6369 H   0  0  0  0  0  0  0  0  0  0  0  0
    1.0540   -2.1015   -2.9449 C   0  0  0  0  0  0  0  0  0  0  0  0
    1.0540   -2.1015   -1.4220 C   0  0  0  0  0  0  0  0  0  0  0  0
    1.0540   -0.7084   -0.8265 C   0  0  0  0  0  0  0  0  0  0  0  0
   -0.1290   -0.0448   -1.1941 O   0  0  0  0  0  0  0  0  0  0  0  0
   -0.1997    1.2732   -0.7132 C   0  0  0  0  0  3  0  0  0  0  0  0
   -1.5030    1.8910   -1.1640 C   0  0  0  0  0  0  0  0  0  0  0  0
    1.9361   -1.5872   -3.3345 H   0  0  0  0  0  0  0  0  0  0  0  0
    0.1713   -1.5918   -3.3310 H   0  0  0  0  0  0  0  0  0  0  0  0
    1.0595   -3.1193   -3.3376 H   0  0  0  0  0  0  0  0  0  0  0  0
    1.9356   -2.6280   -1.0457 H   0  0  0  0  0  0  0  0  0  0  0  0
    0.1797   -2.6395   -1.0467 H   0  0  0  0  0  0  0  0  0  0  0  0
    1.9282   -0.1433   -1.1869 H   0  0  0  0  0  0  0  0  0  0  0  0
    1.1288   -0.7623    0.2696 H   0  0  0  0  0  0  0  0  0  0  0  0
   -0.1190    1.2767    0.6045 H   0  0  0  0  0  0  0  0  0  0  0  0
    0.6532    1.8562   -1.0911 H   0  0  0  0  0  0  0  0  0  0  0  0
   -2.3494    1.3216   -0.7783 H   0  0  0  0  0  0  0  0  0  0  0  0
   -1.5638    1.9029   -2.2528 H   0  0  0  0  0  0  0  0  0  0  0  0
   -1.5806    2.9170   -0.8010 H   0  0  0  0  0  0  0  0  0  0  0  0
  1  2  2  3
  1  4  1  0
  1 22  1  0
  2  3  1  0
  2  5  1  0
  3  6  1  0
  3  7  1  0
  3  8  1  0
  9 10  1  0
  9 15  1  0
  9 16  1  0
  9 17  1  0
 10 11  1  0
 10 18  1  0
 10 19  1  0
 11 12  1  0
 11 20  1  0
 11 21  1  0
 12 13  1  0
 13 14  1  0
 13 23  1  0
 14 24  1  0
 14 25  1  0
 14 26  1  0
M  RAD  1  13   2
M  END
>  <reaction>  (13) 
rmg_rxn_347

>  <mol_properties>  (13) 
{"0": {"label": "*3", "atom_type": "Cd"}, "1": {"label": "*4", "atom_type": "Cd"}, "11": {"label": "*0", "atom_type": "O2s"}, "12": {"label": "*1", "atom_type": "Cs"}, "21": {"label": "*2", "atom_type": "H0"}}

>  <type>  (13) 
unop_9

>  <geom_source>  (13) 
Heuristics

$$$$

     RDKit          3D

 26 24  0  0  0  0  0  0  0  0999 V2000
   -0.4683    1.1096    1.9417 C   0  0  0  0  0  0  0  0  0  0  0  0
    0.5891    0.6229    2.5721 C   0  0  0  0  0  0  0  0  0  0  0  0
    1.1264    1.1318    3.8708 C   0  0  0  0  0  0  0  0  0  0  0  0
   -1.0341    1.9427    2.3454 H   0  0  0  0  0  0  0  0  0  0  0  0
    1.1243   -0.2128    2.1286 H   0  0  0  0  0  0  0  0  0  0  0  0
    1.1275    0.3427    4.6271 H   0  0  0  0  0  0  0  0  0  0  0  0
    0.5348    1.9674    4.2470 H   0  0  0  0  0  0  0  0  0  0  0  0
    2.1614    1.4652    3.7596 H   0  0  0  0  0  0  0  0  0  0  0  0
    0.6253   -2.2719   -2.9045 C   0  0  0  0  0  0  0  0  0  0  0  0
    0.6253   -2.2719   -1.3816 C   0  0  0  0  0  0  0  0  0  0  0  0
    0.6253   -0.8789   -0.7861 C   0  0  0  0  0  0  0  0  0  0  0  0
   -0.5577   -0.2153   -1.1537 O   0  0  0  0  0  0  0  0  0  0  0  0
   -0.6284    1.1028   -0.6728 C   0  0  0  0  0  3  0  0  0  0  0  0
   -1.9317    1.7206   -1.1236 C   0  0  0  0  0  0  0  0  0  0  0  0
    1.5074   -1.7576   -3.2942 H   0  0  0  0  0  0  0  0  0  0  0  0
   -0.2574   -1.7622   -3.2906 H   0  0  0  0  0  0  0  0  0  0  0  0
    0.6308   -3.2898   -3.2972 H   0  0  0  0  0  0  0  0  0  0  0  0
    1.5068   -2.7984   -1.0053 H   0  0  0  0  0  0  0  0  0  0  0  0
   -0.2491   -2.8099   -1.0064 H   0  0  0  0  0  0  0  0  0  0  0  0
    1.4995   -0.3138   -1.1465 H   0  0  0  0  0  0  0  0  0  0  0  0
    0.7001   -0.9328    0.3099 H   0  0  0  0  0  0  0  0  0  0  0  0
   -0.5477    1.1062    0.6449 H   0  0  0  0  0  0  0  0  0  0  0  0
    0.2244    1.6858   -1.0507 H   0  0  0  0  0  0  0  0  0  0  0  0
   -2.7781    1.1512   -0.7380 H   0  0  0  0  0  0  0  0  0  0  0  0
   -1.9925    1.7324   -2.2125 H   0  0  0  0  0  0  0  0  0  0  0  0
   -2.0094    2.7466   -0.7606 H   0  0  0  0  0  0  0  0  0  0  0  0
  1  2  2  3
  1  4  1  0
  1 22  1  0
  2  3  1  0
  2  5  1  0
  3  6  1  0
  3  7  1  0
  3  8  1  0
  9 10  1  0
  9 15  1  0
  9 16  1  0
  9 17  1  0
 10 11  1  0
 10 18  1  0
 10 19  1  0
 11 12  1  0
 11 20  1  0
 11 21  1  0
 12 13  1  0
 13 14  1  0
 13 23  1  0
 14 24  1  0
 14 25  1  0
 14 26  1  0
M  RAD  1  13   2
M  END
>  <reaction>  (14) 
rmg_rxn_347

>  <mol_properties>  (14) 
{"0": {"label": "*3", "atom_type": "Cd"}, "1": {"label": "*4", "atom_type": "Cd"}, "11": {"label": "*0", "atom_type": "O2s"}, "12": {"label": "*1", "atom_type": "Cs"}, "21": {"label": "*2", "atom_type": "H0"}}

>  <type>  (14) 
unop_10

>  <geom_source>  (14) 
Heuristics

$$$$

     RDKit          3D

 26 24  0  0  0  0  0  0  0  0999 V2000
   -0.1130    0.7891    1.9273 C   0  0  0  0  0  0  0  0  0  0  0  0
   -0.7060    1.7224    2.6550 C   0  0  0  0  0  0  0  0  0  0  0  0
   -0.1432    2.3304    3.8991 C   0  0  0  0  0  0  0  0  0  0  0  0
    0.8587    0.3911    2.2000 H   0  0  0  0  0  0  0  0  0  0  0  0
   -1.6797    2.0904    2.3419 H   0  0  0  0  0  0  0  0  0  0  0  0
   -0.0319    3.4120    3.7874 H   0  0  0  0  0  0  0  0  0  0  0  0
    0.8323    1.9080    4.1433 H   0  0  0  0  0  0  0  0  0  0  0  0
   -0.8115    2.1671    4.7485 H   0  0  0  0  0  0  0  0  0  0  0  0
    0.9806   -2.5924   -2.9190 C   0  0  0  0  0  0  0  0  0  0  0  0
    0.9806   -2.5924   -1.3961 C   0  0  0  0  0  0  0  0  0  0  0  0
    0.9806   -1.1993   -0.8006 C   0  0  0  0  0  0  0  0  0  0  0  0
   -0.2024   -0.5358   -1.1682 O   0  0  0  0  0  0  0  0  0  0  0  0
   -0.2731    0.7823   -0.6873 C   0  0  0  0  0  3  0  0  0  0  0  0
   -1.5765    1.4001   -1.1381 C   0  0  0  0  0  0  0  0  0  0  0  0
    1.8627   -2.0781   -3.3086 H   0  0  0  0  0  0  0  0  0  0  0  0
    0.0979   -2.0827   -3.3051 H   0  0  0  0  0  0  0  0  0  0  0  0
    0.9861   -3.6103   -3.3117 H   0  0  0  0  0  0  0  0  0  0  0  0
    1.8621   -3.1189   -1.0198 H   0  0  0  0  0  0  0  0  0  0  0  0
    0.1062   -3.1304   -1.0208 H   0  0  0  0  0  0  0  0  0  0  0  0
    1.8548   -0.6343   -1.1610 H   0  0  0  0  0  0  0  0  0  0  0  0
    1.0554   -1.2533    0.2955 H   0  0  0  0  0  0  0  0  0  0  0  0
   -0.1924    0.7857    0.6304 H   0  0  0  0  0  0  0  0  0  0  0  0
    0.5797    1.3653   -1.0652 H   0  0  0  0  0  0  0  0  0  0  0  0
   -2.4228    0.8307   -0.7524 H   0  0  0  0  0  0  0  0  0  0  0  0
   -1.6373    1.4119   -2.2269 H   0  0  0  0  0  0  0  0  0  0  0  0
   -1.6541    2.4261   -0.7751 H   0  0  0  0  0  0  0  0  0  0  0  0
  1  2  2  3
  1  4  1  0
  1 22  1  0
  2  3  1  0
  2  5  1  0
  3  6  1  0
  3  7  1  0
  3  8  1  0
  9 10  1  0
  9 15  1  0
  9 16  1  0
  9 17  1  0
 10 11  1  0
 10 18  1  0
 10 19  1  0
 11 12  1  0
 11 20  1  0
 11 21  1  0
 12 13  1  0
 13 14  1  0
 13 23  1  0
 14 24  1  0
 14 25  1  0
 14 26  1  0
M  RAD  1  13   2
M  END
>  <reaction>  (15) 
rmg_rxn_347

>  <mol_properties>  (15) 
{"0": {"label": "*3", "atom_type": "Cd"}, "1": {"label": "*4", "atom_type": "Cd"}, "11": {"label": "*0", "atom_type": "O2s"}, "12": {"label": "*1", "atom_type": "Cs"}, "21": {"label": "*2", "atom_type": "H0"}}

>  <type>  (15) 
unop_11

>  <geom_source>  (15) 
Heuristics

$$$$

     RDKit          3D

 26 24  0  0  0  0  0  0  0  0999 V2000
   -0.2128    1.3209    1.9058 C   0  0  0  0  0  0  0  0  0  0  0  0
   -0.0850    0.1979    2.5947 C   0  0  0  0  0  0  0  0  0  0  0  0
    0.0133    0.1081    4.0835 C   0  0  0  0  0  0  0  0  0  0  0  0
   -0.2559    2.2861    2.3995 H   0  0  0  0  0  0  0  0  0  0  0  0
   -0.0464   -0.7454    2.0559 H   0  0  0  0  0  0  0  0  0  0  0  0
   -0.7972   -0.5019    4.4907 H   0  0  0  0  0  0  0  0  0  0  0  0
   -0.0333    1.0946    4.5464 H   0  0  0  0  0  0  0  0  0  0  0  0
    0.9499   -0.3690    4.3834 H   0  0  0  0  0  0  0  0  0  0  0  0
    0.8808   -2.0606   -2.9405 C   0  0  0  0  0  0  0  0  0  0  0  0
    0.8808   -2.0606   -1.4176 C   0  0  0  0  0  0  0  0  0  0  0  0
    0.8808   -0.6675   -0.8221 C   0  0  0  0  0  0  0  0  0  0  0  0
   -0.3022   -0.0039   -1.1897 O   0  0  0  0  0  0  0  0  0  0  0  0
   -0.3729    1.3141   -0.7088 C   0  0  0  0  0  3  0  0  0  0  0  0
   -1.6762    1.9319   -1.1596 C   0  0  0  0  0  0  0  0  0  0  0  0
    1.7629   -1.5462   -3.3301 H   0  0  0  0  0  0  0  0  0  0  0  0
   -0.0019   -1.5509   -3.3266 H   0  0  0  0  0  0  0  0  0  0  0  0
    0.8863   -3.0784   -3.3332 H   0  0  0  0  0  0  0  0  0  0  0  0
    1.7623   -2.5870   -1.0413 H   0  0  0  0  0  0  0  0  0  0  0  0
    0.0064   -2.5985   -1.0423 H   0  0  0  0  0  0  0  0  0  0  0  0
    1.7550   -0.1024   -1.1825 H   0  0  0  0  0  0  0  0  0  0  0  0
    0.9556   -0.7214    0.2740 H   0  0  0  0  0  0  0  0  0  0  0  0
   -0.2922    1.3176    0.6089 H   0  0  0  0  0  0  0  0  0  0  0  0
    0.4800    1.8971   -1.0867 H   0  0  0  0  0  0  0  0  0  0  0  0
   -2.5226    1.3625   -0.7739 H   0  0  0  0  0  0  0  0  0  0  0  0
   -1.7370    1.9438   -2.2484 H   0  0  0  0  0  0  0  0  0  0  0  0
   -1.7538    2.9580   -0.7966 H   0  0  0  0  0  0  0  0  0  0  0  0
  1  2  2  3
  1  4  1  0
  1 22  1  0
  2  3  1  0
  2  5  1  0
  3  6  1  0
  3  7  1  0
  3  8  1  0
  9 10  1  0
  9 15  1  0
  9 16  1  0
  9 17  1  0
 10 11  1  0
 10 18  1  0
 10 19  1  0
 11 12  1  0
 11 20  1  0
 11 21  1  0
 12 13  1  0
 13 14  1  0
 13 23  1  0
 14 24  1  0
 14 25  1  0
 14 26  1  0
M  RAD  1  13   2
M  END
>  <reaction>  (16) 
rmg_rxn_347

>  <mol_properties>  (16) 
{"0": {"label": "*3", "atom_type": "Cd"}, "1": {"label": "*4", "atom_type": "Cd"}, "11": {"label": "*0", "atom_type": "O2s"}, "12": {"label": "*1", "atom_type": "Cs"}, "21": {"label": "*2", "atom_type": "H0"}}

>  <type>  (16) 
unop_12

>  <geom_source>  (16) 
Heuristics

$$$$

     RDKit          3D

 26 24  0  0  0  0  0  0  0  0999 V2000
   -1.1544   -1.1315   -0.5956 O   0  0  0  0  0  0  0  0  0  0  0  0
   -2.8085    0.0388    0.6734 C   0  0  0  0  0  0  0  0  0  0  0  0
   -1.5456    0.1545   -0.1791 C   0  0  0  0  0  0  0  0  0  0  0  0
   -3.2813    1.4072    1.1563 C   0  0  0  0  0  0  0  0  0  0  0  0
    3.3734    0.8449   -0.5427 C   0  0  0  0  0  0  0  0  0  0  0  0
    1.1017   -1.8964   -0.8368 C   0  0  0  0  0  0  0  0  0  0  0  0
    2.6034    0.4697    0.6844 C   0  0  0  0  0  0  0  0  0  0  0  0
    0.0080   -0.9854   -1.3679 C   0  0  0  0  0  3  0  0  0  0  0  0
    1.3494    0.0224    0.5982 C   0  0  0  0  0  0  0  0  0  0  0  0
   -3.6168   -0.4345    0.0745 H   0  0  0  0  0  0  0  0  0  0  0  0
   -2.6015   -0.6061    1.5550 H   0  0  0  0  0  0  0  0  0  0  0  0
   -0.7427    0.6268    0.4352 H   0  0  0  0  0  0  0  0  0  0  0  0
   -1.7683    0.7993   -1.0619 H   0  0  0  0  0  0  0  0  0  0  0  0
   -3.5172    2.0619    0.2903 H   0  0  0  0  0  0  0  0  0  0  0  0
   -4.1982    1.2877    1.7710 H   0  0  0  0  0  0  0  0  0  0  0  0
   -2.4971    1.8893    1.7782 H   0  0  0  0  0  0  0  0  0  0  0  0
    2.8536    1.6658   -1.0805 H   0  0  0  0  0  0  0  0  0  0  0  0
    3.4692   -0.0346   -1.2141 H   0  0  0  0  0  0  0  0  0  0  0  0
    4.3889    1.1901   -0.2564 H   0  0  0  0  0  0  0  0  0  0  0  0
    2.0191   -1.7682   -1.4480 H   0  0  0  0  0  0  0  0  0  0  0  0
    0.7742   -2.9564   -0.8882 H   0  0  0  0  0  0  0  0  0  0  0  0
    1.3312   -1.6320    0.2168 H   0  0  0  0  0  0  0  0  0  0  0  0
    3.0729    0.5631    1.6592 H   0  0  0  0  0  0  0  0  0  0  0  0
   -0.2154   -1.2392   -2.4261 H   0  0  0  0  0  0  0  0  0  0  0  0
    0.8043   -0.2456    1.4974 H   0  0  0  0  0  0  0  0  0  0  0  0
    0.7975   -0.0917   -0.4925 H   0  0  0  0  0  0  0  0  0  0  0  0
  1  8  1  0
  1  3  1  0
  2  4  1  0
  2  3  1  0
  2 10  1  0
  2 11  1  0
  3 12  1  0
  3 13  1  0
  4 14  1  0
  4 15  1  0
  4 16  1  0
  5  7  1  0
  5 17  1  0
  5 18  1  0
  5 19  1  0
  6  8  1  0
  6 20  1  0
  6 21  1  0
  6 22  1  0
  7  9  2  3
  7 23  1  0
  8 24  1  0
  9 25  1  0
  9 26  1  0
M  RAD  1   8   2
M  END
>  <reaction>  (17) 
rmg_rxn_347

>  <mol_properties>  (17) 
{"0": {"label": "*3", "atom_type": "Cd"}, "1": {"label": "*4", "atom_type": "Cd"}, "11": {"label": "*0", "atom_type": "O2s"}, "12": {"label": "*1", "atom_type": "Cs"}, "21": {"label": "*2", "atom_type": "H0"}}

>  <type>  (17) 
unop_13

>  <geom_source>  (17) 
AutoTST

$$$$

     RDKit          3D

 26 24  0  0  0  0  0  0  0  0999 V2000
   -0.3771    1.2544    1.9221 C   0  0  0  0  0  0  0  0  0  0  0  0
    0.3006    0.3247    2.5769 C   0  0  0  0  0  0  0  0  0  0  0  0
    0.7662    0.4361    3.9929 C   0  0  0  0  0  0  0  0  0  0  0  0
   -0.6479    2.1939    2.3921 H   0  0  0  0  0  0  0  0  0  0  0  0
    0.5492   -0.6009    2.0639 H   0  0  0  0  0  0  0  0  0  0  0  0
    0.3462   -0.3665    4.6046 H   0  0  0  0  0  0  0  0  0  0  0  0
    0.4773    1.3911    4.4336 H   0  0  0  0  0  0  0  0  0  0  0  0
    1.8537    0.3440    4.0531 H   0  0  0  0  0  0  0  0  0  0  0  0
    0.7165   -2.1272   -2.9242 C   0  0  0  0  0  0  0  0  0  0  0  0
    0.7165   -2.1272   -1.4013 C   0  0  0  0  0  0  0  0  0  0  0  0
    0.7165   -0.7341   -0.8057 C   0  0  0  0  0  0  0  0  0  0  0  0
   -0.4665   -0.0705   -1.1733 O   0  0  0  0  0  0  0  0  0  0  0  0
   -0.5372    1.2476   -0.6925 C   0  0  0  0  0  3  0  0  0  0  0  0
   -1.8405    1.8653   -1.1433 C   0  0  0  0  0  0  0  0  0  0  0  0
    1.5986   -1.6128   -3.3138 H   0  0  0  0  0  0  0  0  0  0  0  0
   -0.1662   -1.6175   -3.3102 H   0  0  0  0  0  0  0  0  0  0  0  0
    0.7220   -3.1450   -3.3168 H   0  0  0  0  0  0  0  0  0  0  0  0
    1.5980   -2.6536   -1.0250 H   0  0  0  0  0  0  0  0  0  0  0  0
   -0.1579   -2.6651   -1.0260 H   0  0  0  0  0  0  0  0  0  0  0  0
    1.5907   -0.1690   -1.1661 H   0  0  0  0  0  0  0  0  0  0  0  0
    0.7913   -0.7880    0.2903 H   0  0  0  0  0  0  0  0  0  0  0  0
   -0.4565    1.2510    0.6252 H   0  0  0  0  0  0  0  0  0  0  0  0
    0.3157    1.8305   -1.0703 H   0  0  0  0  0  0  0  0  0  0  0  0
   -2.6869    1.2959   -0.7576 H   0  0  0  0  0  0  0  0  0  0  0  0
   -1.9013    1.8772   -2.2321 H   0  0  0  0  0  0  0  0  0  0  0  0
   -1.9181    2.8914   -0.7802 H   0  0  0  0  0  0  0  0  0  0  0  0
  1  2  2  3
  1  4  1  0
  1 22  1  0
  2  3  1  0
  2  5  1  0
  3  6  1  0
  3  7  1  0
  3  8  1  0
  9 10  1  0
  9 15  1  0
  9 16  1  0
  9 17  1  0
 10 11  1  0
 10 18  1  0
 10 19  1  0
 11 12  1  0
 11 20  1  0
 11 21  1  0
 12 13  1  0
 13 14  1  0
 13 23  1  0
 14 24  1  0
 14 25  1  0
 14 26  1  0
M  RAD  1  13   2
M  END
>  <reaction>  (18) 
rmg_rxn_347

>  <mol_properties>  (18) 
{"0": {"label": "*3", "atom_type": "Cd"}, "1": {"label": "*4", "atom_type": "Cd"}, "11": {"label": "*0", "atom_type": "O2s"}, "12": {"label": "*1", "atom_type": "Cs"}, "21": {"label": "*2", "atom_type": "H0"}}

>  <type>  (18) 
unop_14

>  <geom_source>  (18) 
gaussian_log

$$$$
