
     RDKit          3D

  9  8  0  0  0  0  0  0  0  0999 V2000
   -1.5470   -0.0755   -0.1976 C   0  0  0  0  0  0  0  0  0  0  0  0
   -0.2885    0.4507    0.1749 O   0  0  0  0  0  0  0  0  0  0  0  0
   -0.1502    1.7216   -0.3294 N   0  0  0  0  0  0  0  0  0  0  0  0
    0.9626    2.2353   -0.0219 C   0  0  0  0  0  0  0  0  0  0  0  0
   -1.6392   -0.1356   -1.2844 H   0  0  0  0  0  0  0  0  0  0  0  0
   -2.3597    0.5337    0.2044 H   0  0  0  0  0  0  0  0  0  0  0  0
   -1.5879   -1.0750    0.2318 H   0  0  0  0  0  0  0  0  0  0  0  0
    1.1497    3.2381   -0.3820 H   0  0  0  0  0  0  0  0  0  0  0  0
    1.7060    1.7101    0.5739 H   0  0  0  0  0  0  0  0  0  0  0  0
  1  2  1  0
  1  5  1  0
  1  6  1  0
  1  7  1  0
  2  3  1  0
  3  4  2  3
  4  8  1  0
  4  9  1  0
M  END
>  <reaction>  (1) 
rmg_rxn_15714

>  <mol_properties>  (1) 
{"0": {"label": "donator", "atom_type": "Cs"}, "4": {"label": "d_hydrogen", "atom_type": "H0"}}

>  <type>  (1) 
r1h

$$$$

     RDKit          3D

 14 13  0  0  0  0  0  0  0  0999 V2000
   -1.9167    0.6959   -0.2757 C   0  0  0  0  0  3  0  0  0  0  0  0
   -1.2132   -0.5025    0.2432 C   0  0  0  0  0  0  0  0  0  0  0  0
   -2.1451   -1.6324    0.6428 C   0  0  0  0  0  0  0  0  0  0  0  0
   -2.9617   -1.2014    1.7018 O   0  0  0  0  0  0  0  0  0  0  0  0
   -3.8940   -2.1678    2.0979 C   0  0  0  0  0  0  0  0  0  0  0  0
   -2.9039    0.9452    0.0878 H   0  0  0  0  0  0  0  0  0  0  0  0
   -1.3969    1.4143   -0.8945 H   0  0  0  0  0  0  0  0  0  0  0  0
   -0.5037   -0.8823   -0.4987 H   0  0  0  0  0  0  0  0  0  0  0  0
   -0.6099   -0.2396    1.1256 H   0  0  0  0  0  0  0  0  0  0  0  0
   -2.7665   -1.9311   -0.2146 H   0  0  0  0  0  0  0  0  0  0  0  0
   -1.5607   -2.5114    0.9518 H   0  0  0  0  0  0  0  0  0  0  0  0
   -3.4000   -3.0856    2.4446 H   0  0  0  0  0  0  0  0  0  0  0  0
   -4.4753   -1.7487    2.9180 H   0  0  0  0  0  0  0  0  0  0  0  0
   -4.5741   -2.4312    1.2767 H   0  0  0  0  0  0  0  0  0  0  0  0
  1  2  1  0
  1  6  1  0
  1  7  1  0
  2  3  1  0
  2  8  1  0
  2  9  1  0
  3  4  1  0
  3 10  1  0
  3 11  1  0
  4  5  1  0
  5 12  1  0
  5 13  1  0
  5 14  1  0
M  RAD  1   1   2
M  END
>  <reaction>  (2) 
rmg_rxn_15714

>  <mol_properties>  (2) 
{"0": {"label": "acceptor", "atom_type": "Cs"}}

>  <type>  (2) 
r2

$$$$

     RDKit          3D

 15 14  0  0  0  0  0  0  0  0999 V2000
   -1.2811   -0.4129    1.0228 C   0  0  0  0  0  0  0  0  0  0  0  0
   -1.0023   -0.5809   -0.4650 C   0  0  0  0  0  0  0  0  0  0  0  0
   -2.0576    0.0568   -1.3449 C   0  0  0  0  0  0  0  0  0  0  0  0
   -2.0663    1.4464   -1.1307 O   0  0  0  0  0  0  0  0  0  0  0  0
   -3.0424    2.1072   -1.8849 C   0  0  0  0  0  0  0  0  0  0  0  0
   -2.2382   -0.8657    1.2935 H   0  0  0  0  0  0  0  0  0  0  0  0
   -1.3219    0.6426    1.2914 H   0  0  0  0  0  0  0  0  0  0  0  0
   -0.5042   -0.8881    1.6236 H   0  0  0  0  0  0  0  0  0  0  0  0
   -0.0316   -0.1460   -0.7167 H   0  0  0  0  0  0  0  0  0  0  0  0
   -0.9494   -1.6429   -0.7203 H   0  0  0  0  0  0  0  0  0  0  0  0
   -1.8518   -0.1570   -2.4041 H   0  0  0  0  0  0  0  0  0  0  0  0
   -3.0491   -0.3636   -1.1124 H   0  0  0  0  0  0  0  0  0  0  0  0
   -4.0521    1.7545   -1.6343 H   0  0  0  0  0  0  0  0  0  0  0  0
   -2.8850    1.9634   -2.9626 H   0  0  0  0  0  0  0  0  0  0  0  0
   -2.9730    3.1700   -1.6570 H   0  0  0  0  0  0  0  0  0  0  0  0
  1  2  1  0
  1  6  1  0
  1  7  1  0
  1  8  1  0
  2  3  1  0
  2  9  1  0
  2 10  1  0
  3  4  1  0
  3 11  1  0
  3 12  1  0
  4  5  1  0
  5 13  1  0
  5 14  1  0
  5 15  1  0
M  END
>  <reaction>  (3) 
rmg_rxn_15714

>  <mol_properties>  (3) 
{"0": {"label": "a_hydrogen", "atom_type": "H0"}, "1": {"label": "acceptor", "atom_type": "Cs"}}

>  <type>  (3) 
r2h

$$$$

     RDKit          3D

 23 21  0  0  0  0  0  0  0  0999 V2000
   -2.0958    0.3201    0.9331 C   0  0  0  0  0  0  0  0  0  0  0  0
   -1.9670    0.4361   -0.4492 O   0  0  0  0  0  0  0  0  0  0  0  0
   -2.0179   -0.8017   -1.0498 N   0  0  0  0  0  0  0  0  0  0  0  0
   -1.8081   -0.7271   -2.2940 C   0  0  0  0  0  0  0  0  0  0  0  0
   -0.9655   -0.1751    1.4493 H   0  0  0  0  0  0  0  0  0  0  0  0
   -2.8857   -0.3706    1.2269 H   0  0  0  0  0  0  0  0  0  0  0  0
   -2.2076    1.3215    1.3404 H   0  0  0  0  0  0  0  0  0  0  0  0
   -1.8411   -1.6567   -2.8463 H   0  0  0  0  0  0  0  0  0  0  0  0
   -1.6073    0.2147   -2.7997 H   0  0  0  0  0  0  0  0  0  0  0  0
    0.1913   -0.7294    1.9241 C   0  0  0  0  0  3  0  0  0  0  0  0
    0.9802   -1.2276    0.7416 C   0  0  0  0  0  0  0  0  0  0  0  0
    1.4630   -0.1188   -0.1723 C   0  0  0  0  0  0  0  0  0  0  0  0
    2.3532    0.7120    0.5342 O   0  0  0  0  0  0  0  0  0  0  0  0
    2.7920    1.8026   -0.2240 C   0  0  0  0  0  0  0  0  0  0  0  0
    0.6658    0.0805    2.4738 H   0  0  0  0  0  0  0  0  0  0  0  0
   -0.1780   -1.5130    2.5831 H   0  0  0  0  0  0  0  0  0  0  0  0
    1.8541   -1.7943    1.0848 H   0  0  0  0  0  0  0  0  0  0  0  0
    0.3711   -1.9161    0.1496 H   0  0  0  0  0  0  0  0  0  0  0  0
    1.9694   -0.5471   -1.0500 H   0  0  0  0  0  0  0  0  0  0  0  0
    0.6094    0.4707   -0.5358 H   0  0  0  0  0  0  0  0  0  0  0  0
    1.9536    2.4407   -0.5345 H   0  0  0  0  0  0  0  0  0  0  0  0
    3.4698    2.3867    0.3974 H   0  0  0  0  0  0  0  0  0  0  0  0
    3.3289    1.4771   -1.1258 H   0  0  0  0  0  0  0  0  0  0  0  0
  1  2  1  0
  1  5  1  0
  1  6  1  0
  1  7  1  0
  2  3  1  0
  3  4  2  3
  4  8  1  0
  4  9  1  0
 10 11  1  0
 10 15  1  0
 10 16  1  0
 11 12  1  0
 11 17  1  0
 11 18  1  0
 12 13  1  0
 12 19  1  0
 12 20  1  0
 13 14  1  0
 14 21  1  0
 14 22  1  0
 14 23  1  0
M  RAD  1  10   2
M  END
>  <reaction>  (4) 
rmg_rxn_15714

>  <mol_properties>  (4) 
{"0": {"label": "*1", "atom_type": "Cs"}, "1": {"label": "*0", "atom_type": "O2s"}, "4": {"label": "*2", "atom_type": "H0"}, "9": {"label": "*3", "atom_type": "Cs"}, "10": {"label": "*4", "atom_type": "Cs"}}

>  <type>  (4) 
ts

$$$$

     RDKit          3D

 23 21  0  0  0  0  0  0  0  0999 V2000
   -1.2344   -0.1522   -1.2707 C   0  0  0  0  0  3  0  0  0  0  0  0
   -2.4509   -0.1268   -0.6162 O   0  0  0  0  0  0  0  0  0  0  0  0
   -2.6091    0.4953    0.5729 N   0  0  0  0  0  0  0  0  0  0  0  0
   -1.6395    1.0054    1.2048 C   0  0  0  0  0  0  0  0  0  0  0  0
   -0.4168   -1.0732   -0.7121 H   0  0  0  0  0  0  0  0  0  0  0  0
   -0.6683    0.7755   -1.2341 H   0  0  0  0  0  0  0  0  0  0  0  0
   -1.4220   -0.5112   -2.2765 H   0  0  0  0  0  0  0  0  0  0  0  0
   -1.8989    1.4833    2.1339 H   0  0  0  0  0  0  0  0  0  0  0  0
   -0.5953    0.9970    0.9092 H   0  0  0  0  0  0  0  0  0  0  0  0
    0.3232   -2.0233   -0.2282 C   0  0  0  0  0  0  0  0  0  0  0  0
    1.2733   -1.4762    0.8084 C   0  0  0  0  0  0  0  0  0  0  0  0
    2.2333   -0.4309    0.2462 C   0  0  0  0  0  0  0  0  0  0  0  0
    1.5348    0.7727    0.0053 O   0  0  0  0  0  0  0  0  0  0  0  0
    2.3474    1.7813   -0.5330 C   0  0  0  0  0  0  0  0  0  0  0  0
   -0.3779   -2.7372    0.1901 H   0  0  0  0  0  0  0  0  0  0  0  0
    0.8363   -2.4400   -1.0889 H   0  0  0  0  0  0  0  0  0  0  0  0
    0.7131   -1.0278    1.6313 H   0  0  0  0  0  0  0  0  0  0  0  0
    1.8759   -2.2924    1.2236 H   0  0  0  0  0  0  0  0  0  0  0  0
    3.0479   -0.2422    0.9638 H   0  0  0  0  0  0  0  0  0  0  0  0
    2.6839   -0.7937   -0.6907 H   0  0  0  0  0  0  0  0  0  0  0  0
    2.7599    1.4824   -1.5049 H   0  0  0  0  0  0  0  0  0  0  0  0
    1.7181    2.6604   -0.6608 H   0  0  0  0  0  0  0  0  0  0  0  0
    3.1784    2.0242    0.1410 H   0  0  0  0  0  0  0  0  0  0  0  0
  1  2  1  0
  1  6  1  0
  1  7  1  0
  2  3  1  0
  3  4  2  3
  4  8  1  0
  4  9  1  0
  5 10  1  0
 10 11  1  0
 10 15  1  0
 10 16  1  0
 11 12  1  0
 11 17  1  0
 11 18  1  0
 12 13  1  0
 12 19  1  0
 12 20  1  0
 13 14  1  0
 14 21  1  0
 14 22  1  0
 14 23  1  0
M  RAD  1   1   2
M  END
>  <reaction>  (5) 
rmg_rxn_15714

>  <mol_properties>  (5) 
{"0": {"label": "*1", "atom_type": "Cs"}, "1": {"label": "*0", "atom_type": "O2s"}, "4": {"label": "*2", "atom_type": "H0"}, "9": {"label": "*3", "atom_type": "Cs"}, "10": {"label": "*4", "atom_type": "Cs"}}

>  <type>  (5) 
unop_1

>  <geom_source>  (5) 
crest_best.xyz

$$$$

     RDKit          3D

 23 21  0  0  0  0  0  0  0  0999 V2000
   -0.9498    0.1184   -0.6256 C   0  0  0  0  0  0  0  0  0  0  0  0
   -0.9498    0.1763   -2.0385 O   0  0  0  0  0  0  0  0  0  0  0  0
   -0.9498   -1.0976   -2.5543 N   0  0  0  0  0  0  0  0  0  0  0  0
   -0.9498   -1.0976   -3.8179 C   0  0  0  0  0  0  0  0  0  0  0  0
    0.1208   -0.4938   -0.1815 H   0  0  0  0  0  0  0  0  0  0  0  0
   -1.8419   -0.3918   -0.2555 H   0  0  0  0  0  0  0  0  0  0  0  0
   -0.9498    1.1533   -0.2878 H   0  0  0  0  0  0  0  0  0  0  0  0
   -0.9498   -2.0647   -4.3027 H   0  0  0  0  0  0  0  0  0  0  0  0
   -0.9498   -0.1811   -4.4040 H   0  0  0  0  0  0  0  0  0  0  0  0
    1.1919   -1.1063    0.2628 C   0  0  0  0  0  3  0  0  0  0  0  0
    2.0103   -0.1871    1.1598 C   0  0  0  0  0  0  0  0  0  0  0  0
    1.2093    0.9733    1.7135 C   0  0  0  0  0  0  0  0  0  0  0  0
    0.1823    0.4802    2.5376 O   0  0  0  0  0  0  0  0  0  0  0  0
   -0.6279    1.4932    3.0625 C   0  0  0  0  0  0  0  0  0  0  0  0
    0.3524   -1.5339    0.8109 H   0  0  0  0  0  0  0  0  0  0  0  0
    1.8020   -1.9256   -0.1203 H   0  0  0  0  0  0  0  0  0  0  0  0
    2.4263   -0.7526    1.9975 H   0  0  0  0  0  0  0  0  0  0  0  0
    2.8572    0.2247    0.6039 H   0  0  0  0  0  0  0  0  0  0  0  0
    1.8609    1.6464    2.2902 H   0  0  0  0  0  0  0  0  0  0  0  0
    0.7769    1.5626    0.8892 H   0  0  0  0  0  0  0  0  0  0  0  0
   -1.1244    2.0647    2.2667 H   0  0  0  0  0  0  0  0  0  0  0  0
   -1.3872    1.0206    3.6842 H   0  0  0  0  0  0  0  0  0  0  0  0
   -0.0486    2.1938    3.6793 H   0  0  0  0  0  0  0  0  0  0  0  0
  1  2  1  0
  1  5  1  0
  1  6  1  0
  1  7  1  0
  2  3  1  0
  3  4  2  3
  4  8  1  0
  4  9  1  0
 10 11  1  0
 10 15  1  0
 10 16  1  0
 11 12  1  0
 11 17  1  0
 11 18  1  0
 12 13  1  0
 12 19  1  0
 12 20  1  0
 13 14  1  0
 14 21  1  0
 14 22  1  0
 14 23  1  0
M  RAD  1  10   2
M  END
>  <reaction>  (6) 
rmg_rxn_15714

>  <mol_properties>  (6) 
{"0": {"label": "*1", "atom_type": "Cs"}, "1": {"label": "*0", "atom_type": "O2s"}, "4": {"label": "*2", "atom_type": "H0"}, "9": {"label": "*3", "atom_type": "Cs"}, "10": {"label": "*4", "atom_type": "Cs"}}

>  <type>  (6) 
unop_2

>  <geom_source>  (6) 
Heuristics

$$$$

     RDKit          3D

 23 21  0  0  0  0  0  0  0  0999 V2000
   -1.2327    0.1517    1.2702 C   0  0  0  0  0  3  0  0  0  0  0  0
   -2.4501    0.1272    0.6173 O   0  0  0  0  0  0  0  0  0  0  0  0
   -2.6099   -0.4937   -0.5723 N   0  0  0  0  0  0  0  0  0  0  0  0
   -1.6411   -1.0034   -1.2059 C   0  0  0  0  0  0  0  0  0  0  0  0
   -0.4155    1.0730    0.7114 H   0  0  0  0  0  0  0  0  0  0  0  0
   -0.6670   -0.7760    1.2321 H   0  0  0  0  0  0  0  0  0  0  0  0
   -1.4189    0.5099    2.2766 H   0  0  0  0  0  0  0  0  0  0  0  0
   -1.9018   -1.4804   -2.1351 H   0  0  0  0  0  0  0  0  0  0  0  0
   -0.5965   -0.9953   -0.9117 H   0  0  0  0  0  0  0  0  0  0  0  0
    0.3244    2.0234    0.2281 C   0  0  0  0  0  0  0  0  0  0  0  0
    1.2758    1.4765   -0.8075 C   0  0  0  0  0  0  0  0  0  0  0  0
    2.2339    0.4299   -0.2447 C   0  0  0  0  0  0  0  0  0  0  0  0
    1.5340   -0.7735   -0.0071 O   0  0  0  0  0  0  0  0  0  0  0  0
    2.3440   -1.7834    0.5325 C   0  0  0  0  0  0  0  0  0  0  0  0
   -0.3766    2.7371   -0.1909 H   0  0  0  0  0  0  0  0  0  0  0  0
    0.8366    2.4403    1.0892 H   0  0  0  0  0  0  0  0  0  0  0  0
    0.7165    1.0294   -1.6318 H   0  0  0  0  0  0  0  0  0  0  0  0
    1.8796    2.2927   -1.2210 H   0  0  0  0  0  0  0  0  0  0  0  0
    3.0500    0.2415   -0.9607 H   0  0  0  0  0  0  0  0  0  0  0  0
    2.6828    0.7909    0.6938 H   0  0  0  0  0  0  0  0  0  0  0  0
    1.7131   -2.6614    0.6593 H   0  0  0  0  0  0  0  0  0  0  0  0
    3.1758   -2.0275   -0.1401 H   0  0  0  0  0  0  0  0  0  0  0  0
    2.7555   -1.4850    1.5049 H   0  0  0  0  0  0  0  0  0  0  0  0
  1  2  1  0
  1  6  1  0
  1  7  1  0
  2  3  1  0
  3  4  2  3
  4  8  1  0
  4  9  1  0
  5 10  1  0
 10 11  1  0
 10 15  1  0
 10 16  1  0
 11 12  1  0
 11 17  1  0
 11 18  1  0
 12 13  1  0
 12 19  1  0
 12 20  1  0
 13 14  1  0
 14 21  1  0
 14 22  1  0
 14 23  1  0
M  RAD  1   1   2
M  END
>  <reaction>  (7) 
rmg_rxn_15714

>  <mol_properties>  (7) 
{"0": {"label": "*1", "atom_type": "Cs"}, "1": {"label": "*0", "atom_type": "O2s"}, "4": {"label": "*2", "atom_type": "H0"}, "9": {"label": "*3", "atom_type": "Cs"}, "10": {"label": "*4", "atom_type": "Cs"}}

>  <type>  (7) 
unop_3

>  <geom_source>  (7) 
Heuristics

$$$$

     RDKit          3D

 23 21  0  0  0  0  0  0  0  0999 V2000
   -1.4725    1.7197    0.6060 C   0  0  0  0  0  3  0  0  0  0  0  0
   -2.4321    0.8450    0.2903 O   0  0  0  0  0  0  0  0  0  0  0  0
   -2.0039   -0.2949   -0.3439 N   0  0  0  0  0  0  0  0  0  0  0  0
   -2.9179   -1.1283   -0.6520 C   0  0  0  0  0  0  0  0  0  0  0  0
   -0.1538   -1.4501    1.1142 H   0  0  0  0  0  0  0  0  0  0  0  0
   -0.4477    1.5377    0.3449 H   0  0  0  0  0  0  0  0  0  0  0  0
   -1.8346    2.6010    1.0931 H   0  0  0  0  0  0  0  0  0  0  0  0
   -2.5966   -2.0265   -1.1458 H   0  0  0  0  0  0  0  0  0  0  0  0
   -3.9724   -0.9801   -0.4456 H   0  0  0  0  0  0  0  0  0  0  0  0
    0.9162   -1.5137    1.3187 C   0  0  0  0  0  0  0  0  0  0  0  0
    1.7501   -1.5597    0.0539 C   0  0  0  0  0  0  0  0  0  0  0  0
    1.4104   -0.3956   -0.8814 C   0  0  0  0  0  0  0  0  0  0  0  0
    1.6020    0.8847   -0.3128 O   0  0  0  0  0  0  0  0  0  0  0  0
    2.9441    1.2556   -0.1327 C   0  0  0  0  0  0  0  0  0  0  0  0
    0.9480   -0.5652    1.8088 H   0  0  0  0  0  0  0  0  0  0  0  0
    1.1379   -2.3227    2.0028 H   0  0  0  0  0  0  0  0  0  0  0  0
    2.8120   -1.5384    0.3098 H   0  0  0  0  0  0  0  0  0  0  0  0
    1.5584   -2.4886   -0.4863 H   0  0  0  0  0  0  0  0  0  0  0  0
    1.9994   -0.4799   -1.8078 H   0  0  0  0  0  0  0  0  0  0  0  0
    0.3453   -0.4341   -1.1266 H   0  0  0  0  0  0  0  0  0  0  0  0
    3.4346    0.6658    0.6494 H   0  0  0  0  0  0  0  0  0  0  0  0
    3.5119    1.1489   -1.0656 H   0  0  0  0  0  0  0  0  0  0  0  0
    2.9365    2.3028    0.1663 H   0  0  0  0  0  0  0  0  0  0  0  0
  1  2  1  0
  1  6  1  0
  1  7  1  0
  2  3  1  0
  3  4  2  3
  4  8  1  0
  4  9  1  0
  5 10  1  0
 10 11  1  0
 10 15  1  0
 10 16  1  0
 11 12  1  0
 11 17  1  0
 11 18  1  0
 12 13  1  0
 12 19  1  0
 12 20  1  0
 13 14  1  0
 14 21  1  0
 14 22  1  0
 14 23  1  0
M  RAD  1   1   2
M  END
>  <reaction>  (8) 
rmg_rxn_15714

>  <mol_properties>  (8) 
{"0": {"label": "*1", "atom_type": "Cs"}, "1": {"label": "*0", "atom_type": "O2s"}, "4": {"label": "*2", "atom_type": "H0"}, "9": {"label": "*3", "atom_type": "Cs"}, "10": {"label": "*4", "atom_type": "Cs"}}

>  <type>  (8) 
unop_4

>  <geom_source>  (8) 
Heuristics

$$$$

     RDKit          3D

 23 21  0  0  0  0  0  0  0  0999 V2000
   -1.6088   -0.7456    1.5216 C   0  0  0  0  0  3  0  0  0  0  0  0
   -2.3490    0.0555    0.7505 O   0  0  0  0  0  0  0  0  0  0  0  0
   -1.8435    0.3090   -0.5005 N   0  0  0  0  0  0  0  0  0  0  0  0
   -2.5516    1.0782   -1.2302 C   0  0  0  0  0  0  0  0  0  0  0  0
    3.0879    2.2219   -0.6123 H   0  0  0  0  0  0  0  0  0  0  0  0
   -0.6791   -1.1533    1.1743 H   0  0  0  0  0  0  0  0  0  0  0  0
   -2.0290   -0.9239    2.4894 H   0  0  0  0  0  0  0  0  0  0  0  0
   -2.1727    1.2873   -2.2135 H   0  0  0  0  0  0  0  0  0  0  0  0
   -3.4917    1.5187   -0.9173 H   0  0  0  0  0  0  0  0  0  0  0  0
    2.4381    2.1120    0.2586 C   0  0  0  0  0  0  0  0  0  0  0  0
    1.4625    0.9590    0.1417 C   0  0  0  0  0  0  0  0  0  0  0  0
    2.2011   -0.3829    0.1504 C   0  0  0  0  0  0  0  0  0  0  0  0
    1.3577   -1.5116    0.0973 O   0  0  0  0  0  0  0  0  0  0  0  0
    0.7800   -1.7535   -1.1660 C   0  0  0  0  0  0  0  0  0  0  0  0
    3.0253    2.0756    1.1675 H   0  0  0  0  0  0  0  0  0  0  0  0
    1.9860    3.0713    0.1297 H   0  0  0  0  0  0  0  0  0  0  0  0
    0.7636    0.9811    0.9798 H   0  0  0  0  0  0  0  0  0  0  0  0
    0.8831    1.0544   -0.7777 H   0  0  0  0  0  0  0  0  0  0  0  0
    2.9191   -0.4125   -0.6838 H   0  0  0  0  0  0  0  0  0  0  0  0
    2.7551   -0.4891    1.0878 H   0  0  0  0  0  0  0  0  0  0  0  0
    1.5463   -1.7645   -1.9504 H   0  0  0  0  0  0  0  0  0  0  0  0
    0.3158   -2.7368   -1.1038 H   0  0  0  0  0  0  0  0  0  0  0  0
    0.0154   -1.0098   -1.4132 H   0  0  0  0  0  0  0  0  0  0  0  0
  1  2  1  0
  1  6  1  0
  1  7  1  0
  2  3  1  0
  3  4  2  3
  4  8  1  0
  4  9  1  0
  5 10  1  0
 10 11  1  0
 10 15  1  0
 10 16  1  0
 11 12  1  0
 11 17  1  0
 11 18  1  0
 12 13  1  0
 12 19  1  0
 12 20  1  0
 13 14  1  0
 14 21  1  0
 14 22  1  0
 14 23  1  0
M  RAD  1   1   2
M  END
>  <reaction>  (9) 
rmg_rxn_15714

>  <mol_properties>  (9) 
{"0": {"label": "*1", "atom_type": "Cs"}, "1": {"label": "*0", "atom_type": "O2s"}, "4": {"label": "*2", "atom_type": "H0"}, "9": {"label": "*3", "atom_type": "Cs"}, "10": {"label": "*4", "atom_type": "Cs"}}

>  <type>  (9) 
unop_5

>  <geom_source>  (9) 
Heuristics

$$$$

     RDKit          3D

 23 21  0  0  0  0  0  0  0  0999 V2000
   -1.8158   -0.0039    0.6278 C   0  0  0  0  0  0  0  0  0  0  0  0
   -1.8158    0.0541   -0.7850 O   0  0  0  0  0  0  0  0  0  0  0  0
   -1.8158   -1.2198   -1.3008 N   0  0  0  0  0  0  0  0  0  0  0  0
   -1.8158   -1.2198   -2.5644 C   0  0  0  0  0  0  0  0  0  0  0  0
   -0.7452   -0.6160    1.0720 H   0  0  0  0  0  0  0  0  0  0  0  0
   -2.7079   -0.5141    0.9980 H   0  0  0  0  0  0  0  0  0  0  0  0
   -1.8158    1.0310    0.9656 H   0  0  0  0  0  0  0  0  0  0  0  0
   -1.8158   -2.1869   -3.0492 H   0  0  0  0  0  0  0  0  0  0  0  0
   -1.8158   -0.3033   -3.1505 H   0  0  0  0  0  0  0  0  0  0  0  0
    0.3259   -1.2285    1.5163 C   0  0  0  0  0  3  0  0  0  0  0  0
    1.4998   -1.0268    0.5673 C   0  0  0  0  0  0  0  0  0  0  0  0
    1.6008    0.3883    0.0365 C   0  0  0  0  0  0  0  0  0  0  0  0
    1.8400    1.2712    1.1044 O   0  0  0  0  0  0  0  0  0  0  0  0
    1.9120    2.6086    0.6991 C   0  0  0  0  0  0  0  0  0  0  0  0
    0.4110   -0.5711    2.3815 H   0  0  0  0  0  0  0  0  0  0  0  0
    0.2826   -2.2585    1.8734 H   0  0  0  0  0  0  0  0  0  0  0  0
    2.4372   -1.2762    1.0711 H   0  0  0  0  0  0  0  0  0  0  0  0
    1.4114   -1.7010   -0.2891 H   0  0  0  0  0  0  0  0  0  0  0  0
    2.4148    0.4628   -0.6997 H   0  0  0  0  0  0  0  0  0  0  0  0
    0.6673    0.6676   -0.4776 H   0  0  0  0  0  0  0  0  0  0  0  0
    0.9731    2.9398    0.2349 H   0  0  0  0  0  0  0  0  0  0  0  0
    2.1002    3.2131    1.5854 H   0  0  0  0  0  0  0  0  0  0  0  0
    2.7267    2.7686   -0.0203 H   0  0  0  0  0  0  0  0  0  0  0  0
  1  2  1  0
  1  5  1  0
  1  6  1  0
  1  7  1  0
  2  3  1  0
  3  4  2  3
  4  8  1  0
  4  9  1  0
 10 11  1  0
 10 15  1  0
 10 16  1  0
 11 12  1  0
 11 17  1  0
 11 18  1  0
 12 13  1  0
 12 19  1  0
 12 20  1  0
 13 14  1  0
 14 21  1  0
 14 22  1  0
 14 23  1  0
M  RAD  1  10   2
M  END
>  <reaction>  (10) 
rmg_rxn_15714

>  <mol_properties>  (10) 
{"0": {"label": "*1", "atom_type": "Cs"}, "1": {"label": "*0", "atom_type": "O2s"}, "4": {"label": "*2", "atom_type": "H0"}, "9": {"label": "*3", "atom_type": "Cs"}, "10": {"label": "*4", "atom_type": "Cs"}}

>  <type>  (10) 
unop_6

>  <geom_source>  (10) 
Heuristics

$$$$

     RDKit          3D

 23 21  0  0  0  0  0  0  0  0999 V2000
   -1.2315   -0.1486    1.2706 C   0  0  0  0  0  3  0  0  0  0  0  0
   -2.4494   -0.1258    0.6187 O   0  0  0  0  0  0  0  0  0  0  0  0
   -2.6103    0.4922   -0.5722 N   0  0  0  0  0  0  0  0  0  0  0  0
   -1.6422    1.0002   -1.2080 C   0  0  0  0  0  0  0  0  0  0  0  0
   -0.4149   -1.0713    0.7131 H   0  0  0  0  0  0  0  0  0  0  0  0
   -1.4166   -0.5040    2.2781 H   0  0  0  0  0  0  0  0  0  0  0  0
   -0.6657    0.7789    1.2294 H   0  0  0  0  0  0  0  0  0  0  0  0
   -1.9037    1.4745   -2.1384 H   0  0  0  0  0  0  0  0  0  0  0  0
   -0.5973    0.9929   -0.9148 H   0  0  0  0  0  0  0  0  0  0  0  0
    0.3244   -2.0225    0.2305 C   0  0  0  0  0  0  0  0  0  0  0  0
    1.2749   -1.4770   -0.8067 C   0  0  0  0  0  0  0  0  0  0  0  0
    2.2338   -0.4302   -0.2456 C   0  0  0  0  0  0  0  0  0  0  0  0
    1.5343    0.7736   -0.0087 O   0  0  0  0  0  0  0  0  0  0  0  0
    2.3443    1.7830    0.5320 C   0  0  0  0  0  0  0  0  0  0  0  0
    0.8373   -2.4383    1.0918 H   0  0  0  0  0  0  0  0  0  0  0  0
   -0.3770   -2.7366   -0.1869 H   0  0  0  0  0  0  0  0  0  0  0  0
    1.8780   -2.2938   -1.2199 H   0  0  0  0  0  0  0  0  0  0  0  0
    0.7149   -1.0306   -1.6308 H   0  0  0  0  0  0  0  0  0  0  0  0
    2.6831   -0.7904    0.6929 H   0  0  0  0  0  0  0  0  0  0  0  0
    3.0495   -0.2427   -0.9623 H   0  0  0  0  0  0  0  0  0  0  0  0
    3.1775    2.0262   -0.1391 H   0  0  0  0  0  0  0  0  0  0  0  0
    1.7139    2.6616    0.6575 H   0  0  0  0  0  0  0  0  0  0  0  0
    2.7536    1.4846    1.5053 H   0  0  0  0  0  0  0  0  0  0  0  0
  1  2  1  0
  1  6  1  0
  1  7  1  0
  2  3  1  0
  3  4  2  3
  4  8  1  0
  4  9  1  0
  5 10  1  0
 10 11  1  0
 10 15  1  0
 10 16  1  0
 11 12  1  0
 11 17  1  0
 11 18  1  0
 12 13  1  0
 12 19  1  0
 12 20  1  0
 13 14  1  0
 14 21  1  0
 14 22  1  0
 14 23  1  0
M  RAD  1   1   2
M  END
>  <reaction>  (11) 
rmg_rxn_15714

>  <mol_properties>  (11) 
{"0": {"label": "*1", "atom_type": "Cs"}, "1": {"label": "*0", "atom_type": "O2s"}, "4": {"label": "*2", "atom_type": "H0"}, "9": {"label": "*3", "atom_type": "Cs"}, "10": {"label": "*4", "atom_type": "Cs"}}

>  <type>  (11) 
unop_7

>  <geom_source>  (11) 
Heuristics

$$$$

     RDKit          3D

 23 21  0  0  0  0  0  0  0  0999 V2000
   -0.6391    0.7440   -0.8261 C   0  0  0  0  0  0  0  0  0  0  0  0
   -0.6392    0.8019   -2.2390 O   0  0  0  0  0  0  0  0  0  0  0  0
   -0.6392   -0.4720   -2.7547 N   0  0  0  0  0  0  0  0  0  0  0  0
   -0.6392   -0.4720   -4.0183 C   0  0  0  0  0  0  0  0  0  0  0  0
    0.4314    0.1318   -0.3820 H   0  0  0  0  0  0  0  0  0  0  0  0
   -1.5313    0.2338   -0.4560 H   0  0  0  0  0  0  0  0  0  0  0  0
   -0.6392    1.7789   -0.4883 H   0  0  0  0  0  0  0  0  0  0  0  0
   -0.6392   -1.4390   -4.5031 H   0  0  0  0  0  0  0  0  0  0  0  0
   -0.6392    0.4445   -4.6045 H   0  0  0  0  0  0  0  0  0  0  0  0
    1.5026   -0.4807    0.0624 C   0  0  0  0  0  3  0  0  0  0  0  0
    1.9056    0.0537    1.4303 C   0  0  0  0  0  0  0  0  0  0  0  0
    0.7266    0.5212    2.2586 C   0  0  0  0  0  0  0  0  0  0  0  0
   -0.1165   -0.5713    2.5284 O   0  0  0  0  0  0  0  0  0  0  0  0
   -1.2523   -0.2137    3.2635 C   0  0  0  0  0  0  0  0  0  0  0  0
    0.8290   -1.3316    0.1631 H   0  0  0  0  0  0  0  0  0  0  0  0
    2.3763   -0.8026   -0.5060 H   0  0  0  0  0  0  0  0  0  0  0  0
    2.4404   -0.7165    1.9918 H   0  0  0  0  0  0  0  0  0  0  0  0
    2.5920    0.8975    1.3173 H   0  0  0  0  0  0  0  0  0  0  0  0
    1.0753    0.9664    3.2022 H   0  0  0  0  0  0  0  0  0  0  0  0
    0.1674    1.3000    1.7159 H   0  0  0  0  0  0  0  0  0  0  0  0
   -1.8672    0.5191    2.7235 H   0  0  0  0  0  0  0  0  0  0  0  0
   -1.8394   -1.1167    3.4250 H   0  0  0  0  0  0  0  0  0  0  0  0
   -0.9830    0.2148    4.2385 H   0  0  0  0  0  0  0  0  0  0  0  0
  1  2  1  0
  1  5  1  0
  1  6  1  0
  1  7  1  0
  2  3  1  0
  3  4  2  3
  4  8  1  0
  4  9  1  0
 10 11  1  0
 10 15  1  0
 10 16  1  0
 11 12  1  0
 11 17  1  0
 11 18  1  0
 12 13  1  0
 12 19  1  0
 12 20  1  0
 13 14  1  0
 14 21  1  0
 14 22  1  0
 14 23  1  0
M  RAD  1  10   2
M  END
>  <reaction>  (12) 
rmg_rxn_15714

>  <mol_properties>  (12) 
{"0": {"label": "*1", "atom_type": "Cs"}, "1": {"label": "*0", "atom_type": "O2s"}, "4": {"label": "*2", "atom_type": "H0"}, "9": {"label": "*3", "atom_type": "Cs"}, "10": {"label": "*4", "atom_type": "Cs"}}

>  <type>  (12) 
unop_8

>  <geom_source>  (12) 
Heuristics

$$$$

     RDKit          3D

 23 21  0  0  0  0  0  0  0  0999 V2000
   -1.8826    1.5330    0.9853 C   0  0  0  0  0  0  0  0  0  0  0  0
   -1.8826    1.5909   -0.4276 O   0  0  0  0  0  0  0  0  0  0  0  0
   -1.8826    0.3170   -0.9433 N   0  0  0  0  0  0  0  0  0  0  0  0
   -1.8826    0.3170   -2.2070 C   0  0  0  0  0  0  0  0  0  0  0  0
   -0.8120    0.9208    1.4294 H   0  0  0  0  0  0  0  0  0  0  0  0
   -2.7747    1.0228    1.3554 H   0  0  0  0  0  0  0  0  0  0  0  0
   -1.8826    2.5679    1.3231 H   0  0  0  0  0  0  0  0  0  0  0  0
   -1.8826   -0.6501   -2.6918 H   0  0  0  0  0  0  0  0  0  0  0  0
   -1.8826    1.2335   -2.7931 H   0  0  0  0  0  0  0  0  0  0  0  0
    0.2591    0.3083    1.8737 C   0  0  0  0  0  3  0  0  0  0  0  0
    0.3278   -1.1181    1.3448 C   0  0  0  0  0  0  0  0  0  0  0  0
    1.0999   -1.2360    0.0469 C   0  0  0  0  0  0  0  0  0  0  0  0
    2.4382   -0.8636    0.2646 O   0  0  0  0  0  0  0  0  0  0  0  0
    3.2130   -0.9125   -0.8996 C   0  0  0  0  0  0  0  0  0  0  0  0
    1.2589    0.6986    2.0635 H   0  0  0  0  0  0  0  0  0  0  0  0
   -0.3075    0.3546    2.8049 H   0  0  0  0  0  0  0  0  0  0  0  0
    0.7941   -1.7717    2.0865 H   0  0  0  0  0  0  0  0  0  0  0  0
   -0.6806   -1.5042    1.1717 H   0  0  0  0  0  0  0  0  0  0  0  0
    1.0558   -2.2681   -0.3313 H   0  0  0  0  0  0  0  0  0  0  0  0
    0.6511   -0.5861   -0.7212 H   0  0  0  0  0  0  0  0  0  0  0  0
    2.8282   -0.2289   -1.6685 H   0  0  0  0  0  0  0  0  0  0  0  0
    4.2261   -0.6125   -0.6354 H   0  0  0  0  0  0  0  0  0  0  0  0
    3.2410   -1.9259   -1.3229 H   0  0  0  0  0  0  0  0  0  0  0  0
  1  2  1  0
  1  5  1  0
  1  6  1  0
  1  7  1  0
  2  3  1  0
  3  4  2  3
  4  8  1  0
  4  9  1  0
 10 11  1  0
 10 15  1  0
 10 16  1  0
 11 12  1  0
 11 17  1  0
 11 18  1  0
 12 13  1  0
 12 19  1  0
 12 20  1  0
 13 14  1  0
 14 21  1  0
 14 22  1  0
 14 23  1  0
M  RAD  1  10   2
M  END
>  <reaction>  (13) 
rmg_rxn_15714

>  <mol_properties>  (13) 
{"0": {"label": "*1", "atom_type": "Cs"}, "1": {"label": "*0", "atom_type": "O2s"}, "4": {"label": "*2", "atom_type": "H0"}, "9": {"label": "*3", "atom_type": "Cs"}, "10": {"label": "*4", "atom_type": "Cs"}}

>  <type>  (13) 
unop_9

>  <geom_source>  (13) 
Heuristics

$$$$

     RDKit          3D

 23 21  0  0  0  0  0  0  0  0999 V2000
   -1.4735   -1.7227   -0.6016 C   0  0  0  0  0  3  0  0  0  0  0  0
   -2.4320   -0.8461   -0.2880 O   0  0  0  0  0  0  0  0  0  0  0  0
   -2.0024    0.2953    0.3424 N   0  0  0  0  0  0  0  0  0  0  0  0
   -2.9153    1.1313    0.6470 C   0  0  0  0  0  0  0  0  0  0  0  0
   -0.1555    1.4553   -1.1088 H   0  0  0  0  0  0  0  0  0  0  0  0
   -0.4483   -1.5406   -0.3426 H   0  0  0  0  0  0  0  0  0  0  0  0
   -1.8369   -2.6053   -1.0853 H   0  0  0  0  0  0  0  0  0  0  0  0
   -2.5928    2.0307    1.1380 H   0  0  0  0  0  0  0  0  0  0  0  0
   -3.9698    0.9840    0.4404 H   0  0  0  0  0  0  0  0  0  0  0  0
    0.9146    1.5171   -1.3152 C   0  0  0  0  0  0  0  0  0  0  0  0
    1.7498    1.5598   -0.0509 C   0  0  0  0  0  0  0  0  0  0  0  0
    1.4105    0.3937    0.8819 C   0  0  0  0  0  0  0  0  0  0  0  0
    1.6014   -0.8854    0.3105 O   0  0  0  0  0  0  0  0  0  0  0  0
    2.9433   -1.2560    0.1278 C   0  0  0  0  0  0  0  0  0  0  0  0
    0.9479    0.5700   -1.8083 H   0  0  0  0  0  0  0  0  0  0  0  0
    1.1364    2.3281   -1.9970 H   0  0  0  0  0  0  0  0  0  0  0  0
    2.8115    1.5387   -0.3078 H   0  0  0  0  0  0  0  0  0  0  0  0
    1.5589    2.4875    0.4917 H   0  0  0  0  0  0  0  0  0  0  0  0
    2.0002    0.4759    1.8082 H   0  0  0  0  0  0  0  0  0  0  0  0
    0.3456    0.4319    1.1279 H   0  0  0  0  0  0  0  0  0  0  0  0
    2.9353   -2.3023   -0.1739 H   0  0  0  0  0  0  0  0  0  0  0  0
    3.4327   -0.6641   -0.6533 H   0  0  0  0  0  0  0  0  0  0  0  0
    3.5122   -1.1517    1.0603 H   0  0  0  0  0  0  0  0  0  0  0  0
  1  2  1  0
  1  6  1  0
  1  7  1  0
  2  3  1  0
  3  4  2  3
  4  8  1  0
  4  9  1  0
  5 10  1  0
 10 11  1  0
 10 15  1  0
 10 16  1  0
 11 12  1  0
 11 17  1  0
 11 18  1  0
 12 13  1  0
 12 19  1  0
 12 20  1  0
 13 14  1  0
 14 21  1  0
 14 22  1  0
 14 23  1  0
M  RAD  1   1   2
M  END
>  <reaction>  (14) 
rmg_rxn_15714

>  <mol_properties>  (14) 
{"0": {"label": "*1", "atom_type": "Cs"}, "1": {"label": "*0", "atom_type": "O2s"}, "4": {"label": "*2", "atom_type": "H0"}, "9": {"label": "*3", "atom_type": "Cs"}, "10": {"label": "*4", "atom_type": "Cs"}}

>  <type>  (14) 
unop_10

>  <geom_source>  (14) 
Heuristics

$$$$

     RDKit          3D

 23 21  0  0  0  0  0  0  0  0999 V2000
   -0.6613    1.6077   -0.6125 C   0  0  0  0  0  0  0  0  0  0  0  0
   -0.6613    1.6656   -2.0254 O   0  0  0  0  0  0  0  0  0  0  0  0
   -0.6613    0.3917   -2.5411 N   0  0  0  0  0  0  0  0  0  0  0  0
   -0.6613    0.3917   -3.8047 C   0  0  0  0  0  0  0  0  0  0  0  0
    0.4093    0.9955   -0.1684 H   0  0  0  0  0  0  0  0  0  0  0  0
   -1.5534    1.0975   -0.2424 H   0  0  0  0  0  0  0  0  0  0  0  0
   -0.6613    2.6426   -0.2747 H   0  0  0  0  0  0  0  0  0  0  0  0
   -0.6613   -0.5753   -4.2895 H   0  0  0  0  0  0  0  0  0  0  0  0
   -0.6613    1.3082   -4.3909 H   0  0  0  0  0  0  0  0  0  0  0  0
    1.4804    0.3830    0.2760 C   0  0  0  0  0  3  0  0  0  0  0  0
    1.4789    0.3215    1.7976 C   0  0  0  0  0  0  0  0  0  0  0  0
    0.2821   -0.4149    2.3632 C   0  0  0  0  0  0  0  0  0  0  0  0
    0.3192   -1.7566    1.9446 O   0  0  0  0  0  0  0  0  0  0  0  0
   -0.7764   -2.4990    2.3990 C   0  0  0  0  0  0  0  0  0  0  0  0
    1.4945   -0.6196   -0.1513 H   0  0  0  0  0  0  0  0  0  0  0  0
    2.3528    0.9238   -0.0939 H   0  0  0  0  0  0  0  0  0  0  0  0
    2.3883   -0.1687    2.1547 H   0  0  0  0  0  0  0  0  0  0  0  0
    1.4791    1.3323    2.2151 H   0  0  0  0  0  0  0  0  0  0  0  0
    0.2878   -0.3657    3.4622 H   0  0  0  0  0  0  0  0  0  0  0  0
   -0.6513    0.0585    2.0189 H   0  0  0  0  0  0  0  0  0  0  0  0
   -1.7240   -2.0894    2.0237 H   0  0  0  0  0  0  0  0  0  0  0  0
   -0.6615   -3.5176    2.0306 H   0  0  0  0  0  0  0  0  0  0  0  0
   -0.8215   -2.5207    3.4965 H   0  0  0  0  0  0  0  0  0  0  0  0
  1  2  1  0
  1  5  1  0
  1  6  1  0
  1  7  1  0
  2  3  1  0
  3  4  2  3
  4  8  1  0
  4  9  1  0
 10 11  1  0
 10 15  1  0
 10 16  1  0
 11 12  1  0
 11 17  1  0
 11 18  1  0
 12 13  1  0
 12 19  1  0
 12 20  1  0
 13 14  1  0
 14 21  1  0
 14 22  1  0
 14 23  1  0
M  RAD  1  10   2
M  END
>  <reaction>  (15) 
rmg_rxn_15714

>  <mol_properties>  (15) 
{"0": {"label": "*1", "atom_type": "Cs"}, "1": {"label": "*0", "atom_type": "O2s"}, "4": {"label": "*2", "atom_type": "H0"}, "9": {"label": "*3", "atom_type": "Cs"}, "10": {"label": "*4", "atom_type": "Cs"}}

>  <type>  (15) 
unop_11

>  <geom_source>  (15) 
Heuristics

$$$$

     RDKit          3D

 23 21  0  0  0  0  0  0  0  0999 V2000
   -2.1265   -1.1869   -0.4203 C   0  0  0  0  0  3  0  0  0  0  0  0
   -2.2510    0.0025    0.2706 O   0  0  0  0  0  0  0  0  0  0  0  0
   -1.6336    1.0606   -0.3628 N   0  0  0  0  0  0  0  0  0  0  0  0
   -1.6774    2.1684    0.2454 C   0  0  0  0  0  0  0  0  0  0  0  0
   -0.9735   -1.7934   -0.0623 H   0  0  0  0  0  0  0  0  0  0  0  0
   -2.0526   -1.0590   -1.4968 H   0  0  0  0  0  0  0  0  0  0  0  0
   -2.9224   -1.8510   -0.1026 H   0  0  0  0  0  0  0  0  0  0  0  0
   -1.2073    3.0030   -0.2434 H   0  0  0  0  0  0  0  0  0  0  0  0
   -2.1589    2.3201    1.2062 H   0  0  0  0  0  0  0  0  0  0  0  0
    0.1367   -2.3623    0.2968 C   0  0  0  0  0  0  0  0  0  0  0  0
    1.1473   -1.2905    0.6116 C   0  0  0  0  0  0  0  0  0  0  0  0
    1.4686   -0.4337   -0.6189 C   0  0  0  0  0  0  0  0  0  0  0  0
    2.5631    0.4386   -0.4377 O   0  0  0  0  0  0  0  0  0  0  0  0
    2.2969    1.5442    0.3863 C   0  0  0  0  0  0  0  0  0  0  0  0
   -0.1202   -2.9646    1.1611 H   0  0  0  0  0  0  0  0  0  0  0  0
    0.4228   -2.9843   -0.5444 H   0  0  0  0  0  0  0  0  0  0  0  0
    0.7669   -0.6573    1.4168 H   0  0  0  0  0  0  0  0  0  0  0  0
    2.0818   -1.7447    0.9615 H   0  0  0  0  0  0  0  0  0  0  0  0
    1.7651   -1.0838   -1.4469 H   0  0  0  0  0  0  0  0  0  0  0  0
    0.5770    0.1382   -0.9164 H   0  0  0  0  0  0  0  0  0  0  0  0
    2.1644    1.2552    1.4352 H   0  0  0  0  0  0  0  0  0  0  0  0
    3.1613    2.2014    0.3069 H   0  0  0  0  0  0  0  0  0  0  0  0
    1.3991    2.0779    0.0512 H   0  0  0  0  0  0  0  0  0  0  0  0
  1  2  1  0
  1  6  1  0
  1  7  1  0
  2  3  1  0
  3  4  2  3
  4  8  1  0
  4  9  1  0
  5 10  1  0
 10 11  1  0
 10 15  1  0
 10 16  1  0
 11 12  1  0
 11 17  1  0
 11 18  1  0
 12 13  1  0
 12 19  1  0
 12 20  1  0
 13 14  1  0
 14 21  1  0
 14 22  1  0
 14 23  1  0
M  RAD  1   1   2
M  END
>  <reaction>  (16) 
rmg_rxn_15714

>  <mol_properties>  (16) 
{"0": {"label": "*1", "atom_type": "Cs"}, "1": {"label": "*0", "atom_type": "O2s"}, "4": {"label": "*2", "atom_type": "H0"}, "9": {"label": "*3", "atom_type": "Cs"}, "10": {"label": "*4", "atom_type": "Cs"}}

>  <type>  (16) 
unop_12

>  <geom_source>  (16) 
Heuristics

$$$$

     RDKit          3D

 23 21  0  0  0  0  0  0  0  0999 V2000
   -1.2335    0.1551   -1.2697 C   0  0  0  0  0  3  0  0  0  0  0  0
   -2.4506    0.1281   -0.6163 O   0  0  0  0  0  0  0  0  0  0  0  0
   -2.6094   -0.4959    0.5718 N   0  0  0  0  0  0  0  0  0  0  0  0
   -1.6400   -1.0060    1.2040 C   0  0  0  0  0  0  0  0  0  0  0  0
   -0.4165    1.0756   -0.7092 H   0  0  0  0  0  0  0  0  0  0  0  0
   -1.4204    0.5155   -2.2751 H   0  0  0  0  0  0  0  0  0  0  0  0
   -0.6670   -0.7722   -1.2340 H   0  0  0  0  0  0  0  0  0  0  0  0
   -1.8999   -1.4856    2.1321 H   0  0  0  0  0  0  0  0  0  0  0  0
   -0.5954   -0.9961    0.9095 H   0  0  0  0  0  0  0  0  0  0  0  0
    0.3237    2.0251   -0.2244 C   0  0  0  0  0  0  0  0  0  0  0  0
    1.2769    1.4760    0.8084 C   0  0  0  0  0  0  0  0  0  0  0  0
    2.2338    0.4301    0.2420 C   0  0  0  0  0  0  0  0  0  0  0  0
    1.5337   -0.7734    0.0056 O   0  0  0  0  0  0  0  0  0  0  0  0
    2.3438   -1.7844   -0.5320 C   0  0  0  0  0  0  0  0  0  0  0  0
    0.8344    2.4444   -1.0853 H   0  0  0  0  0  0  0  0  0  0  0  0
   -0.3769    2.7373    0.1975 H   0  0  0  0  0  0  0  0  0  0  0  0
    1.8815    2.2912    1.2223 H   0  0  0  0  0  0  0  0  0  0  0  0
    0.7191    1.0273    1.6327 H   0  0  0  0  0  0  0  0  0  0  0  0
    2.6799    0.7919   -0.6976 H   0  0  0  0  0  0  0  0  0  0  0  0
    3.0520    0.2415    0.9556 H   0  0  0  0  0  0  0  0  0  0  0  0
    1.7126   -2.6623   -0.6583 H   0  0  0  0  0  0  0  0  0  0  0  0
    2.7563   -1.4876   -1.5044 H   0  0  0  0  0  0  0  0  0  0  0  0
    3.1747   -2.0280    0.1418 H   0  0  0  0  0  0  0  0  0  0  0  0
  1  2  1  0
  1  6  1  0
  1  7  1  0
  2  3  1  0
  3  4  2  3
  4  8  1  0
  4  9  1  0
  5 10  1  0
 10 11  1  0
 10 15  1  0
 10 16  1  0
 11 12  1  0
 11 17  1  0
 11 18  1  0
 12 13  1  0
 12 19  1  0
 12 20  1  0
 13 14  1  0
 14 21  1  0
 14 22  1  0
 14 23  1  0
M  RAD  1   1   2
M  END
>  <reaction>  (17) 
rmg_rxn_15714

>  <mol_properties>  (17) 
{"0": {"label": "*1", "atom_type": "Cs"}, "1": {"label": "*0", "atom_type": "O2s"}, "4": {"label": "*2", "atom_type": "H0"}, "9": {"label": "*3", "atom_type": "Cs"}, "10": {"label": "*4", "atom_type": "Cs"}}

>  <type>  (17) 
unop_13

>  <geom_source>  (17) 
Heuristics

$$$$

     RDKit          3D

 23 21  0  0  0  0  0  0  0  0999 V2000
   -1.6514    1.9248    0.6959 C   0  0  0  0  0  0  0  0  0  0  0  0
   -1.6514    1.9827   -0.7170 O   0  0  0  0  0  0  0  0  0  0  0  0
   -1.6514    0.7089   -1.2328 N   0  0  0  0  0  0  0  0  0  0  0  0
   -1.6514    0.7089   -2.4964 C   0  0  0  0  0  0  0  0  0  0  0  0
   -0.5808    1.3126    1.1400 H   0  0  0  0  0  0  0  0  0  0  0  0
   -2.5435    1.4146    1.0660 H   0  0  0  0  0  0  0  0  0  0  0  0
   -1.6514    2.9597    1.0337 H   0  0  0  0  0  0  0  0  0  0  0  0
   -1.6514   -0.2582   -2.9812 H   0  0  0  0  0  0  0  0  0  0  0  0
   -1.6514    1.6253   -3.0825 H   0  0  0  0  0  0  0  0  0  0  0  0
    0.4903    0.7002    1.5843 C   0  0  0  0  0  3  0  0  0  0  0  0
    0.2440   -0.7968    1.7174 C   0  0  0  0  0  0  0  0  0  0  0  0
    0.7821   -1.5956    0.5482 C   0  0  0  0  0  0  0  0  0  0  0  0
    2.1806   -1.4600    0.4946 O   0  0  0  0  0  0  0  0  0  0  0  0
    2.7527   -2.1436   -0.5840 C   0  0  0  0  0  0  0  0  0  0  0  0
    1.5575    0.9120    1.5204 H   0  0  0  0  0  0  0  0  0  0  0  0
    0.0856    1.2419    2.4404 H   0  0  0  0  0  0  0  0  0  0  0  0
    0.7032   -1.1729    2.6352 H   0  0  0  0  0  0  0  0  0  0  0  0
   -0.8284   -0.9963    1.7949 H   0  0  0  0  0  0  0  0  0  0  0  0
    0.5131   -2.6570    0.6548 H   0  0  0  0  0  0  0  0  0  0  0  0
    0.3354   -1.2373   -0.3930 H   0  0  0  0  0  0  0  0  0  0  0  0
    2.3738   -1.7692   -1.5447 H   0  0  0  0  0  0  0  0  0  0  0  0
    3.8294   -1.9842   -0.5429 H   0  0  0  0  0  0  0  0  0  0  0  0
    2.5504   -3.2221   -0.5309 H   0  0  0  0  0  0  0  0  0  0  0  0
  1  2  1  0
  1  5  1  0
  1  6  1  0
  1  7  1  0
  2  3  1  0
  3  4  2  3
  4  8  1  0
  4  9  1  0
 10 11  1  0
 10 15  1  0
 10 16  1  0
 11 12  1  0
 11 17  1  0
 11 18  1  0
 12 13  1  0
 12 19  1  0
 12 20  1  0
 13 14  1  0
 14 21  1  0
 14 22  1  0
 14 23  1  0
M  RAD  1  10   2
M  END
>  <reaction>  (18) 
rmg_rxn_15714

>  <mol_properties>  (18) 
{"0": {"label": "*1", "atom_type": "Cs"}, "1": {"label": "*0", "atom_type": "O2s"}, "4": {"label": "*2", "atom_type": "H0"}, "9": {"label": "*3", "atom_type": "Cs"}, "10": {"label": "*4", "atom_type": "Cs"}}

>  <type>  (18) 
unop_14

>  <geom_source>  (18) 
Heuristics

$$$$

     RDKit          3D

 23 21  0  0  0  0  0  0  0  0999 V2000
   -2.1158   -1.1894    0.4370 C   0  0  0  0  0  3  0  0  0  0  0  0
   -2.2561   -0.0050   -0.2594 O   0  0  0  0  0  0  0  0  0  0  0  0
   -1.6330    1.0599    0.3568 N   0  0  0  0  0  0  0  0  0  0  0  0
   -1.6905    2.1629   -0.2589 C   0  0  0  0  0  0  0  0  0  0  0  0
   -0.9669   -1.7940    0.0633 H   0  0  0  0  0  0  0  0  0  0  0  0
   -2.9145   -1.8583    0.1369 H   0  0  0  0  0  0  0  0  0  0  0  0
   -2.0245   -1.0544    1.5114 H   0  0  0  0  0  0  0  0  0  0  0  0
   -1.2163    3.0030    0.2161 H   0  0  0  0  0  0  0  0  0  0  0  0
   -2.1877    2.3057   -1.2131 H   0  0  0  0  0  0  0  0  0  0  0  0
    0.1406   -2.3593   -0.3100 C   0  0  0  0  0  0  0  0  0  0  0  0
    1.1488   -1.2839   -0.6200 C   0  0  0  0  0  0  0  0  0  0  0  0
    1.4724   -0.4359    0.6161 C   0  0  0  0  0  0  0  0  0  0  0  0
    2.5650    0.4394    0.4384 O   0  0  0  0  0  0  0  0  0  0  0  0
    2.2933    1.5523   -0.3738 C   0  0  0  0  0  0  0  0  0  0  0  0
    0.4324   -2.9903    0.5225 H   0  0  0  0  0  0  0  0  0  0  0  0
   -0.1224   -2.9522   -1.1790 H   0  0  0  0  0  0  0  0  0  0  0  0
    2.0829   -1.7341   -0.9761 H   0  0  0  0  0  0  0  0  0  0  0  0
    0.7650   -0.6452   -1.4192 H   0  0  0  0  0  0  0  0  0  0  0  0
    0.5809    0.1326    0.9202 H   0  0  0  0  0  0  0  0  0  0  0  0
    1.7720   -1.0919    1.4384 H   0  0  0  0  0  0  0  0  0  0  0  0
    2.1522    1.2725   -1.4241 H   0  0  0  0  0  0  0  0  0  0  0  0
    1.3984    2.0835   -0.0270 H   0  0  0  0  0  0  0  0  0  0  0  0
    3.1588    2.2082   -0.2956 H   0  0  0  0  0  0  0  0  0  0  0  0
  1  2  1  0
  1  6  1  0
  1  7  1  0
  2  3  1  0
  3  4  2  3
  4  8  1  0
  4  9  1  0
  5 10  1  0
 10 11  1  0
 10 15  1  0
 10 16  1  0
 11 12  1  0
 11 17  1  0
 11 18  1  0
 12 13  1  0
 12 19  1  0
 12 20  1  0
 13 14  1  0
 14 21  1  0
 14 22  1  0
 14 23  1  0
M  RAD  1   1   2
M  END
>  <reaction>  (19) 
rmg_rxn_15714

>  <mol_properties>  (19) 
{"0": {"label": "*1", "atom_type": "Cs"}, "1": {"label": "*0", "atom_type": "O2s"}, "4": {"label": "*2", "atom_type": "H0"}, "9": {"label": "*3", "atom_type": "Cs"}, "10": {"label": "*4", "atom_type": "Cs"}}

>  <type>  (19) 
unop_15

>  <geom_source>  (19) 
Heuristics

$$$$

     RDKit          3D

 23 21  0  0  0  0  0  0  0  0999 V2000
   -1.3892    2.1060    0.3005 C   0  0  0  0  0  0  0  0  0  0  0  0
   -1.3893    2.1639   -1.1124 O   0  0  0  0  0  0  0  0  0  0  0  0
   -1.3893    0.8900   -1.6281 N   0  0  0  0  0  0  0  0  0  0  0  0
   -1.3893    0.8900   -2.8917 C   0  0  0  0  0  0  0  0  0  0  0  0
   -0.3187    1.4938    0.7446 H   0  0  0  0  0  0  0  0  0  0  0  0
   -2.2814    1.5958    0.6706 H   0  0  0  0  0  0  0  0  0  0  0  0
   -1.3893    3.1409    0.6383 H   0  0  0  0  0  0  0  0  0  0  0  0
   -1.3893   -0.0770   -3.3766 H   0  0  0  0  0  0  0  0  0  0  0  0
   -1.3893    1.8065   -3.4779 H   0  0  0  0  0  0  0  0  0  0  0  0
    0.7525    0.8814    1.1889 C   0  0  0  0  0  3  0  0  0  0  0  0
    0.3761   -0.3530    1.9976 C   0  0  0  0  0  0  0  0  0  0  0  0
    0.4880   -1.6404    1.2073 C   0  0  0  0  0  0  0  0  0  0  0  0
    1.8284   -1.8440    0.8345 O   0  0  0  0  0  0  0  0  0  0  0  0
    2.0104   -3.0004    0.0679 C   0  0  0  0  0  0  0  0  0  0  0  0
    1.7820    0.8139    0.8376 H   0  0  0  0  0  0  0  0  0  0  0  0
    0.6552    1.7877    1.7883 H   0  0  0  0  0  0  0  0  0  0  0  0
    1.0142   -0.4319    2.8815 H   0  0  0  0  0  0  0  0  0  0  0  0
   -0.6533   -0.2680    2.3567 H   0  0  0  0  0  0  0  0  0  0  0  0
    0.1341   -2.4902    1.8094 H   0  0  0  0  0  0  0  0  0  0  0  0
   -0.1464   -1.5892    0.3081 H   0  0  0  0  0  0  0  0  0  0  0  0
    1.4376   -2.9572   -0.8684 H   0  0  0  0  0  0  0  0  0  0  0  0
    3.0706   -3.0760   -0.1700 H   0  0  0  0  0  0  0  0  0  0  0  0
    1.7041   -3.9009    0.6176 H   0  0  0  0  0  0  0  0  0  0  0  0
  1  2  1  0
  1  5  1  0
  1  6  1  0
  1  7  1  0
  2  3  1  0
  3  4  2  3
  4  8  1  0
  4  9  1  0
 10 11  1  0
 10 15  1  0
 10 16  1  0
 11 12  1  0
 11 17  1  0
 11 18  1  0
 12 13  1  0
 12 19  1  0
 12 20  1  0
 13 14  1  0
 14 21  1  0
 14 22  1  0
 14 23  1  0
M  RAD  1  10   2
M  END
>  <reaction>  (20) 
rmg_rxn_15714

>  <mol_properties>  (20) 
{"0": {"label": "*1", "atom_type": "Cs"}, "1": {"label": "*0", "atom_type": "O2s"}, "4": {"label": "*2", "atom_type": "H0"}, "9": {"label": "*3", "atom_type": "Cs"}, "10": {"label": "*4", "atom_type": "Cs"}}

>  <type>  (20) 
unop_16

>  <geom_source>  (20) 
Heuristics

$$$$

     RDKit          3D

 23 21  0  0  0  0  0  0  0  0999 V2000
   -2.1195    1.1861    0.4360 C   0  0  0  0  0  3  0  0  0  0  0  0
   -2.2558    0.0010   -0.2601 O   0  0  0  0  0  0  0  0  0  0  0  0
   -1.6298   -1.0615    0.3570 N   0  0  0  0  0  0  0  0  0  0  0  0
   -1.6831   -2.1652   -0.2580 C   0  0  0  0  0  0  0  0  0  0  0  0
   -0.9714    1.7931    0.0633 H   0  0  0  0  0  0  0  0  0  0  0  0
   -2.0292    1.0515    1.5105 H   0  0  0  0  0  0  0  0  0  0  0  0
   -2.9195    1.8528    0.1346 H   0  0  0  0  0  0  0  0  0  0  0  0
   -1.2055   -3.0031    0.2176 H   0  0  0  0  0  0  0  0  0  0  0  0
   -2.1782   -2.3099   -1.2128 H   0  0  0  0  0  0  0  0  0  0  0  0
    0.1357    2.3596   -0.3088 C   0  0  0  0  0  0  0  0  0  0  0  0
    1.1446    1.2852   -0.6199 C   0  0  0  0  0  0  0  0  0  0  0  0
    1.4708    0.4378    0.6159 C   0  0  0  0  0  0  0  0  0  0  0  0
    2.5655   -0.4348    0.4376 O   0  0  0  0  0  0  0  0  0  0  0  0
    2.2960   -1.5491   -0.3735 C   0  0  0  0  0  0  0  0  0  0  0  0
   -0.1274    2.9535   -1.1771 H   0  0  0  0  0  0  0  0  0  0  0  0
    0.4270    2.9898    0.5246 H   0  0  0  0  0  0  0  0  0  0  0  0
    0.7605    0.6460   -1.4186 H   0  0  0  0  0  0  0  0  0  0  0  0
    2.0777    1.7363   -0.9772 H   0  0  0  0  0  0  0  0  0  0  0  0
    1.7691    1.0944    1.4381 H   0  0  0  0  0  0  0  0  0  0  0  0
    0.5807   -0.1329    0.9201 H   0  0  0  0  0  0  0  0  0  0  0  0
    3.1623   -2.2037   -0.2938 H   0  0  0  0  0  0  0  0  0  0  0  0
    1.4018   -2.0811   -0.0268 H   0  0  0  0  0  0  0  0  0  0  0  0
    2.1554   -1.2708   -1.4241 H   0  0  0  0  0  0  0  0  0  0  0  0
  1  2  1  0
  1  6  1  0
  1  7  1  0
  2  3  1  0
  3  4  2  3
  4  8  1  0
  4  9  1  0
  5 10  1  0
 10 11  1  0
 10 15  1  0
 10 16  1  0
 11 12  1  0
 11 17  1  0
 11 18  1  0
 12 13  1  0
 12 19  1  0
 12 20  1  0
 13 14  1  0
 14 21  1  0
 14 22  1  0
 14 23  1  0
M  RAD  1   1   2
M  END
>  <reaction>  (21) 
rmg_rxn_15714

>  <mol_properties>  (21) 
{"0": {"label": "*1", "atom_type": "Cs"}, "1": {"label": "*0", "atom_type": "O2s"}, "4": {"label": "*2", "atom_type": "H0"}, "9": {"label": "*3", "atom_type": "Cs"}, "10": {"label": "*4", "atom_type": "Cs"}}

>  <type>  (21) 
unop_17

>  <geom_source>  (21) 
Heuristics

$$$$

     RDKit          3D

 23 21  0  0  0  0  0  0  0  0999 V2000
   -1.2865   -0.1749   -0.2281 C   0  0  0  0  0  0  0  0  0  0  0  0
   -1.2865   -0.1170   -1.6410 O   0  0  0  0  0  0  0  0  0  0  0  0
   -1.2865   -1.3909   -2.1567 N   0  0  0  0  0  0  0  0  0  0  0  0
   -1.2865   -1.3909   -3.4203 C   0  0  0  0  0  0  0  0  0  0  0  0
   -0.2159   -0.7871    0.2160 H   0  0  0  0  0  0  0  0  0  0  0  0
   -2.1786   -0.6851    0.1420 H   0  0  0  0  0  0  0  0  0  0  0  0
   -1.2865    0.8600    0.1097 H   0  0  0  0  0  0  0  0  0  0  0  0
   -1.2865   -2.3579   -3.9052 H   0  0  0  0  0  0  0  0  0  0  0  0
   -1.2865   -0.4744   -4.0065 H   0  0  0  0  0  0  0  0  0  0  0  0
    0.8552   -1.3996    0.6603 C   0  0  0  0  0  3  0  0  0  0  0  0
    1.9886   -0.4098    0.8953 C   0  0  0  0  0  0  0  0  0  0  0  0
    1.5097    1.0187    1.0513 C   0  0  0  0  0  0  0  0  0  0  0  0
    0.6979    1.1165    2.1952 O   0  0  0  0  0  0  0  0  0  0  0  0
    0.1852    2.4038    2.3904 C   0  0  0  0  0  0  0  0  0  0  0  0
    0.1545   -1.3898    1.4951 H   0  0  0  0  0  0  0  0  0  0  0  0
    1.2381   -2.4150    0.5481 H   0  0  0  0  0  0  0  0  0  0  0  0
    2.5499   -0.6874    1.7912 H   0  0  0  0  0  0  0  0  0  0  0  0
    2.6925   -0.4384    0.0589 H   0  0  0  0  0  0  0  0  0  0  0  0
    2.3675    1.7014    1.1421 H   0  0  0  0  0  0  0  0  0  0  0  0
    0.9390    1.3263    0.1605 H   0  0  0  0  0  0  0  0  0  0  0  0
   -0.4409    2.7203    1.5451 H   0  0  0  0  0  0  0  0  0  0  0  0
   -0.4240    2.3837    3.2931 H   0  0  0  0  0  0  0  0  0  0  0  0
    0.9883    3.1422    2.5195 H   0  0  0  0  0  0  0  0  0  0  0  0
  1  2  1  0
  1  5  1  0
  1  6  1  0
  1  7  1  0
  2  3  1  0
  3  4  2  3
  4  8  1  0
  4  9  1  0
 10 11  1  0
 10 15  1  0
 10 16  1  0
 11 12  1  0
 11 17  1  0
 11 18  1  0
 12 13  1  0
 12 19  1  0
 12 20  1  0
 13 14  1  0
 14 21  1  0
 14 22  1  0
 14 23  1  0
M  RAD  1  10   2
M  END
>  <reaction>  (22) 
rmg_rxn_15714

>  <mol_properties>  (22) 
{"0": {"label": "*1", "atom_type": "Cs"}, "1": {"label": "*0", "atom_type": "O2s"}, "4": {"label": "*2", "atom_type": "H0"}, "9": {"label": "*3", "atom_type": "Cs"}, "10": {"label": "*4", "atom_type": "Cs"}}

>  <type>  (22) 
unop_18

>  <geom_source>  (22) 
Heuristics

$$$$

     RDKit          3D

 23 21  0  0  0  0  0  0  0  0999 V2000
   -1.2344   -0.1522   -1.2707 C   0  0  0  0  0  3  0  0  0  0  0  0
   -2.4509   -0.1268   -0.6162 O   0  0  0  0  0  0  0  0  0  0  0  0
   -2.6091    0.4953    0.5729 N   0  0  0  0  0  0  0  0  0  0  0  0
   -1.6395    1.0054    1.2048 C   0  0  0  0  0  0  0  0  0  0  0  0
   -0.4168   -1.0732   -0.7121 H   0  0  0  0  0  0  0  0  0  0  0  0
   -0.6683    0.7755   -1.2341 H   0  0  0  0  0  0  0  0  0  0  0  0
   -1.4220   -0.5112   -2.2765 H   0  0  0  0  0  0  0  0  0  0  0  0
   -1.8989    1.4833    2.1339 H   0  0  0  0  0  0  0  0  0  0  0  0
   -0.5953    0.9970    0.9092 H   0  0  0  0  0  0  0  0  0  0  0  0
    0.3232   -2.0233   -0.2282 C   0  0  0  0  0  0  0  0  0  0  0  0
    1.2733   -1.4762    0.8084 C   0  0  0  0  0  0  0  0  0  0  0  0
    2.2333   -0.4309    0.2462 C   0  0  0  0  0  0  0  0  0  0  0  0
    1.5348    0.7727    0.0053 O   0  0  0  0  0  0  0  0  0  0  0  0
    2.3474    1.7813   -0.5330 C   0  0  0  0  0  0  0  0  0  0  0  0
   -0.3779   -2.7372    0.1901 H   0  0  0  0  0  0  0  0  0  0  0  0
    0.8363   -2.4400   -1.0889 H   0  0  0  0  0  0  0  0  0  0  0  0
    0.7131   -1.0278    1.6313 H   0  0  0  0  0  0  0  0  0  0  0  0
    1.8759   -2.2924    1.2236 H   0  0  0  0  0  0  0  0  0  0  0  0
    3.0479   -0.2422    0.9638 H   0  0  0  0  0  0  0  0  0  0  0  0
    2.6839   -0.7937   -0.6907 H   0  0  0  0  0  0  0  0  0  0  0  0
    2.7599    1.4824   -1.5049 H   0  0  0  0  0  0  0  0  0  0  0  0
    1.7181    2.6604   -0.6608 H   0  0  0  0  0  0  0  0  0  0  0  0
    3.1784    2.0242    0.1410 H   0  0  0  0  0  0  0  0  0  0  0  0
  1  2  1  0
  1  6  1  0
  1  7  1  0
  2  3  1  0
  3  4  2  3
  4  8  1  0
  4  9  1  0
  5 10  1  0
 10 11  1  0
 10 15  1  0
 10 16  1  0
 11 12  1  0
 11 17  1  0
 11 18  1  0
 12 13  1  0
 12 19  1  0
 12 20  1  0
 13 14  1  0
 14 21  1  0
 14 22  1  0
 14 23  1  0
M  RAD  1   1   2
M  END
>  <reaction>  (23) 
rmg_rxn_15714

>  <mol_properties>  (23) 
{"0": {"label": "*1", "atom_type": "Cs"}, "1": {"label": "*0", "atom_type": "O2s"}, "4": {"label": "*2", "atom_type": "H0"}, "9": {"label": "*3", "atom_type": "Cs"}, "10": {"label": "*4", "atom_type": "Cs"}}

>  <type>  (23) 
unop_19

>  <geom_source>  (23) 
Heuristics

$$$$

     RDKit          3D

 23 21  0  0  0  0  0  0  0  0999 V2000
   -2.0201    0.9795    1.0788 C   0  0  0  0  0  0  0  0  0  0  0  0
   -2.0201    1.0374   -0.3341 O   0  0  0  0  0  0  0  0  0  0  0  0
   -2.0201   -0.2365   -0.8498 N   0  0  0  0  0  0  0  0  0  0  0  0
   -2.0201   -0.2365   -2.1134 C   0  0  0  0  0  0  0  0  0  0  0  0
   -0.9495    0.3673    1.5229 H   0  0  0  0  0  0  0  0  0  0  0  0
   -2.9122    0.4693    1.4489 H   0  0  0  0  0  0  0  0  0  0  0  0
   -2.0201    2.0143    1.4166 H   0  0  0  0  0  0  0  0  0  0  0  0
   -2.0201   -1.2036   -2.5983 H   0  0  0  0  0  0  0  0  0  0  0  0
   -2.0201    0.6800   -2.6996 H   0  0  0  0  0  0  0  0  0  0  0  0
    0.1216   -0.2452    1.9673 C   0  0  0  0  0  3  0  0  0  0  0  0
    0.6057   -1.2869    0.9673 C   0  0  0  0  0  0  0  0  0  0  0  0
    1.3590   -0.6862   -0.2016 C   0  0  0  0  0  0  0  0  0  0  0  0
    2.5279   -0.0614    0.2681 O   0  0  0  0  0  0  0  0  0  0  0  0
    3.2650    0.5507   -0.7517 C   0  0  0  0  0  0  0  0  0  0  0  0
    0.9618    0.3103    2.3838 H   0  0  0  0  0  0  0  0  0  0  0  0
   -0.4194   -0.7136    2.7907 H   0  0  0  0  0  0  0  0  0  0  0  0
    1.2566   -2.0107    1.4644 H   0  0  0  0  0  0  0  0  0  0  0  0
   -0.2437   -1.8473    0.5669 H   0  0  0  0  0  0  0  0  0  0  0  0
    1.6198   -1.4680   -0.9302 H   0  0  0  0  0  0  0  0  0  0  0  0
    0.7255    0.0492   -0.7227 H   0  0  0  0  0  0  0  0  0  0  0  0
    2.6825    1.3343   -1.2550 H   0  0  0  0  0  0  0  0  0  0  0  0
    4.1460    1.0024   -0.2975 H   0  0  0  0  0  0  0  0  0  0  0  0
    3.5885   -0.1773   -1.5082 H   0  0  0  0  0  0  0  0  0  0  0  0
  1  2  1  0
  1  5  1  0
  1  6  1  0
  1  7  1  0
  2  3  1  0
  3  4  2  3
  4  8  1  0
  4  9  1  0
 10 11  1  0
 10 15  1  0
 10 16  1  0
 11 12  1  0
 11 17  1  0
 11 18  1  0
 12 13  1  0
 12 19  1  0
 12 20  1  0
 13 14  1  0
 14 21  1  0
 14 22  1  0
 14 23  1  0
M  RAD  1  10   2
M  END
>  <reaction>  (24) 
rmg_rxn_15714

>  <mol_properties>  (24) 
{"0": {"label": "*1", "atom_type": "Cs"}, "1": {"label": "*0", "atom_type": "O2s"}, "4": {"label": "*2", "atom_type": "H0"}, "9": {"label": "*3", "atom_type": "Cs"}, "10": {"label": "*4", "atom_type": "Cs"}}

>  <type>  (24) 
unop_20

>  <geom_source>  (24) 
Heuristics

$$$$

     RDKit          3D

 23 21  0  0  0  0  0  0  0  0999 V2000
   -1.5749   -0.2024    0.2183 C   0  0  0  0  0  0  0  0  0  0  0  0
   -1.5749   -0.1445   -1.1946 O   0  0  0  0  0  0  0  0  0  0  0  0
   -1.5749   -1.4184   -1.7103 N   0  0  0  0  0  0  0  0  0  0  0  0
   -1.5749   -1.4184   -2.9739 C   0  0  0  0  0  0  0  0  0  0  0  0
   -0.5043   -0.8146    0.6624 H   0  0  0  0  0  0  0  0  0  0  0  0
   -2.4670   -0.7126    0.5884 H   0  0  0  0  0  0  0  0  0  0  0  0
   -1.5749    0.8325    0.5561 H   0  0  0  0  0  0  0  0  0  0  0  0
   -1.5749   -2.3855   -3.4588 H   0  0  0  0  0  0  0  0  0  0  0  0
   -1.5749   -0.5019   -3.5601 H   0  0  0  0  0  0  0  0  0  0  0  0
    0.5668   -1.4271    1.1067 C   0  0  0  0  0  3  0  0  0  0  0  0
    1.8303   -0.7000    0.6660 C   0  0  0  0  0  0  0  0  0  0  0  0
    1.6213    0.7859    0.4586 C   0  0  0  0  0  0  0  0  0  0  0  0
    1.2657    1.3823    1.6813 O   0  0  0  0  0  0  0  0  0  0  0  0
    1.0203    2.7551    1.5661 C   0  0  0  0  0  0  0  0  0  0  0  0
    0.1984   -1.0243    2.0502 H   0  0  0  0  0  0  0  0  0  0  0  0
    0.7544   -2.4934    1.2411 H   0  0  0  0  0  0  0  0  0  0  0  0
    2.6215   -0.8389    1.4073 H   0  0  0  0  0  0  0  0  0  0  0  0
    2.1987   -1.1215   -0.2734 H   0  0  0  0  0  0  0  0  0  0  0  0
    2.5395    1.2500    0.0693 H   0  0  0  0  0  0  0  0  0  0  0  0
    0.8270    0.9564   -0.2856 H   0  0  0  0  0  0  0  0  0  0  0  0
    0.1910    2.9594    0.8754 H   0  0  0  0  0  0  0  0  0  0  0  0
    0.7564    3.1279    2.5549 H   0  0  0  0  0  0  0  0  0  0  0  0
    1.9077    3.2946    1.2077 H   0  0  0  0  0  0  0  0  0  0  0  0
  1  2  1  0
  1  5  1  0
  1  6  1  0
  1  7  1  0
  2  3  1  0
  3  4  2  3
  4  8  1  0
  4  9  1  0
 10 11  1  0
 10 15  1  0
 10 16  1  0
 11 12  1  0
 11 17  1  0
 11 18  1  0
 12 13  1  0
 12 19  1  0
 12 20  1  0
 13 14  1  0
 14 21  1  0
 14 22  1  0
 14 23  1  0
M  RAD  1  10   2
M  END
>  <reaction>  (25) 
rmg_rxn_15714

>  <mol_properties>  (25) 
{"0": {"label": "*1", "atom_type": "Cs"}, "1": {"label": "*0", "atom_type": "O2s"}, "4": {"label": "*2", "atom_type": "H0"}, "9": {"label": "*3", "atom_type": "Cs"}, "10": {"label": "*4", "atom_type": "Cs"}}

>  <type>  (25) 
unop_21

>  <geom_source>  (25) 
Heuristics

$$$$

     RDKit          3D

 23 21  0  0  0  0  0  0  0  0999 V2000
   -1.0654    2.0644   -0.1373 C   0  0  0  0  0  0  0  0  0  0  0  0
   -1.0655    2.1223   -1.5501 O   0  0  0  0  0  0  0  0  0  0  0  0
   -1.0655    0.8484   -2.0659 N   0  0  0  0  0  0  0  0  0  0  0  0
   -1.0655    0.8484   -3.3295 C   0  0  0  0  0  0  0  0  0  0  0  0
    0.0052    1.4522    0.3069 H   0  0  0  0  0  0  0  0  0  0  0  0
   -1.9576    1.5542    0.2329 H   0  0  0  0  0  0  0  0  0  0  0  0
   -1.0655    3.0993    0.2006 H   0  0  0  0  0  0  0  0  0  0  0  0
   -1.0655   -0.1187   -3.8143 H   0  0  0  0  0  0  0  0  0  0  0  0
   -1.0655    1.7649   -3.9156 H   0  0  0  0  0  0  0  0  0  0  0  0
    1.0763    0.8397    0.7512 C   0  0  0  0  0  3  0  0  0  0  0  0
    0.7895    0.1308    2.0682 C   0  0  0  0  0  0  0  0  0  0  0  0
    0.2739   -1.2817    1.8848 C   0  0  0  0  0  0  0  0  0  0  0  0
    1.2625   -2.0617    1.2592 O   0  0  0  0  0  0  0  0  0  0  0  0
    0.8485   -3.3771    1.0219 C   0  0  0  0  0  0  0  0  0  0  0  0
    1.8295    0.2996    0.1777 H   0  0  0  0  0  0  0  0  0  0  0  0
    1.4403    1.8538    0.9227 H   0  0  0  0  0  0  0  0  0  0  0  0
    1.6949    0.0931    2.6794 H   0  0  0  0  0  0  0  0  0  0  0  0
    0.0435    0.6886    2.6411 H   0  0  0  0  0  0  0  0  0  0  0  0
    0.0110   -1.7217    2.8582 H   0  0  0  0  0  0  0  0  0  0  0  0
   -0.6407   -1.2744    1.2708 H   0  0  0  0  0  0  0  0  0  0  0  0
   -0.0285   -3.4104    0.3613 H   0  0  0  0  0  0  0  0  0  0  0  0
    1.6730   -3.9016    0.5409 H   0  0  0  0  0  0  0  0  0  0  0  0
    0.5949   -3.8948    1.9571 H   0  0  0  0  0  0  0  0  0  0  0  0
  1  2  1  0
  1  5  1  0
  1  6  1  0
  1  7  1  0
  2  3  1  0
  3  4  2  3
  4  8  1  0
  4  9  1  0
 10 11  1  0
 10 15  1  0
 10 16  1  0
 11 12  1  0
 11 17  1  0
 11 18  1  0
 12 13  1  0
 12 19  1  0
 12 20  1  0
 13 14  1  0
 14 21  1  0
 14 22  1  0
 14 23  1  0
M  RAD  1  10   2
M  END
>  <reaction>  (26) 
rmg_rxn_15714

>  <mol_properties>  (26) 
{"0": {"label": "*1", "atom_type": "Cs"}, "1": {"label": "*0", "atom_type": "O2s"}, "4": {"label": "*2", "atom_type": "H0"}, "9": {"label": "*3", "atom_type": "Cs"}, "10": {"label": "*4", "atom_type": "Cs"}}

>  <type>  (26) 
unop_22

>  <geom_source>  (26) 
Heuristics

$$$$

     RDKit          3D

 23 21  0  0  0  0  0  0  0  0999 V2000
   -1.9901    0.4107    0.9409 C   0  0  0  0  0  0  0  0  0  0  0  0
   -1.9901    0.4687   -0.4720 O   0  0  0  0  0  0  0  0  0  0  0  0
   -1.9901   -0.8052   -0.9878 N   0  0  0  0  0  0  0  0  0  0  0  0
   -1.9901   -0.8052   -2.2514 C   0  0  0  0  0  0  0  0  0  0  0  0
   -0.9195   -0.2014    1.3850 H   0  0  0  0  0  0  0  0  0  0  0  0
   -2.8822   -0.0994    1.3110 H   0  0  0  0  0  0  0  0  0  0  0  0
   -1.9901    1.4456    1.2787 H   0  0  0  0  0  0  0  0  0  0  0  0
   -1.9901   -1.7723   -2.7362 H   0  0  0  0  0  0  0  0  0  0  0  0
   -1.9901    0.1113   -2.8375 H   0  0  0  0  0  0  0  0  0  0  0  0
    0.1516   -0.8139    1.8293 C   0  0  0  0  0  3  0  0  0  0  0  0
    1.0402   -1.2596    0.6757 C   0  0  0  0  0  0  0  0  0  0  0  0
    1.5151   -0.1104   -0.1894 C   0  0  0  0  0  0  0  0  0  0  0  0
    2.3194    0.7502    0.5783 O   0  0  0  0  0  0  0  0  0  0  0  0
    2.7712    1.8608   -0.1433 C   0  0  0  0  0  0  0  0  0  0  0  0
    0.6848   -0.1242    2.4836 H   0  0  0  0  0  0  0  0  0  0  0  0
   -0.1742   -1.6672    2.4259 H   0  0  0  0  0  0  0  0  0  0  0  0
    1.9157   -1.7901    1.0591 H   0  0  0  0  0  0  0  0  0  0  0  0
    0.5002   -1.9617    0.0343 H   0  0  0  0  0  0  0  0  0  0  0  0
    2.0877   -0.4903   -1.0484 H   0  0  0  0  0  0  0  0  0  0  0  0
    0.6515    0.4437   -0.5906 H   0  0  0  0  0  0  0  0  0  0  0  0
    1.9343    2.4715   -0.5082 H   0  0  0  0  0  0  0  0  0  0  0  0
    3.3827    2.4639    0.5266 H   0  0  0  0  0  0  0  0  0  0  0  0
    3.3801    1.5600   -1.0068 H   0  0  0  0  0  0  0  0  0  0  0  0
  1  2  1  0
  1  5  1  0
  1  6  1  0
  1  7  1  0
  2  3  1  0
  3  4  2  3
  4  8  1  0
  4  9  1  0
 10 11  1  0
 10 15  1  0
 10 16  1  0
 11 12  1  0
 11 17  1  0
 11 18  1  0
 12 13  1  0
 12 19  1  0
 12 20  1  0
 13 14  1  0
 14 21  1  0
 14 22  1  0
 14 23  1  0
M  RAD  1  10   2
M  END
>  <reaction>  (27) 
rmg_rxn_15714

>  <mol_properties>  (27) 
{"0": {"label": "*1", "atom_type": "Cs"}, "1": {"label": "*0", "atom_type": "O2s"}, "4": {"label": "*2", "atom_type": "H0"}, "9": {"label": "*3", "atom_type": "Cs"}, "10": {"label": "*4", "atom_type": "Cs"}}

>  <type>  (27) 
unop_23

>  <geom_source>  (27) 
Heuristics

$$$$

     RDKit          3D

 23 21  0  0  0  0  0  0  0  0999 V2000
   -1.4592   -1.7068    0.6257 C   0  0  0  0  0  3  0  0  0  0  0  0
   -2.4237   -0.8390    0.3061 O   0  0  0  0  0  0  0  0  0  0  0  0
   -2.0060    0.2862   -0.3603 N   0  0  0  0  0  0  0  0  0  0  0  0
   -2.9258    1.1105   -0.6757 C   0  0  0  0  0  0  0  0  0  0  0  0
   -0.1635    1.4451    1.1197 H   0  0  0  0  0  0  0  0  0  0  0  0
   -0.4389   -1.5311    0.3438 H   0  0  0  0  0  0  0  0  0  0  0  0
   -1.8133   -2.5763    1.1394 H   0  0  0  0  0  0  0  0  0  0  0  0
   -2.6130    1.9981   -1.1937 H   0  0  0  0  0  0  0  0  0  0  0  0
   -3.9771    0.9649   -0.4524 H   0  0  0  0  0  0  0  0  0  0  0  0
    0.9057    1.4981    1.3336 C   0  0  0  0  0  0  0  0  0  0  0  0
    1.7487    1.5595    0.0754 C   0  0  0  0  0  0  0  0  0  0  0  0
    1.4126    0.4102   -0.8791 C   0  0  0  0  0  0  0  0  0  0  0  0
    1.6013   -0.8788   -0.3296 O   0  0  0  0  0  0  0  0  0  0  0  0
    2.9423   -1.2538   -0.1502 C   0  0  0  0  0  0  0  0  0  0  0  0
    1.1265    2.2961    2.0310 H   0  0  0  0  0  0  0  0  0  0  0  0
    0.9324    0.5422    1.8106 H   0  0  0  0  0  0  0  0  0  0  0  0
    1.5637    2.4968   -0.4524 H   0  0  0  0  0  0  0  0  0  0  0  0
    2.8087    1.5313    0.3388 H   0  0  0  0  0  0  0  0  0  0  0  0
    0.3486    0.4526   -1.1286 H   0  0  0  0  0  0  0  0  0  0  0  0
    2.0059    0.5086   -1.8015 H   0  0  0  0  0  0  0  0  0  0  0  0
    3.5141   -1.1318   -1.0787 H   0  0  0  0  0  0  0  0  0  0  0  0
    3.4299   -0.6778    0.6439 H   0  0  0  0  0  0  0  0  0  0  0  0
    2.9325   -2.3058    0.1310 H   0  0  0  0  0  0  0  0  0  0  0  0
  1  2  1  0
  1  6  1  0
  1  7  1  0
  2  3  1  0
  3  4  2  3
  4  8  1  0
  4  9  1  0
  5 10  1  0
 10 11  1  0
 10 15  1  0
 10 16  1  0
 11 12  1  0
 11 17  1  0
 11 18  1  0
 12 13  1  0
 12 19  1  0
 12 20  1  0
 13 14  1  0
 14 21  1  0
 14 22  1  0
 14 23  1  0
M  RAD  1   1   2
M  END
>  <reaction>  (28) 
rmg_rxn_15714

>  <mol_properties>  (28) 
{"0": {"label": "*1", "atom_type": "Cs"}, "1": {"label": "*0", "atom_type": "O2s"}, "4": {"label": "*2", "atom_type": "H0"}, "9": {"label": "*3", "atom_type": "Cs"}, "10": {"label": "*4", "atom_type": "Cs"}}

>  <type>  (28) 
unop_24

>  <geom_source>  (28) 
Heuristics

$$$$

     RDKit          3D

 23 21  0  0  0  0  0  0  0  0999 V2000
   -2.8001   -0.7016    0.1229 O   0  0  0  0  0  0  0  0  0  0  0  0
    2.6279   -0.4369   -0.1666 O   0  0  0  0  0  0  0  0  0  0  0  0
    3.8346   -0.1274    0.4184 N   0  0  0  0  0  0  0  0  0  0  0  0
   -1.0322    0.8766   -0.4199 C   0  0  0  0  0  0  0  0  0  0  0  0
   -2.5342    0.6487   -0.2117 C   0  0  0  0  0  0  0  0  0  0  0  0
   -0.4759    0.0198   -1.5539 C   0  0  0  0  0  0  0  0  0  0  0  0
   -2.8870   -0.8551    1.5225 C   0  0  0  0  0  0  0  0  0  0  0  0
    1.9786    0.5007   -1.0088 C   0  0  0  0  0  3  0  0  0  0  0  0
    4.4291   -0.9794    1.1864 C   0  0  0  0  0  0  0  0  0  0  0  0
   -0.8603    1.9466   -0.6649 H   0  0  0  0  0  0  0  0  0  0  0  0
   -0.4795    0.6486    0.5160 H   0  0  0  0  0  0  0  0  0  0  0  0
   -3.0644    0.8802   -1.1603 H   0  0  0  0  0  0  0  0  0  0  0  0
   -2.9223    1.3776    0.5395 H   0  0  0  0  0  0  0  0  0  0  0  0
   -0.5835   -1.0595   -1.3150 H   0  0  0  0  0  0  0  0  0  0  0  0
   -1.0074    0.2420   -2.5036 H   0  0  0  0  0  0  0  0  0  0  0  0
    0.7820    0.2836   -1.7113 H   0  0  0  0  0  0  0  0  0  0  0  0
   -1.9635   -0.5012    2.0315 H   0  0  0  0  0  0  0  0  0  0  0  0
   -3.0057   -1.9336    1.7535 H   0  0  0  0  0  0  0  0  0  0  0  0
   -3.7786   -0.3241    1.9228 H   0  0  0  0  0  0  0  0  0  0  0  0
    1.7524    1.4271   -0.4403 H   0  0  0  0  0  0  0  0  0  0  0  0
    2.6259    0.7402   -1.8784 H   0  0  0  0  0  0  0  0  0  0  0  0
    5.3769   -0.7244    1.6403 H   0  0  0  0  0  0  0  0  0  0  0  0
    3.9872   -1.9486    1.3809 H   0  0  0  0  0  0  0  0  0  0  0  0
  1  7  1  0
  1  5  1  0
  2  8  1  0
  2  3  1  0
  3  9  2  3
  4  6  1  0
  4  5  1  0
  4 10  1  0
  4 11  1  0
  5 12  1  0
  5 13  1  0
  6 14  1  0
  6 15  1  0
  6 16  1  0
  7 17  1  0
  7 18  1  0
  7 19  1  0
  8 20  1  0
  8 21  1  0
  9 22  1  0
  9 23  1  0
M  RAD  1   8   2
M  END
>  <reaction>  (29) 
rmg_rxn_15714

>  <mol_properties>  (29) 
{"0": {"label": "*1", "atom_type": "Cs"}, "1": {"label": "*0", "atom_type": "O2s"}, "4": {"label": "*2", "atom_type": "H0"}, "9": {"label": "*3", "atom_type": "Cs"}, "10": {"label": "*4", "atom_type": "Cs"}}

>  <type>  (29) 
unop_25

>  <geom_source>  (29) 
AutoTST

$$$$

     RDKit          3D

 23 21  0  0  0  0  0  0  0  0999 V2000
   -1.8158   -0.0039    0.6278 C   0  0  0  0  0  0  0  0  0  0  0  0
   -1.8158    0.0541   -0.7850 O   0  0  0  0  0  0  0  0  0  0  0  0
   -1.8158   -1.2198   -1.3008 N   0  0  0  0  0  0  0  0  0  0  0  0
   -1.8158   -1.2198   -2.5644 C   0  0  0  0  0  0  0  0  0  0  0  0
   -0.7452   -0.6160    1.0720 H   0  0  0  0  0  0  0  0  0  0  0  0
   -2.7079   -0.5141    0.9980 H   0  0  0  0  0  0  0  0  0  0  0  0
   -1.8158    1.0310    0.9657 H   0  0  0  0  0  0  0  0  0  0  0  0
   -1.8158   -2.1869   -3.0492 H   0  0  0  0  0  0  0  0  0  0  0  0
   -1.8158   -0.3033   -3.1505 H   0  0  0  0  0  0  0  0  0  0  0  0
    0.3259   -1.2285    1.5163 C   0  0  0  0  0  3  0  0  0  0  0  0
    1.4998   -1.0268    0.5673 C   0  0  0  0  0  0  0  0  0  0  0  0
    1.6008    0.3883    0.0365 C   0  0  0  0  0  0  0  0  0  0  0  0
    1.8400    1.2712    1.1044 O   0  0  0  0  0  0  0  0  0  0  0  0
    1.9120    2.6086    0.6990 C   0  0  0  0  0  0  0  0  0  0  0  0
    0.4110   -0.5711    2.3815 H   0  0  0  0  0  0  0  0  0  0  0  0
    0.2826   -2.2585    1.8734 H   0  0  0  0  0  0  0  0  0  0  0  0
    2.4372   -1.2762    1.0711 H   0  0  0  0  0  0  0  0  0  0  0  0
    1.4114   -1.7010   -0.2891 H   0  0  0  0  0  0  0  0  0  0  0  0
    2.4148    0.4628   -0.6997 H   0  0  0  0  0  0  0  0  0  0  0  0
    0.6673    0.6675   -0.4776 H   0  0  0  0  0  0  0  0  0  0  0  0
    0.9731    2.9398    0.2349 H   0  0  0  0  0  0  0  0  0  0  0  0
    2.1002    3.2131    1.5854 H   0  0  0  0  0  0  0  0  0  0  0  0
    2.7268    2.7686   -0.0203 H   0  0  0  0  0  0  0  0  0  0  0  0
  1  2  1  0
  1  5  1  0
  1  6  1  0
  1  7  1  0
  2  3  1  0
  3  4  2  3
  4  8  1  0
  4  9  1  0
 10 11  1  0
 10 15  1  0
 10 16  1  0
 11 12  1  0
 11 17  1  0
 11 18  1  0
 12 13  1  0
 12 19  1  0
 12 20  1  0
 13 14  1  0
 14 21  1  0
 14 22  1  0
 14 23  1  0
M  RAD  1  10   2
M  END
>  <reaction>  (30) 
rmg_rxn_15714

>  <mol_properties>  (30) 
{"0": {"label": "*1", "atom_type": "Cs"}, "1": {"label": "*0", "atom_type": "O2s"}, "4": {"label": "*2", "atom_type": "H0"}, "9": {"label": "*3", "atom_type": "Cs"}, "10": {"label": "*4", "atom_type": "Cs"}}

>  <type>  (30) 
unop_26

>  <geom_source>  (30) 
gaussian_log

$$$$
