
     RDKit          3D

 15 14  0  0  0  0  0  0  0  0999 V2000
   -2.0554    0.0723   -0.4910 C   0  0  0  0  0  0  0  0  0  0  0  0
   -0.7461   -0.6266   -0.8178 C   0  0  0  0  0  0  0  0  0  0  0  0
    0.3249    0.2591   -1.9782 S   0  0  0  0  0  0  0  0  0  0  0  0
   -0.7172    0.3642   -3.4551 C   0  0  0  0  0  0  0  0  0  0  0  0
   -1.1375   -0.9737   -4.0409 C   0  0  0  0  0  0  0  0  0  0  0  0
   -2.7005    0.1427   -1.3684 H   0  0  0  0  0  0  0  0  0  0  0  0
   -2.6016   -0.4848    0.2733 H   0  0  0  0  0  0  0  0  0  0  0  0
   -1.8758    1.0825   -0.1213 H   0  0  0  0  0  0  0  0  0  0  0  0
   -0.1320   -0.7246    0.0789 H   0  0  0  0  0  0  0  0  0  0  0  0
   -0.9254   -1.6374   -1.1879 H   0  0  0  0  0  0  0  0  0  0  0  0
   -1.5873    0.9874   -3.2422 H   0  0  0  0  0  0  0  0  0  0  0  0
   -0.1021    0.9161   -4.1678 H   0  0  0  0  0  0  0  0  0  0  0  0
   -1.7876   -1.5224   -3.3574 H   0  0  0  0  0  0  0  0  0  0  0  0
   -0.2676   -1.5962   -4.2534 H   0  0  0  0  0  0  0  0  0  0  0  0
   -1.6916   -0.8229   -4.9700 H   0  0  0  0  0  0  0  0  0  0  0  0
  1  2  1  0
  1  6  1  0
  1  7  1  0
  1  8  1  0
  2  3  1  0
  2  9  1  0
  2 10  1  0
  3  4  1  0
  4  5  1  0
  4 11  1  0
  4 12  1  0
  5 13  1  0
  5 14  1  0
  5 15  1  0
M  END
>  <reaction>  (1) 
rmg_rxn_668

>  <mol_properties>  (1) 
{"1": {"label": "donator", "atom_type": "Cs"}, "8": {"label": "d_hydrogen", "atom_type": "H0"}}

>  <type>  (1) 
r1h

$$$$

     RDKit          3D

 14 13  0  0  0  0  0  0  0  0999 V2000
    2.7687   -0.0362   -0.0732 C   0  0  0  0  0  3  0  0  0  0  0  0
    1.6543    0.2105    0.6386 O   0  0  0  0  0  0  0  0  0  0  0  0
    1.8652    0.6968    1.9544 C   0  0  0  0  0  0  0  0  0  0  0  0
    0.5252    0.9355    2.6156 C   0  0  0  0  0  0  0  0  0  0  0  0
   -0.2992    2.0181    1.9317 C   0  0  0  0  0  0  0  0  0  0  0  0
    2.5851   -0.4757   -1.0422 H   0  0  0  0  0  0  0  0  0  0  0  0
    3.6974   -0.2083    0.4611 H   0  0  0  0  0  0  0  0  0  0  0  0
    2.4441    1.6271    1.9039 H   0  0  0  0  0  0  0  0  0  0  0  0
    2.4506   -0.0397    2.5179 H   0  0  0  0  0  0  0  0  0  0  0  0
    0.7150    1.2089    3.6572 H   0  0  0  0  0  0  0  0  0  0  0  0
   -0.0287   -0.0066    2.6327 H   0  0  0  0  0  0  0  0  0  0  0  0
   -0.5056    1.7522    0.8949 H   0  0  0  0  0  0  0  0  0  0  0  0
   -1.2524    2.1635    2.4416 H   0  0  0  0  0  0  0  0  0  0  0  0
    0.2319    2.9729    1.9340 H   0  0  0  0  0  0  0  0  0  0  0  0
  1  2  1  0
  1  6  1  0
  1  7  1  0
  2  3  1  0
  3  4  1  0
  3  8  1  0
  3  9  1  0
  4  5  1  0
  4 10  1  0
  4 11  1  0
  5 12  1  0
  5 13  1  0
  5 14  1  0
M  RAD  1   1   2
M  END
>  <reaction>  (2) 
rmg_rxn_668

>  <mol_properties>  (2) 
{"0": {"label": "acceptor", "atom_type": "Cs"}}

>  <type>  (2) 
r2

$$$$

     RDKit          3D

 15 14  0  0  0  0  0  0  0  0999 V2000
   -1.2811   -0.4129    1.0228 C   0  0  0  0  0  0  0  0  0  0  0  0
   -1.0023   -0.5809   -0.4650 C   0  0  0  0  0  0  0  0  0  0  0  0
   -2.0576    0.0568   -1.3449 C   0  0  0  0  0  0  0  0  0  0  0  0
   -2.0663    1.4464   -1.1307 O   0  0  0  0  0  0  0  0  0  0  0  0
   -3.0424    2.1072   -1.8849 C   0  0  0  0  0  0  0  0  0  0  0  0
   -2.2382   -0.8657    1.2935 H   0  0  0  0  0  0  0  0  0  0  0  0
   -1.3219    0.6426    1.2914 H   0  0  0  0  0  0  0  0  0  0  0  0
   -0.5042   -0.8881    1.6236 H   0  0  0  0  0  0  0  0  0  0  0  0
   -0.0316   -0.1460   -0.7167 H   0  0  0  0  0  0  0  0  0  0  0  0
   -0.9494   -1.6429   -0.7203 H   0  0  0  0  0  0  0  0  0  0  0  0
   -1.8518   -0.1570   -2.4041 H   0  0  0  0  0  0  0  0  0  0  0  0
   -3.0491   -0.3636   -1.1124 H   0  0  0  0  0  0  0  0  0  0  0  0
   -4.0521    1.7545   -1.6343 H   0  0  0  0  0  0  0  0  0  0  0  0
   -2.8850    1.9634   -2.9626 H   0  0  0  0  0  0  0  0  0  0  0  0
   -2.9730    3.1700   -1.6570 H   0  0  0  0  0  0  0  0  0  0  0  0
  1  2  1  0
  1  6  1  0
  1  7  1  0
  1  8  1  0
  2  3  1  0
  2  9  1  0
  2 10  1  0
  3  4  1  0
  3 11  1  0
  3 12  1  0
  4  5  1  0
  5 13  1  0
  5 14  1  0
  5 15  1  0
M  END
>  <reaction>  (3) 
rmg_rxn_668

>  <mol_properties>  (3) 
{"0": {"label": "acceptor", "atom_type": "Cs"}, "14": {"label": "a_hydrogen", "atom_type": "H0"}}

>  <type>  (3) 
r2h

$$$$

     RDKit          3D

 29 27  0  0  0  0  0  0  0  0999 V2000
   -1.8867   -0.8756   -0.8956 C   0  0  0  0  0  0  0  0  0  0  0  0
   -1.7856   -1.4040    0.3631 O   0  0  0  0  0  0  0  0  0  0  0  0
   -0.7758   -2.3871    0.4953 C   0  0  0  0  0  0  0  0  0  0  0  0
   -0.7470   -2.8789    1.9257 C   0  0  0  0  0  0  0  0  0  0  0  0
   -2.0392   -3.5605    2.3556 C   0  0  0  0  0  0  0  0  0  0  0  0
   -2.7271   -0.1867   -0.9455 H   0  0  0  0  0  0  0  0  0  0  0  0
   -1.8914   -1.6225   -1.6984 H   0  0  0  0  0  0  0  0  0  0  0  0
    0.1926   -1.9506    0.2228 H   0  0  0  0  0  0  0  0  0  0  0  0
   -0.9854   -3.2163   -0.1967 H   0  0  0  0  0  0  0  0  0  0  0  0
   -0.5318   -2.0283    2.5769 H   0  0  0  0  0  0  0  0  0  0  0  0
    0.0941   -3.5709    2.0214 H   0  0  0  0  0  0  0  0  0  0  0  0
   -1.9742   -3.9068    3.3880 H   0  0  0  0  0  0  0  0  0  0  0  0
   -2.8830   -2.8744    2.2806 H   0  0  0  0  0  0  0  0  0  0  0  0
   -2.2531   -4.4266    1.7244 H   0  0  0  0  0  0  0  0  0  0  0  0
   -0.1890    1.8108   -2.1823 C   0  0  0  0  0  0  0  0  0  0  0  0
    0.3038    0.6609   -1.3455 C   0  0  0  0  0  3  0  0  0  0  0  0
    0.8369    1.0172    0.3132 S   0  0  0  0  0  0  0  0  0  0  0  0
    2.2249    2.1610    0.0452 C   0  0  0  0  0  0  0  0  0  0  0  0
    3.3865    1.5709   -0.7349 C   0  0  0  0  0  0  0  0  0  0  0  0
    0.6223    2.4926   -2.4579 H   0  0  0  0  0  0  0  0  0  0  0  0
   -0.6333    1.4460   -3.1118 H   0  0  0  0  0  0  0  0  0  0  0  0
   -0.9398    2.3900   -1.6419 H   0  0  0  0  0  0  0  0  0  0  0  0
   -0.8099   -0.1345   -1.1329 H   0  0  0  0  0  0  0  0  0  0  0  0
    0.9700   -0.0211   -1.8732 H   0  0  0  0  0  0  0  0  0  0  0  0
    1.8502    3.0666   -0.4345 H   0  0  0  0  0  0  0  0  0  0  0  0
    2.5364    2.4396    1.0535 H   0  0  0  0  0  0  0  0  0  0  0  0
    3.0832    1.2976   -1.7471 H   0  0  0  0  0  0  0  0  0  0  0  0
    3.7696    0.6752   -0.2444 H   0  0  0  0  0  0  0  0  0  0  0  0
    4.1995    2.2962   -0.8163 H   0  0  0  0  0  0  0  0  0  0  0  0
  1  2  1  0
  1  6  1  0
  1  7  1  0
  1 23  1  0
  2  3  1  0
  3  4  1  0
  3  8  1  0
  3  9  1  0
  4  5  1  0
  4 10  1  0
  4 11  1  0
  5 12  1  0
  5 13  1  0
  5 14  1  0
 15 16  1  0
 15 20  1  0
 15 21  1  0
 15 22  1  0
 16 17  1  0
 16 24  1  0
 17 18  1  0
 18 19  1  0
 18 25  1  0
 18 26  1  0
 19 27  1  0
 19 28  1  0
 19 29  1  0
M  RAD  1  16   2
M  END
>  <reaction>  (4) 
rmg_rxn_668

>  <mol_properties>  (4) 
{"0": {"label": "*1", "atom_type": "Cs"}, "1": {"label": "*0", "atom_type": "O2s"}, "15": {"label": "*3", "atom_type": "Cs"}, "16": {"label": "*4", "atom_type": "S2s"}, "22": {"label": "*2", "atom_type": "H0"}}

>  <type>  (4) 
ts

$$$$

     RDKit          3D

 29 27  0  0  0  0  0  0  0  0999 V2000
   -1.6216   -0.3447    0.0660 C   0  0  0  0  0  3  0  0  0  0  0  0
   -1.3364   -1.4645    0.8553 O   0  0  0  0  0  0  0  0  0  0  0  0
   -1.5033   -2.6775    0.1642 C   0  0  0  0  0  0  0  0  0  0  0  0
   -1.2125   -3.8331    1.0994 C   0  0  0  0  0  0  0  0  0  0  0  0
   -2.1793   -3.9118    2.2734 C   0  0  0  0  0  0  0  0  0  0  0  0
   -1.4639    0.5412    0.6797 H   0  0  0  0  0  0  0  0  0  0  0  0
   -2.6625   -0.3541   -0.2850 H   0  0  0  0  0  0  0  0  0  0  0  0
   -0.8281   -2.7094   -0.7038 H   0  0  0  0  0  0  0  0  0  0  0  0
   -2.5335   -2.7507   -0.2193 H   0  0  0  0  0  0  0  0  0  0  0  0
   -0.1866   -3.7349    1.4636 H   0  0  0  0  0  0  0  0  0  0  0  0
   -1.2542   -4.7565    0.5151 H   0  0  0  0  0  0  0  0  0  0  0  0
   -1.9421   -4.7572    2.9210 H   0  0  0  0  0  0  0  0  0  0  0  0
   -2.1358   -3.0016    2.8715 H   0  0  0  0  0  0  0  0  0  0  0  0
   -3.2074   -4.0353    1.9240 H   0  0  0  0  0  0  0  0  0  0  0  0
    0.5726    0.7723   -2.3719 C   0  0  0  0  0  0  0  0  0  0  0  0
    0.5726    0.7723   -0.8521 C   0  0  0  0  0  0  0  0  0  0  0  0
    0.5726    2.4133   -0.0872 S   0  0  0  0  0  0  0  0  0  0  0  0
    2.1132    3.1273   -0.7158 C   0  0  0  0  0  0  0  0  0  0  0  0
    3.3741    2.3684   -0.3366 C   0  0  0  0  0  0  0  0  0  0  0  0
    1.4956    1.1958   -2.7713 H   0  0  0  0  0  0  0  0  0  0  0  0
    0.4901   -0.2489   -2.7505 H   0  0  0  0  0  0  0  0  0  0  0  0
   -0.2631    1.3547   -2.7613 H   0  0  0  0  0  0  0  0  0  0  0  0
   -0.5208    0.2156   -0.3946 H   0  0  0  0  0  0  0  0  0  0  0  0
    1.4088    0.1896   -0.4621 H   0  0  0  0  0  0  0  0  0  0  0  0
    2.0420    3.2495   -1.7979 H   0  0  0  0  0  0  0  0  0  0  0  0
    2.1283    4.1304   -0.2866 H   0  0  0  0  0  0  0  0  0  0  0  0
    3.3953    1.3766   -0.7913 H   0  0  0  0  0  0  0  0  0  0  0  0
    3.4448    2.2464    0.7448 H   0  0  0  0  0  0  0  0  0  0  0  0
    4.2589    2.9068   -0.6836 H   0  0  0  0  0  0  0  0  0  0  0  0
  1  2  1  0
  1  6  1  0
  1  7  1  0
  2  3  1  0
  3  4  1  0
  3  8  1  0
  3  9  1  0
  4  5  1  0
  4 10  1  0
  4 11  1  0
  5 12  1  0
  5 13  1  0
  5 14  1  0
 15 16  1  0
 15 20  1  0
 15 21  1  0
 15 22  1  0
 16 17  1  0
 16 23  1  0
 16 24  1  0
 17 18  1  0
 18 19  1  0
 18 25  1  0
 18 26  1  0
 19 27  1  0
 19 28  1  0
 19 29  1  0
M  RAD  1   1   2
M  END
>  <reaction>  (5) 
rmg_rxn_668

>  <mol_properties>  (5) 
{"0": {"label": "*1", "atom_type": "Cs"}, "1": {"label": "*0", "atom_type": "O2s"}, "15": {"label": "*3", "atom_type": "Cs"}, "16": {"label": "*4", "atom_type": "S2s"}, "22": {"label": "*2", "atom_type": "H0"}}

>  <type>  (5) 
unop_1

>  <geom_source>  (5) 
Heuristics

$$$$

     RDKit          3D

 29 27  0  0  0  0  0  0  0  0999 V2000
   -1.0570   -0.7960    1.1380 C   0  0  0  0  0  3  0  0  0  0  0  0
   -1.5416   -1.7730    0.2612 O   0  0  0  0  0  0  0  0  0  0  0  0
   -2.2290   -1.2288   -0.8380 C   0  0  0  0  0  0  0  0  0  0  0  0
   -2.7502   -2.3516   -1.7110 C   0  0  0  0  0  0  0  0  0  0  0  0
   -3.7707   -3.2348   -1.0056 C   0  0  0  0  0  0  0  0  0  0  0  0
   -0.5417   -1.3070    1.9503 H   0  0  0  0  0  0  0  0  0  0  0  0
   -1.8725   -0.1918    1.5581 H   0  0  0  0  0  0  0  0  0  0  0  0
   -1.5558   -0.5775   -1.4149 H   0  0  0  0  0  0  0  0  0  0  0  0
   -3.0651   -0.6047   -0.4844 H   0  0  0  0  0  0  0  0  0  0  0  0
   -1.9012   -2.9529   -2.0465 H   0  0  0  0  0  0  0  0  0  0  0  0
   -3.1939   -1.9038   -2.6046 H   0  0  0  0  0  0  0  0  0  0  0  0
   -4.1263   -4.0275   -1.6655 H   0  0  0  0  0  0  0  0  0  0  0  0
   -3.3347   -3.6981   -0.1206 H   0  0  0  0  0  0  0  0  0  0  0  0
   -4.6374   -2.6505   -0.6865 H   0  0  0  0  0  0  0  0  0  0  0  0
    1.1372    0.3210   -1.2999 C   0  0  0  0  0  0  0  0  0  0  0  0
    1.1372    0.3210    0.2199 C   0  0  0  0  0  0  0  0  0  0  0  0
    1.1372    1.9620    0.9848 S   0  0  0  0  0  0  0  0  0  0  0  0
    2.6778    2.6760    0.3562 C   0  0  0  0  0  0  0  0  0  0  0  0
    3.9387    1.9171    0.7354 C   0  0  0  0  0  0  0  0  0  0  0  0
    2.0602    0.7445   -1.6993 H   0  0  0  0  0  0  0  0  0  0  0  0
    1.0546   -0.7002   -1.6785 H   0  0  0  0  0  0  0  0  0  0  0  0
    0.3015    0.9034   -1.6893 H   0  0  0  0  0  0  0  0  0  0  0  0
    0.0438   -0.2357    0.6774 H   0  0  0  0  0  0  0  0  0  0  0  0
    1.9734   -0.2617    0.6099 H   0  0  0  0  0  0  0  0  0  0  0  0
    2.6066    2.7982   -0.7259 H   0  0  0  0  0  0  0  0  0  0  0  0
    2.6929    3.6791    0.7854 H   0  0  0  0  0  0  0  0  0  0  0  0
    3.9599    0.9253    0.2807 H   0  0  0  0  0  0  0  0  0  0  0  0
    4.0094    1.7951    1.8168 H   0  0  0  0  0  0  0  0  0  0  0  0
    4.8235    2.4555    0.3884 H   0  0  0  0  0  0  0  0  0  0  0  0
  1  2  1  0
  1  6  1  0
  1  7  1  0
  2  3  1  0
  3  4  1  0
  3  8  1  0
  3  9  1  0
  4  5  1  0
  4 10  1  0
  4 11  1  0
  5 12  1  0
  5 13  1  0
  5 14  1  0
 15 16  1  0
 15 20  1  0
 15 21  1  0
 15 22  1  0
 16 17  1  0
 16 23  1  0
 16 24  1  0
 17 18  1  0
 18 19  1  0
 18 25  1  0
 18 26  1  0
 19 27  1  0
 19 28  1  0
 19 29  1  0
M  RAD  1   1   2
M  END
>  <reaction>  (6) 
rmg_rxn_668

>  <mol_properties>  (6) 
{"0": {"label": "*1", "atom_type": "Cs"}, "1": {"label": "*0", "atom_type": "O2s"}, "15": {"label": "*3", "atom_type": "Cs"}, "16": {"label": "*4", "atom_type": "S2s"}, "22": {"label": "*2", "atom_type": "H0"}}

>  <type>  (6) 
unop_2

>  <geom_source>  (6) 
Heuristics

$$$$

     RDKit          3D

 29 27  0  0  0  0  0  0  0  0999 V2000
   -1.6994   -0.5902   -0.2885 C   0  0  0  0  0  3  0  0  0  0  0  0
   -1.4819   -1.2098    0.9471 O   0  0  0  0  0  0  0  0  0  0  0  0
   -1.0743   -2.5498    0.8228 C   0  0  0  0  0  0  0  0  0  0  0  0
   -0.8996   -3.1521    2.2016 C   0  0  0  0  0  0  0  0  0  0  0  0
   -2.1951   -3.2064    3.0004 C   0  0  0  0  0  0  0  0  0  0  0  0
   -2.0071    0.4364   -0.0941 H   0  0  0  0  0  0  0  0  0  0  0  0
   -2.4894   -1.0967   -0.8595 H   0  0  0  0  0  0  0  0  0  0  0  0
   -0.1304   -2.6029    0.2604 H   0  0  0  0  0  0  0  0  0  0  0  0
   -1.8271   -3.1183    0.2537 H   0  0  0  0  0  0  0  0  0  0  0  0
   -0.1492   -2.5695    2.7422 H   0  0  0  0  0  0  0  0  0  0  0  0
   -0.4909   -4.1589    2.0787 H   0  0  0  0  0  0  0  0  0  0  0  0
   -2.0315   -3.6497    3.9837 H   0  0  0  0  0  0  0  0  0  0  0  0
   -2.6044   -2.2061    3.1413 H   0  0  0  0  0  0  0  0  0  0  0  0
   -2.9471   -3.8073    2.4828 H   0  0  0  0  0  0  0  0  0  0  0  0
    0.4949    0.5268   -2.7264 C   0  0  0  0  0  0  0  0  0  0  0  0
    0.4949    0.5268   -1.2067 C   0  0  0  0  0  0  0  0  0  0  0  0
    0.4949    2.1679   -0.4418 S   0  0  0  0  0  0  0  0  0  0  0  0
    2.0355    2.8818   -1.0704 C   0  0  0  0  0  0  0  0  0  0  0  0
    3.2964    2.1230   -0.6912 C   0  0  0  0  0  0  0  0  0  0  0  0
    1.4179    0.9504   -3.1258 H   0  0  0  0  0  0  0  0  0  0  0  0
    0.4123   -0.4944   -3.1051 H   0  0  0  0  0  0  0  0  0  0  0  0
   -0.3409    1.1093   -3.1158 H   0  0  0  0  0  0  0  0  0  0  0  0
   -0.5986   -0.0298   -0.7491 H   0  0  0  0  0  0  0  0  0  0  0  0
    1.3311   -0.0558   -0.8166 H   0  0  0  0  0  0  0  0  0  0  0  0
    1.9643    3.0040   -2.1524 H   0  0  0  0  0  0  0  0  0  0  0  0
    2.0505    3.8850   -0.6411 H   0  0  0  0  0  0  0  0  0  0  0  0
    3.3176    1.1311   -1.1459 H   0  0  0  0  0  0  0  0  0  0  0  0
    3.3670    2.0009    0.3902 H   0  0  0  0  0  0  0  0  0  0  0  0
    4.1811    2.6614   -1.0381 H   0  0  0  0  0  0  0  0  0  0  0  0
  1  2  1  0
  1  6  1  0
  1  7  1  0
  2  3  1  0
  3  4  1  0
  3  8  1  0
  3  9  1  0
  4  5  1  0
  4 10  1  0
  4 11  1  0
  5 12  1  0
  5 13  1  0
  5 14  1  0
 15 16  1  0
 15 20  1  0
 15 21  1  0
 15 22  1  0
 16 17  1  0
 16 23  1  0
 16 24  1  0
 17 18  1  0
 18 19  1  0
 18 25  1  0
 18 26  1  0
 19 27  1  0
 19 28  1  0
 19 29  1  0
M  RAD  1   1   2
M  END
>  <reaction>  (7) 
rmg_rxn_668

>  <mol_properties>  (7) 
{"0": {"label": "*1", "atom_type": "Cs"}, "1": {"label": "*0", "atom_type": "O2s"}, "15": {"label": "*3", "atom_type": "Cs"}, "16": {"label": "*4", "atom_type": "S2s"}, "22": {"label": "*2", "atom_type": "H0"}}

>  <type>  (7) 
unop_3

>  <geom_source>  (7) 
Heuristics

$$$$

     RDKit          3D

 29 27  0  0  0  0  0  0  0  0999 V2000
   -0.9261   -2.0099    0.6279 C   0  0  0  0  0  3  0  0  0  0  0  0
   -2.0689   -1.3267    0.1975 O   0  0  0  0  0  0  0  0  0  0  0  0
   -1.8362    0.0418   -0.0262 C   0  0  0  0  0  0  0  0  0  0  0  0
   -3.1285    0.7088   -0.4501 C   0  0  0  0  0  0  0  0  0  0  0  0
   -4.2071    0.6625    0.6240 C   0  0  0  0  0  0  0  0  0  0  0  0
   -1.1997   -3.0543    0.7720 H   0  0  0  0  0  0  0  0  0  0  0  0
   -0.5493   -1.6062    1.5775 H   0  0  0  0  0  0  0  0  0  0  0  0
   -1.0682    0.1683   -0.8035 H   0  0  0  0  0  0  0  0  0  0  0  0
   -1.4518    0.5109    0.8936 H   0  0  0  0  0  0  0  0  0  0  0  0
   -3.4859    0.2243   -1.3624 H   0  0  0  0  0  0  0  0  0  0  0  0
   -2.9010    1.7462   -0.7105 H   0  0  0  0  0  0  0  0  0  0  0  0
   -5.1194    1.1557    0.2853 H   0  0  0  0  0  0  0  0  0  0  0  0
   -4.4521   -0.3679    0.8815 H   0  0  0  0  0  0  0  0  0  0  0  0
   -3.8723    1.1658    1.5345 H   0  0  0  0  0  0  0  0  0  0  0  0
    1.2682   -0.8929   -1.8100 C   0  0  0  0  0  0  0  0  0  0  0  0
    1.2682   -0.8929   -0.2903 C   0  0  0  0  0  0  0  0  0  0  0  0
    1.2682    0.7482    0.4746 S   0  0  0  0  0  0  0  0  0  0  0  0
    2.8088    1.4621   -0.1540 C   0  0  0  0  0  0  0  0  0  0  0  0
    4.0697    0.7033    0.2252 C   0  0  0  0  0  0  0  0  0  0  0  0
    2.1912   -0.4693   -2.2094 H   0  0  0  0  0  0  0  0  0  0  0  0
    1.1856   -1.9141   -2.1887 H   0  0  0  0  0  0  0  0  0  0  0  0
    0.4325   -0.3104   -2.1994 H   0  0  0  0  0  0  0  0  0  0  0  0
    0.1747   -1.4495    0.1673 H   0  0  0  0  0  0  0  0  0  0  0  0
    2.1044   -1.4755    0.0998 H   0  0  0  0  0  0  0  0  0  0  0  0
    2.7376    1.5843   -1.2360 H   0  0  0  0  0  0  0  0  0  0  0  0
    2.8238    2.4653    0.2753 H   0  0  0  0  0  0  0  0  0  0  0  0
    4.0909   -0.2886   -0.2294 H   0  0  0  0  0  0  0  0  0  0  0  0
    4.1404    0.5812    1.3066 H   0  0  0  0  0  0  0  0  0  0  0  0
    4.9544    1.2417   -0.1217 H   0  0  0  0  0  0  0  0  0  0  0  0
  1  2  1  0
  1  6  1  0
  1  7  1  0
  2  3  1  0
  3  4  1  0
  3  8  1  0
  3  9  1  0
  4  5  1  0
  4 10  1  0
  4 11  1  0
  5 12  1  0
  5 13  1  0
  5 14  1  0
 15 16  1  0
 15 20  1  0
 15 21  1  0
 15 22  1  0
 16 17  1  0
 16 23  1  0
 16 24  1  0
 17 18  1  0
 18 19  1  0
 18 25  1  0
 18 26  1  0
 19 27  1  0
 19 28  1  0
 19 29  1  0
M  RAD  1   1   2
M  END
>  <reaction>  (8) 
rmg_rxn_668

>  <mol_properties>  (8) 
{"0": {"label": "*1", "atom_type": "Cs"}, "1": {"label": "*0", "atom_type": "O2s"}, "15": {"label": "*3", "atom_type": "Cs"}, "16": {"label": "*4", "atom_type": "S2s"}, "22": {"label": "*2", "atom_type": "H0"}}

>  <type>  (8) 
unop_4

>  <geom_source>  (8) 
Heuristics

$$$$

     RDKit          3D

 29 27  0  0  0  0  0  0  0  0999 V2000
   -1.7424   -1.0195   -0.5250 C   0  0  0  0  0  3  0  0  0  0  0  0
   -1.7659   -1.0314    0.8741 O   0  0  0  0  0  0  0  0  0  0  0  0
   -0.6948   -1.7509    1.4328 C   0  0  0  0  0  0  0  0  0  0  0  0
   -0.8187   -1.7453    2.9425 C   0  0  0  0  0  0  0  0  0  0  0  0
   -2.0718   -2.4509    3.4436 C   0  0  0  0  0  0  0  0  0  0  0  0
   -2.6011   -0.4422   -0.8652 H   0  0  0  0  0  0  0  0  0  0  0  0
   -1.8102   -2.0353   -0.9376 H   0  0  0  0  0  0  0  0  0  0  0  0
    0.2599   -1.2985    1.1263 H   0  0  0  0  0  0  0  0  0  0  0  0
   -0.7027   -2.7861    1.0560 H   0  0  0  0  0  0  0  0  0  0  0  0
   -0.8082   -0.7082    3.2876 H   0  0  0  0  0  0  0  0  0  0  0  0
    0.0735   -2.2252    3.3543 H   0  0  0  0  0  0  0  0  0  0  0  0
   -2.1242   -2.4309    4.5331 H   0  0  0  0  0  0  0  0  0  0  0  0
   -2.9684   -1.9718    3.0505 H   0  0  0  0  0  0  0  0  0  0  0  0
   -2.0833   -3.4967    3.1266 H   0  0  0  0  0  0  0  0  0  0  0  0
    0.4518    0.0975   -2.9629 C   0  0  0  0  0  0  0  0  0  0  0  0
    0.4518    0.0975   -1.4432 C   0  0  0  0  0  0  0  0  0  0  0  0
    0.4518    1.7386   -0.6783 S   0  0  0  0  0  0  0  0  0  0  0  0
    1.9924    2.4525   -1.3069 C   0  0  0  0  0  0  0  0  0  0  0  0
    3.2533    1.6937   -0.9277 C   0  0  0  0  0  0  0  0  0  0  0  0
    1.3749    0.5211   -3.3623 H   0  0  0  0  0  0  0  0  0  0  0  0
    0.3693   -0.9237   -3.3416 H   0  0  0  0  0  0  0  0  0  0  0  0
   -0.3839    0.6800   -3.3523 H   0  0  0  0  0  0  0  0  0  0  0  0
   -0.6416   -0.4591   -0.9856 H   0  0  0  0  0  0  0  0  0  0  0  0
    1.2880   -0.4851   -1.0531 H   0  0  0  0  0  0  0  0  0  0  0  0
    1.9213    2.5747   -2.3889 H   0  0  0  0  0  0  0  0  0  0  0  0
    2.0075    3.4557   -0.8776 H   0  0  0  0  0  0  0  0  0  0  0  0
    3.2746    0.7018   -1.3824 H   0  0  0  0  0  0  0  0  0  0  0  0
    3.3240    1.5716    0.1537 H   0  0  0  0  0  0  0  0  0  0  0  0
    4.1381    2.2321   -1.2746 H   0  0  0  0  0  0  0  0  0  0  0  0
  1  2  1  0
  1  6  1  0
  1  7  1  0
  2  3  1  0
  3  4  1  0
  3  8  1  0
  3  9  1  0
  4  5  1  0
  4 10  1  0
  4 11  1  0
  5 12  1  0
  5 13  1  0
  5 14  1  0
 15 16  1  0
 15 20  1  0
 15 21  1  0
 15 22  1  0
 16 17  1  0
 16 23  1  0
 16 24  1  0
 17 18  1  0
 18 19  1  0
 18 25  1  0
 18 26  1  0
 19 27  1  0
 19 28  1  0
 19 29  1  0
M  RAD  1   1   2
M  END
>  <reaction>  (9) 
rmg_rxn_668

>  <mol_properties>  (9) 
{"0": {"label": "*1", "atom_type": "Cs"}, "1": {"label": "*0", "atom_type": "O2s"}, "15": {"label": "*3", "atom_type": "Cs"}, "16": {"label": "*4", "atom_type": "S2s"}, "22": {"label": "*2", "atom_type": "H0"}}

>  <type>  (9) 
unop_5

>  <geom_source>  (9) 
Heuristics

$$$$

     RDKit          3D

 29 27  0  0  0  0  0  0  0  0999 V2000
   -1.0937   -2.1162    0.1799 C   0  0  0  0  0  3  0  0  0  0  0  0
   -2.1130   -1.1745    0.3593 O   0  0  0  0  0  0  0  0  0  0  0  0
   -1.6284    0.1401    0.4774 C   0  0  0  0  0  0  0  0  0  0  0  0
   -2.7897    1.0854    0.7063 C   0  0  0  0  0  0  0  0  0  0  0  0
   -3.5306    0.8196    2.0100 C   0  0  0  0  0  0  0  0  0  0  0  0
   -1.5604   -3.0969    0.0969 H   0  0  0  0  0  0  0  0  0  0  0  0
   -0.3981   -2.1237    1.0300 H   0  0  0  0  0  0  0  0  0  0  0  0
   -1.0819    0.4206   -0.4352 H   0  0  0  0  0  0  0  0  0  0  0  0
   -0.9179    0.2027    1.3170 H   0  0  0  0  0  0  0  0  0  0  0  0
   -3.4767    1.0023   -0.1398 H   0  0  0  0  0  0  0  0  0  0  0  0
   -2.3982    2.1064    0.6975 H   0  0  0  0  0  0  0  0  0  0  0  0
   -4.3554    1.5213    2.1426 H   0  0  0  0  0  0  0  0  0  0  0  0
   -3.9377   -0.1914    2.0240 H   0  0  0  0  0  0  0  0  0  0  0  0
   -2.8608    0.9239    2.8672 H   0  0  0  0  0  0  0  0  0  0  0  0
    1.1005   -0.9992   -2.2580 C   0  0  0  0  0  0  0  0  0  0  0  0
    1.1005   -0.9992   -0.7383 C   0  0  0  0  0  0  0  0  0  0  0  0
    1.1005    0.6419    0.0266 S   0  0  0  0  0  0  0  0  0  0  0  0
    2.6411    1.3558   -0.6020 C   0  0  0  0  0  0  0  0  0  0  0  0
    3.9020    0.5969   -0.2228 C   0  0  0  0  0  0  0  0  0  0  0  0
    2.0236   -0.5756   -2.6575 H   0  0  0  0  0  0  0  0  0  0  0  0
    1.0180   -2.0204   -2.6367 H   0  0  0  0  0  0  0  0  0  0  0  0
    0.2648   -0.4167   -2.6474 H   0  0  0  0  0  0  0  0  0  0  0  0
    0.0071   -1.5558   -0.2808 H   0  0  0  0  0  0  0  0  0  0  0  0
    1.9367   -1.5819   -0.3483 H   0  0  0  0  0  0  0  0  0  0  0  0
    2.5700    1.4780   -1.6841 H   0  0  0  0  0  0  0  0  0  0  0  0
    2.6562    2.3590   -0.1727 H   0  0  0  0  0  0  0  0  0  0  0  0
    3.9233   -0.3949   -0.6775 H   0  0  0  0  0  0  0  0  0  0  0  0
    3.9727    0.4749    0.8586 H   0  0  0  0  0  0  0  0  0  0  0  0
    4.7868    1.1353   -0.5697 H   0  0  0  0  0  0  0  0  0  0  0  0
  1  2  1  0
  1  6  1  0
  1  7  1  0
  2  3  1  0
  3  4  1  0
  3  8  1  0
  3  9  1  0
  4  5  1  0
  4 10  1  0
  4 11  1  0
  5 12  1  0
  5 13  1  0
  5 14  1  0
 15 16  1  0
 15 20  1  0
 15 21  1  0
 15 22  1  0
 16 17  1  0
 16 23  1  0
 16 24  1  0
 17 18  1  0
 18 19  1  0
 18 25  1  0
 18 26  1  0
 19 27  1  0
 19 28  1  0
 19 29  1  0
M  RAD  1   1   2
M  END
>  <reaction>  (10) 
rmg_rxn_668

>  <mol_properties>  (10) 
{"0": {"label": "*1", "atom_type": "Cs"}, "1": {"label": "*0", "atom_type": "O2s"}, "15": {"label": "*3", "atom_type": "Cs"}, "16": {"label": "*4", "atom_type": "S2s"}, "22": {"label": "*2", "atom_type": "H0"}}

>  <type>  (10) 
unop_6

>  <geom_source>  (10) 
Heuristics

$$$$

     RDKit          3D

 29 27  0  0  0  0  0  0  0  0999 V2000
   -1.3454   -1.9772   -0.2473 C   0  0  0  0  0  3  0  0  0  0  0  0
   -2.0829   -1.0878    0.5419 O   0  0  0  0  0  0  0  0  0  0  0  0
   -1.3078   -0.0244    1.0375 C   0  0  0  0  0  0  0  0  0  0  0  0
   -2.1717    0.8643    1.9083 C   0  0  0  0  0  0  0  0  0  0  0  0
   -2.7049    0.1548    3.1458 C   0  0  0  0  0  0  0  0  0  0  0  0
   -2.0234   -2.7597   -0.5855 H   0  0  0  0  0  0  0  0  0  0  0  0
   -0.5266   -2.4374    0.3224 H   0  0  0  0  0  0  0  0  0  0  0  0
   -0.8870    0.5531    0.2011 H   0  0  0  0  0  0  0  0  0  0  0  0
   -0.4612   -0.4193    1.6215 H   0  0  0  0  0  0  0  0  0  0  0  0
   -3.0014    1.2408    1.3044 H   0  0  0  0  0  0  0  0  0  0  0  0
   -1.5734    1.7318    2.2004 H   0  0  0  0  0  0  0  0  0  0  0  0
   -3.3173    0.8261    3.7496 H   0  0  0  0  0  0  0  0  0  0  0  0
   -3.3150   -0.7040    2.8660 H   0  0  0  0  0  0  0  0  0  0  0  0
   -1.8850   -0.2054    3.7722 H   0  0  0  0  0  0  0  0  0  0  0  0
    0.8489   -0.8602   -2.6852 C   0  0  0  0  0  0  0  0  0  0  0  0
    0.8489   -0.8602   -1.1655 C   0  0  0  0  0  0  0  0  0  0  0  0
    0.8489    0.7808   -0.4006 S   0  0  0  0  0  0  0  0  0  0  0  0
    2.3895    1.4948   -1.0292 C   0  0  0  0  0  0  0  0  0  0  0  0
    3.6504    0.7359   -0.6500 C   0  0  0  0  0  0  0  0  0  0  0  0
    1.7719   -0.4367   -3.0846 H   0  0  0  0  0  0  0  0  0  0  0  0
    0.7663   -1.8814   -3.0639 H   0  0  0  0  0  0  0  0  0  0  0  0
    0.0132   -0.2778   -3.0746 H   0  0  0  0  0  0  0  0  0  0  0  0
   -0.2446   -1.4169   -0.7079 H   0  0  0  0  0  0  0  0  0  0  0  0
    1.6851   -1.4429   -0.7754 H   0  0  0  0  0  0  0  0  0  0  0  0
    2.3183    1.6170   -2.1112 H   0  0  0  0  0  0  0  0  0  0  0  0
    2.4045    2.4979   -0.5999 H   0  0  0  0  0  0  0  0  0  0  0  0
    3.6716   -0.2559   -1.1047 H   0  0  0  0  0  0  0  0  0  0  0  0
    3.7211    0.6139    0.4314 H   0  0  0  0  0  0  0  0  0  0  0  0
    4.5351    1.2743   -0.9969 H   0  0  0  0  0  0  0  0  0  0  0  0
  1  2  1  0
  1  6  1  0
  1  7  1  0
  2  3  1  0
  3  4  1  0
  3  8  1  0
  3  9  1  0
  4  5  1  0
  4 10  1  0
  4 11  1  0
  5 12  1  0
  5 13  1  0
  5 14  1  0
 15 16  1  0
 15 20  1  0
 15 21  1  0
 15 22  1  0
 16 17  1  0
 16 23  1  0
 16 24  1  0
 17 18  1  0
 18 19  1  0
 18 25  1  0
 18 26  1  0
 19 27  1  0
 19 28  1  0
 19 29  1  0
M  RAD  1   1   2
M  END
>  <reaction>  (11) 
rmg_rxn_668

>  <mol_properties>  (11) 
{"0": {"label": "*1", "atom_type": "Cs"}, "1": {"label": "*0", "atom_type": "O2s"}, "15": {"label": "*3", "atom_type": "Cs"}, "16": {"label": "*4", "atom_type": "S2s"}, "22": {"label": "*2", "atom_type": "H0"}}

>  <type>  (11) 
unop_7

>  <geom_source>  (11) 
Heuristics

$$$$

     RDKit          3D

 29 27  0  0  0  0  0  0  0  0999 V2000
   -1.4790   -0.2813    0.4898 C   0  0  0  0  0  3  0  0  0  0  0  0
   -1.3173   -1.6596    0.6693 O   0  0  0  0  0  0  0  0  0  0  0  0
   -1.8568   -2.4155   -0.3865 C   0  0  0  0  0  0  0  0  0  0  0  0
   -1.6733   -3.8904   -0.0938 C   0  0  0  0  0  0  0  0  0  0  0  0
   -2.4252   -4.3531    1.1471 C   0  0  0  0  0  0  0  0  0  0  0  0
   -1.0325    0.2186    1.3483 H   0  0  0  0  0  0  0  0  0  0  0  0
   -2.5404   -0.0049    0.4292 H   0  0  0  0  0  0  0  0  0  0  0  0
   -1.3586   -2.1486   -1.3302 H   0  0  0  0  0  0  0  0  0  0  0  0
   -2.9273   -2.1830   -0.5039 H   0  0  0  0  0  0  0  0  0  0  0  0
   -0.6047   -4.0916    0.0177 H   0  0  0  0  0  0  0  0  0  0  0  0
   -2.0116   -4.4510   -0.9696 H   0  0  0  0  0  0  0  0  0  0  0  0
   -2.2735   -5.4191    1.3229 H   0  0  0  0  0  0  0  0  0  0  0  0
   -2.0858   -3.8105    2.0293 H   0  0  0  0  0  0  0  0  0  0  0  0
   -3.4989   -4.1807    1.0390 H   0  0  0  0  0  0  0  0  0  0  0  0
    0.7152    0.8357   -1.9481 C   0  0  0  0  0  0  0  0  0  0  0  0
    0.7152    0.8357   -0.4284 C   0  0  0  0  0  0  0  0  0  0  0  0
    0.7152    2.4768    0.3365 S   0  0  0  0  0  0  0  0  0  0  0  0
    2.2558    3.1907   -0.2921 C   0  0  0  0  0  0  0  0  0  0  0  0
    3.5167    2.4319    0.0872 C   0  0  0  0  0  0  0  0  0  0  0  0
    1.6382    1.2593   -2.3475 H   0  0  0  0  0  0  0  0  0  0  0  0
    0.6327   -0.1855   -2.3268 H   0  0  0  0  0  0  0  0  0  0  0  0
   -0.1205    1.4182   -2.3375 H   0  0  0  0  0  0  0  0  0  0  0  0
   -0.3782    0.2791    0.0292 H   0  0  0  0  0  0  0  0  0  0  0  0
    1.5514    0.2531   -0.0383 H   0  0  0  0  0  0  0  0  0  0  0  0
    2.1847    3.3129   -1.3741 H   0  0  0  0  0  0  0  0  0  0  0  0
    2.2709    4.1939    0.1372 H   0  0  0  0  0  0  0  0  0  0  0  0
    3.5379    1.4400   -0.3675 H   0  0  0  0  0  0  0  0  0  0  0  0
    3.5874    2.3098    1.1686 H   0  0  0  0  0  0  0  0  0  0  0  0
    4.4015    2.9703   -0.2598 H   0  0  0  0  0  0  0  0  0  0  0  0
  1  2  1  0
  1  6  1  0
  1  7  1  0
  2  3  1  0
  3  4  1  0
  3  8  1  0
  3  9  1  0
  4  5  1  0
  4 10  1  0
  4 11  1  0
  5 12  1  0
  5 13  1  0
  5 14  1  0
 15 16  1  0
 15 20  1  0
 15 21  1  0
 15 22  1  0
 16 17  1  0
 16 23  1  0
 16 24  1  0
 17 18  1  0
 18 19  1  0
 18 25  1  0
 18 26  1  0
 19 27  1  0
 19 28  1  0
 19 29  1  0
M  RAD  1   1   2
M  END
>  <reaction>  (12) 
rmg_rxn_668

>  <mol_properties>  (12) 
{"0": {"label": "*1", "atom_type": "Cs"}, "1": {"label": "*0", "atom_type": "O2s"}, "15": {"label": "*3", "atom_type": "Cs"}, "16": {"label": "*4", "atom_type": "S2s"}, "22": {"label": "*2", "atom_type": "H0"}}

>  <type>  (12) 
unop_8

>  <geom_source>  (12) 
Heuristics

$$$$

     RDKit          3D

 29 27  0  0  0  0  0  0  0  0999 V2000
   -0.8631   -1.7024    0.9869 C   0  0  0  0  0  3  0  0  0  0  0  0
   -1.9382   -1.5194    0.1101 O   0  0  0  0  0  0  0  0  0  0  0  0
   -1.9984   -0.2172   -0.4169 C   0  0  0  0  0  0  0  0  0  0  0  0
   -3.2078   -0.0963   -1.3210 C   0  0  0  0  0  0  0  0  0  0  0  0
   -4.5275   -0.2852   -0.5850 C   0  0  0  0  0  0  0  0  0  0  0  0
   -0.8962   -2.7322    1.3402 H   0  0  0  0  0  0  0  0  0  0  0  0
   -0.9287   -1.0273    1.8510 H   0  0  0  0  0  0  0  0  0  0  0  0
   -1.0783    0.0018   -0.9786 H   0  0  0  0  0  0  0  0  0  0  0  0
   -2.0639    0.5155    0.4032 H   0  0  0  0  0  0  0  0  0  0  0  0
   -3.1163   -0.8330   -2.1233 H   0  0  0  0  0  0  0  0  0  0  0  0
   -3.1775    0.8902   -1.7919 H   0  0  0  0  0  0  0  0  0  0  0  0
   -5.3741   -0.1866   -1.2660 H   0  0  0  0  0  0  0  0  0  0  0  0
   -4.5747   -1.2714   -0.1232 H   0  0  0  0  0  0  0  0  0  0  0  0
   -4.6438    0.4613    0.2046 H   0  0  0  0  0  0  0  0  0  0  0  0
    1.3311   -0.5854   -1.4510 C   0  0  0  0  0  0  0  0  0  0  0  0
    1.3311   -0.5854    0.0688 C   0  0  0  0  0  0  0  0  0  0  0  0
    1.3311    1.0557    0.8337 S   0  0  0  0  0  0  0  0  0  0  0  0
    2.8717    1.7696    0.2051 C   0  0  0  0  0  0  0  0  0  0  0  0
    4.1326    1.0107    0.5843 C   0  0  0  0  0  0  0  0  0  0  0  0
    2.2541   -0.1618   -1.8504 H   0  0  0  0  0  0  0  0  0  0  0  0
    1.2485   -1.6066   -1.8296 H   0  0  0  0  0  0  0  0  0  0  0  0
    0.4954   -0.0029   -1.8404 H   0  0  0  0  0  0  0  0  0  0  0  0
    0.2376   -1.1420    0.5263 H   0  0  0  0  0  0  0  0  0  0  0  0
    2.1673   -1.1681    0.4588 H   0  0  0  0  0  0  0  0  0  0  0  0
    2.8005    1.8918   -0.8770 H   0  0  0  0  0  0  0  0  0  0  0  0
    2.8868    2.7728    0.6343 H   0  0  0  0  0  0  0  0  0  0  0  0
    4.1538    0.0189    0.1296 H   0  0  0  0  0  0  0  0  0  0  0  0
    4.2033    0.8887    1.6657 H   0  0  0  0  0  0  0  0  0  0  0  0
    5.0174    1.5491    0.2373 H   0  0  0  0  0  0  0  0  0  0  0  0
  1  2  1  0
  1  6  1  0
  1  7  1  0
  2  3  1  0
  3  4  1  0
  3  8  1  0
  3  9  1  0
  4  5  1  0
  4 10  1  0
  4 11  1  0
  5 12  1  0
  5 13  1  0
  5 14  1  0
 15 16  1  0
 15 20  1  0
 15 21  1  0
 15 22  1  0
 16 17  1  0
 16 23  1  0
 16 24  1  0
 17 18  1  0
 18 19  1  0
 18 25  1  0
 18 26  1  0
 19 27  1  0
 19 28  1  0
 19 29  1  0
M  RAD  1   1   2
M  END
>  <reaction>  (13) 
rmg_rxn_668

>  <mol_properties>  (13) 
{"0": {"label": "*1", "atom_type": "Cs"}, "1": {"label": "*0", "atom_type": "O2s"}, "15": {"label": "*3", "atom_type": "Cs"}, "16": {"label": "*4", "atom_type": "S2s"}, "22": {"label": "*2", "atom_type": "H0"}}

>  <type>  (13) 
unop_9

>  <geom_source>  (13) 
Heuristics

$$$$

     RDKit          3D

 29 27  0  0  0  0  0  0  0  0999 V2000
   -1.2719   -0.4376    0.8846 C   0  0  0  0  0  3  0  0  0  0  0  0
   -1.3920   -1.7637    0.4542 O   0  0  0  0  0  0  0  0  0  0  0  0
   -2.1213   -1.8865   -0.7416 C   0  0  0  0  0  0  0  0  0  0  0  0
   -2.2352   -3.3507   -1.1128 C   0  0  0  0  0  0  0  0  0  0  0  0
   -3.0128   -4.1692   -0.0907 C   0  0  0  0  0  0  0  0  0  0  0  0
   -0.6951   -0.4407    1.8085 H   0  0  0  0  0  0  0  0  0  0  0  0
   -2.2546    0.0129    1.0799 H   0  0  0  0  0  0  0  0  0  0  0  0
   -1.6195   -1.3269   -1.5448 H   0  0  0  0  0  0  0  0  0  0  0  0
   -3.1243   -1.4489   -0.6146 H   0  0  0  0  0  0  0  0  0  0  0  0
   -1.2278   -3.7578   -1.2320 H   0  0  0  0  0  0  0  0  0  0  0  0
   -2.7196   -3.4123   -2.0913 H   0  0  0  0  0  0  0  0  0  0  0  0
   -3.0781   -5.2153   -0.3936 H   0  0  0  0  0  0  0  0  0  0  0  0
   -2.5308   -4.1266    0.8859 H   0  0  0  0  0  0  0  0  0  0  0  0
   -4.0311   -3.7883    0.0203 H   0  0  0  0  0  0  0  0  0  0  0  0
    0.9223    0.6794   -1.5533 C   0  0  0  0  0  0  0  0  0  0  0  0
    0.9223    0.6794   -0.0335 C   0  0  0  0  0  0  0  0  0  0  0  0
    0.9223    2.3205    0.7313 S   0  0  0  0  0  0  0  0  0  0  0  0
    2.4629    3.0344    0.1028 C   0  0  0  0  0  0  0  0  0  0  0  0
    3.7238    2.2756    0.4820 C   0  0  0  0  0  0  0  0  0  0  0  0
    1.8453    1.1030   -1.9527 H   0  0  0  0  0  0  0  0  0  0  0  0
    0.8397   -0.3418   -1.9319 H   0  0  0  0  0  0  0  0  0  0  0  0
    0.0866    1.2619   -1.9427 H   0  0  0  0  0  0  0  0  0  0  0  0
   -0.1712    0.1228    0.4240 H   0  0  0  0  0  0  0  0  0  0  0  0
    1.7585    0.0968    0.3565 H   0  0  0  0  0  0  0  0  0  0  0  0
    2.3917    3.1566   -0.9793 H   0  0  0  0  0  0  0  0  0  0  0  0
    2.4780    4.0376    0.5320 H   0  0  0  0  0  0  0  0  0  0  0  0
    3.7450    1.2837    0.0273 H   0  0  0  0  0  0  0  0  0  0  0  0
    3.7945    2.1535    1.5634 H   0  0  0  0  0  0  0  0  0  0  0  0
    4.6085    2.8140    0.1350 H   0  0  0  0  0  0  0  0  0  0  0  0
  1  2  1  0
  1  6  1  0
  1  7  1  0
  2  3  1  0
  3  4  1  0
  3  8  1  0
  3  9  1  0
  4  5  1  0
  4 10  1  0
  4 11  1  0
  5 12  1  0
  5 13  1  0
  5 14  1  0
 15 16  1  0
 15 20  1  0
 15 21  1  0
 15 22  1  0
 16 17  1  0
 16 23  1  0
 16 24  1  0
 17 18  1  0
 18 19  1  0
 18 25  1  0
 18 26  1  0
 19 27  1  0
 19 28  1  0
 19 29  1  0
M  RAD  1   1   2
M  END
>  <reaction>  (14) 
rmg_rxn_668

>  <mol_properties>  (14) 
{"0": {"label": "*1", "atom_type": "Cs"}, "1": {"label": "*0", "atom_type": "O2s"}, "15": {"label": "*3", "atom_type": "Cs"}, "16": {"label": "*4", "atom_type": "S2s"}, "22": {"label": "*2", "atom_type": "H0"}}

>  <type>  (14) 
unop_10

>  <geom_source>  (14) 
Heuristics

$$$$

     RDKit          3D

 29 27  0  0  0  0  0  0  0  0999 V2000
   -1.6134   -1.5815   -0.5250 C   0  0  0  0  0  3  0  0  0  0  0  0
   -1.9865   -1.0411    0.7107 O   0  0  0  0  0  0  0  0  0  0  0  0
   -0.8855   -0.6285    1.4819 C   0  0  0  0  0  0  0  0  0  0  0  0
   -1.3754   -0.0945    2.8121 C   0  0  0  0  0  0  0  0  0  0  0  0
   -2.0775   -1.1478    3.6587 C   0  0  0  0  0  0  0  0  0  0  0  0
   -2.5242   -1.8685   -1.0489 H   0  0  0  0  0  0  0  0  0  0  0  0
   -0.9789   -2.4696   -0.4011 H   0  0  0  0  0  0  0  0  0  0  0  0
   -0.3214    0.1473    0.9433 H   0  0  0  0  0  0  0  0  0  0  0  0
   -0.2026   -1.4778    1.6430 H   0  0  0  0  0  0  0  0  0  0  0  0
   -2.0492    0.7449    2.6220 H   0  0  0  0  0  0  0  0  0  0  0  0
   -0.5127    0.3074    3.3506 H   0  0  0  0  0  0  0  0  0  0  0  0
   -2.4112   -0.7287    4.6091 H   0  0  0  0  0  0  0  0  0  0  0  0
   -2.9480   -1.5455    3.1372 H   0  0  0  0  0  0  0  0  0  0  0  0
   -1.4067   -1.9824    3.8777 H   0  0  0  0  0  0  0  0  0  0  0  0
    0.5808   -0.4645   -2.9629 C   0  0  0  0  0  0  0  0  0  0  0  0
    0.5808   -0.4645   -1.4432 C   0  0  0  0  0  0  0  0  0  0  0  0
    0.5808    1.1766   -0.6783 S   0  0  0  0  0  0  0  0  0  0  0  0
    2.1214    1.8905   -1.3069 C   0  0  0  0  0  0  0  0  0  0  0  0
    3.3823    1.1317   -0.9277 C   0  0  0  0  0  0  0  0  0  0  0  0
    1.5038   -0.0409   -3.3623 H   0  0  0  0  0  0  0  0  0  0  0  0
    0.4982   -1.4856   -3.3416 H   0  0  0  0  0  0  0  0  0  0  0  0
   -0.2549    0.1180   -3.3523 H   0  0  0  0  0  0  0  0  0  0  0  0
   -0.5126   -1.0211   -0.9856 H   0  0  0  0  0  0  0  0  0  0  0  0
    1.4170   -1.0471   -1.0531 H   0  0  0  0  0  0  0  0  0  0  0  0
    2.0502    2.0128   -2.3889 H   0  0  0  0  0  0  0  0  0  0  0  0
    2.1365    2.8937   -0.8776 H   0  0  0  0  0  0  0  0  0  0  0  0
    3.4035    0.1398   -1.3824 H   0  0  0  0  0  0  0  0  0  0  0  0
    3.4530    1.0097    0.1537 H   0  0  0  0  0  0  0  0  0  0  0  0
    4.2671    1.6701   -1.2746 H   0  0  0  0  0  0  0  0  0  0  0  0
  1  2  1  0
  1  6  1  0
  1  7  1  0
  2  3  1  0
  3  4  1  0
  3  8  1  0
  3  9  1  0
  4  5  1  0
  4 10  1  0
  4 11  1  0
  5 12  1  0
  5 13  1  0
  5 14  1  0
 15 16  1  0
 15 20  1  0
 15 21  1  0
 15 22  1  0
 16 17  1  0
 16 23  1  0
 16 24  1  0
 17 18  1  0
 18 19  1  0
 18 25  1  0
 18 26  1  0
 19 27  1  0
 19 28  1  0
 19 29  1  0
M  RAD  1   1   2
M  END
>  <reaction>  (15) 
rmg_rxn_668

>  <mol_properties>  (15) 
{"0": {"label": "*1", "atom_type": "Cs"}, "1": {"label": "*0", "atom_type": "O2s"}, "15": {"label": "*3", "atom_type": "Cs"}, "16": {"label": "*4", "atom_type": "S2s"}, "22": {"label": "*2", "atom_type": "H0"}}

>  <type>  (15) 
unop_11

>  <geom_source>  (15) 
Heuristics

$$$$

     RDKit          3D

 29 27  0  0  0  0  0  0  0  0999 V2000
   -0.9077   -1.2625    1.1740 C   0  0  0  0  0  3  0  0  0  0  0  0
   -1.7418   -1.6871    0.1338 O   0  0  0  0  0  0  0  0  0  0  0  0
   -2.1561   -0.6333   -0.6998 C   0  0  0  0  0  0  0  0  0  0  0  0
   -3.0819   -1.1733   -1.7702 C   0  0  0  0  0  0  0  0  0  0  0  0
   -4.3695   -1.7610   -1.2082 C   0  0  0  0  0  0  0  0  0  0  0  0
   -0.6381   -2.1397    1.7608 H   0  0  0  0  0  0  0  0  0  0  0  0
   -1.4148   -0.5393    1.8272 H   0  0  0  0  0  0  0  0  0  0  0  0
   -1.2795   -0.1535   -1.1596 H   0  0  0  0  0  0  0  0  0  0  0  0
   -2.6742    0.1341   -0.1028 H   0  0  0  0  0  0  0  0  0  0  0  0
   -2.5429   -1.9306   -2.3453 H   0  0  0  0  0  0  0  0  0  0  0  0
   -3.3110   -0.3558   -2.4595 H   0  0  0  0  0  0  0  0  0  0  0  0
   -5.0117   -2.1346   -2.0070 H   0  0  0  0  0  0  0  0  0  0  0  0
   -4.1536   -2.5867   -0.5302 H   0  0  0  0  0  0  0  0  0  0  0  0
   -4.9314   -1.0071   -0.6512 H   0  0  0  0  0  0  0  0  0  0  0  0
    1.2865   -0.1455   -1.2639 C   0  0  0  0  0  0  0  0  0  0  0  0
    1.2865   -0.1455    0.2559 C   0  0  0  0  0  0  0  0  0  0  0  0
    1.2865    1.4956    1.0208 S   0  0  0  0  0  0  0  0  0  0  0  0
    2.8271    2.2095    0.3922 C   0  0  0  0  0  0  0  0  0  0  0  0
    4.0880    1.4507    0.7714 C   0  0  0  0  0  0  0  0  0  0  0  0
    2.2095    0.2781   -1.6633 H   0  0  0  0  0  0  0  0  0  0  0  0
    1.2040   -1.1667   -1.6425 H   0  0  0  0  0  0  0  0  0  0  0  0
    0.4508    0.4370   -1.6533 H   0  0  0  0  0  0  0  0  0  0  0  0
    0.1931   -0.7021    0.7134 H   0  0  0  0  0  0  0  0  0  0  0  0
    2.1227   -0.7281    0.6459 H   0  0  0  0  0  0  0  0  0  0  0  0
    2.7559    2.3317   -0.6899 H   0  0  0  0  0  0  0  0  0  0  0  0
    2.8422    3.2127    0.8214 H   0  0  0  0  0  0  0  0  0  0  0  0
    4.1092    0.4588    0.3167 H   0  0  0  0  0  0  0  0  0  0  0  0
    4.1587    1.3286    1.8528 H   0  0  0  0  0  0  0  0  0  0  0  0
    4.9728    1.9891    0.4244 H   0  0  0  0  0  0  0  0  0  0  0  0
  1  2  1  0
  1  6  1  0
  1  7  1  0
  2  3  1  0
  3  4  1  0
  3  8  1  0
  3  9  1  0
  4  5  1  0
  4 10  1  0
  4 11  1  0
  5 12  1  0
  5 13  1  0
  5 14  1  0
 15 16  1  0
 15 20  1  0
 15 21  1  0
 15 22  1  0
 16 17  1  0
 16 23  1  0
 16 24  1  0
 17 18  1  0
 18 19  1  0
 18 25  1  0
 18 26  1  0
 19 27  1  0
 19 28  1  0
 19 29  1  0
M  RAD  1   1   2
M  END
>  <reaction>  (16) 
rmg_rxn_668

>  <mol_properties>  (16) 
{"0": {"label": "*1", "atom_type": "Cs"}, "1": {"label": "*0", "atom_type": "O2s"}, "15": {"label": "*3", "atom_type": "Cs"}, "16": {"label": "*4", "atom_type": "S2s"}, "22": {"label": "*2", "atom_type": "H0"}}

>  <type>  (16) 
unop_12

>  <geom_source>  (16) 
Heuristics

$$$$

     RDKit          3D

 29 27  0  0  0  0  0  0  0  0999 V2000
    2.5952   -0.9337   -0.7782 S   0  0  0  0  0  0  0  0  0  0  0  0
   -1.8831   -0.3748   -0.9720 O   0  0  0  0  0  0  0  0  0  0  0  0
   -3.1743    1.0357    0.4670 C   0  0  0  0  0  0  0  0  0  0  0  0
   -1.7763    0.6701   -0.0301 C   0  0  0  0  0  0  0  0  0  0  0  0
    2.6243    0.2145    0.6367 C   0  0  0  0  0  0  0  0  0  0  0  0
   -3.1230    2.1637    1.4938 C   0  0  0  0  0  0  0  0  0  0  0  0
    3.6901    1.2782    0.4209 C   0  0  0  0  0  0  0  0  0  0  0  0
    0.7060   -2.8933   -1.1466 C   0  0  0  0  0  0  0  0  0  0  0  0
   -0.5998   -0.6865   -1.4621 C   0  0  0  0  0  0  0  0  0  0  0  0
    1.2241   -1.9218   -0.1000 C   0  0  0  0  0  3  0  0  0  0  0  0
   -3.8007    1.3562   -0.3938 H   0  0  0  0  0  0  0  0  0  0  0  0
   -3.6469    0.1429    0.9313 H   0  0  0  0  0  0  0  0  0  0  0  0
   -1.3172    1.5737   -0.4949 H   0  0  0  0  0  0  0  0  0  0  0  0
   -1.1626    0.3474    0.8423 H   0  0  0  0  0  0  0  0  0  0  0  0
    1.6325    0.7048    0.7390 H   0  0  0  0  0  0  0  0  0  0  0  0
    2.8507   -0.3469    1.5684 H   0  0  0  0  0  0  0  0  0  0  0  0
   -4.1525    2.4039    1.8335 H   0  0  0  0  0  0  0  0  0  0  0  0
   -2.6758    3.0755    1.0437 H   0  0  0  0  0  0  0  0  0  0  0  0
   -2.5210    1.8562    2.3754 H   0  0  0  0  0  0  0  0  0  0  0  0
    4.6903    0.8042    0.3285 H   0  0  0  0  0  0  0  0  0  0  0  0
    3.7027    1.9744    1.2858 H   0  0  0  0  0  0  0  0  0  0  0  0
    3.4714    1.8572   -0.5014 H   0  0  0  0  0  0  0  0  0  0  0  0
   -0.1350   -3.4790   -0.7209 H   0  0  0  0  0  0  0  0  0  0  0  0
    1.5130   -3.5911   -1.4558 H   0  0  0  0  0  0  0  0  0  0  0  0
    0.3394   -2.3343   -2.0329 H   0  0  0  0  0  0  0  0  0  0  0  0
   -0.6827   -1.5567   -2.1450 H   0  0  0  0  0  0  0  0  0  0  0  0
   -0.1791    0.1625   -2.0452 H   0  0  0  0  0  0  0  0  0  0  0  0
    0.2186   -1.0213   -0.4820 H   0  0  0  0  0  0  0  0  0  0  0  0
    1.5716   -2.4817    0.7943 H   0  0  0  0  0  0  0  0  0  0  0  0
  1 10  1  0
  1  5  1  0
  2  9  1  0
  2  4  1  0
  3  6  1  0
  3  4  1  0
  3 11  1  0
  3 12  1  0
  4 13  1  0
  4 14  1  0
  5  7  1  0
  5 15  1  0
  5 16  1  0
  6 17  1  0
  6 18  1  0
  6 19  1  0
  7 20  1  0
  7 21  1  0
  7 22  1  0
  8 10  1  0
  8 23  1  0
  8 24  1  0
  8 25  1  0
  9 26  1  0
  9 27  1  0
  9 28  1  0
 10 29  1  0
M  RAD  1  10   2
M  END
>  <reaction>  (17) 
rmg_rxn_668

>  <mol_properties>  (17) 
{"0": {"label": "*1", "atom_type": "Cs"}, "1": {"label": "*0", "atom_type": "O2s"}, "15": {"label": "*3", "atom_type": "Cs"}, "16": {"label": "*4", "atom_type": "S2s"}, "22": {"label": "*2", "atom_type": "H0"}}

>  <type>  (17) 
unop_13

>  <geom_source>  (17) 
AutoTST

$$$$

     RDKit          3D

 29 27  0  0  0  0  0  0  0  0999 V2000
   -1.0570   -0.7960    1.1380 C   0  0  0  0  0  3  0  0  0  0  0  0
   -1.5416   -1.7730    0.2612 O   0  0  0  0  0  0  0  0  0  0  0  0
   -2.2290   -1.2288   -0.8380 C   0  0  0  0  0  0  0  0  0  0  0  0
   -2.7502   -2.3516   -1.7110 C   0  0  0  0  0  0  0  0  0  0  0  0
   -3.7707   -3.2348   -1.0056 C   0  0  0  0  0  0  0  0  0  0  0  0
   -0.5416   -1.3070    1.9503 H   0  0  0  0  0  0  0  0  0  0  0  0
   -1.8725   -0.1918    1.5581 H   0  0  0  0  0  0  0  0  0  0  0  0
   -1.5558   -0.5775   -1.4149 H   0  0  0  0  0  0  0  0  0  0  0  0
   -3.0651   -0.6047   -0.4844 H   0  0  0  0  0  0  0  0  0  0  0  0
   -1.9012   -2.9529   -2.0465 H   0  0  0  0  0  0  0  0  0  0  0  0
   -3.1939   -1.9038   -2.6046 H   0  0  0  0  0  0  0  0  0  0  0  0
   -4.1263   -4.0275   -1.6655 H   0  0  0  0  0  0  0  0  0  0  0  0
   -3.3347   -3.6981   -0.1206 H   0  0  0  0  0  0  0  0  0  0  0  0
   -4.6374   -2.6505   -0.6865 H   0  0  0  0  0  0  0  0  0  0  0  0
    1.1372    0.3210   -1.2999 C   0  0  0  0  0  0  0  0  0  0  0  0
    1.1372    0.3210    0.2199 C   0  0  0  0  0  0  0  0  0  0  0  0
    1.1372    1.9620    0.9848 S   0  0  0  0  0  0  0  0  0  0  0  0
    2.6778    2.6760    0.3562 C   0  0  0  0  0  0  0  0  0  0  0  0
    3.9387    1.9171    0.7354 C   0  0  0  0  0  0  0  0  0  0  0  0
    2.0602    0.7445   -1.6993 H   0  0  0  0  0  0  0  0  0  0  0  0
    1.0547   -0.7002   -1.6785 H   0  0  0  0  0  0  0  0  0  0  0  0
    0.3015    0.9034   -1.6893 H   0  0  0  0  0  0  0  0  0  0  0  0
    0.0437   -0.2357    0.6774 H   0  0  0  0  0  0  0  0  0  0  0  0
    1.9734   -0.2617    0.6099 H   0  0  0  0  0  0  0  0  0  0  0  0
    2.6066    2.7982   -0.7259 H   0  0  0  0  0  0  0  0  0  0  0  0
    2.6929    3.6791    0.7854 H   0  0  0  0  0  0  0  0  0  0  0  0
    3.9599    0.9253    0.2807 H   0  0  0  0  0  0  0  0  0  0  0  0
    4.0094    1.7951    1.8168 H   0  0  0  0  0  0  0  0  0  0  0  0
    4.8235    2.4555    0.3884 H   0  0  0  0  0  0  0  0  0  0  0  0
  1  2  1  0
  1  6  1  0
  1  7  1  0
  2  3  1  0
  3  4  1  0
  3  8  1  0
  3  9  1  0
  4  5  1  0
  4 10  1  0
  4 11  1  0
  5 12  1  0
  5 13  1  0
  5 14  1  0
 15 16  1  0
 15 20  1  0
 15 21  1  0
 15 22  1  0
 16 17  1  0
 16 23  1  0
 16 24  1  0
 17 18  1  0
 18 19  1  0
 18 25  1  0
 18 26  1  0
 19 27  1  0
 19 28  1  0
 19 29  1  0
M  RAD  1   1   2
M  END
>  <reaction>  (18) 
rmg_rxn_668

>  <mol_properties>  (18) 
{"0": {"label": "*1", "atom_type": "Cs"}, "1": {"label": "*0", "atom_type": "O2s"}, "15": {"label": "*3", "atom_type": "Cs"}, "16": {"label": "*4", "atom_type": "S2s"}, "22": {"label": "*2", "atom_type": "H0"}}

>  <type>  (18) 
unop_14

>  <geom_source>  (18) 
gaussian_log

$$$$
