
     RDKit          3D

  9  8  0  0  0  0  0  0  0  0999 V2000
    2.0310   -0.2313    0.2972 O   0  0  0  0  0  0  0  0  0  0  0  0
    0.7181   -0.4900   -0.1228 N   0  0  0  0  0  0  0  0  0  0  0  0
   -0.2116    0.4372    0.3498 C   0  0  0  0  0  0  0  0  0  0  0  0
    0.0407    1.6423    0.8420 C   0  0  0  0  0  0  0  0  0  0  0  0
    2.4997   -0.0381   -0.5177 H   0  0  0  0  0  0  0  0  0  0  0  0
    0.4970   -1.4356    0.1600 H   0  0  0  0  0  0  0  0  0  0  0  0
   -1.2274    0.0806    0.2121 H   0  0  0  0  0  0  0  0  0  0  0  0
    1.0509    1.9968    0.9864 H   0  0  0  0  0  0  0  0  0  0  0  0
   -0.7793    2.2911    1.1115 H   0  0  0  0  0  0  0  0  0  0  0  0
  1  2  1  0
  1  5  1  0
  2  3  1  0
  2  6  1  0
  3  4  2  3
  3  7  1  0
  4  8  1  0
  4  9  1  0
M  END
>  <reaction>  (1) 
rmg_rxn_15729

>  <mol_properties>  (1) 
{"1": {"label": "donator", "atom_type": "N3s"}, "5": {"label": "d_hydrogen", "atom_type": "H0"}}

>  <type>  (1) 
r1h

$$$$

     RDKit          3D

  8  7  0  0  0  0  0  0  0  0999 V2000
    1.7077   -0.1964   -0.0607 C   0  0  0  0  0  3  0  0  0  0  0  0
    0.4209   -0.4565    0.2808 O   0  0  0  0  0  0  0  0  0  0  0  0
   -0.4607    0.4385   -0.2968 N   0  0  0  0  0  0  0  0  0  0  0  0
   -1.6584    0.1416   -0.0244 C   0  0  0  0  0  0  0  0  0  0  0  0
    2.4163   -0.7685    0.5170 H   0  0  0  0  0  0  0  0  0  0  0  0
    1.9214    0.7645   -0.5045 H   0  0  0  0  0  0  0  0  0  0  0  0
   -2.4185    0.7953   -0.4307 H   0  0  0  0  0  0  0  0  0  0  0  0
   -1.9286   -0.7185    0.5831 H   0  0  0  0  0  0  0  0  0  0  0  0
  1  2  1  0
  1  5  1  0
  1  6  1  0
  2  3  1  0
  3  4  2  3
  4  7  1  0
  4  8  1  0
M  RAD  1   1   2
M  END
>  <reaction>  (2) 
rmg_rxn_15729

>  <mol_properties>  (2) 
{"0": {"label": "acceptor", "atom_type": "Cs"}}

>  <type>  (2) 
r2

$$$$

     RDKit          3D

  9  8  0  0  0  0  0  0  0  0999 V2000
   -1.5470   -0.0755   -0.1976 C   0  0  0  0  0  0  0  0  0  0  0  0
   -0.2885    0.4507    0.1749 O   0  0  0  0  0  0  0  0  0  0  0  0
   -0.1502    1.7216   -0.3294 N   0  0  0  0  0  0  0  0  0  0  0  0
    0.9626    2.2353   -0.0219 C   0  0  0  0  0  0  0  0  0  0  0  0
   -1.6392   -0.1356   -1.2844 H   0  0  0  0  0  0  0  0  0  0  0  0
   -2.3597    0.5337    0.2044 H   0  0  0  0  0  0  0  0  0  0  0  0
   -1.5879   -1.0750    0.2318 H   0  0  0  0  0  0  0  0  0  0  0  0
    1.1497    3.2381   -0.3820 H   0  0  0  0  0  0  0  0  0  0  0  0
    1.7060    1.7101    0.5739 H   0  0  0  0  0  0  0  0  0  0  0  0
  1  2  1  0
  1  5  1  0
  1  6  1  0
  1  7  1  0
  2  3  1  0
  3  4  2  3
  4  8  1  0
  4  9  1  0
M  END
>  <reaction>  (3) 
rmg_rxn_15729

>  <mol_properties>  (3) 
{"0": {"label": "acceptor", "atom_type": "Cs"}, "8": {"label": "a_hydrogen", "atom_type": "H0"}}

>  <type>  (3) 
r2h

$$$$

     RDKit          3D

 17 15  0  0  0  0  0  0  0  0999 V2000
    0.0228   -1.6634    0.6355 C   0  0  0  0  0  3  0  0  0  0  0  0
    1.1176   -1.1684   -0.0320 O   0  0  0  0  0  0  0  0  0  0  0  0
    1.9288   -0.4333    0.8137 N   0  0  0  0  0  0  0  0  0  0  0  0
    2.8746    0.1143    0.1805 C   0  0  0  0  0  0  0  0  0  0  0  0
   -0.4541   -2.4222    0.0218 H   0  0  0  0  0  0  0  0  0  0  0  0
    0.2209   -1.9287    1.6727 H   0  0  0  0  0  0  0  0  0  0  0  0
    3.5692    0.7010    0.7668 H   0  0  0  0  0  0  0  0  0  0  0  0
    2.9974    0.0132   -0.8948 H   0  0  0  0  0  0  0  0  0  0  0  0
   -2.5237   -0.0862   -0.5360 O   0  0  0  0  0  0  0  0  0  0  0  0
   -1.7316    0.2715    0.5597 N   0  0  0  0  0  0  0  0  0  0  0  0
   -0.9614    1.3844    0.2636 C   0  0  0  0  0  0  0  0  0  0  0  0
   -1.0857    2.2065   -0.7780 C   0  0  0  0  0  0  0  0  0  0  0  0
   -3.3308   -0.4096   -0.1303 H   0  0  0  0  0  0  0  0  0  0  0  0
   -0.9624   -0.6466    0.7177 H   0  0  0  0  0  0  0  0  0  0  0  0
   -0.2152    1.5531    1.0331 H   0  0  0  0  0  0  0  0  0  0  0  0
   -1.8249    2.0393   -1.5475 H   0  0  0  0  0  0  0  0  0  0  0  0
   -0.4517    3.0786   -0.8486 H   0  0  0  0  0  0  0  0  0  0  0  0
  1  2  1  0
  1  5  1  0
  1  6  1  0
  2  3  1  0
  3  4  2  3
  4  7  1  0
  4  8  1  0
  9 10  1  0
  9 13  1  0
 10 11  1  0
 10 14  1  0
 11 12  2  3
 11 15  1  0
 12 16  1  0
 12 17  1  0
M  RAD  1   1   2
M  END
>  <reaction>  (4) 
rmg_rxn_15729

>  <mol_properties>  (4) 
{"0": {"label": "*3", "atom_type": "Cs"}, "1": {"label": "*4", "atom_type": "O2s"}, "9": {"label": "*1", "atom_type": "N3s"}, "10": {"label": "*0", "atom_type": "Cd"}, "13": {"label": "*2", "atom_type": "H0"}}

>  <type>  (4) 
ts

$$$$

     RDKit          3D

 17 15  0  0  0  0  0  0  0  0999 V2000
    1.2092   -1.3717    0.2341 C   0  0  0  0  0  0  0  0  0  0  0  0
    1.9290   -0.2670    0.6981 O   0  0  0  0  0  0  0  0  0  0  0  0
    2.0382    0.8555   -0.0406 N   0  0  0  0  0  0  0  0  0  0  0  0
    1.3898    1.0403   -1.1051 C   0  0  0  0  0  0  0  0  0  0  0  0
    1.4401   -1.6294   -0.8019 H   0  0  0  0  0  0  0  0  0  0  0  0
    1.4315   -2.1850    0.9180 H   0  0  0  0  0  0  0  0  0  0  0  0
    1.5721    1.9757   -1.6046 H   0  0  0  0  0  0  0  0  0  0  0  0
    0.6612    0.3679   -1.5509 H   0  0  0  0  0  0  0  0  0  0  0  0
   -1.6598   -0.8499   -1.0796 O   0  0  0  0  0  0  0  0  0  0  0  0
   -1.2930   -0.8274    0.2774 N   0  0  0  0  0  0  0  0  0  0  0  0
   -1.4944    0.3656    0.8840 C   0  0  0  0  0  0  0  0  0  0  0  0
   -2.1063    1.4445    0.3674 C   0  0  0  0  0  3  0  0  0  0  0  0
   -1.8718   -1.7745   -1.2666 H   0  0  0  0  0  0  0  0  0  0  0  0
   -0.0450   -1.1504    0.3150 H   0  0  0  0  0  0  0  0  0  0  0  0
   -1.1273    0.3507    1.9018 H   0  0  0  0  0  0  0  0  0  0  0  0
   -2.4661    1.4461   -0.6462 H   0  0  0  0  0  0  0  0  0  0  0  0
   -2.2860    2.3171    0.9662 H   0  0  0  0  0  0  0  0  0  0  0  0
  1  2  1  0
  1  5  1  0
  1  6  1  0
  1 14  1  0
  2  3  1  0
  3  4  2  3
  4  7  1  0
  4  8  1  0
  9 10  1  0
  9 13  1  0
 10 11  2  3
 11 12  1  0
 11 15  1  0
 12 16  1  0
 12 17  1  0
M  RAD  1  12   2
M  END
>  <reaction>  (5) 
rmg_rxn_15729

>  <mol_properties>  (5) 
{"0": {"label": "*3", "atom_type": "Cs"}, "1": {"label": "*4", "atom_type": "O2s"}, "9": {"label": "*1", "atom_type": "N3s"}, "10": {"label": "*0", "atom_type": "Cd"}, "13": {"label": "*2", "atom_type": "H0"}}

>  <type>  (5) 
unop_1

>  <geom_source>  (5) 
crest_best.xyz

$$$$

     RDKit          3D

 17 15  0  0  0  0  0  0  0  0999 V2000
    0.5112   -1.3700   -0.1192 C   0  0  0  0  0  3  0  0  0  0  0  0
    1.3185   -0.4951    0.6439 O   0  0  0  0  0  0  0  0  0  0  0  0
    1.8653   -1.1764    1.7048 N   0  0  0  0  0  0  0  0  0  0  0  0
    2.5974   -0.4339    2.4186 C   0  0  0  0  0  0  0  0  0  0  0  0
    1.1021   -2.1960   -0.5214 H   0  0  0  0  0  0  0  0  0  0  0  0
   -0.3101   -1.7675    0.4814 H   0  0  0  0  0  0  0  0  0  0  0  0
    3.0665   -0.8963    3.2767 H   0  0  0  0  0  0  0  0  0  0  0  0
    2.7586    0.6187    2.1960 H   0  0  0  0  0  0  0  0  0  0  0  0
   -1.4709   -0.0006   -2.2609 O   0  0  0  0  0  0  0  0  0  0  0  0
   -1.4709   -0.0006   -0.8583 N   0  0  0  0  0  0  0  0  0  0  0  0
   -1.4709    1.2785   -0.3006 C   0  0  0  0  0  0  0  0  0  0  0  0
   -1.7876    2.4147   -0.9065 C   0  0  0  0  0  0  0  0  0  0  0  0
   -2.3118   -0.4018   -2.4913 H   0  0  0  0  0  0  0  0  0  0  0  0
   -0.5163   -0.6601   -0.5024 H   0  0  0  0  0  0  0  0  0  0  0  0
   -1.2308    1.2462    0.7573 H   0  0  0  0  0  0  0  0  0  0  0  0
   -2.0204    2.4505   -1.9608 H   0  0  0  0  0  0  0  0  0  0  0  0
   -1.8121    3.3332   -0.3392 H   0  0  0  0  0  0  0  0  0  0  0  0
  1  2  1  0
  1  5  1  0
  1  6  1  0
  2  3  1  0
  3  4  2  3
  4  7  1  0
  4  8  1  0
  9 10  1  0
  9 13  1  0
 10 11  1  0
 10 14  1  0
 11 12  2  3
 11 15  1  0
 12 16  1  0
 12 17  1  0
M  RAD  1   1   2
M  END
>  <reaction>  (6) 
rmg_rxn_15729

>  <mol_properties>  (6) 
{"0": {"label": "*3", "atom_type": "Cs"}, "1": {"label": "*4", "atom_type": "O2s"}, "9": {"label": "*1", "atom_type": "N3s"}, "10": {"label": "*0", "atom_type": "Cd"}, "13": {"label": "*2", "atom_type": "H0"}}

>  <type>  (6) 
unop_2

>  <geom_source>  (6) 
Heuristics

$$$$

     RDKit          3D

 17 15  0  0  0  0  0  0  0  0999 V2000
    0.8438    0.5247   -1.3672 C   0  0  0  0  0  0  0  0  0  0  0  0
    1.6625   -0.4053   -0.7161 O   0  0  0  0  0  0  0  0  0  0  0  0
    2.0286   -0.2332    0.5687 N   0  0  0  0  0  0  0  0  0  0  0  0
    1.5660    0.6856    1.2966 C   0  0  0  0  0  0  0  0  0  0  0  0
    1.1559    1.5585   -1.2043 H   0  0  0  0  0  0  0  0  0  0  0  0
    0.8605    0.2547   -2.4184 H   0  0  0  0  0  0  0  0  0  0  0  0
    1.9465    0.7184    2.3026 H   0  0  0  0  0  0  0  0  0  0  0  0
    0.8199    1.4263    1.0191 H   0  0  0  0  0  0  0  0  0  0  0  0
   -1.8054    1.4917    0.2238 O   0  0  0  0  0  0  0  0  0  0  0  0
   -1.5166    0.2709   -0.4060 N   0  0  0  0  0  0  0  0  0  0  0  0
   -1.5330   -0.7668    0.4616 C   0  0  0  0  0  0  0  0  0  0  0  0
   -1.1509   -2.0049    0.1042 C   0  0  0  0  0  3  0  0  0  0  0  0
   -2.1474    2.0683   -0.4735 H   0  0  0  0  0  0  0  0  0  0  0  0
   -0.3579    0.3920   -0.9651 H   0  0  0  0  0  0  0  0  0  0  0  0
   -1.8816   -0.5516    1.4664 H   0  0  0  0  0  0  0  0  0  0  0  0
   -0.7557   -2.2085   -0.8743 H   0  0  0  0  0  0  0  0  0  0  0  0
   -1.2197   -2.8209    0.7975 H   0  0  0  0  0  0  0  0  0  0  0  0
  1  2  1  0
  1  5  1  0
  1  6  1  0
  1 14  1  0
  2  3  1  0
  3  4  2  3
  4  7  1  0
  4  8  1  0
  9 10  1  0
  9 13  1  0
 10 11  2  3
 11 12  1  0
 11 15  1  0
 12 16  1  0
 12 17  1  0
M  RAD  1  12   2
M  END
>  <reaction>  (7) 
rmg_rxn_15729

>  <mol_properties>  (7) 
{"0": {"label": "*3", "atom_type": "Cs"}, "1": {"label": "*4", "atom_type": "O2s"}, "9": {"label": "*1", "atom_type": "N3s"}, "10": {"label": "*0", "atom_type": "Cd"}, "13": {"label": "*2", "atom_type": "H0"}}

>  <type>  (7) 
unop_3

>  <geom_source>  (7) 
Heuristics

$$$$

     RDKit          3D

 17 15  0  0  0  0  0  0  0  0999 V2000
   -0.8521   -0.3372   -1.4182 C   0  0  0  0  0  0  0  0  0  0  0  0
   -1.6381    0.5289   -0.6494 O   0  0  0  0  0  0  0  0  0  0  0  0
   -2.0156    0.2022    0.6017 N   0  0  0  0  0  0  0  0  0  0  0  0
   -1.5901   -0.8211    1.2016 C   0  0  0  0  0  0  0  0  0  0  0  0
   -1.2036   -1.3708   -1.3937 H   0  0  0  0  0  0  0  0  0  0  0  0
   -0.8536    0.0701   -2.4244 H   0  0  0  0  0  0  0  0  0  0  0  0
   -1.9763   -0.9730    2.1944 H   0  0  0  0  0  0  0  0  0  0  0  0
   -0.8694   -1.5448    0.8288 H   0  0  0  0  0  0  0  0  0  0  0  0
    1.7281   -1.5493    0.1286 O   0  0  0  0  0  0  0  0  0  0  0  0
    1.5055   -0.2765   -0.4202 N   0  0  0  0  0  0  0  0  0  0  0  0
    1.5513    0.6984    0.5162 C   0  0  0  0  0  0  0  0  0  0  0  0
    1.2339    1.9740    0.2359 C   0  0  0  0  0  3  0  0  0  0  0  0
    2.0599   -2.0914   -0.6005 H   0  0  0  0  0  0  0  0  0  0  0  0
    0.3513   -0.3027   -1.0013 H   0  0  0  0  0  0  0  0  0  0  0  0
    1.8680    0.4004    1.5103 H   0  0  0  0  0  0  0  0  0  0  0  0
    0.8704    2.2601   -0.7342 H   0  0  0  0  0  0  0  0  0  0  0  0
    1.3252    2.7385    0.9832 H   0  0  0  0  0  0  0  0  0  0  0  0
  1  2  1  0
  1  5  1  0
  1  6  1  0
  1 14  1  0
  2  3  1  0
  3  4  2  3
  4  7  1  0
  4  8  1  0
  9 10  1  0
  9 13  1  0
 10 11  2  3
 11 12  1  0
 11 15  1  0
 12 16  1  0
 12 17  1  0
M  RAD  1  12   2
M  END
>  <reaction>  (8) 
rmg_rxn_15729

>  <mol_properties>  (8) 
{"0": {"label": "*3", "atom_type": "Cs"}, "1": {"label": "*4", "atom_type": "O2s"}, "9": {"label": "*1", "atom_type": "N3s"}, "10": {"label": "*0", "atom_type": "Cd"}, "13": {"label": "*2", "atom_type": "H0"}}

>  <type>  (8) 
unop_4

>  <geom_source>  (8) 
Heuristics

$$$$

     RDKit          3D

 17 15  0  0  0  0  0  0  0  0999 V2000
    0.2583   -1.1066    0.8797 C   0  0  0  0  0  3  0  0  0  0  0  0
    1.2312   -0.9516   -0.1347 O   0  0  0  0  0  0  0  0  0  0  0  0
    2.4674   -1.3042    0.3513 N   0  0  0  0  0  0  0  0  0  0  0  0
    3.3727   -1.1819   -0.5217 C   0  0  0  0  0  0  0  0  0  0  0  0
    0.2026   -2.1457    1.2121 H   0  0  0  0  0  0  0  0  0  0  0  0
    0.4780   -0.4616    1.7335 H   0  0  0  0  0  0  0  0  0  0  0  0
    4.3780   -1.4405   -0.2172 H   0  0  0  0  0  0  0  0  0  0  0  0
    3.1691   -0.8355   -1.5327 H   0  0  0  0  0  0  0  0  0  0  0  0
   -1.7238    0.2628   -1.2620 O   0  0  0  0  0  0  0  0  0  0  0  0
   -1.7238    0.2628    0.1406 N   0  0  0  0  0  0  0  0  0  0  0  0
   -1.7238    1.5420    0.6983 C   0  0  0  0  0  0  0  0  0  0  0  0
   -2.0405    2.6781    0.0925 C   0  0  0  0  0  0  0  0  0  0  0  0
   -2.5646   -0.1384   -1.4923 H   0  0  0  0  0  0  0  0  0  0  0  0
   -0.7692   -0.3967    0.4966 H   0  0  0  0  0  0  0  0  0  0  0  0
   -1.4836    1.5096    1.7563 H   0  0  0  0  0  0  0  0  0  0  0  0
   -2.2733    2.7139   -0.9619 H   0  0  0  0  0  0  0  0  0  0  0  0
   -2.0649    3.5967    0.6597 H   0  0  0  0  0  0  0  0  0  0  0  0
  1  2  1  0
  1  5  1  0
  1  6  1  0
  2  3  1  0
  3  4  2  3
  4  7  1  0
  4  8  1  0
  9 10  1  0
  9 13  1  0
 10 11  1  0
 10 14  1  0
 11 12  2  3
 11 15  1  0
 12 16  1  0
 12 17  1  0
M  RAD  1   1   2
M  END
>  <reaction>  (9) 
rmg_rxn_15729

>  <mol_properties>  (9) 
{"0": {"label": "*3", "atom_type": "Cs"}, "1": {"label": "*4", "atom_type": "O2s"}, "9": {"label": "*1", "atom_type": "N3s"}, "10": {"label": "*0", "atom_type": "Cd"}, "13": {"label": "*2", "atom_type": "H0"}}

>  <type>  (9) 
unop_5

>  <geom_source>  (9) 
Heuristics

$$$$

     RDKit          3D

 17 15  0  0  0  0  0  0  0  0999 V2000
    1.2113   -1.3713    0.2431 C   0  0  0  0  0  0  0  0  0  0  0  0
    1.9223   -0.2592    0.7034 O   0  0  0  0  0  0  0  0  0  0  0  0
    2.0296    0.8587   -0.0424 N   0  0  0  0  0  0  0  0  0  0  0  0
    1.3875    1.0317   -1.1128 C   0  0  0  0  0  0  0  0  0  0  0  0
    1.4512   -1.6363   -0.7890 H   0  0  0  0  0  0  0  0  0  0  0  0
    1.4324   -2.1778    0.9352 H   0  0  0  0  0  0  0  0  0  0  0  0
    1.5675    1.9647   -1.6176 H   0  0  0  0  0  0  0  0  0  0  0  0
    0.6660    0.3518   -1.5588 H   0  0  0  0  0  0  0  0  0  0  0  0
   -1.6517   -0.8411   -1.0883 O   0  0  0  0  0  0  0  0  0  0  0  0
   -1.2920   -0.8307    0.2708 N   0  0  0  0  0  0  0  0  0  0  0  0
   -1.4944    0.3574    0.8866 C   0  0  0  0  0  0  0  0  0  0  0  0
   -2.1015    1.4421    0.3764 C   0  0  0  0  0  3  0  0  0  0  0  0
   -1.8636   -1.7639   -1.2844 H   0  0  0  0  0  0  0  0  0  0  0  0
   -0.0443   -1.1545    0.3136 H   0  0  0  0  0  0  0  0  0  0  0  0
   -1.1331    0.3326    1.9063 H   0  0  0  0  0  0  0  0  0  0  0  0
   -2.4565    1.4532   -0.6387 H   0  0  0  0  0  0  0  0  0  0  0  0
   -2.2829    2.3095    0.9822 H   0  0  0  0  0  0  0  0  0  0  0  0
  1  2  1  0
  1  5  1  0
  1  6  1  0
  1 14  1  0
  2  3  1  0
  3  4  2  3
  4  7  1  0
  4  8  1  0
  9 10  1  0
  9 13  1  0
 10 11  2  3
 11 12  1  0
 11 15  1  0
 12 16  1  0
 12 17  1  0
M  RAD  1  12   2
M  END
>  <reaction>  (10) 
rmg_rxn_15729

>  <mol_properties>  (10) 
{"0": {"label": "*3", "atom_type": "Cs"}, "1": {"label": "*4", "atom_type": "O2s"}, "9": {"label": "*1", "atom_type": "N3s"}, "10": {"label": "*0", "atom_type": "Cd"}, "13": {"label": "*2", "atom_type": "H0"}}

>  <type>  (10) 
unop_6

>  <geom_source>  (10) 
Heuristics

$$$$

     RDKit          3D

 17 15  0  0  0  0  0  0  0  0999 V2000
    0.6816   -1.1426   -0.2687 C   0  0  0  0  0  3  0  0  0  0  0  0
    1.0855   -0.5945    0.9707 O   0  0  0  0  0  0  0  0  0  0  0  0
    1.7258   -1.5557    1.7155 N   0  0  0  0  0  0  0  0  0  0  0  0
    2.1068   -1.1120    2.8356 C   0  0  0  0  0  0  0  0  0  0  0  0
    1.5441   -1.4898   -0.8420 H   0  0  0  0  0  0  0  0  0  0  0  0
   -0.0158   -1.9703   -0.1211 H   0  0  0  0  0  0  0  0  0  0  0  0
    2.6210   -1.8089    3.4838 H   0  0  0  0  0  0  0  0  0  0  0  0
    1.9347   -0.0843    3.1483 H   0  0  0  0  0  0  0  0  0  0  0  0
   -1.3005    0.2268   -2.4104 O   0  0  0  0  0  0  0  0  0  0  0  0
   -1.3005    0.2268   -1.0078 N   0  0  0  0  0  0  0  0  0  0  0  0
   -1.3005    1.5060   -0.4501 C   0  0  0  0  0  0  0  0  0  0  0  0
   -1.6172    2.6421   -1.0560 C   0  0  0  0  0  0  0  0  0  0  0  0
   -2.1414   -0.1743   -2.6408 H   0  0  0  0  0  0  0  0  0  0  0  0
   -0.3459   -0.4327   -0.6518 H   0  0  0  0  0  0  0  0  0  0  0  0
   -1.0604    1.4737    0.6078 H   0  0  0  0  0  0  0  0  0  0  0  0
   -1.8500    2.6780   -2.1103 H   0  0  0  0  0  0  0  0  0  0  0  0
   -1.6417    3.5607   -0.4887 H   0  0  0  0  0  0  0  0  0  0  0  0
  1  2  1  0
  1  5  1  0
  1  6  1  0
  2  3  1  0
  3  4  2  3
  4  7  1  0
  4  8  1  0
  9 10  1  0
  9 13  1  0
 10 11  1  0
 10 14  1  0
 11 12  2  3
 11 15  1  0
 12 16  1  0
 12 17  1  0
M  RAD  1   1   2
M  END
>  <reaction>  (11) 
rmg_rxn_15729

>  <mol_properties>  (11) 
{"0": {"label": "*3", "atom_type": "Cs"}, "1": {"label": "*4", "atom_type": "O2s"}, "9": {"label": "*1", "atom_type": "N3s"}, "10": {"label": "*0", "atom_type": "Cd"}, "13": {"label": "*2", "atom_type": "H0"}}

>  <type>  (11) 
unop_7

>  <geom_source>  (11) 
Heuristics

$$$$

     RDKit          3D

 17 15  0  0  0  0  0  0  0  0999 V2000
    0.9994   -0.2628    0.5613 C   0  0  0  0  0  3  0  0  0  0  0  0
    0.7952   -1.5544    0.0231 O   0  0  0  0  0  0  0  0  0  0  0  0
    1.3340   -2.4975    0.8652 N   0  0  0  0  0  0  0  0  0  0  0  0
    1.1758   -3.6715    0.4254 C   0  0  0  0  0  0  0  0  0  0  0  0
    0.5097   -0.1623    1.5325 H   0  0  0  0  0  0  0  0  0  0  0  0
    2.0652   -0.0472    0.6660 H   0  0  0  0  0  0  0  0  0  0  0  0
    1.5732   -4.4742    1.0321 H   0  0  0  0  0  0  0  0  0  0  0  0
    0.6684   -3.8824   -0.5136 H   0  0  0  0  0  0  0  0  0  0  0  0
   -0.9827    1.1066   -1.5804 O   0  0  0  0  0  0  0  0  0  0  0  0
   -0.9827    1.1066   -0.1778 N   0  0  0  0  0  0  0  0  0  0  0  0
   -0.9827    2.3857    0.3799 C   0  0  0  0  0  0  0  0  0  0  0  0
   -1.2994    3.5219   -0.2259 C   0  0  0  0  0  0  0  0  0  0  0  0
   -1.8235    0.7054   -1.8108 H   0  0  0  0  0  0  0  0  0  0  0  0
   -0.0281    0.4471    0.1782 H   0  0  0  0  0  0  0  0  0  0  0  0
   -0.7425    2.3534    1.4378 H   0  0  0  0  0  0  0  0  0  0  0  0
   -1.5322    3.5577   -1.2803 H   0  0  0  0  0  0  0  0  0  0  0  0
   -1.3238    4.4405    0.3413 H   0  0  0  0  0  0  0  0  0  0  0  0
  1  2  1  0
  1  5  1  0
  1  6  1  0
  2  3  1  0
  3  4  2  3
  4  7  1  0
  4  8  1  0
  9 10  1  0
  9 13  1  0
 10 11  1  0
 10 14  1  0
 11 12  2  3
 11 15  1  0
 12 16  1  0
 12 17  1  0
M  RAD  1   1   2
M  END
>  <reaction>  (12) 
rmg_rxn_15729

>  <mol_properties>  (12) 
{"0": {"label": "*3", "atom_type": "Cs"}, "1": {"label": "*4", "atom_type": "O2s"}, "9": {"label": "*1", "atom_type": "N3s"}, "10": {"label": "*0", "atom_type": "Cd"}, "13": {"label": "*2", "atom_type": "H0"}}

>  <type>  (12) 
unop_8

>  <geom_source>  (12) 
Heuristics

$$$$

     RDKit          3D

 17 15  0  0  0  0  0  0  0  0999 V2000
    1.2100    1.3712    0.2363 C   0  0  0  0  0  0  0  0  0  0  0  0
    1.9280    0.2649    0.6994 O   0  0  0  0  0  0  0  0  0  0  0  0
    2.0364   -0.8567   -0.0406 N   0  0  0  0  0  0  0  0  0  0  0  0
    1.3888   -1.0391   -1.1061 C   0  0  0  0  0  0  0  0  0  0  0  0
    1.4322    2.1831    0.9218 H   0  0  0  0  0  0  0  0  0  0  0  0
    1.4426    1.6305   -0.7988 H   0  0  0  0  0  0  0  0  0  0  0  0
    1.5705   -1.9740   -1.6068 H   0  0  0  0  0  0  0  0  0  0  0  0
    0.6615   -0.3651   -1.5518 H   0  0  0  0  0  0  0  0  0  0  0  0
   -1.6560    0.8472   -1.0828 O   0  0  0  0  0  0  0  0  0  0  0  0
   -1.2928    0.8287    0.2753 N   0  0  0  0  0  0  0  0  0  0  0  0
   -1.4963   -0.3624    0.8850 C   0  0  0  0  0  0  0  0  0  0  0  0
   -2.1064   -1.4430    0.3697 C   0  0  0  0  0  3  0  0  0  0  0  0
   -1.8653    1.7717   -1.2736 H   0  0  0  0  0  0  0  0  0  0  0  0
   -0.0445    1.1510    0.3151 H   0  0  0  0  0  0  0  0  0  0  0  0
   -1.1333   -0.3440    1.9042 H   0  0  0  0  0  0  0  0  0  0  0  0
   -2.4631   -1.4476   -0.6448 H   0  0  0  0  0  0  0  0  0  0  0  0
   -2.2889   -2.3135    0.9708 H   0  0  0  0  0  0  0  0  0  0  0  0
  1  2  1  0
  1  5  1  0
  1  6  1  0
  1 14  1  0
  2  3  1  0
  3  4  2  3
  4  7  1  0
  4  8  1  0
  9 10  1  0
  9 13  1  0
 10 11  2  3
 11 12  1  0
 11 15  1  0
 12 16  1  0
 12 17  1  0
M  RAD  1  12   2
M  END
>  <reaction>  (13) 
rmg_rxn_15729

>  <mol_properties>  (13) 
{"0": {"label": "*3", "atom_type": "Cs"}, "1": {"label": "*4", "atom_type": "O2s"}, "9": {"label": "*1", "atom_type": "N3s"}, "10": {"label": "*0", "atom_type": "Cd"}, "13": {"label": "*2", "atom_type": "H0"}}

>  <type>  (13) 
unop_9

>  <geom_source>  (13) 
Heuristics

$$$$

     RDKit          3D

 17 15  0  0  0  0  0  0  0  0999 V2000
    0.7843   -0.9464   -0.2892 C   0  0  0  0  0  3  0  0  0  0  0  0
    0.7574   -0.9278    1.1245 O   0  0  0  0  0  0  0  0  0  0  0  0
    1.8129   -1.6570    1.6175 N   0  0  0  0  0  0  0  0  0  0  0  0
    1.8314   -1.6698    2.8809 C   0  0  0  0  0  0  0  0  0  0  0  0
    1.7057   -0.4986   -0.6683 H   0  0  0  0  0  0  0  0  0  0  0  0
    0.6915   -1.9666   -0.6683 H   0  0  0  0  0  0  0  0  0  0  0  0
    2.6341   -2.2243    3.3484 H   0  0  0  0  0  0  0  0  0  0  0  0
    1.0861   -1.1549    3.4833 H   0  0  0  0  0  0  0  0  0  0  0  0
   -1.1978    0.4231   -2.4309 O   0  0  0  0  0  0  0  0  0  0  0  0
   -1.1978    0.4231   -1.0283 N   0  0  0  0  0  0  0  0  0  0  0  0
   -1.1978    1.7022   -0.4706 C   0  0  0  0  0  0  0  0  0  0  0  0
   -1.5145    2.8384   -1.0764 C   0  0  0  0  0  0  0  0  0  0  0  0
   -2.0386    0.0219   -2.6613 H   0  0  0  0  0  0  0  0  0  0  0  0
   -0.2432   -0.2365   -0.6723 H   0  0  0  0  0  0  0  0  0  0  0  0
   -0.9576    1.6699    0.5873 H   0  0  0  0  0  0  0  0  0  0  0  0
   -1.7473    2.8742   -2.1308 H   0  0  0  0  0  0  0  0  0  0  0  0
   -1.5389    3.7569   -0.5092 H   0  0  0  0  0  0  0  0  0  0  0  0
  1  2  1  0
  1  5  1  0
  1  6  1  0
  2  3  1  0
  3  4  2  3
  4  7  1  0
  4  8  1  0
  9 10  1  0
  9 13  1  0
 10 11  1  0
 10 14  1  0
 11 12  2  3
 11 15  1  0
 12 16  1  0
 12 17  1  0
M  RAD  1   1   2
M  END
>  <reaction>  (14) 
rmg_rxn_15729

>  <mol_properties>  (14) 
{"0": {"label": "*3", "atom_type": "Cs"}, "1": {"label": "*4", "atom_type": "O2s"}, "9": {"label": "*1", "atom_type": "N3s"}, "10": {"label": "*0", "atom_type": "Cd"}, "13": {"label": "*2", "atom_type": "H0"}}

>  <type>  (14) 
unop_10

>  <geom_source>  (14) 
Heuristics

$$$$

     RDKit          3D

 17 15  0  0  0  0  0  0  0  0999 V2000
   -0.8521    0.4232    1.3975 C   0  0  0  0  0  0  0  0  0  0  0  0
   -1.6535   -0.4734    0.6814 O   0  0  0  0  0  0  0  0  0  0  0  0
   -2.0202   -0.2187   -0.5894 N   0  0  0  0  0  0  0  0  0  0  0  0
   -1.5713    0.7555   -1.2508 C   0  0  0  0  0  0  0  0  0  0  0  0
   -1.1837    1.4599    1.3082 H   0  0  0  0  0  0  0  0  0  0  0  0
   -0.8629    0.0790    2.4269 H   0  0  0  0  0  0  0  0  0  0  0  0
   -1.9509    0.8520   -2.2531 H   0  0  0  0  0  0  0  0  0  0  0  0
   -0.8370    1.4864   -0.9211 H   0  0  0  0  0  0  0  0  0  0  0  0
    1.7562    1.5269   -0.1710 O   0  0  0  0  0  0  0  0  0  0  0  0
    1.5085    0.2757    0.4154 N   0  0  0  0  0  0  0  0  0  0  0  0
    1.5457   -0.7283   -0.4903 C   0  0  0  0  0  0  0  0  0  0  0  0
    1.2034   -1.9893   -0.1753 C   0  0  0  0  0  3  0  0  0  0  0  0
    2.0909    2.0863    0.5435 H   0  0  0  0  0  0  0  0  0  0  0  0
    0.3514    0.3422    0.9872 H   0  0  0  0  0  0  0  0  0  0  0  0
    1.8771   -0.4662   -1.4897 H   0  0  0  0  0  0  0  0  0  0  0  0
    0.8248   -2.2403    0.7987 H   0  0  0  0  0  0  0  0  0  0  0  0
    1.2892   -2.7770   -0.8988 H   0  0  0  0  0  0  0  0  0  0  0  0
  1  2  1  0
  1  5  1  0
  1  6  1  0
  1 14  1  0
  2  3  1  0
  3  4  2  3
  4  7  1  0
  4  8  1  0
  9 10  1  0
  9 13  1  0
 10 11  2  3
 11 12  1  0
 11 15  1  0
 12 16  1  0
 12 17  1  0
M  RAD  1  12   2
M  END
>  <reaction>  (15) 
rmg_rxn_15729

>  <mol_properties>  (15) 
{"0": {"label": "*3", "atom_type": "Cs"}, "1": {"label": "*4", "atom_type": "O2s"}, "9": {"label": "*1", "atom_type": "N3s"}, "10": {"label": "*0", "atom_type": "Cd"}, "13": {"label": "*2", "atom_type": "H0"}}

>  <type>  (15) 
unop_11

>  <geom_source>  (15) 
Heuristics

$$$$

     RDKit          3D

 17 15  0  0  0  0  0  0  0  0999 V2000
    1.1194   -0.3303    0.1856 C   0  0  0  0  0  3  0  0  0  0  0  0
    0.6473   -1.6585    0.2980 O   0  0  0  0  0  0  0  0  0  0  0  0
    1.2211   -2.2631    1.3907 N   0  0  0  0  0  0  0  0  0  0  0  0
    0.8286   -3.4557    1.5334 C   0  0  0  0  0  0  0  0  0  0  0  0
    0.8538    0.2548    1.0689 H   0  0  0  0  0  0  0  0  0  0  0  0
    2.2028   -0.3112    0.0473 H   0  0  0  0  0  0  0  0  0  0  0  0
    1.2353   -4.0027    2.3734 H   0  0  0  0  0  0  0  0  0  0  0  0
    0.1186   -3.9242    0.8552 H   0  0  0  0  0  0  0  0  0  0  0  0
   -0.8627    1.0391   -1.9561 O   0  0  0  0  0  0  0  0  0  0  0  0
   -0.8627    1.0391   -0.5536 N   0  0  0  0  0  0  0  0  0  0  0  0
   -0.8627    2.3182    0.0041 C   0  0  0  0  0  0  0  0  0  0  0  0
   -1.1794    3.4544   -0.6017 C   0  0  0  0  0  0  0  0  0  0  0  0
   -1.7036    0.6379   -2.1865 H   0  0  0  0  0  0  0  0  0  0  0  0
    0.0919    0.3796   -0.1976 H   0  0  0  0  0  0  0  0  0  0  0  0
   -0.6225    2.2859    1.0621 H   0  0  0  0  0  0  0  0  0  0  0  0
   -1.4122    3.4902   -1.6560 H   0  0  0  0  0  0  0  0  0  0  0  0
   -1.2039    4.3729   -0.0345 H   0  0  0  0  0  0  0  0  0  0  0  0
  1  2  1  0
  1  5  1  0
  1  6  1  0
  2  3  1  0
  3  4  2  3
  4  7  1  0
  4  8  1  0
  9 10  1  0
  9 13  1  0
 10 11  1  0
 10 14  1  0
 11 12  2  3
 11 15  1  0
 12 16  1  0
 12 17  1  0
M  RAD  1   1   2
M  END
>  <reaction>  (16) 
rmg_rxn_15729

>  <mol_properties>  (16) 
{"0": {"label": "*3", "atom_type": "Cs"}, "1": {"label": "*4", "atom_type": "O2s"}, "9": {"label": "*1", "atom_type": "N3s"}, "10": {"label": "*0", "atom_type": "Cd"}, "13": {"label": "*2", "atom_type": "H0"}}

>  <type>  (16) 
unop_12

>  <geom_source>  (16) 
Heuristics

$$$$

     RDKit          3D

 17 15  0  0  0  0  0  0  0  0999 V2000
    0.8474    0.4923    1.3768 C   0  0  0  0  0  0  0  0  0  0  0  0
    1.6597   -0.4294    0.7064 O   0  0  0  0  0  0  0  0  0  0  0  0
    2.0277   -0.2326   -0.5744 N   0  0  0  0  0  0  0  0  0  0  0  0
    1.5714    0.7043   -1.2830 C   0  0  0  0  0  0  0  0  0  0  0  0
    0.8622    0.2006    2.4224 H   0  0  0  0  0  0  0  0  0  0  0  0
    1.1662    1.5272    1.2354 H   0  0  0  0  0  0  0  0  0  0  0  0
    1.9533    0.7563   -2.2876 H   0  0  0  0  0  0  0  0  0  0  0  0
    0.8293    1.4432   -0.9906 H   0  0  0  0  0  0  0  0  0  0  0  0
   -1.7853    1.5067   -0.2075 O   0  0  0  0  0  0  0  0  0  0  0  0
   -1.5137    0.2749    0.4084 N   0  0  0  0  0  0  0  0  0  0  0  0
   -1.5397   -0.7519   -0.4717 C   0  0  0  0  0  0  0  0  0  0  0  0
   -1.1776   -1.9994   -0.1264 C   0  0  0  0  0  3  0  0  0  0  0  0
   -2.1225    2.0791    0.4956 H   0  0  0  0  0  0  0  0  0  0  0  0
   -0.3550    0.3769    0.9720 H   0  0  0  0  0  0  0  0  0  0  0  0
   -1.8789   -0.5198   -1.4759 H   0  0  0  0  0  0  0  0  0  0  0  0
   -0.7923   -2.2199    0.8524 H   0  0  0  0  0  0  0  0  0  0  0  0
   -1.2536   -2.8063   -0.8294 H   0  0  0  0  0  0  0  0  0  0  0  0
  1  2  1  0
  1  5  1  0
  1  6  1  0
  1 14  1  0
  2  3  1  0
  3  4  2  3
  4  7  1  0
  4  8  1  0
  9 10  1  0
  9 13  1  0
 10 11  2  3
 11 12  1  0
 11 15  1  0
 12 16  1  0
 12 17  1  0
M  RAD  1  12   2
M  END
>  <reaction>  (17) 
rmg_rxn_15729

>  <mol_properties>  (17) 
{"0": {"label": "*3", "atom_type": "Cs"}, "1": {"label": "*4", "atom_type": "O2s"}, "9": {"label": "*1", "atom_type": "N3s"}, "10": {"label": "*0", "atom_type": "Cd"}, "13": {"label": "*2", "atom_type": "H0"}}

>  <type>  (17) 
unop_13

>  <geom_source>  (17) 
Heuristics

$$$$

     RDKit          3D

 17 15  0  0  0  0  0  0  0  0999 V2000
    1.0840   -0.5410   -0.1192 C   0  0  0  0  0  3  0  0  0  0  0  0
    0.5513   -1.6057    0.6439 O   0  0  0  0  0  0  0  0  0  0  0  0
    1.3819   -1.8760    1.7049 N   0  0  0  0  0  0  0  0  0  0  0  0
    0.9465   -2.8235    2.4186 C   0  0  0  0  0  0  0  0  0  0  0  0
    1.1652    0.3677    0.4814 H   0  0  0  0  0  0  0  0  0  0  0  0
    2.0655   -0.8015   -0.5214 H   0  0  0  0  0  0  0  0  0  0  0  0
    1.5449   -3.0986    3.2768 H   0  0  0  0  0  0  0  0  0  0  0  0
    0.0190   -3.3467    2.1959 H   0  0  0  0  0  0  0  0  0  0  0  0
   -0.8982    0.8284   -2.2609 O   0  0  0  0  0  0  0  0  0  0  0  0
   -0.8982    0.8284   -0.8583 N   0  0  0  0  0  0  0  0  0  0  0  0
   -0.8982    2.1076   -0.3006 C   0  0  0  0  0  0  0  0  0  0  0  0
   -1.2148    3.2437   -0.9065 C   0  0  0  0  0  0  0  0  0  0  0  0
   -1.7390    0.4272   -2.4913 H   0  0  0  0  0  0  0  0  0  0  0  0
    0.0564    0.1689   -0.5024 H   0  0  0  0  0  0  0  0  0  0  0  0
   -0.6580    2.0752    0.7573 H   0  0  0  0  0  0  0  0  0  0  0  0
   -1.4476    3.2795   -1.9608 H   0  0  0  0  0  0  0  0  0  0  0  0
   -1.2393    4.1623   -0.3392 H   0  0  0  0  0  0  0  0  0  0  0  0
  1  2  1  0
  1  5  1  0
  1  6  1  0
  2  3  1  0
  3  4  2  3
  4  7  1  0
  4  8  1  0
  9 10  1  0
  9 13  1  0
 10 11  1  0
 10 14  1  0
 11 12  2  3
 11 15  1  0
 12 16  1  0
 12 17  1  0
M  RAD  1   1   2
M  END
>  <reaction>  (18) 
rmg_rxn_15729

>  <mol_properties>  (18) 
{"0": {"label": "*3", "atom_type": "Cs"}, "1": {"label": "*4", "atom_type": "O2s"}, "9": {"label": "*1", "atom_type": "N3s"}, "10": {"label": "*0", "atom_type": "Cd"}, "13": {"label": "*2", "atom_type": "H0"}}

>  <type>  (18) 
unop_14

>  <geom_source>  (18) 
Heuristics

$$$$

     RDKit          3D

 17 15  0  0  0  0  0  0  0  0999 V2000
   -0.8467    0.4658    1.3834 C   0  0  0  0  0  0  0  0  0  0  0  0
   -1.6563   -0.4477    0.6987 O   0  0  0  0  0  0  0  0  0  0  0  0
   -2.0318   -0.2280   -0.5761 N   0  0  0  0  0  0  0  0  0  0  0  0
   -1.5843    0.7250   -1.2685 C   0  0  0  0  0  0  0  0  0  0  0  0
   -1.1716    1.5013    1.2623 H   0  0  0  0  0  0  0  0  0  0  0  0
   -0.8568    0.1546    2.4233 H   0  0  0  0  0  0  0  0  0  0  0  0
   -1.9718    0.7948   -2.2700 H   0  0  0  0  0  0  0  0  0  0  0  0
   -0.8446    1.4619   -0.9654 H   0  0  0  0  0  0  0  0  0  0  0  0
    1.7799    1.5147   -0.1947 O   0  0  0  0  0  0  0  0  0  0  0  0
    1.5145    0.2757    0.4093 N   0  0  0  0  0  0  0  0  0  0  0  0
    1.5474   -0.7429   -0.4799 C   0  0  0  0  0  0  0  0  0  0  0  0
    1.1892   -1.9951   -0.1477 C   0  0  0  0  0  3  0  0  0  0  0  0
    2.1144    2.0819    0.5137 H   0  0  0  0  0  0  0  0  0  0  0  0
    0.3553    0.3639    0.9738 H   0  0  0  0  0  0  0  0  0  0  0  0
    1.8895   -0.5003   -1.4807 H   0  0  0  0  0  0  0  0  0  0  0  0
    0.8003   -2.2262    0.8272 H   0  0  0  0  0  0  0  0  0  0  0  0
    1.2718   -2.7952   -0.8577 H   0  0  0  0  0  0  0  0  0  0  0  0
  1  2  1  0
  1  5  1  0
  1  6  1  0
  1 14  1  0
  2  3  1  0
  3  4  2  3
  4  7  1  0
  4  8  1  0
  9 10  1  0
  9 13  1  0
 10 11  2  3
 11 12  1  0
 11 15  1  0
 12 16  1  0
 12 17  1  0
M  RAD  1  12   2
M  END
>  <reaction>  (19) 
rmg_rxn_15729

>  <mol_properties>  (19) 
{"0": {"label": "*3", "atom_type": "Cs"}, "1": {"label": "*4", "atom_type": "O2s"}, "9": {"label": "*1", "atom_type": "N3s"}, "10": {"label": "*0", "atom_type": "Cd"}, "13": {"label": "*2", "atom_type": "H0"}}

>  <type>  (19) 
unop_15

>  <geom_source>  (19) 
Heuristics

$$$$

     RDKit          3D

 17 15  0  0  0  0  0  0  0  0999 V2000
    0.3267   -1.4777    0.1856 C   0  0  0  0  0  3  0  0  0  0  0  0
    1.4019   -0.5662    0.2980 O   0  0  0  0  0  0  0  0  0  0  0  0
    2.1704   -0.8891    1.3907 N   0  0  0  0  0  0  0  0  0  0  0  0
    3.1470   -0.1001    1.5333 C   0  0  0  0  0  0  0  0  0  0  0  0
    0.6921   -2.4978    0.0473 H   0  0  0  0  0  0  0  0  0  0  0  0
   -0.3146   -1.4363    1.0689 H   0  0  0  0  0  0  0  0  0  0  0  0
    3.8026   -0.2869    2.3734 H   0  0  0  0  0  0  0  0  0  0  0  0
    3.3340    0.7299    0.8553 H   0  0  0  0  0  0  0  0  0  0  0  0
   -1.6554   -0.1083   -1.9561 O   0  0  0  0  0  0  0  0  0  0  0  0
   -1.6554   -0.1083   -0.5536 N   0  0  0  0  0  0  0  0  0  0  0  0
   -1.6554    1.1709    0.0041 C   0  0  0  0  0  0  0  0  0  0  0  0
   -1.9721    2.3070   -0.6017 C   0  0  0  0  0  0  0  0  0  0  0  0
   -2.4963   -0.5095   -2.1865 H   0  0  0  0  0  0  0  0  0  0  0  0
   -0.7008   -0.7678   -0.1976 H   0  0  0  0  0  0  0  0  0  0  0  0
   -1.4153    1.1385    1.0621 H   0  0  0  0  0  0  0  0  0  0  0  0
   -2.2049    2.3428   -1.6560 H   0  0  0  0  0  0  0  0  0  0  0  0
   -1.9966    3.2256   -0.0345 H   0  0  0  0  0  0  0  0  0  0  0  0
  1  2  1  0
  1  5  1  0
  1  6  1  0
  2  3  1  0
  3  4  2  3
  4  7  1  0
  4  8  1  0
  9 10  1  0
  9 13  1  0
 10 11  1  0
 10 14  1  0
 11 12  2  3
 11 15  1  0
 12 16  1  0
 12 17  1  0
M  RAD  1   1   2
M  END
>  <reaction>  (20) 
rmg_rxn_15729

>  <mol_properties>  (20) 
{"0": {"label": "*3", "atom_type": "Cs"}, "1": {"label": "*4", "atom_type": "O2s"}, "9": {"label": "*1", "atom_type": "N3s"}, "10": {"label": "*0", "atom_type": "Cd"}, "13": {"label": "*2", "atom_type": "H0"}}

>  <type>  (20) 
unop_16

>  <geom_source>  (20) 
Heuristics

$$$$

     RDKit          3D

 17 15  0  0  0  0  0  0  0  0999 V2000
    1.2092   -1.3717    0.2341 C   0  0  0  0  0  0  0  0  0  0  0  0
    1.9290   -0.2670    0.6981 O   0  0  0  0  0  0  0  0  0  0  0  0
    2.0382    0.8555   -0.0406 N   0  0  0  0  0  0  0  0  0  0  0  0
    1.3898    1.0403   -1.1051 C   0  0  0  0  0  0  0  0  0  0  0  0
    1.4401   -1.6294   -0.8019 H   0  0  0  0  0  0  0  0  0  0  0  0
    1.4315   -2.1850    0.9180 H   0  0  0  0  0  0  0  0  0  0  0  0
    1.5721    1.9757   -1.6046 H   0  0  0  0  0  0  0  0  0  0  0  0
    0.6612    0.3679   -1.5509 H   0  0  0  0  0  0  0  0  0  0  0  0
   -1.6598   -0.8499   -1.0796 O   0  0  0  0  0  0  0  0  0  0  0  0
   -1.2930   -0.8274    0.2774 N   0  0  0  0  0  0  0  0  0  0  0  0
   -1.4944    0.3656    0.8840 C   0  0  0  0  0  0  0  0  0  0  0  0
   -2.1063    1.4445    0.3674 C   0  0  0  0  0  3  0  0  0  0  0  0
   -1.8718   -1.7745   -1.2666 H   0  0  0  0  0  0  0  0  0  0  0  0
   -0.0450   -1.1504    0.3150 H   0  0  0  0  0  0  0  0  0  0  0  0
   -1.1273    0.3507    1.9018 H   0  0  0  0  0  0  0  0  0  0  0  0
   -2.4661    1.4461   -0.6462 H   0  0  0  0  0  0  0  0  0  0  0  0
   -2.2860    2.3171    0.9662 H   0  0  0  0  0  0  0  0  0  0  0  0
  1  2  1  0
  1  5  1  0
  1  6  1  0
  1 14  1  0
  2  3  1  0
  3  4  2  3
  4  7  1  0
  4  8  1  0
  9 10  1  0
  9 13  1  0
 10 11  2  3
 11 12  1  0
 11 15  1  0
 12 16  1  0
 12 17  1  0
M  RAD  1  12   2
M  END
>  <reaction>  (21) 
rmg_rxn_15729

>  <mol_properties>  (21) 
{"0": {"label": "*3", "atom_type": "Cs"}, "1": {"label": "*4", "atom_type": "O2s"}, "9": {"label": "*1", "atom_type": "N3s"}, "10": {"label": "*0", "atom_type": "Cd"}, "13": {"label": "*2", "atom_type": "H0"}}

>  <type>  (21) 
unop_17

>  <geom_source>  (21) 
Heuristics

$$$$

     RDKit          3D

 17 15  0  0  0  0  0  0  0  0999 V2000
    0.7481   -0.3977    0.8797 C   0  0  0  0  0  3  0  0  0  0  0  0
    0.9473   -1.3625   -0.1347 O   0  0  0  0  0  0  0  0  0  0  0  0
    1.7144   -2.3940    0.3513 N   0  0  0  0  0  0  0  0  0  0  0  0
    1.9203   -3.2840   -0.5217 C   0  0  0  0  0  0  0  0  0  0  0  0
    0.2226   -0.8313    1.7335 H   0  0  0  0  0  0  0  0  0  0  0  0
    1.7003    0.0220    1.2121 H   0  0  0  0  0  0  0  0  0  0  0  0
    2.5179   -4.1328   -0.2172 H   0  0  0  0  0  0  0  0  0  0  0  0
    1.5244   -3.2161   -1.5327 H   0  0  0  0  0  0  0  0  0  0  0  0
   -1.2340    0.9717   -1.2620 O   0  0  0  0  0  0  0  0  0  0  0  0
   -1.2340    0.9717    0.1406 N   0  0  0  0  0  0  0  0  0  0  0  0
   -1.2340    2.2509    0.6983 C   0  0  0  0  0  0  0  0  0  0  0  0
   -1.5507    3.3870    0.0925 C   0  0  0  0  0  0  0  0  0  0  0  0
   -2.0748    0.5705   -1.4923 H   0  0  0  0  0  0  0  0  0  0  0  0
   -0.2794    0.3122    0.4966 H   0  0  0  0  0  0  0  0  0  0  0  0
   -0.9938    2.2185    1.7563 H   0  0  0  0  0  0  0  0  0  0  0  0
   -1.7835    3.4228   -0.9619 H   0  0  0  0  0  0  0  0  0  0  0  0
   -1.5751    4.3056    0.6597 H   0  0  0  0  0  0  0  0  0  0  0  0
  1  2  1  0
  1  5  1  0
  1  6  1  0
  2  3  1  0
  3  4  2  3
  4  7  1  0
  4  8  1  0
  9 10  1  0
  9 13  1  0
 10 11  1  0
 10 14  1  0
 11 12  2  3
 11 15  1  0
 12 16  1  0
 12 17  1  0
M  RAD  1   1   2
M  END
>  <reaction>  (22) 
rmg_rxn_15729

>  <mol_properties>  (22) 
{"0": {"label": "*3", "atom_type": "Cs"}, "1": {"label": "*4", "atom_type": "O2s"}, "9": {"label": "*1", "atom_type": "N3s"}, "10": {"label": "*0", "atom_type": "Cd"}, "13": {"label": "*2", "atom_type": "H0"}}

>  <type>  (22) 
unop_18

>  <geom_source>  (22) 
Heuristics

$$$$

     RDKit          3D

 17 15  0  0  0  0  0  0  0  0999 V2000
    0.2211   -1.3894    0.5613 C   0  0  0  0  0  3  0  0  0  0  0  0
    1.3569   -0.7414    0.0231 O   0  0  0  0  0  0  0  0  0  0  0  0
    2.4296   -0.9117    0.8651 N   0  0  0  0  0  0  0  0  0  0  0  0
    3.4718   -0.3484    0.4254 C   0  0  0  0  0  0  0  0  0  0  0  0
    0.3965   -2.4625    0.6660 H   0  0  0  0  0  0  0  0  0  0  0  0
   -0.0462   -0.9669    1.5325 H   0  0  0  0  0  0  0  0  0  0  0  0
    4.3631   -0.4362    1.0321 H   0  0  0  0  0  0  0  0  0  0  0  0
    3.4894    0.2008   -0.5135 H   0  0  0  0  0  0  0  0  0  0  0  0
   -1.7610   -0.0200   -1.5804 O   0  0  0  0  0  0  0  0  0  0  0  0
   -1.7610   -0.0200   -0.1778 N   0  0  0  0  0  0  0  0  0  0  0  0
   -1.7610    1.2592    0.3799 C   0  0  0  0  0  0  0  0  0  0  0  0
   -2.0777    2.3953   -0.2259 C   0  0  0  0  0  0  0  0  0  0  0  0
   -2.6019   -0.4211   -1.8108 H   0  0  0  0  0  0  0  0  0  0  0  0
   -0.8064   -0.6795    0.1782 H   0  0  0  0  0  0  0  0  0  0  0  0
   -1.5209    1.2268    1.4378 H   0  0  0  0  0  0  0  0  0  0  0  0
   -2.3105    2.4312   -1.2803 H   0  0  0  0  0  0  0  0  0  0  0  0
   -2.1022    3.3139    0.3413 H   0  0  0  0  0  0  0  0  0  0  0  0
  1  2  1  0
  1  5  1  0
  1  6  1  0
  2  3  1  0
  3  4  2  3
  4  7  1  0
  4  8  1  0
  9 10  1  0
  9 13  1  0
 10 11  1  0
 10 14  1  0
 11 12  2  3
 11 15  1  0
 12 16  1  0
 12 17  1  0
M  RAD  1   1   2
M  END
>  <reaction>  (23) 
rmg_rxn_15729

>  <mol_properties>  (23) 
{"0": {"label": "*3", "atom_type": "Cs"}, "1": {"label": "*4", "atom_type": "O2s"}, "9": {"label": "*1", "atom_type": "N3s"}, "10": {"label": "*0", "atom_type": "Cd"}, "13": {"label": "*2", "atom_type": "H0"}}

>  <type>  (23) 
unop_19

>  <geom_source>  (23) 
Heuristics

$$$$

     RDKit          3D

 17 15  0  0  0  0  0  0  0  0999 V2000
    0.9315   -0.7809   -0.2687 C   0  0  0  0  0  3  0  0  0  0  0  0
    0.5618   -1.3526    0.9707 O   0  0  0  0  0  0  0  0  0  0  0  0
    1.6873   -1.6114    1.7155 N   0  0  0  0  0  0  0  0  0  0  0  0
    1.4071   -2.1247    2.8356 C   0  0  0  0  0  0  0  0  0  0  0  0
    1.4590    0.1642   -0.1211 H   0  0  0  0  0  0  0  0  0  0  0  0
    1.5614   -1.4647   -0.8420 H   0  0  0  0  0  0  0  0  0  0  0  0
    2.2409   -2.3591    3.4838 H   0  0  0  0  0  0  0  0  0  0  0  0
    0.3850   -2.3274    3.1482 H   0  0  0  0  0  0  0  0  0  0  0  0
   -1.0506    0.5886   -2.4104 O   0  0  0  0  0  0  0  0  0  0  0  0
   -1.0506    0.5886   -1.0078 N   0  0  0  0  0  0  0  0  0  0  0  0
   -1.0506    1.8677   -0.4501 C   0  0  0  0  0  0  0  0  0  0  0  0
   -1.3673    3.0039   -1.0560 C   0  0  0  0  0  0  0  0  0  0  0  0
   -1.8915    0.1874   -2.6408 H   0  0  0  0  0  0  0  0  0  0  0  0
   -0.0960   -0.0709   -0.6519 H   0  0  0  0  0  0  0  0  0  0  0  0
   -0.8105    1.8354    0.6078 H   0  0  0  0  0  0  0  0  0  0  0  0
   -1.6001    3.0397   -2.1103 H   0  0  0  0  0  0  0  0  0  0  0  0
   -1.3918    3.9224   -0.4887 H   0  0  0  0  0  0  0  0  0  0  0  0
  1  2  1  0
  1  5  1  0
  1  6  1  0
  2  3  1  0
  3  4  2  3
  4  7  1  0
  4  8  1  0
  9 10  1  0
  9 13  1  0
 10 11  1  0
 10 14  1  0
 11 12  2  3
 11 15  1  0
 12 16  1  0
 12 17  1  0
M  RAD  1   1   2
M  END
>  <reaction>  (24) 
rmg_rxn_15729

>  <mol_properties>  (24) 
{"0": {"label": "*3", "atom_type": "Cs"}, "1": {"label": "*4", "atom_type": "O2s"}, "9": {"label": "*1", "atom_type": "N3s"}, "10": {"label": "*0", "atom_type": "Cd"}, "13": {"label": "*2", "atom_type": "H0"}}

>  <type>  (24) 
unop_20

>  <geom_source>  (24) 
Heuristics

$$$$

     RDKit          3D

 17 15  0  0  0  0  0  0  0  0999 V2000
    0.4570   -0.7203    1.0074 C   0  0  0  0  0  3  0  0  0  0  0  0
    1.0870   -1.1555   -0.1813 O   0  0  0  0  0  0  0  0  0  0  0  0
    2.1883   -1.9164    0.1300 N   0  0  0  0  0  0  0  0  0  0  0  0
    2.7866   -2.3298   -0.9034 C   0  0  0  0  0  0  0  0  0  0  0  0
    0.1180   -1.5703    1.6037 H   0  0  0  0  0  0  0  0  0  0  0  0
    1.1322   -0.1023    1.6037 H   0  0  0  0  0  0  0  0  0  0  0  0
    3.6669   -2.9379   -0.7434 H   0  0  0  0  0  0  0  0  0  0  0  0
    2.4475   -2.0954   -1.9102 H   0  0  0  0  0  0  0  0  0  0  0  0
   -1.5251    0.6492   -1.1343 O   0  0  0  0  0  0  0  0  0  0  0  0
   -1.5251    0.6492    0.2683 N   0  0  0  0  0  0  0  0  0  0  0  0
   -1.5251    1.9283    0.8260 C   0  0  0  0  0  0  0  0  0  0  0  0
   -1.8418    3.0645    0.2202 C   0  0  0  0  0  0  0  0  0  0  0  0
   -2.3659    0.2480   -1.3646 H   0  0  0  0  0  0  0  0  0  0  0  0
   -0.5705   -0.0103    0.6243 H   0  0  0  0  0  0  0  0  0  0  0  0
   -1.2849    1.8960    1.8840 H   0  0  0  0  0  0  0  0  0  0  0  0
   -2.0746    3.1003   -0.8342 H   0  0  0  0  0  0  0  0  0  0  0  0
   -1.8662    3.9830    0.7874 H   0  0  0  0  0  0  0  0  0  0  0  0
  1  2  1  0
  1  5  1  0
  1  6  1  0
  2  3  1  0
  3  4  2  3
  4  7  1  0
  4  8  1  0
  9 10  1  0
  9 13  1  0
 10 11  1  0
 10 14  1  0
 11 12  2  3
 11 15  1  0
 12 16  1  0
 12 17  1  0
M  RAD  1   1   2
M  END
>  <reaction>  (25) 
rmg_rxn_15729

>  <mol_properties>  (25) 
{"0": {"label": "*3", "atom_type": "Cs"}, "1": {"label": "*4", "atom_type": "O2s"}, "9": {"label": "*1", "atom_type": "N3s"}, "10": {"label": "*0", "atom_type": "Cd"}, "13": {"label": "*2", "atom_type": "H0"}}

>  <type>  (25) 
unop_21

>  <geom_source>  (25) 
Heuristics

$$$$

     RDKit          3D

 17 15  0  0  0  0  0  0  0  0999 V2000
    0.2584   -1.1066    0.8797 C   0  0  0  0  0  3  0  0  0  0  0  0
    1.2312   -0.9516   -0.1347 O   0  0  0  0  0  0  0  0  0  0  0  0
    2.4674   -1.3042    0.3513 N   0  0  0  0  0  0  0  0  0  0  0  0
    3.3727   -1.1819   -0.5217 C   0  0  0  0  0  0  0  0  0  0  0  0
    0.2026   -2.1457    1.2121 H   0  0  0  0  0  0  0  0  0  0  0  0
    0.4780   -0.4616    1.7335 H   0  0  0  0  0  0  0  0  0  0  0  0
    4.3780   -1.4405   -0.2172 H   0  0  0  0  0  0  0  0  0  0  0  0
    3.1691   -0.8355   -1.5327 H   0  0  0  0  0  0  0  0  0  0  0  0
   -1.7238    0.2628   -1.2620 O   0  0  0  0  0  0  0  0  0  0  0  0
   -1.7238    0.2628    0.1406 N   0  0  0  0  0  0  0  0  0  0  0  0
   -1.7238    1.5419    0.6983 C   0  0  0  0  0  0  0  0  0  0  0  0
   -2.0405    2.6781    0.0925 C   0  0  0  0  0  0  0  0  0  0  0  0
   -2.5646   -0.1384   -1.4923 H   0  0  0  0  0  0  0  0  0  0  0  0
   -0.7692   -0.3967    0.4966 H   0  0  0  0  0  0  0  0  0  0  0  0
   -1.4836    1.5096    1.7563 H   0  0  0  0  0  0  0  0  0  0  0  0
   -2.2733    2.7139   -0.9619 H   0  0  0  0  0  0  0  0  0  0  0  0
   -2.0649    3.5967    0.6597 H   0  0  0  0  0  0  0  0  0  0  0  0
  1  2  1  0
  1  5  1  0
  1  6  1  0
  2  3  1  0
  3  4  2  3
  4  7  1  0
  4  8  1  0
  9 10  1  0
  9 13  1  0
 10 11  1  0
 10 14  1  0
 11 12  2  3
 11 15  1  0
 12 16  1  0
 12 17  1  0
M  RAD  1   1   2
M  END
>  <reaction>  (26) 
rmg_rxn_15729

>  <mol_properties>  (26) 
{"0": {"label": "*3", "atom_type": "Cs"}, "1": {"label": "*4", "atom_type": "O2s"}, "9": {"label": "*1", "atom_type": "N3s"}, "10": {"label": "*0", "atom_type": "Cd"}, "13": {"label": "*2", "atom_type": "H0"}}

>  <type>  (26) 
unop_22

>  <geom_source>  (26) 
gaussian_log

$$$$
