
     RDKit          3D

  9  8  0  0  0  0  0  0  0  0999 V2000
   -1.2461    0.5037    0.0950 C   0  0  0  0  0  0  0  0  0  0  0  0
   -0.0155   -0.3334    0.0640 C   0  0  0  0  0  0  0  0  0  0  0  0
    1.0697    0.1457   -0.3733 N   0  0  0  0  0  0  0  0  0  0  0  0
    2.1001   -0.7834   -0.3224 O   0  0  0  0  0  0  0  0  0  0  0  0
   -2.0357    0.0440   -0.5039 H   0  0  0  0  0  0  0  0  0  0  0  0
   -1.6237    0.5897    1.1166 H   0  0  0  0  0  0  0  0  0  0  0  0
   -1.0397    1.4998   -0.2929 H   0  0  0  0  0  0  0  0  0  0  0  0
   -0.0537   -1.3634    0.4205 H   0  0  0  0  0  0  0  0  0  0  0  0
    2.8478   -0.2985   -0.6758 H   0  0  0  0  0  0  0  0  0  0  0  0
  1  2  1  0
  1  5  1  0
  1  6  1  0
  1  7  1  0
  2  3  2  3
  2  8  1  0
  3  4  1  0
  4  9  1  0
M  END
>  <reaction>  (1) 
rmg_rxn_232

>  <mol_properties>  (1) 
{"3": {"label": "donator", "atom_type": "O2s"}, "8": {"label": "d_hydrogen", "atom_type": "H0"}}

>  <type>  (1) 
r1h

$$$$

     RDKit          3D

 17 16  0  0  0  0  0  0  0  0999 V2000
    2.3128   -0.1525    1.1777 C   0  0  0  0  0  3  0  0  0  0  0  0
    1.7469    0.7266    0.1254 C   0  0  0  0  0  0  0  0  0  0  0  0
    1.6374    2.1830    0.5408 C   0  0  0  0  0  0  0  0  0  0  0  0
    2.9245    2.6874    0.7877 O   0  0  0  0  0  0  0  0  0  0  0  0
    2.9227    4.0197    1.2361 C   0  0  0  0  0  0  0  0  0  0  0  0
    4.3491    4.4603    1.4693 C   0  0  0  0  0  0  0  0  0  0  0  0
    2.1393   -1.2196    1.1557 H   0  0  0  0  0  0  0  0  0  0  0  0
    3.0313    0.2400    1.8838 H   0  0  0  0  0  0  0  0  0  0  0  0
    0.7555    0.3746   -0.1764 H   0  0  0  0  0  0  0  0  0  0  0  0
    2.3678    0.6841   -0.7826 H   0  0  0  0  0  0  0  0  0  0  0  0
    1.0170    2.2718    1.4449 H   0  0  0  0  0  0  0  0  0  0  0  0
    1.1499    2.7653   -0.2546 H   0  0  0  0  0  0  0  0  0  0  0  0
    2.4379    4.6655    0.4891 H   0  0  0  0  0  0  0  0  0  0  0  0
    2.3377    4.1015    2.1638 H   0  0  0  0  0  0  0  0  0  0  0  0
    4.9261    4.3920    0.5465 H   0  0  0  0  0  0  0  0  0  0  0  0
    4.3728    5.4939    1.8180 H   0  0  0  0  0  0  0  0  0  0  0  0
    4.8260    3.8299    2.2206 H   0  0  0  0  0  0  0  0  0  0  0  0
  1  2  1  0
  1  7  1  0
  1  8  1  0
  2  3  1  0
  2  9  1  0
  2 10  1  0
  3  4  1  0
  3 11  1  0
  3 12  1  0
  4  5  1  0
  5  6  1  0
  5 13  1  0
  5 14  1  0
  6 15  1  0
  6 16  1  0
  6 17  1  0
M  RAD  1   1   2
M  END
>  <reaction>  (2) 
rmg_rxn_232

>  <mol_properties>  (2) 
{"0": {"label": "acceptor", "atom_type": "Cs"}}

>  <type>  (2) 
r2

$$$$

     RDKit          3D

 18 17  0  0  0  0  0  0  0  0999 V2000
    2.2026   -0.7213   -0.2612 C   0  0  0  0  0  0  0  0  0  0  0  0
    1.5384    0.2638    0.6915 C   0  0  0  0  0  0  0  0  0  0  0  0
    2.2584    1.5946    0.7694 C   0  0  0  0  0  0  0  0  0  0  0  0
    2.2212    2.2185   -0.4893 O   0  0  0  0  0  0  0  0  0  0  0  0
    2.8988    3.4488   -0.5204 C   0  0  0  0  0  0  0  0  0  0  0  0
    2.7981    4.0296   -1.9118 C   0  0  0  0  0  0  0  0  0  0  0  0
    3.2294   -0.9309    0.0486 H   0  0  0  0  0  0  0  0  0  0  0  0
    2.2338   -0.3181   -1.2734 H   0  0  0  0  0  0  0  0  0  0  0  0
    1.6610   -1.6680   -0.2875 H   0  0  0  0  0  0  0  0  0  0  0  0
    1.4990   -0.1566    1.7002 H   0  0  0  0  0  0  0  0  0  0  0  0
    0.5055    0.4455    0.3835 H   0  0  0  0  0  0  0  0  0  0  0  0
    3.3038    1.4410    1.0808 H   0  0  0  0  0  0  0  0  0  0  0  0
    1.7844    2.2410    1.5226 H   0  0  0  0  0  0  0  0  0  0  0  0
    2.4596    4.1376    0.2164 H   0  0  0  0  0  0  0  0  0  0  0  0
    3.9524    3.3035   -0.2397 H   0  0  0  0  0  0  0  0  0  0  0  0
    1.7543    4.1869   -2.1856 H   0  0  0  0  0  0  0  0  0  0  0  0
    3.2472    3.3545   -2.6411 H   0  0  0  0  0  0  0  0  0  0  0  0
    3.3178    4.9878   -1.9600 H   0  0  0  0  0  0  0  0  0  0  0  0
  1  2  1  0
  1  7  1  0
  1  8  1  0
  1  9  1  0
  2  3  1  0
  2 10  1  0
  2 11  1  0
  3  4  1  0
  3 12  1  0
  3 13  1  0
  4  5  1  0
  5  6  1  0
  5 14  1  0
  5 15  1  0
  6 16  1  0
  6 17  1  0
  6 18  1  0
M  END
>  <reaction>  (3) 
rmg_rxn_232

>  <mol_properties>  (3) 
{"0": {"label": "a_hydrogen", "atom_type": "H0"}, "1": {"label": "acceptor", "atom_type": "Cs"}}

>  <type>  (3) 
r2h

$$$$

     RDKit          3D

 26 24  0  0  0  0  0  0  0  0999 V2000
    2.1088   -2.7618   -2.5812 C   0  0  0  0  0  0  0  0  0  0  0  0
    1.4808   -2.8033   -1.2310 C   0  0  0  0  0  0  0  0  0  0  0  0
    1.4189   -1.7541   -0.5209 N   0  0  0  0  0  0  0  0  0  0  0  0
    0.8326   -1.9021    0.6703 O   0  0  0  0  0  0  0  0  0  0  0  0
    2.9513   -3.4555   -2.6361 H   0  0  0  0  0  0  0  0  0  0  0  0
    1.3925   -3.0633   -3.3494 H   0  0  0  0  0  0  0  0  0  0  0  0
    2.4641   -1.7567   -2.8040 H   0  0  0  0  0  0  0  0  0  0  0  0
    1.0748   -3.7437   -0.8571 H   0  0  0  0  0  0  0  0  0  0  0  0
    0.8914   -0.8088    1.1852 H   0  0  0  0  0  0  0  0  0  0  0  0
    1.0086    0.4280    1.6061 C   0  0  0  0  0  3  0  0  0  0  0  0
    0.9764    1.2846    0.3765 C   0  0  0  0  0  0  0  0  0  0  0  0
   -0.3711    1.2872   -0.3168 C   0  0  0  0  0  0  0  0  0  0  0  0
   -1.3341    1.8299    0.5525 O   0  0  0  0  0  0  0  0  0  0  0  0
   -2.6370    1.7978    0.0258 C   0  0  0  0  0  0  0  0  0  0  0  0
   -3.5892    2.3939    1.0363 C   0  0  0  0  0  0  0  0  0  0  0  0
    1.9599    0.4019    2.1335 H   0  0  0  0  0  0  0  0  0  0  0  0
    0.1512    0.5294    2.2681 H   0  0  0  0  0  0  0  0  0  0  0  0
    1.7330    0.9409   -0.3337 H   0  0  0  0  0  0  0  0  0  0  0  0
    1.2380    2.3152    0.6480 H   0  0  0  0  0  0  0  0  0  0  0  0
   -0.6472    0.2613   -0.5974 H   0  0  0  0  0  0  0  0  0  0  0  0
   -0.3179    1.8808   -1.2403 H   0  0  0  0  0  0  0  0  0  0  0  0
   -2.6736    2.3632   -0.9170 H   0  0  0  0  0  0  0  0  0  0  0  0
   -2.9206    0.7611   -0.2063 H   0  0  0  0  0  0  0  0  0  0  0  0
   -3.3152    3.4260    1.2578 H   0  0  0  0  0  0  0  0  0  0  0  0
   -4.6087    2.3813    0.6480 H   0  0  0  0  0  0  0  0  0  0  0  0
   -3.5658    1.8242    1.9660 H   0  0  0  0  0  0  0  0  0  0  0  0
  1  2  1  0
  1  5  1  0
  1  6  1  0
  1  7  1  0
  2  3  2  3
  2  8  1  0
  3  4  1  0
  4  9  1  0
 10 11  1  0
 10 16  1  0
 10 17  1  0
 11 12  1  0
 11 18  1  0
 11 19  1  0
 12 13  1  0
 12 20  1  0
 12 21  1  0
 13 14  1  0
 14 15  1  0
 14 22  1  0
 14 23  1  0
 15 24  1  0
 15 25  1  0
 15 26  1  0
M  RAD  1  10   2
M  END
>  <reaction>  (4) 
rmg_rxn_232

>  <mol_properties>  (4) 
{"2": {"label": "*0", "atom_type": "N3d"}, "3": {"label": "*1", "atom_type": "O2s"}, "8": {"label": "*2", "atom_type": "H0"}, "9": {"label": "*3", "atom_type": "Cs"}, "10": {"label": "*4", "atom_type": "Cs"}}

>  <type>  (4) 
ts

$$$$

     RDKit          3D

 26 24  0  0  0  0  0  0  0  0999 V2000
    0.5984   -1.1856   -4.4414 C   0  0  0  0  0  0  0  0  0  0  0  0
    0.5984   -1.1856   -2.9527 C   0  0  0  0  0  0  0  0  0  0  0  0
    0.5984   -0.0935   -2.3159 N   0  0  0  0  0  0  0  0  0  0  0  0
    0.5984   -0.2982   -0.9427 O   0  0  0  0  0  0  0  0  0  0  0  0
    1.4778   -1.7094   -4.8232 H   0  0  0  0  0  0  0  0  0  0  0  0
   -0.2810   -1.7094   -4.8232 H   0  0  0  0  0  0  0  0  0  0  0  0
    0.5984   -0.1659   -4.8228 H   0  0  0  0  0  0  0  0  0  0  0  0
    0.5984   -2.1331   -2.4126 H   0  0  0  0  0  0  0  0  0  0  0  0
    0.5984    0.7715   -0.5194 H   0  0  0  0  0  0  0  0  0  0  0  0
    0.5984    1.9909   -0.0367 C   0  0  0  0  0  3  0  0  0  0  0  0
   -0.6338    2.2339    0.8246 C   0  0  0  0  0  0  0  0  0  0  0  0
   -1.2793    0.9541    1.3151 C   0  0  0  0  0  0  0  0  0  0  0  0
   -0.3788    0.2675    2.1472 O   0  0  0  0  0  0  0  0  0  0  0  0
   -0.8820   -0.9550    2.6224 C   0  0  0  0  0  0  0  0  0  0  0  0
    0.1605   -1.6069    3.5008 C   0  0  0  0  0  0  0  0  0  0  0  0
    1.0326    2.9326   -0.3756 H   0  0  0  0  0  0  0  0  0  0  0  0
    1.3592    1.4464    0.5226 H   0  0  0  0  0  0  0  0  0  0  0  0
   -1.3839    2.7934    0.2588 H   0  0  0  0  0  0  0  0  0  0  0  0
   -0.3708    2.8447    1.6921 H   0  0  0  0  0  0  0  0  0  0  0  0
   -1.5575    0.3189    0.4591 H   0  0  0  0  0  0  0  0  0  0  0  0
   -2.2029    1.1805    1.8679 H   0  0  0  0  0  0  0  0  0  0  0  0
   -1.8096   -0.7841    3.1888 H   0  0  0  0  0  0  0  0  0  0  0  0
   -1.1359   -1.6101    1.7760 H   0  0  0  0  0  0  0  0  0  0  0  0
    0.4027   -0.9641    4.3478 H   0  0  0  0  0  0  0  0  0  0  0  0
   -0.2091   -2.5598    3.8828 H   0  0  0  0  0  0  0  0  0  0  0  0
    1.0751   -1.7910    2.9360 H   0  0  0  0  0  0  0  0  0  0  0  0
  1  2  1  0
  1  5  1  0
  1  6  1  0
  1  7  1  0
  2  3  2  3
  2  8  1  0
  3  4  1  0
  4  9  1  0
 10 11  1  0
 10 16  1  0
 10 17  1  0
 11 12  1  0
 11 18  1  0
 11 19  1  0
 12 13  1  0
 12 20  1  0
 12 21  1  0
 13 14  1  0
 14 15  1  0
 14 22  1  0
 14 23  1  0
 15 24  1  0
 15 25  1  0
 15 26  1  0
M  RAD  1  10   2
M  END
>  <reaction>  (5) 
rmg_rxn_232

>  <mol_properties>  (5) 
{"2": {"label": "*0", "atom_type": "N3d"}, "3": {"label": "*1", "atom_type": "O2s"}, "8": {"label": "*2", "atom_type": "H0"}, "9": {"label": "*3", "atom_type": "Cs"}, "10": {"label": "*4", "atom_type": "Cs"}}

>  <type>  (5) 
unop_1

>  <geom_source>  (5) 
Heuristics

$$$$

     RDKit          3D

 26 24  0  0  0  0  0  0  0  0999 V2000
    1.4875   -2.1338   -2.9960 C   0  0  0  0  0  0  0  0  0  0  0  0
    1.4875   -2.1338   -1.5073 C   0  0  0  0  0  0  0  0  0  0  0  0
    1.4875   -1.0417   -0.8705 N   0  0  0  0  0  0  0  0  0  0  0  0
    1.4875   -1.2464    0.5027 O   0  0  0  0  0  0  0  0  0  0  0  0
    2.3669   -2.6576   -3.3778 H   0  0  0  0  0  0  0  0  0  0  0  0
    0.6081   -2.6576   -3.3778 H   0  0  0  0  0  0  0  0  0  0  0  0
    1.4875   -1.1141   -3.3774 H   0  0  0  0  0  0  0  0  0  0  0  0
    1.4875   -3.0813   -0.9672 H   0  0  0  0  0  0  0  0  0  0  0  0
    1.4875   -0.1767    0.9260 H   0  0  0  0  0  0  0  0  0  0  0  0
    1.4875    1.0427    1.4087 C   0  0  0  0  0  3  0  0  0  0  0  0
    0.7761    2.0010    0.4627 C   0  0  0  0  0  0  0  0  0  0  0  0
   -0.4901    1.4198   -0.1325 C   0  0  0  0  0  0  0  0  0  0  0  0
   -1.4136    1.1649    0.8956 O   0  0  0  0  0  0  0  0  0  0  0  0
   -2.6104    0.5889    0.4379 C   0  0  0  0  0  0  0  0  0  0  0  0
   -3.5261    0.3569    1.6174 C   0  0  0  0  0  0  0  0  0  0  0  0
    2.3957    1.4921    1.8130 H   0  0  0  0  0  0  0  0  0  0  0  0
    0.8403    0.7722    2.2429 H   0  0  0  0  0  0  0  0  0  0  0  0
    1.4391    2.2773   -0.3618 H   0  0  0  0  0  0  0  0  0  0  0  0
    0.5206    2.9254    0.9872 H   0  0  0  0  0  0  0  0  0  0  0  0
   -0.2609    0.4863   -0.6704 H   0  0  0  0  0  0  0  0  0  0  0  0
   -0.9244    2.1192   -0.8619 H   0  0  0  0  0  0  0  0  0  0  0  0
   -3.0899    1.2533   -0.2962 H   0  0  0  0  0  0  0  0  0  0  0  0
   -2.3970   -0.3602   -0.0757 H   0  0  0  0  0  0  0  0  0  0  0  0
   -3.7494    1.2992    2.1190 H   0  0  0  0  0  0  0  0  0  0  0  0
   -4.4644   -0.0904    1.2854 H   0  0  0  0  0  0  0  0  0  0  0  0
   -3.0580   -0.3142    2.3384 H   0  0  0  0  0  0  0  0  0  0  0  0
  1  2  1  0
  1  5  1  0
  1  6  1  0
  1  7  1  0
  2  3  2  3
  2  8  1  0
  3  4  1  0
  4  9  1  0
 10 11  1  0
 10 16  1  0
 10 17  1  0
 11 12  1  0
 11 18  1  0
 11 19  1  0
 12 13  1  0
 12 20  1  0
 12 21  1  0
 13 14  1  0
 14 15  1  0
 14 22  1  0
 14 23  1  0
 15 24  1  0
 15 25  1  0
 15 26  1  0
M  RAD  1  10   2
M  END
>  <reaction>  (6) 
rmg_rxn_232

>  <mol_properties>  (6) 
{"2": {"label": "*0", "atom_type": "N3d"}, "3": {"label": "*1", "atom_type": "O2s"}, "8": {"label": "*2", "atom_type": "H0"}, "9": {"label": "*3", "atom_type": "Cs"}, "10": {"label": "*4", "atom_type": "Cs"}}

>  <type>  (6) 
unop_2

>  <geom_source>  (6) 
Heuristics

$$$$

     RDKit          3D

 26 24  0  0  0  0  0  0  0  0999 V2000
   -0.3082   -1.2903   -4.6312 C   0  0  0  0  0  0  0  0  0  0  0  0
   -0.3082   -1.2903   -3.1426 C   0  0  0  0  0  0  0  0  0  0  0  0
   -0.3082   -0.1982   -2.5058 N   0  0  0  0  0  0  0  0  0  0  0  0
   -0.3082   -0.4029   -1.1326 O   0  0  0  0  0  0  0  0  0  0  0  0
    0.5713   -1.8141   -5.0130 H   0  0  0  0  0  0  0  0  0  0  0  0
   -1.1876   -1.8141   -5.0130 H   0  0  0  0  0  0  0  0  0  0  0  0
   -0.3082   -0.2706   -5.0127 H   0  0  0  0  0  0  0  0  0  0  0  0
   -0.3082   -2.2378   -2.6024 H   0  0  0  0  0  0  0  0  0  0  0  0
   -0.3082    0.6668   -0.7092 H   0  0  0  0  0  0  0  0  0  0  0  0
   -0.3082    1.8862   -0.2266 C   0  0  0  0  0  3  0  0  0  0  0  0
   -1.0196    1.9376    1.1189 C   0  0  0  0  0  0  0  0  0  0  0  0
   -0.8864    0.6538    1.9124 C   0  0  0  0  0  0  0  0  0  0  0  0
    0.4672    0.4350    2.2203 O   0  0  0  0  0  0  0  0  0  0  0  0
    0.6907   -0.7577    2.9283 C   0  0  0  0  0  0  0  0  0  0  0  0
    2.1699   -0.8942    3.2054 C   0  0  0  0  0  0  0  0  0  0  0  0
   -0.4298    2.8237   -0.7712 H   0  0  0  0  0  0  0  0  0  0  0  0
    0.7584    1.7055   -0.0928 H   0  0  0  0  0  0  0  0  0  0  0  0
   -2.0855    2.1340    0.9738 H   0  0  0  0  0  0  0  0  0  0  0  0
   -0.6250    2.7602    1.7209 H   0  0  0  0  0  0  0  0  0  0  0  0
   -1.2798   -0.1936    1.3288 H   0  0  0  0  0  0  0  0  0  0  0  0
   -1.4767    0.7150    2.8385 H   0  0  0  0  0  0  0  0  0  0  0  0
    0.1225   -0.7469    3.8703 H   0  0  0  0  0  0  0  0  0  0  0  0
    0.3285   -1.6150    2.3419 H   0  0  0  0  0  0  0  0  0  0  0  0
    2.5270   -0.0516    3.7985 H   0  0  0  0  0  0  0  0  0  0  0  0
    2.3679   -1.8151    3.7561 H   0  0  0  0  0  0  0  0  0  0  0  0
    2.7327   -0.9208    2.2716 H   0  0  0  0  0  0  0  0  0  0  0  0
  1  2  1  0
  1  5  1  0
  1  6  1  0
  1  7  1  0
  2  3  2  3
  2  8  1  0
  3  4  1  0
  4  9  1  0
 10 11  1  0
 10 16  1  0
 10 17  1  0
 11 12  1  0
 11 18  1  0
 11 19  1  0
 12 13  1  0
 12 20  1  0
 12 21  1  0
 13 14  1  0
 14 15  1  0
 14 22  1  0
 14 23  1  0
 15 24  1  0
 15 25  1  0
 15 26  1  0
M  RAD  1  10   2
M  END
>  <reaction>  (7) 
rmg_rxn_232

>  <mol_properties>  (7) 
{"2": {"label": "*0", "atom_type": "N3d"}, "3": {"label": "*1", "atom_type": "O2s"}, "8": {"label": "*2", "atom_type": "H0"}, "9": {"label": "*3", "atom_type": "Cs"}, "10": {"label": "*4", "atom_type": "Cs"}}

>  <type>  (7) 
unop_3

>  <geom_source>  (7) 
Heuristics

$$$$

     RDKit          3D

 26 24  0  0  0  0  0  0  0  0999 V2000
   -0.0586   -3.3552   -2.4859 C   0  0  0  0  0  0  0  0  0  0  0  0
   -0.0586   -3.3552   -0.9973 C   0  0  0  0  0  0  0  0  0  0  0  0
   -0.0586   -2.2631   -0.3605 N   0  0  0  0  0  0  0  0  0  0  0  0
   -0.0586   -2.4678    1.0127 O   0  0  0  0  0  0  0  0  0  0  0  0
    0.8208   -3.8790   -2.8677 H   0  0  0  0  0  0  0  0  0  0  0  0
   -0.9380   -3.8790   -2.8677 H   0  0  0  0  0  0  0  0  0  0  0  0
   -0.0586   -2.3355   -2.8673 H   0  0  0  0  0  0  0  0  0  0  0  0
   -0.0586   -4.3027   -0.4571 H   0  0  0  0  0  0  0  0  0  0  0  0
   -0.0586   -1.3982    1.4361 H   0  0  0  0  0  0  0  0  0  0  0  0
   -0.0586   -0.1787    1.9187 C   0  0  0  0  0  3  0  0  0  0  0  0
    1.1736    0.5879    1.4570 C   0  0  0  0  0  0  0  0  0  0  0  0
    0.9484    1.3594    0.1728 C   0  0  0  0  0  0  0  0  0  0  0  0
   -0.0362    2.3395    0.3849 O   0  0  0  0  0  0  0  0  0  0  0  0
   -0.3370    3.0842   -0.7677 C   0  0  0  0  0  0  0  0  0  0  0  0
   -1.4014    4.1025   -0.4304 C   0  0  0  0  0  0  0  0  0  0  0  0
    0.1419   -0.7254    2.8413 H   0  0  0  0  0  0  0  0  0  0  0  0
   -0.8911    0.5012    2.0994 H   0  0  0  0  0  0  0  0  0  0  0  0
    2.0064   -0.1017    1.2933 H   0  0  0  0  0  0  0  0  0  0  0  0
    1.4913    1.2897    2.2325 H   0  0  0  0  0  0  0  0  0  0  0  0
    0.6289    0.6745   -0.6285 H   0  0  0  0  0  0  0  0  0  0  0  0
    1.8848    1.8335   -0.1564 H   0  0  0  0  0  0  0  0  0  0  0  0
    0.5699    3.5844   -1.1385 H   0  0  0  0  0  0  0  0  0  0  0  0
   -0.6861    2.4134   -1.5667 H   0  0  0  0  0  0  0  0  0  0  0  0
   -1.0510    4.7766    0.3519 H   0  0  0  0  0  0  0  0  0  0  0  0
   -1.6514    4.6944   -1.3123 H   0  0  0  0  0  0  0  0  0  0  0  0
   -2.3064    3.6067   -0.0775 H   0  0  0  0  0  0  0  0  0  0  0  0
  1  2  1  0
  1  5  1  0
  1  6  1  0
  1  7  1  0
  2  3  2  3
  2  8  1  0
  3  4  1  0
  4  9  1  0
 10 11  1  0
 10 16  1  0
 10 17  1  0
 11 12  1  0
 11 18  1  0
 11 19  1  0
 12 13  1  0
 12 20  1  0
 12 21  1  0
 13 14  1  0
 14 15  1  0
 14 22  1  0
 14 23  1  0
 15 24  1  0
 15 25  1  0
 15 26  1  0
M  RAD  1  10   2
M  END
>  <reaction>  (8) 
rmg_rxn_232

>  <mol_properties>  (8) 
{"2": {"label": "*0", "atom_type": "N3d"}, "3": {"label": "*1", "atom_type": "O2s"}, "8": {"label": "*2", "atom_type": "H0"}, "9": {"label": "*3", "atom_type": "Cs"}, "10": {"label": "*4", "atom_type": "Cs"}}

>  <type>  (8) 
unop_4

>  <geom_source>  (8) 
Heuristics

$$$$

     RDKit          3D

 26 24  0  0  0  0  0  0  0  0999 V2000
   -1.2023   -1.9823   -4.3113 C   0  0  0  0  0  0  0  0  0  0  0  0
   -1.2023   -1.9823   -2.8226 C   0  0  0  0  0  0  0  0  0  0  0  0
   -1.2023   -0.8902   -2.1858 N   0  0  0  0  0  0  0  0  0  0  0  0
   -1.2023   -1.0949   -0.8126 O   0  0  0  0  0  0  0  0  0  0  0  0
   -0.3229   -2.5061   -4.6931 H   0  0  0  0  0  0  0  0  0  0  0  0
   -2.0817   -2.5061   -4.6931 H   0  0  0  0  0  0  0  0  0  0  0  0
   -1.2023   -0.9626   -4.6927 H   0  0  0  0  0  0  0  0  0  0  0  0
   -1.2023   -2.9298   -2.2825 H   0  0  0  0  0  0  0  0  0  0  0  0
   -1.2023   -0.0252   -0.3893 H   0  0  0  0  0  0  0  0  0  0  0  0
   -1.2023    1.1942    0.0933 C   0  0  0  0  0  3  0  0  0  0  0  0
   -1.2023    1.1755    1.6161 C   0  0  0  0  0  0  0  0  0  0  0  0
    0.0011    0.4665    2.2030 C   0  0  0  0  0  0  0  0  0  0  0  0
    1.1703    1.1586    1.8439 O   0  0  0  0  0  0  0  0  0  0  0  0
    2.3445    0.5499    2.3173 C   0  0  0  0  0  0  0  0  0  0  0  0
    3.5347    1.3701    1.8765 C   0  0  0  0  0  0  0  0  0  0  0  0
   -2.0844    1.7070   -0.2930 H   0  0  0  0  0  0  0  0  0  0  0  0
   -0.3174    1.7048   -0.2865 H   0  0  0  0  0  0  0  0  0  0  0  0
   -2.1011    0.6745    1.9863 H   0  0  0  0  0  0  0  0  0  0  0  0
   -1.2266    2.1971    2.0040 H   0  0  0  0  0  0  0  0  0  0  0  0
    0.0489   -0.5689    1.8298 H   0  0  0  0  0  0  0  0  0  0  0  0
   -0.0831    0.4155    3.2985 H   0  0  0  0  0  0  0  0  0  0  0  0
    2.3131    0.4768    3.4145 H   0  0  0  0  0  0  0  0  0  0  0  0
    2.4185   -0.4758    1.9267 H   0  0  0  0  0  0  0  0  0  0  0  0
    3.4691    2.3832    2.2747 H   0  0  0  0  0  0  0  0  0  0  0  0
    4.4602    0.9159    2.2340 H   0  0  0  0  0  0  0  0  0  0  0  0
    3.5756    1.4301    0.7884 H   0  0  0  0  0  0  0  0  0  0  0  0
  1  2  1  0
  1  5  1  0
  1  6  1  0
  1  7  1  0
  2  3  2  3
  2  8  1  0
  3  4  1  0
  4  9  1  0
 10 11  1  0
 10 16  1  0
 10 17  1  0
 11 12  1  0
 11 18  1  0
 11 19  1  0
 12 13  1  0
 12 20  1  0
 12 21  1  0
 13 14  1  0
 14 15  1  0
 14 22  1  0
 14 23  1  0
 15 24  1  0
 15 25  1  0
 15 26  1  0
M  RAD  1  10   2
M  END
>  <reaction>  (9) 
rmg_rxn_232

>  <mol_properties>  (9) 
{"2": {"label": "*0", "atom_type": "N3d"}, "3": {"label": "*1", "atom_type": "O2s"}, "8": {"label": "*2", "atom_type": "H0"}, "9": {"label": "*3", "atom_type": "Cs"}, "10": {"label": "*4", "atom_type": "Cs"}}

>  <type>  (9) 
unop_5

>  <geom_source>  (9) 
Heuristics

$$$$

     RDKit          3D

 26 24  0  0  0  0  0  0  0  0999 V2000
   -0.6422   -3.3709   -2.7944 C   0  0  0  0  0  0  0  0  0  0  0  0
   -0.6422   -3.3709   -1.3057 C   0  0  0  0  0  0  0  0  0  0  0  0
   -0.6422   -2.2788   -0.6689 N   0  0  0  0  0  0  0  0  0  0  0  0
   -0.6422   -2.4835    0.7043 O   0  0  0  0  0  0  0  0  0  0  0  0
    0.2372   -3.8947   -3.1762 H   0  0  0  0  0  0  0  0  0  0  0  0
   -1.5216   -3.8947   -3.1762 H   0  0  0  0  0  0  0  0  0  0  0  0
   -0.6422   -2.3512   -3.1758 H   0  0  0  0  0  0  0  0  0  0  0  0
   -0.6422   -4.3184   -0.7656 H   0  0  0  0  0  0  0  0  0  0  0  0
   -0.6422   -1.4138    1.1276 H   0  0  0  0  0  0  0  0  0  0  0  0
   -0.6422   -0.1944    1.6103 C   0  0  0  0  0  3  0  0  0  0  0  0
    0.7806    0.3105    1.8101 C   0  0  0  0  0  0  0  0  0  0  0  0
    1.2596    1.2030    0.6834 C   0  0  0  0  0  0  0  0  0  0  0  0
    0.4626    2.3595    0.6347 O   0  0  0  0  0  0  0  0  0  0  0  0
    0.8137    3.2332   -0.4079 C   0  0  0  0  0  0  0  0  0  0  0  0
   -0.1008    4.4356   -0.3696 C   0  0  0  0  0  0  0  0  0  0  0  0
   -0.9506   -0.8368    2.4363 H   0  0  0  0  0  0  0  0  0  0  0  0
   -1.3421    0.6388    1.5466 H   0  0  0  0  0  0  0  0  0  0  0  0
    1.4719   -0.5333    1.8875 H   0  0  0  0  0  0  0  0  0  0  0  0
    0.8532    0.8665    2.7483 H   0  0  0  0  0  0  0  0  0  0  0  0
    1.1993    0.6655   -0.2762 H   0  0  0  0  0  0  0  0  0  0  0  0
    2.3129    1.4795    0.8376 H   0  0  0  0  0  0  0  0  0  0  0  0
    1.8632    3.5448   -0.2989 H   0  0  0  0  0  0  0  0  0  0  0  0
    0.7286    2.7160   -1.3749 H   0  0  0  0  0  0  0  0  0  0  0  0
   -0.0068    4.9570    0.5836 H   0  0  0  0  0  0  0  0  0  0  0  0
    0.1540    5.1301   -1.1717 H   0  0  0  0  0  0  0  0  0  0  0  0
   -1.1401    4.1293   -0.4933 H   0  0  0  0  0  0  0  0  0  0  0  0
  1  2  1  0
  1  5  1  0
  1  6  1  0
  1  7  1  0
  2  3  2  3
  2  8  1  0
  3  4  1  0
  4  9  1  0
 10 11  1  0
 10 16  1  0
 10 17  1  0
 11 12  1  0
 11 18  1  0
 11 19  1  0
 12 13  1  0
 12 20  1  0
 12 21  1  0
 13 14  1  0
 14 15  1  0
 14 22  1  0
 14 23  1  0
 15 24  1  0
 15 25  1  0
 15 26  1  0
M  RAD  1  10   2
M  END
>  <reaction>  (10) 
rmg_rxn_232

>  <mol_properties>  (10) 
{"2": {"label": "*0", "atom_type": "N3d"}, "3": {"label": "*1", "atom_type": "O2s"}, "8": {"label": "*2", "atom_type": "H0"}, "9": {"label": "*3", "atom_type": "Cs"}, "10": {"label": "*4", "atom_type": "Cs"}}

>  <type>  (10) 
unop_6

>  <geom_source>  (10) 
Heuristics

$$$$

     RDKit          3D

 26 24  0  0  0  0  0  0  0  0999 V2000
   -1.0517   -3.2081   -3.2222 C   0  0  0  0  0  0  0  0  0  0  0  0
   -1.0517   -3.2081   -1.7336 C   0  0  0  0  0  0  0  0  0  0  0  0
   -1.0517   -2.1160   -1.0968 N   0  0  0  0  0  0  0  0  0  0  0  0
   -1.0517   -2.3207    0.2764 O   0  0  0  0  0  0  0  0  0  0  0  0
   -0.1723   -3.7319   -3.6040 H   0  0  0  0  0  0  0  0  0  0  0  0
   -1.9311   -3.7319   -3.6040 H   0  0  0  0  0  0  0  0  0  0  0  0
   -1.0517   -2.1884   -3.6037 H   0  0  0  0  0  0  0  0  0  0  0  0
   -1.0517   -4.1556   -1.1934 H   0  0  0  0  0  0  0  0  0  0  0  0
   -1.0517   -1.2510    0.6998 H   0  0  0  0  0  0  0  0  0  0  0  0
   -1.0517   -0.0316    1.1824 C   0  0  0  0  0  3  0  0  0  0  0  0
    0.1805    0.2114    2.0437 C   0  0  0  0  0  0  0  0  0  0  0  0
    1.2798    0.9559    1.3139 C   0  0  0  0  0  0  0  0  0  0  0  0
    0.8200    2.2361    0.9606 O   0  0  0  0  0  0  0  0  0  0  0  0
    1.7659    2.9889    0.2451 C   0  0  0  0  0  0  0  0  0  0  0  0
    1.1721    4.3391   -0.0834 C   0  0  0  0  0  0  0  0  0  0  0  0
   -1.8184   -0.5736    1.7379 H   0  0  0  0  0  0  0  0  0  0  0  0
   -1.4788    0.9125    0.8444 H   0  0  0  0  0  0  0  0  0  0  0  0
    0.5918   -0.7411    2.3894 H   0  0  0  0  0  0  0  0  0  0  0  0
   -0.0917    0.7813    2.9358 H   0  0  0  0  0  0  0  0  0  0  0  0
    1.5759    0.4012    0.4095 H   0  0  0  0  0  0  0  0  0  0  0  0
    2.1716    1.0406    1.9522 H   0  0  0  0  0  0  0  0  0  0  0  0
    2.6816    3.1069    0.8433 H   0  0  0  0  0  0  0  0  0  0  0  0
    2.0477    2.4583   -0.6764 H   0  0  0  0  0  0  0  0  0  0  0  0
    0.9052    4.8716    0.8301 H   0  0  0  0  0  0  0  0  0  0  0  0
    1.8906    4.9429   -0.6398 H   0  0  0  0  0  0  0  0  0  0  0  0
    0.2729    4.2237   -0.6896 H   0  0  0  0  0  0  0  0  0  0  0  0
  1  2  1  0
  1  5  1  0
  1  6  1  0
  1  7  1  0
  2  3  2  3
  2  8  1  0
  3  4  1  0
  4  9  1  0
 10 11  1  0
 10 16  1  0
 10 17  1  0
 11 12  1  0
 11 18  1  0
 11 19  1  0
 12 13  1  0
 12 20  1  0
 12 21  1  0
 13 14  1  0
 14 15  1  0
 14 22  1  0
 14 23  1  0
 15 24  1  0
 15 25  1  0
 15 26  1  0
M  RAD  1  10   2
M  END
>  <reaction>  (11) 
rmg_rxn_232

>  <mol_properties>  (11) 
{"2": {"label": "*0", "atom_type": "N3d"}, "3": {"label": "*1", "atom_type": "O2s"}, "8": {"label": "*2", "atom_type": "H0"}, "9": {"label": "*3", "atom_type": "Cs"}, "10": {"label": "*4", "atom_type": "Cs"}}

>  <type>  (11) 
unop_7

>  <geom_source>  (11) 
Heuristics

$$$$

     RDKit          3D

 26 24  0  0  0  0  0  0  0  0999 V2000
    1.1843   -1.3645   -4.0038 C   0  0  0  0  0  0  0  0  0  0  0  0
    1.1843   -1.3645   -2.5152 C   0  0  0  0  0  0  0  0  0  0  0  0
    1.1843   -0.2724   -1.8784 N   0  0  0  0  0  0  0  0  0  0  0  0
    1.1843   -0.4771   -0.5052 O   0  0  0  0  0  0  0  0  0  0  0  0
    2.0637   -1.8883   -4.3856 H   0  0  0  0  0  0  0  0  0  0  0  0
    0.3048   -1.8883   -4.3856 H   0  0  0  0  0  0  0  0  0  0  0  0
    1.1843   -0.3448   -4.3853 H   0  0  0  0  0  0  0  0  0  0  0  0
    1.1843   -2.3120   -1.9750 H   0  0  0  0  0  0  0  0  0  0  0  0
    1.1843    0.5926   -0.0818 H   0  0  0  0  0  0  0  0  0  0  0  0
    1.1843    1.8120    0.4008 C   0  0  0  0  0  3  0  0  0  0  0  0
   -0.2386    2.3169    0.6006 C   0  0  0  0  0  0  0  0  0  0  0  0
   -1.2601    1.2012    0.6846 C   0  0  0  0  0  0  0  0  0  0  0  0
   -0.9902    0.4066    1.8119 O   0  0  0  0  0  0  0  0  0  0  0  0
   -1.8707   -0.6793    1.9506 C   0  0  0  0  0  0  0  0  0  0  0  0
   -1.4928   -1.4630    3.1860 C   0  0  0  0  0  0  0  0  0  0  0  0
    1.8903    2.6415    0.3396 H   0  0  0  0  0  0  0  0  0  0  0  0
    1.4852    1.1684    1.2274 H   0  0  0  0  0  0  0  0  0  0  0  0
   -0.5246    2.9730   -0.2261 H   0  0  0  0  0  0  0  0  0  0  0  0
   -0.3002    2.9135    1.5144 H   0  0  0  0  0  0  0  0  0  0  0  0
   -1.2213    0.5839   -0.2270 H   0  0  0  0  0  0  0  0  0  0  0  0
   -2.2754    1.6183    0.7540 H   0  0  0  0  0  0  0  0  0  0  0  0
   -2.9060   -0.3153    2.0280 H   0  0  0  0  0  0  0  0  0  0  0  0
   -1.8189   -1.3200    1.0579 H   0  0  0  0  0  0  0  0  0  0  0  0
   -1.5572   -0.8322    4.0733 H   0  0  0  0  0  0  0  0  0  0  0  0
   -2.1648   -2.3129    3.3149 H   0  0  0  0  0  0  0  0  0  0  0  0
   -0.4718   -1.8376    3.1035 H   0  0  0  0  0  0  0  0  0  0  0  0
  1  2  1  0
  1  5  1  0
  1  6  1  0
  1  7  1  0
  2  3  2  3
  2  8  1  0
  3  4  1  0
  4  9  1  0
 10 11  1  0
 10 16  1  0
 10 17  1  0
 11 12  1  0
 11 18  1  0
 11 19  1  0
 12 13  1  0
 12 20  1  0
 12 21  1  0
 13 14  1  0
 14 15  1  0
 14 22  1  0
 14 23  1  0
 15 24  1  0
 15 25  1  0
 15 26  1  0
M  RAD  1  10   2
M  END
>  <reaction>  (12) 
rmg_rxn_232

>  <mol_properties>  (12) 
{"2": {"label": "*0", "atom_type": "N3d"}, "3": {"label": "*1", "atom_type": "O2s"}, "8": {"label": "*2", "atom_type": "H0"}, "9": {"label": "*3", "atom_type": "Cs"}, "10": {"label": "*4", "atom_type": "Cs"}}

>  <type>  (12) 
unop_8

>  <geom_source>  (12) 
Heuristics

$$$$

     RDKit          3D

 26 24  0  0  0  0  0  0  0  0999 V2000
    0.6253   -3.1172   -2.4032 C   0  0  0  0  0  0  0  0  0  0  0  0
    0.6253   -3.1172   -0.9145 C   0  0  0  0  0  0  0  0  0  0  0  0
    0.6253   -2.0251   -0.2777 N   0  0  0  0  0  0  0  0  0  0  0  0
    0.6253   -2.2298    1.0955 O   0  0  0  0  0  0  0  0  0  0  0  0
    1.5047   -3.6410   -2.7850 H   0  0  0  0  0  0  0  0  0  0  0  0
   -0.2541   -3.6410   -2.7850 H   0  0  0  0  0  0  0  0  0  0  0  0
    0.6253   -2.0975   -2.7846 H   0  0  0  0  0  0  0  0  0  0  0  0
    0.6253   -4.0647   -0.3744 H   0  0  0  0  0  0  0  0  0  0  0  0
    0.6253   -1.1601    1.5188 H   0  0  0  0  0  0  0  0  0  0  0  0
    0.6253    0.0593    2.0014 C   0  0  0  0  0  3  0  0  0  0  0  0
    1.3367    1.0176    1.0555 C   0  0  0  0  0  0  0  0  0  0  0  0
    0.4882    1.4207   -0.1331 C   0  0  0  0  0  0  0  0  0  0  0  0
   -0.6428    2.1220    0.3186 O   0  0  0  0  0  0  0  0  0  0  0  0
   -1.5095    2.5064   -0.7180 C   0  0  0  0  0  0  0  0  0  0  0  0
   -2.6853    3.2479   -0.1253 C   0  0  0  0  0  0  0  0  0  0  0  0
    1.2671   -0.2127    2.8407 H   0  0  0  0  0  0  0  0  0  0  0  0
   -0.2826    0.5126    2.3994 H   0  0  0  0  0  0  0  0  0  0  0  0
    2.2532    0.5588    0.6741 H   0  0  0  0  0  0  0  0  0  0  0  0
    1.6349    1.9222    1.5919 H   0  0  0  0  0  0  0  0  0  0  0  0
    0.1750    0.5263   -0.6946 H   0  0  0  0  0  0  0  0  0  0  0  0
    1.0705    2.0512   -0.8210 H   0  0  0  0  0  0  0  0  0  0  0  0
   -0.9748    3.1452   -1.4366 H   0  0  0  0  0  0  0  0  0  0  0  0
   -1.8530    1.6179   -1.2681 H   0  0  0  0  0  0  0  0  0  0  0  0
   -2.3468    4.1366    0.4086 H   0  0  0  0  0  0  0  0  0  0  0  0
   -3.3733    3.5576   -0.9135 H   0  0  0  0  0  0  0  0  0  0  0  0
   -3.2252    2.6103    0.5756 H   0  0  0  0  0  0  0  0  0  0  0  0
  1  2  1  0
  1  5  1  0
  1  6  1  0
  1  7  1  0
  2  3  2  3
  2  8  1  0
  3  4  1  0
  4  9  1  0
 10 11  1  0
 10 16  1  0
 10 17  1  0
 11 12  1  0
 11 18  1  0
 11 19  1  0
 12 13  1  0
 12 20  1  0
 12 21  1  0
 13 14  1  0
 14 15  1  0
 14 22  1  0
 14 23  1  0
 15 24  1  0
 15 25  1  0
 15 26  1  0
M  RAD  1  10   2
M  END
>  <reaction>  (13) 
rmg_rxn_232

>  <mol_properties>  (13) 
{"2": {"label": "*0", "atom_type": "N3d"}, "3": {"label": "*1", "atom_type": "O2s"}, "8": {"label": "*2", "atom_type": "H0"}, "9": {"label": "*3", "atom_type": "Cs"}, "10": {"label": "*4", "atom_type": "Cs"}}

>  <type>  (13) 
unop_9

>  <geom_source>  (13) 
Heuristics

$$$$

     RDKit          3D

 26 24  0  0  0  0  0  0  0  0999 V2000
    1.4717   -1.6889   -3.4904 C   0  0  0  0  0  0  0  0  0  0  0  0
    1.4717   -1.6889   -2.0017 C   0  0  0  0  0  0  0  0  0  0  0  0
    1.4717   -0.5968   -1.3649 N   0  0  0  0  0  0  0  0  0  0  0  0
    1.4717   -0.8015    0.0083 O   0  0  0  0  0  0  0  0  0  0  0  0
    2.3511   -2.2127   -3.8722 H   0  0  0  0  0  0  0  0  0  0  0  0
    0.5923   -2.2127   -3.8722 H   0  0  0  0  0  0  0  0  0  0  0  0
    1.4717   -0.6692   -3.8718 H   0  0  0  0  0  0  0  0  0  0  0  0
    1.4717   -2.6364   -1.4616 H   0  0  0  0  0  0  0  0  0  0  0  0
    1.4717    0.2682    0.4317 H   0  0  0  0  0  0  0  0  0  0  0  0
    1.4717    1.4876    0.9143 C   0  0  0  0  0  3  0  0  0  0  0  0
    0.2395    2.2542    0.4526 C   0  0  0  0  0  0  0  0  0  0  0  0
   -0.9497    1.3579    0.1737 C   0  0  0  0  0  0  0  0  0  0  0  0
   -1.3392    0.7176    1.3625 O   0  0  0  0  0  0  0  0  0  0  0  0
   -2.4185   -0.1651    1.1909 C   0  0  0  0  0  0  0  0  0  0  0  0
   -2.7529   -0.7963    2.5226 C   0  0  0  0  0  0  0  0  0  0  0  0
    2.3078    2.1633    1.1000 H   0  0  0  0  0  0  0  0  0  0  0  0
    1.2641    0.9411    1.8342 H   0  0  0  0  0  0  0  0  0  0  0  0
    0.4631    2.8103   -0.4620 H   0  0  0  0  0  0  0  0  0  0  0  0
   -0.0497    2.9897    1.2077 H   0  0  0  0  0  0  0  0  0  0  0  0
   -0.6864    0.6067   -0.5877 H   0  0  0  0  0  0  0  0  0  0  0  0
   -1.7870    1.9487   -0.2258 H   0  0  0  0  0  0  0  0  0  0  0  0
   -3.2885    0.3787    0.7939 H   0  0  0  0  0  0  0  0  0  0  0  0
   -2.1564   -0.9385    0.4538 H   0  0  0  0  0  0  0  0  0  0  0  0
   -3.0263   -0.0314    3.2501 H   0  0  0  0  0  0  0  0  0  0  0  0
   -3.5906   -1.4870    2.4138 H   0  0  0  0  0  0  0  0  0  0  0  0
   -1.8959   -1.3488    2.9096 H   0  0  0  0  0  0  0  0  0  0  0  0
  1  2  1  0
  1  5  1  0
  1  6  1  0
  1  7  1  0
  2  3  2  3
  2  8  1  0
  3  4  1  0
  4  9  1  0
 10 11  1  0
 10 16  1  0
 10 17  1  0
 11 12  1  0
 11 18  1  0
 11 19  1  0
 12 13  1  0
 12 20  1  0
 12 21  1  0
 13 14  1  0
 14 15  1  0
 14 22  1  0
 14 23  1  0
 15 24  1  0
 15 25  1  0
 15 26  1  0
M  RAD  1  10   2
M  END
>  <reaction>  (14) 
rmg_rxn_232

>  <mol_properties>  (14) 
{"2": {"label": "*0", "atom_type": "N3d"}, "3": {"label": "*1", "atom_type": "O2s"}, "8": {"label": "*2", "atom_type": "H0"}, "9": {"label": "*3", "atom_type": "Cs"}, "10": {"label": "*4", "atom_type": "Cs"}}

>  <type>  (14) 
unop_10

>  <geom_source>  (14) 
Heuristics

$$$$

     RDKit          3D

 26 24  0  0  0  0  0  0  0  0999 V2000
   -1.3147   -2.8100   -3.7152 C   0  0  0  0  0  0  0  0  0  0  0  0
   -1.3147   -2.8100   -2.2265 C   0  0  0  0  0  0  0  0  0  0  0  0
   -1.3147   -1.7179   -1.5897 N   0  0  0  0  0  0  0  0  0  0  0  0
   -1.3147   -1.9226   -0.2165 O   0  0  0  0  0  0  0  0  0  0  0  0
   -0.4353   -3.3338   -4.0970 H   0  0  0  0  0  0  0  0  0  0  0  0
   -2.1941   -3.3338   -4.0970 H   0  0  0  0  0  0  0  0  0  0  0  0
   -1.3147   -1.7903   -4.0966 H   0  0  0  0  0  0  0  0  0  0  0  0
   -1.3147   -3.7575   -1.6864 H   0  0  0  0  0  0  0  0  0  0  0  0
   -1.3147   -0.8529    0.2068 H   0  0  0  0  0  0  0  0  0  0  0  0
   -1.3147    0.3665    0.6895 C   0  0  0  0  0  3  0  0  0  0  0  0
   -0.6033    0.4179    2.0350 C   0  0  0  0  0  0  0  0  0  0  0  0
    0.8879    0.6552    1.9115 C   0  0  0  0  0  0  0  0  0  0  0  0
    1.1124    1.9142    1.3287 O   0  0  0  0  0  0  0  0  0  0  0  0
    2.4739    2.2057    1.1420 C   0  0  0  0  0  0  0  0  0  0  0  0
    2.6012    3.5735    0.5123 C   0  0  0  0  0  0  0  0  0  0  0  0
   -2.3836    0.1891    0.8169 H   0  0  0  0  0  0  0  0  0  0  0  0
   -1.1868    1.3044    0.1490 H   0  0  0  0  0  0  0  0  0  0  0  0
   -0.7506   -0.5217    2.5746 H   0  0  0  0  0  0  0  0  0  0  0  0
   -1.0306    1.2098    2.6555 H   0  0  0  0  0  0  0  0  0  0  0  0
    1.3458   -0.1318    1.2916 H   0  0  0  0  0  0  0  0  0  0  0  0
    1.3645    0.6100    2.9018 H   0  0  0  0  0  0  0  0  0  0  0  0
    2.9997    2.1768    2.1079 H   0  0  0  0  0  0  0  0  0  0  0  0
    2.9359    1.4420    0.4992 H   0  0  0  0  0  0  0  0  0  0  0  0
    2.1556    4.3332    1.1554 H   0  0  0  0  0  0  0  0  0  0  0  0
    3.6523    3.8224    0.3579 H   0  0  0  0  0  0  0  0  0  0  0  0
    2.0935    3.5986   -0.4526 H   0  0  0  0  0  0  0  0  0  0  0  0
  1  2  1  0
  1  5  1  0
  1  6  1  0
  1  7  1  0
  2  3  2  3
  2  8  1  0
  3  4  1  0
  4  9  1  0
 10 11  1  0
 10 16  1  0
 10 17  1  0
 11 12  1  0
 11 18  1  0
 11 19  1  0
 12 13  1  0
 12 20  1  0
 12 21  1  0
 13 14  1  0
 14 15  1  0
 14 22  1  0
 14 23  1  0
 15 24  1  0
 15 25  1  0
 15 26  1  0
M  RAD  1  10   2
M  END
>  <reaction>  (15) 
rmg_rxn_232

>  <mol_properties>  (15) 
{"2": {"label": "*0", "atom_type": "N3d"}, "3": {"label": "*1", "atom_type": "O2s"}, "8": {"label": "*2", "atom_type": "H0"}, "9": {"label": "*3", "atom_type": "Cs"}, "10": {"label": "*4", "atom_type": "Cs"}}

>  <type>  (15) 
unop_11

>  <geom_source>  (15) 
Heuristics

$$$$

     RDKit          3D

 26 24  0  0  0  0  0  0  0  0999 V2000
    1.2023   -2.6608   -2.5969 C   0  0  0  0  0  0  0  0  0  0  0  0
    1.2023   -2.6608   -1.1083 C   0  0  0  0  0  0  0  0  0  0  0  0
    1.2023   -1.5687   -0.4715 N   0  0  0  0  0  0  0  0  0  0  0  0
    1.2023   -1.7734    0.9017 O   0  0  0  0  0  0  0  0  0  0  0  0
    2.0817   -3.1846   -2.9787 H   0  0  0  0  0  0  0  0  0  0  0  0
    0.3229   -3.1846   -2.9787 H   0  0  0  0  0  0  0  0  0  0  0  0
    1.2023   -1.6411   -2.9783 H   0  0  0  0  0  0  0  0  0  0  0  0
    1.2023   -3.6083   -0.5681 H   0  0  0  0  0  0  0  0  0  0  0  0
    1.2023   -0.7037    1.3251 H   0  0  0  0  0  0  0  0  0  0  0  0
    1.2023    0.5157    1.8077 C   0  0  0  0  0  3  0  0  0  0  0  0
    1.2023    1.5442    0.6845 C   0  0  0  0  0  0  0  0  0  0  0  0
   -0.0011    1.4288   -0.2285 C   0  0  0  0  0  0  0  0  0  0  0  0
   -1.1703    1.6877    0.5070 O   0  0  0  0  0  0  0  0  0  0  0  0
   -2.3445    1.5679   -0.2548 C   0  0  0  0  0  0  0  0  0  0  0  0
   -3.5347    1.8643    0.6279 C   0  0  0  0  0  0  0  0  0  0  0  0
    2.0844    0.6252    2.4404 H   0  0  0  0  0  0  0  0  0  0  0  0
    0.3174    0.6280    2.4341 H   0  0  0  0  0  0  0  0  0  0  0  0
    2.1011    1.4322    0.0718 H   0  0  0  0  0  0  0  0  0  0  0  0
    1.2266    2.5545    1.1009 H   0  0  0  0  0  0  0  0  0  0  0  0
   -0.0489    0.4185   -0.6650 H   0  0  0  0  0  0  0  0  0  0  0  0
    0.0831    2.1414   -1.0622 H   0  0  0  0  0  0  0  0  0  0  0  0
   -2.3131    2.2655   -1.1049 H   0  0  0  0  0  0  0  0  0  0  0  0
   -2.4185    0.5527   -0.6720 H   0  0  0  0  0  0  0  0  0  0  0  0
   -3.4691    2.8755    1.0309 H   0  0  0  0  0  0  0  0  0  0  0  0
   -4.4602    1.7778    0.0564 H   0  0  0  0  0  0  0  0  0  0  0  0
   -3.5756    1.1633    1.4624 H   0  0  0  0  0  0  0  0  0  0  0  0
  1  2  1  0
  1  5  1  0
  1  6  1  0
  1  7  1  0
  2  3  2  3
  2  8  1  0
  3  4  1  0
  4  9  1  0
 10 11  1  0
 10 16  1  0
 10 17  1  0
 11 12  1  0
 11 18  1  0
 11 19  1  0
 12 13  1  0
 12 20  1  0
 12 21  1  0
 13 14  1  0
 14 15  1  0
 14 22  1  0
 14 23  1  0
 15 24  1  0
 15 25  1  0
 15 26  1  0
M  RAD  1  10   2
M  END
>  <reaction>  (16) 
rmg_rxn_232

>  <mol_properties>  (16) 
{"2": {"label": "*0", "atom_type": "N3d"}, "3": {"label": "*1", "atom_type": "O2s"}, "8": {"label": "*2", "atom_type": "H0"}, "9": {"label": "*3", "atom_type": "Cs"}, "10": {"label": "*4", "atom_type": "Cs"}}

>  <type>  (16) 
unop_12

>  <geom_source>  (16) 
Heuristics

$$$$

     RDKit          3D

 26 24  0  0  0  0  0  0  0  0999 V2000
   -2.7322   -0.5820    0.6385 O   0  0  0  0  0  0  0  0  0  0  0  0
    2.2452   -0.2861   -1.1810 O   0  0  0  0  0  1  0  0  0  0  0  0
    3.4215    0.1980   -1.7072 N   0  0  0  0  0  2  0  0  0  0  0  0
   -1.2434   -0.4871   -1.2621 C   0  0  0  0  0  0  0  0  0  0  0  0
   -1.4860   -1.0379    0.1460 C   0  0  0  0  0  0  0  0  0  0  0  0
   -2.5551    0.5494    1.4654 C   0  0  0  0  0  0  0  0  0  0  0  0
    0.0551   -1.0284   -1.8517 C   0  0  0  0  0  0  0  0  0  0  0  0
   -3.9174    1.0993    1.8585 C   0  0  0  0  0  0  0  0  0  0  0  0
    4.3715    0.3719    0.5348 C   0  0  0  0  0  0  0  0  0  0  0  0
    4.4275    0.5141   -0.9535 C   0  0  0  0  0  3  0  0  0  0  0  0
   -1.1869    0.6217   -1.2274 H   0  0  0  0  0  0  0  0  0  0  0  0
   -2.0904   -0.7740   -1.9225 H   0  0  0  0  0  0  0  0  0  0  0  0
   -0.6251   -0.7922    0.8138 H   0  0  0  0  0  0  0  0  0  0  0  0
   -1.5320   -2.1466    0.0894 H   0  0  0  0  0  0  0  0  0  0  0  0
   -2.0100    0.2672    2.3944 H   0  0  0  0  0  0  0  0  0  0  0  0
   -1.9946    1.3529    0.9357 H   0  0  0  0  0  0  0  0  0  0  0  0
    0.2043   -0.6100   -2.8694 H   0  0  0  0  0  0  0  0  0  0  0  0
    0.0141   -2.1361   -1.9253 H   0  0  0  0  0  0  0  0  0  0  0  0
    0.9873   -0.7097   -1.1642 H   0  0  0  0  0  0  0  0  0  0  0  0
   -4.4958    0.3260    2.4073 H   0  0  0  0  0  0  0  0  0  0  0  0
   -3.7897    1.9864    2.5141 H   0  0  0  0  0  0  0  0  0  0  0  0
   -4.4815    1.4006    0.9503 H   0  0  0  0  0  0  0  0  0  0  0  0
    5.3353    0.6973    0.9791 H   0  0  0  0  0  0  0  0  0  0  0  0
    4.1909   -0.6894    0.8063 H   0  0  0  0  0  0  0  0  0  0  0  0
    3.5557    1.0039    0.9442 H   0  0  0  0  0  0  0  0  0  0  0  0
    5.3317    0.8907   -1.4136 H   0  0  0  0  0  0  0  0  0  0  0  0
  1  5  1  0
  1  6  1  0
  2  3  1  0
  3 10  1  0
  4  5  1  0
  4 12  1  0
  4 11  1  0
  4  7  1  0
  5 13  1  0
  5 14  1  0
  6 16  1  0
  6  8  1  0
  6 15  1  0
  7 18  1  0
  7 19  1  0
  7 17  1  0
  8 22  1  0
  8 21  1  0
  8 20  1  0
  9 25  1  0
  9 23  1  0
  9 24  1  0
  9 10  1  0
 10 26  1  0
M  RAD  3   2   2   3   2  10   2
M  END
>  <reaction>  (17) 
rmg_rxn_232

>  <mol_properties>  (17) 
{"2": {"label": "*0", "atom_type": "N3d"}, "3": {"label": "*1", "atom_type": "O2s"}, "8": {"label": "*2", "atom_type": "H0"}, "9": {"label": "*3", "atom_type": "Cs"}, "10": {"label": "*4", "atom_type": "Cs"}}

>  <type>  (17) 
unop_13

>  <geom_source>  (17) 
AutoTST

$$$$

     RDKit          3D

 26 24  0  0  0  0  0  0  0  0999 V2000
    1.4875   -2.1338   -2.9960 C   0  0  0  0  0  0  0  0  0  0  0  0
    1.4875   -2.1338   -1.5073 C   0  0  0  0  0  0  0  0  0  0  0  0
    1.4875   -1.0417   -0.8705 N   0  0  0  0  0  0  0  0  0  0  0  0
    1.4875   -1.2464    0.5027 O   0  0  0  0  0  0  0  0  0  0  0  0
    2.3669   -2.6576   -3.3778 H   0  0  0  0  0  0  0  0  0  0  0  0
    0.6081   -2.6576   -3.3778 H   0  0  0  0  0  0  0  0  0  0  0  0
    1.4875   -1.1141   -3.3774 H   0  0  0  0  0  0  0  0  0  0  0  0
    1.4875   -3.0813   -0.9672 H   0  0  0  0  0  0  0  0  0  0  0  0
    1.4875   -0.1767    0.9261 H   0  0  0  0  0  0  0  0  0  0  0  0
    1.4875    1.0427    1.4087 C   0  0  0  0  0  3  0  0  0  0  0  0
    0.7761    2.0010    0.4627 C   0  0  0  0  0  0  0  0  0  0  0  0
   -0.4901    1.4198   -0.1325 C   0  0  0  0  0  0  0  0  0  0  0  0
   -1.4137    1.1649    0.8956 O   0  0  0  0  0  0  0  0  0  0  0  0
   -2.6104    0.5889    0.4379 C   0  0  0  0  0  0  0  0  0  0  0  0
   -3.5261    0.3569    1.6174 C   0  0  0  0  0  0  0  0  0  0  0  0
    2.3957    1.4921    1.8130 H   0  0  0  0  0  0  0  0  0  0  0  0
    0.8403    0.7722    2.2429 H   0  0  0  0  0  0  0  0  0  0  0  0
    1.4391    2.2773   -0.3618 H   0  0  0  0  0  0  0  0  0  0  0  0
    0.5206    2.9254    0.9872 H   0  0  0  0  0  0  0  0  0  0  0  0
   -0.2609    0.4863   -0.6704 H   0  0  0  0  0  0  0  0  0  0  0  0
   -0.9244    2.1192   -0.8619 H   0  0  0  0  0  0  0  0  0  0  0  0
   -3.0899    1.2533   -0.2962 H   0  0  0  0  0  0  0  0  0  0  0  0
   -2.3970   -0.3602   -0.0757 H   0  0  0  0  0  0  0  0  0  0  0  0
   -3.7494    1.2992    2.1190 H   0  0  0  0  0  0  0  0  0  0  0  0
   -4.4644   -0.0904    1.2854 H   0  0  0  0  0  0  0  0  0  0  0  0
   -3.0580   -0.3142    2.3384 H   0  0  0  0  0  0  0  0  0  0  0  0
  1  2  1  0
  1  5  1  0
  1  6  1  0
  1  7  1  0
  2  3  2  3
  2  8  1  0
  3  4  1  0
  4  9  1  0
 10 11  1  0
 10 16  1  0
 10 17  1  0
 11 12  1  0
 11 18  1  0
 11 19  1  0
 12 13  1  0
 12 20  1  0
 12 21  1  0
 13 14  1  0
 14 15  1  0
 14 22  1  0
 14 23  1  0
 15 24  1  0
 15 25  1  0
 15 26  1  0
M  RAD  1  10   2
M  END
>  <reaction>  (18) 
rmg_rxn_232

>  <mol_properties>  (18) 
{"2": {"label": "*0", "atom_type": "N3d"}, "3": {"label": "*1", "atom_type": "O2s"}, "8": {"label": "*2", "atom_type": "H0"}, "9": {"label": "*3", "atom_type": "Cs"}, "10": {"label": "*4", "atom_type": "Cs"}}

>  <type>  (18) 
unop_14

>  <geom_source>  (18) 
gaussian_log

$$$$
