
     RDKit          3D

 13 12  0  0  0  0  0  0  0  0999 V2000
    1.9466    0.1090    0.9245 N   0  0  0  0  0  2  0  0  0  0  0  0
    1.4466   -0.6584   -0.0107 N   0  0  0  0  0  0  0  0  0  0  0  0
    0.1805   -0.8050   -0.2944 C   0  0  0  0  0  3  0  0  0  0  0  0
   -0.8545   -0.0639    0.4699 C   0  0  0  0  0  0  0  0  0  0  0  0
   -1.0896   -0.6293    1.8757 C   0  0  0  0  0  0  0  0  0  0  0  0
    2.9554    0.0279    0.8555 H   0  0  0  0  0  0  0  0  0  0  0  0
    2.0766   -1.2050   -0.5920 H   0  0  0  0  0  0  0  0  0  0  0  0
   -0.0468   -1.4951   -1.0924 H   0  0  0  0  0  0  0  0  0  0  0  0
   -1.7858   -0.0735   -0.0987 H   0  0  0  0  0  0  0  0  0  0  0  0
   -0.5293    0.9778    0.5630 H   0  0  0  0  0  0  0  0  0  0  0  0
   -0.1608   -0.6126    2.4456 H   0  0  0  0  0  0  0  0  0  0  0  0
   -1.4532   -1.6574    1.8281 H   0  0  0  0  0  0  0  0  0  0  0  0
   -1.8300   -0.0307    2.4087 H   0  0  0  0  0  0  0  0  0  0  0  0
  1  2  1  0
  1  6  1  0
  2  3  1  0
  2  7  1  0
  3  4  1  0
  3  8  1  0
  4  5  1  0
  4  9  1  0
  4 10  1  0
  5 11  1  0
  5 12  1  0
  5 13  1  0
M  CHG  2   1  -1   3   1
M  END
>  <reaction>  (1) 
rmg_rxn_16689

>  <mol_properties>  (1) 
{"0": {"label": "donator", "atom_type": "N1sc"}, "5": {"label": "d_hydrogen", "atom_type": "H0"}}

>  <type>  (1) 
r1h

$$$$

     RDKit          3D

  7  6  0  0  0  0  0  0  0  0999 V2000
   -0.6441   -0.1356    0.0624 C   0  0  0  0  0  0  0  0  0  0  0  0
    0.8523    0.0148   -0.0333 C   0  0  0  0  0  0  0  0  0  0  0  0
    1.6700   -0.6077    0.6603 N   0  0  0  0  0  2  0  0  0  0  0  0
   -1.0940    0.8275    0.3091 H   0  0  0  0  0  0  0  0  0  0  0  0
   -0.9104   -0.8656    0.8237 H   0  0  0  0  0  0  0  0  0  0  0  0
   -1.0427   -0.4545   -0.9022 H   0  0  0  0  0  0  0  0  0  0  0  0
    1.2362    0.7308   -0.7748 H   0  0  0  0  0  0  0  0  0  0  0  0
  1  2  1  0
  1  4  1  0
  1  5  1  0
  1  6  1  0
  2  3  2  0
  2  7  1  0
M  RAD  1   3   2
M  END
>  <reaction>  (2) 
rmg_rxn_16689

>  <mol_properties>  (2) 
{"2": {"label": "acceptor", "atom_type": "N3d"}}

>  <type>  (2) 
r2

$$$$

     RDKit          3D

  8  7  0  0  0  0  0  0  0  0999 V2000
    0.9548    0.1194   -0.0790 C   0  0  0  0  0  0  0  0  0  0  0  0
   -0.4838   -0.2649    0.0193 C   0  0  0  0  0  0  0  0  0  0  0  0
   -0.8933   -1.1081    0.8664 N   0  0  0  0  0  0  0  0  0  0  0  0
    1.3360   -0.0983   -1.0800 H   0  0  0  0  0  0  0  0  0  0  0  0
    1.0698    1.1948    0.0786 H   0  0  0  0  0  0  0  0  0  0  0  0
    1.5426   -0.4219    0.6602 H   0  0  0  0  0  0  0  0  0  0  0  0
   -1.1575    0.2324   -0.6905 H   0  0  0  0  0  0  0  0  0  0  0  0
   -1.8989   -1.2455    0.7886 H   0  0  0  0  0  0  0  0  0  0  0  0
  1  2  1  0
  1  4  1  0
  1  5  1  0
  1  6  1  0
  2  3  2  3
  2  7  1  0
  3  8  1  0
M  END
>  <reaction>  (3) 
rmg_rxn_16689

>  <mol_properties>  (3) 
{"2": {"label": "acceptor", "atom_type": "N3d"}, "7": {"label": "a_hydrogen", "atom_type": "H0"}}

>  <type>  (3) 
r2h

$$$$

     RDKit          3D

 20 18  0  0  0  0  0  0  0  0999 V2000
    3.3387    1.1678    0.2052 C   0  0  0  0  0  0  0  0  0  0  0  0
    3.1129   -0.2469   -0.2438 C   0  0  0  0  0  0  0  0  0  0  0  0
    2.0158   -0.7993   -0.4915 N   0  0  0  0  0  0  0  0  0  0  0  0
    2.3964    1.6933    0.3487 H   0  0  0  0  0  0  0  0  0  0  0  0
    3.9415    1.6959   -0.5371 H   0  0  0  0  0  0  0  0  0  0  0  0
    3.9024    1.1699    1.1405 H   0  0  0  0  0  0  0  0  0  0  0  0
    4.0164   -0.8585   -0.3683 H   0  0  0  0  0  0  0  0  0  0  0  0
   -0.0519    0.4250   -0.0259 N   0  0  0  0  0  1  0  0  0  0  0  0
   -0.6798   -0.7135    0.0097 N   0  0  0  0  0  0  0  0  0  0  0  0
   -1.9343   -0.9440    0.2877 C   0  0  0  0  0  3  0  0  0  0  0  0
   -2.8478    0.1800    0.6197 C   0  0  0  0  0  0  0  0  0  0  0  0
   -3.2372    1.0278   -0.5971 C   0  0  0  0  0  0  0  0  0  0  0  0
    1.0861    0.0042   -0.3296 H   0  0  0  0  0  0  0  0  0  0  0  0
   -0.0906   -1.5239   -0.2157 H   0  0  0  0  0  0  0  0  0  0  0  0
   -2.2479   -1.9747    0.2297 H   0  0  0  0  0  0  0  0  0  0  0  0
   -2.3460    0.8251    1.3504 H   0  0  0  0  0  0  0  0  0  0  0  0
   -3.7428   -0.2219    1.0968 H   0  0  0  0  0  0  0  0  0  0  0  0
   -3.7821    0.4310   -1.3303 H   0  0  0  0  0  0  0  0  0  0  0  0
   -2.3467    1.4350   -1.0771 H   0  0  0  0  0  0  0  0  0  0  0  0
   -3.8729    1.8616   -0.2951 H   0  0  0  0  0  0  0  0  0  0  0  0
  1  2  1  0
  1  4  1  0
  1  5  1  0
  1  6  1  0
  2  3  2  3
  2  7  1  0
  3 13  1  0
  8  9  1  0
  9 10  1  0
  9 14  1  0
 10 11  1  0
 10 15  1  0
 11 12  1  0
 11 16  1  0
 11 17  1  0
 12 18  1  0
 12 19  1  0
 12 20  1  0
M  CHG  2   8  -1  10   1
M  RAD  1   8   2
M  END
>  <reaction>  (4) 
rmg_rxn_16689

>  <mol_properties>  (4) 
{"1": {"label": "*0", "atom_type": "Cd"}, "2": {"label": "*1", "atom_type": "N3d"}, "7": {"label": "*3", "atom_type": "N1sc"}, "8": {"label": "*4", "atom_type": "N3s"}, "12": {"label": "*2", "atom_type": "H0"}}

>  <type>  (4) 
ts

$$$$

     RDKit          3D

 20 18  0  0  0  0  0  0  0  0999 V2000
    3.3614    1.2459    0.2147 C   0  0  0  0  0  0  0  0  0  0  0  0
    3.2432   -0.1974   -0.1658 C   0  0  0  0  0  0  0  0  0  0  0  0
    2.2126   -0.8760   -0.2815 N   0  0  0  0  0  2  0  0  0  0  0  0
    2.3763    1.6682    0.3979 H   0  0  0  0  0  0  0  0  0  0  0  0
    3.8539    1.7929   -0.5879 H   0  0  0  0  0  0  0  0  0  0  0  0
    3.9746    1.3362    1.1101 H   0  0  0  0  0  0  0  0  0  0  0  0
    4.2012   -0.6925   -0.3616 H   0  0  0  0  0  0  0  0  0  0  0  0
    0.0626    0.1715    0.1560 N   0  0  0  0  0  2  0  0  0  0  0  0
   -0.6991   -0.8418   -0.0015 N   0  0  0  0  0  0  0  0  0  0  0  0
   -1.9934   -0.9232    0.1769 C   0  0  0  0  0  3  0  0  0  0  0  0
   -2.7879    0.2727    0.5780 C   0  0  0  0  0  0  0  0  0  0  0  0
   -3.3767    1.0043   -0.6334 C   0  0  0  0  0  0  0  0  0  0  0  0
    1.1885   -0.2283   -0.0443 H   0  0  0  0  0  0  0  0  0  0  0  0
   -0.2341   -1.7145   -0.2987 H   0  0  0  0  0  0  0  0  0  0  0  0
   -2.4721   -1.8605   -0.0458 H   0  0  0  0  0  0  0  0  0  0  0  0
   -2.1226    0.9531    1.1147 H   0  0  0  0  0  0  0  0  0  0  0  0
   -3.5985   -0.0323    1.2437 H   0  0  0  0  0  0  0  0  0  0  0  0
   -4.0328    0.3434   -1.1960 H   0  0  0  0  0  0  0  0  0  0  0  0
   -2.5776    1.3421   -1.2884 H   0  0  0  0  0  0  0  0  0  0  0  0
   -3.9496    1.8698   -0.3101 H   0  0  0  0  0  0  0  0  0  0  0  0
  1  2  1  0
  1  4  1  0
  1  5  1  0
  1  6  1  0
  2  3  2  0
  2  7  1  0
  8  9  1  0
  8 13  1  0
  9 10  1  0
  9 14  1  0
 10 11  1  0
 10 15  1  0
 11 12  1  0
 11 16  1  0
 11 17  1  0
 12 18  1  0
 12 19  1  0
 12 20  1  0
M  CHG  2   8  -1  10   1
M  RAD  1   3   2
M  END
>  <reaction>  (5) 
rmg_rxn_16689

>  <mol_properties>  (5) 
{"1": {"label": "*0", "atom_type": "Cd"}, "2": {"label": "*1", "atom_type": "N3d"}, "7": {"label": "*3", "atom_type": "N1sc"}, "8": {"label": "*4", "atom_type": "N3s"}, "12": {"label": "*2", "atom_type": "H0"}}

>  <type>  (5) 
unop_1

>  <geom_source>  (5) 
crest_best.xyz

$$$$

     RDKit          3D

 20 18  0  0  0  0  0  0  0  0999 V2000
    3.8873    1.6959    0.6669 C   0  0  0  0  0  0  0  0  0  0  0  0
    2.4893    1.2525    0.9426 C   0  0  0  0  0  0  0  0  0  0  0  0
    1.5157    1.6341    0.2335 N   0  0  0  0  0  2  0  0  0  0  0  0
    4.2981    2.2126    1.5380 H   0  0  0  0  0  0  0  0  0  0  0  0
    3.9107    2.3603   -0.1951 H   0  0  0  0  0  0  0  0  0  0  0  0
    4.5277    0.8303    0.4789 H   0  0  0  0  0  0  0  0  0  0  0  0
    2.3659    0.5763    1.7983 H   0  0  0  0  0  0  0  0  0  0  0  0
   -0.0143   -0.2105   -0.2185 N   0  0  0  0  0  2  0  0  0  0  0  0
   -1.1739    0.1371    0.2792 N   0  0  0  0  0  0  0  0  0  0  0  0
   -2.2584   -0.5899    0.2911 C   0  0  0  0  0  3  0  0  0  0  0  0
   -2.2584   -1.9542   -0.2951 C   0  0  0  0  0  0  0  0  0  0  0  0
   -2.2584   -1.9542   -1.8285 C   0  0  0  0  0  0  0  0  0  0  0  0
    0.7494    0.7102    0.0071 H   0  0  0  0  0  0  0  0  0  0  0  0
   -1.2743    1.0539    0.7072 H   0  0  0  0  0  0  0  0  0  0  0  0
   -3.1291   -0.1305    0.7333 H   0  0  0  0  0  0  0  0  0  0  0  0
   -3.1270   -2.4981    0.0799 H   0  0  0  0  0  0  0  0  0  0  0  0
   -1.3604   -2.4753    0.0536 H   0  0  0  0  0  0  0  0  0  0  0  0
   -1.3868   -1.4172   -2.2024 H   0  0  0  0  0  0  0  0  0  0  0  0
   -3.1586   -1.4768   -2.2197 H   0  0  0  0  0  0  0  0  0  0  0  0
   -2.2216   -2.9758   -2.2099 H   0  0  0  0  0  0  0  0  0  0  0  0
  1  2  1  0
  1  4  1  0
  1  5  1  0
  1  6  1  0
  2  3  2  0
  2  7  1  0
  8  9  1  0
  8 13  1  0
  9 10  1  0
  9 14  1  0
 10 11  1  0
 10 15  1  0
 11 12  1  0
 11 16  1  0
 11 17  1  0
 12 18  1  0
 12 19  1  0
 12 20  1  0
M  CHG  2   8  -1  10   1
M  RAD  1   3   2
M  END
>  <reaction>  (6) 
rmg_rxn_16689

>  <mol_properties>  (6) 
{"1": {"label": "*0", "atom_type": "Cd"}, "2": {"label": "*1", "atom_type": "N3d"}, "7": {"label": "*3", "atom_type": "N1sc"}, "8": {"label": "*4", "atom_type": "N3s"}, "12": {"label": "*2", "atom_type": "H0"}}

>  <type>  (6) 
unop_2

>  <geom_source>  (6) 
Heuristics

$$$$

     RDKit          3D

 20 18  0  0  0  0  0  0  0  0999 V2000
    2.5427    2.8080    1.8032 C   0  0  0  0  0  0  0  0  0  0  0  0
    1.5800    1.9334    1.0715 C   0  0  0  0  0  0  0  0  0  0  0  0
    1.9025    1.3259    0.0116 N   0  0  0  0  0  2  0  0  0  0  0  0
    2.1492    3.8252    1.8746 H   0  0  0  0  0  0  0  0  0  0  0  0
    3.5035    2.8242    1.2918 H   0  0  0  0  0  0  0  0  0  0  0  0
    2.6787    2.4468    2.8257 H   0  0  0  0  0  0  0  0  0  0  0  0
    0.5789    1.8546    1.5146 H   0  0  0  0  0  0  0  0  0  0  0  0
    0.3725   -0.5187   -0.4404 N   0  0  0  0  0  2  0  0  0  0  0  0
   -0.7872   -0.1711    0.0573 N   0  0  0  0  0  0  0  0  0  0  0  0
   -1.8716   -0.8981    0.0691 C   0  0  0  0  0  3  0  0  0  0  0  0
   -1.8716   -2.2624   -0.5170 C   0  0  0  0  0  0  0  0  0  0  0  0
   -1.8716   -2.2624   -2.0504 C   0  0  0  0  0  0  0  0  0  0  0  0
    1.1362    0.4020   -0.2148 H   0  0  0  0  0  0  0  0  0  0  0  0
   -0.8875    0.7457    0.4853 H   0  0  0  0  0  0  0  0  0  0  0  0
   -2.7423   -0.4387    0.5114 H   0  0  0  0  0  0  0  0  0  0  0  0
   -2.7402   -2.8063   -0.1420 H   0  0  0  0  0  0  0  0  0  0  0  0
   -0.9736   -2.7835   -0.1683 H   0  0  0  0  0  0  0  0  0  0  0  0
   -1.0001   -1.7254   -2.4243 H   0  0  0  0  0  0  0  0  0  0  0  0
   -2.7718   -1.7850   -2.4416 H   0  0  0  0  0  0  0  0  0  0  0  0
   -1.8348   -3.2840   -2.4318 H   0  0  0  0  0  0  0  0  0  0  0  0
  1  2  1  0
  1  4  1  0
  1  5  1  0
  1  6  1  0
  2  3  2  0
  2  7  1  0
  8  9  1  0
  8 13  1  0
  9 10  1  0
  9 14  1  0
 10 11  1  0
 10 15  1  0
 11 12  1  0
 11 16  1  0
 11 17  1  0
 12 18  1  0
 12 19  1  0
 12 20  1  0
M  CHG  2   8  -1  10   1
M  RAD  1   3   2
M  END
>  <reaction>  (7) 
rmg_rxn_16689

>  <mol_properties>  (7) 
{"1": {"label": "*0", "atom_type": "Cd"}, "2": {"label": "*1", "atom_type": "N3d"}, "7": {"label": "*3", "atom_type": "N1sc"}, "8": {"label": "*4", "atom_type": "N3s"}, "12": {"label": "*2", "atom_type": "H0"}}

>  <type>  (7) 
unop_3

>  <geom_source>  (7) 
Heuristics

$$$$

     RDKit          3D

 20 18  0  0  0  0  0  0  0  0999 V2000
    3.8538    2.0060    0.1444 C   0  0  0  0  0  0  0  0  0  0  0  0
    2.6759    1.1753    0.5308 C   0  0  0  0  0  0  0  0  0  0  0  0
    1.4910    1.5920    0.3934 N   0  0  0  0  0  2  0  0  0  0  0  0
    4.5025    2.1665    1.0094 H   0  0  0  0  0  0  0  0  0  0  0  0
    3.5268    2.9669   -0.2489 H   0  0  0  0  0  0  0  0  0  0  0  0
    4.4511    1.4865   -0.6094 H   0  0  0  0  0  0  0  0  0  0  0  0
    2.9081    0.1836    0.9400 H   0  0  0  0  0  0  0  0  0  0  0  0
   -0.0390   -0.2526   -0.0587 N   0  0  0  0  0  2  0  0  0  0  0  0
   -1.1986    0.0950    0.4390 N   0  0  0  0  0  0  0  0  0  0  0  0
   -2.2831   -0.6321    0.4509 C   0  0  0  0  0  3  0  0  0  0  0  0
   -2.2831   -1.9963   -0.1352 C   0  0  0  0  0  0  0  0  0  0  0  0
   -2.2831   -1.9963   -1.6686 C   0  0  0  0  0  0  0  0  0  0  0  0
    0.7247    0.6681    0.1670 H   0  0  0  0  0  0  0  0  0  0  0  0
   -1.2990    1.0118    0.8670 H   0  0  0  0  0  0  0  0  0  0  0  0
   -3.1538   -0.1726    0.8931 H   0  0  0  0  0  0  0  0  0  0  0  0
   -3.1516   -2.5402    0.2398 H   0  0  0  0  0  0  0  0  0  0  0  0
   -1.3851   -2.5175    0.2134 H   0  0  0  0  0  0  0  0  0  0  0  0
   -1.4115   -1.4594   -2.0425 H   0  0  0  0  0  0  0  0  0  0  0  0
   -3.1833   -1.5189   -2.0598 H   0  0  0  0  0  0  0  0  0  0  0  0
   -2.2462   -3.0179   -2.0500 H   0  0  0  0  0  0  0  0  0  0  0  0
  1  2  1  0
  1  4  1  0
  1  5  1  0
  1  6  1  0
  2  3  2  0
  2  7  1  0
  8  9  1  0
  8 13  1  0
  9 10  1  0
  9 14  1  0
 10 11  1  0
 10 15  1  0
 11 12  1  0
 11 16  1  0
 11 17  1  0
 12 18  1  0
 12 19  1  0
 12 20  1  0
M  CHG  2   8  -1  10   1
M  RAD  1   3   2
M  END
>  <reaction>  (8) 
rmg_rxn_16689

>  <mol_properties>  (8) 
{"1": {"label": "*0", "atom_type": "Cd"}, "2": {"label": "*1", "atom_type": "N3d"}, "7": {"label": "*3", "atom_type": "N1sc"}, "8": {"label": "*4", "atom_type": "N3s"}, "12": {"label": "*2", "atom_type": "H0"}}

>  <type>  (8) 
unop_4

>  <geom_source>  (8) 
Heuristics

$$$$

     RDKit          3D

 20 18  0  0  0  0  0  0  0  0999 V2000
    2.4686    3.2816   -0.4846 C   0  0  0  0  0  0  0  0  0  0  0  0
    1.5208    2.2569    0.0435 C   0  0  0  0  0  0  0  0  0  0  0  0
    1.9253    1.1891    0.5844 N   0  0  0  0  0  2  0  0  0  0  0  0
    2.2936    3.4433   -1.5513 H   0  0  0  0  0  0  0  0  0  0  0  0
    3.4974    2.9617   -0.3287 H   0  0  0  0  0  0  0  0  0  0  0  0
    2.3042    4.2403    0.0140 H   0  0  0  0  0  0  0  0  0  0  0  0
    0.4549    2.4932   -0.0696 H   0  0  0  0  0  0  0  0  0  0  0  0
    0.3953   -0.6554    0.1324 N   0  0  0  0  0  2  0  0  0  0  0  0
   -0.7644   -0.3078    0.6301 N   0  0  0  0  0  0  0  0  0  0  0  0
   -1.8488   -1.0349    0.6420 C   0  0  0  0  0  3  0  0  0  0  0  0
   -1.8488   -2.3991    0.0558 C   0  0  0  0  0  0  0  0  0  0  0  0
   -1.8488   -2.3991   -1.4776 C   0  0  0  0  0  0  0  0  0  0  0  0
    1.1590    0.2653    0.3580 H   0  0  0  0  0  0  0  0  0  0  0  0
   -0.8647    0.6090    1.0581 H   0  0  0  0  0  0  0  0  0  0  0  0
   -2.7195   -0.5754    1.0842 H   0  0  0  0  0  0  0  0  0  0  0  0
   -2.7174   -2.9430    0.4308 H   0  0  0  0  0  0  0  0  0  0  0  0
   -0.9508   -2.9203    0.4045 H   0  0  0  0  0  0  0  0  0  0  0  0
   -0.9773   -1.8622   -1.8514 H   0  0  0  0  0  0  0  0  0  0  0  0
   -2.7490   -1.9217   -1.8688 H   0  0  0  0  0  0  0  0  0  0  0  0
   -1.8120   -3.4208   -1.8590 H   0  0  0  0  0  0  0  0  0  0  0  0
  1  2  1  0
  1  4  1  0
  1  5  1  0
  1  6  1  0
  2  3  2  0
  2  7  1  0
  8  9  1  0
  8 13  1  0
  9 10  1  0
  9 14  1  0
 10 11  1  0
 10 15  1  0
 11 12  1  0
 11 16  1  0
 11 17  1  0
 12 18  1  0
 12 19  1  0
 12 20  1  0
M  CHG  2   8  -1  10   1
M  RAD  1   3   2
M  END
>  <reaction>  (9) 
rmg_rxn_16689

>  <mol_properties>  (9) 
{"1": {"label": "*0", "atom_type": "Cd"}, "2": {"label": "*1", "atom_type": "N3d"}, "7": {"label": "*3", "atom_type": "N1sc"}, "8": {"label": "*4", "atom_type": "N3s"}, "12": {"label": "*2", "atom_type": "H0"}}

>  <type>  (9) 
unop_5

>  <geom_source>  (9) 
Heuristics

$$$$

     RDKit          3D

 20 18  0  0  0  0  0  0  0  0999 V2000
    3.7872    2.2504    0.1684 C   0  0  0  0  0  0  0  0  0  0  0  0
    2.6602    1.2829    0.0238 C   0  0  0  0  0  0  0  0  0  0  0  0
    1.5054    1.5311    0.4723 N   0  0  0  0  0  2  0  0  0  0  0  0
    4.6120    1.7896    0.7179 H   0  0  0  0  0  0  0  0  0  0  0  0
    3.4540    3.1439    0.6935 H   0  0  0  0  0  0  0  0  0  0  0  0
    4.1753    2.5275   -0.8150 H   0  0  0  0  0  0  0  0  0  0  0  0
    2.9020    0.3467   -0.4957 H   0  0  0  0  0  0  0  0  0  0  0  0
   -0.0246   -0.3134    0.0203 N   0  0  0  0  0  2  0  0  0  0  0  0
   -1.1842    0.0341    0.5180 N   0  0  0  0  0  0  0  0  0  0  0  0
   -2.2687   -0.6929    0.5298 C   0  0  0  0  0  3  0  0  0  0  0  0
   -2.2687   -2.0571   -0.0563 C   0  0  0  0  0  0  0  0  0  0  0  0
   -2.2687   -2.0571   -1.5897 C   0  0  0  0  0  0  0  0  0  0  0  0
    0.7391    0.6073    0.2459 H   0  0  0  0  0  0  0  0  0  0  0  0
   -1.2846    0.9510    0.9460 H   0  0  0  0  0  0  0  0  0  0  0  0
   -3.1394   -0.2334    0.9721 H   0  0  0  0  0  0  0  0  0  0  0  0
   -3.1373   -2.6011    0.3187 H   0  0  0  0  0  0  0  0  0  0  0  0
   -1.3707   -2.5783    0.2924 H   0  0  0  0  0  0  0  0  0  0  0  0
   -1.3972   -1.5202   -1.9636 H   0  0  0  0  0  0  0  0  0  0  0  0
   -3.1689   -1.5798   -1.9809 H   0  0  0  0  0  0  0  0  0  0  0  0
   -2.2319   -3.0788   -1.9711 H   0  0  0  0  0  0  0  0  0  0  0  0
  1  2  1  0
  1  4  1  0
  1  5  1  0
  1  6  1  0
  2  3  2  0
  2  7  1  0
  8  9  1  0
  8 13  1  0
  9 10  1  0
  9 14  1  0
 10 11  1  0
 10 15  1  0
 11 12  1  0
 11 16  1  0
 11 17  1  0
 12 18  1  0
 12 19  1  0
 12 20  1  0
M  CHG  2   8  -1  10   1
M  RAD  1   3   2
M  END
>  <reaction>  (10) 
rmg_rxn_16689

>  <mol_properties>  (10) 
{"1": {"label": "*0", "atom_type": "Cd"}, "2": {"label": "*1", "atom_type": "N3d"}, "7": {"label": "*3", "atom_type": "N1sc"}, "8": {"label": "*4", "atom_type": "N3s"}, "12": {"label": "*2", "atom_type": "H0"}}

>  <type>  (10) 
unop_6

>  <geom_source>  (10) 
Heuristics

$$$$

     RDKit          3D

 20 18  0  0  0  0  0  0  0  0999 V2000
    3.0296    2.7706   -0.7651 C   0  0  0  0  0  0  0  0  0  0  0  0
    1.7757    2.1375   -0.2611 C   0  0  0  0  0  0  0  0  0  0  0  0
    1.7843    1.2990    0.6840 N   0  0  0  0  0  2  0  0  0  0  0  0
    3.1616    2.5526   -1.8280 H   0  0  0  0  0  0  0  0  0  0  0  0
    3.8896    2.4030   -0.2083 H   0  0  0  0  0  0  0  0  0  0  0  0
    2.9688    3.8577   -0.6683 H   0  0  0  0  0  0  0  0  0  0  0  0
    0.8513    2.4484   -0.7647 H   0  0  0  0  0  0  0  0  0  0  0  0
    0.2544   -0.5456    0.2319 N   0  0  0  0  0  2  0  0  0  0  0  0
   -0.9053   -0.1980    0.7296 N   0  0  0  0  0  0  0  0  0  0  0  0
   -1.9898   -0.9250    0.7415 C   0  0  0  0  0  3  0  0  0  0  0  0
   -1.9898   -2.2893    0.1554 C   0  0  0  0  0  0  0  0  0  0  0  0
   -1.9898   -2.2893   -1.3780 C   0  0  0  0  0  0  0  0  0  0  0  0
    1.0180    0.3751    0.4576 H   0  0  0  0  0  0  0  0  0  0  0  0
   -1.0057    0.7188    1.1576 H   0  0  0  0  0  0  0  0  0  0  0  0
   -2.8604   -0.4656    1.1837 H   0  0  0  0  0  0  0  0  0  0  0  0
   -2.8583   -2.8332    0.5304 H   0  0  0  0  0  0  0  0  0  0  0  0
   -1.0918   -2.8104    0.5041 H   0  0  0  0  0  0  0  0  0  0  0  0
   -1.1182   -1.7523   -1.7519 H   0  0  0  0  0  0  0  0  0  0  0  0
   -2.8900   -1.8119   -1.7692 H   0  0  0  0  0  0  0  0  0  0  0  0
   -1.9529   -3.3109   -1.7594 H   0  0  0  0  0  0  0  0  0  0  0  0
  1  2  1  0
  1  4  1  0
  1  5  1  0
  1  6  1  0
  2  3  2  0
  2  7  1  0
  8  9  1  0
  8 13  1  0
  9 10  1  0
  9 14  1  0
 10 11  1  0
 10 15  1  0
 11 12  1  0
 11 16  1  0
 11 17  1  0
 12 18  1  0
 12 19  1  0
 12 20  1  0
M  CHG  2   8  -1  10   1
M  RAD  1   3   2
M  END
>  <reaction>  (11) 
rmg_rxn_16689

>  <mol_properties>  (11) 
{"1": {"label": "*0", "atom_type": "Cd"}, "2": {"label": "*1", "atom_type": "N3d"}, "7": {"label": "*3", "atom_type": "N1sc"}, "8": {"label": "*4", "atom_type": "N3s"}, "12": {"label": "*2", "atom_type": "H0"}}

>  <type>  (11) 
unop_7

>  <geom_source>  (11) 
Heuristics

$$$$

     RDKit          3D

 20 18  0  0  0  0  0  0  0  0999 V2000
    3.5428    2.2781   -0.5425 C   0  0  0  0  0  0  0  0  0  0  0  0
    2.1054    1.9013   -0.4052 C   0  0  0  0  0  0  0  0  0  0  0  0
    1.6396    1.4248    0.6683 N   0  0  0  0  0  2  0  0  0  0  0  0
    4.0047    1.7139   -1.3568 H   0  0  0  0  0  0  0  0  0  0  0  0
    4.0762    2.0807    0.3857 H   0  0  0  0  0  0  0  0  0  0  0  0
    3.6326    3.3370   -0.7978 H   0  0  0  0  0  0  0  0  0  0  0  0
    1.4845    2.0655   -1.2954 H   0  0  0  0  0  0  0  0  0  0  0  0
    0.1096   -0.4198    0.2163 N   0  0  0  0  0  2  0  0  0  0  0  0
   -1.0500   -0.0722    0.7140 N   0  0  0  0  0  0  0  0  0  0  0  0
   -2.1345   -0.7992    0.7258 C   0  0  0  0  0  3  0  0  0  0  0  0
   -2.1345   -2.1635    0.1397 C   0  0  0  0  0  0  0  0  0  0  0  0
   -2.1345   -2.1635   -1.3937 C   0  0  0  0  0  0  0  0  0  0  0  0
    0.8733    0.5009    0.4419 H   0  0  0  0  0  0  0  0  0  0  0  0
   -1.1504    0.8446    1.1419 H   0  0  0  0  0  0  0  0  0  0  0  0
   -3.0052   -0.3398    1.1681 H   0  0  0  0  0  0  0  0  0  0  0  0
   -3.0031   -2.7074    0.5147 H   0  0  0  0  0  0  0  0  0  0  0  0
   -1.2365   -2.6846    0.4884 H   0  0  0  0  0  0  0  0  0  0  0  0
   -1.2629   -1.6265   -1.7676 H   0  0  0  0  0  0  0  0  0  0  0  0
   -3.0347   -1.6861   -1.7849 H   0  0  0  0  0  0  0  0  0  0  0  0
   -2.0977   -3.1851   -1.7751 H   0  0  0  0  0  0  0  0  0  0  0  0
  1  2  1  0
  1  4  1  0
  1  5  1  0
  1  6  1  0
  2  3  2  0
  2  7  1  0
  8  9  1  0
  8 13  1  0
  9 10  1  0
  9 14  1  0
 10 11  1  0
 10 15  1  0
 11 12  1  0
 11 16  1  0
 11 17  1  0
 12 18  1  0
 12 19  1  0
 12 20  1  0
M  CHG  2   8  -1  10   1
M  RAD  1   3   2
M  END
>  <reaction>  (12) 
rmg_rxn_16689

>  <mol_properties>  (12) 
{"1": {"label": "*0", "atom_type": "Cd"}, "2": {"label": "*1", "atom_type": "N3d"}, "7": {"label": "*3", "atom_type": "N1sc"}, "8": {"label": "*4", "atom_type": "N3s"}, "12": {"label": "*2", "atom_type": "H0"}}

>  <type>  (12) 
unop_8

>  <geom_source>  (12) 
Heuristics

$$$$

     RDKit          3D

 20 18  0  0  0  0  0  0  0  0999 V2000
    3.6371    1.7441    1.3674 C   0  0  0  0  0  0  0  0  0  0  0  0
    2.1873    1.4421    1.1835 C   0  0  0  0  0  0  0  0  0  0  0  0
    1.6095    1.5944    0.0702 N   0  0  0  0  0  2  0  0  0  0  0  0
    3.7689    2.5057    2.1402 H   0  0  0  0  0  0  0  0  0  0  0  0
    4.0724    2.0942    0.4330 H   0  0  0  0  0  0  0  0  0  0  0  0
    4.1686    0.8512    1.7064 H   0  0  0  0  0  0  0  0  0  0  0  0
    1.6607    1.0808    2.0762 H   0  0  0  0  0  0  0  0  0  0  0  0
    0.0795   -0.2501   -0.3818 N   0  0  0  0  0  2  0  0  0  0  0  0
   -1.0801    0.0975    0.1159 N   0  0  0  0  0  0  0  0  0  0  0  0
   -2.1646   -0.6296    0.1278 C   0  0  0  0  0  3  0  0  0  0  0  0
   -2.1646   -1.9938   -0.4584 C   0  0  0  0  0  0  0  0  0  0  0  0
   -2.1646   -1.9938   -1.9918 C   0  0  0  0  0  0  0  0  0  0  0  0
    0.8432    0.6706   -0.1562 H   0  0  0  0  0  0  0  0  0  0  0  0
   -1.1805    1.0143    0.5439 H   0  0  0  0  0  0  0  0  0  0  0  0
   -3.0353   -0.1701    0.5700 H   0  0  0  0  0  0  0  0  0  0  0  0
   -3.0332   -2.5377   -0.0834 H   0  0  0  0  0  0  0  0  0  0  0  0
   -1.2666   -2.5150   -0.1097 H   0  0  0  0  0  0  0  0  0  0  0  0
   -1.2931   -1.4569   -2.3656 H   0  0  0  0  0  0  0  0  0  0  0  0
   -3.0648   -1.5164   -2.3830 H   0  0  0  0  0  0  0  0  0  0  0  0
   -2.1278   -3.0155   -2.3732 H   0  0  0  0  0  0  0  0  0  0  0  0
  1  2  1  0
  1  4  1  0
  1  5  1  0
  1  6  1  0
  2  3  2  0
  2  7  1  0
  8  9  1  0
  8 13  1  0
  9 10  1  0
  9 14  1  0
 10 11  1  0
 10 15  1  0
 11 12  1  0
 11 16  1  0
 11 17  1  0
 12 18  1  0
 12 19  1  0
 12 20  1  0
M  CHG  2   8  -1  10   1
M  RAD  1   3   2
M  END
>  <reaction>  (13) 
rmg_rxn_16689

>  <mol_properties>  (13) 
{"1": {"label": "*0", "atom_type": "Cd"}, "2": {"label": "*1", "atom_type": "N3d"}, "7": {"label": "*3", "atom_type": "N1sc"}, "8": {"label": "*4", "atom_type": "N3s"}, "12": {"label": "*2", "atom_type": "H0"}}

>  <type>  (13) 
unop_9

>  <geom_source>  (13) 
Heuristics

$$$$

     RDKit          3D

 20 18  0  0  0  0  0  0  0  0999 V2000
    3.3614    1.2459    0.2147 C   0  0  0  0  0  0  0  0  0  0  0  0
    3.2432   -0.1974   -0.1658 C   0  0  0  0  0  0  0  0  0  0  0  0
    2.2126   -0.8760   -0.2815 N   0  0  0  0  0  2  0  0  0  0  0  0
    2.3763    1.6682    0.3979 H   0  0  0  0  0  0  0  0  0  0  0  0
    3.8539    1.7929   -0.5879 H   0  0  0  0  0  0  0  0  0  0  0  0
    3.9746    1.3362    1.1101 H   0  0  0  0  0  0  0  0  0  0  0  0
    4.2012   -0.6925   -0.3616 H   0  0  0  0  0  0  0  0  0  0  0  0
    0.0626    0.1715    0.1560 N   0  0  0  0  0  2  0  0  0  0  0  0
   -0.6991   -0.8418   -0.0015 N   0  0  0  0  0  0  0  0  0  0  0  0
   -1.9934   -0.9232    0.1769 C   0  0  0  0  0  3  0  0  0  0  0  0
   -2.7879    0.2727    0.5780 C   0  0  0  0  0  0  0  0  0  0  0  0
   -3.3767    1.0043   -0.6334 C   0  0  0  0  0  0  0  0  0  0  0  0
    1.1885   -0.2283   -0.0443 H   0  0  0  0  0  0  0  0  0  0  0  0
   -0.2341   -1.7145   -0.2987 H   0  0  0  0  0  0  0  0  0  0  0  0
   -2.4721   -1.8605   -0.0458 H   0  0  0  0  0  0  0  0  0  0  0  0
   -2.1226    0.9531    1.1147 H   0  0  0  0  0  0  0  0  0  0  0  0
   -3.5985   -0.0323    1.2437 H   0  0  0  0  0  0  0  0  0  0  0  0
   -4.0328    0.3434   -1.1960 H   0  0  0  0  0  0  0  0  0  0  0  0
   -2.5776    1.3421   -1.2884 H   0  0  0  0  0  0  0  0  0  0  0  0
   -3.9496    1.8698   -0.3101 H   0  0  0  0  0  0  0  0  0  0  0  0
  1  2  1  0
  1  4  1  0
  1  5  1  0
  1  6  1  0
  2  3  2  0
  2  7  1  0
  8  9  1  0
  8 13  1  0
  9 10  1  0
  9 14  1  0
 10 11  1  0
 10 15  1  0
 11 12  1  0
 11 16  1  0
 11 17  1  0
 12 18  1  0
 12 19  1  0
 12 20  1  0
M  CHG  2   8  -1  10   1
M  RAD  1   3   2
M  END
>  <reaction>  (14) 
rmg_rxn_16689

>  <mol_properties>  (14) 
{"1": {"label": "*0", "atom_type": "Cd"}, "2": {"label": "*1", "atom_type": "N3d"}, "7": {"label": "*3", "atom_type": "N1sc"}, "8": {"label": "*4", "atom_type": "N3s"}, "12": {"label": "*2", "atom_type": "H0"}}

>  <type>  (14) 
unop_10

>  <geom_source>  (14) 
Heuristics

$$$$

     RDKit          3D

 20 18  0  0  0  0  0  0  0  0999 V2000
    2.1036    3.5499    0.2619 C   0  0  0  0  0  0  0  0  0  0  0  0
    1.3948    2.2463    0.4213 C   0  0  0  0  0  0  0  0  0  0  0  0
    2.0104    1.1435    0.3906 N   0  0  0  0  0  2  0  0  0  0  0  0
    1.7035    4.0945   -0.5972 H   0  0  0  0  0  0  0  0  0  0  0  0
    3.1709    3.3862    0.1245 H   0  0  0  0  0  0  0  0  0  0  0  0
    1.9403    4.1782    1.1413 H   0  0  0  0  0  0  0  0  0  0  0  0
    0.3087    2.3112    0.5661 H   0  0  0  0  0  0  0  0  0  0  0  0
    0.4804   -0.7011   -0.0615 N   0  0  0  0  0  2  0  0  0  0  0  0
   -0.6792   -0.3535    0.4362 N   0  0  0  0  0  0  0  0  0  0  0  0
   -1.7637   -1.0805    0.4481 C   0  0  0  0  0  3  0  0  0  0  0  0
   -1.7637   -2.4448   -0.1380 C   0  0  0  0  0  0  0  0  0  0  0  0
   -1.7637   -2.4448   -1.6714 C   0  0  0  0  0  0  0  0  0  0  0  0
    1.2441    0.2196    0.1642 H   0  0  0  0  0  0  0  0  0  0  0  0
   -0.7796    0.5633    0.8642 H   0  0  0  0  0  0  0  0  0  0  0  0
   -2.6344   -0.6211    0.8903 H   0  0  0  0  0  0  0  0  0  0  0  0
   -2.6322   -2.9887    0.2370 H   0  0  0  0  0  0  0  0  0  0  0  0
   -0.8657   -2.9660    0.2106 H   0  0  0  0  0  0  0  0  0  0  0  0
   -0.8921   -1.9078   -2.0453 H   0  0  0  0  0  0  0  0  0  0  0  0
   -2.6639   -1.9674   -2.0626 H   0  0  0  0  0  0  0  0  0  0  0  0
   -1.7268   -3.4664   -2.0528 H   0  0  0  0  0  0  0  0  0  0  0  0
  1  2  1  0
  1  4  1  0
  1  5  1  0
  1  6  1  0
  2  3  2  0
  2  7  1  0
  8  9  1  0
  8 13  1  0
  9 10  1  0
  9 14  1  0
 10 11  1  0
 10 15  1  0
 11 12  1  0
 11 16  1  0
 11 17  1  0
 12 18  1  0
 12 19  1  0
 12 20  1  0
M  CHG  2   8  -1  10   1
M  RAD  1   3   2
M  END
>  <reaction>  (15) 
rmg_rxn_16689

>  <mol_properties>  (15) 
{"1": {"label": "*0", "atom_type": "Cd"}, "2": {"label": "*1", "atom_type": "N3d"}, "7": {"label": "*3", "atom_type": "N1sc"}, "8": {"label": "*4", "atom_type": "N3s"}, "12": {"label": "*2", "atom_type": "H0"}}

>  <type>  (15) 
unop_11

>  <geom_source>  (15) 
Heuristics

$$$$

     RDKit          3D

 20 18  0  0  0  0  0  0  0  0999 V2000
    3.1305    2.1632    1.8387 C   0  0  0  0  0  0  0  0  0  0  0  0
    1.8566    1.6895    1.2222 C   0  0  0  0  0  0  0  0  0  0  0  0
    1.7532    1.4798   -0.0194 N   0  0  0  0  0  2  0  0  0  0  0  0
    2.9703    3.1148    2.3521 H   0  0  0  0  0  0  0  0  0  0  0  0
    3.8976    2.2855    1.0760 H   0  0  0  0  0  0  0  0  0  0  0  0
    3.4739    1.4491    2.5915 H   0  0  0  0  0  0  0  0  0  0  0  0
    1.0210    1.5368    1.9173 H   0  0  0  0  0  0  0  0  0  0  0  0
    0.2232   -0.3647   -0.4714 N   0  0  0  0  0  2  0  0  0  0  0  0
   -0.9364   -0.0172    0.0263 N   0  0  0  0  0  0  0  0  0  0  0  0
   -2.0209   -0.7442    0.0381 C   0  0  0  0  0  3  0  0  0  0  0  0
   -2.0209   -2.1084   -0.5480 C   0  0  0  0  0  0  0  0  0  0  0  0
   -2.0209   -2.1084   -2.0814 C   0  0  0  0  0  0  0  0  0  0  0  0
    0.9869    0.5560   -0.2458 H   0  0  0  0  0  0  0  0  0  0  0  0
   -1.0368    0.8996    0.4543 H   0  0  0  0  0  0  0  0  0  0  0  0
   -2.8916   -0.2848    0.4804 H   0  0  0  0  0  0  0  0  0  0  0  0
   -2.8894   -2.6524   -0.1730 H   0  0  0  0  0  0  0  0  0  0  0  0
   -1.1229   -2.6296   -0.1993 H   0  0  0  0  0  0  0  0  0  0  0  0
   -1.1493   -1.5715   -2.4553 H   0  0  0  0  0  0  0  0  0  0  0  0
   -2.9211   -1.6311   -2.4726 H   0  0  0  0  0  0  0  0  0  0  0  0
   -1.9840   -3.1301   -2.4628 H   0  0  0  0  0  0  0  0  0  0  0  0
  1  2  1  0
  1  4  1  0
  1  5  1  0
  1  6  1  0
  2  3  2  0
  2  7  1  0
  8  9  1  0
  8 13  1  0
  9 10  1  0
  9 14  1  0
 10 11  1  0
 10 15  1  0
 11 12  1  0
 11 16  1  0
 11 17  1  0
 12 18  1  0
 12 19  1  0
 12 20  1  0
M  CHG  2   8  -1  10   1
M  RAD  1   3   2
M  END
>  <reaction>  (16) 
rmg_rxn_16689

>  <mol_properties>  (16) 
{"1": {"label": "*0", "atom_type": "Cd"}, "2": {"label": "*1", "atom_type": "N3d"}, "7": {"label": "*3", "atom_type": "N1sc"}, "8": {"label": "*4", "atom_type": "N3s"}, "12": {"label": "*2", "atom_type": "H0"}}

>  <type>  (16) 
unop_12

>  <geom_source>  (16) 
Heuristics

$$$$

     RDKit          3D

 20 18  0  0  0  0  0  0  0  0999 V2000
    3.8050    2.0886   -0.0271 C   0  0  0  0  0  0  0  0  0  0  0  0
    2.4314    1.5883   -0.3273 C   0  0  0  0  0  0  0  0  0  0  0  0
    1.5398    1.5096    0.5644 N   0  0  0  0  0  2  0  0  0  0  0  0
    4.5469    1.3245   -0.2728 H   0  0  0  0  0  0  0  0  0  0  0  0
    3.8898    2.3535    1.0253 H   0  0  0  0  0  0  0  0  0  0  0  0
    4.0315    2.9622   -0.6436 H   0  0  0  0  0  0  0  0  0  0  0  0
    2.2501    1.2953   -1.3694 H   0  0  0  0  0  0  0  0  0  0  0  0
    0.0098   -0.3349    0.1124 N   0  0  0  0  0  2  0  0  0  0  0  0
   -1.1499    0.0126    0.6101 N   0  0  0  0  0  0  0  0  0  0  0  0
   -2.2343   -0.7144    0.6220 C   0  0  0  0  0  3  0  0  0  0  0  0
   -2.2343   -2.0787    0.0359 C   0  0  0  0  0  0  0  0  0  0  0  0
   -2.2343   -2.0787   -1.4975 C   0  0  0  0  0  0  0  0  0  0  0  0
    0.7735    0.5858    0.3380 H   0  0  0  0  0  0  0  0  0  0  0  0
   -1.2502    0.9294    1.0381 H   0  0  0  0  0  0  0  0  0  0  0  0
   -3.1050   -0.2550    1.0642 H   0  0  0  0  0  0  0  0  0  0  0  0
   -3.1029   -2.6226    0.4109 H   0  0  0  0  0  0  0  0  0  0  0  0
   -1.3363   -2.5998    0.3845 H   0  0  0  0  0  0  0  0  0  0  0  0
   -1.3628   -1.5417   -1.8714 H   0  0  0  0  0  0  0  0  0  0  0  0
   -3.1345   -1.6013   -1.8887 H   0  0  0  0  0  0  0  0  0  0  0  0
   -2.1975   -3.1003   -1.8789 H   0  0  0  0  0  0  0  0  0  0  0  0
  1  2  1  0
  1  4  1  0
  1  5  1  0
  1  6  1  0
  2  3  2  0
  2  7  1  0
  8  9  1  0
  8 13  1  0
  9 10  1  0
  9 14  1  0
 10 11  1  0
 10 15  1  0
 11 12  1  0
 11 16  1  0
 11 17  1  0
 12 18  1  0
 12 19  1  0
 12 20  1  0
M  CHG  2   8  -1  10   1
M  RAD  1   3   2
M  END
>  <reaction>  (17) 
rmg_rxn_16689

>  <mol_properties>  (17) 
{"1": {"label": "*0", "atom_type": "Cd"}, "2": {"label": "*1", "atom_type": "N3d"}, "7": {"label": "*3", "atom_type": "N1sc"}, "8": {"label": "*4", "atom_type": "N3s"}, "12": {"label": "*2", "atom_type": "H0"}}

>  <type>  (17) 
unop_13

>  <geom_source>  (17) 
Heuristics

$$$$

     RDKit          3D

 20 18  0  0  0  0  0  0  0  0999 V2000
    2.1287    3.3773    1.1834 C   0  0  0  0  0  0  0  0  0  0  0  0
    1.4167    2.1278    0.7848 C   0  0  0  0  0  0  0  0  0  0  0  0
    2.0024    1.1934    0.1681 N   0  0  0  0  0  2  0  0  0  0  0  0
    1.6436    4.2477    0.7343 H   0  0  0  0  0  0  0  0  0  0  0  0
    3.1696    3.3372    0.8675 H   0  0  0  0  0  0  0  0  0  0  0  0
    2.0803    3.5098    2.2673 H   0  0  0  0  0  0  0  0  0  0  0  0
    0.3560    2.0767    1.0624 H   0  0  0  0  0  0  0  0  0  0  0  0
    0.4724   -0.6511   -0.2839 N   0  0  0  0  0  2  0  0  0  0  0  0
   -0.6872   -0.3036    0.2138 N   0  0  0  0  0  0  0  0  0  0  0  0
   -1.7717   -1.0306    0.2257 C   0  0  0  0  0  3  0  0  0  0  0  0
   -1.7717   -2.3949   -0.3605 C   0  0  0  0  0  0  0  0  0  0  0  0
   -1.7717   -2.3949   -1.8939 C   0  0  0  0  0  0  0  0  0  0  0  0
    1.2361    0.2696   -0.0583 H   0  0  0  0  0  0  0  0  0  0  0  0
   -0.7876    0.6132    0.6418 H   0  0  0  0  0  0  0  0  0  0  0  0
   -2.6424   -0.5712    0.6679 H   0  0  0  0  0  0  0  0  0  0  0  0
   -2.6403   -2.9388    0.0145 H   0  0  0  0  0  0  0  0  0  0  0  0
   -0.8737   -2.9160   -0.0118 H   0  0  0  0  0  0  0  0  0  0  0  0
   -0.9001   -1.8579   -2.2677 H   0  0  0  0  0  0  0  0  0  0  0  0
   -2.6719   -1.9175   -2.2851 H   0  0  0  0  0  0  0  0  0  0  0  0
   -1.7349   -3.4165   -2.2753 H   0  0  0  0  0  0  0  0  0  0  0  0
  1  2  1  0
  1  4  1  0
  1  5  1  0
  1  6  1  0
  2  3  2  0
  2  7  1  0
  8  9  1  0
  8 13  1  0
  9 10  1  0
  9 14  1  0
 10 11  1  0
 10 15  1  0
 11 12  1  0
 11 16  1  0
 11 17  1  0
 12 18  1  0
 12 19  1  0
 12 20  1  0
M  CHG  2   8  -1  10   1
M  RAD  1   3   2
M  END
>  <reaction>  (18) 
rmg_rxn_16689

>  <mol_properties>  (18) 
{"1": {"label": "*0", "atom_type": "Cd"}, "2": {"label": "*1", "atom_type": "N3d"}, "7": {"label": "*3", "atom_type": "N1sc"}, "8": {"label": "*4", "atom_type": "N3s"}, "12": {"label": "*2", "atom_type": "H0"}}

>  <type>  (18) 
unop_14

>  <geom_source>  (18) 
Heuristics

$$$$

     RDKit          3D

 20 18  0  0  0  0  0  0  0  0999 V2000
    2.5427    2.8080    1.8032 C   0  0  0  0  0  0  0  0  0  0  0  0
    1.5800    1.9334    1.0715 C   0  0  0  0  0  0  0  0  0  0  0  0
    1.9025    1.3259    0.0116 N   0  0  0  0  0  2  0  0  0  0  0  0
    2.1492    3.8253    1.8746 H   0  0  0  0  0  0  0  0  0  0  0  0
    3.5035    2.8242    1.2918 H   0  0  0  0  0  0  0  0  0  0  0  0
    2.6787    2.4468    2.8257 H   0  0  0  0  0  0  0  0  0  0  0  0
    0.5789    1.8546    1.5146 H   0  0  0  0  0  0  0  0  0  0  0  0
    0.3725   -0.5187   -0.4404 N   0  0  0  0  0  2  0  0  0  0  0  0
   -0.7872   -0.1711    0.0573 N   0  0  0  0  0  0  0  0  0  0  0  0
   -1.8716   -0.8981    0.0692 C   0  0  0  0  0  3  0  0  0  0  0  0
   -1.8716   -2.2624   -0.5170 C   0  0  0  0  0  0  0  0  0  0  0  0
   -1.8716   -2.2624   -2.0504 C   0  0  0  0  0  0  0  0  0  0  0  0
    1.1362    0.4020   -0.2148 H   0  0  0  0  0  0  0  0  0  0  0  0
   -0.8875    0.7457    0.4853 H   0  0  0  0  0  0  0  0  0  0  0  0
   -2.7423   -0.4387    0.5114 H   0  0  0  0  0  0  0  0  0  0  0  0
   -2.7402   -2.8063   -0.1420 H   0  0  0  0  0  0  0  0  0  0  0  0
   -0.9736   -2.7835   -0.1683 H   0  0  0  0  0  0  0  0  0  0  0  0
   -1.0001   -1.7254   -2.4243 H   0  0  0  0  0  0  0  0  0  0  0  0
   -2.7718   -1.7850   -2.4416 H   0  0  0  0  0  0  0  0  0  0  0  0
   -1.8348   -3.2840   -2.4318 H   0  0  0  0  0  0  0  0  0  0  0  0
  1  2  1  0
  1  4  1  0
  1  5  1  0
  1  6  1  0
  2  3  2  0
  2  7  1  0
  8  9  1  0
  8 13  1  0
  9 10  1  0
  9 14  1  0
 10 11  1  0
 10 15  1  0
 11 12  1  0
 11 16  1  0
 11 17  1  0
 12 18  1  0
 12 19  1  0
 12 20  1  0
M  CHG  2   8  -1  10   1
M  RAD  1   3   2
M  END
>  <reaction>  (19) 
rmg_rxn_16689

>  <mol_properties>  (19) 
{"1": {"label": "*0", "atom_type": "Cd"}, "2": {"label": "*1", "atom_type": "N3d"}, "7": {"label": "*3", "atom_type": "N1sc"}, "8": {"label": "*4", "atom_type": "N3s"}, "12": {"label": "*2", "atom_type": "H0"}}

>  <type>  (19) 
unop_15

>  <geom_source>  (19) 
gaussian_log

$$$$
