
     RDKit          3D

  9  8  0  0  0  0  0  0  0  0999 V2000
   -1.2461    0.5037    0.0950 C   0  0  0  0  0  0  0  0  0  0  0  0
   -0.0155   -0.3334    0.0640 C   0  0  0  0  0  0  0  0  0  0  0  0
    1.0697    0.1457   -0.3733 N   0  0  0  0  0  0  0  0  0  0  0  0
    2.1001   -0.7834   -0.3224 O   0  0  0  0  0  0  0  0  0  0  0  0
   -2.0357    0.0440   -0.5039 H   0  0  0  0  0  0  0  0  0  0  0  0
   -1.6237    0.5897    1.1166 H   0  0  0  0  0  0  0  0  0  0  0  0
   -1.0397    1.4998   -0.2929 H   0  0  0  0  0  0  0  0  0  0  0  0
   -0.0537   -1.3634    0.4205 H   0  0  0  0  0  0  0  0  0  0  0  0
    2.8478   -0.2985   -0.6758 H   0  0  0  0  0  0  0  0  0  0  0  0
  1  2  1  0
  1  5  1  0
  1  6  1  0
  1  7  1  0
  2  3  2  3
  2  8  1  0
  3  4  1  0
  4  9  1  0
M  END
>  <reaction>  (1) 
rmg_rxn_15728

>  <mol_properties>  (1) 
{"0": {"label": "donator", "atom_type": "Cs"}, "4": {"label": "d_hydrogen", "atom_type": "H0"}}

>  <type>  (1) 
r1h

$$$$

     RDKit          3D

  8  7  0  0  0  0  0  0  0  0999 V2000
    1.7077   -0.1964   -0.0607 C   0  0  0  0  0  3  0  0  0  0  0  0
    0.4209   -0.4565    0.2808 O   0  0  0  0  0  0  0  0  0  0  0  0
   -0.4607    0.4385   -0.2968 N   0  0  0  0  0  0  0  0  0  0  0  0
   -1.6584    0.1416   -0.0244 C   0  0  0  0  0  0  0  0  0  0  0  0
    2.4163   -0.7685    0.5170 H   0  0  0  0  0  0  0  0  0  0  0  0
    1.9214    0.7645   -0.5045 H   0  0  0  0  0  0  0  0  0  0  0  0
   -2.4185    0.7953   -0.4307 H   0  0  0  0  0  0  0  0  0  0  0  0
   -1.9286   -0.7185    0.5831 H   0  0  0  0  0  0  0  0  0  0  0  0
  1  2  1  0
  1  5  1  0
  1  6  1  0
  2  3  1  0
  3  4  2  3
  4  7  1  0
  4  8  1  0
M  RAD  1   1   2
M  END
>  <reaction>  (2) 
rmg_rxn_15728

>  <mol_properties>  (2) 
{"0": {"label": "acceptor", "atom_type": "Cs"}}

>  <type>  (2) 
r2

$$$$

     RDKit          3D

  9  8  0  0  0  0  0  0  0  0999 V2000
   -1.5470   -0.0755   -0.1976 C   0  0  0  0  0  0  0  0  0  0  0  0
   -0.2885    0.4507    0.1749 O   0  0  0  0  0  0  0  0  0  0  0  0
   -0.1502    1.7216   -0.3294 N   0  0  0  0  0  0  0  0  0  0  0  0
    0.9626    2.2353   -0.0219 C   0  0  0  0  0  0  0  0  0  0  0  0
   -1.6392   -0.1356   -1.2844 H   0  0  0  0  0  0  0  0  0  0  0  0
   -2.3597    0.5337    0.2044 H   0  0  0  0  0  0  0  0  0  0  0  0
   -1.5879   -1.0750    0.2318 H   0  0  0  0  0  0  0  0  0  0  0  0
    1.1497    3.2381   -0.3820 H   0  0  0  0  0  0  0  0  0  0  0  0
    1.7060    1.7101    0.5739 H   0  0  0  0  0  0  0  0  0  0  0  0
  1  2  1  0
  1  5  1  0
  1  6  1  0
  1  7  1  0
  2  3  1  0
  3  4  2  3
  4  8  1  0
  4  9  1  0
M  END
>  <reaction>  (3) 
rmg_rxn_15728

>  <mol_properties>  (3) 
{"0": {"label": "acceptor", "atom_type": "Cs"}, "8": {"label": "a_hydrogen", "atom_type": "H0"}}

>  <type>  (3) 
r2h

$$$$

     RDKit          3D

 17 15  0  0  0  0  0  0  0  0999 V2000
    0.7630    0.2958    2.1615 C   0  0  0  0  0  3  0  0  0  0  0  0
    1.4649    0.5866    1.0141 O   0  0  0  0  0  0  0  0  0  0  0  0
    0.9432    1.7072    0.3885 N   0  0  0  0  0  0  0  0  0  0  0  0
    1.4316    1.8564   -0.7667 C   0  0  0  0  0  0  0  0  0  0  0  0
    1.3031   -0.4576    2.7266 H   0  0  0  0  0  0  0  0  0  0  0  0
    0.4451    1.1744    2.7202 H   0  0  0  0  0  0  0  0  0  0  0  0
    1.0909    2.7176   -1.3257 H   0  0  0  0  0  0  0  0  0  0  0  0
    2.1483    1.1613   -1.1957 H   0  0  0  0  0  0  0  0  0  0  0  0
   -1.4421   -0.8690    1.1207 C   0  0  0  0  0  0  0  0  0  0  0  0
   -1.3099   -0.5313   -0.2832 C   0  0  0  0  0  0  0  0  0  0  0  0
   -0.7196   -1.3239   -1.0915 N   0  0  0  0  0  0  0  0  0  0  0  0
   -0.6174   -0.7588   -2.3587 O   0  0  0  0  0  0  0  0  0  0  0  0
   -0.4190   -0.3059    1.7313 H   0  0  0  0  0  0  0  0  0  0  0  0
   -2.2982   -0.4219    1.6188 H   0  0  0  0  0  0  0  0  0  0  0  0
   -1.3112   -1.9240    1.3464 H   0  0  0  0  0  0  0  0  0  0  0  0
   -1.6545    0.4400   -0.6366 H   0  0  0  0  0  0  0  0  0  0  0  0
   -0.2040   -1.4551   -2.8719 H   0  0  0  0  0  0  0  0  0  0  0  0
  1  2  1  0
  1  5  1  0
  1  6  1  0
  2  3  1  0
  3  4  2  3
  4  7  1  0
  4  8  1  0
  9 10  1  0
  9 13  1  0
  9 14  1  0
  9 15  1  0
 10 11  2  3
 10 16  1  0
 11 12  1  0
 12 17  1  0
M  RAD  1   1   2
M  END
>  <reaction>  (4) 
rmg_rxn_15728

>  <mol_properties>  (4) 
{"0": {"label": "*3", "atom_type": "Cs"}, "1": {"label": "*4", "atom_type": "O2s"}, "8": {"label": "*1", "atom_type": "Cs"}, "9": {"label": "*0", "atom_type": "Cd"}, "12": {"label": "*2", "atom_type": "H0"}}

>  <type>  (4) 
ts

$$$$

     RDKit          3D

 17 15  0  0  0  0  0  0  0  0999 V2000
    1.4614   -0.9960    0.8310 C   0  0  0  0  0  0  0  0  0  0  0  0
    2.4747   -0.3716    0.1183 O   0  0  0  0  0  0  0  0  0  0  0  0
    2.3621    0.9141   -0.2842 N   0  0  0  0  0  0  0  0  0  0  0  0
    1.2814    1.5590   -0.2145 C   0  0  0  0  0  0  0  0  0  0  0  0
    1.8672   -1.9368    1.1888 H   0  0  0  0  0  0  0  0  0  0  0  0
    1.0471   -0.3843    1.6348 H   0  0  0  0  0  0  0  0  0  0  0  0
    1.3306    2.5768   -0.5614 H   0  0  0  0  0  0  0  0  0  0  0  0
    0.3178    1.1885    0.1263 H   0  0  0  0  0  0  0  0  0  0  0  0
   -0.6015   -1.4945   -0.7434 C   0  0  0  0  0  3  0  0  0  0  0  0
   -1.7194   -0.8957   -0.0974 C   0  0  0  0  0  0  0  0  0  0  0  0
   -1.9708    0.3561   -0.2644 N   0  0  0  0  0  0  0  0  0  0  0  0
   -3.0509    0.8293    0.4797 O   0  0  0  0  0  0  0  0  0  0  0  0
    0.4564   -1.2769    0.0600 H   0  0  0  0  0  0  0  0  0  0  0  0
   -0.6149   -2.5735   -0.8027 H   0  0  0  0  0  0  0  0  0  0  0  0
   -0.2654   -1.0006   -1.6462 H   0  0  0  0  0  0  0  0  0  0  0  0
   -2.3081   -1.4900    0.6018 H   0  0  0  0  0  0  0  0  0  0  0  0
   -3.1491    1.7510    0.2045 H   0  0  0  0  0  0  0  0  0  0  0  0
  1  2  1  0
  1  5  1  0
  1  6  1  0
  1 13  1  0
  2  3  1  0
  3  4  2  3
  4  7  1  0
  4  8  1  0
  9 10  1  0
  9 14  1  0
  9 15  1  0
 10 11  2  3
 10 16  1  0
 11 12  1  0
 12 17  1  0
M  RAD  1   9   2
M  END
>  <reaction>  (5) 
rmg_rxn_15728

>  <mol_properties>  (5) 
{"0": {"label": "*3", "atom_type": "Cs"}, "1": {"label": "*4", "atom_type": "O2s"}, "8": {"label": "*1", "atom_type": "Cs"}, "9": {"label": "*0", "atom_type": "Cd"}, "12": {"label": "*2", "atom_type": "H0"}}

>  <type>  (5) 
unop_1

>  <geom_source>  (5) 
crest_best.xyz

$$$$

     RDKit          3D

 17 15  0  0  0  0  0  0  0  0999 V2000
    1.1019    0.4337    0.6802 C   0  0  0  0  0  0  0  0  0  0  0  0
    0.6029    1.6105    1.2849 O   0  0  0  0  0  0  0  0  0  0  0  0
    1.3946    1.9529    2.3549 N   0  0  0  0  0  0  0  0  0  0  0  0
    0.9873    3.0019    2.9297 C   0  0  0  0  0  0  0  0  0  0  0  0
    2.1178    0.5858    0.3088 H   0  0  0  0  0  0  0  0  0  0  0  0
    1.0918   -0.4017    1.3839 H   0  0  0  0  0  0  0  0  0  0  0  0
    1.5582    3.3392    3.7844 H   0  0  0  0  0  0  0  0  0  0  0  0
    0.1092    3.5502    2.5953 H   0  0  0  0  0  0  0  0  0  0  0  0
   -1.0050   -0.9424   -0.0395 C   0  0  0  0  0  3  0  0  0  0  0  0
   -1.0050   -1.1619   -1.5119 C   0  0  0  0  0  0  0  0  0  0  0  0
   -1.0050   -2.3359   -1.9807 N   0  0  0  0  0  0  0  0  0  0  0  0
   -1.0050   -2.3359   -3.3691 O   0  0  0  0  0  0  0  0  0  0  0  0
    0.0503   -0.2531    0.3210 H   0  0  0  0  0  0  0  0  0  0  0  0
   -1.8844   -0.3680    0.2609 H   0  0  0  0  0  0  0  0  0  0  0  0
   -1.0050   -1.8947    0.4881 H   0  0  0  0  0  0  0  0  0  0  0  0
   -1.0050   -0.3044   -2.1858 H   0  0  0  0  0  0  0  0  0  0  0  0
   -1.0050   -3.2696   -3.5866 H   0  0  0  0  0  0  0  0  0  0  0  0
  1  2  1  0
  1  5  1  0
  1  6  1  0
  1 13  1  0
  2  3  1  0
  3  4  2  3
  4  7  1  0
  4  8  1  0
  9 10  1  0
  9 14  1  0
  9 15  1  0
 10 11  2  3
 10 16  1  0
 11 12  1  0
 12 17  1  0
M  RAD  1   9   2
M  END
>  <reaction>  (6) 
rmg_rxn_15728

>  <mol_properties>  (6) 
{"0": {"label": "*3", "atom_type": "Cs"}, "1": {"label": "*4", "atom_type": "O2s"}, "8": {"label": "*1", "atom_type": "Cs"}, "9": {"label": "*0", "atom_type": "Cd"}, "12": {"label": "*2", "atom_type": "H0"}}

>  <type>  (6) 
unop_2

>  <geom_source>  (6) 
Heuristics

$$$$

     RDKit          3D

 17 15  0  0  0  0  0  0  0  0999 V2000
    1.1054   -1.7679    0.2049 C   0  0  0  0  0  0  0  0  0  0  0  0
    2.2266   -0.9606   -0.0750 O   0  0  0  0  0  0  0  0  0  0  0  0
    1.9185    0.3790   -0.0154 N   0  0  0  0  0  0  0  0  0  0  0  0
    2.8628    1.1897   -0.2082 C   0  0  0  0  0  0  0  0  0  0  0  0
    0.1869   -1.4222   -0.2286 H   0  0  0  0  0  0  0  0  0  0  0  0
    1.3662   -2.7801   -0.0747 H   0  0  0  0  0  0  0  0  0  0  0  0
    2.6177    2.2366   -0.1682 H   0  0  0  0  0  0  0  0  0  0  0  0
    3.8864    0.8928   -0.4096 H   0  0  0  0  0  0  0  0  0  0  0  0
   -3.6021   -0.6792   -0.2310 C   0  0  0  0  0  3  0  0  0  0  0  0
   -2.7537    0.3601    0.0058 C   0  0  0  0  0  0  0  0  0  0  0  0
   -1.4453    0.1755   -0.0031 N   0  0  0  0  0  0  0  0  0  0  0  0
   -0.7234    1.3114    0.2553 O   0  0  0  0  0  0  0  0  0  0  0  0
    0.7615   -1.6952    1.2450 H   0  0  0  0  0  0  0  0  0  0  0  0
   -4.6662   -0.5376   -0.2267 H   0  0  0  0  0  0  0  0  0  0  0  0
   -3.2179   -1.6632   -0.4284 H   0  0  0  0  0  0  0  0  0  0  0  0
   -3.1443    1.3572    0.2059 H   0  0  0  0  0  0  0  0  0  0  0  0
    0.2233    1.0304    0.2028 H   0  0  0  0  0  0  0  0  0  0  0  0
  1  2  1  0
  1  5  1  0
  1  6  1  0
  1 13  1  0
  2  3  1  0
  3  4  2  3
  4  7  1  0
  4  8  1  0
  9 10  1  0
  9 14  1  0
  9 15  1  0
 10 11  2  3
 10 16  1  0
 11 12  1  0
 12 17  1  0
M  RAD  1   9   2
M  END
>  <reaction>  (7) 
rmg_rxn_15728

>  <mol_properties>  (7) 
{"0": {"label": "*3", "atom_type": "Cs"}, "1": {"label": "*4", "atom_type": "O2s"}, "8": {"label": "*1", "atom_type": "Cs"}, "9": {"label": "*0", "atom_type": "Cd"}, "12": {"label": "*2", "atom_type": "H0"}}

>  <type>  (7) 
unop_3

>  <geom_source>  (7) 
Heuristics

$$$$

     RDKit          3D

 17 15  0  0  0  0  0  0  0  0999 V2000
    0.7068    0.4289    1.6676 C   0  0  0  0  0  0  0  0  0  0  0  0
    1.0210    1.2544    0.5634 O   0  0  0  0  0  0  0  0  0  0  0  0
    1.8293    2.2877    0.9729 N   0  0  0  0  0  0  0  0  0  0  0  0
    2.1381    3.0554    0.0179 C   0  0  0  0  0  0  0  0  0  0  0  0
    1.6107   -0.0055    2.1005 H   0  0  0  0  0  0  0  0  0  0  0  0
    0.1684    0.9903    2.4345 H   0  0  0  0  0  0  0  0  0  0  0  0
    2.7745    3.8965    0.2582 H   0  0  0  0  0  0  0  0  0  0  0  0
    1.7905    2.8934   -1.0002 H   0  0  0  0  0  0  0  0  0  0  0  0
   -1.4001   -0.9472    0.9480 C   0  0  0  0  0  3  0  0  0  0  0  0
   -1.4001   -1.1667   -0.5244 C   0  0  0  0  0  0  0  0  0  0  0  0
   -1.4001   -2.3407   -0.9933 N   0  0  0  0  0  0  0  0  0  0  0  0
   -1.4001   -2.3407   -2.3816 O   0  0  0  0  0  0  0  0  0  0  0  0
   -0.3448   -0.2580    1.3084 H   0  0  0  0  0  0  0  0  0  0  0  0
   -2.2795   -0.3728    1.2484 H   0  0  0  0  0  0  0  0  0  0  0  0
   -1.4001   -1.8995    1.4755 H   0  0  0  0  0  0  0  0  0  0  0  0
   -1.4001   -0.3092   -1.1984 H   0  0  0  0  0  0  0  0  0  0  0  0
   -1.4001   -3.2744   -2.5992 H   0  0  0  0  0  0  0  0  0  0  0  0
  1  2  1  0
  1  5  1  0
  1  6  1  0
  1 13  1  0
  2  3  1  0
  3  4  2  3
  4  7  1  0
  4  8  1  0
  9 10  1  0
  9 14  1  0
  9 15  1  0
 10 11  2  3
 10 16  1  0
 11 12  1  0
 12 17  1  0
M  RAD  1   9   2
M  END
>  <reaction>  (8) 
rmg_rxn_15728

>  <mol_properties>  (8) 
{"0": {"label": "*3", "atom_type": "Cs"}, "1": {"label": "*4", "atom_type": "O2s"}, "8": {"label": "*1", "atom_type": "Cs"}, "9": {"label": "*0", "atom_type": "Cd"}, "12": {"label": "*2", "atom_type": "H0"}}

>  <type>  (8) 
unop_4

>  <geom_source>  (8) 
Heuristics

$$$$

     RDKit          3D

 17 15  0  0  0  0  0  0  0  0999 V2000
    1.0976    1.7675   -0.1996 C   0  0  0  0  0  0  0  0  0  0  0  0
    2.2229    0.9631    0.0718 O   0  0  0  0  0  0  0  0  0  0  0  0
    1.9182   -0.3773    0.0155 N   0  0  0  0  0  0  0  0  0  0  0  0
    2.8665   -1.1849    0.2020 C   0  0  0  0  0  0  0  0  0  0  0  0
    0.1808    1.4152    0.2308 H   0  0  0  0  0  0  0  0  0  0  0  0
    1.3543    2.7795    0.0836 H   0  0  0  0  0  0  0  0  0  0  0  0
    2.6246   -2.2327    0.1647 H   0  0  0  0  0  0  0  0  0  0  0  0
    3.8904   -0.8844    0.3959 H   0  0  0  0  0  0  0  0  0  0  0  0
   -3.5977    0.6819    0.2243 C   0  0  0  0  0  3  0  0  0  0  0  0
   -2.7517   -0.3608   -0.0061 C   0  0  0  0  0  0  0  0  0  0  0  0
   -1.4429   -0.1791    0.0045 N   0  0  0  0  0  0  0  0  0  0  0  0
   -0.7224   -1.3174   -0.2470 O   0  0  0  0  0  0  0  0  0  0  0  0
    0.7459    1.6963   -1.2364 H   0  0  0  0  0  0  0  0  0  0  0  0
   -4.6622    0.5435    0.2181 H   0  0  0  0  0  0  0  0  0  0  0  0
   -3.2109    1.6657    0.4182 H   0  0  0  0  0  0  0  0  0  0  0  0
   -3.1444   -1.3577   -0.2026 H   0  0  0  0  0  0  0  0  0  0  0  0
    0.2245   -1.0368   -0.1955 H   0  0  0  0  0  0  0  0  0  0  0  0
  1  2  1  0
  1  5  1  0
  1  6  1  0
  1 13  1  0
  2  3  1  0
  3  4  2  3
  4  7  1  0
  4  8  1  0
  9 10  1  0
  9 14  1  0
  9 15  1  0
 10 11  2  3
 10 16  1  0
 11 12  1  0
 12 17  1  0
M  RAD  1   9   2
M  END
>  <reaction>  (9) 
rmg_rxn_15728

>  <mol_properties>  (9) 
{"0": {"label": "*3", "atom_type": "Cs"}, "1": {"label": "*4", "atom_type": "O2s"}, "8": {"label": "*1", "atom_type": "Cs"}, "9": {"label": "*0", "atom_type": "Cd"}, "12": {"label": "*2", "atom_type": "H0"}}

>  <type>  (9) 
unop_5

>  <geom_source>  (9) 
Heuristics

$$$$

     RDKit          3D

 17 15  0  0  0  0  0  0  0  0999 V2000
    0.9735    0.6631    0.4958 C   0  0  0  0  0  0  0  0  0  0  0  0
    0.5799    1.3973    1.6384 O   0  0  0  0  0  0  0  0  0  0  0  0
    1.6808    1.6734    2.4133 N   0  0  0  0  0  0  0  0  0  0  0  0
    1.3786    2.3304    3.4496 C   0  0  0  0  0  0  0  0  0  0  0  0
    1.6759    1.2360   -0.1139 H   0  0  0  0  0  0  0  0  0  0  0  0
    1.4288   -0.2882    0.7803 H   0  0  0  0  0  0  0  0  0  0  0  0
    2.1920    2.5885    4.1144 H   0  0  0  0  0  0  0  0  0  0  0  0
    0.3576    2.6293    3.6771 H   0  0  0  0  0  0  0  0  0  0  0  0
   -1.1334   -0.7130   -0.2239 C   0  0  0  0  0  3  0  0  0  0  0  0
   -1.1334   -0.9325   -1.6963 C   0  0  0  0  0  0  0  0  0  0  0  0
   -1.1334   -2.1065   -2.1652 N   0  0  0  0  0  0  0  0  0  0  0  0
   -1.1334   -2.1065   -3.5535 O   0  0  0  0  0  0  0  0  0  0  0  0
   -0.0781   -0.0237    0.1366 H   0  0  0  0  0  0  0  0  0  0  0  0
   -2.0128   -0.1386    0.0765 H   0  0  0  0  0  0  0  0  0  0  0  0
   -1.1334   -1.6653    0.3037 H   0  0  0  0  0  0  0  0  0  0  0  0
   -1.1334   -0.0749   -2.3702 H   0  0  0  0  0  0  0  0  0  0  0  0
   -1.1334   -3.0402   -3.7711 H   0  0  0  0  0  0  0  0  0  0  0  0
  1  2  1  0
  1  5  1  0
  1  6  1  0
  1 13  1  0
  2  3  1  0
  3  4  2  3
  4  7  1  0
  4  8  1  0
  9 10  1  0
  9 14  1  0
  9 15  1  0
 10 11  2  3
 10 16  1  0
 11 12  1  0
 12 17  1  0
M  RAD  1   9   2
M  END
>  <reaction>  (10) 
rmg_rxn_15728

>  <mol_properties>  (10) 
{"0": {"label": "*3", "atom_type": "Cs"}, "1": {"label": "*4", "atom_type": "O2s"}, "8": {"label": "*1", "atom_type": "Cs"}, "9": {"label": "*0", "atom_type": "Cd"}, "12": {"label": "*2", "atom_type": "H0"}}

>  <type>  (10) 
unop_6

>  <geom_source>  (10) 
Heuristics

$$$$

     RDKit          3D

 17 15  0  0  0  0  0  0  0  0999 V2000
    0.2637    1.4063    1.2084 C   0  0  0  0  0  0  0  0  0  0  0  0
    1.3799    0.6326    0.8145 O   0  0  0  0  0  0  0  0  0  0  0  0
    2.4173    0.8356    1.6928 N   0  0  0  0  0  0  0  0  0  0  0  0
    3.4407    0.1630    1.3814 C   0  0  0  0  0  0  0  0  0  0  0  0
   -0.0802    1.1173    2.2041 H   0  0  0  0  0  0  0  0  0  0  0  0
    0.5045    2.4717    1.2004 H   0  0  0  0  0  0  0  0  0  0  0  0
    4.3038    0.2674    2.0251 H   0  0  0  0  0  0  0  0  0  0  0  0
    3.4696   -0.4925    0.5136 H   0  0  0  0  0  0  0  0  0  0  0  0
   -1.8431    0.0302    0.4887 C   0  0  0  0  0  3  0  0  0  0  0  0
   -1.8431   -0.1893   -0.9837 C   0  0  0  0  0  0  0  0  0  0  0  0
   -1.8431   -1.3633   -1.4525 N   0  0  0  0  0  0  0  0  0  0  0  0
   -1.8431   -1.3633   -2.8409 O   0  0  0  0  0  0  0  0  0  0  0  0
   -0.7878    0.7195    0.8492 H   0  0  0  0  0  0  0  0  0  0  0  0
   -2.7225    0.6046    0.7891 H   0  0  0  0  0  0  0  0  0  0  0  0
   -1.8431   -0.9221    1.0163 H   0  0  0  0  0  0  0  0  0  0  0  0
   -1.8431    0.6683   -1.6576 H   0  0  0  0  0  0  0  0  0  0  0  0
   -1.8431   -2.2970   -3.0584 H   0  0  0  0  0  0  0  0  0  0  0  0
  1  2  1  0
  1  5  1  0
  1  6  1  0
  1 13  1  0
  2  3  1  0
  3  4  2  3
  4  7  1  0
  4  8  1  0
  9 10  1  0
  9 14  1  0
  9 15  1  0
 10 11  2  3
 10 16  1  0
 11 12  1  0
 12 17  1  0
M  RAD  1   9   2
M  END
>  <reaction>  (11) 
rmg_rxn_15728

>  <mol_properties>  (11) 
{"0": {"label": "*3", "atom_type": "Cs"}, "1": {"label": "*4", "atom_type": "O2s"}, "8": {"label": "*1", "atom_type": "Cs"}, "9": {"label": "*0", "atom_type": "Cd"}, "12": {"label": "*2", "atom_type": "H0"}}

>  <type>  (11) 
unop_7

>  <geom_source>  (11) 
Heuristics

$$$$

     RDKit          3D

 17 15  0  0  0  0  0  0  0  0999 V2000
   -1.1060    1.7669   -0.2127 C   0  0  0  0  0  0  0  0  0  0  0  0
   -2.2256    0.9601    0.0754 O   0  0  0  0  0  0  0  0  0  0  0  0
   -1.9176   -0.3795    0.0171 N   0  0  0  0  0  0  0  0  0  0  0  0
   -2.8602   -1.1899    0.2191 C   0  0  0  0  0  0  0  0  0  0  0  0
   -1.3667    2.7803    0.0625 H   0  0  0  0  0  0  0  0  0  0  0  0
   -0.1858    1.4241    0.2195 H   0  0  0  0  0  0  0  0  0  0  0  0
   -2.6151   -2.2368    0.1799 H   0  0  0  0  0  0  0  0  0  0  0  0
   -3.8824   -0.8928    0.4274 H   0  0  0  0  0  0  0  0  0  0  0  0
    3.6000    0.6783    0.2424 C   0  0  0  0  0  3  0  0  0  0  0  0
    2.7528   -0.3590   -0.0066 C   0  0  0  0  0  0  0  0  0  0  0  0
    1.4442   -0.1757    0.0030 N   0  0  0  0  0  0  0  0  0  0  0  0
    0.7234   -1.3093   -0.2682 O   0  0  0  0  0  0  0  0  0  0  0  0
   -0.7657    1.6890   -1.2536 H   0  0  0  0  0  0  0  0  0  0  0  0
    4.6642    0.5379    0.2375 H   0  0  0  0  0  0  0  0  0  0  0  0
    3.2146    1.6598    0.4501 H   0  0  0  0  0  0  0  0  0  0  0  0
    3.1445   -1.3535   -0.2172 H   0  0  0  0  0  0  0  0  0  0  0  0
   -0.2234   -1.0297   -0.2124 H   0  0  0  0  0  0  0  0  0  0  0  0
  1  2  1  0
  1  5  1  0
  1  6  1  0
  1 13  1  0
  2  3  1  0
  3  4  2  3
  4  7  1  0
  4  8  1  0
  9 10  1  0
  9 14  1  0
  9 15  1  0
 10 11  2  3
 10 16  1  0
 11 12  1  0
 12 17  1  0
M  RAD  1   9   2
M  END
>  <reaction>  (12) 
rmg_rxn_15728

>  <mol_properties>  (12) 
{"0": {"label": "*3", "atom_type": "Cs"}, "1": {"label": "*4", "atom_type": "O2s"}, "8": {"label": "*1", "atom_type": "Cs"}, "9": {"label": "*0", "atom_type": "Cd"}, "12": {"label": "*2", "atom_type": "H0"}}

>  <type>  (12) 
unop_8

>  <geom_source>  (12) 
Heuristics

$$$$

     RDKit          3D

 17 15  0  0  0  0  0  0  0  0999 V2000
    0.8389    0.8336    0.4481 C   0  0  0  0  0  0  0  0  0  0  0  0
    0.7388    0.9824    1.8507 O   0  0  0  0  0  0  0  0  0  0  0  0
    1.8139    1.6996    2.3182 N   0  0  0  0  0  0  0  0  0  0  0  0
    1.7689    1.8592    3.5709 C   0  0  0  0  0  0  0  0  0  0  0  0
    0.8335    1.8061   -0.0494 H   0  0  0  0  0  0  0  0  0  0  0  0
    1.7466    0.2899    0.1766 H   0  0  0  0  0  0  0  0  0  0  0  0
    2.5817    2.4154    4.0183 H   0  0  0  0  0  0  0  0  0  0  0  0
    0.9613    1.4641    4.1835 H   0  0  0  0  0  0  0  0  0  0  0  0
   -1.2680   -0.5425   -0.2716 C   0  0  0  0  0  3  0  0  0  0  0  0
   -1.2680   -0.7619   -1.7440 C   0  0  0  0  0  0  0  0  0  0  0  0
   -1.2680   -1.9360   -2.2129 N   0  0  0  0  0  0  0  0  0  0  0  0
   -1.2680   -1.9360   -3.6012 O   0  0  0  0  0  0  0  0  0  0  0  0
   -0.2127    0.1468    0.0888 H   0  0  0  0  0  0  0  0  0  0  0  0
   -2.1474    0.0319    0.0288 H   0  0  0  0  0  0  0  0  0  0  0  0
   -1.2680   -1.4948    0.2559 H   0  0  0  0  0  0  0  0  0  0  0  0
   -1.2680    0.0956   -2.4180 H   0  0  0  0  0  0  0  0  0  0  0  0
   -1.2680   -2.8696   -3.8188 H   0  0  0  0  0  0  0  0  0  0  0  0
  1  2  1  0
  1  5  1  0
  1  6  1  0
  1 13  1  0
  2  3  1  0
  3  4  2  3
  4  7  1  0
  4  8  1  0
  9 10  1  0
  9 14  1  0
  9 15  1  0
 10 11  2  3
 10 16  1  0
 11 12  1  0
 12 17  1  0
M  RAD  1   9   2
M  END
>  <reaction>  (13) 
rmg_rxn_15728

>  <mol_properties>  (13) 
{"0": {"label": "*3", "atom_type": "Cs"}, "1": {"label": "*4", "atom_type": "O2s"}, "8": {"label": "*1", "atom_type": "Cs"}, "9": {"label": "*0", "atom_type": "Cd"}, "12": {"label": "*2", "atom_type": "H0"}}

>  <type>  (13) 
unop_9

>  <geom_source>  (13) 
Heuristics

$$$$

     RDKit          3D

 17 15  0  0  0  0  0  0  0  0999 V2000
   -1.0995    1.7701   -0.1939 C   0  0  0  0  0  0  0  0  0  0  0  0
   -2.2230    0.9629    0.0764 O   0  0  0  0  0  0  0  0  0  0  0  0
   -1.9173   -0.3768    0.0107 N   0  0  0  0  0  0  0  0  0  0  0  0
   -2.8646   -1.1866    0.1931 C   0  0  0  0  0  0  0  0  0  0  0  0
   -1.3536    2.7790    0.1026 H   0  0  0  0  0  0  0  0  0  0  0  0
   -0.1796    1.4126    0.2255 H   0  0  0  0  0  0  0  0  0  0  0  0
   -2.6215   -2.2338    0.1490 H   0  0  0  0  0  0  0  0  0  0  0  0
   -3.8886   -0.8885    0.3902 H   0  0  0  0  0  0  0  0  0  0  0  0
    3.5970    0.6849    0.2143 C   0  0  0  0  0  3  0  0  0  0  0  0
    2.7515   -0.3617   -0.0000 C   0  0  0  0  0  0  0  0  0  0  0  0
    1.4429   -0.1786   -0.0022 N   0  0  0  0  0  0  0  0  0  0  0  0
    0.7228   -1.3209   -0.2358 O   0  0  0  0  0  0  0  0  0  0  0  0
   -0.7556    1.7105   -1.2340 H   0  0  0  0  0  0  0  0  0  0  0  0
    4.6613    0.5454    0.2188 H   0  0  0  0  0  0  0  0  0  0  0  0
    3.2099    1.6730    0.3838 H   0  0  0  0  0  0  0  0  0  0  0  0
    3.1445   -1.3628   -0.1729 H   0  0  0  0  0  0  0  0  0  0  0  0
   -0.2240   -1.0388   -0.1935 H   0  0  0  0  0  0  0  0  0  0  0  0
  1  2  1  0
  1  5  1  0
  1  6  1  0
  1 13  1  0
  2  3  1  0
  3  4  2  3
  4  7  1  0
  4  8  1  0
  9 10  1  0
  9 14  1  0
  9 15  1  0
 10 11  2  3
 10 16  1  0
 11 12  1  0
 12 17  1  0
M  RAD  1   9   2
M  END
>  <reaction>  (14) 
rmg_rxn_15728

>  <mol_properties>  (14) 
{"0": {"label": "*3", "atom_type": "Cs"}, "1": {"label": "*4", "atom_type": "O2s"}, "8": {"label": "*1", "atom_type": "Cs"}, "9": {"label": "*0", "atom_type": "Cd"}, "12": {"label": "*2", "atom_type": "H0"}}

>  <type>  (14) 
unop_10

>  <geom_source>  (14) 
Heuristics

$$$$

     RDKit          3D

 17 15  0  0  0  0  0  0  0  0999 V2000
    0.3940    1.4435    0.8318 C   0  0  0  0  0  0  0  0  0  0  0  0
    1.3991    0.4885    1.1096 O   0  0  0  0  0  0  0  0  0  0  0  0
    2.1306    0.8902    2.2015 N   0  0  0  0  0  0  0  0  0  0  0  0
    3.0442    0.0661    2.4896 C   0  0  0  0  0  0  0  0  0  0  0  0
   -0.2928    1.5445    1.6752 H   0  0  0  0  0  0  0  0  0  0  0  0
    0.8329    2.4165    0.6000 H   0  0  0  0  0  0  0  0  0  0  0  0
    3.6670    0.3103    3.3397 H   0  0  0  0  0  0  0  0  0  0  0  0
    3.2099   -0.8472    1.9222 H   0  0  0  0  0  0  0  0  0  0  0  0
   -1.7129    0.0674    0.1121 C   0  0  0  0  0  3  0  0  0  0  0  0
   -1.7129   -0.1521   -1.3603 C   0  0  0  0  0  0  0  0  0  0  0  0
   -1.7129   -1.3261   -1.8291 N   0  0  0  0  0  0  0  0  0  0  0  0
   -1.7129   -1.3261   -3.2175 O   0  0  0  0  0  0  0  0  0  0  0  0
   -0.6576    0.7567    0.4726 H   0  0  0  0  0  0  0  0  0  0  0  0
   -2.5923    0.6418    0.4125 H   0  0  0  0  0  0  0  0  0  0  0  0
   -1.7129   -0.8849    0.6397 H   0  0  0  0  0  0  0  0  0  0  0  0
   -1.7129    0.7055   -2.0342 H   0  0  0  0  0  0  0  0  0  0  0  0
   -1.7129   -2.2598   -3.4350 H   0  0  0  0  0  0  0  0  0  0  0  0
  1  2  1  0
  1  5  1  0
  1  6  1  0
  1 13  1  0
  2  3  1  0
  3  4  2  3
  4  7  1  0
  4  8  1  0
  9 10  1  0
  9 14  1  0
  9 15  1  0
 10 11  2  3
 10 16  1  0
 11 12  1  0
 12 17  1  0
M  RAD  1   9   2
M  END
>  <reaction>  (15) 
rmg_rxn_15728

>  <mol_properties>  (15) 
{"0": {"label": "*3", "atom_type": "Cs"}, "1": {"label": "*4", "atom_type": "O2s"}, "8": {"label": "*1", "atom_type": "Cs"}, "9": {"label": "*0", "atom_type": "Cd"}, "12": {"label": "*2", "atom_type": "H0"}}

>  <type>  (15) 
unop_11

>  <geom_source>  (15) 
Heuristics

$$$$

     RDKit          3D

 17 15  0  0  0  0  0  0  0  0999 V2000
    1.4616    0.9957    0.8317 C   0  0  0  0  0  0  0  0  0  0  0  0
    2.4754    0.3729    0.1183 O   0  0  0  0  0  0  0  0  0  0  0  0
    2.3643   -0.9129   -0.2846 N   0  0  0  0  0  0  0  0  0  0  0  0
    1.2848   -1.5595   -0.2135 C   0  0  0  0  0  0  0  0  0  0  0  0
    1.0486    0.3833    1.6357 H   0  0  0  0  0  0  0  0  0  0  0  0
    1.8660    1.9371    1.1894 H   0  0  0  0  0  0  0  0  0  0  0  0
    1.3350   -2.5770   -0.5611 H   0  0  0  0  0  0  0  0  0  0  0  0
    0.3212   -1.1908    0.1291 H   0  0  0  0  0  0  0  0  0  0  0  0
   -0.6007    1.4915   -0.7444 C   0  0  0  0  0  3  0  0  0  0  0  0
   -1.7202    0.8951   -0.0985 C   0  0  0  0  0  0  0  0  0  0  0  0
   -1.9728   -0.3567   -0.2636 N   0  0  0  0  0  0  0  0  0  0  0  0
   -3.0548   -0.8273    0.4794 O   0  0  0  0  0  0  0  0  0  0  0  0
    0.4559    1.2751    0.0609 H   0  0  0  0  0  0  0  0  0  0  0  0
   -0.2640    0.9952   -1.6456 H   0  0  0  0  0  0  0  0  0  0  0  0
   -0.6132    2.5703   -0.8061 H   0  0  0  0  0  0  0  0  0  0  0  0
   -2.3092    1.4917    0.5985 H   0  0  0  0  0  0  0  0  0  0  0  0
   -3.1535   -1.7495    0.2059 H   0  0  0  0  0  0  0  0  0  0  0  0
  1  2  1  0
  1  5  1  0
  1  6  1  0
  1 13  1  0
  2  3  1  0
  3  4  2  3
  4  7  1  0
  4  8  1  0
  9 10  1  0
  9 14  1  0
  9 15  1  0
 10 11  2  3
 10 16  1  0
 11 12  1  0
 12 17  1  0
M  RAD  1   9   2
M  END
>  <reaction>  (16) 
rmg_rxn_15728

>  <mol_properties>  (16) 
{"0": {"label": "*3", "atom_type": "Cs"}, "1": {"label": "*4", "atom_type": "O2s"}, "8": {"label": "*1", "atom_type": "Cs"}, "9": {"label": "*0", "atom_type": "Cd"}, "12": {"label": "*2", "atom_type": "H0"}}

>  <type>  (16) 
unop_12

>  <geom_source>  (16) 
Heuristics

$$$$

     RDKit          3D

 17 15  0  0  0  0  0  0  0  0999 V2000
    0.5862    1.2900    0.5525 C   0  0  0  0  0  0  0  0  0  0  0  0
    1.2937    0.4635    1.4559 O   0  0  0  0  0  0  0  0  0  0  0  0
    1.8297    1.2303    2.4626 N   0  0  0  0  0  0  0  0  0  0  0  0
    2.4736    0.5339    3.2976 C   0  0  0  0  0  0  0  0  0  0  0  0
   -0.2364    1.8037    1.0552 H   0  0  0  0  0  0  0  0  0  0  0  0
    1.2505    2.0260    0.0941 H   0  0  0  0  0  0  0  0  0  0  0  0
    2.9280    1.0646    4.1235 H   0  0  0  0  0  0  0  0  0  0  0  0
    2.5757   -0.5453    3.2058 H   0  0  0  0  0  0  0  0  0  0  0  0
   -1.5207   -0.0861   -0.1671 C   0  0  0  0  0  3  0  0  0  0  0  0
   -1.5207   -0.3056   -1.6395 C   0  0  0  0  0  0  0  0  0  0  0  0
   -1.5207   -1.4796   -2.1084 N   0  0  0  0  0  0  0  0  0  0  0  0
   -1.5207   -1.4796   -3.4967 O   0  0  0  0  0  0  0  0  0  0  0  0
   -0.4654    0.6031    0.1933 H   0  0  0  0  0  0  0  0  0  0  0  0
   -2.4001    0.4882    0.1333 H   0  0  0  0  0  0  0  0  0  0  0  0
   -1.5207   -1.0385    0.3604 H   0  0  0  0  0  0  0  0  0  0  0  0
   -1.5207    0.5519   -2.3135 H   0  0  0  0  0  0  0  0  0  0  0  0
   -1.5207   -2.4133   -3.7143 H   0  0  0  0  0  0  0  0  0  0  0  0
  1  2  1  0
  1  5  1  0
  1  6  1  0
  1 13  1  0
  2  3  1  0
  3  4  2  3
  4  7  1  0
  4  8  1  0
  9 10  1  0
  9 14  1  0
  9 15  1  0
 10 11  2  3
 10 16  1  0
 11 12  1  0
 12 17  1  0
M  RAD  1   9   2
M  END
>  <reaction>  (17) 
rmg_rxn_15728

>  <mol_properties>  (17) 
{"0": {"label": "*3", "atom_type": "Cs"}, "1": {"label": "*4", "atom_type": "O2s"}, "8": {"label": "*1", "atom_type": "Cs"}, "9": {"label": "*0", "atom_type": "Cd"}, "12": {"label": "*2", "atom_type": "H0"}}

>  <type>  (17) 
unop_13

>  <geom_source>  (17) 
Heuristics

$$$$

     RDKit          3D

 17 15  0  0  0  0  0  0  0  0999 V2000
    1.1076    0.2584    1.0085 C   0  0  0  0  0  0  0  0  0  0  0  0
    0.7197    1.6166    0.9415 O   0  0  0  0  0  0  0  0  0  0  0  0
    1.2760    2.3094    1.9899 N   0  0  0  0  0  0  0  0  0  0  0  0
    0.9570    3.5320    1.9730 C   0  0  0  0  0  0  0  0  0  0  0  0
    2.1930    0.1581    0.9367 H   0  0  0  0  0  0  0  0  0  0  0  0
    0.7591   -0.2022    1.9356 H   0  0  0  0  0  0  0  0  0  0  0  0
    1.3558    4.1482    2.7676 H   0  0  0  0  0  0  0  0  0  0  0  0
    0.3150    3.9596    1.2058 H   0  0  0  0  0  0  0  0  0  0  0  0
   -0.9992   -1.1177    0.2888 C   0  0  0  0  0  3  0  0  0  0  0  0
   -0.9992   -1.3371   -1.1836 C   0  0  0  0  0  0  0  0  0  0  0  0
   -0.9992   -2.5112   -1.6525 N   0  0  0  0  0  0  0  0  0  0  0  0
   -0.9992   -2.5112   -3.0408 O   0  0  0  0  0  0  0  0  0  0  0  0
    0.0561   -0.4284    0.6493 H   0  0  0  0  0  0  0  0  0  0  0  0
   -1.8786   -0.5433    0.5892 H   0  0  0  0  0  0  0  0  0  0  0  0
   -0.9992   -2.0700    0.8164 H   0  0  0  0  0  0  0  0  0  0  0  0
   -0.9992   -0.4796   -1.8576 H   0  0  0  0  0  0  0  0  0  0  0  0
   -0.9992   -3.4448   -3.2584 H   0  0  0  0  0  0  0  0  0  0  0  0
  1  2  1  0
  1  5  1  0
  1  6  1  0
  1 13  1  0
  2  3  1  0
  3  4  2  3
  4  7  1  0
  4  8  1  0
  9 10  1  0
  9 14  1  0
  9 15  1  0
 10 11  2  3
 10 16  1  0
 11 12  1  0
 12 17  1  0
M  RAD  1   9   2
M  END
>  <reaction>  (18) 
rmg_rxn_15728

>  <mol_properties>  (18) 
{"0": {"label": "*3", "atom_type": "Cs"}, "1": {"label": "*4", "atom_type": "O2s"}, "8": {"label": "*1", "atom_type": "Cs"}, "9": {"label": "*0", "atom_type": "Cd"}, "12": {"label": "*2", "atom_type": "H0"}}

>  <type>  (18) 
unop_14

>  <geom_source>  (18) 
Heuristics

$$$$

     RDKit          3D

 17 15  0  0  0  0  0  0  0  0999 V2000
    1.4614   -0.9960    0.8310 C   0  0  0  0  0  0  0  0  0  0  0  0
    2.4747   -0.3716    0.1183 O   0  0  0  0  0  0  0  0  0  0  0  0
    2.3621    0.9141   -0.2842 N   0  0  0  0  0  0  0  0  0  0  0  0
    1.2814    1.5590   -0.2145 C   0  0  0  0  0  0  0  0  0  0  0  0
    1.8672   -1.9368    1.1888 H   0  0  0  0  0  0  0  0  0  0  0  0
    1.0471   -0.3843    1.6348 H   0  0  0  0  0  0  0  0  0  0  0  0
    1.3306    2.5768   -0.5614 H   0  0  0  0  0  0  0  0  0  0  0  0
    0.3178    1.1885    0.1263 H   0  0  0  0  0  0  0  0  0  0  0  0
   -0.6015   -1.4945   -0.7434 C   0  0  0  0  0  3  0  0  0  0  0  0
   -1.7194   -0.8957   -0.0974 C   0  0  0  0  0  0  0  0  0  0  0  0
   -1.9708    0.3561   -0.2644 N   0  0  0  0  0  0  0  0  0  0  0  0
   -3.0509    0.8293    0.4797 O   0  0  0  0  0  0  0  0  0  0  0  0
    0.4564   -1.2769    0.0600 H   0  0  0  0  0  0  0  0  0  0  0  0
   -0.6149   -2.5735   -0.8027 H   0  0  0  0  0  0  0  0  0  0  0  0
   -0.2654   -1.0006   -1.6462 H   0  0  0  0  0  0  0  0  0  0  0  0
   -2.3081   -1.4900    0.6018 H   0  0  0  0  0  0  0  0  0  0  0  0
   -3.1491    1.7510    0.2045 H   0  0  0  0  0  0  0  0  0  0  0  0
  1  2  1  0
  1  5  1  0
  1  6  1  0
  1 13  1  0
  2  3  1  0
  3  4  2  3
  4  7  1  0
  4  8  1  0
  9 10  1  0
  9 14  1  0
  9 15  1  0
 10 11  2  3
 10 16  1  0
 11 12  1  0
 12 17  1  0
M  RAD  1   9   2
M  END
>  <reaction>  (19) 
rmg_rxn_15728

>  <mol_properties>  (19) 
{"0": {"label": "*3", "atom_type": "Cs"}, "1": {"label": "*4", "atom_type": "O2s"}, "8": {"label": "*1", "atom_type": "Cs"}, "9": {"label": "*0", "atom_type": "Cd"}, "12": {"label": "*2", "atom_type": "H0"}}

>  <type>  (19) 
unop_15

>  <geom_source>  (19) 
Heuristics

$$$$

     RDKit          3D

 17 15  0  0  0  0  0  0  0  0999 V2000
    0.2658    1.1611    1.5585 C   0  0  0  0  0  0  0  0  0  0  0  0
    1.2766    0.8300    0.6267 O   0  0  0  0  0  0  0  0  0  0  0  0
    2.5072    1.1621    1.1407 N   0  0  0  0  0  0  0  0  0  0  0  0
    3.4456    0.8842    0.3415 C   0  0  0  0  0  0  0  0  0  0  0  0
    0.3983    0.6085    2.4914 H   0  0  0  0  0  0  0  0  0  0  0  0
    0.2625    2.2334    1.7668 H   0  0  0  0  0  0  0  0  0  0  0  0
    4.4491    1.1158    0.6727 H   0  0  0  0  0  0  0  0  0  0  0  0
    3.2712    0.4347   -0.6337 H   0  0  0  0  0  0  0  0  0  0  0  0
   -1.8410   -0.2150    0.8388 C   0  0  0  0  0  3  0  0  0  0  0  0
   -1.8410   -0.4345   -0.6336 C   0  0  0  0  0  0  0  0  0  0  0  0
   -1.8410   -1.6085   -1.1024 N   0  0  0  0  0  0  0  0  0  0  0  0
   -1.8410   -1.6085   -2.4908 O   0  0  0  0  0  0  0  0  0  0  0  0
   -0.7857    0.4742    1.1993 H   0  0  0  0  0  0  0  0  0  0  0  0
   -2.7204    0.3594    1.1392 H   0  0  0  0  0  0  0  0  0  0  0  0
   -1.8410   -1.1673    1.3664 H   0  0  0  0  0  0  0  0  0  0  0  0
   -1.8410    0.4230   -1.3075 H   0  0  0  0  0  0  0  0  0  0  0  0
   -1.8410   -2.5422   -2.7083 H   0  0  0  0  0  0  0  0  0  0  0  0
  1  2  1  0
  1  5  1  0
  1  6  1  0
  1 13  1  0
  2  3  1  0
  3  4  2  3
  4  7  1  0
  4  8  1  0
  9 10  1  0
  9 14  1  0
  9 15  1  0
 10 11  2  3
 10 16  1  0
 11 12  1  0
 12 17  1  0
M  RAD  1   9   2
M  END
>  <reaction>  (20) 
rmg_rxn_15728

>  <mol_properties>  (20) 
{"0": {"label": "*3", "atom_type": "Cs"}, "1": {"label": "*4", "atom_type": "O2s"}, "8": {"label": "*1", "atom_type": "Cs"}, "9": {"label": "*0", "atom_type": "Cd"}, "12": {"label": "*2", "atom_type": "H0"}}

>  <type>  (20) 
unop_16

>  <geom_source>  (20) 
Heuristics

$$$$

     RDKit          3D

 17 15  0  0  0  0  0  0  0  0999 V2000
    0.9645    0.2427    1.3818 C   0  0  0  0  0  0  0  0  0  0  0  0
    0.8742    1.4723    0.6893 O   0  0  0  0  0  0  0  0  0  0  0  0
    1.4309    2.4735    1.4486 N   0  0  0  0  0  0  0  0  0  0  0  0
    1.3737    3.5952    0.8698 C   0  0  0  0  0  0  0  0  0  0  0  0
    2.0068   -0.0228    1.5722 H   0  0  0  0  0  0  0  0  0  0  0  0
    0.4202    0.2863    2.3279 H   0  0  0  0  0  0  0  0  0  0  0  0
    1.7922    4.4381    1.4034 H   0  0  0  0  0  0  0  0  0  0  0  0
    0.9299    3.7247   -0.1150 H   0  0  0  0  0  0  0  0  0  0  0  0
   -1.1424   -1.1333    0.6621 C   0  0  0  0  0  3  0  0  0  0  0  0
   -1.1424   -1.3528   -0.8103 C   0  0  0  0  0  0  0  0  0  0  0  0
   -1.1424   -2.5268   -1.2791 N   0  0  0  0  0  0  0  0  0  0  0  0
   -1.1424   -2.5268   -2.6675 O   0  0  0  0  0  0  0  0  0  0  0  0
   -0.0871   -0.4441    1.0226 H   0  0  0  0  0  0  0  0  0  0  0  0
   -2.0218   -0.5590    0.9625 H   0  0  0  0  0  0  0  0  0  0  0  0
   -1.1424   -2.0857    1.1897 H   0  0  0  0  0  0  0  0  0  0  0  0
   -1.1424   -0.4953   -1.4842 H   0  0  0  0  0  0  0  0  0  0  0  0
   -1.1424   -3.4605   -2.8850 H   0  0  0  0  0  0  0  0  0  0  0  0
  1  2  1  0
  1  5  1  0
  1  6  1  0
  1 13  1  0
  2  3  1  0
  3  4  2  3
  4  7  1  0
  4  8  1  0
  9 10  1  0
  9 14  1  0
  9 15  1  0
 10 11  2  3
 10 16  1  0
 11 12  1  0
 12 17  1  0
M  RAD  1   9   2
M  END
>  <reaction>  (21) 
rmg_rxn_15728

>  <mol_properties>  (21) 
{"0": {"label": "*3", "atom_type": "Cs"}, "1": {"label": "*4", "atom_type": "O2s"}, "8": {"label": "*1", "atom_type": "Cs"}, "9": {"label": "*0", "atom_type": "Cd"}, "12": {"label": "*2", "atom_type": "H0"}}

>  <type>  (21) 
unop_17

>  <geom_source>  (21) 
Heuristics

$$$$

     RDKit          3D

 17 15  0  0  0  0  0  0  0  0999 V2000
    0.7485    1.0367    0.4401 C   0  0  0  0  0  0  0  0  0  0  0  0
    1.0514    0.6143    1.7551 O   0  0  0  0  0  0  0  0  0  0  0  0
    1.7154    1.6159    2.4219 N   0  0  0  0  0  0  0  0  0  0  0  0
    2.0085    1.2843    3.6055 C   0  0  0  0  0  0  0  0  0  0  0  0
    0.1011    1.9164    0.4517 H   0  0  0  0  0  0  0  0  0  0  0  0
    1.6602    1.2619   -0.1177 H   0  0  0  0  0  0  0  0  0  0  0  0
    2.5342    2.0203    4.1991 H   0  0  0  0  0  0  0  0  0  0  0  0
    1.7528    0.3126    4.0224 H   0  0  0  0  0  0  0  0  0  0  0  0
   -1.3584   -0.3394   -0.2796 C   0  0  0  0  0  3  0  0  0  0  0  0
   -1.3584   -0.5588   -1.7520 C   0  0  0  0  0  0  0  0  0  0  0  0
   -1.3584   -1.7329   -2.2209 N   0  0  0  0  0  0  0  0  0  0  0  0
   -1.3584   -1.7329   -3.6092 O   0  0  0  0  0  0  0  0  0  0  0  0
   -0.3031    0.3499    0.0809 H   0  0  0  0  0  0  0  0  0  0  0  0
   -2.2378    0.2350    0.0208 H   0  0  0  0  0  0  0  0  0  0  0  0
   -1.3584   -1.2917    0.2480 H   0  0  0  0  0  0  0  0  0  0  0  0
   -1.3584    0.2987   -2.4259 H   0  0  0  0  0  0  0  0  0  0  0  0
   -1.3584   -2.6665   -3.8267 H   0  0  0  0  0  0  0  0  0  0  0  0
  1  2  1  0
  1  5  1  0
  1  6  1  0
  1 13  1  0
  2  3  1  0
  3  4  2  3
  4  7  1  0
  4  8  1  0
  9 10  1  0
  9 14  1  0
  9 15  1  0
 10 11  2  3
 10 16  1  0
 11 12  1  0
 12 17  1  0
M  RAD  1   9   2
M  END
>  <reaction>  (22) 
rmg_rxn_15728

>  <mol_properties>  (22) 
{"0": {"label": "*3", "atom_type": "Cs"}, "1": {"label": "*4", "atom_type": "O2s"}, "8": {"label": "*1", "atom_type": "Cs"}, "9": {"label": "*0", "atom_type": "Cd"}, "12": {"label": "*2", "atom_type": "H0"}}

>  <type>  (22) 
unop_18

>  <geom_source>  (22) 
Heuristics

$$$$

     RDKit          3D

 17 15  0  0  0  0  0  0  0  0999 V2000
    0.4317    0.7811    1.7407 C   0  0  0  0  0  0  0  0  0  0  0  0
    1.1489    1.0354    0.5489 O   0  0  0  0  0  0  0  0  0  0  0  0
    2.2811    1.7599    0.8353 N   0  0  0  0  0  0  0  0  0  0  0  0
    2.9574    2.0126   -0.2017 C   0  0  0  0  0  0  0  0  0  0  0  0
    1.0330    0.1978    2.4417 H   0  0  0  0  0  0  0  0  0  0  0  0
    0.1199    1.7140    2.2157 H   0  0  0  0  0  0  0  0  0  0  0  0
    3.8668    2.5813   -0.0608 H   0  0  0  0  0  0  0  0  0  0  0  0
    2.6552    1.6828   -1.1934 H   0  0  0  0  0  0  0  0  0  0  0  0
   -1.6752   -0.5950    1.0210 C   0  0  0  0  0  3  0  0  0  0  0  0
   -1.6752   -0.8145   -0.4514 C   0  0  0  0  0  0  0  0  0  0  0  0
   -1.6752   -1.9885   -0.9203 N   0  0  0  0  0  0  0  0  0  0  0  0
   -1.6752   -1.9885   -2.3086 O   0  0  0  0  0  0  0  0  0  0  0  0
   -0.6199    0.0942    1.3815 H   0  0  0  0  0  0  0  0  0  0  0  0
   -2.5546   -0.0206    1.3214 H   0  0  0  0  0  0  0  0  0  0  0  0
   -1.6752   -1.5473    1.5486 H   0  0  0  0  0  0  0  0  0  0  0  0
   -1.6752    0.0430   -1.1253 H   0  0  0  0  0  0  0  0  0  0  0  0
   -1.6752   -2.9222   -2.5262 H   0  0  0  0  0  0  0  0  0  0  0  0
  1  2  1  0
  1  5  1  0
  1  6  1  0
  1 13  1  0
  2  3  1  0
  3  4  2  3
  4  7  1  0
  4  8  1  0
  9 10  1  0
  9 14  1  0
  9 15  1  0
 10 11  2  3
 10 16  1  0
 11 12  1  0
 12 17  1  0
M  RAD  1   9   2
M  END
>  <reaction>  (23) 
rmg_rxn_15728

>  <mol_properties>  (23) 
{"0": {"label": "*3", "atom_type": "Cs"}, "1": {"label": "*4", "atom_type": "O2s"}, "8": {"label": "*1", "atom_type": "Cs"}, "9": {"label": "*0", "atom_type": "Cd"}, "12": {"label": "*2", "atom_type": "H0"}}

>  <type>  (23) 
unop_19

>  <geom_source>  (23) 
Heuristics

$$$$

     RDKit          3D

 17 15  0  0  0  0  0  0  0  0999 V2000
   -0.9682    0.7619   -0.9816 O   0  0  0  0  0  0  0  0  0  0  0  0
    2.9611   -0.6013    2.8307 O   0  0  0  0  0  0  0  0  0  0  0  0
   -1.6504    1.8068   -1.5619 N   0  0  0  0  0  0  0  0  0  0  0  0
    2.3959   -0.8201    1.5923 N   0  0  0  0  0  0  0  0  0  0  0  0
   -1.4982   -0.5524   -1.0254 C   0  0  0  0  0  0  0  0  0  0  0  0
    1.1867   -1.2662    1.4634 C   0  0  0  0  0  0  0  0  0  0  0  0
    0.6131   -1.4891    0.1079 C   0  0  0  0  0  3  0  0  0  0  0  0
   -1.1703    3.0056   -1.5237 C   0  0  0  0  0  0  0  0  0  0  0  0
   -1.6141   -0.8762   -2.0811 H   0  0  0  0  0  0  0  0  0  0  0  0
   -2.4853   -0.5770   -0.5180 H   0  0  0  0  0  0  0  0  0  0  0  0
   -0.6702   -1.3792   -0.4057 H   0  0  0  0  0  0  0  0  0  0  0  0
    0.5817   -1.4813    2.3351 H   0  0  0  0  0  0  0  0  0  0  0  0
    0.5912   -0.5341   -0.4578 H   0  0  0  0  0  0  0  0  0  0  0  0
    1.2187   -2.2390   -0.4430 H   0  0  0  0  0  0  0  0  0  0  0  0
   -0.2249    3.2055   -1.0350 H   0  0  0  0  0  0  0  0  0  0  0  0
   -1.7157    3.8183   -1.9833 H   0  0  0  0  0  0  0  0  0  0  0  0
    2.4490   -0.7823    3.6871 H   0  0  0  0  0  0  0  0  0  0  0  0
  1  5  1  0
  1  3  1  0
  2  4  1  0
  2 17  1  0
  3  8  2  3
  4  6  2  3
  5  9  1  0
  5 10  1  0
  5 11  1  0
  6  7  1  0
  6 12  1  0
  7 13  1  0
  7 14  1  0
  8 15  1  0
  8 16  1  0
M  RAD  1   7   2
M  END
>  <reaction>  (24) 
rmg_rxn_15728

>  <mol_properties>  (24) 
{"0": {"label": "*3", "atom_type": "Cs"}, "1": {"label": "*4", "atom_type": "O2s"}, "8": {"label": "*1", "atom_type": "Cs"}, "9": {"label": "*0", "atom_type": "Cd"}, "12": {"label": "*2", "atom_type": "H0"}}

>  <type>  (24) 
unop_20

>  <geom_source>  (24) 
AutoTST

$$$$

     RDKit          3D

 17 15  0  0  0  0  0  0  0  0999 V2000
    0.7068    0.4289    1.6677 C   0  0  0  0  0  0  0  0  0  0  0  0
    1.0210    1.2544    0.5634 O   0  0  0  0  0  0  0  0  0  0  0  0
    1.8293    2.2877    0.9729 N   0  0  0  0  0  0  0  0  0  0  0  0
    2.1381    3.0554    0.0179 C   0  0  0  0  0  0  0  0  0  0  0  0
    1.6107   -0.0055    2.1005 H   0  0  0  0  0  0  0  0  0  0  0  0
    0.1684    0.9903    2.4345 H   0  0  0  0  0  0  0  0  0  0  0  0
    2.7745    3.8965    0.2582 H   0  0  0  0  0  0  0  0  0  0  0  0
    1.7905    2.8934   -1.0002 H   0  0  0  0  0  0  0  0  0  0  0  0
   -1.4001   -0.9472    0.9479 C   0  0  0  0  0  3  0  0  0  0  0  0
   -1.4001   -1.1667   -0.5244 C   0  0  0  0  0  0  0  0  0  0  0  0
   -1.4001   -2.3407   -0.9933 N   0  0  0  0  0  0  0  0  0  0  0  0
   -1.4001   -2.3407   -2.3817 O   0  0  0  0  0  0  0  0  0  0  0  0
   -0.3448   -0.2580    1.3084 H   0  0  0  0  0  0  0  0  0  0  0  0
   -2.2795   -0.3728    1.2484 H   0  0  0  0  0  0  0  0  0  0  0  0
   -1.4001   -1.8996    1.4755 H   0  0  0  0  0  0  0  0  0  0  0  0
   -1.4001   -0.3092   -1.1984 H   0  0  0  0  0  0  0  0  0  0  0  0
   -1.4001   -3.2744   -2.5992 H   0  0  0  0  0  0  0  0  0  0  0  0
  1  2  1  0
  1  5  1  0
  1  6  1  0
  1 13  1  0
  2  3  1  0
  3  4  2  3
  4  7  1  0
  4  8  1  0
  9 10  1  0
  9 14  1  0
  9 15  1  0
 10 11  2  3
 10 16  1  0
 11 12  1  0
 12 17  1  0
M  RAD  1   9   2
M  END
>  <reaction>  (25) 
rmg_rxn_15728

>  <mol_properties>  (25) 
{"0": {"label": "*3", "atom_type": "Cs"}, "1": {"label": "*4", "atom_type": "O2s"}, "8": {"label": "*1", "atom_type": "Cs"}, "9": {"label": "*0", "atom_type": "Cd"}, "12": {"label": "*2", "atom_type": "H0"}}

>  <type>  (25) 
unop_21

>  <geom_source>  (25) 
gaussian_log

$$$$
