
     RDKit          3D

 18 17  0  0  0  0  0  0  0  0999 V2000
    2.3520    0.9498    0.2303 C   0  0  0  0  0  0  0  0  0  0  0  0
    1.9456   -0.3826   -0.3833 C   0  0  0  0  0  0  0  0  0  0  0  0
    0.6129   -0.8880    0.1586 C   0  0  0  0  0  0  0  0  0  0  0  0
   -0.4216    0.0223   -0.2088 O   0  0  0  0  0  0  0  0  0  0  0  0
   -1.6937   -0.3990    0.2766 C   0  0  0  0  0  0  0  0  0  0  0  0
   -2.7315    0.6179   -0.1548 C   0  0  0  0  0  0  0  0  0  0  0  0
    2.4361    0.8699    1.3188 H   0  0  0  0  0  0  0  0  0  0  0  0
    1.6247    1.7340   -0.0020 H   0  0  0  0  0  0  0  0  0  0  0  0
    3.3238    1.2651   -0.1628 H   0  0  0  0  0  0  0  0  0  0  0  0
    2.7250   -1.1255   -0.1814 H   0  0  0  0  0  0  0  0  0  0  0  0
    1.8763   -0.2576   -1.4701 H   0  0  0  0  0  0  0  0  0  0  0  0
    0.6566   -0.9798    1.2501 H   0  0  0  0  0  0  0  0  0  0  0  0
    0.3966   -1.8732   -0.2699 H   0  0  0  0  0  0  0  0  0  0  0  0
   -1.9410   -1.3825   -0.1378 H   0  0  0  0  0  0  0  0  0  0  0  0
   -1.6694   -0.4651    1.3699 H   0  0  0  0  0  0  0  0  0  0  0  0
   -2.7548    0.7058   -1.2461 H   0  0  0  0  0  0  0  0  0  0  0  0
   -2.4866    1.6097    0.2395 H   0  0  0  0  0  0  0  0  0  0  0  0
   -3.7268    0.3335    0.1978 H   0  0  0  0  0  0  0  0  0  0  0  0
  1  2  1  0
  1  7  1  0
  1  8  1  0
  1  9  1  0
  2  3  1  0
  2 10  1  0
  2 11  1  0
  3  4  1  0
  3 12  1  0
  3 13  1  0
  4  5  1  0
  5  6  1  0
  5 14  1  0
  5 15  1  0
  6 16  1  0
  6 17  1  0
  6 18  1  0
M  END
>  <reaction>  (1) 
rmg_rxn_1152

>  <mol_properties>  (1) 
{"5": {"label": "donator", "atom_type": "Cs"}, "15": {"label": "d_hydrogen", "atom_type": "H0"}}

>  <type>  (1) 
r1h

$$$$

     RDKit          3D

  1  0  0  0  0  0  0  0  0  0999 V2000
    0.0000    0.0000    0.0000 O   0  0  0  0  0 15  0  0  0  0  0  0
M  END
>  <reaction>  (2) 
rmg_rxn_1152

>  <mol_properties>  (2) 
{"0": {"label": "acceptor", "atom_type": "O2s"}}

>  <type>  (2) 
r2

$$$$

     RDKit          3D

  2  1  0  0  0  0  0  0  0  0999 V2000
    0.0000    0.0000    0.1079 O   0  0  0  0  0  1  0  0  0  0  0  0
    0.0000    0.0000   -0.8631 H   0  0  0  0  0  0  0  0  0  0  0  0
  1  2  1  0
M  RAD  1   1   2
M  END
>  <reaction>  (3) 
rmg_rxn_1152

>  <mol_properties>  (3) 
{"0": {"label": "acceptor", "atom_type": "O2s"}, "1": {"label": "a_hydrogen", "atom_type": "H0"}}

>  <type>  (3) 
r2h

$$$$

     RDKit          3D

 19 17  0  0  0  0  0  0  0  0999 V2000
   -3.0204    1.5193   -0.2240 O   0  0  0  0  0  1  0  0  0  0  0  0
    2.7716    0.3868    0.9332 C   0  0  0  0  0  0  0  0  0  0  0  0
    2.2502    0.5253   -0.4909 C   0  0  0  0  0  0  0  0  0  0  0  0
    1.1355   -0.4470   -0.8157 C   0  0  0  0  0  0  0  0  0  0  0  0
    0.0290   -0.1784    0.0132 O   0  0  0  0  0  0  0  0  0  0  0  0
   -1.0442   -1.0513   -0.1924 C   0  0  0  0  0  0  0  0  0  0  0  0
   -2.1781   -0.6555    0.6964 C   0  0  0  0  0  3  0  0  0  0  0  0
    3.1522   -0.6217    1.1135 H   0  0  0  0  0  0  0  0  0  0  0  0
    1.9799    0.5815    1.6565 H   0  0  0  0  0  0  0  0  0  0  0  0
    3.5844    1.0891    1.1231 H   0  0  0  0  0  0  0  0  0  0  0  0
    3.0591    0.3549   -1.2064 H   0  0  0  0  0  0  0  0  0  0  0  0
    1.8849    1.5411   -0.6608 H   0  0  0  0  0  0  0  0  0  0  0  0
    1.4768   -1.4820   -0.6580 H   0  0  0  0  0  0  0  0  0  0  0  0
    0.8418   -0.3525   -1.8705 H   0  0  0  0  0  0  0  0  0  0  0  0
   -1.3604   -1.0404   -1.2455 H   0  0  0  0  0  0  0  0  0  0  0  0
   -0.7459   -2.0885    0.0413 H   0  0  0  0  0  0  0  0  0  0  0  0
   -2.6049    0.4772    0.2694 H   0  0  0  0  0  0  0  0  0  0  0  0
   -1.8932   -0.4413    1.7241 H   0  0  0  0  0  0  0  0  0  0  0  0
   -3.0545   -1.2951    0.6168 H   0  0  0  0  0  0  0  0  0  0  0  0
  1 17  1  0
  2  3  1  0
  2  8  1  0
  2  9  1  0
  2 10  1  0
  3  4  1  0
  3 11  1  0
  3 12  1  0
  4  5  1  0
  4 13  1  0
  4 14  1  0
  5  6  1  0
  6  7  1  0
  6 15  1  0
  6 16  1  0
  7 18  1  0
  7 19  1  0
M  RAD  2   1   2   7   2
M  END
>  <reaction>  (4) 
rmg_rxn_1152

>  <mol_properties>  (4) 
{"0": {"label": "*1", "atom_type": "O2s"}, "5": {"label": "*4", "atom_type": "Cs"}, "6": {"label": "*3", "atom_type": "Cs"}, "16": {"label": "*2", "atom_type": "H0"}}

>  <type>  (4) 
ts

$$$$

     RDKit          3D

 19 17  0  0  0  0  0  0  0  0999 V2000
   -3.0846    0.7491    0.9106 O   0  0  0  0  0  1  0  0  0  0  0  0
    1.4097   -1.9697   -1.7282 C   0  0  0  0  0  0  0  0  0  0  0  0
    1.4097   -1.9697   -0.2061 C   0  0  0  0  0  0  0  0  0  0  0  0
    1.4097   -0.5594    0.3737 C   0  0  0  0  0  0  0  0  0  0  0  0
    0.2034    0.1039    0.0013 O   0  0  0  0  0  0  0  0  0  0  0  0
    0.1505    1.4327    0.5141 C   0  0  0  0  0  0  0  0  0  0  0  0
   -1.1557    2.0637    0.0750 C   0  0  0  0  0  3  0  0  0  0  0  0
    2.2850   -1.4413   -2.1195 H   0  0  0  0  0  0  0  0  0  0  0  0
    0.5110   -1.4888   -2.1269 H   0  0  0  0  0  0  0  0  0  0  0  0
    1.4369   -2.9969   -2.1053 H   0  0  0  0  0  0  0  0  0  0  0  0
    2.2913   -2.5107    0.1547 H   0  0  0  0  0  0  0  0  0  0  0  0
    0.5209   -2.5094    0.1410 H   0  0  0  0  0  0  0  0  0  0  0  0
    2.2735    0.0042    0.0025 H   0  0  0  0  0  0  0  0  0  0  0  0
    1.4685   -0.6160    1.4667 H   0  0  0  0  0  0  0  0  0  0  0  0
    0.2040    1.4097    1.6081 H   0  0  0  0  0  0  0  0  0  0  0  0
    0.9939    2.0135    0.1248 H   0  0  0  0  0  0  0  0  0  0  0  0
   -2.1780    1.3670    0.5179 H   0  0  0  0  0  0  0  0  0  0  0  0
   -1.2291    2.0775   -1.0175 H   0  0  0  0  0  0  0  0  0  0  0  0
   -1.2388    3.0885    0.4476 H   0  0  0  0  0  0  0  0  0  0  0  0
  1 17  1  0
  2  3  1  0
  2  8  1  0
  2  9  1  0
  2 10  1  0
  3  4  1  0
  3 11  1  0
  3 12  1  0
  4  5  1  0
  4 13  1  0
  4 14  1  0
  5  6  1  0
  6  7  1  0
  6 15  1  0
  6 16  1  0
  7 18  1  0
  7 19  1  0
M  RAD  2   1   2   7   2
M  END
>  <reaction>  (5) 
rmg_rxn_1152

>  <mol_properties>  (5) 
{"0": {"label": "*1", "atom_type": "O2s"}, "5": {"label": "*4", "atom_type": "Cs"}, "6": {"label": "*3", "atom_type": "Cs"}, "16": {"label": "*2", "atom_type": "H0"}}

>  <type>  (5) 
unop_1

>  <geom_source>  (5) 
Heuristics

$$$$

     RDKit          3D

 19 17  0  0  0  0  0  0  0  0999 V2000
    0.7146   -0.4697    0.4565 O   0  0  0  0  0  0  0  0  0  0  0  0
    2.4513   -0.3513    1.4693 O   0  0  0  0  0 15  0  0  0  0  0  0
   -1.5692    0.0824    0.9212 C   0  0  0  0  0  0  0  0  0  0  0  0
   -0.5347   -0.2312   -0.1585 C   0  0  0  0  0  0  0  0  0  0  0  0
    1.7246   -0.6386   -0.5196 C   0  0  0  0  0  0  0  0  0  0  0  0
   -2.9452    0.3428    0.3145 C   0  0  0  0  0  0  0  0  0  0  0  0
    2.4836    0.6661   -0.7144 C   0  0  0  0  0  0  0  0  0  0  0  0
   -1.6390   -0.7741    1.6265 H   0  0  0  0  0  0  0  0  0  0  0  0
   -1.2472    0.9809    1.4912 H   0  0  0  0  0  0  0  0  0  0  0  0
   -0.8636   -1.1374   -0.7169 H   0  0  0  0  0  0  0  0  0  0  0  0
   -0.4748    0.6349   -0.8572 H   0  0  0  0  0  0  0  0  0  0  0  0
    2.4414   -1.3973   -0.1420 H   0  0  0  0  0  0  0  0  0  0  0  0
    1.3495   -1.0140   -1.5016 H   0  0  0  0  0  0  0  0  0  0  0  0
   -2.9044    1.2119   -0.3762 H   0  0  0  0  0  0  0  0  0  0  0  0
   -3.2976   -0.5520   -0.2415 H   0  0  0  0  0  0  0  0  0  0  0  0
   -3.6716    0.5666    1.1239 H   0  0  0  0  0  0  0  0  0  0  0  0
    3.3396    0.5085   -1.4040 H   0  0  0  0  0  0  0  0  0  0  0  0
    1.8160    1.4466   -1.1353 H   0  0  0  0  0  0  0  0  0  0  0  0
    2.8268    0.1247    0.3638 H   0  0  0  0  0  0  0  0  0  0  0  0
  1  5  1  0
  1  4  1  0
  3  6  1  0
  3  4  1  0
  3  8  1  0
  3  9  1  0
  4 10  1  0
  4 11  1  0
  5  7  1  0
  5 12  1  0
  5 13  1  0
  6 14  1  0
  6 15  1  0
  6 16  1  0
  7 17  1  0
  7 18  1  0
  7 19  1  0
M  END
>  <reaction>  (6) 
rmg_rxn_1152

>  <mol_properties>  (6) 
{"0": {"label": "*1", "atom_type": "O2s"}, "5": {"label": "*4", "atom_type": "Cs"}, "6": {"label": "*3", "atom_type": "Cs"}, "16": {"label": "*2", "atom_type": "H0"}}

>  <type>  (6) 
unop_2

>  <geom_source>  (6) 
AutoTST

$$$$

     RDKit          3D

 19 17  0  0  0  0  0  0  0  0999 V2000
    0.3490   -0.2659   -0.1270 O   0  0  0  0  0  0  0  0  0  0  0  0
    2.3159    0.3438    2.6798 O   0  0  0  0  0  1  0  0  0  0  0  0
   -2.0045   -0.6509   -0.4431 C   0  0  0  0  0  0  0  0  0  0  0  0
   -0.7282   -0.0268   -1.0090 C   0  0  0  0  0  0  0  0  0  0  0  0
    1.5199    0.3301   -0.6419 C   0  0  0  0  0  0  0  0  0  0  0  0
   -2.4321    0.0141    0.8638 C   0  0  0  0  0  0  0  0  0  0  0  0
    2.6743    0.0593    0.3091 C   0  0  0  0  0  3  0  0  0  0  0  0
   -1.8414   -1.7366   -0.2685 H   0  0  0  0  0  0  0  0  0  0  0  0
   -2.8229   -0.5400   -1.1871 H   0  0  0  0  0  0  0  0  0  0  0  0
   -0.5292   -0.4955   -1.9997 H   0  0  0  0  0  0  0  0  0  0  0  0
   -0.8954    1.0658   -1.1533 H   0  0  0  0  0  0  0  0  0  0  0  0
    1.3961    1.4333   -0.7304 H   0  0  0  0  0  0  0  0  0  0  0  0
    1.7794   -0.0980   -1.6372 H   0  0  0  0  0  0  0  0  0  0  0  0
   -2.6129    1.0985    0.7043 H   0  0  0  0  0  0  0  0  0  0  0  0
   -3.3721   -0.4524    1.2267 H   0  0  0  0  0  0  0  0  0  0  0  0
   -1.6498   -0.1173    1.6412 H   0  0  0  0  0  0  0  0  0  0  0  0
    2.4147    0.5448    1.4456 H   0  0  0  0  0  0  0  0  0  0  0  0
    3.6019    0.5286   -0.0813 H   0  0  0  0  0  0  0  0  0  0  0  0
    2.8372   -1.0350    0.4080 H   0  0  0  0  0  0  0  0  0  0  0  0
  1  5  1  0
  1  4  1  0
  2 17  1  0
  3  6  1  0
  3  4  1  0
  3  8  1  0
  3  9  1  0
  4 10  1  0
  4 11  1  0
  5  7  1  0
  5 12  1  0
  5 13  1  0
  6 14  1  0
  6 15  1  0
  6 16  1  0
  7 18  1  0
  7 19  1  0
M  RAD  2   2   2   7   2
M  END
>  <reaction>  (7) 
rmg_rxn_1152

>  <mol_properties>  (7) 
{"0": {"label": "*1", "atom_type": "O2s"}, "5": {"label": "*4", "atom_type": "Cs"}, "6": {"label": "*3", "atom_type": "Cs"}, "16": {"label": "*2", "atom_type": "H0"}}

>  <type>  (7) 
unop_3

>  <geom_source>  (7) 
gaussian_log

$$$$
