
     RDKit          3D

 18 17  0  0  0  0  0  0  0  0999 V2000
    2.2026   -0.7213   -0.2612 C   0  0  0  0  0  0  0  0  0  0  0  0
    1.5384    0.2638    0.6915 C   0  0  0  0  0  0  0  0  0  0  0  0
    2.2584    1.5946    0.7694 C   0  0  0  0  0  0  0  0  0  0  0  0
    2.2212    2.2185   -0.4893 O   0  0  0  0  0  0  0  0  0  0  0  0
    2.8988    3.4488   -0.5204 C   0  0  0  0  0  0  0  0  0  0  0  0
    2.7981    4.0296   -1.9118 C   0  0  0  0  0  0  0  0  0  0  0  0
    3.2294   -0.9309    0.0486 H   0  0  0  0  0  0  0  0  0  0  0  0
    2.2338   -0.3181   -1.2734 H   0  0  0  0  0  0  0  0  0  0  0  0
    1.6610   -1.6680   -0.2875 H   0  0  0  0  0  0  0  0  0  0  0  0
    1.4990   -0.1566    1.7002 H   0  0  0  0  0  0  0  0  0  0  0  0
    0.5055    0.4455    0.3835 H   0  0  0  0  0  0  0  0  0  0  0  0
    3.3038    1.4410    1.0808 H   0  0  0  0  0  0  0  0  0  0  0  0
    1.7844    2.2410    1.5226 H   0  0  0  0  0  0  0  0  0  0  0  0
    2.4596    4.1376    0.2164 H   0  0  0  0  0  0  0  0  0  0  0  0
    3.9524    3.3035   -0.2397 H   0  0  0  0  0  0  0  0  0  0  0  0
    1.7543    4.1869   -2.1856 H   0  0  0  0  0  0  0  0  0  0  0  0
    3.2472    3.3545   -2.6411 H   0  0  0  0  0  0  0  0  0  0  0  0
    3.3178    4.9878   -1.9600 H   0  0  0  0  0  0  0  0  0  0  0  0
  1  2  1  0
  1  7  1  0
  1  8  1  0
  1  9  1  0
  2  3  1  0
  2 10  1  0
  2 11  1  0
  3  4  1  0
  3 12  1  0
  3 13  1  0
  4  5  1  0
  5  6  1  0
  5 14  1  0
  5 15  1  0
  6 16  1  0
  6 17  1  0
  6 18  1  0
M  END
>  <reaction>  (1) 
rmg_rxn_335

>  <mol_properties>  (1) 
{"2": {"label": "donator", "atom_type": "Cs"}, "11": {"label": "d_hydrogen", "atom_type": "H0"}}

>  <type>  (1) 
r1h

$$$$

     RDKit          3D

 17 16  0  0  0  0  0  0  0  0999 V2000
    3.3619    0.3511   -1.0290 C   0  0  0  0  0  3  0  0  0  0  0  0
    2.1806    1.0643   -0.5073 C   0  0  0  0  0  0  0  0  0  0  0  0
    1.4028    0.1998    0.2757 O   0  0  0  0  0  0  0  0  0  0  0  0
    0.2433    0.8081    0.7885 C   0  0  0  0  0  0  0  0  0  0  0  0
   -0.5040   -0.1878    1.6510 C   0  0  0  0  0  0  0  0  0  0  0  0
    0.2852   -0.6298    2.8762 C   0  0  0  0  0  0  0  0  0  0  0  0
    4.1174    0.8902   -1.5820 H   0  0  0  0  0  0  0  0  0  0  0  0
    3.4399   -0.7198   -0.9141 H   0  0  0  0  0  0  0  0  0  0  0  0
    1.5724    1.4684   -1.3398 H   0  0  0  0  0  0  0  0  0  0  0  0
    2.4896    1.9442    0.0856 H   0  0  0  0  0  0  0  0  0  0  0  0
    0.5169    1.6937    1.3835 H   0  0  0  0  0  0  0  0  0  0  0  0
   -0.3954    1.1528   -0.0379 H   0  0  0  0  0  0  0  0  0  0  0  0
   -0.7611   -1.0545    1.0367 H   0  0  0  0  0  0  0  0  0  0  0  0
   -1.4466    0.2743    1.9571 H   0  0  0  0  0  0  0  0  0  0  0  0
    0.5263    0.2245    3.5136 H   0  0  0  0  0  0  0  0  0  0  0  0
    1.2220   -1.1033    2.5825 H   0  0  0  0  0  0  0  0  0  0  0  0
   -0.2849   -1.3427    3.4737 H   0  0  0  0  0  0  0  0  0  0  0  0
  1  2  1  0
  1  7  1  0
  1  8  1  0
  2  3  1  0
  2  9  1  0
  2 10  1  0
  3  4  1  0
  4  5  1  0
  4 11  1  0
  4 12  1  0
  5  6  1  0
  5 13  1  0
  5 14  1  0
  6 15  1  0
  6 16  1  0
  6 17  1  0
M  RAD  1   1   2
M  END
>  <reaction>  (2) 
rmg_rxn_335

>  <mol_properties>  (2) 
{"0": {"label": "acceptor", "atom_type": "Cs"}}

>  <type>  (2) 
r2

$$$$

     RDKit          3D

 18 17  0  0  0  0  0  0  0  0999 V2000
    2.2026   -0.7213   -0.2612 C   0  0  0  0  0  0  0  0  0  0  0  0
    1.5384    0.2638    0.6915 C   0  0  0  0  0  0  0  0  0  0  0  0
    2.2584    1.5946    0.7694 C   0  0  0  0  0  0  0  0  0  0  0  0
    2.2212    2.2185   -0.4893 O   0  0  0  0  0  0  0  0  0  0  0  0
    2.8988    3.4488   -0.5204 C   0  0  0  0  0  0  0  0  0  0  0  0
    2.7981    4.0296   -1.9118 C   0  0  0  0  0  0  0  0  0  0  0  0
    3.2294   -0.9309    0.0486 H   0  0  0  0  0  0  0  0  0  0  0  0
    2.2338   -0.3181   -1.2734 H   0  0  0  0  0  0  0  0  0  0  0  0
    1.6610   -1.6680   -0.2875 H   0  0  0  0  0  0  0  0  0  0  0  0
    1.4990   -0.1566    1.7002 H   0  0  0  0  0  0  0  0  0  0  0  0
    0.5055    0.4455    0.3835 H   0  0  0  0  0  0  0  0  0  0  0  0
    3.3038    1.4410    1.0808 H   0  0  0  0  0  0  0  0  0  0  0  0
    1.7844    2.2410    1.5226 H   0  0  0  0  0  0  0  0  0  0  0  0
    2.4596    4.1376    0.2164 H   0  0  0  0  0  0  0  0  0  0  0  0
    3.9524    3.3035   -0.2397 H   0  0  0  0  0  0  0  0  0  0  0  0
    1.7543    4.1869   -2.1856 H   0  0  0  0  0  0  0  0  0  0  0  0
    3.2472    3.3545   -2.6411 H   0  0  0  0  0  0  0  0  0  0  0  0
    3.3178    4.9878   -1.9600 H   0  0  0  0  0  0  0  0  0  0  0  0
  1  2  1  0
  1  7  1  0
  1  8  1  0
  1  9  1  0
  2  3  1  0
  2 10  1  0
  2 11  1  0
  3  4  1  0
  3 12  1  0
  3 13  1  0
  4  5  1  0
  5  6  1  0
  5 14  1  0
  5 15  1  0
  6 16  1  0
  6 17  1  0
  6 18  1  0
M  END
>  <reaction>  (3) 
rmg_rxn_335

>  <mol_properties>  (3) 
{"0": {"label": "acceptor", "atom_type": "Cs"}, "17": {"label": "a_hydrogen", "atom_type": "H0"}}

>  <type>  (3) 
r2h

$$$$

     RDKit          3D

 35 33  0  0  0  0  0  0  0  0999 V2000
    1.7053   -1.4929    0.1288 C   0  0  0  0  0  3  0  0  0  0  0  0
    1.5392   -0.4777   -0.9556 C   0  0  0  0  0  0  0  0  0  0  0  0
    1.3365    0.7902   -0.3804 O   0  0  0  0  0  0  0  0  0  0  0  0
    1.0536    1.7917   -1.3244 C   0  0  0  0  0  0  0  0  0  0  0  0
    0.9045    3.1209   -0.6132 C   0  0  0  0  0  0  0  0  0  0  0  0
    2.1802    3.5744    0.0837 C   0  0  0  0  0  0  0  0  0  0  0  0
    1.9558   -2.4879   -0.2329 H   0  0  0  0  0  0  0  0  0  0  0  0
    2.3405   -1.1708    0.9508 H   0  0  0  0  0  0  0  0  0  0  0  0
    0.6825   -0.7407   -1.5954 H   0  0  0  0  0  0  0  0  0  0  0  0
    2.4278   -0.4442   -1.6092 H   0  0  0  0  0  0  0  0  0  0  0  0
    1.8653    1.8484   -2.0665 H   0  0  0  0  0  0  0  0  0  0  0  0
    0.1302    1.5420   -1.8672 H   0  0  0  0  0  0  0  0  0  0  0  0
    0.0903    3.0375    0.1113 H   0  0  0  0  0  0  0  0  0  0  0  0
    0.5935    3.8647   -1.3519 H   0  0  0  0  0  0  0  0  0  0  0  0
    2.9972    3.6868   -0.6332 H   0  0  0  0  0  0  0  0  0  0  0  0
    2.4910    2.8463    0.8331 H   0  0  0  0  0  0  0  0  0  0  0  0
    2.0361    4.5351    0.5802 H   0  0  0  0  0  0  0  0  0  0  0  0
   -1.2039   -3.2210   -1.0791 C   0  0  0  0  0  0  0  0  0  0  0  0
   -1.2345   -3.2088    0.4448 C   0  0  0  0  0  0  0  0  0  0  0  0
   -0.8238   -1.8900    1.0469 C   0  0  0  0  0  0  0  0  0  0  0  0
   -1.6083   -0.8545    0.5784 O   0  0  0  0  0  0  0  0  0  0  0  0
   -1.4536    0.3581    1.2896 C   0  0  0  0  0  0  0  0  0  0  0  0
   -2.2864    1.4201    0.6127 C   0  0  0  0  0  0  0  0  0  0  0  0
   -0.1955   -3.0326   -1.4528 H   0  0  0  0  0  0  0  0  0  0  0  0
   -1.8613   -2.4522   -1.4851 H   0  0  0  0  0  0  0  0  0  0  0  0
   -1.5292   -4.1876   -1.4662 H   0  0  0  0  0  0  0  0  0  0  0  0
   -0.5648   -3.9773    0.8407 H   0  0  0  0  0  0  0  0  0  0  0  0
   -2.2424   -3.4600    0.7931 H   0  0  0  0  0  0  0  0  0  0  0  0
    0.4100   -1.6800    0.6877 H   0  0  0  0  0  0  0  0  0  0  0  0
   -0.7786   -1.9132    2.1436 H   0  0  0  0  0  0  0  0  0  0  0  0
   -1.7800    0.2119    2.3285 H   0  0  0  0  0  0  0  0  0  0  0  0
   -0.3972    0.6449    1.2956 H   0  0  0  0  0  0  0  0  0  0  0  0
   -3.3372    1.1289    0.5823 H   0  0  0  0  0  0  0  0  0  0  0  0
   -1.9421    1.5785   -0.4103 H   0  0  0  0  0  0  0  0  0  0  0  0
   -2.2042    2.3641    1.1540 H   0  0  0  0  0  0  0  0  0  0  0  0
  1  2  1  0
  1  7  1  0
  1  8  1  0
  2  3  1  0
  2  9  1  0
  2 10  1  0
  3  4  1  0
  4  5  1  0
  4 11  1  0
  4 12  1  0
  5  6  1  0
  5 13  1  0
  5 14  1  0
  6 15  1  0
  6 16  1  0
  6 17  1  0
 18 19  1  0
 18 24  1  0
 18 25  1  0
 18 26  1  0
 19 20  1  0
 19 27  1  0
 19 28  1  0
 20 21  1  0
 20 29  1  0
 20 30  1  0
 21 22  1  0
 22 23  1  0
 22 31  1  0
 22 32  1  0
 23 33  1  0
 23 34  1  0
 23 35  1  0
M  RAD  1   1   2
M  END
>  <reaction>  (4) 
rmg_rxn_335

>  <mol_properties>  (4) 
{"0": {"label": "*3", "atom_type": "Cs"}, "1": {"label": "*4", "atom_type": "Cs"}, "19": {"label": "*1", "atom_type": "Cs"}, "20": {"label": "*0", "atom_type": "O2s"}, "28": {"label": "*2", "atom_type": "H0"}}

>  <type>  (4) 
ts

$$$$

     RDKit          3D

 35 33  0  0  0  0  0  0  0  0999 V2000
    1.1641   -0.8616    0.1848 C   0  0  0  0  0  0  0  0  0  0  0  0
    0.7175    0.3757   -0.5589 C   0  0  0  0  0  0  0  0  0  0  0  0
    1.5770    1.4385   -0.2342 O   0  0  0  0  0  0  0  0  0  0  0  0
    1.2434    2.6411   -0.8803 C   0  0  0  0  0  0  0  0  0  0  0  0
    2.2459    3.7109   -0.4986 C   0  0  0  0  0  0  0  0  0  0  0  0
    3.6636    3.3932   -0.9554 C   0  0  0  0  0  0  0  0  0  0  0  0
    2.1844   -1.1276   -0.0939 H   0  0  0  0  0  0  0  0  0  0  0  0
    1.1349   -0.6916    1.2616 H   0  0  0  0  0  0  0  0  0  0  0  0
   -0.3172    0.6341   -0.2889 H   0  0  0  0  0  0  0  0  0  0  0  0
    0.7340    0.1988   -1.6445 H   0  0  0  0  0  0  0  0  0  0  0  0
    1.2457    2.4932   -1.9719 H   0  0  0  0  0  0  0  0  0  0  0  0
    0.2275    2.9512   -0.5946 H   0  0  0  0  0  0  0  0  0  0  0  0
    2.2211    3.8386    0.5867 H   0  0  0  0  0  0  0  0  0  0  0  0
    1.9124    4.6558   -0.9366 H   0  0  0  0  0  0  0  0  0  0  0  0
    3.7080    3.2864   -2.0421 H   0  0  0  0  0  0  0  0  0  0  0  0
    4.0118    2.4601   -0.5126 H   0  0  0  0  0  0  0  0  0  0  0  0
    4.3556    4.1863   -0.6685 H   0  0  0  0  0  0  0  0  0  0  0  0
   -0.9240   -3.6044   -1.0728 C   0  0  0  0  0  0  0  0  0  0  0  0
   -0.9240   -3.6044    0.4501 C   0  0  0  0  0  0  0  0  0  0  0  0
   -0.9240   -2.2114    1.0457 C   0  0  0  0  0  3  0  0  0  0  0  0
   -2.1070   -1.5478    0.6781 O   0  0  0  0  0  0  0  0  0  0  0  0
   -2.1777   -0.2297    1.1589 C   0  0  0  0  0  0  0  0  0  0  0  0
   -3.4810    0.3881    0.7081 C   0  0  0  0  0  0  0  0  0  0  0  0
   -0.0419   -3.0901   -1.4624 H   0  0  0  0  0  0  0  0  0  0  0  0
   -1.8067   -3.0947   -1.4588 H   0  0  0  0  0  0  0  0  0  0  0  0
   -0.9185   -4.6223   -1.4654 H   0  0  0  0  0  0  0  0  0  0  0  0
   -0.0425   -4.1309    0.8264 H   0  0  0  0  0  0  0  0  0  0  0  0
   -1.7984   -4.1424    0.8254 H   0  0  0  0  0  0  0  0  0  0  0  0
    0.1250   -1.5333    0.6132 H   0  0  0  0  0  0  0  0  0  0  0  0
   -0.8492   -2.2653    2.1417 H   0  0  0  0  0  0  0  0  0  0  0  0
   -2.1105   -0.2269    2.2570 H   0  0  0  0  0  0  0  0  0  0  0  0
   -1.3249    0.3533    0.7811 H   0  0  0  0  0  0  0  0  0  0  0  0
   -4.3274   -0.1813    1.0938 H   0  0  0  0  0  0  0  0  0  0  0  0
   -3.5418    0.3999   -0.3807 H   0  0  0  0  0  0  0  0  0  0  0  0
   -3.5587    1.4141    1.0712 H   0  0  0  0  0  0  0  0  0  0  0  0
  1  2  1  0
  1  7  1  0
  1  8  1  0
  1 29  1  0
  2  3  1  0
  2  9  1  0
  2 10  1  0
  3  4  1  0
  4  5  1  0
  4 11  1  0
  4 12  1  0
  5  6  1  0
  5 13  1  0
  5 14  1  0
  6 15  1  0
  6 16  1  0
  6 17  1  0
 18 19  1  0
 18 24  1  0
 18 25  1  0
 18 26  1  0
 19 20  1  0
 19 27  1  0
 19 28  1  0
 20 21  1  0
 20 30  1  0
 21 22  1  0
 22 23  1  0
 22 31  1  0
 22 32  1  0
 23 33  1  0
 23 34  1  0
 23 35  1  0
M  RAD  1  20   2
M  END
>  <reaction>  (5) 
rmg_rxn_335

>  <mol_properties>  (5) 
{"0": {"label": "*3", "atom_type": "Cs"}, "1": {"label": "*4", "atom_type": "Cs"}, "19": {"label": "*1", "atom_type": "Cs"}, "20": {"label": "*0", "atom_type": "O2s"}, "28": {"label": "*2", "atom_type": "H0"}}

>  <type>  (5) 
unop_1

>  <geom_source>  (5) 
Heuristics

$$$$

     RDKit          3D

 35 33  0  0  0  0  0  0  0  0999 V2000
    0.6693    0.2206    0.9704 C   0  0  0  0  0  0  0  0  0  0  0  0
    1.0616   -0.2471   -0.4120 C   0  0  0  0  0  0  0  0  0  0  0  0
    1.8754    0.7293   -1.0103 O   0  0  0  0  0  0  0  0  0  0  0  0
    2.2959    0.3851   -2.3063 C   0  0  0  0  0  0  0  0  0  0  0  0
    3.1953    1.4768   -2.8488 C   0  0  0  0  0  0  0  0  0  0  0  0
    4.4782    1.6493   -2.0465 C   0  0  0  0  0  0  0  0  0  0  0  0
    1.5554    0.3758    1.5870 H   0  0  0  0  0  0  0  0  0  0  0  0
    0.1203    1.1612    0.9141 H   0  0  0  0  0  0  0  0  0  0  0  0
    0.1665   -0.4185   -1.0282 H   0  0  0  0  0  0  0  0  0  0  0  0
    1.6032   -1.2029   -0.3553 H   0  0  0  0  0  0  0  0  0  0  0  0
    2.8376   -0.5738   -2.2823 H   0  0  0  0  0  0  0  0  0  0  0  0
    1.4221    0.2506   -2.9608 H   0  0  0  0  0  0  0  0  0  0  0  0
    2.6332    2.4142   -2.8639 H   0  0  0  0  0  0  0  0  0  0  0  0
    3.4315    1.2323   -3.8882 H   0  0  0  0  0  0  0  0  0  0  0  0
    5.0626    0.7258   -2.0429 H   0  0  0  0  0  0  0  0  0  0  0  0
    4.2545    1.9081   -1.0116 H   0  0  0  0  0  0  0  0  0  0  0  0
    5.1022    2.4385   -2.4685 H   0  0  0  0  0  0  0  0  0  0  0  0
   -1.4188   -2.5222   -0.2872 C   0  0  0  0  0  0  0  0  0  0  0  0
   -1.4188   -2.5222    1.2357 C   0  0  0  0  0  0  0  0  0  0  0  0
   -1.4188   -1.1292    1.8312 C   0  0  0  0  0  3  0  0  0  0  0  0
   -2.6018   -0.4656    1.4636 O   0  0  0  0  0  0  0  0  0  0  0  0
   -2.6725    0.8525    1.9445 C   0  0  0  0  0  0  0  0  0  0  0  0
   -3.9758    1.4703    1.4937 C   0  0  0  0  0  0  0  0  0  0  0  0
   -0.5367   -2.0079   -0.6768 H   0  0  0  0  0  0  0  0  0  0  0  0
   -2.3015   -2.0126   -0.6733 H   0  0  0  0  0  0  0  0  0  0  0  0
   -1.4133   -3.5401   -0.6799 H   0  0  0  0  0  0  0  0  0  0  0  0
   -0.5373   -3.0487    1.6120 H   0  0  0  0  0  0  0  0  0  0  0  0
   -2.2932   -3.0602    1.6110 H   0  0  0  0  0  0  0  0  0  0  0  0
   -0.3698   -0.4511    1.3988 H   0  0  0  0  0  0  0  0  0  0  0  0
   -1.3440   -1.1831    2.9273 H   0  0  0  0  0  0  0  0  0  0  0  0
   -2.6053    0.8553    3.0426 H   0  0  0  0  0  0  0  0  0  0  0  0
   -1.8197    1.4355    1.5666 H   0  0  0  0  0  0  0  0  0  0  0  0
   -4.8222    0.9009    1.8794 H   0  0  0  0  0  0  0  0  0  0  0  0
   -4.0366    1.4821    0.4049 H   0  0  0  0  0  0  0  0  0  0  0  0
   -4.0535    2.4963    1.8567 H   0  0  0  0  0  0  0  0  0  0  0  0
  1  2  1  0
  1  7  1  0
  1  8  1  0
  1 29  1  0
  2  3  1  0
  2  9  1  0
  2 10  1  0
  3  4  1  0
  4  5  1  0
  4 11  1  0
  4 12  1  0
  5  6  1  0
  5 13  1  0
  5 14  1  0
  6 15  1  0
  6 16  1  0
  6 17  1  0
 18 19  1  0
 18 24  1  0
 18 25  1  0
 18 26  1  0
 19 20  1  0
 19 27  1  0
 19 28  1  0
 20 21  1  0
 20 30  1  0
 21 22  1  0
 22 23  1  0
 22 31  1  0
 22 32  1  0
 23 33  1  0
 23 34  1  0
 23 35  1  0
M  RAD  1  20   2
M  END
>  <reaction>  (6) 
rmg_rxn_335

>  <mol_properties>  (6) 
{"0": {"label": "*3", "atom_type": "Cs"}, "1": {"label": "*4", "atom_type": "Cs"}, "19": {"label": "*1", "atom_type": "Cs"}, "20": {"label": "*0", "atom_type": "O2s"}, "28": {"label": "*2", "atom_type": "H0"}}

>  <type>  (6) 
unop_2

>  <geom_source>  (6) 
Heuristics

$$$$

     RDKit          3D

 35 33  0  0  0  0  0  0  0  0999 V2000
    0.9487   -0.8364   -0.1116 C   0  0  0  0  0  0  0  0  0  0  0  0
    0.6293    0.6393   -0.1731 C   0  0  0  0  0  0  0  0  0  0  0  0
    1.8142    1.3708    0.0121 O   0  0  0  0  0  0  0  0  0  0  0  0
    1.6212    2.7622   -0.0294 C   0  0  0  0  0  0  0  0  0  0  0  0
    2.9556    3.4594    0.1400 C   0  0  0  0  0  0  0  0  0  0  0  0
    3.9351    3.1592   -0.9868 C   0  0  0  0  0  0  0  0  0  0  0  0
    1.6620   -1.1058   -0.8914 H   0  0  0  0  0  0  0  0  0  0  0  0
    1.3826   -1.0935    0.8553 H   0  0  0  0  0  0  0  0  0  0  0  0
   -0.1023    0.9069    0.6037 H   0  0  0  0  0  0  0  0  0  0  0  0
    0.1788    0.8951   -1.1435 H   0  0  0  0  0  0  0  0  0  0  0  0
    1.1644    3.0487   -0.9900 H   0  0  0  0  0  0  0  0  0  0  0  0
    0.9272    3.0686    0.7669 H   0  0  0  0  0  0  0  0  0  0  0  0
    3.3844    3.1598    1.0997 H   0  0  0  0  0  0  0  0  0  0  0  0
    2.7678    4.5351    0.1987 H   0  0  0  0  0  0  0  0  0  0  0  0
    3.5290    3.4758   -1.9508 H   0  0  0  0  0  0  0  0  0  0  0  0
    4.1411    2.0905   -1.0449 H   0  0  0  0  0  0  0  0  0  0  0  0
    4.8809    3.6813   -0.8344 H   0  0  0  0  0  0  0  0  0  0  0  0
   -1.1394   -3.5793   -1.3692 C   0  0  0  0  0  0  0  0  0  0  0  0
   -1.1394   -3.5793    0.1537 C   0  0  0  0  0  0  0  0  0  0  0  0
   -1.1394   -2.1862    0.7492 C   0  0  0  0  0  3  0  0  0  0  0  0
   -2.3224   -1.5226    0.3816 O   0  0  0  0  0  0  0  0  0  0  0  0
   -2.3931   -0.2046    0.8625 C   0  0  0  0  0  0  0  0  0  0  0  0
   -3.6965    0.4132    0.4117 C   0  0  0  0  0  0  0  0  0  0  0  0
   -0.2574   -3.0650   -1.7588 H   0  0  0  0  0  0  0  0  0  0  0  0
   -2.0221   -3.0696   -1.7553 H   0  0  0  0  0  0  0  0  0  0  0  0
   -1.1339   -4.5972   -1.7619 H   0  0  0  0  0  0  0  0  0  0  0  0
   -0.2579   -4.1058    0.5300 H   0  0  0  0  0  0  0  0  0  0  0  0
   -2.0138   -4.1173    0.5290 H   0  0  0  0  0  0  0  0  0  0  0  0
   -0.0904   -1.5081    0.3168 H   0  0  0  0  0  0  0  0  0  0  0  0
   -1.0646   -2.2401    1.8453 H   0  0  0  0  0  0  0  0  0  0  0  0
   -2.3259   -0.2017    1.9606 H   0  0  0  0  0  0  0  0  0  0  0  0
   -1.5403    0.3784    0.4846 H   0  0  0  0  0  0  0  0  0  0  0  0
   -4.5428   -0.1562    0.7974 H   0  0  0  0  0  0  0  0  0  0  0  0
   -3.7573    0.4251   -0.6771 H   0  0  0  0  0  0  0  0  0  0  0  0
   -3.7741    1.4392    0.7747 H   0  0  0  0  0  0  0  0  0  0  0  0
  1  2  1  0
  1  7  1  0
  1  8  1  0
  1 29  1  0
  2  3  1  0
  2  9  1  0
  2 10  1  0
  3  4  1  0
  4  5  1  0
  4 11  1  0
  4 12  1  0
  5  6  1  0
  5 13  1  0
  5 14  1  0
  6 15  1  0
  6 16  1  0
  6 17  1  0
 18 19  1  0
 18 24  1  0
 18 25  1  0
 18 26  1  0
 19 20  1  0
 19 27  1  0
 19 28  1  0
 20 21  1  0
 20 30  1  0
 21 22  1  0
 22 23  1  0
 22 31  1  0
 22 32  1  0
 23 33  1  0
 23 34  1  0
 23 35  1  0
M  RAD  1  20   2
M  END
>  <reaction>  (7) 
rmg_rxn_335

>  <mol_properties>  (7) 
{"0": {"label": "*3", "atom_type": "Cs"}, "1": {"label": "*4", "atom_type": "Cs"}, "19": {"label": "*1", "atom_type": "Cs"}, "20": {"label": "*0", "atom_type": "O2s"}, "28": {"label": "*2", "atom_type": "H0"}}

>  <type>  (7) 
unop_3

>  <geom_source>  (7) 
Heuristics

$$$$

     RDKit          3D

 35 33  0  0  0  0  0  0  0  0999 V2000
    0.1606    0.3072   -0.6263 C   0  0  0  0  0  0  0  0  0  0  0  0
    1.4383   -0.3929   -0.2252 C   0  0  0  0  0  0  0  0  0  0  0  0
    2.4391    0.5700   -0.0132 O   0  0  0  0  0  0  0  0  0  0  0  0
    3.6731    0.0153    0.3670 C   0  0  0  0  0  0  0  0  0  0  0  0
    4.6709    1.1293    0.6092 C   0  0  0  0  0  0  0  0  0  0  0  0
    4.2759    2.0474    1.7582 C   0  0  0  0  0  0  0  0  0  0  0  0
   -0.1619    0.9928    0.1581 H   0  0  0  0  0  0  0  0  0  0  0  0
    0.3097    0.8789   -1.5430 H   0  0  0  0  0  0  0  0  0  0  0  0
    1.7543   -1.0958   -1.0103 H   0  0  0  0  0  0  0  0  0  0  0  0
    1.2833   -0.9804    0.6917 H   0  0  0  0  0  0  0  0  0  0  0  0
    3.5481   -0.5855    1.2817 H   0  0  0  0  0  0  0  0  0  0  0  0
    4.0393   -0.6600   -0.4202 H   0  0  0  0  0  0  0  0  0  0  0  0
    4.7773    1.7066   -0.3129 H   0  0  0  0  0  0  0  0  0  0  0  0
    5.6435    0.6717    0.8105 H   0  0  0  0  0  0  0  0  0  0  0  0
    4.1892    1.4871    2.6925 H   0  0  0  0  0  0  0  0  0  0  0  0
    3.3141    2.5208    1.5611 H   0  0  0  0  0  0  0  0  0  0  0  0
    5.0187    2.8326    1.9067 H   0  0  0  0  0  0  0  0  0  0  0  0
   -1.9275   -2.4356   -1.8839 C   0  0  0  0  0  0  0  0  0  0  0  0
   -1.9275   -2.4356   -0.3610 C   0  0  0  0  0  0  0  0  0  0  0  0
   -1.9275   -1.0426    0.2345 C   0  0  0  0  0  3  0  0  0  0  0  0
   -3.1105   -0.3790   -0.1331 O   0  0  0  0  0  0  0  0  0  0  0  0
   -3.1812    0.9391    0.3478 C   0  0  0  0  0  0  0  0  0  0  0  0
   -4.4845    1.5569   -0.1030 C   0  0  0  0  0  0  0  0  0  0  0  0
   -1.0454   -1.9213   -2.2735 H   0  0  0  0  0  0  0  0  0  0  0  0
   -2.8102   -1.9259   -2.2700 H   0  0  0  0  0  0  0  0  0  0  0  0
   -1.9220   -3.4535   -2.2766 H   0  0  0  0  0  0  0  0  0  0  0  0
   -1.0460   -2.9621    0.0153 H   0  0  0  0  0  0  0  0  0  0  0  0
   -2.8019   -2.9736    0.0143 H   0  0  0  0  0  0  0  0  0  0  0  0
   -0.8785   -0.3644   -0.1979 H   0  0  0  0  0  0  0  0  0  0  0  0
   -1.8527   -1.0965    1.3306 H   0  0  0  0  0  0  0  0  0  0  0  0
   -3.1140    0.9420    1.4459 H   0  0  0  0  0  0  0  0  0  0  0  0
   -2.3284    1.5221   -0.0301 H   0  0  0  0  0  0  0  0  0  0  0  0
   -5.3309    0.9875    0.2827 H   0  0  0  0  0  0  0  0  0  0  0  0
   -4.5453    1.5687   -1.1918 H   0  0  0  0  0  0  0  0  0  0  0  0
   -4.5621    2.5829    0.2600 H   0  0  0  0  0  0  0  0  0  0  0  0
  1  2  1  0
  1  7  1  0
  1  8  1  0
  1 29  1  0
  2  3  1  0
  2  9  1  0
  2 10  1  0
  3  4  1  0
  4  5  1  0
  4 11  1  0
  4 12  1  0
  5  6  1  0
  5 13  1  0
  5 14  1  0
  6 15  1  0
  6 16  1  0
  6 17  1  0
 18 19  1  0
 18 24  1  0
 18 25  1  0
 18 26  1  0
 19 20  1  0
 19 27  1  0
 19 28  1  0
 20 21  1  0
 20 30  1  0
 21 22  1  0
 22 23  1  0
 22 31  1  0
 22 32  1  0
 23 33  1  0
 23 34  1  0
 23 35  1  0
M  RAD  1  20   2
M  END
>  <reaction>  (8) 
rmg_rxn_335

>  <mol_properties>  (8) 
{"0": {"label": "*3", "atom_type": "Cs"}, "1": {"label": "*4", "atom_type": "Cs"}, "19": {"label": "*1", "atom_type": "Cs"}, "20": {"label": "*0", "atom_type": "O2s"}, "28": {"label": "*2", "atom_type": "H0"}}

>  <type>  (8) 
unop_4

>  <geom_source>  (8) 
Heuristics

$$$$

     RDKit          3D

 35 33  0  0  0  0  0  0  0  0999 V2000
    0.8725   -0.8037   -0.1350 C   0  0  0  0  0  0  0  0  0  0  0  0
    0.8772    0.5869    0.4563 C   0  0  0  0  0  0  0  0  0  0  0  0
    2.0015    1.2816   -0.0200 O   0  0  0  0  0  0  0  0  0  0  0  0
    2.0957    2.5935    0.4749 C   0  0  0  0  0  0  0  0  0  0  0  0
    3.3122    3.2697   -0.1236 C   0  0  0  0  0  0  0  0  0  0  0  0
    3.2299    3.4197   -1.6368 C   0  0  0  0  0  0  0  0  0  0  0  0
    0.8298   -0.7559   -1.2237 H   0  0  0  0  0  0  0  0  0  0  0  0
    1.7762   -1.3434    0.1505 H   0  0  0  0  0  0  0  0  0  0  0  0
    0.9044    0.5374    1.5550 H   0  0  0  0  0  0  0  0  0  0  0  0
   -0.0411    1.1256    0.1794 H   0  0  0  0  0  0  0  0  0  0  0  0
    1.1850    3.1574    0.2176 H   0  0  0  0  0  0  0  0  0  0  0  0
    2.1704    2.5761    1.5721 H   0  0  0  0  0  0  0  0  0  0  0  0
    4.1994    2.6922    0.1486 H   0  0  0  0  0  0  0  0  0  0  0  0
    3.4166    4.2514    0.3468 H   0  0  0  0  0  0  0  0  0  0  0  0
    2.3597    4.0160   -1.9225 H   0  0  0  0  0  0  0  0  0  0  0  0
    3.1405    2.4453   -2.1171 H   0  0  0  0  0  0  0  0  0  0  0  0
    4.1186    3.9145   -2.0313 H   0  0  0  0  0  0  0  0  0  0  0  0
   -1.2156   -3.5466   -1.3926 C   0  0  0  0  0  0  0  0  0  0  0  0
   -1.2156   -3.5466    0.1304 C   0  0  0  0  0  0  0  0  0  0  0  0
   -1.2156   -2.1535    0.7259 C   0  0  0  0  0  3  0  0  0  0  0  0
   -2.3986   -1.4899    0.3583 O   0  0  0  0  0  0  0  0  0  0  0  0
   -2.4693   -0.1718    0.8392 C   0  0  0  0  0  0  0  0  0  0  0  0
   -3.7726    0.4459    0.3883 C   0  0  0  0  0  0  0  0  0  0  0  0
   -0.3335   -3.0322   -1.7822 H   0  0  0  0  0  0  0  0  0  0  0  0
   -2.0983   -3.0369   -1.7786 H   0  0  0  0  0  0  0  0  0  0  0  0
   -1.2101   -4.5644   -1.7852 H   0  0  0  0  0  0  0  0  0  0  0  0
   -0.3341   -4.0730    0.5066 H   0  0  0  0  0  0  0  0  0  0  0  0
   -2.0900   -4.0845    0.5056 H   0  0  0  0  0  0  0  0  0  0  0  0
   -0.1666   -1.4754    0.2934 H   0  0  0  0  0  0  0  0  0  0  0  0
   -1.1408   -2.2074    1.8219 H   0  0  0  0  0  0  0  0  0  0  0  0
   -2.4021   -0.1690    1.9372 H   0  0  0  0  0  0  0  0  0  0  0  0
   -1.6165    0.4111    0.4613 H   0  0  0  0  0  0  0  0  0  0  0  0
   -4.6190   -0.1235    0.7740 H   0  0  0  0  0  0  0  0  0  0  0  0
   -3.8335    0.4578   -0.7005 H   0  0  0  0  0  0  0  0  0  0  0  0
   -3.8503    1.4720    0.7514 H   0  0  0  0  0  0  0  0  0  0  0  0
  1  2  1  0
  1  7  1  0
  1  8  1  0
  1 29  1  0
  2  3  1  0
  2  9  1  0
  2 10  1  0
  3  4  1  0
  4  5  1  0
  4 11  1  0
  4 12  1  0
  5  6  1  0
  5 13  1  0
  5 14  1  0
  6 15  1  0
  6 16  1  0
  6 17  1  0
 18 19  1  0
 18 24  1  0
 18 25  1  0
 18 26  1  0
 19 20  1  0
 19 27  1  0
 19 28  1  0
 20 21  1  0
 20 30  1  0
 21 22  1  0
 22 23  1  0
 22 31  1  0
 22 32  1  0
 23 33  1  0
 23 34  1  0
 23 35  1  0
M  RAD  1  20   2
M  END
>  <reaction>  (9) 
rmg_rxn_335

>  <mol_properties>  (9) 
{"0": {"label": "*3", "atom_type": "Cs"}, "1": {"label": "*4", "atom_type": "Cs"}, "19": {"label": "*1", "atom_type": "Cs"}, "20": {"label": "*0", "atom_type": "O2s"}, "28": {"label": "*2", "atom_type": "H0"}}

>  <type>  (9) 
unop_5

>  <geom_source>  (9) 
Heuristics

$$$$

     RDKit          3D

 35 33  0  0  0  0  0  0  0  0999 V2000
    0.4412   -0.1562   -0.8749 C   0  0  0  0  0  0  0  0  0  0  0  0
    1.6151   -0.3584    0.0550 C   0  0  0  0  0  0  0  0  0  0  0  0
    2.3029    0.8588    0.1929 O   0  0  0  0  0  0  0  0  0  0  0  0
    3.4177    0.7744    1.0445 C   0  0  0  0  0  0  0  0  0  0  0  0
    4.0662    2.1388    1.1592 C   0  0  0  0  0  0  0  0  0  0  0  0
    3.1572    3.1821    1.7952 C   0  0  0  0  0  0  0  0  0  0  0  0
   -0.2387    0.5964   -0.4741 H   0  0  0  0  0  0  0  0  0  0  0  0
    0.7834    0.1766   -1.8555 H   0  0  0  0  0  0  0  0  0  0  0  0
    2.2922   -1.1290   -0.3425 H   0  0  0  0  0  0  0  0  0  0  0  0
    1.2701   -0.7075    1.0394 H   0  0  0  0  0  0  0  0  0  0  0  0
    3.1035    0.4204    2.0392 H   0  0  0  0  0  0  0  0  0  0  0  0
    4.1371    0.0423    0.6492 H   0  0  0  0  0  0  0  0  0  0  0  0
    4.3696    2.4640    0.1608 H   0  0  0  0  0  0  0  0  0  0  0  0
    4.9810    2.0277    1.7480 H   0  0  0  0  0  0  0  0  0  0  0  0
    2.8649    2.8811    2.8043 H   0  0  0  0  0  0  0  0  0  0  0  0
    2.2482    3.3116    1.2079 H   0  0  0  0  0  0  0  0  0  0  0  0
    3.6583    4.1486    1.8662 H   0  0  0  0  0  0  0  0  0  0  0  0
   -1.6469   -2.8991   -2.1325 C   0  0  0  0  0  0  0  0  0  0  0  0
   -1.6469   -2.8991   -0.6096 C   0  0  0  0  0  0  0  0  0  0  0  0
   -1.6469   -1.5060   -0.0141 C   0  0  0  0  0  3  0  0  0  0  0  0
   -2.8299   -0.8424   -0.3817 O   0  0  0  0  0  0  0  0  0  0  0  0
   -2.9006    0.4757    0.0992 C   0  0  0  0  0  0  0  0  0  0  0  0
   -4.2039    1.0934   -0.3516 C   0  0  0  0  0  0  0  0  0  0  0  0
   -0.7648   -2.3847   -2.5221 H   0  0  0  0  0  0  0  0  0  0  0  0
   -2.5296   -2.3894   -2.5186 H   0  0  0  0  0  0  0  0  0  0  0  0
   -1.6414   -3.9169   -2.5252 H   0  0  0  0  0  0  0  0  0  0  0  0
   -0.7654   -3.4255   -0.2333 H   0  0  0  0  0  0  0  0  0  0  0  0
   -2.5213   -3.4370   -0.2343 H   0  0  0  0  0  0  0  0  0  0  0  0
   -0.5979   -0.8279   -0.4466 H   0  0  0  0  0  0  0  0  0  0  0  0
   -1.5721   -1.5599    1.0819 H   0  0  0  0  0  0  0  0  0  0  0  0
   -2.8334    0.4785    1.1973 H   0  0  0  0  0  0  0  0  0  0  0  0
   -2.0478    1.0586   -0.2787 H   0  0  0  0  0  0  0  0  0  0  0  0
   -5.0503    0.5240    0.0340 H   0  0  0  0  0  0  0  0  0  0  0  0
   -4.2647    1.1053   -1.4405 H   0  0  0  0  0  0  0  0  0  0  0  0
   -4.2815    2.1195    0.0114 H   0  0  0  0  0  0  0  0  0  0  0  0
  1  2  1  0
  1  7  1  0
  1  8  1  0
  1 29  1  0
  2  3  1  0
  2  9  1  0
  2 10  1  0
  3  4  1  0
  4  5  1  0
  4 11  1  0
  4 12  1  0
  5  6  1  0
  5 13  1  0
  5 14  1  0
  6 15  1  0
  6 16  1  0
  6 17  1  0
 18 19  1  0
 18 24  1  0
 18 25  1  0
 18 26  1  0
 19 20  1  0
 19 27  1  0
 19 28  1  0
 20 21  1  0
 20 30  1  0
 21 22  1  0
 22 23  1  0
 22 31  1  0
 22 32  1  0
 23 33  1  0
 23 34  1  0
 23 35  1  0
M  RAD  1  20   2
M  END
>  <reaction>  (10) 
rmg_rxn_335

>  <mol_properties>  (10) 
{"0": {"label": "*3", "atom_type": "Cs"}, "1": {"label": "*4", "atom_type": "Cs"}, "19": {"label": "*1", "atom_type": "Cs"}, "20": {"label": "*0", "atom_type": "O2s"}, "28": {"label": "*2", "atom_type": "H0"}}

>  <type>  (10) 
unop_6

>  <geom_source>  (10) 
Heuristics

$$$$

     RDKit          3D

 35 33  0  0  0  0  0  0  0  0999 V2000
    0.7726   -0.5905   -0.7587 C   0  0  0  0  0  0  0  0  0  0  0  0
    1.6394   -0.1685    0.4050 C   0  0  0  0  0  0  0  0  0  0  0  0
    2.1159    1.1322    0.1711 O   0  0  0  0  0  0  0  0  0  0  0  0
    2.9362    1.6182    1.2035 C   0  0  0  0  0  0  0  0  0  0  0  0
    3.3656    3.0344    0.8790 C   0  0  0  0  0  0  0  0  0  0  0  0
    2.1996    4.0110    0.8035 C   0  0  0  0  0  0  0  0  0  0  0  0
   -0.0746    0.0872   -0.8695 H   0  0  0  0  0  0  0  0  0  0  0  0
    1.3461   -0.5789   -1.6862 H   0  0  0  0  0  0  0  0  0  0  0  0
    2.4851   -0.8618    0.5257 H   0  0  0  0  0  0  0  0  0  0  0  0
    1.0640   -0.1939    1.3422 H   0  0  0  0  0  0  0  0  0  0  0  0
    2.3877    1.5990    2.1586 H   0  0  0  0  0  0  0  0  0  0  0  0
    3.8171    0.9698    1.3195 H   0  0  0  0  0  0  0  0  0  0  0  0
    3.9084    3.0238   -0.0697 H   0  0  0  0  0  0  0  0  0  0  0  0
    4.0756    3.3546    1.6466 H   0  0  0  0  0  0  0  0  0  0  0  0
    1.6617    4.0498    1.7540 H   0  0  0  0  0  0  0  0  0  0  0  0
    1.4927    3.7093    0.0307 H   0  0  0  0  0  0  0  0  0  0  0  0
    2.5464    5.0196    0.5738 H   0  0  0  0  0  0  0  0  0  0  0  0
   -1.3155   -3.3333   -2.0162 C   0  0  0  0  0  0  0  0  0  0  0  0
   -1.3155   -3.3333   -0.4933 C   0  0  0  0  0  0  0  0  0  0  0  0
   -1.3155   -1.9402    0.1022 C   0  0  0  0  0  3  0  0  0  0  0  0
   -2.4985   -1.2766   -0.2654 O   0  0  0  0  0  0  0  0  0  0  0  0
   -2.5692    0.0414    0.2155 C   0  0  0  0  0  0  0  0  0  0  0  0
   -3.8725    0.6592   -0.2354 C   0  0  0  0  0  0  0  0  0  0  0  0
   -0.4334   -2.8190   -2.4059 H   0  0  0  0  0  0  0  0  0  0  0  0
   -2.1982   -2.8236   -2.4023 H   0  0  0  0  0  0  0  0  0  0  0  0
   -1.3100   -4.3512   -2.4089 H   0  0  0  0  0  0  0  0  0  0  0  0
   -0.4340   -3.8598   -0.1171 H   0  0  0  0  0  0  0  0  0  0  0  0
   -2.1899   -3.8713   -0.1181 H   0  0  0  0  0  0  0  0  0  0  0  0
   -0.2665   -1.2621   -0.3303 H   0  0  0  0  0  0  0  0  0  0  0  0
   -1.2407   -1.9942    1.1982 H   0  0  0  0  0  0  0  0  0  0  0  0
   -2.5020    0.0443    1.3135 H   0  0  0  0  0  0  0  0  0  0  0  0
   -1.7163    0.6244   -0.1624 H   0  0  0  0  0  0  0  0  0  0  0  0
   -4.7189    0.0898    0.1503 H   0  0  0  0  0  0  0  0  0  0  0  0
   -3.9333    0.6711   -1.3242 H   0  0  0  0  0  0  0  0  0  0  0  0
   -3.9501    1.6852    0.1277 H   0  0  0  0  0  0  0  0  0  0  0  0
  1  2  1  0
  1  7  1  0
  1  8  1  0
  1 29  1  0
  2  3  1  0
  2  9  1  0
  2 10  1  0
  3  4  1  0
  4  5  1  0
  4 11  1  0
  4 12  1  0
  5  6  1  0
  5 13  1  0
  5 14  1  0
  6 15  1  0
  6 16  1  0
  6 17  1  0
 18 19  1  0
 18 24  1  0
 18 25  1  0
 18 26  1  0
 19 20  1  0
 19 27  1  0
 19 28  1  0
 20 21  1  0
 20 30  1  0
 21 22  1  0
 22 23  1  0
 22 31  1  0
 22 32  1  0
 23 33  1  0
 23 34  1  0
 23 35  1  0
M  RAD  1  20   2
M  END
>  <reaction>  (11) 
rmg_rxn_335

>  <mol_properties>  (11) 
{"0": {"label": "*3", "atom_type": "Cs"}, "1": {"label": "*4", "atom_type": "Cs"}, "19": {"label": "*1", "atom_type": "Cs"}, "20": {"label": "*0", "atom_type": "O2s"}, "28": {"label": "*2", "atom_type": "H0"}}

>  <type>  (11) 
unop_7

>  <geom_source>  (11) 
Heuristics

$$$$

     RDKit          3D

 35 33  0  0  0  0  0  0  0  0999 V2000
    1.2230   -0.6695    0.6335 C   0  0  0  0  0  0  0  0  0  0  0  0
    0.8803    0.0699   -0.6391 C   0  0  0  0  0  0  0  0  0  0  0  0
    1.4910    1.3347   -0.6106 O   0  0  0  0  0  0  0  0  0  0  0  0
    1.2314    2.1038   -1.7578 C   0  0  0  0  0  0  0  0  0  0  0  0
    1.9611    3.4272   -1.6507 C   0  0  0  0  0  0  0  0  0  0  0  0
    3.4756    3.2740   -1.6082 C   0  0  0  0  0  0  0  0  0  0  0  0
    2.3026   -0.7946    0.7238 H   0  0  0  0  0  0  0  0  0  0  0  0
    0.8666   -0.1176    1.5039 H   0  0  0  0  0  0  0  0  0  0  0  0
   -0.2098    0.1817   -0.7370 H   0  0  0  0  0  0  0  0  0  0  0  0
    1.2278   -0.4943   -1.5171 H   0  0  0  0  0  0  0  0  0  0  0  0
    1.5640    1.5604   -2.6564 H   0  0  0  0  0  0  0  0  0  0  0  0
    0.1492    2.2722   -1.8595 H   0  0  0  0  0  0  0  0  0  0  0  0
    1.6109    3.9451   -0.7541 H   0  0  0  0  0  0  0  0  0  0  0  0
    1.6690    4.0423   -2.5064 H   0  0  0  0  0  0  0  0  0  0  0  0
    3.8426    2.7785   -2.5105 H   0  0  0  0  0  0  0  0  0  0  0  0
    3.7791    2.6744   -0.7499 H   0  0  0  0  0  0  0  0  0  0  0  0
    3.9667    4.2455   -1.5366 H   0  0  0  0  0  0  0  0  0  0  0  0
   -0.8651   -3.4124   -0.6241 C   0  0  0  0  0  0  0  0  0  0  0  0
   -0.8651   -3.4124    0.8988 C   0  0  0  0  0  0  0  0  0  0  0  0
   -0.8651   -2.0193    1.4943 C   0  0  0  0  0  3  0  0  0  0  0  0
   -2.0481   -1.3557    1.1267 O   0  0  0  0  0  0  0  0  0  0  0  0
   -2.1188   -0.0376    1.6076 C   0  0  0  0  0  0  0  0  0  0  0  0
   -3.4221    0.5801    1.1568 C   0  0  0  0  0  0  0  0  0  0  0  0
    0.0170   -2.8980   -1.0137 H   0  0  0  0  0  0  0  0  0  0  0  0
   -1.7478   -2.9027   -1.0102 H   0  0  0  0  0  0  0  0  0  0  0  0
   -0.8596   -4.4302   -1.0168 H   0  0  0  0  0  0  0  0  0  0  0  0
    0.0164   -3.9388    1.2751 H   0  0  0  0  0  0  0  0  0  0  0  0
   -1.7395   -3.9503    1.2741 H   0  0  0  0  0  0  0  0  0  0  0  0
    0.1839   -1.3412    1.0619 H   0  0  0  0  0  0  0  0  0  0  0  0
   -0.7903   -2.0732    2.5904 H   0  0  0  0  0  0  0  0  0  0  0  0
   -2.0516   -0.0348    2.7057 H   0  0  0  0  0  0  0  0  0  0  0  0
   -1.2660    0.5453    1.2298 H   0  0  0  0  0  0  0  0  0  0  0  0
   -4.2685    0.0107    1.5425 H   0  0  0  0  0  0  0  0  0  0  0  0
   -3.4830    0.5920    0.0680 H   0  0  0  0  0  0  0  0  0  0  0  0
   -3.4998    1.6062    1.5199 H   0  0  0  0  0  0  0  0  0  0  0  0
  1  2  1  0
  1  7  1  0
  1  8  1  0
  1 29  1  0
  2  3  1  0
  2  9  1  0
  2 10  1  0
  3  4  1  0
  4  5  1  0
  4 11  1  0
  4 12  1  0
  5  6  1  0
  5 13  1  0
  5 14  1  0
  6 15  1  0
  6 16  1  0
  6 17  1  0
 18 19  1  0
 18 24  1  0
 18 25  1  0
 18 26  1  0
 19 20  1  0
 19 27  1  0
 19 28  1  0
 20 21  1  0
 20 30  1  0
 21 22  1  0
 22 23  1  0
 22 31  1  0
 22 32  1  0
 23 33  1  0
 23 34  1  0
 23 35  1  0
M  RAD  1  20   2
M  END
>  <reaction>  (12) 
rmg_rxn_335

>  <mol_properties>  (12) 
{"0": {"label": "*3", "atom_type": "Cs"}, "1": {"label": "*4", "atom_type": "Cs"}, "19": {"label": "*1", "atom_type": "Cs"}, "20": {"label": "*0", "atom_type": "O2s"}, "28": {"label": "*2", "atom_type": "H0"}}

>  <type>  (12) 
unop_8

>  <geom_source>  (12) 
Heuristics

$$$$

     RDKit          3D

 35 33  0  0  0  0  0  0  0  0999 V2000
    0.0784    0.6012   -0.0715 C   0  0  0  0  0  0  0  0  0  0  0  0
    1.2290   -0.3373   -0.3527 C   0  0  0  0  0  0  0  0  0  0  0  0
    2.4210    0.4044   -0.4029 O   0  0  0  0  0  0  0  0  0  0  0  0
    3.5560   -0.3835   -0.6599 C   0  0  0  0  0  0  0  0  0  0  0  0
    4.7893    0.4963   -0.6557 C   0  0  0  0  0  0  0  0  0  0  0  0
    5.0547    1.1488    0.6946 C   0  0  0  0  0  0  0  0  0  0  0  0
    0.2245    1.1101    0.8819 H   0  0  0  0  0  0  0  0  0  0  0  0
    0.0000    1.3553   -0.8555 H   0  0  0  0  0  0  0  0  0  0  0  0
    1.0729   -0.8617   -1.3071 H   0  0  0  0  0  0  0  0  0  0  0  0
    1.2986   -1.1058    0.4312 H   0  0  0  0  0  0  0  0  0  0  0  0
    3.6490   -1.1683    0.1075 H   0  0  0  0  0  0  0  0  0  0  0  0
    3.4505   -0.8875   -1.6318 H   0  0  0  0  0  0  0  0  0  0  0  0
    4.6716    1.2627   -1.4261 H   0  0  0  0  0  0  0  0  0  0  0  0
    5.6432   -0.1203   -0.9500 H   0  0  0  0  0  0  0  0  0  0  0  0
    5.1984    0.3931    1.4709 H   0  0  0  0  0  0  0  0  0  0  0  0
    4.2155    1.7780    0.9909 H   0  0  0  0  0  0  0  0  0  0  0  0
    5.9515    1.7691    0.6614 H   0  0  0  0  0  0  0  0  0  0  0  0
   -2.0097   -2.1416   -1.3291 C   0  0  0  0  0  0  0  0  0  0  0  0
   -2.0097   -2.1416    0.1938 C   0  0  0  0  0  0  0  0  0  0  0  0
   -2.0097   -0.7486    0.7893 C   0  0  0  0  0  3  0  0  0  0  0  0
   -3.1927   -0.0850    0.4217 O   0  0  0  0  0  0  0  0  0  0  0  0
   -3.2635    1.2331    0.9026 C   0  0  0  0  0  0  0  0  0  0  0  0
   -4.5668    1.8509    0.4518 C   0  0  0  0  0  0  0  0  0  0  0  0
   -1.1277   -1.6273   -1.7187 H   0  0  0  0  0  0  0  0  0  0  0  0
   -2.8925   -1.6319   -1.7152 H   0  0  0  0  0  0  0  0  0  0  0  0
   -2.0043   -3.1595   -1.7218 H   0  0  0  0  0  0  0  0  0  0  0  0
   -1.1282   -2.6681    0.5701 H   0  0  0  0  0  0  0  0  0  0  0  0
   -2.8841   -2.6796    0.5691 H   0  0  0  0  0  0  0  0  0  0  0  0
   -0.9607   -0.0705    0.3568 H   0  0  0  0  0  0  0  0  0  0  0  0
   -1.9349   -0.8025    1.8854 H   0  0  0  0  0  0  0  0  0  0  0  0
   -3.1962    1.2360    2.0007 H   0  0  0  0  0  0  0  0  0  0  0  0
   -2.4106    1.8161    0.5247 H   0  0  0  0  0  0  0  0  0  0  0  0
   -5.4131    1.2815    0.8375 H   0  0  0  0  0  0  0  0  0  0  0  0
   -4.6276    1.8627   -0.6370 H   0  0  0  0  0  0  0  0  0  0  0  0
   -4.6444    2.8769    0.8148 H   0  0  0  0  0  0  0  0  0  0  0  0
  1  2  1  0
  1  7  1  0
  1  8  1  0
  1 29  1  0
  2  3  1  0
  2  9  1  0
  2 10  1  0
  3  4  1  0
  4  5  1  0
  4 11  1  0
  4 12  1  0
  5  6  1  0
  5 13  1  0
  5 14  1  0
  6 15  1  0
  6 16  1  0
  6 17  1  0
 18 19  1  0
 18 24  1  0
 18 25  1  0
 18 26  1  0
 19 20  1  0
 19 27  1  0
 19 28  1  0
 20 21  1  0
 20 30  1  0
 21 22  1  0
 22 23  1  0
 22 31  1  0
 22 32  1  0
 23 33  1  0
 23 34  1  0
 23 35  1  0
M  RAD  1  20   2
M  END
>  <reaction>  (13) 
rmg_rxn_335

>  <mol_properties>  (13) 
{"0": {"label": "*3", "atom_type": "Cs"}, "1": {"label": "*4", "atom_type": "Cs"}, "19": {"label": "*1", "atom_type": "Cs"}, "20": {"label": "*0", "atom_type": "O2s"}, "28": {"label": "*2", "atom_type": "H0"}}

>  <type>  (13) 
unop_9

>  <geom_source>  (13) 
Heuristics

$$$$

     RDKit          3D

 35 33  0  0  0  0  0  0  0  0999 V2000
    1.0430   -0.2638    0.9656 C   0  0  0  0  0  0  0  0  0  0  0  0
    1.0072   -0.1485   -0.5407 C   0  0  0  0  0  0  0  0  0  0  0  0
    1.5997    1.0677   -0.9195 O   0  0  0  0  0  0  0  0  0  0  0  0
    1.6160    1.2692   -2.3102 C   0  0  0  0  0  0  0  0  0  0  0  0
    2.3062    2.5820   -2.6192 C   0  0  0  0  0  0  0  0  0  0  0  0
    3.7691    2.6032   -2.1964 C   0  0  0  0  0  0  0  0  0  0  0  0
    2.0718   -0.2384    1.3265 H   0  0  0  0  0  0  0  0  0  0  0  0
    0.4968    0.5608    1.4251 H   0  0  0  0  0  0  0  0  0  0  0  0
   -0.0300   -0.1900   -0.9049 H   0  0  0  0  0  0  0  0  0  0  0  0
    1.5465   -0.9882   -1.0035 H   0  0  0  0  0  0  0  0  0  0  0  0
    2.1456    0.4386   -2.8031 H   0  0  0  0  0  0  0  0  0  0  0  0
    0.5875    1.2782   -2.7000 H   0  0  0  0  0  0  0  0  0  0  0  0
    1.7599    3.3871   -2.1210 H   0  0  0  0  0  0  0  0  0  0  0  0
    2.2227    2.7607   -3.6948 H   0  0  0  0  0  0  0  0  0  0  0  0
    4.3332    1.8177   -2.7056 H   0  0  0  0  0  0  0  0  0  0  0  0
    3.8631    2.4407   -1.1227 H   0  0  0  0  0  0  0  0  0  0  0  0
    4.2341    3.5599   -2.4389 H   0  0  0  0  0  0  0  0  0  0  0  0
   -1.0452   -3.0066   -0.2919 C   0  0  0  0  0  0  0  0  0  0  0  0
   -1.0452   -3.0066    1.2310 C   0  0  0  0  0  0  0  0  0  0  0  0
   -1.0452   -1.6136    1.8265 C   0  0  0  0  0  3  0  0  0  0  0  0
   -2.2282   -0.9500    1.4589 O   0  0  0  0  0  0  0  0  0  0  0  0
   -2.2989    0.3681    1.9398 C   0  0  0  0  0  0  0  0  0  0  0  0
   -3.6022    0.9859    1.4890 C   0  0  0  0  0  0  0  0  0  0  0  0
   -0.1631   -2.4923   -0.6816 H   0  0  0  0  0  0  0  0  0  0  0  0
   -1.9279   -2.4969   -0.6780 H   0  0  0  0  0  0  0  0  0  0  0  0
   -1.0397   -4.0245   -0.6846 H   0  0  0  0  0  0  0  0  0  0  0  0
   -0.1637   -3.5331    1.6073 H   0  0  0  0  0  0  0  0  0  0  0  0
   -1.9196   -3.5446    1.6062 H   0  0  0  0  0  0  0  0  0  0  0  0
    0.0038   -0.9355    1.3940 H   0  0  0  0  0  0  0  0  0  0  0  0
   -0.9704   -1.6675    2.9225 H   0  0  0  0  0  0  0  0  0  0  0  0
   -2.2317    0.3709    3.0379 H   0  0  0  0  0  0  0  0  0  0  0  0
   -1.4460    0.9511    1.5619 H   0  0  0  0  0  0  0  0  0  0  0  0
   -4.4486    0.4165    1.8746 H   0  0  0  0  0  0  0  0  0  0  0  0
   -3.6630    0.9977    0.4001 H   0  0  0  0  0  0  0  0  0  0  0  0
   -3.6798    2.0119    1.8520 H   0  0  0  0  0  0  0  0  0  0  0  0
  1  2  1  0
  1  7  1  0
  1  8  1  0
  1 29  1  0
  2  3  1  0
  2  9  1  0
  2 10  1  0
  3  4  1  0
  4  5  1  0
  4 11  1  0
  4 12  1  0
  5  6  1  0
  5 13  1  0
  5 14  1  0
  6 15  1  0
  6 16  1  0
  6 17  1  0
 18 19  1  0
 18 24  1  0
 18 25  1  0
 18 26  1  0
 19 20  1  0
 19 27  1  0
 19 28  1  0
 20 21  1  0
 20 30  1  0
 21 22  1  0
 22 23  1  0
 22 31  1  0
 22 32  1  0
 23 33  1  0
 23 34  1  0
 23 35  1  0
M  RAD  1  20   2
M  END
>  <reaction>  (14) 
rmg_rxn_335

>  <mol_properties>  (14) 
{"0": {"label": "*3", "atom_type": "Cs"}, "1": {"label": "*4", "atom_type": "Cs"}, "19": {"label": "*1", "atom_type": "Cs"}, "20": {"label": "*0", "atom_type": "O2s"}, "28": {"label": "*2", "atom_type": "H0"}}

>  <type>  (14) 
unop_10

>  <geom_source>  (14) 
Heuristics

$$$$

     RDKit          3D

 35 33  0  0  0  0  0  0  0  0999 V2000
    0.9549   -0.8193   -0.3829 C   0  0  0  0  0  0  0  0  0  0  0  0
    1.3937    0.1857    0.6568 C   0  0  0  0  0  0  0  0  0  0  0  0
    2.0078    1.2718    0.0112 O   0  0  0  0  0  0  0  0  0  0  0  0
    2.4526    2.2670    0.8980 C   0  0  0  0  0  0  0  0  0  0  0  0
    3.0616    3.4075    0.1082 C   0  0  0  0  0  0  0  0  0  0  0  0
    2.0614    4.1050   -0.8041 C   0  0  0  0  0  0  0  0  0  0  0  0
    0.2453   -0.3665   -1.0764 H   0  0  0  0  0  0  0  0  0  0  0  0
    1.8123   -1.1780   -0.9534 H   0  0  0  0  0  0  0  0  0  0  0  0
    2.0974   -0.2764    1.3651 H   0  0  0  0  0  0  0  0  0  0  0  0
    0.5302    0.5365    1.2410 H   0  0  0  0  0  0  0  0  0  0  0  0
    1.6085    2.6346    1.5029 H   0  0  0  0  0  0  0  0  0  0  0  0
    3.1940    1.8461    1.5930 H   0  0  0  0  0  0  0  0  0  0  0  0
    3.8960    3.0161   -0.4794 H   0  0  0  0  0  0  0  0  0  0  0  0
    3.4833    4.1222    0.8204 H   0  0  0  0  0  0  0  0  0  0  0  0
    1.2327    4.5225   -0.2267 H   0  0  0  0  0  0  0  0  0  0  0  0
    1.6456    3.4045   -1.5283 H   0  0  0  0  0  0  0  0  0  0  0  0
    2.5329    4.9223   -1.3517 H   0  0  0  0  0  0  0  0  0  0  0  0
   -1.1333   -3.5621   -1.6405 C   0  0  0  0  0  0  0  0  0  0  0  0
   -1.1333   -3.5621   -0.1176 C   0  0  0  0  0  0  0  0  0  0  0  0
   -1.1333   -2.1691    0.4779 C   0  0  0  0  0  3  0  0  0  0  0  0
   -2.3163   -1.5055    0.1103 O   0  0  0  0  0  0  0  0  0  0  0  0
   -2.3870   -0.1874    0.5912 C   0  0  0  0  0  0  0  0  0  0  0  0
   -3.6903    0.4304    0.1404 C   0  0  0  0  0  0  0  0  0  0  0  0
   -0.2512   -3.0478   -2.0301 H   0  0  0  0  0  0  0  0  0  0  0  0
   -2.0160   -3.0524   -2.0266 H   0  0  0  0  0  0  0  0  0  0  0  0
   -1.1278   -4.5800   -2.0332 H   0  0  0  0  0  0  0  0  0  0  0  0
   -0.2517   -4.0886    0.2587 H   0  0  0  0  0  0  0  0  0  0  0  0
   -2.0076   -4.1001    0.2577 H   0  0  0  0  0  0  0  0  0  0  0  0
   -0.0842   -1.4910    0.0455 H   0  0  0  0  0  0  0  0  0  0  0  0
   -1.0585   -2.2230    1.5740 H   0  0  0  0  0  0  0  0  0  0  0  0
   -2.3197   -0.1845    1.6893 H   0  0  0  0  0  0  0  0  0  0  0  0
   -1.5341    0.3956    0.2133 H   0  0  0  0  0  0  0  0  0  0  0  0
   -4.5367   -0.1390    0.5261 H   0  0  0  0  0  0  0  0  0  0  0  0
   -3.7511    0.4422   -0.9484 H   0  0  0  0  0  0  0  0  0  0  0  0
   -3.7679    1.4564    0.5034 H   0  0  0  0  0  0  0  0  0  0  0  0
  1  2  1  0
  1  7  1  0
  1  8  1  0
  1 29  1  0
  2  3  1  0
  2  9  1  0
  2 10  1  0
  3  4  1  0
  4  5  1  0
  4 11  1  0
  4 12  1  0
  5  6  1  0
  5 13  1  0
  5 14  1  0
  6 15  1  0
  6 16  1  0
  6 17  1  0
 18 19  1  0
 18 24  1  0
 18 25  1  0
 18 26  1  0
 19 20  1  0
 19 27  1  0
 19 28  1  0
 20 21  1  0
 20 30  1  0
 21 22  1  0
 22 23  1  0
 22 31  1  0
 22 32  1  0
 23 33  1  0
 23 34  1  0
 23 35  1  0
M  RAD  1  20   2
M  END
>  <reaction>  (15) 
rmg_rxn_335

>  <mol_properties>  (15) 
{"0": {"label": "*3", "atom_type": "Cs"}, "1": {"label": "*4", "atom_type": "Cs"}, "19": {"label": "*1", "atom_type": "Cs"}, "20": {"label": "*0", "atom_type": "O2s"}, "28": {"label": "*2", "atom_type": "H0"}}

>  <type>  (15) 
unop_11

>  <geom_source>  (15) 
Heuristics

$$$$

     RDKit          3D

 35 33  0  0  0  0  0  0  0  0999 V2000
    0.2741    0.5705    0.5682 C   0  0  0  0  0  0  0  0  0  0  0  0
    1.1005   -0.2829   -0.3658 C   0  0  0  0  0  0  0  0  0  0  0  0
    2.2053    0.4634   -0.8085 O   0  0  0  0  0  0  0  0  0  0  0  0
    3.0410   -0.2475   -1.6867 C   0  0  0  0  0  0  0  0  0  0  0  0
    4.2182    0.6236   -2.0750 C   0  0  0  0  0  0  0  0  0  0  0  0
    5.1047    0.9935   -0.8933 C   0  0  0  0  0  0  0  0  0  0  0  0
    0.8672    0.8786    1.4299 H   0  0  0  0  0  0  0  0  0  0  0  0
   -0.0790    1.4661    0.0557 H   0  0  0  0  0  0  0  0  0  0  0  0
    0.4967   -0.6061   -1.2268 H   0  0  0  0  0  0  0  0  0  0  0  0
    1.4445   -1.1927    0.1479 H   0  0  0  0  0  0  0  0  0  0  0  0
    3.3973   -1.1697   -1.2009 H   0  0  0  0  0  0  0  0  0  0  0  0
    2.4764   -0.5467   -2.5820 H   0  0  0  0  0  0  0  0  0  0  0  0
    3.8369    1.5282   -2.5558 H   0  0  0  0  0  0  0  0  0  0  0  0
    4.8004    0.0857   -2.8284 H   0  0  0  0  0  0  0  0  0  0  0  0
    5.5126    0.0984   -0.4171 H   0  0  0  0  0  0  0  0  0  0  0  0
    4.5376    1.5435   -0.1424 H   0  0  0  0  0  0  0  0  0  0  0  0
    5.9431    1.6152   -1.2109 H   0  0  0  0  0  0  0  0  0  0  0  0
   -1.8141   -2.1723   -0.6894 C   0  0  0  0  0  0  0  0  0  0  0  0
   -1.8141   -2.1723    0.8335 C   0  0  0  0  0  0  0  0  0  0  0  0
   -1.8141   -0.7792    1.4290 C   0  0  0  0  0  3  0  0  0  0  0  0
   -2.9971   -0.1156    1.0614 O   0  0  0  0  0  0  0  0  0  0  0  0
   -3.0678    1.2024    1.5423 C   0  0  0  0  0  0  0  0  0  0  0  0
   -4.3711    1.8202    1.0915 C   0  0  0  0  0  0  0  0  0  0  0  0
   -0.9320   -1.6580   -1.0790 H   0  0  0  0  0  0  0  0  0  0  0  0
   -2.6968   -1.6626   -1.0755 H   0  0  0  0  0  0  0  0  0  0  0  0
   -1.8086   -3.1902   -1.0821 H   0  0  0  0  0  0  0  0  0  0  0  0
   -0.9326   -2.6988    1.2098 H   0  0  0  0  0  0  0  0  0  0  0  0
   -2.6885   -2.7103    1.2088 H   0  0  0  0  0  0  0  0  0  0  0  0
   -0.7650   -0.1011    0.9965 H   0  0  0  0  0  0  0  0  0  0  0  0
   -1.7393   -0.8332    2.5251 H   0  0  0  0  0  0  0  0  0  0  0  0
   -3.0005    1.2053    2.6404 H   0  0  0  0  0  0  0  0  0  0  0  0
   -2.2149    1.7854    1.1644 H   0  0  0  0  0  0  0  0  0  0  0  0
   -5.2175    1.2508    1.4772 H   0  0  0  0  0  0  0  0  0  0  0  0
   -4.4319    1.8321    0.0026 H   0  0  0  0  0  0  0  0  0  0  0  0
   -4.4487    2.8462    1.4545 H   0  0  0  0  0  0  0  0  0  0  0  0
  1  2  1  0
  1  7  1  0
  1  8  1  0
  1 29  1  0
  2  3  1  0
  2  9  1  0
  2 10  1  0
  3  4  1  0
  4  5  1  0
  4 11  1  0
  4 12  1  0
  5  6  1  0
  5 13  1  0
  5 14  1  0
  6 15  1  0
  6 16  1  0
  6 17  1  0
 18 19  1  0
 18 24  1  0
 18 25  1  0
 18 26  1  0
 19 20  1  0
 19 27  1  0
 19 28  1  0
 20 21  1  0
 20 30  1  0
 21 22  1  0
 22 23  1  0
 22 31  1  0
 22 32  1  0
 23 33  1  0
 23 34  1  0
 23 35  1  0
M  RAD  1  20   2
M  END
>  <reaction>  (16) 
rmg_rxn_335

>  <mol_properties>  (16) 
{"0": {"label": "*3", "atom_type": "Cs"}, "1": {"label": "*4", "atom_type": "Cs"}, "19": {"label": "*1", "atom_type": "Cs"}, "20": {"label": "*0", "atom_type": "O2s"}, "28": {"label": "*2", "atom_type": "H0"}}

>  <type>  (16) 
unop_12

>  <geom_source>  (16) 
Heuristics

$$$$

     RDKit          3D

 35 33  0  0  0  0  0  0  0  0999 V2000
    2.2705   -0.6193   -1.3164 O   0  0  0  0  0  0  0  0  0  0  0  0
   -2.1298    0.8046    0.2019 O   0  0  0  0  0  0  0  0  0  0  0  0
    4.4230    0.4042   -1.0825 C   0  0  0  0  0  0  0  0  0  0  0  0
   -3.1859   -0.6875    1.8002 C   0  0  0  0  0  0  0  0  0  0  0  0
    3.3024   -0.3657   -0.3856 C   0  0  0  0  0  0  0  0  0  0  0  0
    1.1589   -1.2171   -0.6757 C   0  0  0  0  0  0  0  0  0  0  0  0
   -3.0430    1.0973   -0.8344 C   0  0  0  0  0  0  0  0  0  0  0  0
    5.5732    0.7015   -0.1245 C   0  0  0  0  0  0  0  0  0  0  0  0
   -3.1191   -2.1009    2.3653 C   0  0  0  0  0  0  0  0  0  0  0  0
    0.1123   -0.1620   -0.3399 C   0  0  0  0  0  0  0  0  0  0  0  0
   -2.9800    2.5837   -1.1504 C   0  0  0  0  0  0  0  0  0  0  0  0
   -2.2588   -0.5472    0.5947 C   0  0  0  0  0  3  0  0  0  0  0  0
    4.0219    1.3628   -1.4777 H   0  0  0  0  0  0  0  0  0  0  0  0
    4.8071   -0.1944   -1.9370 H   0  0  0  0  0  0  0  0  0  0  0  0
   -4.2316   -0.4606    1.5020 H   0  0  0  0  0  0  0  0  0  0  0  0
   -2.8764    0.0324    2.5881 H   0  0  0  0  0  0  0  0  0  0  0  0
    3.7137   -1.3272   -0.0016 H   0  0  0  0  0  0  0  0  0  0  0  0
    2.9273    0.2453    0.4675 H   0  0  0  0  0  0  0  0  0  0  0  0
    1.4225   -1.7954    0.2416 H   0  0  0  0  0  0  0  0  0  0  0  0
    0.7026   -1.9405   -1.3834 H   0  0  0  0  0  0  0  0  0  0  0  0
   -2.7775    0.5325   -1.7565 H   0  0  0  0  0  0  0  0  0  0  0  0
   -4.0868    0.8495   -0.5349 H   0  0  0  0  0  0  0  0  0  0  0  0
    5.2169    1.3208    0.7262 H   0  0  0  0  0  0  0  0  0  0  0  0
    6.0051   -0.2447    0.2657 H   0  0  0  0  0  0  0  0  0  0  0  0
    6.3687    1.2600   -0.6613 H   0  0  0  0  0  0  0  0  0  0  0  0
   -0.1835    0.3867   -1.2590 H   0  0  0  0  0  0  0  0  0  0  0  0
    0.5140    0.5592    0.4021 H   0  0  0  0  0  0  0  0  0  0  0  0
   -0.9285   -0.7336    0.1587 H   0  0  0  0  0  0  0  0  0  0  0  0
   -3.2525    3.1751   -0.2506 H   0  0  0  0  0  0  0  0  0  0  0  0
   -1.9537    2.8610   -1.4721 H   0  0  0  0  0  0  0  0  0  0  0  0
   -3.6913    2.8244   -1.9686 H   0  0  0  0  0  0  0  0  0  0  0  0
   -3.4521   -2.8372    1.6029 H   0  0  0  0  0  0  0  0  0  0  0  0
   -3.7855   -2.1796    3.2500 H   0  0  0  0  0  0  0  0  0  0  0  0
   -2.0806   -2.3411    2.6788 H   0  0  0  0  0  0  0  0  0  0  0  0
   -2.5234   -1.2468   -0.2337 H   0  0  0  0  0  0  0  0  0  0  0  0
  1  6  1  0
  1  5  1  0
  2  7  1  0
  2 12  1  0
  3  8  1  0
  3  5  1  0
  3 13  1  0
  3 14  1  0
  4  9  1  0
  4 12  1  0
  4 15  1  0
  4 16  1  0
  5 17  1  0
  5 18  1  0
  6 10  1  0
  6 19  1  0
  6 20  1  0
  7 11  1  0
  7 21  1  0
  7 22  1  0
  8 23  1  0
  8 24  1  0
  8 25  1  0
  9 32  1  0
  9 33  1  0
  9 34  1  0
 10 26  1  0
 10 27  1  0
 10 28  1  0
 11 29  1  0
 11 30  1  0
 11 31  1  0
 12 35  1  0
M  RAD  1  12   2
M  END
>  <reaction>  (17) 
rmg_rxn_335

>  <mol_properties>  (17) 
{"0": {"label": "*3", "atom_type": "Cs"}, "1": {"label": "*4", "atom_type": "Cs"}, "19": {"label": "*1", "atom_type": "Cs"}, "20": {"label": "*0", "atom_type": "O2s"}, "28": {"label": "*2", "atom_type": "H0"}}

>  <type>  (17) 
unop_13

>  <geom_source>  (17) 
AutoTST

$$$$

     RDKit          3D

 35 33  0  0  0  0  0  0  0  0999 V2000
    0.6693    0.2206    0.9704 C   0  0  0  0  0  0  0  0  0  0  0  0
    1.0616   -0.2471   -0.4120 C   0  0  0  0  0  0  0  0  0  0  0  0
    1.8754    0.7292   -1.0103 O   0  0  0  0  0  0  0  0  0  0  0  0
    2.2959    0.3851   -2.3063 C   0  0  0  0  0  0  0  0  0  0  0  0
    3.1953    1.4768   -2.8488 C   0  0  0  0  0  0  0  0  0  0  0  0
    4.4782    1.6493   -2.0465 C   0  0  0  0  0  0  0  0  0  0  0  0
    1.5554    0.3758    1.5870 H   0  0  0  0  0  0  0  0  0  0  0  0
    0.1203    1.1612    0.9141 H   0  0  0  0  0  0  0  0  0  0  0  0
    0.1665   -0.4185   -1.0282 H   0  0  0  0  0  0  0  0  0  0  0  0
    1.6032   -1.2029   -0.3553 H   0  0  0  0  0  0  0  0  0  0  0  0
    2.8376   -0.5738   -2.2823 H   0  0  0  0  0  0  0  0  0  0  0  0
    1.4221    0.2506   -2.9608 H   0  0  0  0  0  0  0  0  0  0  0  0
    2.6332    2.4142   -2.8639 H   0  0  0  0  0  0  0  0  0  0  0  0
    3.4315    1.2323   -3.8882 H   0  0  0  0  0  0  0  0  0  0  0  0
    5.0626    0.7258   -2.0429 H   0  0  0  0  0  0  0  0  0  0  0  0
    4.2545    1.9081   -1.0116 H   0  0  0  0  0  0  0  0  0  0  0  0
    5.1021    2.4385   -2.4685 H   0  0  0  0  0  0  0  0  0  0  0  0
   -1.4188   -2.5223   -0.2872 C   0  0  0  0  0  0  0  0  0  0  0  0
   -1.4188   -2.5223    1.2357 C   0  0  0  0  0  0  0  0  0  0  0  0
   -1.4188   -1.1292    1.8312 C   0  0  0  0  0  3  0  0  0  0  0  0
   -2.6018   -0.4656    1.4636 O   0  0  0  0  0  0  0  0  0  0  0  0
   -2.6725    0.8525    1.9445 C   0  0  0  0  0  0  0  0  0  0  0  0
   -3.9758    1.4703    1.4937 C   0  0  0  0  0  0  0  0  0  0  0  0
   -0.5367   -2.0079   -0.6768 H   0  0  0  0  0  0  0  0  0  0  0  0
   -2.3015   -2.0126   -0.6733 H   0  0  0  0  0  0  0  0  0  0  0  0
   -1.4133   -3.5401   -0.6799 H   0  0  0  0  0  0  0  0  0  0  0  0
   -0.5373   -3.0487    1.6120 H   0  0  0  0  0  0  0  0  0  0  0  0
   -2.2932   -3.0602    1.6110 H   0  0  0  0  0  0  0  0  0  0  0  0
   -0.3698   -0.4511    1.3988 H   0  0  0  0  0  0  0  0  0  0  0  0
   -1.3440   -1.1831    2.9273 H   0  0  0  0  0  0  0  0  0  0  0  0
   -2.6053    0.8553    3.0426 H   0  0  0  0  0  0  0  0  0  0  0  0
   -1.8196    1.4354    1.5666 H   0  0  0  0  0  0  0  0  0  0  0  0
   -4.8222    0.9009    1.8794 H   0  0  0  0  0  0  0  0  0  0  0  0
   -4.0366    1.4821    0.4049 H   0  0  0  0  0  0  0  0  0  0  0  0
   -4.0534    2.4963    1.8567 H   0  0  0  0  0  0  0  0  0  0  0  0
  1  2  1  0
  1  7  1  0
  1  8  1  0
  1 29  1  0
  2  3  1  0
  2  9  1  0
  2 10  1  0
  3  4  1  0
  4  5  1  0
  4 11  1  0
  4 12  1  0
  5  6  1  0
  5 13  1  0
  5 14  1  0
  6 15  1  0
  6 16  1  0
  6 17  1  0
 18 19  1  0
 18 24  1  0
 18 25  1  0
 18 26  1  0
 19 20  1  0
 19 27  1  0
 19 28  1  0
 20 21  1  0
 20 30  1  0
 21 22  1  0
 22 23  1  0
 22 31  1  0
 22 32  1  0
 23 33  1  0
 23 34  1  0
 23 35  1  0
M  RAD  1  20   2
M  END
>  <reaction>  (18) 
rmg_rxn_335

>  <mol_properties>  (18) 
{"0": {"label": "*3", "atom_type": "Cs"}, "1": {"label": "*4", "atom_type": "Cs"}, "19": {"label": "*1", "atom_type": "Cs"}, "20": {"label": "*0", "atom_type": "O2s"}, "28": {"label": "*2", "atom_type": "H0"}}

>  <type>  (18) 
unop_14

>  <geom_source>  (18) 
gaussian_log

$$$$
