
     RDKit          3D

 15 14  0  0  0  0  0  0  0  0999 V2000
    2.4145    0.0817    0.4065 C   0  0  0  0  0  0  0  0  0  0  0  0
    1.1257   -0.2220   -0.3219 C   0  0  0  0  0  0  0  0  0  0  0  0
    1.0983   -1.5879   -0.6512 O   0  0  0  0  0  0  0  0  0  0  0  0
   -0.0685   -1.9694   -1.3352 C   0  0  0  0  0  0  0  0  0  0  0  0
    0.0024   -3.4478   -1.6403 C   0  0  0  0  0  0  0  0  0  0  0  0
    3.2736   -0.1534   -0.2229 H   0  0  0  0  0  0  0  0  0  0  0  0
    2.4581    1.1389    0.6728 H   0  0  0  0  0  0  0  0  0  0  0  0
    2.4855   -0.5095    1.3201 H   0  0  0  0  0  0  0  0  0  0  0  0
    0.2597    0.0294    0.3083 H   0  0  0  0  0  0  0  0  0  0  0  0
    1.0482    0.3858   -1.2356 H   0  0  0  0  0  0  0  0  0  0  0  0
   -0.9535   -1.7457   -0.7211 H   0  0  0  0  0  0  0  0  0  0  0  0
   -0.1650   -1.3894   -2.2650 H   0  0  0  0  0  0  0  0  0  0  0  0
    0.0831   -4.0247   -0.7183 H   0  0  0  0  0  0  0  0  0  0  0  0
   -0.8950   -3.7674   -2.1724 H   0  0  0  0  0  0  0  0  0  0  0  0
    0.8712   -3.6686   -2.2613 H   0  0  0  0  0  0  0  0  0  0  0  0
  1  2  1  0
  1  6  1  0
  1  7  1  0
  1  8  1  0
  2  3  1  0
  2  9  1  0
  2 10  1  0
  3  4  1  0
  4  5  1  0
  4 11  1  0
  4 12  1  0
  5 13  1  0
  5 14  1  0
  5 15  1  0
M  END
>  <reaction>  (1) 
rmg_rxn_15709

>  <mol_properties>  (1) 
{"1": {"label": "donator", "atom_type": "Cs"}, "8": {"label": "d_hydrogen", "atom_type": "H0"}}

>  <type>  (1) 
r1h

$$$$

     RDKit          3D

  8  7  0  0  0  0  0  0  0  0999 V2000
    1.7077   -0.1964   -0.0607 C   0  0  0  0  0  3  0  0  0  0  0  0
    0.4209   -0.4565    0.2808 O   0  0  0  0  0  0  0  0  0  0  0  0
   -0.4607    0.4385   -0.2968 N   0  0  0  0  0  0  0  0  0  0  0  0
   -1.6584    0.1416   -0.0244 C   0  0  0  0  0  0  0  0  0  0  0  0
    2.4163   -0.7685    0.5170 H   0  0  0  0  0  0  0  0  0  0  0  0
    1.9214    0.7645   -0.5045 H   0  0  0  0  0  0  0  0  0  0  0  0
   -2.4185    0.7953   -0.4307 H   0  0  0  0  0  0  0  0  0  0  0  0
   -1.9286   -0.7185    0.5831 H   0  0  0  0  0  0  0  0  0  0  0  0
  1  2  1  0
  1  5  1  0
  1  6  1  0
  2  3  1  0
  3  4  2  3
  4  7  1  0
  4  8  1  0
M  RAD  1   1   2
M  END
>  <reaction>  (2) 
rmg_rxn_15709

>  <mol_properties>  (2) 
{"0": {"label": "acceptor", "atom_type": "Cs"}}

>  <type>  (2) 
r2

$$$$

     RDKit          3D

  9  8  0  0  0  0  0  0  0  0999 V2000
   -1.5470   -0.0755   -0.1976 C   0  0  0  0  0  0  0  0  0  0  0  0
   -0.2885    0.4507    0.1749 O   0  0  0  0  0  0  0  0  0  0  0  0
   -0.1502    1.7216   -0.3294 N   0  0  0  0  0  0  0  0  0  0  0  0
    0.9626    2.2353   -0.0219 C   0  0  0  0  0  0  0  0  0  0  0  0
   -1.6392   -0.1356   -1.2844 H   0  0  0  0  0  0  0  0  0  0  0  0
   -2.3597    0.5337    0.2044 H   0  0  0  0  0  0  0  0  0  0  0  0
   -1.5879   -1.0750    0.2318 H   0  0  0  0  0  0  0  0  0  0  0  0
    1.1497    3.2381   -0.3820 H   0  0  0  0  0  0  0  0  0  0  0  0
    1.7060    1.7101    0.5739 H   0  0  0  0  0  0  0  0  0  0  0  0
  1  2  1  0
  1  5  1  0
  1  6  1  0
  1  7  1  0
  2  3  1  0
  3  4  2  3
  4  8  1  0
  4  9  1  0
M  END
>  <reaction>  (3) 
rmg_rxn_15709

>  <mol_properties>  (3) 
{"0": {"label": "acceptor", "atom_type": "Cs"}, "8": {"label": "a_hydrogen", "atom_type": "H0"}}

>  <type>  (3) 
r2h

$$$$

     RDKit          3D

 23 21  0  0  0  0  0  0  0  0999 V2000
   -1.5238   -0.8358   -0.6742 C   0  0  0  0  0  3  0  0  0  0  0  0
   -1.2796   -1.9032    0.1852 O   0  0  0  0  0  0  0  0  0  0  0  0
   -0.9287   -1.4543    1.4355 N   0  0  0  0  0  0  0  0  0  0  0  0
   -0.6693   -2.4074    2.2248 C   0  0  0  0  0  0  0  0  0  0  0  0
   -1.9315   -1.2362   -1.5983 H   0  0  0  0  0  0  0  0  0  0  0  0
   -2.1227   -0.0468   -0.2206 H   0  0  0  0  0  0  0  0  0  0  0  0
   -0.3902   -2.1369    3.2342 H   0  0  0  0  0  0  0  0  0  0  0  0
   -0.7212   -3.4505    1.9214 H   0  0  0  0  0  0  0  0  0  0  0  0
    0.9126    0.4117   -2.7920 C   0  0  0  0  0  0  0  0  0  0  0  0
    0.8485    0.3444   -1.2948 C   0  0  0  0  0  0  0  0  0  0  0  0
    0.8336    1.6068   -0.7373 O   0  0  0  0  0  0  0  0  0  0  0  0
    0.9250    1.6128    0.6740 C   0  0  0  0  0  0  0  0  0  0  0  0
    0.8351    3.0400    1.1593 C   0  0  0  0  0  0  0  0  0  0  0  0
    1.8383    0.8850   -3.1300 H   0  0  0  0  0  0  0  0  0  0  0  0
    0.8655   -0.5934   -3.2138 H   0  0  0  0  0  0  0  0  0  0  0  0
    0.0745    0.9914   -3.1836 H   0  0  0  0  0  0  0  0  0  0  0  0
   -0.2976   -0.2450   -0.9979 H   0  0  0  0  0  0  0  0  0  0  0  0
    1.6075   -0.3062   -0.8409 H   0  0  0  0  0  0  0  0  0  0  0  0
    0.1228    0.9993    1.0998 H   0  0  0  0  0  0  0  0  0  0  0  0
    1.8791    1.1594    0.9772 H   0  0  0  0  0  0  0  0  0  0  0  0
   -0.1186    3.4834    0.8708 H   0  0  0  0  0  0  0  0  0  0  0  0
    0.9155    3.0713    2.2470 H   0  0  0  0  0  0  0  0  0  0  0  0
    1.6382    3.6438    0.7348 H   0  0  0  0  0  0  0  0  0  0  0  0
  1  2  1  0
  1  5  1  0
  1  6  1  0
  2  3  1  0
  3  4  2  3
  4  7  1  0
  4  8  1  0
  9 10  1  0
  9 14  1  0
  9 15  1  0
  9 16  1  0
 10 11  1  0
 10 17  1  0
 10 18  1  0
 11 12  1  0
 12 13  1  0
 12 19  1  0
 12 20  1  0
 13 21  1  0
 13 22  1  0
 13 23  1  0
M  RAD  1   1   2
M  END
>  <reaction>  (4) 
rmg_rxn_15709

>  <mol_properties>  (4) 
{"0": {"label": "*3", "atom_type": "Cs"}, "1": {"label": "*4", "atom_type": "O2s"}, "9": {"label": "*1", "atom_type": "Cs"}, "10": {"label": "*0", "atom_type": "O2s"}, "16": {"label": "*2", "atom_type": "H0"}}

>  <type>  (4) 
ts

$$$$

     RDKit          3D

 23 21  0  0  0  0  0  0  0  0999 V2000
   -0.8415    1.0374    1.1285 C   0  0  0  0  0  0  0  0  0  0  0  0
   -1.9567    0.9166    0.3016 O   0  0  0  0  0  0  0  0  0  0  0  0
   -2.1725   -0.3871   -0.0943 N   0  0  0  0  0  0  0  0  0  0  0  0
   -3.1567   -0.5796   -0.8632 C   0  0  0  0  0  0  0  0  0  0  0  0
   -0.8372    2.0520    1.5106 H   0  0  0  0  0  0  0  0  0  0  0  0
   -0.8070    0.2832    1.9116 H   0  0  0  0  0  0  0  0  0  0  0  0
   -3.3343   -1.5951   -1.1690 H   0  0  0  0  0  0  0  0  0  0  0  0
   -3.8172    0.2047   -1.2194 H   0  0  0  0  0  0  0  0  0  0  0  0
    1.9498    2.1065   -0.4574 C   0  0  0  0  0  0  0  0  0  0  0  0
    1.3015    0.7438   -0.4271 C   0  0  0  0  0  3  0  0  0  0  0  0
    2.1687   -0.2118    0.0847 O   0  0  0  0  0  0  0  0  0  0  0  0
    1.9005   -1.5548   -0.2487 C   0  0  0  0  0  0  0  0  0  0  0  0
    0.7193   -2.1526    0.5118 C   0  0  0  0  0  0  0  0  0  0  0  0
    2.7747    2.1293   -1.1714 H   0  0  0  0  0  0  0  0  0  0  0  0
    1.2193    2.8585   -0.7427 H   0  0  0  0  0  0  0  0  0  0  0  0
    2.3477    2.3454    0.5254 H   0  0  0  0  0  0  0  0  0  0  0  0
    0.2412    0.8765    0.3956 H   0  0  0  0  0  0  0  0  0  0  0  0
    0.8657    0.4448   -1.3867 H   0  0  0  0  0  0  0  0  0  0  0  0
    1.7279   -1.6440   -1.3316 H   0  0  0  0  0  0  0  0  0  0  0  0
    2.8194   -2.0912    0.0056 H   0  0  0  0  0  0  0  0  0  0  0  0
    0.6495   -3.2137    0.2885 H   0  0  0  0  0  0  0  0  0  0  0  0
    0.8694   -2.0279    1.5812 H   0  0  0  0  0  0  0  0  0  0  0  0
   -0.2138   -1.6730    0.2255 H   0  0  0  0  0  0  0  0  0  0  0  0
  1  2  1  0
  1  5  1  0
  1  6  1  0
  1 17  1  0
  2  3  1  0
  3  4  2  3
  4  7  1  0
  4  8  1  0
  9 10  1  0
  9 14  1  0
  9 15  1  0
  9 16  1  0
 10 11  1  0
 10 18  1  0
 11 12  1  0
 12 13  1  0
 12 19  1  0
 12 20  1  0
 13 21  1  0
 13 22  1  0
 13 23  1  0
M  RAD  1  10   2
M  END
>  <reaction>  (5) 
rmg_rxn_15709

>  <mol_properties>  (5) 
{"0": {"label": "*3", "atom_type": "Cs"}, "1": {"label": "*4", "atom_type": "O2s"}, "9": {"label": "*1", "atom_type": "Cs"}, "10": {"label": "*0", "atom_type": "O2s"}, "16": {"label": "*2", "atom_type": "H0"}}

>  <type>  (5) 
unop_1

>  <geom_source>  (5) 
crest_best.xyz

$$$$

     RDKit          3D

 23 21  0  0  0  0  0  0  0  0999 V2000
   -1.2201   -0.8437   -0.4029 C   0  0  0  0  0  0  0  0  0  0  0  0
   -0.7198   -1.9179    0.3687 O   0  0  0  0  0  0  0  0  0  0  0  0
   -1.5114   -2.0999    1.4774 N   0  0  0  0  0  0  0  0  0  0  0  0
   -1.1029   -3.0522    2.2006 C   0  0  0  0  0  0  0  0  0  0  0  0
   -2.2357   -1.0502   -0.7479 H   0  0  0  0  0  0  0  0  0  0  0  0
   -1.2113    0.0863    0.1701 H   0  0  0  0  0  0  0  0  0  0  0  0
   -1.6737   -3.2606    3.0956 H   0  0  0  0  0  0  0  0  0  0  0  0
   -0.2240   -3.6426    1.9508 H   0  0  0  0  0  0  0  0  0  0  0  0
    0.8926    0.4185   -2.8316 C   0  0  0  0  0  0  0  0  0  0  0  0
    0.8926    0.4185   -1.3205 C   0  0  0  0  0  3  0  0  0  0  0  0
    0.8926    1.7476   -0.8639 O   0  0  0  0  0  0  0  0  0  0  0  0
    0.8926    1.8518    0.5376 C   0  0  0  0  0  0  0  0  0  0  0  0
    0.8926    3.3135    0.9212 C   0  0  0  0  0  0  0  0  0  0  0  0
    1.7770    0.9295   -3.2137 H   0  0  0  0  0  0  0  0  0  0  0  0
    0.8926   -0.6051   -3.2096 H   0  0  0  0  0  0  0  0  0  0  0  0
    0.0082    0.9295   -3.2137 H   0  0  0  0  0  0  0  0  0  0  0  0
   -0.1693   -0.2159   -0.8592 H   0  0  0  0  0  0  0  0  0  0  0  0
    1.7775   -0.1102   -0.9361 H   0  0  0  0  0  0  0  0  0  0  0  0
    0.0077    1.3459    0.9514 H   0  0  0  0  0  0  0  0  0  0  0  0
    1.7775    1.3459    0.9514 H   0  0  0  0  0  0  0  0  0  0  0  0
    0.0082    3.8128    0.5239 H   0  0  0  0  0  0  0  0  0  0  0  0
    0.8926    3.4193    2.0072 H   0  0  0  0  0  0  0  0  0  0  0  0
    1.7770    3.8128    0.5239 H   0  0  0  0  0  0  0  0  0  0  0  0
  1  2  1  0
  1  5  1  0
  1  6  1  0
  1 17  1  0
  2  3  1  0
  3  4  2  3
  4  7  1  0
  4  8  1  0
  9 10  1  0
  9 14  1  0
  9 15  1  0
  9 16  1  0
 10 11  1  0
 10 18  1  0
 11 12  1  0
 12 13  1  0
 12 19  1  0
 12 20  1  0
 13 21  1  0
 13 22  1  0
 13 23  1  0
M  RAD  1  10   2
M  END
>  <reaction>  (6) 
rmg_rxn_15709

>  <mol_properties>  (6) 
{"0": {"label": "*3", "atom_type": "Cs"}, "1": {"label": "*4", "atom_type": "O2s"}, "9": {"label": "*1", "atom_type": "Cs"}, "10": {"label": "*0", "atom_type": "O2s"}, "16": {"label": "*2", "atom_type": "H0"}}

>  <type>  (6) 
unop_2

>  <geom_source>  (6) 
Heuristics

$$$$

     RDKit          3D

 23 21  0  0  0  0  0  0  0  0999 V2000
   -1.2078   -1.0419   -1.2905 C   0  0  0  0  0  0  0  0  0  0  0  0
   -2.2300   -0.7835   -0.3616 O   0  0  0  0  0  0  0  0  0  0  0  0
   -2.0453    0.4463    0.2422 N   0  0  0  0  0  0  0  0  0  0  0  0
   -2.9156    0.7923    1.0819 C   0  0  0  0  0  0  0  0  0  0  0  0
   -1.1438   -2.0970   -1.4524 H   0  0  0  0  0  0  0  0  0  0  0  0
   -1.3087   -0.4671   -2.2074 H   0  0  0  0  0  0  0  0  0  0  0  0
   -2.7756    1.7489    1.5544 H   0  0  0  0  0  0  0  0  0  0  0  0
   -3.7812    0.1938    1.3510 H   0  0  0  0  0  0  0  0  0  0  0  0
    1.8214   -2.1826    0.5230 C   0  0  0  0  0  0  0  0  0  0  0  0
    1.3893   -0.7591    0.5171 C   0  0  0  0  0  3  0  0  0  0  0  0
    2.2695    0.1143   -0.0711 O   0  0  0  0  0  0  0  0  0  0  0  0
    2.0400    1.4854    0.1464 C   0  0  0  0  0  0  0  0  0  0  0  0
    0.8686    2.0315   -0.6670 C   0  0  0  0  0  0  0  0  0  0  0  0
    2.5756   -2.3784    1.2953 H   0  0  0  0  0  0  0  0  0  0  0  0
    0.9701   -2.8313    0.7174 H   0  0  0  0  0  0  0  0  0  0  0  0
    2.2623   -2.4384   -0.4382 H   0  0  0  0  0  0  0  0  0  0  0  0
   -0.1985   -0.9629   -0.8423 H   0  0  0  0  0  0  0  0  0  0  0  0
    0.8142   -0.3765    1.3517 H   0  0  0  0  0  0  0  0  0  0  0  0
    1.8667    1.6716    1.2162 H   0  0  0  0  0  0  0  0  0  0  0  0
    2.9702    1.9781   -0.1520 H   0  0  0  0  0  0  0  0  0  0  0  0
    1.0241    1.8228   -1.7225 H   0  0  0  0  0  0  0  0  0  0  0  0
   -0.0646    1.5724   -0.3484 H   0  0  0  0  0  0  0  0  0  0  0  0
    0.8013    3.1066   -0.5258 H   0  0  0  0  0  0  0  0  0  0  0  0
  1  2  1  0
  1  5  1  0
  1  6  1  0
  1 17  1  0
  2  3  1  0
  3  4  2  3
  4  7  1  0
  4  8  1  0
  9 10  1  0
  9 14  1  0
  9 15  1  0
  9 16  1  0
 10 11  1  0
 10 18  1  0
 11 12  1  0
 12 13  1  0
 12 19  1  0
 12 20  1  0
 13 21  1  0
 13 22  1  0
 13 23  1  0
M  RAD  1  10   2
M  END
>  <reaction>  (7) 
rmg_rxn_15709

>  <mol_properties>  (7) 
{"0": {"label": "*3", "atom_type": "Cs"}, "1": {"label": "*4", "atom_type": "O2s"}, "9": {"label": "*1", "atom_type": "Cs"}, "10": {"label": "*0", "atom_type": "O2s"}, "16": {"label": "*2", "atom_type": "H0"}}

>  <type>  (7) 
unop_3

>  <geom_source>  (7) 
Heuristics

$$$$

     RDKit          3D

 23 21  0  0  0  0  0  0  0  0999 V2000
   -1.2667    0.9595    1.3609 C   0  0  0  0  0  0  0  0  0  0  0  0
   -2.2559    0.6958    0.3965 O   0  0  0  0  0  0  0  0  0  0  0  0
   -1.9745   -0.4736   -0.2824 N   0  0  0  0  0  0  0  0  0  0  0  0
   -2.7905   -0.8091   -1.1792 C   0  0  0  0  0  0  0  0  0  0  0  0
   -0.2585    0.9558    0.9289 H   0  0  0  0  0  0  0  0  0  0  0  0
   -1.5184    1.8692    1.8635 H   0  0  0  0  0  0  0  0  0  0  0  0
   -2.5741   -1.7190   -1.7114 H   0  0  0  0  0  0  0  0  0  0  0  0
   -3.6814   -0.2455   -1.4406 H   0  0  0  0  0  0  0  0  0  0  0  0
    1.6816    2.2275   -0.5359 C   0  0  0  0  0  0  0  0  0  0  0  0
    1.3278    0.7838   -0.5147 C   0  0  0  0  0  3  0  0  0  0  0  0
    2.2628   -0.0415    0.0581 O   0  0  0  0  0  0  0  0  0  0  0  0
    2.0889   -1.4234   -0.1410 C   0  0  0  0  0  0  0  0  0  0  0  0
    0.9456   -2.0063    0.6869 C   0  0  0  0  0  0  0  0  0  0  0  0
    2.1539    2.5048    0.4041 H   0  0  0  0  0  0  0  0  0  0  0  0
    2.3854    2.4659   -1.3434 H   0  0  0  0  0  0  0  0  0  0  0  0
    0.7878    2.8296   -0.6849 H   0  0  0  0  0  0  0  0  0  0  0  0
   -1.3477    0.3181    2.2475 H   0  0  0  0  0  0  0  0  0  0  0  0
    0.7397    0.3657   -1.3218 H   0  0  0  0  0  0  0  0  0  0  0  0
    1.9162   -1.6299   -1.2073 H   0  0  0  0  0  0  0  0  0  0  0  0
    3.0405   -1.8737    0.1567 H   0  0  0  0  0  0  0  0  0  0  0  0
    1.0995   -1.7798    1.7390 H   0  0  0  0  0  0  0  0  0  0  0  0
   -0.0063   -1.5867    0.3690 H   0  0  0  0  0  0  0  0  0  0  0  0
    0.9190   -3.0847    0.5580 H   0  0  0  0  0  0  0  0  0  0  0  0
  1  2  1  0
  1  5  1  0
  1  6  1  0
  1 17  1  0
  2  3  1  0
  3  4  2  3
  4  7  1  0
  4  8  1  0
  9 10  1  0
  9 14  1  0
  9 15  1  0
  9 16  1  0
 10 11  1  0
 10 18  1  0
 11 12  1  0
 12 13  1  0
 12 19  1  0
 12 20  1  0
 13 21  1  0
 13 22  1  0
 13 23  1  0
M  RAD  1  10   2
M  END
>  <reaction>  (8) 
rmg_rxn_15709

>  <mol_properties>  (8) 
{"0": {"label": "*3", "atom_type": "Cs"}, "1": {"label": "*4", "atom_type": "O2s"}, "9": {"label": "*1", "atom_type": "Cs"}, "10": {"label": "*0", "atom_type": "O2s"}, "16": {"label": "*2", "atom_type": "H0"}}

>  <type>  (8) 
unop_4

>  <geom_source>  (8) 
Heuristics

$$$$

     RDKit          3D

 23 21  0  0  0  0  0  0  0  0999 V2000
   -1.0590   -0.0560   -1.2805 C   0  0  0  0  0  0  0  0  0  0  0  0
   -1.7701    0.8883   -0.5378 O   0  0  0  0  0  0  0  0  0  0  0  0
   -2.5474    0.5238    0.5016 N   0  0  0  0  0  0  0  0  0  0  0  0
   -2.6509   -0.6727    0.8932 C   0  0  0  0  0  0  0  0  0  0  0  0
   -1.6560   -0.9157   -1.5855 H   0  0  0  0  0  0  0  0  0  0  0  0
   -0.6400    0.4762   -2.1271 H   0  0  0  0  0  0  0  0  0  0  0  0
   -3.3143   -0.8337    1.7244 H   0  0  0  0  0  0  0  0  0  0  0  0
   -2.1382   -1.5379    0.4809 H   0  0  0  0  0  0  0  0  0  0  0  0
    1.0977   -2.4418   -0.1735 C   0  0  0  0  0  0  0  0  0  0  0  0
    0.9511   -0.9877    0.2049 C   0  0  0  0  0  3  0  0  0  0  0  0
    2.1118   -0.2831   -0.0743 O   0  0  0  0  0  0  0  0  0  0  0  0
    2.2807    0.9499    0.5882 C   0  0  0  0  0  0  0  0  0  0  0  0
    1.4464    2.0822   -0.0054 C   0  0  0  0  0  0  0  0  0  0  0  0
    1.8469   -2.9306    0.4510 H   0  0  0  0  0  0  0  0  0  0  0  0
    0.1513   -2.9620   -0.0498 H   0  0  0  0  0  0  0  0  0  0  0  0
    1.4179   -2.5212   -1.2092 H   0  0  0  0  0  0  0  0  0  0  0  0
   -0.0520   -0.5145   -0.5650 H   0  0  0  0  0  0  0  0  0  0  0  0
    0.6051   -0.8343    1.2343 H   0  0  0  0  0  0  0  0  0  0  0  0
    2.0482    0.8357    1.6572 H   0  0  0  0  0  0  0  0  0  0  0  0
    3.3451    1.1775    0.4821 H   0  0  0  0  0  0  0  0  0  0  0  0
    1.7186    3.0181    0.4744 H   0  0  0  0  0  0  0  0  0  0  0  0
    1.6398    2.1639   -1.0719 H   0  0  0  0  0  0  0  0  0  0  0  0
    0.3841    1.9117    0.1455 H   0  0  0  0  0  0  0  0  0  0  0  0
  1  2  1  0
  1  5  1  0
  1  6  1  0
  1 17  1  0
  2  3  1  0
  3  4  2  3
  4  7  1  0
  4  8  1  0
  9 10  1  0
  9 14  1  0
  9 15  1  0
  9 16  1  0
 10 11  1  0
 10 18  1  0
 11 12  1  0
 12 13  1  0
 12 19  1  0
 12 20  1  0
 13 21  1  0
 13 22  1  0
 13 23  1  0
M  RAD  1  10   2
M  END
>  <reaction>  (9) 
rmg_rxn_15709

>  <mol_properties>  (9) 
{"0": {"label": "*3", "atom_type": "Cs"}, "1": {"label": "*4", "atom_type": "O2s"}, "9": {"label": "*1", "atom_type": "Cs"}, "10": {"label": "*0", "atom_type": "O2s"}, "16": {"label": "*2", "atom_type": "H0"}}

>  <type>  (9) 
unop_5

>  <geom_source>  (9) 
Heuristics

$$$$

     RDKit          3D

 23 21  0  0  0  0  0  0  0  0999 V2000
   -0.8648    0.5838    1.2766 C   0  0  0  0  0  0  0  0  0  0  0  0
   -1.7739   -0.2712    0.6564 O   0  0  0  0  0  0  0  0  0  0  0  0
   -2.5326    0.3723   -0.2991 N   0  0  0  0  0  0  0  0  0  0  0  0
   -3.3402   -0.3543   -0.9441 C   0  0  0  0  0  0  0  0  0  0  0  0
   -1.2585    1.5877    1.4156 H   0  0  0  0  0  0  0  0  0  0  0  0
   -0.5496    0.1113    2.2005 H   0  0  0  0  0  0  0  0  0  0  0  0
   -3.9415    0.1407   -1.6853 H   0  0  0  0  0  0  0  0  0  0  0  0
   -3.4612   -1.4229   -0.7918 H   0  0  0  0  0  0  0  0  0  0  0  0
    1.6419    2.3138   -0.2131 C   0  0  0  0  0  0  0  0  0  0  0  0
    1.2162    0.8741   -0.3620 C   0  0  0  0  0  3  0  0  0  0  0  0
    2.2490    0.0093   -0.0209 O   0  0  0  0  0  0  0  0  0  0  0  0
    2.1398   -1.3151   -0.4876 C   0  0  0  0  0  0  0  0  0  0  0  0
    1.1325   -2.1572    0.2920 C   0  0  0  0  0  0  0  0  0  0  0  0
    2.4263    2.5633   -0.9294 H   0  0  0  0  0  0  0  0  0  0  0  0
    0.7924    2.9697   -0.3818 H   0  0  0  0  0  0  0  0  0  0  0  0
    2.0330    2.4804    0.7872 H   0  0  0  0  0  0  0  0  0  0  0  0
    0.1913    0.7147    0.4976 H   0  0  0  0  0  0  0  0  0  0  0  0
    0.7859    0.6447   -1.3434 H   0  0  0  0  0  0  0  0  0  0  0  0
    1.8772   -1.3157   -1.5563 H   0  0  0  0  0  0  0  0  0  0  0  0
    3.1430   -1.7353   -0.3724 H   0  0  0  0  0  0  0  0  0  0  0  0
    0.1206   -1.7892    0.1478 H   0  0  0  0  0  0  0  0  0  0  0  0
    1.1823   -3.1874   -0.0499 H   0  0  0  0  0  0  0  0  0  0  0  0
    1.3673   -2.1257    1.3528 H   0  0  0  0  0  0  0  0  0  0  0  0
  1  2  1  0
  1  5  1  0
  1  6  1  0
  1 17  1  0
  2  3  1  0
  3  4  2  3
  4  7  1  0
  4  8  1  0
  9 10  1  0
  9 14  1  0
  9 15  1  0
  9 16  1  0
 10 11  1  0
 10 18  1  0
 11 12  1  0
 12 13  1  0
 12 19  1  0
 12 20  1  0
 13 21  1  0
 13 22  1  0
 13 23  1  0
M  RAD  1  10   2
M  END
>  <reaction>  (10) 
rmg_rxn_15709

>  <mol_properties>  (10) 
{"0": {"label": "*3", "atom_type": "Cs"}, "1": {"label": "*4", "atom_type": "O2s"}, "9": {"label": "*1", "atom_type": "Cs"}, "10": {"label": "*0", "atom_type": "O2s"}, "16": {"label": "*2", "atom_type": "H0"}}

>  <type>  (10) 
unop_6

>  <geom_source>  (10) 
Heuristics

$$$$

     RDKit          3D

 23 21  0  0  0  0  0  0  0  0999 V2000
   -0.8703   -0.7101    0.4621 C   0  0  0  0  0  0  0  0  0  0  0  0
   -1.1831   -1.6897   -0.5085 O   0  0  0  0  0  0  0  0  0  0  0  0
   -1.9902   -2.6525    0.0487 N   0  0  0  0  0  0  0  0  0  0  0  0
   -2.2977   -3.5529   -0.7828 C   0  0  0  0  0  0  0  0  0  0  0  0
   -1.7749   -0.2178    0.8261 H   0  0  0  0  0  0  0  0  0  0  0  0
   -0.3314   -1.1517    1.3033 H   0  0  0  0  0  0  0  0  0  0  0  0
   -2.9331   -4.3502   -0.4212 H   0  0  0  0  0  0  0  0  0  0  0  0
   -1.9500   -3.5423   -1.8136 H   0  0  0  0  0  0  0  0  0  0  0  0
    1.2424    0.5521   -1.9667 C   0  0  0  0  0  0  0  0  0  0  0  0
    1.2424    0.5521   -0.4555 C   0  0  0  0  0  3  0  0  0  0  0  0
    1.2424    1.8813    0.0010 O   0  0  0  0  0  0  0  0  0  0  0  0
    1.2424    1.9855    1.4025 C   0  0  0  0  0  0  0  0  0  0  0  0
    1.2424    3.4471    1.7861 C   0  0  0  0  0  0  0  0  0  0  0  0
    2.1268    1.0632   -2.3488 H   0  0  0  0  0  0  0  0  0  0  0  0
    1.2424   -0.4714   -2.3447 H   0  0  0  0  0  0  0  0  0  0  0  0
    0.3581    1.0632   -2.3488 H   0  0  0  0  0  0  0  0  0  0  0  0
    0.1805   -0.0823    0.0057 H   0  0  0  0  0  0  0  0  0  0  0  0
    2.1273    0.0235   -0.0712 H   0  0  0  0  0  0  0  0  0  0  0  0
    0.3575    1.4795    1.8163 H   0  0  0  0  0  0  0  0  0  0  0  0
    2.1273    1.4795    1.8163 H   0  0  0  0  0  0  0  0  0  0  0  0
    0.3580    3.9464    1.3888 H   0  0  0  0  0  0  0  0  0  0  0  0
    1.2424    3.5529    2.8721 H   0  0  0  0  0  0  0  0  0  0  0  0
    2.1268    3.9464    1.3888 H   0  0  0  0  0  0  0  0  0  0  0  0
  1  2  1  0
  1  5  1  0
  1  6  1  0
  1 17  1  0
  2  3  1  0
  3  4  2  3
  4  7  1  0
  4  8  1  0
  9 10  1  0
  9 14  1  0
  9 15  1  0
  9 16  1  0
 10 11  1  0
 10 18  1  0
 11 12  1  0
 12 13  1  0
 12 19  1  0
 12 20  1  0
 13 21  1  0
 13 22  1  0
 13 23  1  0
M  RAD  1  10   2
M  END
>  <reaction>  (11) 
rmg_rxn_15709

>  <mol_properties>  (11) 
{"0": {"label": "*3", "atom_type": "Cs"}, "1": {"label": "*4", "atom_type": "O2s"}, "9": {"label": "*1", "atom_type": "Cs"}, "10": {"label": "*0", "atom_type": "O2s"}, "16": {"label": "*2", "atom_type": "H0"}}

>  <type>  (11) 
unop_7

>  <geom_source>  (11) 
Heuristics

$$$$

     RDKit          3D

 23 21  0  0  0  0  0  0  0  0999 V2000
    0.8430   -1.0383    1.1315 C   0  0  0  0  0  0  0  0  0  0  0  0
    1.9565   -0.9158    0.3024 O   0  0  0  0  0  0  0  0  0  0  0  0
    2.1689    0.3882   -0.0942 N   0  0  0  0  0  0  0  0  0  0  0  0
    3.1492    0.5821   -0.8677 C   0  0  0  0  0  0  0  0  0  0  0  0
    0.8402   -2.0533    1.5125 H   0  0  0  0  0  0  0  0  0  0  0  0
    0.8094   -0.2849    1.9155 H   0  0  0  0  0  0  0  0  0  0  0  0
    3.3243    1.5980   -1.1738 H   0  0  0  0  0  0  0  0  0  0  0  0
    3.8090   -0.2012   -1.2273 H   0  0  0  0  0  0  0  0  0  0  0  0
   -1.9460   -2.1073   -0.4586 C   0  0  0  0  0  0  0  0  0  0  0  0
   -1.2983   -0.7444   -0.4262 C   0  0  0  0  0  3  0  0  0  0  0  0
   -2.1675    0.2110    0.0824 O   0  0  0  0  0  0  0  0  0  0  0  0
   -1.8981    1.5540   -0.2499 C   0  0  0  0  0  0  0  0  0  0  0  0
   -0.7207    2.1522    0.5161 C   0  0  0  0  0  0  0  0  0  0  0  0
   -1.2135   -2.8596   -0.7379 H   0  0  0  0  0  0  0  0  0  0  0  0
   -2.3502   -2.3447    0.5221 H   0  0  0  0  0  0  0  0  0  0  0  0
   -2.7662   -2.1315   -1.1779 H   0  0  0  0  0  0  0  0  0  0  0  0
   -0.2403   -0.8772    0.3996 H   0  0  0  0  0  0  0  0  0  0  0  0
   -0.8590   -0.4455   -1.3842 H   0  0  0  0  0  0  0  0  0  0  0  0
   -1.7205    1.6433   -1.3320 H   0  0  0  0  0  0  0  0  0  0  0  0
   -2.8183    2.0902    0.0000 H   0  0  0  0  0  0  0  0  0  0  0  0
   -0.6507    3.2135    0.2940 H   0  0  0  0  0  0  0  0  0  0  0  0
   -0.8753    2.0265    1.5848 H   0  0  0  0  0  0  0  0  0  0  0  0
    0.2140    1.6735    0.2333 H   0  0  0  0  0  0  0  0  0  0  0  0
  1  2  1  0
  1  5  1  0
  1  6  1  0
  1 17  1  0
  2  3  1  0
  3  4  2  3
  4  7  1  0
  4  8  1  0
  9 10  1  0
  9 14  1  0
  9 15  1  0
  9 16  1  0
 10 11  1  0
 10 18  1  0
 11 12  1  0
 12 13  1  0
 12 19  1  0
 12 20  1  0
 13 21  1  0
 13 22  1  0
 13 23  1  0
M  RAD  1  10   2
M  END
>  <reaction>  (12) 
rmg_rxn_15709

>  <mol_properties>  (12) 
{"0": {"label": "*3", "atom_type": "Cs"}, "1": {"label": "*4", "atom_type": "O2s"}, "9": {"label": "*1", "atom_type": "Cs"}, "10": {"label": "*0", "atom_type": "O2s"}, "16": {"label": "*2", "atom_type": "H0"}}

>  <type>  (12) 
unop_8

>  <geom_source>  (12) 
Heuristics

$$$$

     RDKit          3D

 23 21  0  0  0  0  0  0  0  0999 V2000
   -1.1060   -1.0687   -0.5345 C   0  0  0  0  0  0  0  0  0  0  0  0
   -0.7118   -1.6260    0.7039 O   0  0  0  0  0  0  0  0  0  0  0  0
   -1.8126   -1.7864    1.5109 N   0  0  0  0  0  0  0  0  0  0  0  0
   -1.5099   -2.2830    2.6327 C   0  0  0  0  0  0  0  0  0  0  0  0
   -1.8075   -1.7261   -1.0532 H   0  0  0  0  0  0  0  0  0  0  0  0
   -1.5626   -0.0865   -0.3933 H   0  0  0  0  0  0  0  0  0  0  0  0
   -2.3232   -2.4414    3.3282 H   0  0  0  0  0  0  0  0  0  0  0  0
   -0.4886   -2.5438    2.9018 H   0  0  0  0  0  0  0  0  0  0  0  0
    1.0067    0.1935   -2.9633 C   0  0  0  0  0  0  0  0  0  0  0  0
    1.0067    0.1935   -1.4521 C   0  0  0  0  0  3  0  0  0  0  0  0
    1.0067    1.5226   -0.9956 O   0  0  0  0  0  0  0  0  0  0  0  0
    1.0067    1.6268    0.4059 C   0  0  0  0  0  0  0  0  0  0  0  0
    1.0067    3.0885    0.7895 C   0  0  0  0  0  0  0  0  0  0  0  0
    1.8911    0.7045   -3.3454 H   0  0  0  0  0  0  0  0  0  0  0  0
    1.0067   -0.8301   -3.3413 H   0  0  0  0  0  0  0  0  0  0  0  0
    0.1223    0.7045   -3.3454 H   0  0  0  0  0  0  0  0  0  0  0  0
   -0.0552   -0.4409   -0.9909 H   0  0  0  0  0  0  0  0  0  0  0  0
    1.8916   -0.3352   -1.0678 H   0  0  0  0  0  0  0  0  0  0  0  0
    0.1218    1.1209    0.8197 H   0  0  0  0  0  0  0  0  0  0  0  0
    1.8916    1.1209    0.8197 H   0  0  0  0  0  0  0  0  0  0  0  0
    0.1223    3.5878    0.3922 H   0  0  0  0  0  0  0  0  0  0  0  0
    1.0067    3.1943    1.8755 H   0  0  0  0  0  0  0  0  0  0  0  0
    1.8911    3.5878    0.3922 H   0  0  0  0  0  0  0  0  0  0  0  0
  1  2  1  0
  1  5  1  0
  1  6  1  0
  1 17  1  0
  2  3  1  0
  3  4  2  3
  4  7  1  0
  4  8  1  0
  9 10  1  0
  9 14  1  0
  9 15  1  0
  9 16  1  0
 10 11  1  0
 10 18  1  0
 11 12  1  0
 12 13  1  0
 12 19  1  0
 12 20  1  0
 13 21  1  0
 13 22  1  0
 13 23  1  0
M  RAD  1  10   2
M  END
>  <reaction>  (13) 
rmg_rxn_15709

>  <mol_properties>  (13) 
{"0": {"label": "*3", "atom_type": "Cs"}, "1": {"label": "*4", "atom_type": "O2s"}, "9": {"label": "*1", "atom_type": "Cs"}, "10": {"label": "*0", "atom_type": "O2s"}, "16": {"label": "*2", "atom_type": "H0"}}

>  <type>  (13) 
unop_9

>  <geom_source>  (13) 
Heuristics

$$$$

     RDKit          3D

 23 21  0  0  0  0  0  0  0  0999 V2000
   -0.4764   -1.6262    0.1872 C   0  0  0  0  0  0  0  0  0  0  0  0
   -1.5934   -0.9205   -0.3165 O   0  0  0  0  0  0  0  0  0  0  0  0
   -2.6308   -0.9932    0.5820 N   0  0  0  0  0  0  0  0  0  0  0  0
   -3.6550   -0.3752    0.1747 C   0  0  0  0  0  0  0  0  0  0  0  0
   -0.1331   -1.1932    1.1295 H   0  0  0  0  0  0  0  0  0  0  0  0
   -0.7158   -2.6815    0.3363 H   0  0  0  0  0  0  0  0  0  0  0  0
   -4.5182   -0.3847    0.8268 H   0  0  0  0  0  0  0  0  0  0  0  0
   -3.6845    0.1452   -0.7802 H   0  0  0  0  0  0  0  0  0  0  0  0
    1.6363   -0.3641   -2.2415 C   0  0  0  0  0  0  0  0  0  0  0  0
    1.6363   -0.3641   -0.7304 C   0  0  0  0  0  3  0  0  0  0  0  0
    1.6363    0.9651   -0.2738 O   0  0  0  0  0  0  0  0  0  0  0  0
    1.6363    1.0693    1.1277 C   0  0  0  0  0  0  0  0  0  0  0  0
    1.6363    2.5309    1.5113 C   0  0  0  0  0  0  0  0  0  0  0  0
    2.5207    0.1470   -2.6236 H   0  0  0  0  0  0  0  0  0  0  0  0
    1.6363   -1.3876   -2.6196 H   0  0  0  0  0  0  0  0  0  0  0  0
    0.7519    0.1470   -2.6236 H   0  0  0  0  0  0  0  0  0  0  0  0
    0.5744   -0.9985   -0.2692 H   0  0  0  0  0  0  0  0  0  0  0  0
    2.5212   -0.8927   -0.3461 H   0  0  0  0  0  0  0  0  0  0  0  0
    0.7514    0.5633    1.5415 H   0  0  0  0  0  0  0  0  0  0  0  0
    2.5212    0.5633    1.5415 H   0  0  0  0  0  0  0  0  0  0  0  0
    0.7519    3.0302    1.1140 H   0  0  0  0  0  0  0  0  0  0  0  0
    1.6363    2.6367    2.5973 H   0  0  0  0  0  0  0  0  0  0  0  0
    2.5207    3.0302    1.1140 H   0  0  0  0  0  0  0  0  0  0  0  0
  1  2  1  0
  1  5  1  0
  1  6  1  0
  1 17  1  0
  2  3  1  0
  3  4  2  3
  4  7  1  0
  4  8  1  0
  9 10  1  0
  9 14  1  0
  9 15  1  0
  9 16  1  0
 10 11  1  0
 10 18  1  0
 11 12  1  0
 12 13  1  0
 12 19  1  0
 12 20  1  0
 13 21  1  0
 13 22  1  0
 13 23  1  0
M  RAD  1  10   2
M  END
>  <reaction>  (14) 
rmg_rxn_15709

>  <mol_properties>  (14) 
{"0": {"label": "*3", "atom_type": "Cs"}, "1": {"label": "*4", "atom_type": "O2s"}, "9": {"label": "*1", "atom_type": "Cs"}, "10": {"label": "*0", "atom_type": "O2s"}, "16": {"label": "*2", "atom_type": "H0"}}

>  <type>  (14) 
unop_10

>  <geom_source>  (14) 
Heuristics

$$$$

     RDKit          3D

 23 21  0  0  0  0  0  0  0  0999 V2000
   -1.2715    0.9595    1.3620 C   0  0  0  0  0  0  0  0  0  0  0  0
   -2.2555    0.6933    0.3933 O   0  0  0  0  0  0  0  0  0  0  0  0
   -1.9708   -0.4783   -0.2803 N   0  0  0  0  0  0  0  0  0  0  0  0
   -2.7810   -0.8156   -1.1817 C   0  0  0  0  0  0  0  0  0  0  0  0
   -0.2611    0.9565    0.9360 H   0  0  0  0  0  0  0  0  0  0  0  0
   -1.5274    1.8666    1.8660 H   0  0  0  0  0  0  0  0  0  0  0  0
   -2.5619   -1.7271   -1.7099 H   0  0  0  0  0  0  0  0  0  0  0  0
   -3.6696   -0.2519   -1.4506 H   0  0  0  0  0  0  0  0  0  0  0  0
    1.6717    2.2301   -0.5358 C   0  0  0  0  0  0  0  0  0  0  0  0
    1.3227    0.7853   -0.5140 C   0  0  0  0  0  3  0  0  0  0  0  0
    2.2617   -0.0374    0.0559 O   0  0  0  0  0  0  0  0  0  0  0  0
    2.0905   -1.4198   -0.1418 C   0  0  0  0  0  0  0  0  0  0  0  0
    0.9520   -2.0049    0.6912 C   0  0  0  0  0  0  0  0  0  0  0  0
    2.1509    2.5072    0.4007 H   0  0  0  0  0  0  0  0  0  0  0  0
    2.3678    2.4722   -1.3489 H   0  0  0  0  0  0  0  0  0  0  0  0
    0.7748    2.8297   -0.6764 H   0  0  0  0  0  0  0  0  0  0  0  0
   -1.3578    0.3239    2.2513 H   0  0  0  0  0  0  0  0  0  0  0  0
    0.7328    0.3654   -1.3188 H   0  0  0  0  0  0  0  0  0  0  0  0
    1.9138   -1.6273   -1.2071 H   0  0  0  0  0  0  0  0  0  0  0  0
    3.0444   -1.8676    0.1522 H   0  0  0  0  0  0  0  0  0  0  0  0
    0.9270   -3.0835    0.5624 H   0  0  0  0  0  0  0  0  0  0  0  0
    1.1101   -1.7782    1.7427 H   0  0  0  0  0  0  0  0  0  0  0  0
   -0.0021   -1.5872    0.3774 H   0  0  0  0  0  0  0  0  0  0  0  0
  1  2  1  0
  1  5  1  0
  1  6  1  0
  1 17  1  0
  2  3  1  0
  3  4  2  3
  4  7  1  0
  4  8  1  0
  9 10  1  0
  9 14  1  0
  9 15  1  0
  9 16  1  0
 10 11  1  0
 10 18  1  0
 11 12  1  0
 12 13  1  0
 12 19  1  0
 12 20  1  0
 13 21  1  0
 13 22  1  0
 13 23  1  0
M  RAD  1  10   2
M  END
>  <reaction>  (15) 
rmg_rxn_15709

>  <mol_properties>  (15) 
{"0": {"label": "*3", "atom_type": "Cs"}, "1": {"label": "*4", "atom_type": "O2s"}, "9": {"label": "*1", "atom_type": "Cs"}, "10": {"label": "*0", "atom_type": "O2s"}, "16": {"label": "*2", "atom_type": "H0"}}

>  <type>  (15) 
unop_11

>  <geom_source>  (15) 
Heuristics

$$$$

     RDKit          3D

 23 21  0  0  0  0  0  0  0  0999 V2000
   -0.9865   -1.2242   -0.5541 C   0  0  0  0  0  0  0  0  0  0  0  0
   -0.8867   -1.1646    0.8552 O   0  0  0  0  0  0  0  0  0  0  0  0
   -1.9610   -1.8065    1.4232 N   0  0  0  0  0  0  0  0  0  0  0  0
   -1.9162   -1.7796    2.6857 C   0  0  0  0  0  0  0  0  0  0  0  0
   -0.9797   -2.2594   -0.9028 H   0  0  0  0  0  0  0  0  0  0  0  0
   -1.8948   -0.7277   -0.9028 H   0  0  0  0  0  0  0  0  0  0  0  0
   -2.7284   -2.2649    3.2101 H   0  0  0  0  0  0  0  0  0  0  0  0
   -1.1093   -1.2975    3.2335 H   0  0  0  0  0  0  0  0  0  0  0  0
    1.1262    0.0379   -2.9828 C   0  0  0  0  0  0  0  0  0  0  0  0
    1.1262    0.0379   -1.4717 C   0  0  0  0  0  3  0  0  0  0  0  0
    1.1262    1.3671   -1.0151 O   0  0  0  0  0  0  0  0  0  0  0  0
    1.1262    1.4713    0.3864 C   0  0  0  0  0  0  0  0  0  0  0  0
    1.1262    2.9329    0.7700 C   0  0  0  0  0  0  0  0  0  0  0  0
    2.0105    0.5490   -3.3649 H   0  0  0  0  0  0  0  0  0  0  0  0
    1.1262   -0.9856   -3.3608 H   0  0  0  0  0  0  0  0  0  0  0  0
    0.2418    0.5490   -3.3649 H   0  0  0  0  0  0  0  0  0  0  0  0
    0.0643   -0.5965   -1.0105 H   0  0  0  0  0  0  0  0  0  0  0  0
    2.0111   -0.4907   -1.0873 H   0  0  0  0  0  0  0  0  0  0  0  0
    0.2412    0.9653    0.8002 H   0  0  0  0  0  0  0  0  0  0  0  0
    2.0111    0.9653    0.8002 H   0  0  0  0  0  0  0  0  0  0  0  0
    0.2418    3.4322    0.3727 H   0  0  0  0  0  0  0  0  0  0  0  0
    1.1262    3.0387    1.8560 H   0  0  0  0  0  0  0  0  0  0  0  0
    2.0105    3.4322    0.3727 H   0  0  0  0  0  0  0  0  0  0  0  0
  1  2  1  0
  1  5  1  0
  1  6  1  0
  1 17  1  0
  2  3  1  0
  3  4  2  3
  4  7  1  0
  4  8  1  0
  9 10  1  0
  9 14  1  0
  9 15  1  0
  9 16  1  0
 10 11  1  0
 10 18  1  0
 11 12  1  0
 12 13  1  0
 12 19  1  0
 12 20  1  0
 13 21  1  0
 13 22  1  0
 13 23  1  0
M  RAD  1  10   2
M  END
>  <reaction>  (16) 
rmg_rxn_15709

>  <mol_properties>  (16) 
{"0": {"label": "*3", "atom_type": "Cs"}, "1": {"label": "*4", "atom_type": "O2s"}, "9": {"label": "*1", "atom_type": "Cs"}, "10": {"label": "*0", "atom_type": "O2s"}, "16": {"label": "*2", "atom_type": "H0"}}

>  <type>  (16) 
unop_12

>  <geom_source>  (16) 
Heuristics

$$$$

     RDKit          3D

 23 21  0  0  0  0  0  0  0  0999 V2000
   -0.8412    1.0409    1.1261 C   0  0  0  0  0  0  0  0  0  0  0  0
   -1.9555    0.9188    0.2983 O   0  0  0  0  0  0  0  0  0  0  0  0
   -2.1740   -0.3862   -0.0915 N   0  0  0  0  0  0  0  0  0  0  0  0
   -3.1568   -0.5799   -0.8619 C   0  0  0  0  0  0  0  0  0  0  0  0
   -0.8364    2.0566    1.5055 H   0  0  0  0  0  0  0  0  0  0  0  0
   -0.8083    0.2888    1.9114 H   0  0  0  0  0  0  0  0  0  0  0  0
   -3.3368   -1.5965   -1.1625 H   0  0  0  0  0  0  0  0  0  0  0  0
   -3.8140    0.2044   -1.2242 H   0  0  0  0  0  0  0  0  0  0  0  0
    1.9535    2.1049   -0.4559 C   0  0  0  0  0  0  0  0  0  0  0  0
    1.3030    0.7432   -0.4270 C   0  0  0  0  0  3  0  0  0  0  0  0
    2.1685   -0.2141    0.0844 O   0  0  0  0  0  0  0  0  0  0  0  0
    1.8979   -1.5565   -0.2492 C   0  0  0  0  0  0  0  0  0  0  0  0
    0.7171   -2.1529    0.5129 C   0  0  0  0  0  0  0  0  0  0  0  0
    2.7783    2.1272   -1.1699 H   0  0  0  0  0  0  0  0  0  0  0  0
    1.2241    2.8584   -0.7402 H   0  0  0  0  0  0  0  0  0  0  0  0
    2.3518    2.3421    0.5272 H   0  0  0  0  0  0  0  0  0  0  0  0
    0.2422    0.8774    0.3949 H   0  0  0  0  0  0  0  0  0  0  0  0
    0.8672    0.4456   -1.3870 H   0  0  0  0  0  0  0  0  0  0  0  0
    1.7233   -1.6449   -1.3319 H   0  0  0  0  0  0  0  0  0  0  0  0
    2.8163   -2.0945    0.0033 H   0  0  0  0  0  0  0  0  0  0  0  0
   -0.2160   -1.6724    0.2279 H   0  0  0  0  0  0  0  0  0  0  0  0
    0.6458   -3.2140    0.2900 H   0  0  0  0  0  0  0  0  0  0  0  0
    0.8688   -2.0281    1.5821 H   0  0  0  0  0  0  0  0  0  0  0  0
  1  2  1  0
  1  5  1  0
  1  6  1  0
  1 17  1  0
  2  3  1  0
  3  4  2  3
  4  7  1  0
  4  8  1  0
  9 10  1  0
  9 14  1  0
  9 15  1  0
  9 16  1  0
 10 11  1  0
 10 18  1  0
 11 12  1  0
 12 13  1  0
 12 19  1  0
 12 20  1  0
 13 21  1  0
 13 22  1  0
 13 23  1  0
M  RAD  1  10   2
M  END
>  <reaction>  (17) 
rmg_rxn_15709

>  <mol_properties>  (17) 
{"0": {"label": "*3", "atom_type": "Cs"}, "1": {"label": "*4", "atom_type": "O2s"}, "9": {"label": "*1", "atom_type": "Cs"}, "10": {"label": "*0", "atom_type": "O2s"}, "16": {"label": "*2", "atom_type": "H0"}}

>  <type>  (17) 
unop_13

>  <geom_source>  (17) 
Heuristics

$$$$

     RDKit          3D

 23 21  0  0  0  0  0  0  0  0999 V2000
   -0.8378   -1.0451   -1.1246 C   0  0  0  0  0  0  0  0  0  0  0  0
   -1.9519   -0.9235   -0.2964 O   0  0  0  0  0  0  0  0  0  0  0  0
   -2.1729    0.3818    0.0907 N   0  0  0  0  0  0  0  0  0  0  0  0
   -3.1547    0.5750    0.8626 C   0  0  0  0  0  0  0  0  0  0  0  0
   -0.8319   -2.0611   -1.5031 H   0  0  0  0  0  0  0  0  0  0  0  0
   -0.8061   -0.2937   -1.9105 H   0  0  0  0  0  0  0  0  0  0  0  0
   -3.3363    1.5919    1.1614 H   0  0  0  0  0  0  0  0  0  0  0  0
   -3.8094   -0.2100    1.2278 H   0  0  0  0  0  0  0  0  0  0  0  0
    1.9644   -2.0998    0.4530 C   0  0  0  0  0  0  0  0  0  0  0  0
    1.3063   -0.7417    0.4276 C   0  0  0  0  0  3  0  0  0  0  0  0
    2.1665    0.2213   -0.0819 O   0  0  0  0  0  0  0  0  0  0  0  0
    1.8863    1.5620    0.2506 C   0  0  0  0  0  0  0  0  0  0  0  0
    0.7061    2.1516   -0.5180 C   0  0  0  0  0  0  0  0  0  0  0  0
    1.2389   -2.8586    0.7333 H   0  0  0  0  0  0  0  0  0  0  0  0
    2.3661   -2.3311   -0.5301 H   0  0  0  0  0  0  0  0  0  0  0  0
    2.7880   -2.1200    1.1687 H   0  0  0  0  0  0  0  0  0  0  0  0
    0.2457   -0.8794   -0.3939 H   0  0  0  0  0  0  0  0  0  0  0  0
    0.8693   -0.4487    1.3886 H   0  0  0  0  0  0  0  0  0  0  0  0
    1.7055    1.6493    1.3323 H   0  0  0  0  0  0  0  0  0  0  0  0
    2.8029    2.1053    0.0030 H   0  0  0  0  0  0  0  0  0  0  0  0
    0.6288    3.2127   -0.2971 H   0  0  0  0  0  0  0  0  0  0  0  0
    0.8633    2.0259   -1.5863 H   0  0  0  0  0  0  0  0  0  0  0  0
   -0.2260    1.6673   -0.2362 H   0  0  0  0  0  0  0  0  0  0  0  0
  1  2  1  0
  1  5  1  0
  1  6  1  0
  1 17  1  0
  2  3  1  0
  3  4  2  3
  4  7  1  0
  4  8  1  0
  9 10  1  0
  9 14  1  0
  9 15  1  0
  9 16  1  0
 10 11  1  0
 10 18  1  0
 11 12  1  0
 12 13  1  0
 12 19  1  0
 12 20  1  0
 13 21  1  0
 13 22  1  0
 13 23  1  0
M  RAD  1  10   2
M  END
>  <reaction>  (18) 
rmg_rxn_15709

>  <mol_properties>  (18) 
{"0": {"label": "*3", "atom_type": "Cs"}, "1": {"label": "*4", "atom_type": "O2s"}, "9": {"label": "*1", "atom_type": "Cs"}, "10": {"label": "*0", "atom_type": "O2s"}, "16": {"label": "*2", "atom_type": "H0"}}

>  <type>  (18) 
unop_14

>  <geom_source>  (18) 
Heuristics

$$$$

     RDKit          3D

 23 21  0  0  0  0  0  0  0  0999 V2000
   -0.5917   -1.7082   -0.1380 C   0  0  0  0  0  0  0  0  0  0  0  0
   -1.5981   -0.7239   -0.0041 O   0  0  0  0  0  0  0  0  0  0  0  0
   -2.3295   -0.9614    1.1350 N   0  0  0  0  0  0  0  0  0  0  0  0
   -3.2442   -0.1050    1.2984 C   0  0  0  0  0  0  0  0  0  0  0  0
    0.0950   -1.6829    0.7111 H   0  0  0  0  0  0  0  0  0  0  0  0
   -1.0293   -2.7053   -0.2239 H   0  0  0  0  0  0  0  0  0  0  0  0
   -3.8669   -0.2221    2.1752 H   0  0  0  0  0  0  0  0  0  0  0  0
   -3.4109    0.7145    0.6026 H   0  0  0  0  0  0  0  0  0  0  0  0
    1.5210   -0.4460   -2.5668 C   0  0  0  0  0  0  0  0  0  0  0  0
    1.5210   -0.4460   -1.0556 C   0  0  0  0  0  3  0  0  0  0  0  0
    1.5210    0.8832   -0.5990 O   0  0  0  0  0  0  0  0  0  0  0  0
    1.5210    0.9874    0.8025 C   0  0  0  0  0  0  0  0  0  0  0  0
    1.5210    2.4490    1.1861 C   0  0  0  0  0  0  0  0  0  0  0  0
    2.4054    0.0650   -2.9488 H   0  0  0  0  0  0  0  0  0  0  0  0
    1.5210   -1.4695   -2.9448 H   0  0  0  0  0  0  0  0  0  0  0  0
    0.6366    0.0650   -2.9488 H   0  0  0  0  0  0  0  0  0  0  0  0
    0.4591   -1.0804   -0.5944 H   0  0  0  0  0  0  0  0  0  0  0  0
    2.4059   -0.9747   -0.6713 H   0  0  0  0  0  0  0  0  0  0  0  0
    0.6361    0.4814    1.2162 H   0  0  0  0  0  0  0  0  0  0  0  0
    2.4059    0.4814    1.2162 H   0  0  0  0  0  0  0  0  0  0  0  0
    0.6366    2.9483    0.7888 H   0  0  0  0  0  0  0  0  0  0  0  0
    1.5210    2.5548    2.2721 H   0  0  0  0  0  0  0  0  0  0  0  0
    2.4054    2.9483    0.7888 H   0  0  0  0  0  0  0  0  0  0  0  0
  1  2  1  0
  1  5  1  0
  1  6  1  0
  1 17  1  0
  2  3  1  0
  3  4  2  3
  4  7  1  0
  4  8  1  0
  9 10  1  0
  9 14  1  0
  9 15  1  0
  9 16  1  0
 10 11  1  0
 10 18  1  0
 11 12  1  0
 12 13  1  0
 12 19  1  0
 12 20  1  0
 13 21  1  0
 13 22  1  0
 13 23  1  0
M  RAD  1  10   2
M  END
>  <reaction>  (19) 
rmg_rxn_15709

>  <mol_properties>  (19) 
{"0": {"label": "*3", "atom_type": "Cs"}, "1": {"label": "*4", "atom_type": "O2s"}, "9": {"label": "*1", "atom_type": "Cs"}, "10": {"label": "*0", "atom_type": "O2s"}, "16": {"label": "*2", "atom_type": "H0"}}

>  <type>  (19) 
unop_15

>  <geom_source>  (19) 
Heuristics

$$$$

     RDKit          3D

 23 21  0  0  0  0  0  0  0  0999 V2000
   -0.8414   -1.0434   -1.1280 C   0  0  0  0  0  0  0  0  0  0  0  0
   -1.9551   -0.9195   -0.2995 O   0  0  0  0  0  0  0  0  0  0  0  0
   -2.1687    0.3854    0.0933 N   0  0  0  0  0  0  0  0  0  0  0  0
   -3.1502    0.5812    0.8649 C   0  0  0  0  0  0  0  0  0  0  0  0
   -0.8374   -2.0596   -1.5059 H   0  0  0  0  0  0  0  0  0  0  0  0
   -0.8085   -0.2925   -1.9144 H   0  0  0  0  0  0  0  0  0  0  0  0
   -3.3258    1.5978    1.1680 H   0  0  0  0  0  0  0  0  0  0  0  0
   -3.8101   -0.2013    1.2260 H   0  0  0  0  0  0  0  0  0  0  0  0
    1.9535   -2.1037    0.4575 C   0  0  0  0  0  0  0  0  0  0  0  0
    1.3012   -0.7430    0.4267 C   0  0  0  0  0  3  0  0  0  0  0  0
    2.1665    0.2152   -0.0834 O   0  0  0  0  0  0  0  0  0  0  0  0
    1.8934    1.5575    0.2489 C   0  0  0  0  0  0  0  0  0  0  0  0
    0.7137    2.1520   -0.5164 C   0  0  0  0  0  0  0  0  0  0  0  0
    2.3540   -2.3409   -0.5247 H   0  0  0  0  0  0  0  0  0  0  0  0
    2.7770   -2.1245    1.1732 H   0  0  0  0  0  0  0  0  0  0  0  0
    1.2246   -2.8581    0.7409 H   0  0  0  0  0  0  0  0  0  0  0  0
    0.2420   -0.8788   -0.3970 H   0  0  0  0  0  0  0  0  0  0  0  0
    0.8630   -0.4455    1.3857 H   0  0  0  0  0  0  0  0  0  0  0  0
    1.7160    1.6463    1.3311 H   0  0  0  0  0  0  0  0  0  0  0  0
    2.8118    2.0964   -0.0016 H   0  0  0  0  0  0  0  0  0  0  0  0
    0.8679    2.0263   -1.5852 H   0  0  0  0  0  0  0  0  0  0  0  0
   -0.2195    1.6709   -0.2329 H   0  0  0  0  0  0  0  0  0  0  0  0
    0.6410    3.2133   -0.2948 H   0  0  0  0  0  0  0  0  0  0  0  0
  1  2  1  0
  1  5  1  0
  1  6  1  0
  1 17  1  0
  2  3  1  0
  3  4  2  3
  4  7  1  0
  4  8  1  0
  9 10  1  0
  9 14  1  0
  9 15  1  0
  9 16  1  0
 10 11  1  0
 10 18  1  0
 11 12  1  0
 12 13  1  0
 12 19  1  0
 12 20  1  0
 13 21  1  0
 13 22  1  0
 13 23  1  0
M  RAD  1  10   2
M  END
>  <reaction>  (20) 
rmg_rxn_15709

>  <mol_properties>  (20) 
{"0": {"label": "*3", "atom_type": "Cs"}, "1": {"label": "*4", "atom_type": "O2s"}, "9": {"label": "*1", "atom_type": "Cs"}, "10": {"label": "*0", "atom_type": "O2s"}, "16": {"label": "*2", "atom_type": "H0"}}

>  <type>  (20) 
unop_16

>  <geom_source>  (20) 
Heuristics

$$$$

     RDKit          3D

 23 21  0  0  0  0  0  0  0  0999 V2000
   -0.7621   -1.6103   -0.4029 C   0  0  0  0  0  0  0  0  0  0  0  0
   -1.4709   -0.6606    0.3687 O   0  0  0  0  0  0  0  0  0  0  0  0
   -2.0063   -1.2714    1.4774 N   0  0  0  0  0  0  0  0  0  0  0  0
   -2.6513   -0.4604    2.2006 C   0  0  0  0  0  0  0  0  0  0  0  0
    0.0609   -2.0433    0.1701 H   0  0  0  0  0  0  0  0  0  0  0  0
   -1.4253   -2.4067   -0.7479 H   0  0  0  0  0  0  0  0  0  0  0  0
   -3.1053   -0.8642    3.0956 H   0  0  0  0  0  0  0  0  0  0  0  0
   -2.7547    0.5934    1.9507 H   0  0  0  0  0  0  0  0  0  0  0  0
    1.3506   -0.3481   -2.8316 C   0  0  0  0  0  0  0  0  0  0  0  0
    1.3506   -0.3481   -1.3205 C   0  0  0  0  0  3  0  0  0  0  0  0
    1.3506    0.9810   -0.8639 O   0  0  0  0  0  0  0  0  0  0  0  0
    1.3506    1.0853    0.5376 C   0  0  0  0  0  0  0  0  0  0  0  0
    1.3506    2.5469    0.9212 C   0  0  0  0  0  0  0  0  0  0  0  0
    2.2350    0.1629   -3.2137 H   0  0  0  0  0  0  0  0  0  0  0  0
    1.3506   -1.3717   -3.2096 H   0  0  0  0  0  0  0  0  0  0  0  0
    0.4662    0.1629   -3.2137 H   0  0  0  0  0  0  0  0  0  0  0  0
    0.2887   -0.9825   -0.8593 H   0  0  0  0  0  0  0  0  0  0  0  0
    2.2355   -0.8768   -0.9361 H   0  0  0  0  0  0  0  0  0  0  0  0
    0.4657    0.5793    0.9514 H   0  0  0  0  0  0  0  0  0  0  0  0
    2.2355    0.5793    0.9514 H   0  0  0  0  0  0  0  0  0  0  0  0
    0.4662    3.0462    0.5239 H   0  0  0  0  0  0  0  0  0  0  0  0
    1.3506    2.6527    2.0072 H   0  0  0  0  0  0  0  0  0  0  0  0
    2.2350    3.0462    0.5239 H   0  0  0  0  0  0  0  0  0  0  0  0
  1  2  1  0
  1  5  1  0
  1  6  1  0
  1 17  1  0
  2  3  1  0
  3  4  2  3
  4  7  1  0
  4  8  1  0
  9 10  1  0
  9 14  1  0
  9 15  1  0
  9 16  1  0
 10 11  1  0
 10 18  1  0
 11 12  1  0
 12 13  1  0
 12 19  1  0
 12 20  1  0
 13 21  1  0
 13 22  1  0
 13 23  1  0
M  RAD  1  10   2
M  END
>  <reaction>  (21) 
rmg_rxn_15709

>  <mol_properties>  (21) 
{"0": {"label": "*3", "atom_type": "Cs"}, "1": {"label": "*4", "atom_type": "O2s"}, "9": {"label": "*1", "atom_type": "Cs"}, "10": {"label": "*0", "atom_type": "O2s"}, "16": {"label": "*2", "atom_type": "H0"}}

>  <type>  (21) 
unop_17

>  <geom_source>  (21) 
Heuristics

$$$$

     RDKit          3D

 23 21  0  0  0  0  0  0  0  0999 V2000
    1.0587   -0.0550    1.2798 C   0  0  0  0  0  0  0  0  0  0  0  0
    1.7693    0.8892    0.5367 O   0  0  0  0  0  0  0  0  0  0  0  0
    2.5489    0.5245   -0.5011 N   0  0  0  0  0  0  0  0  0  0  0  0
    2.6550   -0.6724   -0.8907 C   0  0  0  0  0  0  0  0  0  0  0  0
    1.6558   -0.9144    1.5852 H   0  0  0  0  0  0  0  0  0  0  0  0
    0.6393    0.4774    2.1261 H   0  0  0  0  0  0  0  0  0  0  0  0
    3.3196   -0.8334   -1.7211 H   0  0  0  0  0  0  0  0  0  0  0  0
    2.1428   -1.5380   -0.4785 H   0  0  0  0  0  0  0  0  0  0  0  0
   -1.0965   -2.4421    0.1717 C   0  0  0  0  0  0  0  0  0  0  0  0
   -0.9514   -0.9874   -0.2051 C   0  0  0  0  0  3  0  0  0  0  0  0
   -2.1126   -0.2841    0.0761 O   0  0  0  0  0  0  0  0  0  0  0  0
   -2.2840    0.9486   -0.5864 C   0  0  0  0  0  0  0  0  0  0  0  0
   -1.4475    2.0815    0.0029 C   0  0  0  0  0  0  0  0  0  0  0  0
   -0.1493   -2.9609    0.0479 H   0  0  0  0  0  0  0  0  0  0  0  0
   -1.4171   -2.5229    1.2072 H   0  0  0  0  0  0  0  0  0  0  0  0
   -1.8447   -2.9311   -0.4538 H   0  0  0  0  0  0  0  0  0  0  0  0
    0.0516   -0.5142    0.5643 H   0  0  0  0  0  0  0  0  0  0  0  0
   -0.6066   -0.8325   -1.2347 H   0  0  0  0  0  0  0  0  0  0  0  0
   -2.0558    0.8337   -1.6564 H   0  0  0  0  0  0  0  0  0  0  0  0
   -3.3481    1.1763   -0.4761 H   0  0  0  0  0  0  0  0  0  0  0  0
   -0.3856    1.9098   -0.1504 H   0  0  0  0  0  0  0  0  0  0  0  0
   -1.7202    3.0168   -0.4779 H   0  0  0  0  0  0  0  0  0  0  0  0
   -1.6381    2.1653    1.0697 H   0  0  0  0  0  0  0  0  0  0  0  0
  1  2  1  0
  1  5  1  0
  1  6  1  0
  1 17  1  0
  2  3  1  0
  3  4  2  3
  4  7  1  0
  4  8  1  0
  9 10  1  0
  9 14  1  0
  9 15  1  0
  9 16  1  0
 10 11  1  0
 10 18  1  0
 11 12  1  0
 12 13  1  0
 12 19  1  0
 12 20  1  0
 13 21  1  0
 13 22  1  0
 13 23  1  0
M  RAD  1  10   2
M  END
>  <reaction>  (22) 
rmg_rxn_15709

>  <mol_properties>  (22) 
{"0": {"label": "*3", "atom_type": "Cs"}, "1": {"label": "*4", "atom_type": "O2s"}, "9": {"label": "*1", "atom_type": "Cs"}, "10": {"label": "*0", "atom_type": "O2s"}, "16": {"label": "*2", "atom_type": "H0"}}

>  <type>  (22) 
unop_18

>  <geom_source>  (22) 
Heuristics

$$$$

     RDKit          3D

 23 21  0  0  0  0  0  0  0  0999 V2000
   -1.2255   -0.6472   -0.1380 C   0  0  0  0  0  0  0  0  0  0  0  0
   -0.8358   -1.9999   -0.0041 O   0  0  0  0  0  0  0  0  0  0  0  0
   -1.3916   -2.5314    1.1350 N   0  0  0  0  0  0  0  0  0  0  0  0
   -1.0709   -3.7427    1.2984 C   0  0  0  0  0  0  0  0  0  0  0  0
   -2.3110   -0.5600   -0.2239 H   0  0  0  0  0  0  0  0  0  0  0  0
   -0.8778   -0.0546    0.7111 H   0  0  0  0  0  0  0  0  0  0  0  0
   -1.4692   -4.2356    2.1752 H   0  0  0  0  0  0  0  0  0  0  0  0
   -0.4282   -4.2779    0.6027 H   0  0  0  0  0  0  0  0  0  0  0  0
    0.8872    0.6150   -2.5668 C   0  0  0  0  0  0  0  0  0  0  0  0
    0.8872    0.6150   -1.0556 C   0  0  0  0  0  3  0  0  0  0  0  0
    0.8872    1.9441   -0.5990 O   0  0  0  0  0  0  0  0  0  0  0  0
    0.8872    2.0483    0.8025 C   0  0  0  0  0  0  0  0  0  0  0  0
    0.8872    3.5100    1.1861 C   0  0  0  0  0  0  0  0  0  0  0  0
    1.7716    1.1260   -2.9488 H   0  0  0  0  0  0  0  0  0  0  0  0
    0.8872   -0.4086   -2.9448 H   0  0  0  0  0  0  0  0  0  0  0  0
    0.0028    1.1260   -2.9488 H   0  0  0  0  0  0  0  0  0  0  0  0
   -0.1747   -0.0194   -0.5944 H   0  0  0  0  0  0  0  0  0  0  0  0
    1.7721    0.0863   -0.6713 H   0  0  0  0  0  0  0  0  0  0  0  0
    0.0023    1.5424    1.2163 H   0  0  0  0  0  0  0  0  0  0  0  0
    1.7721    1.5424    1.2163 H   0  0  0  0  0  0  0  0  0  0  0  0
    0.0028    4.0093    0.7888 H   0  0  0  0  0  0  0  0  0  0  0  0
    0.8872    3.6158    2.2721 H   0  0  0  0  0  0  0  0  0  0  0  0
    1.7716    4.0093    0.7888 H   0  0  0  0  0  0  0  0  0  0  0  0
  1  2  1  0
  1  5  1  0
  1  6  1  0
  1 17  1  0
  2  3  1  0
  3  4  2  3
  4  7  1  0
  4  8  1  0
  9 10  1  0
  9 14  1  0
  9 15  1  0
  9 16  1  0
 10 11  1  0
 10 18  1  0
 11 12  1  0
 12 13  1  0
 12 19  1  0
 12 20  1  0
 13 21  1  0
 13 22  1  0
 13 23  1  0
M  RAD  1  10   2
M  END
>  <reaction>  (23) 
rmg_rxn_15709

>  <mol_properties>  (23) 
{"0": {"label": "*3", "atom_type": "Cs"}, "1": {"label": "*4", "atom_type": "O2s"}, "9": {"label": "*1", "atom_type": "Cs"}, "10": {"label": "*0", "atom_type": "O2s"}, "16": {"label": "*2", "atom_type": "H0"}}

>  <type>  (23) 
unop_19

>  <geom_source>  (23) 
Heuristics

$$$$

     RDKit          3D

 23 21  0  0  0  0  0  0  0  0999 V2000
   -0.8415    1.0374    1.1285 C   0  0  0  0  0  0  0  0  0  0  0  0
   -1.9567    0.9166    0.3016 O   0  0  0  0  0  0  0  0  0  0  0  0
   -2.1725   -0.3871   -0.0943 N   0  0  0  0  0  0  0  0  0  0  0  0
   -3.1567   -0.5796   -0.8632 C   0  0  0  0  0  0  0  0  0  0  0  0
   -0.8372    2.0520    1.5106 H   0  0  0  0  0  0  0  0  0  0  0  0
   -0.8070    0.2832    1.9116 H   0  0  0  0  0  0  0  0  0  0  0  0
   -3.3343   -1.5951   -1.1690 H   0  0  0  0  0  0  0  0  0  0  0  0
   -3.8172    0.2047   -1.2194 H   0  0  0  0  0  0  0  0  0  0  0  0
    1.9498    2.1065   -0.4574 C   0  0  0  0  0  0  0  0  0  0  0  0
    1.3015    0.7438   -0.4271 C   0  0  0  0  0  3  0  0  0  0  0  0
    2.1687   -0.2118    0.0847 O   0  0  0  0  0  0  0  0  0  0  0  0
    1.9005   -1.5548   -0.2487 C   0  0  0  0  0  0  0  0  0  0  0  0
    0.7193   -2.1526    0.5118 C   0  0  0  0  0  0  0  0  0  0  0  0
    2.7747    2.1293   -1.1714 H   0  0  0  0  0  0  0  0  0  0  0  0
    1.2193    2.8585   -0.7427 H   0  0  0  0  0  0  0  0  0  0  0  0
    2.3477    2.3454    0.5254 H   0  0  0  0  0  0  0  0  0  0  0  0
    0.2412    0.8765    0.3956 H   0  0  0  0  0  0  0  0  0  0  0  0
    0.8657    0.4448   -1.3867 H   0  0  0  0  0  0  0  0  0  0  0  0
    1.7279   -1.6440   -1.3316 H   0  0  0  0  0  0  0  0  0  0  0  0
    2.8194   -2.0912    0.0056 H   0  0  0  0  0  0  0  0  0  0  0  0
    0.6495   -3.2137    0.2885 H   0  0  0  0  0  0  0  0  0  0  0  0
    0.8694   -2.0279    1.5812 H   0  0  0  0  0  0  0  0  0  0  0  0
   -0.2138   -1.6730    0.2255 H   0  0  0  0  0  0  0  0  0  0  0  0
  1  2  1  0
  1  5  1  0
  1  6  1  0
  1 17  1  0
  2  3  1  0
  3  4  2  3
  4  7  1  0
  4  8  1  0
  9 10  1  0
  9 14  1  0
  9 15  1  0
  9 16  1  0
 10 11  1  0
 10 18  1  0
 11 12  1  0
 12 13  1  0
 12 19  1  0
 12 20  1  0
 13 21  1  0
 13 22  1  0
 13 23  1  0
M  RAD  1  10   2
M  END
>  <reaction>  (24) 
rmg_rxn_15709

>  <mol_properties>  (24) 
{"0": {"label": "*3", "atom_type": "Cs"}, "1": {"label": "*4", "atom_type": "O2s"}, "9": {"label": "*1", "atom_type": "Cs"}, "10": {"label": "*0", "atom_type": "O2s"}, "16": {"label": "*2", "atom_type": "H0"}}

>  <type>  (24) 
unop_20

>  <geom_source>  (24) 
Heuristics

$$$$

     RDKit          3D

 23 21  0  0  0  0  0  0  0  0999 V2000
   -0.4786   -1.3656    0.4621 C   0  0  0  0  0  0  0  0  0  0  0  0
   -1.4896   -1.1768   -0.5085 O   0  0  0  0  0  0  0  0  0  0  0  0
   -2.7198   -1.4311    0.0487 N   0  0  0  0  0  0  0  0  0  0  0  0
   -3.6584   -1.2752   -0.7828 C   0  0  0  0  0  0  0  0  0  0  0  0
   -0.6121   -0.6817    1.3033 H   0  0  0  0  0  0  0  0  0  0  0  0
   -0.4739   -2.3955    0.8261 H   0  0  0  0  0  0  0  0  0  0  0  0
   -4.6617   -1.4568   -0.4212 H   0  0  0  0  0  0  0  0  0  0  0  0
   -3.4843   -0.9741   -1.8136 H   0  0  0  0  0  0  0  0  0  0  0  0
    1.6341   -0.1034   -1.9667 C   0  0  0  0  0  0  0  0  0  0  0  0
    1.6341   -0.1034   -0.4555 C   0  0  0  0  0  3  0  0  0  0  0  0
    1.6341    1.2258    0.0010 O   0  0  0  0  0  0  0  0  0  0  0  0
    1.6341    1.3300    1.4025 C   0  0  0  0  0  0  0  0  0  0  0  0
    1.6340    2.7916    1.7861 C   0  0  0  0  0  0  0  0  0  0  0  0
    2.5184    0.4076   -2.3488 H   0  0  0  0  0  0  0  0  0  0  0  0
    1.6341   -1.1269   -2.3447 H   0  0  0  0  0  0  0  0  0  0  0  0
    0.7497    0.4076   -2.3488 H   0  0  0  0  0  0  0  0  0  0  0  0
    0.5722   -0.7378    0.0057 H   0  0  0  0  0  0  0  0  0  0  0  0
    2.5190   -0.6321   -0.0712 H   0  0  0  0  0  0  0  0  0  0  0  0
    0.7491    0.8240    1.8163 H   0  0  0  0  0  0  0  0  0  0  0  0
    2.5190    0.8240    1.8163 H   0  0  0  0  0  0  0  0  0  0  0  0
    0.7497    3.2909    1.3888 H   0  0  0  0  0  0  0  0  0  0  0  0
    1.6340    2.8974    2.8721 H   0  0  0  0  0  0  0  0  0  0  0  0
    2.5184    3.2909    1.3888 H   0  0  0  0  0  0  0  0  0  0  0  0
  1  2  1  0
  1  5  1  0
  1  6  1  0
  1 17  1  0
  2  3  1  0
  3  4  2  3
  4  7  1  0
  4  8  1  0
  9 10  1  0
  9 14  1  0
  9 15  1  0
  9 16  1  0
 10 11  1  0
 10 18  1  0
 11 12  1  0
 12 13  1  0
 12 19  1  0
 12 20  1  0
 13 21  1  0
 13 22  1  0
 13 23  1  0
M  RAD  1  10   2
M  END
>  <reaction>  (25) 
rmg_rxn_15709

>  <mol_properties>  (25) 
{"0": {"label": "*3", "atom_type": "Cs"}, "1": {"label": "*4", "atom_type": "O2s"}, "9": {"label": "*1", "atom_type": "Cs"}, "10": {"label": "*0", "atom_type": "O2s"}, "16": {"label": "*2", "atom_type": "H0"}}

>  <type>  (25) 
unop_21

>  <geom_source>  (25) 
Heuristics

$$$$

     RDKit          3D

 23 21  0  0  0  0  0  0  0  0999 V2000
   -1.0987   -0.5845    0.1872 C   0  0  0  0  0  0  0  0  0  0  0  0
   -1.0067   -1.9026   -0.3165 O   0  0  0  0  0  0  0  0  0  0  0  0
   -1.5624   -2.7817    0.5819 N   0  0  0  0  0  0  0  0  0  0  0  0
   -1.5036   -3.9764    0.1747 C   0  0  0  0  0  0  0  0  0  0  0  0
   -2.1414   -0.2952    0.3363 H   0  0  0  0  0  0  0  0  0  0  0  0
   -0.5548   -0.4875    1.1295 H   0  0  0  0  0  0  0  0  0  0  0  0
   -1.9211   -4.7320    0.8267 H   0  0  0  0  0  0  0  0  0  0  0  0
   -1.0593   -4.2490   -0.7801 H   0  0  0  0  0  0  0  0  0  0  0  0
    1.0140    0.6776   -2.2415 C   0  0  0  0  0  0  0  0  0  0  0  0
    1.0140    0.6776   -0.7304 C   0  0  0  0  0  3  0  0  0  0  0  0
    1.0140    2.0068   -0.2738 O   0  0  0  0  0  0  0  0  0  0  0  0
    1.0140    2.1110    1.1277 C   0  0  0  0  0  0  0  0  0  0  0  0
    1.0140    3.5726    1.5113 C   0  0  0  0  0  0  0  0  0  0  0  0
    1.8983    1.1887   -2.6236 H   0  0  0  0  0  0  0  0  0  0  0  0
    1.0140   -0.3459   -2.6195 H   0  0  0  0  0  0  0  0  0  0  0  0
    0.1296    1.1887   -2.6236 H   0  0  0  0  0  0  0  0  0  0  0  0
   -0.0479    0.0432   -0.2692 H   0  0  0  0  0  0  0  0  0  0  0  0
    1.8989    0.1490   -0.3460 H   0  0  0  0  0  0  0  0  0  0  0  0
    0.1290    1.6050    1.5415 H   0  0  0  0  0  0  0  0  0  0  0  0
    1.8989    1.6050    1.5415 H   0  0  0  0  0  0  0  0  0  0  0  0
    0.1296    4.0719    1.1140 H   0  0  0  0  0  0  0  0  0  0  0  0
    1.0140    3.6784    2.5973 H   0  0  0  0  0  0  0  0  0  0  0  0
    1.8983    4.0719    1.1140 H   0  0  0  0  0  0  0  0  0  0  0  0
  1  2  1  0
  1  5  1  0
  1  6  1  0
  1 17  1  0
  2  3  1  0
  3  4  2  3
  4  7  1  0
  4  8  1  0
  9 10  1  0
  9 14  1  0
  9 15  1  0
  9 16  1  0
 10 11  1  0
 10 18  1  0
 11 12  1  0
 12 13  1  0
 12 19  1  0
 12 20  1  0
 13 21  1  0
 13 22  1  0
 13 23  1  0
M  RAD  1  10   2
M  END
>  <reaction>  (26) 
rmg_rxn_15709

>  <mol_properties>  (26) 
{"0": {"label": "*3", "atom_type": "Cs"}, "1": {"label": "*4", "atom_type": "O2s"}, "9": {"label": "*1", "atom_type": "Cs"}, "10": {"label": "*0", "atom_type": "O2s"}, "16": {"label": "*2", "atom_type": "H0"}}

>  <type>  (26) 
unop_22

>  <geom_source>  (26) 
Heuristics

$$$$

     RDKit          3D

 23 21  0  0  0  0  0  0  0  0999 V2000
   -0.9062   -1.4032   -0.5345 C   0  0  0  0  0  0  0  0  0  0  0  0
   -1.2101   -0.7920    0.7039 O   0  0  0  0  0  0  0  0  0  0  0  0
   -1.8730   -1.6853    1.5109 N   0  0  0  0  0  0  0  0  0  0  0  0
   -2.1668   -1.1833    2.6327 C   0  0  0  0  0  0  0  0  0  0  0  0
   -0.2577   -2.2707   -0.3933 H   0  0  0  0  0  0  0  0  0  0  0  0
   -1.8175   -1.7093   -1.0532 H   0  0  0  0  0  0  0  0  0  0  0  0
   -2.6918   -1.8244    3.3282 H   0  0  0  0  0  0  0  0  0  0  0  0
   -1.9125   -0.1604    2.9018 H   0  0  0  0  0  0  0  0  0  0  0  0
    1.2065   -0.1410   -2.9633 C   0  0  0  0  0  0  0  0  0  0  0  0
    1.2065   -0.1410   -1.4521 C   0  0  0  0  0  3  0  0  0  0  0  0
    1.2065    1.1881   -0.9956 O   0  0  0  0  0  0  0  0  0  0  0  0
    1.2065    1.2923    0.4059 C   0  0  0  0  0  0  0  0  0  0  0  0
    1.2065    2.7540    0.7895 C   0  0  0  0  0  0  0  0  0  0  0  0
    2.0909    0.3700   -3.3454 H   0  0  0  0  0  0  0  0  0  0  0  0
    1.2065   -1.1646   -3.3413 H   0  0  0  0  0  0  0  0  0  0  0  0
    0.3221    0.3700   -3.3454 H   0  0  0  0  0  0  0  0  0  0  0  0
    0.1446   -0.7754   -0.9909 H   0  0  0  0  0  0  0  0  0  0  0  0
    2.0914   -0.6697   -1.0678 H   0  0  0  0  0  0  0  0  0  0  0  0
    0.3216    0.7864    0.8197 H   0  0  0  0  0  0  0  0  0  0  0  0
    2.0914    0.7864    0.8197 H   0  0  0  0  0  0  0  0  0  0  0  0
    0.3221    3.2533    0.3922 H   0  0  0  0  0  0  0  0  0  0  0  0
    1.2065    2.8598    1.8755 H   0  0  0  0  0  0  0  0  0  0  0  0
    2.0909    3.2533    0.3922 H   0  0  0  0  0  0  0  0  0  0  0  0
  1  2  1  0
  1  5  1  0
  1  6  1  0
  1 17  1  0
  2  3  1  0
  3  4  2  3
  4  7  1  0
  4  8  1  0
  9 10  1  0
  9 14  1  0
  9 15  1  0
  9 16  1  0
 10 11  1  0
 10 18  1  0
 11 12  1  0
 12 13  1  0
 12 19  1  0
 12 20  1  0
 13 21  1  0
 13 22  1  0
 13 23  1  0
M  RAD  1  10   2
M  END
>  <reaction>  (27) 
rmg_rxn_15709

>  <mol_properties>  (27) 
{"0": {"label": "*3", "atom_type": "Cs"}, "1": {"label": "*4", "atom_type": "O2s"}, "9": {"label": "*1", "atom_type": "Cs"}, "10": {"label": "*0", "atom_type": "O2s"}, "16": {"label": "*2", "atom_type": "H0"}}

>  <type>  (27) 
unop_23

>  <geom_source>  (27) 
Heuristics

$$$$

     RDKit          3D

 23 21  0  0  0  0  0  0  0  0999 V2000
   -0.6261   -1.0089    0.5721 C   0  0  0  0  0  0  0  0  0  0  0  0
   -1.3427   -1.4370   -0.5693 O   0  0  0  0  0  0  0  0  0  0  0  0
   -2.4740   -2.1129   -0.1793 N   0  0  0  0  0  0  0  0  0  0  0  0
   -3.1496   -2.5165   -1.1679 C   0  0  0  0  0  0  0  0  0  0  0  0
   -1.2283   -0.3295    1.1794 H   0  0  0  0  0  0  0  0  0  0  0  0
   -0.3132   -1.8612    1.1794 H   0  0  0  0  0  0  0  0  0  0  0  0
   -4.0584   -3.0594   -0.9448 H   0  0  0  0  0  0  0  0  0  0  0  0
   -2.8475   -2.3361   -2.1973 H   0  0  0  0  0  0  0  0  0  0  0  0
    1.4866    0.2533   -1.8567 C   0  0  0  0  0  0  0  0  0  0  0  0
    1.4866    0.2533   -0.3455 C   0  0  0  0  0  3  0  0  0  0  0  0
    1.4866    1.5824    0.1111 O   0  0  0  0  0  0  0  0  0  0  0  0
    1.4866    1.6866    1.5126 C   0  0  0  0  0  0  0  0  0  0  0  0
    1.4866    3.1483    1.8962 C   0  0  0  0  0  0  0  0  0  0  0  0
    2.3710    0.7643   -2.2387 H   0  0  0  0  0  0  0  0  0  0  0  0
    1.4866   -0.7703   -2.2347 H   0  0  0  0  0  0  0  0  0  0  0  0
    0.6022    0.7643   -2.2387 H   0  0  0  0  0  0  0  0  0  0  0  0
    0.4247   -0.3811    0.1157 H   0  0  0  0  0  0  0  0  0  0  0  0
    2.3715   -0.2754    0.0388 H   0  0  0  0  0  0  0  0  0  0  0  0
    0.6017    1.1807    1.9264 H   0  0  0  0  0  0  0  0  0  0  0  0
    2.3715    1.1807    1.9264 H   0  0  0  0  0  0  0  0  0  0  0  0
    0.6022    3.6476    1.4989 H   0  0  0  0  0  0  0  0  0  0  0  0
    1.4866    3.2541    2.9822 H   0  0  0  0  0  0  0  0  0  0  0  0
    2.3710    3.6476    1.4989 H   0  0  0  0  0  0  0  0  0  0  0  0
  1  2  1  0
  1  5  1  0
  1  6  1  0
  1 17  1  0
  2  3  1  0
  3  4  2  3
  4  7  1  0
  4  8  1  0
  9 10  1  0
  9 14  1  0
  9 15  1  0
  9 16  1  0
 10 11  1  0
 10 18  1  0
 11 12  1  0
 12 13  1  0
 12 19  1  0
 12 20  1  0
 13 21  1  0
 13 22  1  0
 13 23  1  0
M  RAD  1  10   2
M  END
>  <reaction>  (28) 
rmg_rxn_15709

>  <mol_properties>  (28) 
{"0": {"label": "*3", "atom_type": "Cs"}, "1": {"label": "*4", "atom_type": "O2s"}, "9": {"label": "*1", "atom_type": "Cs"}, "10": {"label": "*0", "atom_type": "O2s"}, "16": {"label": "*2", "atom_type": "H0"}}

>  <type>  (28) 
unop_24

>  <geom_source>  (28) 
Heuristics

$$$$

     RDKit          3D

 23 21  0  0  0  0  0  0  0  0999 V2000
   -1.2053    1.0463    1.2867 C   0  0  0  0  0  0  0  0  0  0  0  0
   -2.2313    0.7853    0.3623 O   0  0  0  0  0  0  0  0  0  0  0  0
   -2.0460   -0.4436   -0.2428 N   0  0  0  0  0  0  0  0  0  0  0  0
   -2.9198   -0.7926   -1.0776 C   0  0  0  0  0  0  0  0  0  0  0  0
   -1.1480    2.1019    1.4511 H   0  0  0  0  0  0  0  0  0  0  0  0
   -1.3015    0.4703    2.2035 H   0  0  0  0  0  0  0  0  0  0  0  0
   -2.7783   -1.7484   -1.5514 H   0  0  0  0  0  0  0  0  0  0  0  0
   -3.7887   -0.1972   -1.3426 H   0  0  0  0  0  0  0  0  0  0  0  0
    1.8261    2.1802   -0.5257 C   0  0  0  0  0  0  0  0  0  0  0  0
    1.3929    0.7571   -0.5188 C   0  0  0  0  0  3  0  0  0  0  0  0
    2.2690   -0.1154    0.0768 O   0  0  0  0  0  0  0  0  0  0  0  0
    2.0419   -1.4868   -0.1417 C   0  0  0  0  0  0  0  0  0  0  0  0
    0.8628   -2.0327    0.6605 C   0  0  0  0  0  0  0  0  0  0  0  0
    2.5833    2.3740   -1.2956 H   0  0  0  0  0  0  0  0  0  0  0  0
    0.9761    2.8293   -0.7245 H   0  0  0  0  0  0  0  0  0  0  0  0
    2.2636    2.4374    0.4367 H   0  0  0  0  0  0  0  0  0  0  0  0
   -0.1974    0.9649    0.8334 H   0  0  0  0  0  0  0  0  0  0  0  0
    0.8227    0.3729   -1.3559 H   0  0  0  0  0  0  0  0  0  0  0  0
    1.8794   -1.6740   -1.2131 H   0  0  0  0  0  0  0  0  0  0  0  0
    2.9694   -1.9789    0.1663 H   0  0  0  0  0  0  0  0  0  0  0  0
    1.0092   -1.8256    1.7176 H   0  0  0  0  0  0  0  0  0  0  0  0
   -0.0671   -1.5722    0.3345 H   0  0  0  0  0  0  0  0  0  0  0  0
    0.7957   -3.1076    0.5174 H   0  0  0  0  0  0  0  0  0  0  0  0
  1  2  1  0
  1  5  1  0
  1  6  1  0
  1 17  1  0
  2  3  1  0
  3  4  2  3
  4  7  1  0
  4  8  1  0
  9 10  1  0
  9 14  1  0
  9 15  1  0
  9 16  1  0
 10 11  1  0
 10 18  1  0
 11 12  1  0
 12 13  1  0
 12 19  1  0
 12 20  1  0
 13 21  1  0
 13 22  1  0
 13 23  1  0
M  RAD  1  10   2
M  END
>  <reaction>  (29) 
rmg_rxn_15709

>  <mol_properties>  (29) 
{"0": {"label": "*3", "atom_type": "Cs"}, "1": {"label": "*4", "atom_type": "O2s"}, "9": {"label": "*1", "atom_type": "Cs"}, "10": {"label": "*0", "atom_type": "O2s"}, "16": {"label": "*2", "atom_type": "H0"}}

>  <type>  (29) 
unop_25

>  <geom_source>  (29) 
Heuristics

$$$$

     RDKit          3D

 23 21  0  0  0  0  0  0  0  0999 V2000
    1.0345    0.4806   -0.2891 O   0  0  0  0  0  0  0  0  0  0  0  0
   -2.5540   -0.8916   -1.0061 O   0  0  0  0  0  0  0  0  0  0  0  0
   -2.6322    0.0903   -0.0454 N   0  0  0  0  0  0  0  0  0  0  0  0
    2.3796    0.6651    0.0984 C   0  0  0  0  0  0  0  0  0  0  0  0
    2.7283    2.1425    0.0050 C   0  0  0  0  0  0  0  0  0  0  0  0
   -0.0561   -1.0504    1.2405 C   0  0  0  0  0  0  0  0  0  0  0  0
   -1.3392   -1.1168   -1.7003 C   0  0  0  0  0  0  0  0  0  0  0  0
    0.6531   -0.8665   -0.0937 C   0  0  0  0  0  3  0  0  0  0  0  0
   -3.7373    0.2996    0.5904 C   0  0  0  0  0  0  0  0  0  0  0  0
    3.0594    0.1019   -0.5803 H   0  0  0  0  0  0  0  0  0  0  0  0
    2.5461    0.3341    1.1489 H   0  0  0  0  0  0  0  0  0  0  0  0
    2.0731    2.7309    0.6819 H   0  0  0  0  0  0  0  0  0  0  0  0
    3.7867    2.2985    0.3029 H   0  0  0  0  0  0  0  0  0  0  0  0
    2.5911    2.5006   -1.0375 H   0  0  0  0  0  0  0  0  0  0  0  0
   -0.4496   -2.0858    1.3083 H   0  0  0  0  0  0  0  0  0  0  0  0
    0.6483   -0.8766    2.0803 H   0  0  0  0  0  0  0  0  0  0  0  0
   -0.9042   -0.3383    1.3174 H   0  0  0  0  0  0  0  0  0  0  0  0
   -1.4733   -1.9565   -2.4127 H   0  0  0  0  0  0  0  0  0  0  0  0
   -1.0525   -0.2034   -2.2625 H   0  0  0  0  0  0  0  0  0  0  0  0
   -0.3709   -1.4287   -0.8265 H   0  0  0  0  0  0  0  0  0  0  0  0
    1.4724   -1.6094   -0.2398 H   0  0  0  0  0  0  0  0  0  0  0  0
   -4.6172   -0.2942    0.3767 H   0  0  0  0  0  0  0  0  0  0  0  0
   -3.7863    1.0743    1.3432 H   0  0  0  0  0  0  0  0  0  0  0  0
  1  8  1  0
  1  4  1  0
  2  7  1  0
  2  3  1  0
  3  9  2  3
  4  5  1  0
  4 10  1  0
  4 11  1  0
  5 12  1  0
  5 13  1  0
  5 14  1  0
  6  8  1  0
  6 15  1  0
  6 16  1  0
  6 17  1  0
  7 18  1  0
  7 19  1  0
  7 20  1  0
  8 21  1  0
  9 22  1  0
  9 23  1  0
M  RAD  1   8   2
M  END
>  <reaction>  (30) 
rmg_rxn_15709

>  <mol_properties>  (30) 
{"0": {"label": "*3", "atom_type": "Cs"}, "1": {"label": "*4", "atom_type": "O2s"}, "9": {"label": "*1", "atom_type": "Cs"}, "10": {"label": "*0", "atom_type": "O2s"}, "16": {"label": "*2", "atom_type": "H0"}}

>  <type>  (30) 
unop_26

>  <geom_source>  (30) 
AutoTST

$$$$

     RDKit          3D

 23 21  0  0  0  0  0  0  0  0999 V2000
   -0.8703   -0.7100    0.4621 C   0  0  0  0  0  0  0  0  0  0  0  0
   -1.1831   -1.6897   -0.5085 O   0  0  0  0  0  0  0  0  0  0  0  0
   -1.9902   -2.6525    0.0487 N   0  0  0  0  0  0  0  0  0  0  0  0
   -2.2977   -3.5529   -0.7828 C   0  0  0  0  0  0  0  0  0  0  0  0
   -1.7749   -0.2178    0.8261 H   0  0  0  0  0  0  0  0  0  0  0  0
   -0.3314   -1.1517    1.3034 H   0  0  0  0  0  0  0  0  0  0  0  0
   -2.9331   -4.3502   -0.4212 H   0  0  0  0  0  0  0  0  0  0  0  0
   -1.9500   -3.5423   -1.8136 H   0  0  0  0  0  0  0  0  0  0  0  0
    1.2424    0.5521   -1.9667 C   0  0  0  0  0  0  0  0  0  0  0  0
    1.2424    0.5521   -0.4555 C   0  0  0  0  0  3  0  0  0  0  0  0
    1.2424    1.8813    0.0010 O   0  0  0  0  0  0  0  0  0  0  0  0
    1.2424    1.9855    1.4025 C   0  0  0  0  0  0  0  0  0  0  0  0
    1.2424    3.4471    1.7861 C   0  0  0  0  0  0  0  0  0  0  0  0
    2.1268    1.0632   -2.3488 H   0  0  0  0  0  0  0  0  0  0  0  0
    1.2424   -0.4714   -2.3447 H   0  0  0  0  0  0  0  0  0  0  0  0
    0.3580    1.0632   -2.3488 H   0  0  0  0  0  0  0  0  0  0  0  0
    0.1805   -0.0823    0.0057 H   0  0  0  0  0  0  0  0  0  0  0  0
    2.1273    0.0235   -0.0712 H   0  0  0  0  0  0  0  0  0  0  0  0
    0.3575    1.4795    1.8163 H   0  0  0  0  0  0  0  0  0  0  0  0
    2.1273    1.4795    1.8163 H   0  0  0  0  0  0  0  0  0  0  0  0
    0.3580    3.9464    1.3888 H   0  0  0  0  0  0  0  0  0  0  0  0
    1.2424    3.5529    2.8721 H   0  0  0  0  0  0  0  0  0  0  0  0
    2.1268    3.9464    1.3888 H   0  0  0  0  0  0  0  0  0  0  0  0
  1  2  1  0
  1  5  1  0
  1  6  1  0
  1 17  1  0
  2  3  1  0
  3  4  2  3
  4  7  1  0
  4  8  1  0
  9 10  1  0
  9 14  1  0
  9 15  1  0
  9 16  1  0
 10 11  1  0
 10 18  1  0
 11 12  1  0
 12 13  1  0
 12 19  1  0
 12 20  1  0
 13 21  1  0
 13 22  1  0
 13 23  1  0
M  RAD  1  10   2
M  END
>  <reaction>  (31) 
rmg_rxn_15709

>  <mol_properties>  (31) 
{"0": {"label": "*3", "atom_type": "Cs"}, "1": {"label": "*4", "atom_type": "O2s"}, "9": {"label": "*1", "atom_type": "Cs"}, "10": {"label": "*0", "atom_type": "O2s"}, "16": {"label": "*2", "atom_type": "H0"}}

>  <type>  (31) 
unop_27

>  <geom_source>  (31) 
gaussian_log

$$$$
