
     RDKit          3D

 11 10  0  0  0  0  0  0  0  0999 V2000
   -1.2710    0.1907   -0.2084 C   0  0  0  0  0  0  0  0  0  0  0  0
    0.0202   -0.6130   -0.2928 C   0  0  0  0  0  0  0  0  0  0  0  0
    0.1086   -1.6953    0.7756 C   0  0  0  0  0  0  0  0  0  0  0  0
   -1.3607    0.6851    0.7620 H   0  0  0  0  0  0  0  0  0  0  0  0
   -2.1429   -0.4567   -0.3299 H   0  0  0  0  0  0  0  0  0  0  0  0
   -1.3158    0.9602   -0.9809 H   0  0  0  0  0  0  0  0  0  0  0  0
    0.8757    0.0616   -0.1992 H   0  0  0  0  0  0  0  0  0  0  0  0
    0.0997   -1.0712   -1.2825 H   0  0  0  0  0  0  0  0  0  0  0  0
   -0.7198   -2.4022    0.6850 H   0  0  0  0  0  0  0  0  0  0  0  0
    1.0395   -2.2596    0.6989 H   0  0  0  0  0  0  0  0  0  0  0  0
    0.0624   -1.2603    1.7770 H   0  0  0  0  0  0  0  0  0  0  0  0
  1  2  1  0
  1  4  1  0
  1  5  1  0
  1  6  1  0
  2  3  1  0
  2  7  1  0
  2  8  1  0
  3  9  1  0
  3 10  1  0
  3 11  1  0
M  END
>  <reaction>  (1) 
rmg_rxn_652

>  <mol_properties>  (1) 
{"0": {"label": "donator", "atom_type": "Cs"}, "3": {"label": "d_hydrogen", "atom_type": "H0"}}

>  <type>  (1) 
r1h

$$$$

     RDKit          3D

 14 13  0  0  0  0  0  0  0  0999 V2000
    2.6694    0.2813   -0.6046 C   0  0  0  0  0  3  0  0  0  0  0  0
    1.5626   -0.5075   -0.0103 C   0  0  0  0  0  0  0  0  0  0  0  0
    0.5522   -0.8487   -0.9278 O   0  0  0  0  0  0  0  0  0  0  0  0
    0.9505   -1.8204   -1.8682 C   0  0  0  0  0  0  0  0  0  0  0  0
   -0.2101   -2.1029   -2.7930 C   0  0  0  0  0  0  0  0  0  0  0  0
    2.4666    0.9443   -1.4355 H   0  0  0  0  0  0  0  0  0  0  0  0
    3.6339    0.3312   -0.1179 H   0  0  0  0  0  0  0  0  0  0  0  0
    1.0573    0.0741    0.7733 H   0  0  0  0  0  0  0  0  0  0  0  0
    1.9580   -1.4106    0.4809 H   0  0  0  0  0  0  0  0  0  0  0  0
    1.8195   -1.4649   -2.4379 H   0  0  0  0  0  0  0  0  0  0  0  0
    1.2587   -2.7372   -1.3440 H   0  0  0  0  0  0  0  0  0  0  0  0
   -0.5051   -1.1971   -3.3238 H   0  0  0  0  0  0  0  0  0  0  0  0
    0.0686   -2.8601   -3.5276 H   0  0  0  0  0  0  0  0  0  0  0  0
   -1.0699   -2.4661   -2.2289 H   0  0  0  0  0  0  0  0  0  0  0  0
  1  2  1  0
  1  6  1  0
  1  7  1  0
  2  3  1  0
  2  8  1  0
  2  9  1  0
  3  4  1  0
  4  5  1  0
  4 10  1  0
  4 11  1  0
  5 12  1  0
  5 13  1  0
  5 14  1  0
M  RAD  1   1   2
M  END
>  <reaction>  (2) 
rmg_rxn_652

>  <mol_properties>  (2) 
{"0": {"label": "acceptor", "atom_type": "Cs"}}

>  <type>  (2) 
r2

$$$$

     RDKit          3D

 15 14  0  0  0  0  0  0  0  0999 V2000
    2.4145    0.0817    0.4065 C   0  0  0  0  0  0  0  0  0  0  0  0
    1.1257   -0.2220   -0.3219 C   0  0  0  0  0  0  0  0  0  0  0  0
    1.0983   -1.5879   -0.6512 O   0  0  0  0  0  0  0  0  0  0  0  0
   -0.0685   -1.9694   -1.3352 C   0  0  0  0  0  0  0  0  0  0  0  0
    0.0024   -3.4478   -1.6403 C   0  0  0  0  0  0  0  0  0  0  0  0
    3.2736   -0.1534   -0.2229 H   0  0  0  0  0  0  0  0  0  0  0  0
    2.4581    1.1389    0.6728 H   0  0  0  0  0  0  0  0  0  0  0  0
    2.4855   -0.5095    1.3201 H   0  0  0  0  0  0  0  0  0  0  0  0
    0.2597    0.0294    0.3083 H   0  0  0  0  0  0  0  0  0  0  0  0
    1.0482    0.3858   -1.2356 H   0  0  0  0  0  0  0  0  0  0  0  0
   -0.9535   -1.7457   -0.7211 H   0  0  0  0  0  0  0  0  0  0  0  0
   -0.1650   -1.3894   -2.2650 H   0  0  0  0  0  0  0  0  0  0  0  0
    0.0831   -4.0247   -0.7183 H   0  0  0  0  0  0  0  0  0  0  0  0
   -0.8950   -3.7674   -2.1724 H   0  0  0  0  0  0  0  0  0  0  0  0
    0.8712   -3.6686   -2.2613 H   0  0  0  0  0  0  0  0  0  0  0  0
  1  2  1  0
  1  6  1  0
  1  7  1  0
  1  8  1  0
  2  3  1  0
  2  9  1  0
  2 10  1  0
  3  4  1  0
  4  5  1  0
  4 11  1  0
  4 12  1  0
  5 13  1  0
  5 14  1  0
  5 15  1  0
M  END
>  <reaction>  (3) 
rmg_rxn_652

>  <mol_properties>  (3) 
{"0": {"label": "a_hydrogen", "atom_type": "H0"}, "1": {"label": "acceptor", "atom_type": "Cs"}}

>  <type>  (3) 
r2h

$$$$

     RDKit          3D

 25 23  0  0  0  0  0  0  0  0999 V2000
    2.2717    0.8390    0.8615 C   0  0  0  0  0  0  0  0  0  0  0  0
    2.0191   -0.6377    0.6890 C   0  0  0  0  0  0  0  0  0  0  0  0
    1.8610   -1.0544   -0.7670 C   0  0  0  0  0  0  0  0  0  0  0  0
    1.1403    1.5051    0.6193 H   0  0  0  0  0  0  0  0  0  0  0  0
    2.9889    1.2639    0.1582 H   0  0  0  0  0  0  0  0  0  0  0  0
    2.4924    1.1437    1.8836 H   0  0  0  0  0  0  0  0  0  0  0  0
    1.1207   -0.9155    1.2461 H   0  0  0  0  0  0  0  0  0  0  0  0
    2.8476   -1.2007    1.1359 H   0  0  0  0  0  0  0  0  0  0  0  0
    2.7621   -0.8251   -1.3410 H   0  0  0  0  0  0  0  0  0  0  0  0
    1.6721   -2.1259   -0.8552 H   0  0  0  0  0  0  0  0  0  0  0  0
    1.0249   -0.5295   -1.2313 H   0  0  0  0  0  0  0  0  0  0  0  0
   -0.0185    2.1980    0.4634 C   0  0  0  0  0  3  0  0  0  0  0  0
   -0.8926    1.4187   -0.4671 C   0  0  0  0  0  0  0  0  0  0  0  0
   -1.1543    0.1572    0.0960 O   0  0  0  0  0  0  0  0  0  0  0  0
   -1.9004   -0.6866   -0.7439 C   0  0  0  0  0  0  0  0  0  0  0  0
   -2.0281   -2.0387   -0.0820 C   0  0  0  0  0  0  0  0  0  0  0  0
   -0.4124    2.2777    1.4746 H   0  0  0  0  0  0  0  0  0  0  0  0
    0.2986    3.1593    0.0647 H   0  0  0  0  0  0  0  0  0  0  0  0
   -0.4003    1.3014   -1.4452 H   0  0  0  0  0  0  0  0  0  0  0  0
   -1.8425    1.9481   -0.6529 H   0  0  0  0  0  0  0  0  0  0  0  0
   -2.8919   -0.2499   -0.9335 H   0  0  0  0  0  0  0  0  0  0  0  0
   -1.3972   -0.7845   -1.7175 H   0  0  0  0  0  0  0  0  0  0  0  0
   -2.5279   -1.9469    0.8828 H   0  0  0  0  0  0  0  0  0  0  0  0
   -2.6079   -2.7160   -0.7108 H   0  0  0  0  0  0  0  0  0  0  0  0
   -1.0414   -2.4745    0.0807 H   0  0  0  0  0  0  0  0  0  0  0  0
  1  2  1  0
  1  4  1  0
  1  5  1  0
  1  6  1  0
  2  3  1  0
  2  7  1  0
  2  8  1  0
  3  9  1  0
  3 10  1  0
  3 11  1  0
 12 13  1  0
 12 17  1  0
 12 18  1  0
 13 14  1  0
 13 19  1  0
 13 20  1  0
 14 15  1  0
 15 16  1  0
 15 21  1  0
 15 22  1  0
 16 23  1  0
 16 24  1  0
 16 25  1  0
M  RAD  1  12   2
M  END
>  <reaction>  (4) 
rmg_rxn_652

>  <mol_properties>  (4) 
{"0": {"label": "*1", "atom_type": "Cs"}, "1": {"label": "*0", "atom_type": "Cs"}, "3": {"label": "*2", "atom_type": "H0"}, "11": {"label": "*3", "atom_type": "Cs"}, "12": {"label": "*4", "atom_type": "Cs"}}

>  <type>  (4) 
ts

$$$$

     RDKit          3D

 25 23  0  0  0  0  0  0  0  0999 V2000
    1.4855   -0.7904   -0.6547 C   0  0  0  0  0  3  0  0  0  0  0  0
    1.4855   -2.1962   -1.2414 C   0  0  0  0  0  0  0  0  0  0  0  0
    1.4855   -2.1962   -2.7647 C   0  0  0  0  0  0  0  0  0  0  0  0
    0.4278   -0.1201   -1.0436 H   0  0  0  0  0  0  0  0  0  0  0  0
    2.3670   -0.2318   -0.9788 H   0  0  0  0  0  0  0  0  0  0  0  0
    1.4855   -0.8110    0.4364 H   0  0  0  0  0  0  0  0  0  0  0  0
    0.6110   -2.7425   -0.8774 H   0  0  0  0  0  0  0  0  0  0  0  0
    2.3601   -2.7425   -0.8774 H   0  0  0  0  0  0  0  0  0  0  0  0
    2.3670   -1.6819   -3.1554 H   0  0  0  0  0  0  0  0  0  0  0  0
    1.4855   -3.2111   -3.1659 H   0  0  0  0  0  0  0  0  0  0  0  0
    0.6041   -1.6819   -3.1554 H   0  0  0  0  0  0  0  0  0  0  0  0
   -0.6279    0.5489   -1.4318 C   0  0  0  0  0  0  0  0  0  0  0  0
   -1.4541    0.9726   -0.2396 C   0  0  0  0  0  0  0  0  0  0  0  0
   -0.6445    0.9481    0.9089 O   0  0  0  0  0  0  0  0  0  0  0  0
   -1.3278    1.3291    2.0764 C   0  0  0  0  0  0  0  0  0  0  0  0
   -0.3727    1.2689    3.2459 C   0  0  0  0  0  0  0  0  0  0  0  0
    0.2154    1.2259   -1.5723 H   0  0  0  0  0  0  0  0  0  0  0  0
   -1.2369    0.5603   -2.3371 H   0  0  0  0  0  0  0  0  0  0  0  0
   -2.3128    0.2977   -0.1077 H   0  0  0  0  0  0  0  0  0  0  0  0
   -1.8583    1.9843   -0.3922 H   0  0  0  0  0  0  0  0  0  0  0  0
   -1.7300    2.3465    1.9605 H   0  0  0  0  0  0  0  0  0  0  0  0
   -2.1845    0.6598    2.2450 H   0  0  0  0  0  0  0  0  0  0  0  0
    0.4695    1.9431    3.0865 H   0  0  0  0  0  0  0  0  0  0  0  0
   -0.8822    1.5613    4.1654 H   0  0  0  0  0  0  0  0  0  0  0  0
    0.0153    0.2574    3.3707 H   0  0  0  0  0  0  0  0  0  0  0  0
  1  2  1  0
  1  5  1  0
  1  6  1  0
  2  3  1  0
  2  7  1  0
  2  8  1  0
  3  9  1  0
  3 10  1  0
  3 11  1  0
  4 12  1  0
 12 13  1  0
 12 17  1  0
 12 18  1  0
 13 14  1  0
 13 19  1  0
 13 20  1  0
 14 15  1  0
 15 16  1  0
 15 21  1  0
 15 22  1  0
 16 23  1  0
 16 24  1  0
 16 25  1  0
M  RAD  1   1   2
M  END
>  <reaction>  (5) 
rmg_rxn_652

>  <mol_properties>  (5) 
{"0": {"label": "*1", "atom_type": "Cs"}, "1": {"label": "*0", "atom_type": "Cs"}, "3": {"label": "*2", "atom_type": "H0"}, "11": {"label": "*3", "atom_type": "Cs"}, "12": {"label": "*4", "atom_type": "Cs"}}

>  <type>  (5) 
unop_1

>  <geom_source>  (5) 
Heuristics

$$$$

     RDKit          3D

 25 23  0  0  0  0  0  0  0  0999 V2000
    2.1879    0.7006    0.4441 C   0  0  0  0  0  3  0  0  0  0  0  0
    2.1879   -0.7053   -0.1427 C   0  0  0  0  0  0  0  0  0  0  0  0
    2.1879   -0.7053   -1.6660 C   0  0  0  0  0  0  0  0  0  0  0  0
    1.1301    1.3708    0.0551 H   0  0  0  0  0  0  0  0  0  0  0  0
    3.0693    1.2591    0.1199 H   0  0  0  0  0  0  0  0  0  0  0  0
    2.1879    0.6799    1.5352 H   0  0  0  0  0  0  0  0  0  0  0  0
    1.3133   -1.2516    0.2214 H   0  0  0  0  0  0  0  0  0  0  0  0
    3.0624   -1.2516    0.2214 H   0  0  0  0  0  0  0  0  0  0  0  0
    3.0693   -0.1910   -2.0566 H   0  0  0  0  0  0  0  0  0  0  0  0
    2.1879   -1.7202   -2.0671 H   0  0  0  0  0  0  0  0  0  0  0  0
    1.3064   -0.1910   -2.0566 H   0  0  0  0  0  0  0  0  0  0  0  0
    0.0745    2.0398   -0.3331 C   0  0  0  0  0  0  0  0  0  0  0  0
   -1.0877    1.1036   -0.5707 C   0  0  0  0  0  0  0  0  0  0  0  0
   -1.1214    0.1472    0.4584 O   0  0  0  0  0  0  0  0  0  0  0  0
   -2.1744   -0.7739    0.3243 C   0  0  0  0  0  0  0  0  0  0  0  0
   -2.1203   -1.7522    1.4748 C   0  0  0  0  0  0  0  0  0  0  0  0
   -0.0339    2.5477    0.6258 H   0  0  0  0  0  0  0  0  0  0  0  0
    0.1207    2.7927   -1.1215 H   0  0  0  0  0  0  0  0  0  0  0  0
   -0.9850    0.6029   -1.5449 H   0  0  0  0  0  0  0  0  0  0  0  0
   -2.0342    1.6639   -0.5932 H   0  0  0  0  0  0  0  0  0  0  0  0
   -3.1381   -0.2433    0.3160 H   0  0  0  0  0  0  0  0  0  0  0  0
   -2.0888   -1.3043   -0.6357 H   0  0  0  0  0  0  0  0  0  0  0  0
   -2.2198   -1.2290    2.4264 H   0  0  0  0  0  0  0  0  0  0  0  0
   -2.9302   -2.4786    1.3916 H   0  0  0  0  0  0  0  0  0  0  0  0
   -1.1712   -2.2893    1.4752 H   0  0  0  0  0  0  0  0  0  0  0  0
  1  2  1  0
  1  5  1  0
  1  6  1  0
  2  3  1  0
  2  7  1  0
  2  8  1  0
  3  9  1  0
  3 10  1  0
  3 11  1  0
  4 12  1  0
 12 13  1  0
 12 17  1  0
 12 18  1  0
 13 14  1  0
 13 19  1  0
 13 20  1  0
 14 15  1  0
 15 16  1  0
 15 21  1  0
 15 22  1  0
 16 23  1  0
 16 24  1  0
 16 25  1  0
M  RAD  1   1   2
M  END
>  <reaction>  (6) 
rmg_rxn_652

>  <mol_properties>  (6) 
{"0": {"label": "*1", "atom_type": "Cs"}, "1": {"label": "*0", "atom_type": "Cs"}, "3": {"label": "*2", "atom_type": "H0"}, "11": {"label": "*3", "atom_type": "Cs"}, "12": {"label": "*4", "atom_type": "Cs"}}

>  <type>  (6) 
unop_2

>  <geom_source>  (6) 
Heuristics

$$$$

     RDKit          3D

 25 23  0  0  0  0  0  0  0  0999 V2000
    0.9980   -1.4633   -0.2950 C   0  0  0  0  0  3  0  0  0  0  0  0
    0.9980   -2.8692   -0.8817 C   0  0  0  0  0  0  0  0  0  0  0  0
    0.9980   -2.8692   -2.4050 C   0  0  0  0  0  0  0  0  0  0  0  0
   -0.0598   -0.7931   -0.6839 H   0  0  0  0  0  0  0  0  0  0  0  0
    1.8794   -0.9048   -0.6191 H   0  0  0  0  0  0  0  0  0  0  0  0
    0.9980   -1.4840    0.7961 H   0  0  0  0  0  0  0  0  0  0  0  0
    0.1234   -3.4155   -0.5177 H   0  0  0  0  0  0  0  0  0  0  0  0
    1.8725   -3.4155   -0.5177 H   0  0  0  0  0  0  0  0  0  0  0  0
    1.8794   -2.3549   -2.7957 H   0  0  0  0  0  0  0  0  0  0  0  0
    0.9980   -3.8841   -2.8062 H   0  0  0  0  0  0  0  0  0  0  0  0
    0.1165   -2.3549   -2.7957 H   0  0  0  0  0  0  0  0  0  0  0  0
   -1.1154   -0.1241   -1.0721 C   0  0  0  0  0  0  0  0  0  0  0  0
   -1.5206    0.8825   -0.0204 C   0  0  0  0  0  0  0  0  0  0  0  0
   -0.3704    1.3260    0.6543 O   0  0  0  0  0  0  0  0  0  0  0  0
   -0.6464    2.2705    1.6577 C   0  0  0  0  0  0  0  0  0  0  0  0
    0.6503    2.6793    2.3172 C   0  0  0  0  0  0  0  0  0  0  0  0
   -0.4300    0.3280   -1.7898 H   0  0  0  0  0  0  0  0  0  0  0  0
   -1.9941   -0.4833   -1.6101 H   0  0  0  0  0  0  0  0  0  0  0  0
   -2.2236    0.4296    0.6944 H   0  0  0  0  0  0  0  0  0  0  0  0
   -2.0362    1.7365   -0.4842 H   0  0  0  0  0  0  0  0  0  0  0  0
   -1.1481    3.1465    1.2205 H   0  0  0  0  0  0  0  0  0  0  0  0
   -1.3356    1.8396    2.3991 H   0  0  0  0  0  0  0  0  0  0  0  0
    1.3286    3.1201    1.5859 H   0  0  0  0  0  0  0  0  0  0  0  0
    0.4604    3.4138    3.1015 H   0  0  0  0  0  0  0  0  0  0  0  0
    1.1413    1.8140    2.7638 H   0  0  0  0  0  0  0  0  0  0  0  0
  1  2  1  0
  1  5  1  0
  1  6  1  0
  2  3  1  0
  2  7  1  0
  2  8  1  0
  3  9  1  0
  3 10  1  0
  3 11  1  0
  4 12  1  0
 12 13  1  0
 12 17  1  0
 12 18  1  0
 13 14  1  0
 13 19  1  0
 13 20  1  0
 14 15  1  0
 15 16  1  0
 15 21  1  0
 15 22  1  0
 16 23  1  0
 16 24  1  0
 16 25  1  0
M  RAD  1   1   2
M  END
>  <reaction>  (7) 
rmg_rxn_652

>  <mol_properties>  (7) 
{"0": {"label": "*1", "atom_type": "Cs"}, "1": {"label": "*0", "atom_type": "Cs"}, "3": {"label": "*2", "atom_type": "H0"}, "11": {"label": "*3", "atom_type": "Cs"}, "12": {"label": "*4", "atom_type": "Cs"}}

>  <type>  (7) 
unop_3

>  <geom_source>  (7) 
Heuristics

$$$$

     RDKit          3D

 25 23  0  0  0  0  0  0  0  0999 V2000
    1.7386   -0.0011    2.2046 C   0  0  0  0  0  3  0  0  0  0  0  0
    1.7386   -1.4069    1.6179 C   0  0  0  0  0  0  0  0  0  0  0  0
    1.7386   -1.4069    0.0946 C   0  0  0  0  0  0  0  0  0  0  0  0
    0.6808    0.6692    1.8157 H   0  0  0  0  0  0  0  0  0  0  0  0
    2.6200    0.5575    1.8805 H   0  0  0  0  0  0  0  0  0  0  0  0
    1.7386   -0.0218    3.2957 H   0  0  0  0  0  0  0  0  0  0  0  0
    0.8640   -1.9533    1.9819 H   0  0  0  0  0  0  0  0  0  0  0  0
    2.6131   -1.9533    1.9819 H   0  0  0  0  0  0  0  0  0  0  0  0
    2.6200   -0.8926   -0.2960 H   0  0  0  0  0  0  0  0  0  0  0  0
    1.7386   -2.4218   -0.3066 H   0  0  0  0  0  0  0  0  0  0  0  0
    0.8571   -0.8927   -0.2960 H   0  0  0  0  0  0  0  0  0  0  0  0
   -0.3748    1.3381    1.4275 C   0  0  0  0  0  0  0  0  0  0  0  0
   -0.4027    1.4557   -0.0788 C   0  0  0  0  0  0  0  0  0  0  0  0
   -1.1349    0.3789   -0.6074 O   0  0  0  0  0  0  0  0  0  0  0  0
   -1.2176    0.4007   -2.0101 C   0  0  0  0  0  0  0  0  0  0  0  0
   -2.0206   -0.7927   -2.4732 C   0  0  0  0  0  0  0  0  0  0  0  0
   -1.3876    1.3599    1.8313 H   0  0  0  0  0  0  0  0  0  0  0  0
    0.1896    2.1653    1.8608 H   0  0  0  0  0  0  0  0  0  0  0  0
    0.6201    1.4486   -0.4839 H   0  0  0  0  0  0  0  0  0  0  0  0
   -0.8639    2.4075   -0.3816 H   0  0  0  0  0  0  0  0  0  0  0  0
   -1.6917    1.3358   -2.3435 H   0  0  0  0  0  0  0  0  0  0  0  0
   -0.2077    0.3769   -2.4458 H   0  0  0  0  0  0  0  0  0  0  0  0
   -3.0267   -0.7623   -2.0537 H   0  0  0  0  0  0  0  0  0  0  0  0
   -2.0983   -0.7968   -3.5616 H   0  0  0  0  0  0  0  0  0  0  0  0
   -1.5435   -1.7206   -2.1559 H   0  0  0  0  0  0  0  0  0  0  0  0
  1  2  1  0
  1  5  1  0
  1  6  1  0
  2  3  1  0
  2  7  1  0
  2  8  1  0
  3  9  1  0
  3 10  1  0
  3 11  1  0
  4 12  1  0
 12 13  1  0
 12 17  1  0
 12 18  1  0
 13 14  1  0
 13 19  1  0
 13 20  1  0
 14 15  1  0
 15 16  1  0
 15 21  1  0
 15 22  1  0
 16 23  1  0
 16 24  1  0
 16 25  1  0
M  RAD  1   1   2
M  END
>  <reaction>  (8) 
rmg_rxn_652

>  <mol_properties>  (8) 
{"0": {"label": "*1", "atom_type": "Cs"}, "1": {"label": "*0", "atom_type": "Cs"}, "3": {"label": "*2", "atom_type": "H0"}, "11": {"label": "*3", "atom_type": "Cs"}, "12": {"label": "*4", "atom_type": "Cs"}}

>  <type>  (8) 
unop_4

>  <geom_source>  (8) 
Heuristics

$$$$

     RDKit          3D

 25 23  0  0  0  0  0  0  0  0999 V2000
    0.6968   -1.8620    0.6367 C   0  0  0  0  0  3  0  0  0  0  0  0
    0.6968   -3.2678    0.0500 C   0  0  0  0  0  0  0  0  0  0  0  0
    0.6968   -3.2678   -1.4733 C   0  0  0  0  0  0  0  0  0  0  0  0
   -0.3610   -1.1917    0.2477 H   0  0  0  0  0  0  0  0  0  0  0  0
    1.5782   -1.3035    0.3126 H   0  0  0  0  0  0  0  0  0  0  0  0
    0.6968   -1.8827    1.7278 H   0  0  0  0  0  0  0  0  0  0  0  0
   -0.1778   -3.8142    0.4140 H   0  0  0  0  0  0  0  0  0  0  0  0
    1.5713   -3.8142    0.4140 H   0  0  0  0  0  0  0  0  0  0  0  0
    1.5782   -2.7536   -1.8640 H   0  0  0  0  0  0  0  0  0  0  0  0
    0.6968   -4.2827   -1.8745 H   0  0  0  0  0  0  0  0  0  0  0  0
   -0.1847   -2.7536   -1.8640 H   0  0  0  0  0  0  0  0  0  0  0  0
   -1.4166   -0.5228   -0.1405 C   0  0  0  0  0  0  0  0  0  0  0  0
   -1.4067    0.8695    0.4469 C   0  0  0  0  0  0  0  0  0  0  0  0
   -0.2494    1.5393    0.0143 O   0  0  0  0  0  0  0  0  0  0  0  0
   -0.1496    2.8501    0.5113 C   0  0  0  0  0  0  0  0  0  0  0  0
    1.1223    3.4774   -0.0105 C   0  0  0  0  0  0  0  0  0  0  0  0
   -1.4137   -0.4779   -1.2301 H   0  0  0  0  0  0  0  0  0  0  0  0
   -2.3080   -1.0629    0.1824 H   0  0  0  0  0  0  0  0  0  0  0  0
   -1.4246    0.8231    1.5459 H   0  0  0  0  0  0  0  0  0  0  0  0
   -2.3019    1.4259    0.1320 H   0  0  0  0  0  0  0  0  0  0  0  0
   -1.0250    3.4379    0.1973 H   0  0  0  0  0  0  0  0  0  0  0  0
   -0.1476    2.8351    1.6113 H   0  0  0  0  0  0  0  0  0  0  0  0
    1.1149    3.5062   -1.1006 H   0  0  0  0  0  0  0  0  0  0  0  0
    1.2213    4.4978    0.3630 H   0  0  0  0  0  0  0  0  0  0  0  0
    1.9917    2.9038    0.3125 H   0  0  0  0  0  0  0  0  0  0  0  0
  1  2  1  0
  1  5  1  0
  1  6  1  0
  2  3  1  0
  2  7  1  0
  2  8  1  0
  3  9  1  0
  3 10  1  0
  3 11  1  0
  4 12  1  0
 12 13  1  0
 12 17  1  0
 12 18  1  0
 13 14  1  0
 13 19  1  0
 13 20  1  0
 14 15  1  0
 15 16  1  0
 15 21  1  0
 15 22  1  0
 16 23  1  0
 16 24  1  0
 16 25  1  0
M  RAD  1   1   2
M  END
>  <reaction>  (9) 
rmg_rxn_652

>  <mol_properties>  (9) 
{"0": {"label": "*1", "atom_type": "Cs"}, "1": {"label": "*0", "atom_type": "Cs"}, "3": {"label": "*2", "atom_type": "H0"}, "11": {"label": "*3", "atom_type": "Cs"}, "12": {"label": "*4", "atom_type": "Cs"}}

>  <type>  (9) 
unop_5

>  <geom_source>  (9) 
Heuristics

$$$$

     RDKit          3D

 25 23  0  0  0  0  0  0  0  0999 V2000
    1.3949   -0.6355    2.3379 C   0  0  0  0  0  3  0  0  0  0  0  0
    1.3949   -2.0413    1.7512 C   0  0  0  0  0  0  0  0  0  0  0  0
    1.3949   -2.0413    0.2278 C   0  0  0  0  0  0  0  0  0  0  0  0
    0.3371    0.0348    1.9489 H   0  0  0  0  0  0  0  0  0  0  0  0
    2.2763   -0.0769    2.0137 H   0  0  0  0  0  0  0  0  0  0  0  0
    1.3949   -0.6562    3.4290 H   0  0  0  0  0  0  0  0  0  0  0  0
    0.5203   -2.5876    2.1152 H   0  0  0  0  0  0  0  0  0  0  0  0
    2.2694   -2.5876    2.1152 H   0  0  0  0  0  0  0  0  0  0  0  0
    2.2763   -1.5270   -0.1628 H   0  0  0  0  0  0  0  0  0  0  0  0
    1.3949   -3.0562   -0.1733 H   0  0  0  0  0  0  0  0  0  0  0  0
    0.5134   -1.5270   -0.1628 H   0  0  0  0  0  0  0  0  0  0  0  0
   -0.7185    0.7038    1.5607 C   0  0  0  0  0  0  0  0  0  0  0  0
   -0.4324    1.4453    0.2755 C   0  0  0  0  0  0  0  0  0  0  0  0
   -0.9489    0.7064   -0.8027 O   0  0  0  0  0  0  0  0  0  0  0  0
   -0.7307    1.3186   -2.0487 C   0  0  0  0  0  0  0  0  0  0  0  0
   -1.3212    0.4479   -3.1336 C   0  0  0  0  0  0  0  0  0  0  0  0
   -1.7928    0.5742    1.6960 H   0  0  0  0  0  0  0  0  0  0  0  0
   -0.3257    1.2598    2.4134 H   0  0  0  0  0  0  0  0  0  0  0  0
    0.6509    1.5884    0.1473 H   0  0  0  0  0  0  0  0  0  0  0  0
   -0.8903    2.4452    0.2985 H   0  0  0  0  0  0  0  0  0  0  0  0
   -1.1935    2.3165   -2.0625 H   0  0  0  0  0  0  0  0  0  0  0  0
    0.3477    1.4597   -2.2137 H   0  0  0  0  0  0  0  0  0  0  0  0
   -2.3931    0.3193   -2.9792 H   0  0  0  0  0  0  0  0  0  0  0  0
   -1.1635    0.9041   -4.1121 H   0  0  0  0  0  0  0  0  0  0  0  0
   -0.8528   -0.5370   -3.1303 H   0  0  0  0  0  0  0  0  0  0  0  0
  1  2  1  0
  1  5  1  0
  1  6  1  0
  2  3  1  0
  2  7  1  0
  2  8  1  0
  3  9  1  0
  3 10  1  0
  3 11  1  0
  4 12  1  0
 12 13  1  0
 12 17  1  0
 12 18  1  0
 13 14  1  0
 13 19  1  0
 13 20  1  0
 14 15  1  0
 15 16  1  0
 15 21  1  0
 15 22  1  0
 16 23  1  0
 16 24  1  0
 16 25  1  0
M  RAD  1   1   2
M  END
>  <reaction>  (10) 
rmg_rxn_652

>  <mol_properties>  (10) 
{"0": {"label": "*1", "atom_type": "Cs"}, "1": {"label": "*0", "atom_type": "Cs"}, "3": {"label": "*2", "atom_type": "H0"}, "11": {"label": "*3", "atom_type": "Cs"}, "12": {"label": "*4", "atom_type": "Cs"}}

>  <type>  (10) 
unop_6

>  <geom_source>  (10) 
Heuristics

$$$$

     RDKit          3D

 25 23  0  0  0  0  0  0  0  0999 V2000
    1.0869   -1.2554    2.1182 C   0  0  0  0  0  3  0  0  0  0  0  0
    1.0869   -2.6613    1.5315 C   0  0  0  0  0  0  0  0  0  0  0  0
    1.0869   -2.6613    0.0081 C   0  0  0  0  0  0  0  0  0  0  0  0
    0.0292   -0.5852    1.7292 H   0  0  0  0  0  0  0  0  0  0  0  0
    1.9684   -0.6969    1.7941 H   0  0  0  0  0  0  0  0  0  0  0  0
    1.0869   -1.2761    3.2093 H   0  0  0  0  0  0  0  0  0  0  0  0
    0.2124   -3.2076    1.8955 H   0  0  0  0  0  0  0  0  0  0  0  0
    1.9615   -3.2076    1.8955 H   0  0  0  0  0  0  0  0  0  0  0  0
    1.9684   -2.1470   -0.3825 H   0  0  0  0  0  0  0  0  0  0  0  0
    1.0869   -3.6762   -0.3930 H   0  0  0  0  0  0  0  0  0  0  0  0
    0.2055   -2.1470   -0.3825 H   0  0  0  0  0  0  0  0  0  0  0  0
   -1.0265    0.0838    1.3410 C   0  0  0  0  0  0  0  0  0  0  0  0
   -0.6173    1.3230    0.5791 C   0  0  0  0  0  0  0  0  0  0  0  0
   -0.7247    1.0681   -0.7987 O   0  0  0  0  0  0  0  0  0  0  0  0
   -0.3634    2.1681   -1.5953 C   0  0  0  0  0  0  0  0  0  0  0  0
   -0.5135    1.7905   -3.0509 C   0  0  0  0  0  0  0  0  0  0  0  0
   -2.0561   -0.1873    1.1051 H   0  0  0  0  0  0  0  0  0  0  0  0
   -0.9509    0.2585    2.4154 H   0  0  0  0  0  0  0  0  0  0  0  0
    0.4165    1.6041    0.8292 H   0  0  0  0  0  0  0  0  0  0  0  0
   -1.2593    2.1729    0.8545 H   0  0  0  0  0  0  0  0  0  0  0  0
   -1.0013    3.0314   -1.3544 H   0  0  0  0  0  0  0  0  0  0  0  0
    0.6745    2.4626   -1.3797 H   0  0  0  0  0  0  0  0  0  0  0  0
   -1.5452    1.5125   -3.2690 H   0  0  0  0  0  0  0  0  0  0  0  0
   -0.2379    2.6310   -3.6897 H   0  0  0  0  0  0  0  0  0  0  0  0
    0.1295    0.9441   -3.2943 H   0  0  0  0  0  0  0  0  0  0  0  0
  1  2  1  0
  1  5  1  0
  1  6  1  0
  2  3  1  0
  2  7  1  0
  2  8  1  0
  3  9  1  0
  3 10  1  0
  3 11  1  0
  4 12  1  0
 12 13  1  0
 12 17  1  0
 12 18  1  0
 13 14  1  0
 13 19  1  0
 13 20  1  0
 14 15  1  0
 15 16  1  0
 15 21  1  0
 15 22  1  0
 16 23  1  0
 16 24  1  0
 16 25  1  0
M  RAD  1   1   2
M  END
>  <reaction>  (11) 
rmg_rxn_652

>  <mol_properties>  (11) 
{"0": {"label": "*1", "atom_type": "Cs"}, "1": {"label": "*0", "atom_type": "Cs"}, "3": {"label": "*2", "atom_type": "H0"}, "11": {"label": "*3", "atom_type": "Cs"}, "12": {"label": "*4", "atom_type": "Cs"}}

>  <type>  (11) 
unop_7

>  <geom_source>  (11) 
Heuristics

$$$$

     RDKit          3D

 25 23  0  0  0  0  0  0  0  0999 V2000
    1.8701   -0.1211   -0.5429 C   0  0  0  0  0  3  0  0  0  0  0  0
    1.8701   -1.5269   -1.1296 C   0  0  0  0  0  0  0  0  0  0  0  0
    1.8701   -1.5269   -2.6530 C   0  0  0  0  0  0  0  0  0  0  0  0
    0.8123    0.5492   -0.9319 H   0  0  0  0  0  0  0  0  0  0  0  0
    2.7515    0.4375   -0.8671 H   0  0  0  0  0  0  0  0  0  0  0  0
    1.8701   -0.1417    0.5482 H   0  0  0  0  0  0  0  0  0  0  0  0
    0.9955   -2.0732   -0.7656 H   0  0  0  0  0  0  0  0  0  0  0  0
    2.7446   -2.0732   -0.7656 H   0  0  0  0  0  0  0  0  0  0  0  0
    2.7515   -1.0126   -3.0436 H   0  0  0  0  0  0  0  0  0  0  0  0
    1.8701   -2.5418   -3.0541 H   0  0  0  0  0  0  0  0  0  0  0  0
    0.9886   -1.0126   -3.0436 H   0  0  0  0  0  0  0  0  0  0  0  0
   -0.2433    1.2182   -1.3201 C   0  0  0  0  0  0  0  0  0  0  0  0
   -1.3836    1.0180   -0.3489 C   0  0  0  0  0  0  0  0  0  0  0  0
   -0.8631    0.5911    0.8847 O   0  0  0  0  0  0  0  0  0  0  0  0
   -1.8529    0.3767    1.8591 C   0  0  0  0  0  0  0  0  0  0  0  0
   -1.1910   -0.0770    3.1396 C   0  0  0  0  0  0  0  0  0  0  0  0
    0.4514    1.9699   -0.9439 H   0  0  0  0  0  0  0  0  0  0  0  0
   -0.6242    1.5504   -2.2871 H   0  0  0  0  0  0  0  0  0  0  0  0
   -2.0916    0.2702   -0.7363 H   0  0  0  0  0  0  0  0  0  0  0  0
   -1.9439    1.9553   -0.2156 H   0  0  0  0  0  0  0  0  0  0  0  0
   -2.4206    1.3039    2.0275 H   0  0  0  0  0  0  0  0  0  0  0  0
   -2.5682   -0.3812    1.5068 H   0  0  0  0  0  0  0  0  0  0  0  0
   -0.4925    0.6801    3.4977 H   0  0  0  0  0  0  0  0  0  0  0  0
   -1.9417   -0.2500    3.9124 H   0  0  0  0  0  0  0  0  0  0  0  0
   -0.6400   -1.0040    2.9773 H   0  0  0  0  0  0  0  0  0  0  0  0
  1  2  1  0
  1  5  1  0
  1  6  1  0
  2  3  1  0
  2  7  1  0
  2  8  1  0
  3  9  1  0
  3 10  1  0
  3 11  1  0
  4 12  1  0
 12 13  1  0
 12 17  1  0
 12 18  1  0
 13 14  1  0
 13 19  1  0
 13 20  1  0
 14 15  1  0
 15 16  1  0
 15 21  1  0
 15 22  1  0
 16 23  1  0
 16 24  1  0
 16 25  1  0
M  RAD  1   1   2
M  END
>  <reaction>  (12) 
rmg_rxn_652

>  <mol_properties>  (12) 
{"0": {"label": "*1", "atom_type": "Cs"}, "1": {"label": "*0", "atom_type": "Cs"}, "3": {"label": "*2", "atom_type": "H0"}, "11": {"label": "*3", "atom_type": "Cs"}, "12": {"label": "*4", "atom_type": "Cs"}}

>  <type>  (12) 
unop_8

>  <geom_source>  (12) 
Heuristics

$$$$

     RDKit          3D

 25 23  0  0  0  0  0  0  0  0999 V2000
    2.0268    0.4955    1.7456 C   0  0  0  0  0  3  0  0  0  0  0  0
    2.0268   -0.9103    1.1589 C   0  0  0  0  0  0  0  0  0  0  0  0
    2.0268   -0.9103   -0.3644 C   0  0  0  0  0  0  0  0  0  0  0  0
    0.9690    1.1658    1.3566 H   0  0  0  0  0  0  0  0  0  0  0  0
    2.9082    1.0541    1.4215 H   0  0  0  0  0  0  0  0  0  0  0  0
    2.0268    0.4749    2.8367 H   0  0  0  0  0  0  0  0  0  0  0  0
    1.1522   -1.4566    1.5229 H   0  0  0  0  0  0  0  0  0  0  0  0
    2.9013   -1.4566    1.5229 H   0  0  0  0  0  0  0  0  0  0  0  0
    2.9082   -0.3960   -0.7551 H   0  0  0  0  0  0  0  0  0  0  0  0
    2.0268   -1.9252   -0.7656 H   0  0  0  0  0  0  0  0  0  0  0  0
    1.1453   -0.3960   -0.7551 H   0  0  0  0  0  0  0  0  0  0  0  0
   -0.0866    1.8348    0.9684 C   0  0  0  0  0  0  0  0  0  0  0  0
   -0.5356    1.3695   -0.3974 C   0  0  0  0  0  0  0  0  0  0  0  0
   -1.2337    0.1575   -0.2602 O   0  0  0  0  0  0  0  0  0  0  0  0
   -1.6942   -0.3580   -1.4838 C   0  0  0  0  0  0  0  0  0  0  0  0
   -2.4268   -1.6543   -1.2258 C   0  0  0  0  0  0  0  0  0  0  0  0
   -0.9463    1.9875    1.6217 H   0  0  0  0  0  0  0  0  0  0  0  0
    0.4589    2.7762    0.8866 H   0  0  0  0  0  0  0  0  0  0  0  0
    0.3314    1.2300   -1.0601 H   0  0  0  0  0  0  0  0  0  0  0  0
   -1.1834    2.1245   -0.8669 H   0  0  0  0  0  0  0  0  0  0  0  0
   -2.3604    0.3697   -1.9705 H   0  0  0  0  0  0  0  0  0  0  0  0
   -0.8456   -0.5249   -2.1637 H   0  0  0  0  0  0  0  0  0  0  0  0
   -3.2770   -1.4874   -0.5636 H   0  0  0  0  0  0  0  0  0  0  0  0
   -2.7942   -2.0740   -2.1636 H   0  0  0  0  0  0  0  0  0  0  0  0
   -1.7631   -2.3814   -0.7567 H   0  0  0  0  0  0  0  0  0  0  0  0
  1  2  1  0
  1  5  1  0
  1  6  1  0
  2  3  1  0
  2  7  1  0
  2  8  1  0
  3  9  1  0
  3 10  1  0
  3 11  1  0
  4 12  1  0
 12 13  1  0
 12 17  1  0
 12 18  1  0
 13 14  1  0
 13 19  1  0
 13 20  1  0
 14 15  1  0
 15 16  1  0
 15 21  1  0
 15 22  1  0
 16 23  1  0
 16 24  1  0
 16 25  1  0
M  RAD  1   1   2
M  END
>  <reaction>  (13) 
rmg_rxn_652

>  <mol_properties>  (13) 
{"0": {"label": "*1", "atom_type": "Cs"}, "1": {"label": "*0", "atom_type": "Cs"}, "3": {"label": "*2", "atom_type": "H0"}, "11": {"label": "*3", "atom_type": "Cs"}, "12": {"label": "*4", "atom_type": "Cs"}}

>  <type>  (13) 
unop_9

>  <geom_source>  (13) 
Heuristics

$$$$

     RDKit          3D

 25 23  0  0  0  0  0  0  0  0999 V2000
    2.0960    0.4018   -0.1318 C   0  0  0  0  0  3  0  0  0  0  0  0
    2.0960   -1.0040   -0.7185 C   0  0  0  0  0  0  0  0  0  0  0  0
    2.0960   -1.0040   -2.2418 C   0  0  0  0  0  0  0  0  0  0  0  0
    1.0383    1.0721   -0.5208 H   0  0  0  0  0  0  0  0  0  0  0  0
    2.9775    0.9604   -0.4559 H   0  0  0  0  0  0  0  0  0  0  0  0
    2.0960    0.3811    0.9593 H   0  0  0  0  0  0  0  0  0  0  0  0
    1.2215   -1.5503   -0.3545 H   0  0  0  0  0  0  0  0  0  0  0  0
    2.9706   -1.5503   -0.3545 H   0  0  0  0  0  0  0  0  0  0  0  0
    2.9775   -0.4897   -2.6325 H   0  0  0  0  0  0  0  0  0  0  0  0
    2.0960   -2.0189   -2.6430 H   0  0  0  0  0  0  0  0  0  0  0  0
    1.2146   -0.4897   -2.6325 H   0  0  0  0  0  0  0  0  0  0  0  0
   -0.0173    1.7411   -0.9089 C   0  0  0  0  0  0  0  0  0  0  0  0
   -1.2806    1.0431   -0.4612 C   0  0  0  0  0  0  0  0  0  0  0  0
   -1.0104    0.3181    0.7121 O   0  0  0  0  0  0  0  0  0  0  0  0
   -2.1309   -0.3695    1.2087 C   0  0  0  0  0  0  0  0  0  0  0  0
   -1.7347   -1.1120    2.4638 C   0  0  0  0  0  0  0  0  0  0  0  0
    0.3351    2.4258   -0.1368 H   0  0  0  0  0  0  0  0  0  0  0  0
   -0.2034    2.3115   -1.8203 H   0  0  0  0  0  0  0  0  0  0  0  0
   -1.6435    0.3638   -1.2467 H   0  0  0  0  0  0  0  0  0  0  0  0
   -2.0790    1.7764   -0.2735 H   0  0  0  0  0  0  0  0  0  0  0  0
   -2.9427    0.3414    1.4229 H   0  0  0  0  0  0  0  0  0  0  0  0
   -2.5072   -1.0712    0.4497 H   0  0  0  0  0  0  0  0  0  0  0  0
   -1.3753   -0.4157    3.2223 H   0  0  0  0  0  0  0  0  0  0  0  0
   -2.5907   -1.6545    2.8683 H   0  0  0  0  0  0  0  0  0  0  0  0
   -0.9400   -1.8275    2.2497 H   0  0  0  0  0  0  0  0  0  0  0  0
  1  2  1  0
  1  5  1  0
  1  6  1  0
  2  3  1  0
  2  7  1  0
  2  8  1  0
  3  9  1  0
  3 10  1  0
  3 11  1  0
  4 12  1  0
 12 13  1  0
 12 17  1  0
 12 18  1  0
 13 14  1  0
 13 19  1  0
 13 20  1  0
 14 15  1  0
 15 16  1  0
 15 21  1  0
 15 22  1  0
 16 23  1  0
 16 24  1  0
 16 25  1  0
M  RAD  1   1   2
M  END
>  <reaction>  (14) 
rmg_rxn_652

>  <mol_properties>  (14) 
{"0": {"label": "*1", "atom_type": "Cs"}, "1": {"label": "*0", "atom_type": "Cs"}, "3": {"label": "*2", "atom_type": "H0"}, "11": {"label": "*3", "atom_type": "Cs"}, "12": {"label": "*4", "atom_type": "Cs"}}

>  <type>  (14) 
unop_10

>  <geom_source>  (14) 
Heuristics

$$$$

     RDKit          3D

 25 23  0  0  0  0  0  0  0  0999 V2000
    0.8343   -1.7227    1.5692 C   0  0  0  0  0  3  0  0  0  0  0  0
    0.8343   -3.1285    0.9824 C   0  0  0  0  0  0  0  0  0  0  0  0
    0.8343   -3.1285   -0.5409 C   0  0  0  0  0  0  0  0  0  0  0  0
   -0.2235   -1.0524    1.1802 H   0  0  0  0  0  0  0  0  0  0  0  0
    1.7157   -1.1642    1.2450 H   0  0  0  0  0  0  0  0  0  0  0  0
    0.8343   -1.7434    2.6603 H   0  0  0  0  0  0  0  0  0  0  0  0
   -0.0403   -3.6749    1.3465 H   0  0  0  0  0  0  0  0  0  0  0  0
    1.7088   -3.6749    1.3465 H   0  0  0  0  0  0  0  0  0  0  0  0
    1.7157   -2.6143   -0.9315 H   0  0  0  0  0  0  0  0  0  0  0  0
    0.8343   -4.1434   -0.9420 H   0  0  0  0  0  0  0  0  0  0  0  0
   -0.0472   -2.6143   -0.9315 H   0  0  0  0  0  0  0  0  0  0  0  0
   -1.2791   -0.3835    0.7920 C   0  0  0  0  0  0  0  0  0  0  0  0
   -0.9711    1.0940    0.7155 C   0  0  0  0  0  0  0  0  0  0  0  0
   -0.4694    1.3902   -0.5634 O   0  0  0  0  0  0  0  0  0  0  0  0
   -0.1517    2.7486   -0.7328 C   0  0  0  0  0  0  0  0  0  0  0  0
    0.3758    2.9585   -2.1332 C   0  0  0  0  0  0  0  0  0  0  0  0
   -2.0219   -0.6582    0.0423 H   0  0  0  0  0  0  0  0  0  0  0  0
   -1.6708   -0.6374    1.7782 H   0  0  0  0  0  0  0  0  0  0  0  0
   -0.2327    1.3728    1.4819 H   0  0  0  0  0  0  0  0  0  0  0  0
   -1.8778    1.6861    0.9093 H   0  0  0  0  0  0  0  0  0  0  0  0
   -1.0454    3.3670   -0.5620 H   0  0  0  0  0  0  0  0  0  0  0  0
    0.5996    3.0537    0.0107 H   0  0  0  0  0  0  0  0  0  0  0  0
   -0.3738    2.6702   -2.8711 H   0  0  0  0  0  0  0  0  0  0  0  0
    0.6296    4.0083   -2.2882 H   0  0  0  0  0  0  0  0  0  0  0  0
    1.2703    2.3571   -2.2987 H   0  0  0  0  0  0  0  0  0  0  0  0
  1  2  1  0
  1  5  1  0
  1  6  1  0
  2  3  1  0
  2  7  1  0
  2  8  1  0
  3  9  1  0
  3 10  1  0
  3 11  1  0
  4 12  1  0
 12 13  1  0
 12 17  1  0
 12 18  1  0
 13 14  1  0
 13 19  1  0
 13 20  1  0
 14 15  1  0
 15 16  1  0
 15 21  1  0
 15 22  1  0
 16 23  1  0
 16 24  1  0
 16 25  1  0
M  RAD  1   1   2
M  END
>  <reaction>  (15) 
rmg_rxn_652

>  <mol_properties>  (15) 
{"0": {"label": "*1", "atom_type": "Cs"}, "1": {"label": "*0", "atom_type": "Cs"}, "3": {"label": "*2", "atom_type": "H0"}, "11": {"label": "*3", "atom_type": "Cs"}, "12": {"label": "*4", "atom_type": "Cs"}}

>  <type>  (15) 
unop_11

>  <geom_source>  (15) 
Heuristics

$$$$

     RDKit          3D

 25 23  0  0  0  0  0  0  0  0999 V2000
    2.1745    0.7393    1.1010 C   0  0  0  0  0  3  0  0  0  0  0  0
    2.1745   -0.6665    0.5143 C   0  0  0  0  0  0  0  0  0  0  0  0
    2.1745   -0.6665   -1.0090 C   0  0  0  0  0  0  0  0  0  0  0  0
    1.1167    1.4096    0.7121 H   0  0  0  0  0  0  0  0  0  0  0  0
    3.0559    1.2979    0.7769 H   0  0  0  0  0  0  0  0  0  0  0  0
    2.1745    0.7187    2.1922 H   0  0  0  0  0  0  0  0  0  0  0  0
    1.2999   -1.2128    0.8783 H   0  0  0  0  0  0  0  0  0  0  0  0
    3.0490   -1.2128    0.8783 H   0  0  0  0  0  0  0  0  0  0  0  0
    3.0559   -0.1522   -1.3996 H   0  0  0  0  0  0  0  0  0  0  0  0
    2.1745   -1.6814   -1.4102 H   0  0  0  0  0  0  0  0  0  0  0  0
    1.2930   -0.1522   -1.3996 H   0  0  0  0  0  0  0  0  0  0  0  0
    0.0611    2.0786    0.3239 C   0  0  0  0  0  0  0  0  0  0  0  0
   -0.8030    1.2276   -0.5776 C   0  0  0  0  0  0  0  0  0  0  0  0
   -1.2136    0.0846    0.1296 O   0  0  0  0  0  0  0  0  0  0  0  0
   -2.0267   -0.7741   -0.6297 C   0  0  0  0  0  0  0  0  0  0  0  0
   -2.4104   -1.9644    0.2187 C   0  0  0  0  0  0  0  0  0  0  0  0
   -0.4966    2.3852    1.2095 H   0  0  0  0  0  0  0  0  0  0  0  0
    0.3923    2.9736   -0.2050 H   0  0  0  0  0  0  0  0  0  0  0  0
   -0.2443    0.9312   -1.4777 H   0  0  0  0  0  0  0  0  0  0  0  0
   -1.6825    1.7958   -0.9153 H   0  0  0  0  0  0  0  0  0  0  0  0
   -2.9255   -0.2377   -0.9682 H   0  0  0  0  0  0  0  0  0  0  0  0
   -1.4873   -1.1022   -1.5306 H   0  0  0  0  0  0  0  0  0  0  0  0
   -2.9581   -1.6414    1.1047 H   0  0  0  0  0  0  0  0  0  0  0  0
   -3.0433   -2.6464   -0.3512 H   0  0  0  0  0  0  0  0  0  0  0  0
   -1.5207   -2.5054    0.5426 H   0  0  0  0  0  0  0  0  0  0  0  0
  1  2  1  0
  1  5  1  0
  1  6  1  0
  2  3  1  0
  2  7  1  0
  2  8  1  0
  3  9  1  0
  3 10  1  0
  3 11  1  0
  4 12  1  0
 12 13  1  0
 12 17  1  0
 12 18  1  0
 13 14  1  0
 13 19  1  0
 13 20  1  0
 14 15  1  0
 15 16  1  0
 15 21  1  0
 15 22  1  0
 16 23  1  0
 16 24  1  0
 16 25  1  0
M  RAD  1   1   2
M  END
>  <reaction>  (16) 
rmg_rxn_652

>  <mol_properties>  (16) 
{"0": {"label": "*1", "atom_type": "Cs"}, "1": {"label": "*0", "atom_type": "Cs"}, "3": {"label": "*2", "atom_type": "H0"}, "11": {"label": "*3", "atom_type": "Cs"}, "12": {"label": "*4", "atom_type": "Cs"}}

>  <type>  (16) 
unop_12

>  <geom_source>  (16) 
Heuristics

$$$$

     RDKit          3D

 25 23  0  0  0  0  0  0  0  0999 V2000
   -1.8300    0.0445    0.1430 O   0  0  0  0  0  0  0  0  0  0  0  0
    3.2177   -0.0904   -0.2366 C   0  0  0  0  0  0  0  0  0  0  0  0
   -1.2414    0.4305   -1.0801 C   0  0  0  0  0  0  0  0  0  0  0  0
   -3.1738   -0.3264   -0.0789 C   0  0  0  0  0  0  0  0  0  0  0  0
    3.3732    0.8041    0.9873 C   0  0  0  0  0  0  0  0  0  0  0  0
    0.2046    0.8269   -0.8318 C   0  0  0  0  0  0  0  0  0  0  0  0
   -3.8016   -0.7417    1.2426 C   0  0  0  0  0  0  0  0  0  0  0  0
    1.9668   -0.9502   -0.1209 C   0  0  0  0  0  3  0  0  0  0  0  0
    3.1393    0.5443   -1.1450 H   0  0  0  0  0  0  0  0  0  0  0  0
    4.1105   -0.7447   -0.3360 H   0  0  0  0  0  0  0  0  0  0  0  0
   -1.2483   -0.4137   -1.8066 H   0  0  0  0  0  0  0  0  0  0  0  0
   -1.7732    1.3057   -1.5186 H   0  0  0  0  0  0  0  0  0  0  0  0
   -3.2361   -1.1896   -0.7804 H   0  0  0  0  0  0  0  0  0  0  0  0
   -3.7586    0.5289   -0.4885 H   0  0  0  0  0  0  0  0  0  0  0  0
    0.6829    1.1260   -1.7883 H   0  0  0  0  0  0  0  0  0  0  0  0
    0.2489    1.6809   -0.1230 H   0  0  0  0  0  0  0  0  0  0  0  0
    0.8696   -0.2025   -0.3184 H   0  0  0  0  0  0  0  0  0  0  0  0
   -3.7693    0.1045    1.9614 H   0  0  0  0  0  0  0  0  0  0  0  0
   -3.2495   -1.6051    1.6710 H   0  0  0  0  0  0  0  0  0  0  0  0
   -4.8600   -1.0359    1.0799 H   0  0  0  0  0  0  0  0  0  0  0  0
    3.4800    0.1873    1.9052 H   0  0  0  0  0  0  0  0  0  0  0  0
    4.2812    1.4333    0.8748 H   0  0  0  0  0  0  0  0  0  0  0  0
    2.4895    1.4692    1.0926 H   0  0  0  0  0  0  0  0  0  0  0  0
    2.0497   -1.6421    0.7444 H   0  0  0  0  0  0  0  0  0  0  0  0
    1.8279   -1.5438   -1.0489 H   0  0  0  0  0  0  0  0  0  0  0  0
  1  3  1  0
  1  4  1  0
  2  8  1  0
  2  5  1  0
  2  9  1  0
  2 10  1  0
  3  6  1  0
  3 11  1  0
  3 12  1  0
  4  7  1  0
  4 13  1  0
  4 14  1  0
  5 21  1  0
  5 22  1  0
  5 23  1  0
  6 15  1  0
  6 16  1  0
  6 17  1  0
  7 18  1  0
  7 19  1  0
  7 20  1  0
  8 24  1  0
  8 25  1  0
M  RAD  1   8   2
M  END
>  <reaction>  (17) 
rmg_rxn_652

>  <mol_properties>  (17) 
{"0": {"label": "*1", "atom_type": "Cs"}, "1": {"label": "*0", "atom_type": "Cs"}, "3": {"label": "*2", "atom_type": "H0"}, "11": {"label": "*3", "atom_type": "Cs"}, "12": {"label": "*4", "atom_type": "Cs"}}

>  <type>  (17) 
unop_13

>  <geom_source>  (17) 
AutoTST

$$$$

     RDKit          3D

 25 23  0  0  0  0  0  0  0  0999 V2000
    2.1879    0.7006    0.4441 C   0  0  0  0  0  3  0  0  0  0  0  0
    2.1879   -0.7053   -0.1426 C   0  0  0  0  0  0  0  0  0  0  0  0
    2.1879   -0.7053   -1.6660 C   0  0  0  0  0  0  0  0  0  0  0  0
    1.1301    1.3708    0.0551 H   0  0  0  0  0  0  0  0  0  0  0  0
    3.0693    1.2591    0.1199 H   0  0  0  0  0  0  0  0  0  0  0  0
    2.1879    0.6799    1.5352 H   0  0  0  0  0  0  0  0  0  0  0  0
    1.3133   -1.2516    0.2213 H   0  0  0  0  0  0  0  0  0  0  0  0
    3.0624   -1.2516    0.2213 H   0  0  0  0  0  0  0  0  0  0  0  0
    3.0693   -0.1910   -2.0566 H   0  0  0  0  0  0  0  0  0  0  0  0
    2.1879   -1.7202   -2.0671 H   0  0  0  0  0  0  0  0  0  0  0  0
    1.3064   -0.1910   -2.0566 H   0  0  0  0  0  0  0  0  0  0  0  0
    0.0745    2.0398   -0.3331 C   0  0  0  0  0  0  0  0  0  0  0  0
   -1.0877    1.1036   -0.5707 C   0  0  0  0  0  0  0  0  0  0  0  0
   -1.1214    0.1472    0.4584 O   0  0  0  0  0  0  0  0  0  0  0  0
   -2.1744   -0.7739    0.3244 C   0  0  0  0  0  0  0  0  0  0  0  0
   -2.1203   -1.7522    1.4748 C   0  0  0  0  0  0  0  0  0  0  0  0
   -0.0339    2.5477    0.6258 H   0  0  0  0  0  0  0  0  0  0  0  0
    0.1207    2.7927   -1.1215 H   0  0  0  0  0  0  0  0  0  0  0  0
   -0.9850    0.6029   -1.5449 H   0  0  0  0  0  0  0  0  0  0  0  0
   -2.0342    1.6639   -0.5932 H   0  0  0  0  0  0  0  0  0  0  0  0
   -3.1381   -0.2433    0.3160 H   0  0  0  0  0  0  0  0  0  0  0  0
   -2.0888   -1.3043   -0.6357 H   0  0  0  0  0  0  0  0  0  0  0  0
   -2.2198   -1.2290    2.4264 H   0  0  0  0  0  0  0  0  0  0  0  0
   -2.9302   -2.4786    1.3916 H   0  0  0  0  0  0  0  0  0  0  0  0
   -1.1712   -2.2893    1.4752 H   0  0  0  0  0  0  0  0  0  0  0  0
  1  2  1  0
  1  5  1  0
  1  6  1  0
  2  3  1  0
  2  7  1  0
  2  8  1  0
  3  9  1  0
  3 10  1  0
  3 11  1  0
  4 12  1  0
 12 13  1  0
 12 17  1  0
 12 18  1  0
 13 14  1  0
 13 19  1  0
 13 20  1  0
 14 15  1  0
 15 16  1  0
 15 21  1  0
 15 22  1  0
 16 23  1  0
 16 24  1  0
 16 25  1  0
M  RAD  1   1   2
M  END
>  <reaction>  (18) 
rmg_rxn_652

>  <mol_properties>  (18) 
{"0": {"label": "*1", "atom_type": "Cs"}, "1": {"label": "*0", "atom_type": "Cs"}, "3": {"label": "*2", "atom_type": "H0"}, "11": {"label": "*3", "atom_type": "Cs"}, "12": {"label": "*4", "atom_type": "Cs"}}

>  <type>  (18) 
unop_14

>  <geom_source>  (18) 
gaussian_log

$$$$
