
     RDKit          3D

  6  5  0  0  0  0  0  0  0  0999 V2000
   -0.4901    0.0045    0.0014 C   0  0  0  0  0  0  0  0  0  0  0  0
    0.9645   -0.0089   -0.0027 C   0  0  0  0  0  0  0  0  0  0  0  0
    2.1108   -0.0195   -0.0059 N   0  0  0  0  0  0  0  0  0  0  0  0
   -0.8700   -0.6407   -0.7900 H   0  0  0  0  0  0  0  0  0  0  0  0
   -0.8625   -0.3540    0.9604 H   0  0  0  0  0  0  0  0  0  0  0  0
   -0.8530    1.0185   -0.1631 H   0  0  0  0  0  0  0  0  0  0  0  0
  1  2  1  0
  1  4  1  0
  1  5  1  0
  1  6  1  0
  2  3  3  0
M  END
>  <reaction>  (1) 
rmg_rxn_97

>  <mol_properties>  (1) 
{"0": {"label": "donator", "atom_type": "Cs"}, "3": {"label": "d_hydrogen", "atom_type": "H0"}}

>  <type>  (1) 
r1h

$$$$

     RDKit          3D

 13 12  0  0  0  0  0  0  0  0999 V2000
    1.9060    0.2628    0.3980 C   0  0  0  0  0  0  0  0  0  0  0  0
    0.6330   -0.4250    0.0685 C   0  0  0  0  0  3  0  0  0  0  0  0
   -0.2610   -0.9325    1.1416 C   0  0  0  0  0  0  0  0  0  0  0  0
   -1.4364   -1.7546    0.6268 C   0  0  0  0  0  0  0  0  0  0  0  0
    2.4899   -0.3070    1.1292 H   0  0  0  0  0  0  0  0  0  0  0  0
    1.7297    1.2496    0.8515 H   0  0  0  0  0  0  0  0  0  0  0  0
    2.5269    0.4197   -0.4845 H   0  0  0  0  0  0  0  0  0  0  0  0
    0.2597   -0.3936   -0.9489 H   0  0  0  0  0  0  0  0  0  0  0  0
   -0.6439   -0.0868    1.7356 H   0  0  0  0  0  0  0  0  0  0  0  0
    0.3260   -1.5277    1.8536 H   0  0  0  0  0  0  0  0  0  0  0  0
   -1.0872   -2.6320    0.0792 H   0  0  0  0  0  0  0  0  0  0  0  0
   -2.0701   -2.0976    1.4459 H   0  0  0  0  0  0  0  0  0  0  0  0
   -2.0561   -1.1637   -0.0512 H   0  0  0  0  0  0  0  0  0  0  0  0
  1  2  1  0
  1  5  1  0
  1  6  1  0
  1  7  1  0
  2  3  1  0
  2  8  1  0
  3  4  1  0
  3  9  1  0
  3 10  1  0
  4 11  1  0
  4 12  1  0
  4 13  1  0
M  RAD  1   2   2
M  END
>  <reaction>  (2) 
rmg_rxn_97

>  <mol_properties>  (2) 
{"1": {"label": "acceptor", "atom_type": "Cs"}}

>  <type>  (2) 
r2

$$$$

     RDKit          3D

 14 13  0  0  0  0  0  0  0  0999 V2000
    1.8106   -0.5953    0.5577 C   0  0  0  0  0  0  0  0  0  0  0  0
    0.5197    0.2064    0.6554 C   0  0  0  0  0  0  0  0  0  0  0  0
   -0.5206   -0.2080   -0.3788 C   0  0  0  0  0  0  0  0  0  0  0  0
   -1.8114    0.5937   -0.2812 C   0  0  0  0  0  0  0  0  0  0  0  0
    2.2725   -0.4752   -0.4251 H   0  0  0  0  0  0  0  0  0  0  0  0
    1.6214   -1.6612    0.7052 H   0  0  0  0  0  0  0  0  0  0  0  0
    2.5364   -0.2784    1.3084 H   0  0  0  0  0  0  0  0  0  0  0  0
    0.0930    0.0950    1.6574 H   0  0  0  0  0  0  0  0  0  0  0  0
    0.7393    1.2723    0.5354 H   0  0  0  0  0  0  0  0  0  0  0  0
   -0.7402   -1.2739   -0.2588 H   0  0  0  0  0  0  0  0  0  0  0  0
   -0.0938   -0.0965   -1.3808 H   0  0  0  0  0  0  0  0  0  0  0  0
   -1.6222    1.6596   -0.4287 H   0  0  0  0  0  0  0  0  0  0  0  0
   -2.2734    0.4736    0.7017 H   0  0  0  0  0  0  0  0  0  0  0  0
   -2.5373    0.2768   -1.0318 H   0  0  0  0  0  0  0  0  0  0  0  0
  1  2  1  0
  1  5  1  0
  1  6  1  0
  1  7  1  0
  2  3  1  0
  2  8  1  0
  2  9  1  0
  3  4  1  0
  3 10  1  0
  3 11  1  0
  4 12  1  0
  4 13  1  0
  4 14  1  0
M  END
>  <reaction>  (3) 
rmg_rxn_97

>  <mol_properties>  (3) 
{"0": {"label": "a_hydrogen", "atom_type": "H0"}, "2": {"label": "acceptor", "atom_type": "Cs"}}

>  <type>  (3) 
r2h

$$$$

     RDKit          3D

 19 17  0  0  0  0  0  0  0  0999 V2000
    1.4098    0.9788    0.3358 C   0  0  0  0  0  0  0  0  0  0  0  0
    0.8566    1.5377   -0.8504 C   0  0  0  0  0  0  0  0  0  0  0  0
    0.3466    1.9502   -1.7977 N   0  0  0  0  0  2  0  0  0  0  0  0
    0.4387    0.1661    0.8423 H   0  0  0  0  0  0  0  0  0  0  0  0
    2.2529    0.3170    0.1635 H   0  0  0  0  0  0  0  0  0  0  0  0
    1.5804    1.7012    1.1282 H   0  0  0  0  0  0  0  0  0  0  0  0
   -1.4526    0.4784    2.0021 C   0  0  0  0  0  0  0  0  0  0  0  0
   -0.6106   -0.5276    1.2659 C   0  0  0  0  0  0  0  0  0  0  0  0
   -1.2004   -1.1099    0.0082 C   0  0  0  0  0  0  0  0  0  0  0  0
   -0.2637   -2.0643   -0.7198 C   0  0  0  0  0  0  0  0  0  0  0  0
   -2.3696    0.0139    2.3790 H   0  0  0  0  0  0  0  0  0  0  0  0
   -1.7490    1.2960    1.3408 H   0  0  0  0  0  0  0  0  0  0  0  0
   -0.9223    0.9019    2.8563 H   0  0  0  0  0  0  0  0  0  0  0  0
   -0.1428   -1.2726    1.9129 H   0  0  0  0  0  0  0  0  0  0  0  0
   -1.4936   -0.2948   -0.6607 H   0  0  0  0  0  0  0  0  0  0  0  0
   -2.1289   -1.6331    0.2711 H   0  0  0  0  0  0  0  0  0  0  0  0
    0.0392   -2.8899   -0.0717 H   0  0  0  0  0  0  0  0  0  0  0  0
   -0.7433   -2.4881   -1.6024 H   0  0  0  0  0  0  0  0  0  0  0  0
    0.6394   -1.5491   -1.0533 H   0  0  0  0  0  0  0  0  0  0  0  0
  1  2  2  0
  1  5  1  0
  1  6  1  0
  2  3  2  0
  4  8  1  0
  7  8  1  0
  7 11  1  0
  7 12  1  0
  7 13  1  0
  8  9  1  0
  8 14  1  0
  9 10  1  0
  9 15  1  0
  9 16  1  0
 10 17  1  0
 10 18  1  0
 10 19  1  0
M  RAD  1   3   2
M  END
>  <reaction>  (4) 
rmg_rxn_97

>  <mol_properties>  (4) 
{"0": {"label": "*3", "atom_type": "Cd"}, "1": {"label": "*4", "atom_type": "Cdd"}, "3": {"label": "*2", "atom_type": "H0"}, "7": {"label": "*1", "atom_type": "Cs"}, "8": {"label": "*0", "atom_type": "Cs"}}

>  <type>  (4) 
ts

$$$$

     RDKit          3D

 19 17  0  0  0  0  0  0  0  0999 V2000
    0.9380    1.2363   -0.2430 C   0  0  0  0  0  0  0  0  0  0  0  0
    0.9380    1.2363   -1.6976 C   0  0  0  0  0  0  0  0  0  0  0  0
    0.9380    1.2363   -2.8440 N   0  0  0  0  0  0  0  0  0  0  0  0
   -0.0150    0.4605    0.2031 H   0  0  0  0  0  0  0  0  0  0  0  0
    1.8950    0.8718    0.1287 H   0  0  0  0  0  0  0  0  0  0  0  0
    0.7752    2.2474    0.1288 H   0  0  0  0  0  0  0  0  0  0  0  0
   -2.3808   -0.6454    0.1723 C   0  0  0  0  0  0  0  0  0  0  0  0
   -0.9727   -0.3192    0.6514 C   0  0  0  0  0  3  0  0  0  0  0  0
   -0.3583   -1.4274    1.4986 C   0  0  0  0  0  0  0  0  0  0  0  0
    1.0498   -1.1012    1.9778 C   0  0  0  0  0  0  0  0  0  0  0  0
   -3.0533   -0.8109    1.0174 H   0  0  0  0  0  0  0  0  0  0  0  0
   -2.3867   -1.5526   -0.4365 H   0  0  0  0  0  0  0  0  0  0  0  0
   -2.7959    0.1637   -0.4309 H   0  0  0  0  0  0  0  0  0  0  0  0
   -0.9881    0.6089    1.2320 H   0  0  0  0  0  0  0  0  0  0  0  0
   -0.3429   -2.3555    0.9180 H   0  0  0  0  0  0  0  0  0  0  0  0
   -1.0046   -1.6192    2.3612 H   0  0  0  0  0  0  0  0  0  0  0  0
    1.0557   -0.1940    2.5865 H   0  0  0  0  0  0  0  0  0  0  0  0
    1.4649   -1.9103    2.5809 H   0  0  0  0  0  0  0  0  0  0  0  0
    1.7223   -0.9357    1.1327 H   0  0  0  0  0  0  0  0  0  0  0  0
  1  2  1  0
  1  4  1  0
  1  5  1  0
  1  6  1  0
  2  3  3  0
  7  8  1  0
  7 11  1  0
  7 12  1  0
  7 13  1  0
  8  9  1  0
  8 14  1  0
  9 10  1  0
  9 15  1  0
  9 16  1  0
 10 17  1  0
 10 18  1  0
 10 19  1  0
M  RAD  1   8   2
M  END
>  <reaction>  (5) 
rmg_rxn_97

>  <mol_properties>  (5) 
{"0": {"label": "*3", "atom_type": "Cd"}, "1": {"label": "*4", "atom_type": "Cdd"}, "3": {"label": "*2", "atom_type": "H0"}, "7": {"label": "*1", "atom_type": "Cs"}, "8": {"label": "*0", "atom_type": "Cs"}}

>  <type>  (5) 
unop_1

>  <geom_source>  (5) 
Heuristics

$$$$

     RDKit          3D

 19 17  0  0  0  0  0  0  0  0999 V2000
    1.1896    1.2471    0.3083 C   0  0  0  0  0  0  0  0  0  0  0  0
    1.1896    1.2471   -1.1463 C   0  0  0  0  0  0  0  0  0  0  0  0
    1.1896    1.2471   -2.2928 N   0  0  0  0  0  0  0  0  0  0  0  0
    0.2366    0.4713    0.7544 H   0  0  0  0  0  0  0  0  0  0  0  0
    2.1466    0.8826    0.6800 H   0  0  0  0  0  0  0  0  0  0  0  0
    1.0268    2.2582    0.6800 H   0  0  0  0  0  0  0  0  0  0  0  0
   -2.0080    0.2326    1.8109 C   0  0  0  0  0  0  0  0  0  0  0  0
   -0.7211   -0.3083    1.2027 C   0  0  0  0  0  3  0  0  0  0  0  0
   -0.9602   -1.4316    0.2004 C   0  0  0  0  0  0  0  0  0  0  0  0
    0.3267   -1.9726   -0.4078 C   0  0  0  0  0  0  0  0  0  0  0  0
   -2.5529   -0.5543    2.3377 H   0  0  0  0  0  0  0  0  0  0  0  0
   -2.6693    0.6307    1.0375 H   0  0  0  0  0  0  0  0  0  0  0  0
   -1.8079    1.0343    2.5236 H   0  0  0  0  0  0  0  0  0  0  0  0
   -0.0634   -0.6724    1.9986 H   0  0  0  0  0  0  0  0  0  0  0  0
   -1.6179   -1.0676   -0.5955 H   0  0  0  0  0  0  0  0  0  0  0  0
   -1.5025   -2.2439    0.6951 H   0  0  0  0  0  0  0  0  0  0  0  0
    0.9879   -2.3706    0.3656 H   0  0  0  0  0  0  0  0  0  0  0  0
    0.1266   -2.7743   -1.1205 H   0  0  0  0  0  0  0  0  0  0  0  0
    0.8716   -1.1856   -0.9346 H   0  0  0  0  0  0  0  0  0  0  0  0
  1  2  1  0
  1  4  1  0
  1  5  1  0
  1  6  1  0
  2  3  3  0
  7  8  1  0
  7 11  1  0
  7 12  1  0
  7 13  1  0
  8  9  1  0
  8 14  1  0
  9 10  1  0
  9 15  1  0
  9 16  1  0
 10 17  1  0
 10 18  1  0
 10 19  1  0
M  RAD  1   8   2
M  END
>  <reaction>  (6) 
rmg_rxn_97

>  <mol_properties>  (6) 
{"0": {"label": "*3", "atom_type": "Cd"}, "1": {"label": "*4", "atom_type": "Cdd"}, "3": {"label": "*2", "atom_type": "H0"}, "7": {"label": "*1", "atom_type": "Cs"}, "8": {"label": "*0", "atom_type": "Cs"}}

>  <type>  (6) 
unop_2

>  <geom_source>  (6) 
Heuristics

$$$$

     RDKit          3D

 19 17  0  0  0  0  0  0  0  0999 V2000
    0.9978    1.0819   -0.3869 C   0  0  0  0  0  0  0  0  0  0  0  0
    0.9978    1.0819   -1.8415 C   0  0  0  0  0  0  0  0  0  0  0  0
    0.9978    1.0819   -2.9880 N   0  0  0  0  0  0  0  0  0  0  0  0
    0.0447    0.3061    0.0592 H   0  0  0  0  0  0  0  0  0  0  0  0
    1.9548    0.7174   -0.0152 H   0  0  0  0  0  0  0  0  0  0  0  0
    0.8350    2.0930   -0.0152 H   0  0  0  0  0  0  0  0  0  0  0  0
   -1.8356   -1.3926   -0.2815 C   0  0  0  0  0  0  0  0  0  0  0  0
   -0.9130   -0.4735    0.5075 C   0  0  0  0  0  3  0  0  0  0  0  0
   -0.4918   -1.0594    1.8503 C   0  0  0  0  0  0  0  0  0  0  0  0
    0.4309   -0.1403    2.6393 C   0  0  0  0  0  0  0  0  0  0  0  0
   -2.7514   -1.6010    0.2768 H   0  0  0  0  0  0  0  0  0  0  0  0
   -1.3509   -2.3496   -0.4890 H   0  0  0  0  0  0  0  0  0  0  0  0
   -2.1211   -0.9492   -1.2369 H   0  0  0  0  0  0  0  0  0  0  0  0
   -1.4085    0.4881    0.6758 H   0  0  0  0  0  0  0  0  0  0  0  0
    0.0037   -2.0210    1.6820 H   0  0  0  0  0  0  0  0  0  0  0  0
   -1.3865   -1.2779    2.4422 H   0  0  0  0  0  0  0  0  0  0  0  0
   -0.0539    0.8166    2.8468 H   0  0  0  0  0  0  0  0  0  0  0  0
    0.7163   -0.5837    3.5946 H   0  0  0  0  0  0  0  0  0  0  0  0
    1.3466    0.0681    2.0809 H   0  0  0  0  0  0  0  0  0  0  0  0
  1  2  1  0
  1  4  1  0
  1  5  1  0
  1  6  1  0
  2  3  3  0
  7  8  1  0
  7 11  1  0
  7 12  1  0
  7 13  1  0
  8  9  1  0
  8 14  1  0
  9 10  1  0
  9 15  1  0
  9 16  1  0
 10 17  1  0
 10 18  1  0
 10 19  1  0
M  RAD  1   8   2
M  END
>  <reaction>  (7) 
rmg_rxn_97

>  <mol_properties>  (7) 
{"0": {"label": "*3", "atom_type": "Cd"}, "1": {"label": "*4", "atom_type": "Cdd"}, "3": {"label": "*2", "atom_type": "H0"}, "7": {"label": "*1", "atom_type": "Cs"}, "8": {"label": "*0", "atom_type": "Cs"}}

>  <type>  (7) 
unop_3

>  <geom_source>  (7) 
Heuristics

$$$$

     RDKit          3D

 19 17  0  0  0  0  0  0  0  0999 V2000
    1.5184    0.7557    0.1591 C   0  0  0  0  0  0  0  0  0  0  0  0
    1.5184    0.7557   -1.2956 C   0  0  0  0  0  0  0  0  0  0  0  0
    1.5184    0.7557   -2.4420 N   0  0  0  0  0  0  0  0  0  0  0  0
    0.5653   -0.0201    0.6052 H   0  0  0  0  0  0  0  0  0  0  0  0
    2.4754    0.3912    0.5308 H   0  0  0  0  0  0  0  0  0  0  0  0
    1.3556    1.7668    0.5308 H   0  0  0  0  0  0  0  0  0  0  0  0
    0.0050   -0.2081    2.3991 C   0  0  0  0  0  0  0  0  0  0  0  0
   -0.3924   -0.7997    1.0535 C   0  0  0  0  0  3  0  0  0  0  0  0
   -1.7341   -0.2835    0.5467 C   0  0  0  0  0  0  0  0  0  0  0  0
   -2.1314   -0.8752   -0.7989 C   0  0  0  0  0  0  0  0  0  0  0  0
   -0.7375   -0.4442    3.1650 H   0  0  0  0  0  0  0  0  0  0  0  0
    0.0836    0.8801    2.3402 H   0  0  0  0  0  0  0  0  0  0  0  0
    0.9679   -0.5942    2.7376 H   0  0  0  0  0  0  0  0  0  0  0  0
   -0.4341   -1.8911    1.1300 H   0  0  0  0  0  0  0  0  0  0  0  0
   -1.6923    0.8078    0.4702 H   0  0  0  0  0  0  0  0  0  0  0  0
   -2.5073   -0.5068    1.2889 H   0  0  0  0  0  0  0  0  0  0  0  0
   -2.2100   -1.9634   -0.7401 H   0  0  0  0  0  0  0  0  0  0  0  0
   -3.0943   -0.4891   -1.1374 H   0  0  0  0  0  0  0  0  0  0  0  0
   -1.3890   -0.6390   -1.5649 H   0  0  0  0  0  0  0  0  0  0  0  0
  1  2  1  0
  1  4  1  0
  1  5  1  0
  1  6  1  0
  2  3  3  0
  7  8  1  0
  7 11  1  0
  7 12  1  0
  7 13  1  0
  8  9  1  0
  8 14  1  0
  9 10  1  0
  9 15  1  0
  9 16  1  0
 10 17  1  0
 10 18  1  0
 10 19  1  0
M  RAD  1   8   2
M  END
>  <reaction>  (8) 
rmg_rxn_97

>  <mol_properties>  (8) 
{"0": {"label": "*3", "atom_type": "Cd"}, "1": {"label": "*4", "atom_type": "Cdd"}, "3": {"label": "*2", "atom_type": "H0"}, "7": {"label": "*1", "atom_type": "Cs"}, "8": {"label": "*0", "atom_type": "Cs"}}

>  <type>  (8) 
unop_4

>  <geom_source>  (8) 
Heuristics

$$$$

     RDKit          3D

 19 17  0  0  0  0  0  0  0  0999 V2000
    1.1163    0.9087   -0.4383 C   0  0  0  0  0  0  0  0  0  0  0  0
    1.1163    0.9087   -1.8930 C   0  0  0  0  0  0  0  0  0  0  0  0
    1.1163    0.9087   -3.0394 N   0  0  0  0  0  0  0  0  0  0  0  0
    0.1632    0.1329    0.0078 H   0  0  0  0  0  0  0  0  0  0  0  0
    2.0733    0.5442   -0.0666 H   0  0  0  0  0  0  0  0  0  0  0  0
    0.9535    1.9198   -0.0666 H   0  0  0  0  0  0  0  0  0  0  0  0
   -0.6327   -2.0430   -0.1295 C   0  0  0  0  0  0  0  0  0  0  0  0
   -0.7945   -0.6468    0.4561 C   0  0  0  0  0  3  0  0  0  0  0  0
   -0.7769   -0.6325    1.9802 C   0  0  0  0  0  0  0  0  0  0  0  0
   -0.9387    0.7638    2.5658 C   0  0  0  0  0  0  0  0  0  0  0  0
   -1.4366   -2.7032    0.2048 H   0  0  0  0  0  0  0  0  0  0  0  0
    0.3135   -2.4912    0.1827 H   0  0  0  0  0  0  0  0  0  0  0  0
   -0.6488   -2.0240   -1.2205 H   0  0  0  0  0  0  0  0  0  0  0  0
   -1.7336   -0.2075    0.1044 H   0  0  0  0  0  0  0  0  0  0  0  0
    0.1622   -1.0717    2.3318 H   0  0  0  0  0  0  0  0  0  0  0  0
   -1.5750   -1.2822    2.3538 H   0  0  0  0  0  0  0  0  0  0  0  0
   -1.8850    1.2119    2.2535 H   0  0  0  0  0  0  0  0  0  0  0  0
   -0.9226    0.7447    3.6567 H   0  0  0  0  0  0  0  0  0  0  0  0
   -0.1348    1.4239    2.2314 H   0  0  0  0  0  0  0  0  0  0  0  0
  1  2  1  0
  1  4  1  0
  1  5  1  0
  1  6  1  0
  2  3  3  0
  7  8  1  0
  7 11  1  0
  7 12  1  0
  7 13  1  0
  8  9  1  0
  8 14  1  0
  9 10  1  0
  9 15  1  0
  9 16  1  0
 10 17  1  0
 10 18  1  0
 10 19  1  0
M  RAD  1   8   2
M  END
>  <reaction>  (9) 
rmg_rxn_97

>  <mol_properties>  (9) 
{"0": {"label": "*3", "atom_type": "Cd"}, "1": {"label": "*4", "atom_type": "Cdd"}, "3": {"label": "*2", "atom_type": "H0"}, "7": {"label": "*1", "atom_type": "Cs"}, "8": {"label": "*0", "atom_type": "Cs"}}

>  <type>  (9) 
unop_5

>  <geom_source>  (9) 
Heuristics

$$$$

     RDKit          3D

 19 17  0  0  0  0  0  0  0  0999 V2000
    1.4954    0.6665   -0.0430 C   0  0  0  0  0  0  0  0  0  0  0  0
    1.4954    0.6665   -1.4977 C   0  0  0  0  0  0  0  0  0  0  0  0
    1.4954    0.6665   -2.6441 N   0  0  0  0  0  0  0  0  0  0  0  0
    0.5424   -0.1093    0.4031 H   0  0  0  0  0  0  0  0  0  0  0  0
    2.4524    0.3020    0.3287 H   0  0  0  0  0  0  0  0  0  0  0  0
    1.3326    1.6776    0.3287 H   0  0  0  0  0  0  0  0  0  0  0  0
    0.5291   -0.7791    2.0407 C   0  0  0  0  0  0  0  0  0  0  0  0
   -0.4153   -0.8889    0.8513 C   0  0  0  0  0  3  0  0  0  0  0  0
   -1.6883   -0.0679    1.0215 C   0  0  0  0  0  0  0  0  0  0  0  0
   -2.6327   -0.1777   -0.1678 C   0  0  0  0  0  0  0  0  0  0  0  0
    0.0460   -1.1260    2.9573 H   0  0  0  0  0  0  0  0  0  0  0  0
    0.8368    0.2568    2.2018 H   0  0  0  0  0  0  0  0  0  0  0  0
    1.4306   -1.3757    1.8925 H   0  0  0  0  0  0  0  0  0  0  0  0
   -0.6844   -1.9381    0.6915 H   0  0  0  0  0  0  0  0  0  0  0  0
   -1.4193    0.9812    1.1813 H   0  0  0  0  0  0  0  0  0  0  0  0
   -2.2043   -0.3914    1.9313 H   0  0  0  0  0  0  0  0  0  0  0  0
   -2.9405   -1.2136   -0.3289 H   0  0  0  0  0  0  0  0  0  0  0  0
   -3.5343    0.4189   -0.0196 H   0  0  0  0  0  0  0  0  0  0  0  0
   -2.1497    0.1692   -1.0844 H   0  0  0  0  0  0  0  0  0  0  0  0
  1  2  1  0
  1  4  1  0
  1  5  1  0
  1  6  1  0
  2  3  3  0
  7  8  1  0
  7 11  1  0
  7 12  1  0
  7 13  1  0
  8  9  1  0
  8 14  1  0
  9 10  1  0
  9 15  1  0
  9 16  1  0
 10 17  1  0
 10 18  1  0
 10 19  1  0
M  RAD  1   8   2
M  END
>  <reaction>  (10) 
rmg_rxn_97

>  <mol_properties>  (10) 
{"0": {"label": "*3", "atom_type": "Cd"}, "1": {"label": "*4", "atom_type": "Cdd"}, "3": {"label": "*2", "atom_type": "H0"}, "7": {"label": "*1", "atom_type": "Cs"}, "8": {"label": "*0", "atom_type": "Cs"}}

>  <type>  (10) 
unop_6

>  <geom_source>  (10) 
Heuristics

$$$$

     RDKit          3D

 19 17  0  0  0  0  0  0  0  0999 V2000
    1.4009    0.6677   -0.2430 C   0  0  0  0  0  0  0  0  0  0  0  0
    1.4009    0.6677   -1.6976 C   0  0  0  0  0  0  0  0  0  0  0  0
    1.4009    0.6677   -2.8440 N   0  0  0  0  0  0  0  0  0  0  0  0
    0.4478   -0.1081    0.2031 H   0  0  0  0  0  0  0  0  0  0  0  0
    2.3579    0.3032    0.1287 H   0  0  0  0  0  0  0  0  0  0  0  0
    1.2381    1.6788    0.1288 H   0  0  0  0  0  0  0  0  0  0  0  0
    0.7128   -1.3611    1.4258 C   0  0  0  0  0  0  0  0  0  0  0  0
   -0.5099   -0.8878    0.6514 C   0  0  0  0  0  3  0  0  0  0  0  0
   -1.4704   -0.0613    1.4986 C   0  0  0  0  0  0  0  0  0  0  0  0
   -2.6931    0.4121    0.7242 C   0  0  0  0  0  0  0  0  0  0  0  0
    0.4212   -1.9829    2.2756 H   0  0  0  0  0  0  0  0  0  0  0  0
    1.2808   -0.5135    1.8167 H   0  0  0  0  0  0  0  0  0  0  0  0
    1.3824   -1.9494    0.7963 H   0  0  0  0  0  0  0  0  0  0  0  0
   -1.0442   -1.7523    0.2444 H   0  0  0  0  0  0  0  0  0  0  0  0
   -0.9361    0.8033    1.9057 H   0  0  0  0  0  0  0  0  0  0  0  0
   -1.7893   -0.6553    2.3612 H   0  0  0  0  0  0  0  0  0  0  0  0
   -3.2610   -0.4355    0.3333 H   0  0  0  0  0  0  0  0  0  0  0  0
   -3.3627    1.0004    1.3537 H   0  0  0  0  0  0  0  0  0  0  0  0
   -2.4015    1.0338   -0.1256 H   0  0  0  0  0  0  0  0  0  0  0  0
  1  2  1  0
  1  4  1  0
  1  5  1  0
  1  6  1  0
  2  3  3  0
  7  8  1  0
  7 11  1  0
  7 12  1  0
  7 13  1  0
  8  9  1  0
  8 14  1  0
  9 10  1  0
  9 15  1  0
  9 16  1  0
 10 17  1  0
 10 18  1  0
 10 19  1  0
M  RAD  1   8   2
M  END
>  <reaction>  (11) 
rmg_rxn_97

>  <mol_properties>  (11) 
{"0": {"label": "*3", "atom_type": "Cd"}, "1": {"label": "*4", "atom_type": "Cdd"}, "3": {"label": "*2", "atom_type": "H0"}, "7": {"label": "*1", "atom_type": "Cs"}, "8": {"label": "*0", "atom_type": "Cs"}}

>  <type>  (11) 
unop_7

>  <geom_source>  (11) 
Heuristics

$$$$

     RDKit          3D

 19 17  0  0  0  0  0  0  0  0999 V2000
    0.9560    1.3291   -0.0430 C   0  0  0  0  0  0  0  0  0  0  0  0
    0.9560    1.3291   -1.4977 C   0  0  0  0  0  0  0  0  0  0  0  0
    0.9560    1.3291   -2.6441 N   0  0  0  0  0  0  0  0  0  0  0  0
    0.0030    0.5532    0.4031 H   0  0  0  0  0  0  0  0  0  0  0  0
    1.9131    0.9646    0.3287 H   0  0  0  0  0  0  0  0  0  0  0  0
    0.7933    2.3401    0.3287 H   0  0  0  0  0  0  0  0  0  0  0  0
   -2.4752   -0.1778    0.7853 C   0  0  0  0  0  0  0  0  0  0  0  0
   -0.9547   -0.2264    0.8513 C   0  0  0  0  0  3  0  0  0  0  0  0
   -0.4090   -1.6394    1.0215 C   0  0  0  0  0  0  0  0  0  0  0  0
    1.1115   -1.6880    1.0876 C   0  0  0  0  0  0  0  0  0  0  0  0
   -2.9197   -0.5837    1.6971 H   0  0  0  0  0  0  0  0  0  0  0  0
   -2.8495   -0.7676   -0.0549 H   0  0  0  0  0  0  0  0  0  0  0  0
   -2.8382    0.8440    0.6635 H   0  0  0  0  0  0  0  0  0  0  0  0
   -0.6030    0.3958    1.6807 H   0  0  0  0  0  0  0  0  0  0  0  0
   -0.7607   -2.2616    0.1922 H   0  0  0  0  0  0  0  0  0  0  0  0
   -0.8304   -2.0791    1.9313 H   0  0  0  0  0  0  0  0  0  0  0  0
    1.4858   -1.0982    1.9278 H   0  0  0  0  0  0  0  0  0  0  0  0
    1.4745   -2.7098    1.2094 H   0  0  0  0  0  0  0  0  0  0  0  0
    1.5560   -1.2821    0.1758 H   0  0  0  0  0  0  0  0  0  0  0  0
  1  2  1  0
  1  4  1  0
  1  5  1  0
  1  6  1  0
  2  3  3  0
  7  8  1  0
  7 11  1  0
  7 12  1  0
  7 13  1  0
  8  9  1  0
  8 14  1  0
  9 10  1  0
  9 15  1  0
  9 16  1  0
 10 17  1  0
 10 18  1  0
 10 19  1  0
M  RAD  1   8   2
M  END
>  <reaction>  (12) 
rmg_rxn_97

>  <mol_properties>  (12) 
{"0": {"label": "*3", "atom_type": "Cd"}, "1": {"label": "*4", "atom_type": "Cdd"}, "3": {"label": "*2", "atom_type": "H0"}, "7": {"label": "*1", "atom_type": "Cs"}, "8": {"label": "*0", "atom_type": "Cs"}}

>  <type>  (12) 
unop_8

>  <geom_source>  (12) 
Heuristics

$$$$

     RDKit          3D

 19 17  0  0  0  0  0  0  0  0999 V2000
    1.4625    0.9119    0.3083 C   0  0  0  0  0  0  0  0  0  0  0  0
    1.4625    0.9119   -1.1463 C   0  0  0  0  0  0  0  0  0  0  0  0
    1.4625    0.9119   -2.2928 N   0  0  0  0  0  0  0  0  0  0  0  0
    0.5095    0.1360    0.7544 H   0  0  0  0  0  0  0  0  0  0  0  0
    2.4195    0.5473    0.6800 H   0  0  0  0  0  0  0  0  0  0  0  0
    1.2997    1.9229    0.6800 H   0  0  0  0  0  0  0  0  0  0  0  0
   -0.7358    0.2042    2.4344 C   0  0  0  0  0  0  0  0  0  0  0  0
   -0.4482   -0.6436    1.2027 C   0  0  0  0  0  3  0  0  0  0  0  0
   -1.5966   -0.6498    0.2004 C   0  0  0  0  0  0  0  0  0  0  0  0
   -1.3090   -1.4976   -1.0314 C   0  0  0  0  0  0  0  0  0  0  0  0
   -1.6190   -0.1614    2.9637 H   0  0  0  0  0  0  0  0  0  0  0  0
   -0.9238    1.2445    2.1584 H   0  0  0  0  0  0  0  0  0  0  0  0
    0.1015    0.1908    3.1341 H   0  0  0  0  0  0  0  0  0  0  0  0
   -0.2330   -1.6729    1.5073 H   0  0  0  0  0  0  0  0  0  0  0  0
   -1.8119    0.3795   -0.1042 H   0  0  0  0  0  0  0  0  0  0  0  0
   -2.5020   -1.0160    0.6951 H   0  0  0  0  0  0  0  0  0  0  0  0
   -1.1211   -2.5379   -0.7553 H   0  0  0  0  0  0  0  0  0  0  0  0
   -2.1463   -1.4843   -1.7310 H   0  0  0  0  0  0  0  0  0  0  0  0
   -0.4258   -1.1320   -1.5606 H   0  0  0  0  0  0  0  0  0  0  0  0
  1  2  1  0
  1  4  1  0
  1  5  1  0
  1  6  1  0
  2  3  3  0
  7  8  1  0
  7 11  1  0
  7 12  1  0
  7 13  1  0
  8  9  1  0
  8 14  1  0
  9 10  1  0
  9 15  1  0
  9 16  1  0
 10 17  1  0
 10 18  1  0
 10 19  1  0
M  RAD  1   8   2
M  END
>  <reaction>  (13) 
rmg_rxn_97

>  <mol_properties>  (13) 
{"0": {"label": "*3", "atom_type": "Cd"}, "1": {"label": "*4", "atom_type": "Cdd"}, "3": {"label": "*2", "atom_type": "H0"}, "7": {"label": "*1", "atom_type": "Cs"}, "8": {"label": "*0", "atom_type": "Cs"}}

>  <type>  (13) 
unop_9

>  <geom_source>  (13) 
Heuristics

$$$$

     RDKit          3D

 19 17  0  0  0  0  0  0  0  0999 V2000
    1.0480    1.3335    0.1591 C   0  0  0  0  0  0  0  0  0  0  0  0
    1.0480    1.3335   -1.2956 C   0  0  0  0  0  0  0  0  0  0  0  0
    1.0480    1.3335   -2.4420 N   0  0  0  0  0  0  0  0  0  0  0  0
    0.0950    0.5577    0.6052 H   0  0  0  0  0  0  0  0  0  0  0  0
    2.0051    0.9690    0.5308 H   0  0  0  0  0  0  0  0  0  0  0  0
    0.8853    2.3446    0.5308 H   0  0  0  0  0  0  0  0  0  0  0  0
   -2.3271    0.0729    1.3490 C   0  0  0  0  0  0  0  0  0  0  0  0
   -0.8627   -0.2220    1.0535 C   0  0  0  0  0  3  0  0  0  0  0  0
   -0.6294   -1.6405    0.5467 C   0  0  0  0  0  0  0  0  0  0  0  0
    0.8350   -1.9353    0.2512 C   0  0  0  0  0  0  0  0  0  0  0  0
   -2.7170   -0.6062    2.1110 H   0  0  0  0  0  0  0  0  0  0  0  0
   -2.9397   -0.0504    0.4527 H   0  0  0  0  0  0  0  0  0  0  0  0
   -2.4651    1.0935    1.7096 H   0  0  0  0  0  0  0  0  0  0  0  0
   -0.2661   -0.0618    1.9573 H   0  0  0  0  0  0  0  0  0  0  0  0
   -1.2260   -1.8007   -0.3572 H   0  0  0  0  0  0  0  0  0  0  0  0
   -1.0049   -2.3524    1.2889 H   0  0  0  0  0  0  0  0  0  0  0  0
    1.4476   -1.8121    1.1475 H   0  0  0  0  0  0  0  0  0  0  0  0
    0.9731   -2.9559   -0.1094 H   0  0  0  0  0  0  0  0  0  0  0  0
    1.2249   -1.2563   -0.5108 H   0  0  0  0  0  0  0  0  0  0  0  0
  1  2  1  0
  1  4  1  0
  1  5  1  0
  1  6  1  0
  2  3  3  0
  7  8  1  0
  7 11  1  0
  7 12  1  0
  7 13  1  0
  8  9  1  0
  8 14  1  0
  9 10  1  0
  9 15  1  0
  9 16  1  0
 10 17  1  0
 10 18  1  0
 10 19  1  0
M  RAD  1   8   2
M  END
>  <reaction>  (14) 
rmg_rxn_97

>  <mol_properties>  (14) 
{"0": {"label": "*3", "atom_type": "Cd"}, "1": {"label": "*4", "atom_type": "Cdd"}, "3": {"label": "*2", "atom_type": "H0"}, "7": {"label": "*1", "atom_type": "Cs"}, "8": {"label": "*0", "atom_type": "Cs"}}

>  <type>  (14) 
unop_10

>  <geom_source>  (14) 
Heuristics

$$$$

     RDKit          3D

 19 17  0  0  0  0  0  0  0  0999 V2000
    1.2618    0.7576   -0.3869 C   0  0  0  0  0  0  0  0  0  0  0  0
    1.2618    0.7576   -1.8415 C   0  0  0  0  0  0  0  0  0  0  0  0
    1.2618    0.7576   -2.9880 N   0  0  0  0  0  0  0  0  0  0  0  0
    0.3088   -0.0183    0.0592 H   0  0  0  0  0  0  0  0  0  0  0  0
    2.2189    0.3930   -0.0152 H   0  0  0  0  0  0  0  0  0  0  0  0
    1.0991    1.7686   -0.0152 H   0  0  0  0  0  0  0  0  0  0  0  0
    0.4149   -1.8788    0.6445 C   0  0  0  0  0  0  0  0  0  0  0  0
   -0.6489   -0.7979    0.5075 C   0  0  0  0  0  3  0  0  0  0  0  0
   -1.1371   -0.2667    1.8503 C   0  0  0  0  0  0  0  0  0  0  0  0
   -2.2009    0.8141    1.7133 C   0  0  0  0  0  0  0  0  0  0  0  0
    0.0332   -2.7346    1.2063 H   0  0  0  0  0  0  0  0  0  0  0  0
    1.2915   -1.5001    1.1754 H   0  0  0  0  0  0  0  0  0  0  0  0
    0.7459   -2.2405   -0.3304 H   0  0  0  0  0  0  0  0  0  0  0  0
   -1.5024   -1.1916   -0.0538 H   0  0  0  0  0  0  0  0  0  0  0  0
   -0.2836    0.1270    2.4115 H   0  0  0  0  0  0  0  0  0  0  0  0
   -1.5326   -1.0984    2.4422 H   0  0  0  0  0  0  0  0  0  0  0  0
   -3.0775    0.4355    1.1823 H   0  0  0  0  0  0  0  0  0  0  0  0
   -2.5319    1.1759    2.6881 H   0  0  0  0  0  0  0  0  0  0  0  0
   -1.8192    1.6700    1.1515 H   0  0  0  0  0  0  0  0  0  0  0  0
  1  2  1  0
  1  4  1  0
  1  5  1  0
  1  6  1  0
  2  3  3  0
  7  8  1  0
  7 11  1  0
  7 12  1  0
  7 13  1  0
  8  9  1  0
  8 14  1  0
  9 10  1  0
  9 15  1  0
  9 16  1  0
 10 17  1  0
 10 18  1  0
 10 19  1  0
M  RAD  1   8   2
M  END
>  <reaction>  (15) 
rmg_rxn_97

>  <mol_properties>  (15) 
{"0": {"label": "*3", "atom_type": "Cd"}, "1": {"label": "*4", "atom_type": "Cdd"}, "3": {"label": "*2", "atom_type": "H0"}, "7": {"label": "*1", "atom_type": "Cs"}, "8": {"label": "*0", "atom_type": "Cs"}}

>  <type>  (15) 
unop_11

>  <geom_source>  (15) 
Heuristics

$$$$

     RDKit          3D

 19 17  0  0  0  0  0  0  0  0999 V2000
    1.3419    1.0924    0.3633 C   0  0  0  0  0  0  0  0  0  0  0  0
    1.3419    1.0924   -1.0914 C   0  0  0  0  0  0  0  0  0  0  0  0
    1.3419    1.0924   -2.2378 N   0  0  0  0  0  0  0  0  0  0  0  0
    0.3889    0.3166    0.8094 H   0  0  0  0  0  0  0  0  0  0  0  0
    2.2989    0.7279    0.7350 H   0  0  0  0  0  0  0  0  0  0  0  0
    1.1791    2.1035    0.7350 H   0  0  0  0  0  0  0  0  0  0  0  0
   -1.4754    0.3269    2.1919 C   0  0  0  0  0  0  0  0  0  0  0  0
   -0.5688   -0.4630    1.2576 C   0  0  0  0  0  3  0  0  0  0  0  0
   -1.3136   -1.0694    0.0739 C   0  0  0  0  0  0  0  0  0  0  0  0
   -0.4070   -1.8593   -0.8603 C   0  0  0  0  0  0  0  0  0  0  0  0
   -2.2634   -0.3088    2.6026 H   0  0  0  0  0  0  0  0  0  0  0  0
   -1.9590    1.1516    1.6631 H   0  0  0  0  0  0  0  0  0  0  0  0
   -0.9172    0.7491    3.0291 H   0  0  0  0  0  0  0  0  0  0  0  0
   -0.0728   -1.2631    1.8167 H   0  0  0  0  0  0  0  0  0  0  0  0
   -1.8096   -0.2693   -0.4851 H   0  0  0  0  0  0  0  0  0  0  0  0
   -2.1117   -1.7191    0.4475 H   0  0  0  0  0  0  0  0  0  0  0  0
    0.0766   -2.6840   -0.3315 H   0  0  0  0  0  0  0  0  0  0  0  0
   -0.9652   -2.2815   -1.6975 H   0  0  0  0  0  0  0  0  0  0  0  0
    0.3810   -1.2236   -1.2711 H   0  0  0  0  0  0  0  0  0  0  0  0
  1  2  1  0
  1  4  1  0
  1  5  1  0
  1  6  1  0
  2  3  3  0
  7  8  1  0
  7 11  1  0
  7 12  1  0
  7 13  1  0
  8  9  1  0
  8 14  1  0
  9 10  1  0
  9 15  1  0
  9 16  1  0
 10 17  1  0
 10 18  1  0
 10 19  1  0
M  RAD  1   8   2
M  END
>  <reaction>  (16) 
rmg_rxn_97

>  <mol_properties>  (16) 
{"0": {"label": "*3", "atom_type": "Cd"}, "1": {"label": "*4", "atom_type": "Cdd"}, "3": {"label": "*2", "atom_type": "H0"}, "7": {"label": "*1", "atom_type": "Cs"}, "8": {"label": "*0", "atom_type": "Cs"}}

>  <type>  (16) 
unop_12

>  <geom_source>  (16) 
Heuristics

$$$$

     RDKit          3D

 19 17  0  0  0  0  0  0  0  0999 V2000
    3.4893    0.9490   -1.3981 N   0  0  0  0  0  2  0  0  0  0  0  0
   -0.3691   -0.2083    0.7057 C   0  0  0  0  0  0  0  0  0  0  0  0
   -1.3725    0.6082   -0.1138 C   0  0  0  0  0  0  0  0  0  0  0  0
   -0.1816    0.3845    2.0981 C   0  0  0  0  0  0  0  0  0  0  0  0
   -1.5463    0.0186   -1.5097 C   0  0  0  0  0  0  0  0  0  0  0  0
    1.8263   -0.8795   -0.5282 C   0  0  0  0  0  0  0  0  0  0  0  0
    2.7549    0.1415   -1.0139 C   0  0  0  0  0  0  0  0  0  0  0  0
   -0.7281   -1.2560    0.8048 H   0  0  0  0  0  0  0  0  0  0  0  0
    0.8059   -0.2198    0.0852 H   0  0  0  0  0  0  0  0  0  0  0  0
   -2.3586    0.6174    0.3999 H   0  0  0  0  0  0  0  0  0  0  0  0
   -1.0127    1.6558   -0.2086 H   0  0  0  0  0  0  0  0  0  0  0  0
   -1.1455    0.3876    2.6503 H   0  0  0  0  0  0  0  0  0  0  0  0
    0.5519   -0.2271    2.6639 H   0  0  0  0  0  0  0  0  0  0  0  0
    0.2046    1.4232    2.0243 H   0  0  0  0  0  0  0  0  0  0  0  0
   -2.2765    0.6284   -2.0823 H   0  0  0  0  0  0  0  0  0  0  0  0
   -0.5776    0.0216   -2.0536 H   0  0  0  0  0  0  0  0  0  0  0  0
   -1.9275   -1.0228   -1.4443 H   0  0  0  0  0  0  0  0  0  0  0  0
    1.5541   -1.5590   -1.3619 H   0  0  0  0  0  0  0  0  0  0  0  0
    2.3091   -1.4634    0.2823 H   0  0  0  0  0  0  0  0  0  0  0  0
  1  7  2  0
  2  4  1  0
  2  3  1  0
  2  8  1  0
  2  9  1  0
  3  5  1  0
  3 10  1  0
  3 11  1  0
  4 12  1  0
  4 13  1  0
  4 14  1  0
  5 15  1  0
  5 16  1  0
  5 17  1  0
  6  7  2  0
  6 18  1  0
  6 19  1  0
M  RAD  1   1   2
M  END
>  <reaction>  (17) 
rmg_rxn_97

>  <mol_properties>  (17) 
{"0": {"label": "*3", "atom_type": "Cd"}, "1": {"label": "*4", "atom_type": "Cdd"}, "3": {"label": "*2", "atom_type": "H0"}, "7": {"label": "*1", "atom_type": "Cs"}, "8": {"label": "*0", "atom_type": "Cs"}}

>  <type>  (17) 
unop_13

>  <geom_source>  (17) 
AutoTST

$$$$

     RDKit          3D

 19 17  0  0  0  0  0  0  0  0999 V2000
    1.1896    1.2471    0.3083 C   0  0  0  0  0  0  0  0  0  0  0  0
    1.1896    1.2471   -1.1463 C   0  0  0  0  0  0  0  0  0  0  0  0
    1.1896    1.2471   -2.2928 N   0  0  0  0  0  0  0  0  0  0  0  0
    0.2366    0.4713    0.7544 H   0  0  0  0  0  0  0  0  0  0  0  0
    2.1466    0.8826    0.6800 H   0  0  0  0  0  0  0  0  0  0  0  0
    1.0268    2.2582    0.6800 H   0  0  0  0  0  0  0  0  0  0  0  0
   -2.0080    0.2326    1.8109 C   0  0  0  0  0  0  0  0  0  0  0  0
   -0.7211   -0.3084    1.2027 C   0  0  0  0  0  3  0  0  0  0  0  0
   -0.9602   -1.4316    0.2004 C   0  0  0  0  0  0  0  0  0  0  0  0
    0.3267   -1.9726   -0.4078 C   0  0  0  0  0  0  0  0  0  0  0  0
   -2.5530   -0.5543    2.3377 H   0  0  0  0  0  0  0  0  0  0  0  0
   -2.6693    0.6307    1.0375 H   0  0  0  0  0  0  0  0  0  0  0  0
   -1.8079    1.0343    2.5236 H   0  0  0  0  0  0  0  0  0  0  0  0
   -0.0634   -0.6724    1.9986 H   0  0  0  0  0  0  0  0  0  0  0  0
   -1.6179   -1.0676   -0.5955 H   0  0  0  0  0  0  0  0  0  0  0  0
   -1.5025   -2.2439    0.6951 H   0  0  0  0  0  0  0  0  0  0  0  0
    0.9879   -2.3706    0.3656 H   0  0  0  0  0  0  0  0  0  0  0  0
    0.1266   -2.7743   -1.1205 H   0  0  0  0  0  0  0  0  0  0  0  0
    0.8716   -1.1856   -0.9346 H   0  0  0  0  0  0  0  0  0  0  0  0
  1  2  1  0
  1  4  1  0
  1  5  1  0
  1  6  1  0
  2  3  3  0
  7  8  1  0
  7 11  1  0
  7 12  1  0
  7 13  1  0
  8  9  1  0
  8 14  1  0
  9 10  1  0
  9 15  1  0
  9 16  1  0
 10 17  1  0
 10 18  1  0
 10 19  1  0
M  RAD  1   8   2
M  END
>  <reaction>  (18) 
rmg_rxn_97

>  <mol_properties>  (18) 
{"0": {"label": "*3", "atom_type": "Cd"}, "1": {"label": "*4", "atom_type": "Cdd"}, "3": {"label": "*2", "atom_type": "H0"}, "7": {"label": "*1", "atom_type": "Cs"}, "8": {"label": "*0", "atom_type": "Cs"}}

>  <type>  (18) 
unop_14

>  <geom_source>  (18) 
gaussian_log

$$$$
