
     RDKit          3D

  5  4  0  0  0  0  0  0  0  0999 V2000
    0.7361   -0.2872    0.4035 N   0  0  0  0  0  2  0  0  0  0  0  0
   -0.3891   -0.1505   -0.3131 N   0  0  0  0  0  0  0  0  0  0  0  0
    1.4909    0.0686   -0.1831 H   0  0  0  0  0  0  0  0  0  0  0  0
   -1.1819   -0.6340    0.0744 H   0  0  0  0  0  0  0  0  0  0  0  0
   -0.3592   -0.1189   -1.3223 H   0  0  0  0  0  0  0  0  0  0  0  0
  1  2  1  0
  1  3  1  0
  2  4  1  0
  2  5  1  0
M  RAD  1   1   2
M  END
>  <reaction>  (1) 
rmg_rxn_271

>  <mol_properties>  (1) 
{"0": {"label": "donator", "atom_type": "N3s"}, "2": {"label": "d_hydrogen", "atom_type": "H0"}}

>  <type>  (1) 
r1h

$$$$

     RDKit          3D

 17 16  0  0  0  0  0  0  0  0999 V2000
   -3.2378    0.0781    0.0468 C   0  0  0  0  0  0  0  0  0  0  0  0
   -1.9072   -0.5430    0.2348 C   0  0  0  0  0  3  0  0  0  0  0  0
   -1.5607   -0.7743    1.5229 O   0  0  0  0  0  0  0  0  0  0  0  0
   -0.2678   -1.3170    1.7206 C   0  0  0  0  0  0  0  0  0  0  0  0
    0.0055   -1.4164    3.2061 C   0  0  0  0  0  0  0  0  0  0  0  0
    0.0347   -0.0632    3.9042 C   0  0  0  0  0  0  0  0  0  0  0  0
   -3.2816    1.0982    0.4537 H   0  0  0  0  0  0  0  0  0  0  0  0
   -3.4818    0.1310   -1.0144 H   0  0  0  0  0  0  0  0  0  0  0  0
   -4.0139   -0.5033    0.5509 H   0  0  0  0  0  0  0  0  0  0  0  0
   -1.0896   -0.3480   -0.4562 H   0  0  0  0  0  0  0  0  0  0  0  0
   -0.2142   -2.3036    1.2476 H   0  0  0  0  0  0  0  0  0  0  0  0
    0.4751   -0.6679    1.2371 H   0  0  0  0  0  0  0  0  0  0  0  0
   -0.7555   -2.0574    3.6583 H   0  0  0  0  0  0  0  0  0  0  0  0
    0.9642   -1.9267    3.3334 H   0  0  0  0  0  0  0  0  0  0  0  0
   -0.9209    0.4499    3.7952 H   0  0  0  0  0  0  0  0  0  0  0  0
    0.2399   -0.1765    4.9695 H   0  0  0  0  0  0  0  0  0  0  0  0
    0.8109    0.5782    3.4796 H   0  0  0  0  0  0  0  0  0  0  0  0
  1  2  1  0
  1  7  1  0
  1  8  1  0
  1  9  1  0
  2  3  1  0
  2 10  1  0
  3  4  1  0
  4  5  1  0
  4 11  1  0
  4 12  1  0
  5  6  1  0
  5 13  1  0
  5 14  1  0
  6 15  1  0
  6 16  1  0
  6 17  1  0
M  RAD  1   2   2
M  END
>  <reaction>  (2) 
rmg_rxn_271

>  <mol_properties>  (2) 
{"1": {"label": "acceptor", "atom_type": "Cs"}}

>  <type>  (2) 
r2

$$$$

     RDKit          3D

 18 17  0  0  0  0  0  0  0  0999 V2000
    2.2026   -0.7213   -0.2612 C   0  0  0  0  0  0  0  0  0  0  0  0
    1.5384    0.2638    0.6915 C   0  0  0  0  0  0  0  0  0  0  0  0
    2.2584    1.5946    0.7694 C   0  0  0  0  0  0  0  0  0  0  0  0
    2.2212    2.2185   -0.4893 O   0  0  0  0  0  0  0  0  0  0  0  0
    2.8988    3.4488   -0.5204 C   0  0  0  0  0  0  0  0  0  0  0  0
    2.7981    4.0296   -1.9118 C   0  0  0  0  0  0  0  0  0  0  0  0
    3.2294   -0.9309    0.0486 H   0  0  0  0  0  0  0  0  0  0  0  0
    2.2338   -0.3181   -1.2734 H   0  0  0  0  0  0  0  0  0  0  0  0
    1.6610   -1.6680   -0.2875 H   0  0  0  0  0  0  0  0  0  0  0  0
    1.4990   -0.1566    1.7002 H   0  0  0  0  0  0  0  0  0  0  0  0
    0.5055    0.4455    0.3835 H   0  0  0  0  0  0  0  0  0  0  0  0
    3.3038    1.4410    1.0808 H   0  0  0  0  0  0  0  0  0  0  0  0
    1.7844    2.2410    1.5226 H   0  0  0  0  0  0  0  0  0  0  0  0
    2.4596    4.1376    0.2164 H   0  0  0  0  0  0  0  0  0  0  0  0
    3.9524    3.3035   -0.2397 H   0  0  0  0  0  0  0  0  0  0  0  0
    1.7543    4.1869   -2.1856 H   0  0  0  0  0  0  0  0  0  0  0  0
    3.2472    3.3545   -2.6411 H   0  0  0  0  0  0  0  0  0  0  0  0
    3.3178    4.9878   -1.9600 H   0  0  0  0  0  0  0  0  0  0  0  0
  1  2  1  0
  1  7  1  0
  1  8  1  0
  1  9  1  0
  2  3  1  0
  2 10  1  0
  2 11  1  0
  3  4  1  0
  3 12  1  0
  3 13  1  0
  4  5  1  0
  5  6  1  0
  5 14  1  0
  5 15  1  0
  6 16  1  0
  6 17  1  0
  6 18  1  0
M  END
>  <reaction>  (3) 
rmg_rxn_271

>  <mol_properties>  (3) 
{"0": {"label": "a_hydrogen", "atom_type": "H0"}, "2": {"label": "acceptor", "atom_type": "Cs"}}

>  <type>  (3) 
r2h

$$$$

     RDKit          3D

 22 20  0  0  0  0  0  0  0  0999 V2000
   -0.0686   -2.5989    0.4070 N   0  0  0  0  0  2  0  0  0  0  0  0
   -0.9008   -2.2356   -0.5777 N   0  0  0  0  0  0  0  0  0  0  0  0
    0.0452   -1.5429    1.0466 H   0  0  0  0  0  0  0  0  0  0  0  0
   -0.9223   -2.8680   -1.3636 H   0  0  0  0  0  0  0  0  0  0  0  0
   -0.9485   -1.2474   -0.8140 H   0  0  0  0  0  0  0  0  0  0  0  0
   -1.3540   -0.0750    2.1446 C   0  0  0  0  0  0  0  0  0  0  0  0
   -0.0566   -0.2192    1.4125 C   0  0  0  0  0  3  0  0  0  0  0  0
   -0.0544    0.4980    0.2299 O   0  0  0  0  0  0  0  0  0  0  0  0
    1.2101    0.5575   -0.4098 C   0  0  0  0  0  0  0  0  0  0  0  0
    1.0700    1.3077   -1.7166 C   0  0  0  0  0  0  0  0  0  0  0  0
    0.6300    2.7546   -1.5380 C   0  0  0  0  0  0  0  0  0  0  0  0
   -2.1862   -0.3952    1.5152 H   0  0  0  0  0  0  0  0  0  0  0  0
   -1.3454   -0.6973    3.0395 H   0  0  0  0  0  0  0  0  0  0  0  0
   -1.5288    0.9629    2.4431 H   0  0  0  0  0  0  0  0  0  0  0  0
    0.8438   -0.0454    2.0114 H   0  0  0  0  0  0  0  0  0  0  0  0
    1.9233    1.0666    0.2523 H   0  0  0  0  0  0  0  0  0  0  0  0
    1.5782   -0.4608   -0.5815 H   0  0  0  0  0  0  0  0  0  0  0  0
    2.0362    1.2676   -2.2265 H   0  0  0  0  0  0  0  0  0  0  0  0
    0.3589    0.7738   -2.3535 H   0  0  0  0  0  0  0  0  0  0  0  0
    1.3482    3.3069   -0.9274 H   0  0  0  0  0  0  0  0  0  0  0  0
    0.5499    3.2609   -2.5007 H   0  0  0  0  0  0  0  0  0  0  0  0
   -0.3402    2.8079   -1.0438 H   0  0  0  0  0  0  0  0  0  0  0  0
  1  2  1  0
  1  3  1  0
  2  4  1  0
  2  5  1  0
  6  7  1  0
  6 12  1  0
  6 13  1  0
  6 14  1  0
  7  8  1  0
  7 15  1  0
  8  9  1  0
  9 10  1  0
  9 16  1  0
  9 17  1  0
 10 11  1  0
 10 18  1  0
 10 19  1  0
 11 20  1  0
 11 21  1  0
 11 22  1  0
M  RAD  2   1   2   7   2
M  END
>  <reaction>  (4) 
rmg_rxn_271

>  <mol_properties>  (4) 
{"0": {"label": "*1", "atom_type": "N3s"}, "1": {"label": "*0", "atom_type": "N3s"}, "2": {"label": "*2", "atom_type": "H0"}, "6": {"label": "*3", "atom_type": "Cs"}, "7": {"label": "*4", "atom_type": "O2s"}}

>  <type>  (4) 
ts

$$$$

     RDKit          3D

 22 20  0  0  0  0  0  0  0  0999 V2000
    1.0547   -2.2927   -0.9214 N   0  0  0  0  0  2  0  0  0  0  0  0
    1.0547   -2.2927   -2.2624 N   0  0  0  0  0  0  0  0  0  0  0  0
    1.0547   -1.1169   -0.5812 H   0  0  0  0  0  0  0  0  0  0  0  0
    1.2427   -3.1927   -2.6713 H   0  0  0  0  0  0  0  0  0  0  0  0
    1.4167   -1.5043   -2.7799 H   0  0  0  0  0  0  0  0  0  0  0  0
    2.1051   -0.4706    0.6766 C   0  0  0  0  0  0  0  0  0  0  0  0
    1.0547    0.1512   -0.2142 C   0  0  0  0  0  3  0  0  0  0  0  0
   -0.0890    0.4279    0.5532 O   0  0  0  0  0  0  0  0  0  0  0  0
   -1.1291    1.0125   -0.1893 C   0  0  0  0  0  0  0  0  0  0  0  0
   -2.2972    1.3076    0.7293 C   0  0  0  0  0  0  0  0  0  0  0  0
   -1.9637    2.3222    1.8149 C   0  0  0  0  0  0  0  0  0  0  0  0
    1.7338   -1.3973    1.1157 H   0  0  0  0  0  0  0  0  0  0  0  0
    3.0043   -0.6952    0.1009 H   0  0  0  0  0  0  0  0  0  0  0  0
    2.3721    0.2105    1.4854 H   0  0  0  0  0  0  0  0  0  0  0  0
    1.4350    1.0785   -0.6676 H   0  0  0  0  0  0  0  0  0  0  0  0
   -0.7755    1.9426   -0.6617 H   0  0  0  0  0  0  0  0  0  0  0  0
   -1.4410    0.3338   -0.9967 H   0  0  0  0  0  0  0  0  0  0  0  0
   -3.1245    1.6727    0.1144 H   0  0  0  0  0  0  0  0  0  0  0  0
   -2.6288    0.3694    1.1816 H   0  0  0  0  0  0  0  0  0  0  0  0
   -1.6532    3.2740    1.3765 H   0  0  0  0  0  0  0  0  0  0  0  0
   -2.8280    2.5136    2.4525 H   0  0  0  0  0  0  0  0  0  0  0  0
   -1.1495    1.9615    2.4434 H   0  0  0  0  0  0  0  0  0  0  0  0
  1  2  1  0
  1  3  1  0
  2  4  1  0
  2  5  1  0
  6  7  1  0
  6 12  1  0
  6 13  1  0
  6 14  1  0
  7  8  1  0
  7 15  1  0
  8  9  1  0
  9 10  1  0
  9 16  1  0
  9 17  1  0
 10 11  1  0
 10 18  1  0
 10 19  1  0
 11 20  1  0
 11 21  1  0
 11 22  1  0
M  RAD  2   1   2   7   2
M  END
>  <reaction>  (5) 
rmg_rxn_271

>  <mol_properties>  (5) 
{"0": {"label": "*1", "atom_type": "N3s"}, "1": {"label": "*0", "atom_type": "N3s"}, "2": {"label": "*2", "atom_type": "H0"}, "6": {"label": "*3", "atom_type": "Cs"}, "7": {"label": "*4", "atom_type": "O2s"}}

>  <type>  (5) 
unop_1

>  <geom_source>  (5) 
Heuristics

$$$$

     RDKit          3D

 22 20  0  0  0  0  0  0  0  0999 V2000
    0.3834   -2.6581    0.5768 N   0  0  0  0  0  2  0  0  0  0  0  0
    0.3834   -2.6581   -0.7642 N   0  0  0  0  0  0  0  0  0  0  0  0
    0.3834   -1.4823    0.9171 H   0  0  0  0  0  0  0  0  0  0  0  0
    0.5714   -3.5581   -1.1730 H   0  0  0  0  0  0  0  0  0  0  0  0
    0.7454   -1.8697   -1.2817 H   0  0  0  0  0  0  0  0  0  0  0  0
   -0.5357   -0.4127    2.4670 C   0  0  0  0  0  0  0  0  0  0  0  0
    0.3834   -0.2142    1.2840 C   0  0  0  0  0  3  0  0  0  0  0  0
   -0.2769    0.5639    0.3186 O   0  0  0  0  0  0  0  0  0  0  0  0
    0.5003    0.8065   -0.8269 C   0  0  0  0  0  0  0  0  0  0  0  0
   -0.2797    1.6817   -1.7867 C   0  0  0  0  0  0  0  0  0  0  0  0
   -0.5943    3.0596   -1.2195 C   0  0  0  0  0  0  0  0  0  0  0  0
   -1.4501   -0.9211    2.1594 H   0  0  0  0  0  0  0  0  0  0  0  0
   -0.0433   -1.0161    3.2312 H   0  0  0  0  0  0  0  0  0  0  0  0
   -0.8071    0.5483    2.9054 H   0  0  0  0  0  0  0  0  0  0  0  0
    1.3115    0.2862    1.5978 H   0  0  0  0  0  0  0  0  0  0  0  0
    1.4417    1.3029   -0.5429 H   0  0  0  0  0  0  0  0  0  0  0  0
    0.7654   -0.1459   -1.3090 H   0  0  0  0  0  0  0  0  0  0  0  0
    0.3054    1.7775   -2.7055 H   0  0  0  0  0  0  0  0  0  0  0  0
   -1.2055    1.1652   -2.0532 H   0  0  0  0  0  0  0  0  0  0  0  0
    0.3240    3.5974   -0.9706 H   0  0  0  0  0  0  0  0  0  0  0  0
   -1.1507    3.6625   -1.9386 H   0  0  0  0  0  0  0  0  0  0  0  0
   -1.1904    2.9762   -0.3108 H   0  0  0  0  0  0  0  0  0  0  0  0
  1  2  1  0
  1  3  1  0
  2  4  1  0
  2  5  1  0
  6  7  1  0
  6 12  1  0
  6 13  1  0
  6 14  1  0
  7  8  1  0
  7 15  1  0
  8  9  1  0
  9 10  1  0
  9 16  1  0
  9 17  1  0
 10 11  1  0
 10 18  1  0
 10 19  1  0
 11 20  1  0
 11 21  1  0
 11 22  1  0
M  RAD  2   1   2   7   2
M  END
>  <reaction>  (6) 
rmg_rxn_271

>  <mol_properties>  (6) 
{"0": {"label": "*1", "atom_type": "N3s"}, "1": {"label": "*0", "atom_type": "N3s"}, "2": {"label": "*2", "atom_type": "H0"}, "6": {"label": "*3", "atom_type": "Cs"}, "7": {"label": "*4", "atom_type": "O2s"}}

>  <type>  (6) 
unop_2

>  <geom_source>  (6) 
Heuristics

$$$$

     RDKit          3D

 22 20  0  0  0  0  0  0  0  0999 V2000
    0.7348   -2.1329   -1.3584 N   0  0  0  0  0  2  0  0  0  0  0  0
    0.7348   -2.1329   -2.6994 N   0  0  0  0  0  0  0  0  0  0  0  0
    0.7348   -0.9571   -1.0182 H   0  0  0  0  0  0  0  0  0  0  0  0
    0.9228   -3.0329   -3.1083 H   0  0  0  0  0  0  0  0  0  0  0  0
    1.0968   -1.3445   -3.2169 H   0  0  0  0  0  0  0  0  0  0  0  0
    2.2153    0.1443   -0.3982 C   0  0  0  0  0  0  0  0  0  0  0  0
    0.7348    0.3110   -0.6512 C   0  0  0  0  0  3  0  0  0  0  0  0
    0.0745    0.4533    0.5806 O   0  0  0  0  0  0  0  0  0  0  0  0
   -1.3153    0.6163    0.4512 C   0  0  0  0  0  0  0  0  0  0  0  0
   -1.9292    0.8001    1.8240 C   0  0  0  0  0  0  0  0  0  0  0  0
   -1.4449    2.0579    2.5329 C   0  0  0  0  0  0  0  0  0  0  0  0
    2.4013   -0.7391    0.2137 H   0  0  0  0  0  0  0  0  0  0  0  0
    2.7499    0.0311   -1.3427 H   0  0  0  0  0  0  0  0  0  0  0  0
    2.6142    1.0147    0.1239 H   0  0  0  0  0  0  0  0  0  0  0  0
    0.5493    1.1943   -1.2800 H   0  0  0  0  0  0  0  0  0  0  0  0
   -1.5328    1.4923   -0.1804 H   0  0  0  0  0  0  0  0  0  0  0  0
   -1.7512   -0.2621   -0.0469 H   0  0  0  0  0  0  0  0  0  0  0  0
   -3.0158    0.8299    1.7051 H   0  0  0  0  0  0  0  0  0  0  0  0
   -1.7007   -0.0823    2.4274 H   0  0  0  0  0  0  0  0  0  0  0  0
   -1.6882    2.9509    1.9516 H   0  0  0  0  0  0  0  0  0  0  0  0
   -1.9110    2.1599    3.5140 H   0  0  0  0  0  0  0  0  0  0  0  0
   -0.3639    2.0318    2.6700 H   0  0  0  0  0  0  0  0  0  0  0  0
  1  2  1  0
  1  3  1  0
  2  4  1  0
  2  5  1  0
  6  7  1  0
  6 12  1  0
  6 13  1  0
  6 14  1  0
  7  8  1  0
  7 15  1  0
  8  9  1  0
  9 10  1  0
  9 16  1  0
  9 17  1  0
 10 11  1  0
 10 18  1  0
 10 19  1  0
 11 20  1  0
 11 21  1  0
 11 22  1  0
M  RAD  2   1   2   7   2
M  END
>  <reaction>  (7) 
rmg_rxn_271

>  <mol_properties>  (7) 
{"0": {"label": "*1", "atom_type": "N3s"}, "1": {"label": "*0", "atom_type": "N3s"}, "2": {"label": "*2", "atom_type": "H0"}, "6": {"label": "*3", "atom_type": "Cs"}, "7": {"label": "*4", "atom_type": "O2s"}}

>  <type>  (7) 
unop_3

>  <geom_source>  (7) 
Heuristics

$$$$

     RDKit          3D

 22 20  0  0  0  0  0  0  0  0999 V2000
   -1.1906   -2.2688   -0.0466 N   0  0  0  0  0  2  0  0  0  0  0  0
   -1.1906   -2.2688   -1.3876 N   0  0  0  0  0  0  0  0  0  0  0  0
   -1.1906   -1.0930    0.2937 H   0  0  0  0  0  0  0  0  0  0  0  0
   -1.0026   -3.1688   -1.7964 H   0  0  0  0  0  0  0  0  0  0  0  0
   -0.8286   -1.4804   -1.9050 H   0  0  0  0  0  0  0  0  0  0  0  0
   -2.2930    1.1946    0.8304 C   0  0  0  0  0  0  0  0  0  0  0  0
   -1.1906    0.1751    0.6606 C   0  0  0  0  0  3  0  0  0  0  0  0
   -0.0469    0.8189    0.1595 O   0  0  0  0  0  0  0  0  0  0  0  0
    1.0409   -0.0497   -0.0333 C   0  0  0  0  0  0  0  0  0  0  0  0
    2.2317    0.7408   -0.5356 C   0  0  0  0  0  0  0  0  0  0  0  0
    2.7241    1.7805    0.4623 C   0  0  0  0  0  0  0  0  0  0  0  0
   -2.5328    1.6610   -0.1258 H   0  0  0  0  0  0  0  0  0  0  0  0
   -3.1936    0.7165    1.2189 H   0  0  0  0  0  0  0  0  0  0  0  0
   -1.9871    1.9758    1.5272 H   0  0  0  0  0  0  0  0  0  0  0  0
   -0.9591   -0.3047    1.6230 H   0  0  0  0  0  0  0  0  0  0  0  0
    1.2928   -0.5510    0.9147 H   0  0  0  0  0  0  0  0  0  0  0  0
    0.7714   -0.8337   -0.7561 H   0  0  0  0  0  0  0  0  0  0  0  0
    3.0321    0.0325   -0.7668 H   0  0  0  0  0  0  0  0  0  0  0  0
    1.9555    1.2246   -1.4760 H   0  0  0  0  0  0  0  0  0  0  0  0
    3.0267    1.3078    1.4001 H   0  0  0  0  0  0  0  0  0  0  0  0
    3.5838    2.3254    0.0696 H   0  0  0  0  0  0  0  0  0  0  0  0
    1.9381    2.5009    0.6887 H   0  0  0  0  0  0  0  0  0  0  0  0
  1  2  1  0
  1  3  1  0
  2  4  1  0
  2  5  1  0
  6  7  1  0
  6 12  1  0
  6 13  1  0
  6 14  1  0
  7  8  1  0
  7 15  1  0
  8  9  1  0
  9 10  1  0
  9 16  1  0
  9 17  1  0
 10 11  1  0
 10 18  1  0
 10 19  1  0
 11 20  1  0
 11 21  1  0
 11 22  1  0
M  RAD  2   1   2   7   2
M  END
>  <reaction>  (8) 
rmg_rxn_271

>  <mol_properties>  (8) 
{"0": {"label": "*1", "atom_type": "N3s"}, "1": {"label": "*0", "atom_type": "N3s"}, "2": {"label": "*2", "atom_type": "H0"}, "6": {"label": "*3", "atom_type": "Cs"}, "7": {"label": "*4", "atom_type": "O2s"}}

>  <type>  (8) 
unop_4

>  <geom_source>  (8) 
Heuristics

$$$$

     RDKit          3D

 22 20  0  0  0  0  0  0  0  0999 V2000
    0.2449   -1.9537   -1.6058 N   0  0  0  0  0  2  0  0  0  0  0  0
    0.2449   -1.9537   -2.9468 N   0  0  0  0  0  0  0  0  0  0  0  0
    0.2449   -0.7780   -1.2656 H   0  0  0  0  0  0  0  0  0  0  0  0
    0.4328   -2.8537   -3.3557 H   0  0  0  0  0  0  0  0  0  0  0  0
    0.6069   -1.1653   -3.4643 H   0  0  0  0  0  0  0  0  0  0  0  0
    1.4677    1.1958   -1.4375 C   0  0  0  0  0  0  0  0  0  0  0  0
    0.2449    0.4902   -0.8986 C   0  0  0  0  0  3  0  0  0  0  0  0
    0.2449    0.5833    0.5031 O   0  0  0  0  0  0  0  0  0  0  0  0
   -0.8598   -0.0456    1.1024 C   0  0  0  0  0  0  0  0  0  0  0  0
   -0.7907    0.1424    2.6042 C   0  0  0  0  0  0  0  0  0  0  0  0
   -0.8838    1.6017    3.0297 C   0  0  0  0  0  0  0  0  0  0  0  0
    2.3767    0.7374   -1.0466 H   0  0  0  0  0  0  0  0  0  0  0  0
    1.4895    1.1360   -2.5268 H   0  0  0  0  0  0  0  0  0  0  0  0
    1.4607    2.2473   -1.1480 H   0  0  0  0  0  0  0  0  0  0  0  0
   -0.6712    0.9444   -1.3043 H   0  0  0  0  0  0  0  0  0  0  0  0
   -1.7946    0.3852    0.7102 H   0  0  0  0  0  0  0  0  0  0  0  0
   -0.8631   -1.1166    0.8521 H   0  0  0  0  0  0  0  0  0  0  0  0
   -1.6052   -0.4330    3.0528 H   0  0  0  0  0  0  0  0  0  0  0  0
    0.1432   -0.2952    2.9662 H   0  0  0  0  0  0  0  0  0  0  0  0
   -1.8245    2.0460    2.6947 H   0  0  0  0  0  0  0  0  0  0  0  0
   -0.8362    1.6980    4.1154 H   0  0  0  0  0  0  0  0  0  0  0  0
   -0.0675    2.1821    2.5998 H   0  0  0  0  0  0  0  0  0  0  0  0
  1  2  1  0
  1  3  1  0
  2  4  1  0
  2  5  1  0
  6  7  1  0
  6 12  1  0
  6 13  1  0
  6 14  1  0
  7  8  1  0
  7 15  1  0
  8  9  1  0
  9 10  1  0
  9 16  1  0
  9 17  1  0
 10 11  1  0
 10 18  1  0
 10 19  1  0
 11 20  1  0
 11 21  1  0
 11 22  1  0
M  RAD  2   1   2   7   2
M  END
>  <reaction>  (9) 
rmg_rxn_271

>  <mol_properties>  (9) 
{"0": {"label": "*1", "atom_type": "N3s"}, "1": {"label": "*0", "atom_type": "N3s"}, "2": {"label": "*2", "atom_type": "H0"}, "6": {"label": "*3", "atom_type": "Cs"}, "7": {"label": "*4", "atom_type": "O2s"}}

>  <type>  (9) 
unop_5

>  <geom_source>  (9) 
Heuristics

$$$$

     RDKit          3D

 22 20  0  0  0  0  0  0  0  0999 V2000
   -1.2440   -2.0649   -0.6484 N   0  0  0  0  0  2  0  0  0  0  0  0
   -1.2440   -2.0649   -1.9893 N   0  0  0  0  0  0  0  0  0  0  0  0
   -1.2440   -0.8892   -0.3081 H   0  0  0  0  0  0  0  0  0  0  0  0
   -1.0560   -2.9649   -2.3982 H   0  0  0  0  0  0  0  0  0  0  0  0
   -0.8820   -1.2765   -2.5068 H   0  0  0  0  0  0  0  0  0  0  0  0
   -2.1636    1.5668   -0.1054 C   0  0  0  0  0  0  0  0  0  0  0  0
   -1.2440    0.3790    0.0588 C   0  0  0  0  0  3  0  0  0  0  0  0
    0.0766    0.8392    0.1920 O   0  0  0  0  0  0  0  0  0  0  0  0
    1.0131   -0.1963    0.3520 C   0  0  0  0  0  0  0  0  0  0  0  0
    2.3953    0.3992    0.5259 C   0  0  0  0  0  0  0  0  0  0  0  0
    2.5261    1.2521    1.7808 C   0  0  0  0  0  0  0  0  0  0  0  0
   -1.8917    2.1408   -0.9919 H   0  0  0  0  0  0  0  0  0  0  0  0
   -3.1970    1.2331   -0.2115 H   0  0  0  0  0  0  0  0  0  0  0  0
   -2.0985    2.2234    0.7629 H   0  0  0  0  0  0  0  0  0  0  0  0
   -1.5277   -0.2072    0.9454 H   0  0  0  0  0  0  0  0  0  0  0  0
    0.7511   -0.8062    1.2311 H   0  0  0  0  0  0  0  0  0  0  0  0
    0.9916   -0.8603   -0.5246 H   0  0  0  0  0  0  0  0  0  0  0  0
    3.1149   -0.4237    0.5535 H   0  0  0  0  0  0  0  0  0  0  0  0
    2.6301    0.9958   -0.3594 H   0  0  0  0  0  0  0  0  0  0  0  0
    2.3173    0.6618    2.6765 H   0  0  0  0  0  0  0  0  0  0  0  0
    3.5339    1.6590    1.8757 H   0  0  0  0  0  0  0  0  0  0  0  0
    1.8230    2.0846    1.7568 H   0  0  0  0  0  0  0  0  0  0  0  0
  1  2  1  0
  1  3  1  0
  2  4  1  0
  2  5  1  0
  6  7  1  0
  6 12  1  0
  6 13  1  0
  6 14  1  0
  7  8  1  0
  7 15  1  0
  8  9  1  0
  9 10  1  0
  9 16  1  0
  9 17  1  0
 10 11  1  0
 10 18  1  0
 10 19  1  0
 11 20  1  0
 11 21  1  0
 11 22  1  0
M  RAD  2   1   2   7   2
M  END
>  <reaction>  (10) 
rmg_rxn_271

>  <mol_properties>  (10) 
{"0": {"label": "*1", "atom_type": "N3s"}, "1": {"label": "*0", "atom_type": "N3s"}, "2": {"label": "*2", "atom_type": "H0"}, "6": {"label": "*3", "atom_type": "Cs"}, "7": {"label": "*4", "atom_type": "O2s"}}

>  <type>  (10) 
unop_6

>  <geom_source>  (10) 
Heuristics

$$$$

     RDKit          3D

 22 20  0  0  0  0  0  0  0  0999 V2000
   -0.9628   -1.9009   -1.2137 N   0  0  0  0  0  2  0  0  0  0  0  0
   -0.9628   -1.9009   -2.5546 N   0  0  0  0  0  0  0  0  0  0  0  0
   -0.9628   -0.7251   -0.8734 H   0  0  0  0  0  0  0  0  0  0  0  0
   -0.7748   -2.8009   -2.9635 H   0  0  0  0  0  0  0  0  0  0  0  0
   -0.6008   -1.1125   -3.0721 H   0  0  0  0  0  0  0  0  0  0  0  0
   -1.5167    1.8407   -1.0474 C   0  0  0  0  0  0  0  0  0  0  0  0
   -0.9628    0.5430   -0.5065 C   0  0  0  0  0  3  0  0  0  0  0  0
    0.1809    0.8197    0.2610 O   0  0  0  0  0  0  0  0  0  0  0  0
    0.7726   -0.3298    0.8119 C   0  0  0  0  0  0  0  0  0  0  0  0
    1.9688    0.0737    1.6496 C   0  0  0  0  0  0  0  0  0  0  0  0
    1.5974    0.9421    2.8443 C   0  0  0  0  0  0  0  0  0  0  0  0
   -0.7765    2.3411   -1.6726 H   0  0  0  0  0  0  0  0  0  0  0  0
   -2.4072    1.6503   -1.6486 H   0  0  0  0  0  0  0  0  0  0  0  0
   -1.7866    2.5110   -0.2305 H   0  0  0  0  0  0  0  0  0  0  0  0
   -1.7149    0.0322    0.1127 H   0  0  0  0  0  0  0  0  0  0  0  0
    0.0395   -0.8672    1.4341 H   0  0  0  0  0  0  0  0  0  0  0  0
    1.0832   -1.0137    0.0084 H   0  0  0  0  0  0  0  0  0  0  0  0
    2.4654   -0.8398    1.9884 H   0  0  0  0  0  0  0  0  0  0  0  0
    2.6795    0.6015    1.0085 H   0  0  0  0  0  0  0  0  0  0  0  0
    0.9051    0.4172    3.5073 H   0  0  0  0  0  0  0  0  0  0  0  0
    2.4811    1.2082    3.4261 H   0  0  0  0  0  0  0  0  0  0  0  0
    1.1146    1.8629    2.5170 H   0  0  0  0  0  0  0  0  0  0  0  0
  1  2  1  0
  1  3  1  0
  2  4  1  0
  2  5  1  0
  6  7  1  0
  6 12  1  0
  6 13  1  0
  6 14  1  0
  7  8  1  0
  7 15  1  0
  8  9  1  0
  9 10  1  0
  9 16  1  0
  9 17  1  0
 10 11  1  0
 10 18  1  0
 10 19  1  0
 11 20  1  0
 11 21  1  0
 11 22  1  0
M  RAD  2   1   2   7   2
M  END
>  <reaction>  (11) 
rmg_rxn_271

>  <mol_properties>  (11) 
{"0": {"label": "*1", "atom_type": "N3s"}, "1": {"label": "*0", "atom_type": "N3s"}, "2": {"label": "*2", "atom_type": "H0"}, "6": {"label": "*3", "atom_type": "Cs"}, "7": {"label": "*4", "atom_type": "O2s"}}

>  <type>  (11) 
unop_7

>  <geom_source>  (11) 
Heuristics

$$$$

     RDKit          3D

 22 20  0  0  0  0  0  0  0  0999 V2000
    1.1278   -2.4558   -0.3568 N   0  0  0  0  0  2  0  0  0  0  0  0
    1.1278   -2.4558   -1.6978 N   0  0  0  0  0  0  0  0  0  0  0  0
    1.1278   -1.2800   -0.0166 H   0  0  0  0  0  0  0  0  0  0  0  0
    1.3158   -3.3558   -2.1067 H   0  0  0  0  0  0  0  0  0  0  0  0
    1.4898   -1.6674   -2.2153 H   0  0  0  0  0  0  0  0  0  0  0  0
    1.5241   -0.7390    1.6144 C   0  0  0  0  0  0  0  0  0  0  0  0
    1.1278   -0.0119    0.3504 C   0  0  0  0  0  3  0  0  0  0  0  0
   -0.1928    0.4483    0.4835 O   0  0  0  0  0  0  0  0  0  0  0  0
   -0.6566    1.1428   -0.6468 C   0  0  0  0  0  0  0  0  0  0  0  0
   -2.0683    1.6302   -0.3923 C   0  0  0  0  0  0  0  0  0  0  0  0
   -2.1593    2.6289    0.7539 C   0  0  0  0  0  0  0  0  0  0  0  0
    0.8632   -1.5886    1.7897 H   0  0  0  0  0  0  0  0  0  0  0  0
    2.5482   -1.1068    1.5338 H   0  0  0  0  0  0  0  0  0  0  0  0
    1.4620   -0.0715    2.4746 H   0  0  0  0  0  0  0  0  0  0  0  0
    1.8035    0.8365    0.1669 H   0  0  0  0  0  0  0  0  0  0  0  0
    0.0055    1.9970   -0.8597 H   0  0  0  0  0  0  0  0  0  0  0  0
   -0.6337    0.4840   -1.5273 H   0  0  0  0  0  0  0  0  0  0  0  0
   -2.4394    2.0828   -1.3160 H   0  0  0  0  0  0  0  0  0  0  0  0
   -2.7028    0.7642   -0.1867 H   0  0  0  0  0  0  0  0  0  0  0  0
   -1.5479    3.5117    0.5509 H   0  0  0  0  0  0  0  0  0  0  0  0
   -3.1874    2.9613    0.9044 H   0  0  0  0  0  0  0  0  0  0  0  0
   -1.8055    2.1830    1.6834 H   0  0  0  0  0  0  0  0  0  0  0  0
  1  2  1  0
  1  3  1  0
  2  4  1  0
  2  5  1  0
  6  7  1  0
  6 12  1  0
  6 13  1  0
  6 14  1  0
  7  8  1  0
  7 15  1  0
  8  9  1  0
  9 10  1  0
  9 16  1  0
  9 17  1  0
 10 11  1  0
 10 18  1  0
 10 19  1  0
 11 20  1  0
 11 21  1  0
 11 22  1  0
M  RAD  2   1   2   7   2
M  END
>  <reaction>  (12) 
rmg_rxn_271

>  <mol_properties>  (12) 
{"0": {"label": "*1", "atom_type": "N3s"}, "1": {"label": "*0", "atom_type": "N3s"}, "2": {"label": "*2", "atom_type": "H0"}, "6": {"label": "*3", "atom_type": "Cs"}, "7": {"label": "*4", "atom_type": "O2s"}}

>  <type>  (12) 
unop_8

>  <geom_source>  (12) 
Heuristics

$$$$

     RDKit          3D

 22 20  0  0  0  0  0  0  0  0999 V2000
   -0.8302   -2.4653    0.4330 N   0  0  0  0  0  2  0  0  0  0  0  0
   -0.8302   -2.4653   -0.9080 N   0  0  0  0  0  0  0  0  0  0  0  0
   -0.8302   -1.2895    0.7733 H   0  0  0  0  0  0  0  0  0  0  0  0
   -0.6423   -3.3653   -1.3168 H   0  0  0  0  0  0  0  0  0  0  0  0
   -0.4683   -1.6769   -1.4254 H   0  0  0  0  0  0  0  0  0  0  0  0
   -2.0542    0.7246    1.6187 C   0  0  0  0  0  0  0  0  0  0  0  0
   -0.8302   -0.0214    1.1402 C   0  0  0  0  0  3  0  0  0  0  0  0
   -0.1699    0.7567    0.1748 O   0  0  0  0  0  0  0  0  0  0  0  0
    0.9889    0.1461   -0.3343 C   0  0  0  0  0  0  0  0  0  0  0  0
    1.6479    1.0745   -1.3338 C   0  0  0  0  0  0  0  0  0  0  0  0
    2.1257    2.3805   -0.7130 C   0  0  0  0  0  0  0  0  0  0  0  0
   -2.7329    0.9184    0.7874 H   0  0  0  0  0  0  0  0  0  0  0  0
   -2.5847    0.1380    2.3704 H   0  0  0  0  0  0  0  0  0  0  0  0
   -1.7705    1.6802    2.0612 H   0  0  0  0  0  0  0  0  0  0  0  0
   -0.1528   -0.2286    1.9817 H   0  0  0  0  0  0  0  0  0  0  0  0
    1.6859   -0.0797    0.4883 H   0  0  0  0  0  0  0  0  0  0  0  0
    0.7297   -0.8089   -0.8145 H   0  0  0  0  0  0  0  0  0  0  0  0
    2.4901    0.5413   -1.7834 H   0  0  0  0  0  0  0  0  0  0  0  0
    0.9369    1.2795   -2.1384 H   0  0  0  0  0  0  0  0  0  0  0  0
    2.8560    2.1918    0.0778 H   0  0  0  0  0  0  0  0  0  0  0  0
    2.5987    3.0202   -1.4596 H   0  0  0  0  0  0  0  0  0  0  0  0
    1.2911    2.9276   -0.2746 H   0  0  0  0  0  0  0  0  0  0  0  0
  1  2  1  0
  1  3  1  0
  2  4  1  0
  2  5  1  0
  6  7  1  0
  6 12  1  0
  6 13  1  0
  6 14  1  0
  7  8  1  0
  7 15  1  0
  8  9  1  0
  9 10  1  0
  9 16  1  0
  9 17  1  0
 10 11  1  0
 10 18  1  0
 10 19  1  0
 11 20  1  0
 11 21  1  0
 11 22  1  0
M  RAD  2   1   2   7   2
M  END
>  <reaction>  (13) 
rmg_rxn_271

>  <mol_properties>  (13) 
{"0": {"label": "*1", "atom_type": "N3s"}, "1": {"label": "*0", "atom_type": "N3s"}, "2": {"label": "*2", "atom_type": "H0"}, "6": {"label": "*3", "atom_type": "Cs"}, "7": {"label": "*4", "atom_type": "O2s"}}

>  <type>  (13) 
unop_9

>  <geom_source>  (13) 
Heuristics

$$$$

     RDKit          3D

 22 20  0  0  0  0  0  0  0  0999 V2000
    0.8914   -2.5946    0.1964 N   0  0  0  0  0  2  0  0  0  0  0  0
    0.8914   -2.5946   -1.1446 N   0  0  0  0  0  0  0  0  0  0  0  0
    0.8914   -1.4188    0.5367 H   0  0  0  0  0  0  0  0  0  0  0  0
    1.0793   -3.4945   -1.5534 H   0  0  0  0  0  0  0  0  0  0  0  0
    1.2533   -1.8062   -1.6621 H   0  0  0  0  0  0  0  0  0  0  0  0
    0.5738   -0.7272    2.2639 C   0  0  0  0  0  0  0  0  0  0  0  0
    0.8914   -0.1506    0.9036 C   0  0  0  0  0  3  0  0  0  0  0  0
   -0.2523    0.4931    0.4025 O   0  0  0  0  0  0  0  0  0  0  0  0
   -0.0573    1.0664   -0.8657 C   0  0  0  0  0  0  0  0  0  0  0  0
   -1.3283    1.7668   -1.3008 C   0  0  0  0  0  0  0  0  0  0  0  0
   -1.7125    2.9280   -0.3936 C   0  0  0  0  0  0  0  0  0  0  0  0
   -0.2420   -1.4473    2.1927 H   0  0  0  0  0  0  0  0  0  0  0  0
    1.4491   -1.2338    2.6735 H   0  0  0  0  0  0  0  0  0  0  0  0
    0.2759    0.0631    2.9538 H   0  0  0  0  0  0  0  0  0  0  0  0
    1.7236    0.5652    0.9742 H   0  0  0  0  0  0  0  0  0  0  0  0
    0.7764    1.7853   -0.8279 H   0  0  0  0  0  0  0  0  0  0  0  0
    0.2160    0.2867   -1.5918 H   0  0  0  0  0  0  0  0  0  0  0  0
   -1.1829    2.1215   -2.3250 H   0  0  0  0  0  0  0  0  0  0  0  0
   -2.1366    1.0316   -1.3321 H   0  0  0  0  0  0  0  0  0  0  0  0
   -0.9228    3.6831   -0.3716 H   0  0  0  0  0  0  0  0  0  0  0  0
   -2.6275    3.4108   -0.7399 H   0  0  0  0  0  0  0  0  0  0  0  0
   -1.8745    2.5829    0.6275 H   0  0  0  0  0  0  0  0  0  0  0  0
  1  2  1  0
  1  3  1  0
  2  4  1  0
  2  5  1  0
  6  7  1  0
  6 12  1  0
  6 13  1  0
  6 14  1  0
  7  8  1  0
  7 15  1  0
  8  9  1  0
  9 10  1  0
  9 16  1  0
  9 17  1  0
 10 11  1  0
 10 18  1  0
 10 19  1  0
 11 20  1  0
 11 21  1  0
 11 22  1  0
M  RAD  2   1   2   7   2
M  END
>  <reaction>  (14) 
rmg_rxn_271

>  <mol_properties>  (14) 
{"0": {"label": "*1", "atom_type": "N3s"}, "1": {"label": "*0", "atom_type": "N3s"}, "2": {"label": "*2", "atom_type": "H0"}, "6": {"label": "*3", "atom_type": "Cs"}, "7": {"label": "*4", "atom_type": "O2s"}}

>  <type>  (14) 
unop_10

>  <geom_source>  (14) 
Heuristics

$$$$

     RDKit          3D

 22 20  0  0  0  0  0  0  0  0999 V2000
   -0.4018   -1.8417   -1.5756 N   0  0  0  0  0  2  0  0  0  0  0  0
   -0.4018   -1.8417   -2.9166 N   0  0  0  0  0  0  0  0  0  0  0  0
   -0.4018   -0.6659   -1.2353 H   0  0  0  0  0  0  0  0  0  0  0  0
   -0.2139   -2.7417   -3.3254 H   0  0  0  0  0  0  0  0  0  0  0  0
   -0.0399   -1.0533   -3.4341 H   0  0  0  0  0  0  0  0  0  0  0  0
   -0.2048    1.8620   -1.6794 C   0  0  0  0  0  0  0  0  0  0  0  0
   -0.4018    0.6022   -0.8684 C   0  0  0  0  0  3  0  0  0  0  0  0
    0.2585    0.7445    0.3634 O   0  0  0  0  0  0  0  0  0  0  0  0
    0.1329   -0.3812    1.1952 C   0  0  0  0  0  0  0  0  0  0  0  0
    0.8415   -0.1169    2.5080 C   0  0  0  0  0  0  0  0  0  0  0  0
    0.2295    1.0323    3.2979 C   0  0  0  0  0  0  0  0  0  0  0  0
    0.8562    2.0391   -1.8585 H   0  0  0  0  0  0  0  0  0  0  0  0
   -0.7096    1.7742   -2.6428 H   0  0  0  0  0  0  0  0  0  0  0  0
   -0.6133    2.7243   -1.1512 H   0  0  0  0  0  0  0  0  0  0  0  0
   -1.4730    0.4168   -0.7001 H   0  0  0  0  0  0  0  0  0  0  0  0
   -0.9321   -0.5959    1.3772 H   0  0  0  0  0  0  0  0  0  0  0  0
    0.5643   -1.2635    0.7000 H   0  0  0  0  0  0  0  0  0  0  0  0
    0.8109   -1.0373    3.0978 H   0  0  0  0  0  0  0  0  0  0  0  0
    1.8942    0.0902    2.2987 H   0  0  0  0  0  0  0  0  0  0  0  0
   -0.8176    0.8279    3.5351 H   0  0  0  0  0  0  0  0  0  0  0  0
    0.7609    1.1898    4.2375 H   0  0  0  0  0  0  0  0  0  0  0  0
    0.2683    1.9586    2.7247 H   0  0  0  0  0  0  0  0  0  0  0  0
  1  2  1  0
  1  3  1  0
  2  4  1  0
  2  5  1  0
  6  7  1  0
  6 12  1  0
  6 13  1  0
  6 14  1  0
  7  8  1  0
  7 15  1  0
  8  9  1  0
  9 10  1  0
  9 16  1  0
  9 17  1  0
 10 11  1  0
 10 18  1  0
 10 19  1  0
 11 20  1  0
 11 21  1  0
 11 22  1  0
M  RAD  2   1   2   7   2
M  END
>  <reaction>  (15) 
rmg_rxn_271

>  <mol_properties>  (15) 
{"0": {"label": "*1", "atom_type": "N3s"}, "1": {"label": "*0", "atom_type": "N3s"}, "2": {"label": "*2", "atom_type": "H0"}, "6": {"label": "*3", "atom_type": "Cs"}, "7": {"label": "*4", "atom_type": "O2s"}}

>  <type>  (15) 
unop_11

>  <geom_source>  (15) 
Heuristics

$$$$

     RDKit          3D

 22 20  0  0  0  0  0  0  0  0999 V2000
   -0.2543   -2.6106    0.6641 N   0  0  0  0  0  2  0  0  0  0  0  0
   -0.2543   -2.6106   -0.6769 N   0  0  0  0  0  0  0  0  0  0  0  0
   -0.2543   -1.4348    1.0043 H   0  0  0  0  0  0  0  0  0  0  0  0
   -0.0663   -3.5105   -1.0858 H   0  0  0  0  0  0  0  0  0  0  0  0
    0.1077   -1.8222   -1.1944 H   0  0  0  0  0  0  0  0  0  0  0  0
   -1.4771    0.1422    2.2037 C   0  0  0  0  0  0  0  0  0  0  0  0
   -0.2543   -0.1666    1.3713 C   0  0  0  0  0  3  0  0  0  0  0  0
   -0.2543    0.6606    0.2359 O   0  0  0  0  0  0  0  0  0  0  0  0
    0.8504    0.4490   -0.6067 C   0  0  0  0  0  0  0  0  0  0  0  0
    0.7813    1.4099   -1.7760 C   0  0  0  0  0  0  0  0  0  0  0  0
    0.8745    2.8709   -1.3564 C   0  0  0  0  0  0  0  0  0  0  0  0
   -2.3861   -0.0367    1.6284 H   0  0  0  0  0  0  0  0  0  0  0  0
   -1.4988   -0.4901    3.0927 H   0  0  0  0  0  0  0  0  0  0  0  0
   -1.4701    1.1857    2.5204 H   0  0  0  0  0  0  0  0  0  0  0  0
    0.6618    0.0007    1.9568 H   0  0  0  0  0  0  0  0  0  0  0  0
    1.7852    0.6038   -0.0450 H   0  0  0  0  0  0  0  0  0  0  0  0
    0.8537   -0.5902   -0.9669 H   0  0  0  0  0  0  0  0  0  0  0  0
    1.5958    1.1629   -2.4626 H   0  0  0  0  0  0  0  0  0  0  0  0
   -0.1526    1.2333   -2.3158 H   0  0  0  0  0  0  0  0  0  0  0  0
    1.8151    3.0676   -0.8360 H   0  0  0  0  0  0  0  0  0  0  0  0
    0.8269    3.5321   -2.2230 H   0  0  0  0  0  0  0  0  0  0  0  0
    0.0581    3.1320   -0.6830 H   0  0  0  0  0  0  0  0  0  0  0  0
  1  2  1  0
  1  3  1  0
  2  4  1  0
  2  5  1  0
  6  7  1  0
  6 12  1  0
  6 13  1  0
  6 14  1  0
  7  8  1  0
  7 15  1  0
  8  9  1  0
  9 10  1  0
  9 16  1  0
  9 17  1  0
 10 11  1  0
 10 18  1  0
 10 19  1  0
 11 20  1  0
 11 21  1  0
 11 22  1  0
M  RAD  2   1   2   7   2
M  END
>  <reaction>  (16) 
rmg_rxn_271

>  <mol_properties>  (16) 
{"0": {"label": "*1", "atom_type": "N3s"}, "1": {"label": "*0", "atom_type": "N3s"}, "2": {"label": "*2", "atom_type": "H0"}, "6": {"label": "*3", "atom_type": "Cs"}, "7": {"label": "*4", "atom_type": "O2s"}}

>  <type>  (16) 
unop_12

>  <geom_source>  (16) 
Heuristics

$$$$

     RDKit          3D

 22 20  0  0  0  0  0  0  0  0999 V2000
    0.3834   -2.6581    0.5768 N   0  0  0  0  0  2  0  0  0  0  0  0
    0.3834   -2.6581   -0.7642 N   0  0  0  0  0  0  0  0  0  0  0  0
    0.3834   -1.4823    0.9171 H   0  0  0  0  0  0  0  0  0  0  0  0
    0.5714   -3.5581   -1.1730 H   0  0  0  0  0  0  0  0  0  0  0  0
    0.7454   -1.8697   -1.2816 H   0  0  0  0  0  0  0  0  0  0  0  0
   -0.5356   -0.4127    2.4670 C   0  0  0  0  0  0  0  0  0  0  0  0
    0.3834   -0.2142    1.2840 C   0  0  0  0  0  3  0  0  0  0  0  0
   -0.2769    0.5639    0.3186 O   0  0  0  0  0  0  0  0  0  0  0  0
    0.5003    0.8065   -0.8269 C   0  0  0  0  0  0  0  0  0  0  0  0
   -0.2797    1.6817   -1.7867 C   0  0  0  0  0  0  0  0  0  0  0  0
   -0.5943    3.0596   -1.2195 C   0  0  0  0  0  0  0  0  0  0  0  0
   -1.4501   -0.9211    2.1594 H   0  0  0  0  0  0  0  0  0  0  0  0
   -0.0433   -1.0160    3.2312 H   0  0  0  0  0  0  0  0  0  0  0  0
   -0.8071    0.5483    2.9054 H   0  0  0  0  0  0  0  0  0  0  0  0
    1.3115    0.2862    1.5978 H   0  0  0  0  0  0  0  0  0  0  0  0
    1.4418    1.3029   -0.5429 H   0  0  0  0  0  0  0  0  0  0  0  0
    0.7654   -0.1459   -1.3090 H   0  0  0  0  0  0  0  0  0  0  0  0
    0.3054    1.7775   -2.7055 H   0  0  0  0  0  0  0  0  0  0  0  0
   -1.2055    1.1652   -2.0532 H   0  0  0  0  0  0  0  0  0  0  0  0
    0.3240    3.5974   -0.9706 H   0  0  0  0  0  0  0  0  0  0  0  0
   -1.1507    3.6625   -1.9386 H   0  0  0  0  0  0  0  0  0  0  0  0
   -1.1904    2.9762   -0.3108 H   0  0  0  0  0  0  0  0  0  0  0  0
  1  2  1  0
  1  3  1  0
  2  4  1  0
  2  5  1  0
  6  7  1  0
  6 12  1  0
  6 13  1  0
  6 14  1  0
  7  8  1  0
  7 15  1  0
  8  9  1  0
  9 10  1  0
  9 16  1  0
  9 17  1  0
 10 11  1  0
 10 18  1  0
 10 19  1  0
 11 20  1  0
 11 21  1  0
 11 22  1  0
M  RAD  2   1   2   7   2
M  END
>  <reaction>  (17) 
rmg_rxn_271

>  <mol_properties>  (17) 
{"0": {"label": "*1", "atom_type": "N3s"}, "1": {"label": "*0", "atom_type": "N3s"}, "2": {"label": "*2", "atom_type": "H0"}, "6": {"label": "*3", "atom_type": "Cs"}, "7": {"label": "*4", "atom_type": "O2s"}}

>  <type>  (17) 
unop_13

>  <geom_source>  (17) 
gaussian_log

$$$$
