
     RDKit          3D

 10  9  0  0  0  0  0  0  0  0999 V2000
    2.0403   -0.0572    0.0117 C   0  0  0  0  0  0  0  0  0  0  0  0
    0.5945   -0.0167    0.1897 C   0  0  0  0  0  0  0  0  0  0  0  0
   -0.5945    0.0167    0.3360 C   0  0  0  0  0  0  0  0  0  0  0  0
   -2.0403    0.0572    0.5140 C   0  0  0  0  0  0  0  0  0  0  0  0
    2.4740    0.9384    0.1199 H   0  0  0  0  0  0  0  0  0  0  0  0
    2.3002   -0.4325   -0.9795 H   0  0  0  0  0  0  0  0  0  0  0  0
    2.5055   -0.7101    0.7522 H   0  0  0  0  0  0  0  0  0  0  0  0
   -2.5536   -0.2605   -0.3952 H   0  0  0  0  0  0  0  0  0  0  0  0
   -2.3748    1.0678    0.7547 H   0  0  0  0  0  0  0  0  0  0  0  0
   -2.3514   -0.6032    1.3253 H   0  0  0  0  0  0  0  0  0  0  0  0
  1  2  1  0
  1  5  1  0
  1  6  1  0
  1  7  1  0
  2  3  3  0
  3  4  1  0
  4  8  1  0
  4  9  1  0
  4 10  1  0
M  END
>  <reaction>  (1) 
rmg_rxn_230

>  <mol_properties>  (1) 
{"3": {"label": "donator", "atom_type": "Cs"}, "9": {"label": "d_hydrogen", "atom_type": "H0"}}

>  <type>  (1) 
r1h

$$$$

     RDKit          3D

 17 16  0  0  0  0  0  0  0  0999 V2000
    2.3128   -0.1525    1.1777 C   0  0  0  0  0  3  0  0  0  0  0  0
    1.7469    0.7266    0.1254 C   0  0  0  0  0  0  0  0  0  0  0  0
    1.6374    2.1830    0.5408 C   0  0  0  0  0  0  0  0  0  0  0  0
    2.9245    2.6874    0.7877 O   0  0  0  0  0  0  0  0  0  0  0  0
    2.9227    4.0197    1.2361 C   0  0  0  0  0  0  0  0  0  0  0  0
    4.3491    4.4603    1.4693 C   0  0  0  0  0  0  0  0  0  0  0  0
    2.1393   -1.2196    1.1557 H   0  0  0  0  0  0  0  0  0  0  0  0
    3.0313    0.2400    1.8838 H   0  0  0  0  0  0  0  0  0  0  0  0
    0.7555    0.3746   -0.1764 H   0  0  0  0  0  0  0  0  0  0  0  0
    2.3678    0.6841   -0.7826 H   0  0  0  0  0  0  0  0  0  0  0  0
    1.0170    2.2718    1.4449 H   0  0  0  0  0  0  0  0  0  0  0  0
    1.1499    2.7653   -0.2546 H   0  0  0  0  0  0  0  0  0  0  0  0
    2.4379    4.6655    0.4891 H   0  0  0  0  0  0  0  0  0  0  0  0
    2.3377    4.1015    2.1638 H   0  0  0  0  0  0  0  0  0  0  0  0
    4.9261    4.3920    0.5465 H   0  0  0  0  0  0  0  0  0  0  0  0
    4.3728    5.4939    1.8180 H   0  0  0  0  0  0  0  0  0  0  0  0
    4.8260    3.8299    2.2206 H   0  0  0  0  0  0  0  0  0  0  0  0
  1  2  1  0
  1  7  1  0
  1  8  1  0
  2  3  1  0
  2  9  1  0
  2 10  1  0
  3  4  1  0
  3 11  1  0
  3 12  1  0
  4  5  1  0
  5  6  1  0
  5 13  1  0
  5 14  1  0
  6 15  1  0
  6 16  1  0
  6 17  1  0
M  RAD  1   1   2
M  END
>  <reaction>  (2) 
rmg_rxn_230

>  <mol_properties>  (2) 
{"0": {"label": "acceptor", "atom_type": "Cs"}}

>  <type>  (2) 
r2

$$$$

     RDKit          3D

 18 17  0  0  0  0  0  0  0  0999 V2000
    2.2026   -0.7213   -0.2612 C   0  0  0  0  0  0  0  0  0  0  0  0
    1.5384    0.2638    0.6915 C   0  0  0  0  0  0  0  0  0  0  0  0
    2.2584    1.5946    0.7694 C   0  0  0  0  0  0  0  0  0  0  0  0
    2.2212    2.2185   -0.4893 O   0  0  0  0  0  0  0  0  0  0  0  0
    2.8988    3.4488   -0.5204 C   0  0  0  0  0  0  0  0  0  0  0  0
    2.7981    4.0296   -1.9118 C   0  0  0  0  0  0  0  0  0  0  0  0
    3.2294   -0.9309    0.0486 H   0  0  0  0  0  0  0  0  0  0  0  0
    2.2338   -0.3181   -1.2734 H   0  0  0  0  0  0  0  0  0  0  0  0
    1.6610   -1.6680   -0.2875 H   0  0  0  0  0  0  0  0  0  0  0  0
    1.4990   -0.1566    1.7002 H   0  0  0  0  0  0  0  0  0  0  0  0
    0.5055    0.4455    0.3835 H   0  0  0  0  0  0  0  0  0  0  0  0
    3.3038    1.4410    1.0808 H   0  0  0  0  0  0  0  0  0  0  0  0
    1.7844    2.2410    1.5226 H   0  0  0  0  0  0  0  0  0  0  0  0
    2.4596    4.1376    0.2164 H   0  0  0  0  0  0  0  0  0  0  0  0
    3.9524    3.3035   -0.2397 H   0  0  0  0  0  0  0  0  0  0  0  0
    1.7543    4.1869   -2.1856 H   0  0  0  0  0  0  0  0  0  0  0  0
    3.2472    3.3545   -2.6411 H   0  0  0  0  0  0  0  0  0  0  0  0
    3.3178    4.9878   -1.9600 H   0  0  0  0  0  0  0  0  0  0  0  0
  1  2  1  0
  1  7  1  0
  1  8  1  0
  1  9  1  0
  2  3  1  0
  2 10  1  0
  2 11  1  0
  3  4  1  0
  3 12  1  0
  3 13  1  0
  4  5  1  0
  5  6  1  0
  5 14  1  0
  5 15  1  0
  6 16  1  0
  6 17  1  0
  6 18  1  0
M  END
>  <reaction>  (3) 
rmg_rxn_230

>  <mol_properties>  (3) 
{"0": {"label": "a_hydrogen", "atom_type": "H0"}, "1": {"label": "acceptor", "atom_type": "Cs"}}

>  <type>  (3) 
r2h

$$$$

     RDKit          3D

 27 25  0  0  0  0  0  0  0  0999 V2000
    1.4856    2.4520   -3.8550 C   0  0  0  0  0  0  0  0  0  0  0  0
    0.9074    2.7123   -2.5441 C   0  0  0  0  0  0  0  0  0  0  0  0
    0.4241    2.9423   -1.4663 C   0  0  0  0  0  0  0  0  0  0  0  0
   -0.1337    3.1419   -0.1663 C   0  0  0  0  0  0  0  0  0  0  0  0
    0.8332    2.8197   -4.6491 H   0  0  0  0  0  0  0  0  0  0  0  0
    1.6341    1.3816   -4.0119 H   0  0  0  0  0  0  0  0  0  0  0  0
    2.4541    2.9444   -3.9586 H   0  0  0  0  0  0  0  0  0  0  0  0
   -1.2079    3.3177   -0.1625 H   0  0  0  0  0  0  0  0  0  0  0  0
    0.3956    3.8736    0.4413 H   0  0  0  0  0  0  0  0  0  0  0  0
    0.0003    2.0342    0.5009 H   0  0  0  0  0  0  0  0  0  0  0  0
    0.1585    0.7873    1.1102 C   0  0  0  0  0  3  0  0  0  0  0  0
   -0.0414   -0.2001   -0.0042 C   0  0  0  0  0  0  0  0  0  0  0  0
    0.2018   -1.6403    0.4163 C   0  0  0  0  0  0  0  0  0  0  0  0
   -0.7315   -1.9993    1.4026 O   0  0  0  0  0  0  0  0  0  0  0  0
   -0.5683   -3.3147    1.8689 C   0  0  0  0  0  0  0  0  0  0  0  0
   -1.6159   -3.5953    2.9213 C   0  0  0  0  0  0  0  0  0  0  0  0
   -0.5966    0.7765    1.8915 H   0  0  0  0  0  0  0  0  0  0  0  0
    1.1721    0.8458    1.5041 H   0  0  0  0  0  0  0  0  0  0  0  0
    0.6375    0.0319   -0.8300 H   0  0  0  0  0  0  0  0  0  0  0  0
   -1.0578   -0.1210   -0.3981 H   0  0  0  0  0  0  0  0  0  0  0  0
    1.2252   -1.7528    0.8059 H   0  0  0  0  0  0  0  0  0  0  0  0
    0.1059   -2.3064   -0.4542 H   0  0  0  0  0  0  0  0  0  0  0  0
   -0.6634   -4.0236    1.0330 H   0  0  0  0  0  0  0  0  0  0  0  0
    0.4409   -3.4412    2.2876 H   0  0  0  0  0  0  0  0  0  0  0  0
   -2.6169   -3.4837    2.5033 H   0  0  0  0  0  0  0  0  0  0  0  0
   -1.5090   -4.6133    3.2991 H   0  0  0  0  0  0  0  0  0  0  0  0
   -1.5127   -2.9025    3.7571 H   0  0  0  0  0  0  0  0  0  0  0  0
  1  2  1  0
  1  5  1  0
  1  6  1  0
  1  7  1  0
  2  3  3  0
  3  4  1  0
  4  8  1  0
  4  9  1  0
  4 10  1  0
 11 12  1  0
 11 17  1  0
 11 18  1  0
 12 13  1  0
 12 19  1  0
 12 20  1  0
 13 14  1  0
 13 21  1  0
 13 22  1  0
 14 15  1  0
 15 16  1  0
 15 23  1  0
 15 24  1  0
 16 25  1  0
 16 26  1  0
 16 27  1  0
M  RAD  1  11   2
M  END
>  <reaction>  (4) 
rmg_rxn_230

>  <mol_properties>  (4) 
{"2": {"label": "*0", "atom_type": "Ct"}, "3": {"label": "*1", "atom_type": "Cs"}, "9": {"label": "*2", "atom_type": "H0"}, "10": {"label": "*3", "atom_type": "Cs"}, "11": {"label": "*4", "atom_type": "Cs"}}

>  <type>  (4) 
ts

$$$$

     RDKit          3D

 27 25  0  0  0  0  0  0  0  0999 V2000
    0.6028    2.6519   -4.9245 C   0  0  0  0  0  0  0  0  0  0  0  0
    0.6028    2.6519   -3.4672 C   0  0  0  0  0  3  0  0  0  0  0  0
    0.6028    2.6519   -2.2687 C   0  0  0  0  0  0  0  0  0  0  0  0
    0.6028    2.6519   -0.8115 C   0  0  0  0  0  0  0  0  0  0  0  0
    1.5914    2.9011   -5.3138 H   0  0  0  0  0  0  0  0  0  0  0  0
   -0.1073    3.3834   -5.3138 H   0  0  0  0  0  0  0  0  0  0  0  0
    0.3243    1.6711   -5.3138 H   0  0  0  0  0  0  0  0  0  0  0  0
   -0.0793    3.4096   -0.4221 H   0  0  0  0  0  0  0  0  0  0  0  0
    1.6001    2.8638   -0.4221 H   0  0  0  0  0  0  0  0  0  0  0  0
    0.2246    1.4884   -0.3443 H   0  0  0  0  0  0  0  0  0  0  0  0
   -0.1534    0.3252    0.1227 C   0  0  0  0  0  0  0  0  0  0  0  0
    0.9369   -0.3011    0.9820 C   0  0  0  0  0  0  0  0  0  0  0  0
    0.3980   -0.9903    2.2188 C   0  0  0  0  0  0  0  0  0  0  0  0
   -0.4267   -2.0610    1.8333 O   0  0  0  0  0  0  0  0  0  0  0  0
   -1.0017   -2.7395    2.9207 C   0  0  0  0  0  0  0  0  0  0  0  0
   -1.8646   -3.8641    2.3969 C   0  0  0  0  0  0  0  0  0  0  0  0
   -0.8589   -0.4323   -0.2186 H   0  0  0  0  0  0  0  0  0  0  0  0
   -0.7128    1.0746    0.6883 H   0  0  0  0  0  0  0  0  0  0  0  0
    1.6469    0.4648    1.3063 H   0  0  0  0  0  0  0  0  0  0  0  0
    1.5031   -1.0305    0.3970 H   0  0  0  0  0  0  0  0  0  0  0  0
   -0.1763   -0.2759    2.8297 H   0  0  0  0  0  0  0  0  0  0  0  0
    1.2265   -1.3600    2.8407 H   0  0  0  0  0  0  0  0  0  0  0  0
   -0.2117   -3.1346    3.5766 H   0  0  0  0  0  0  0  0  0  0  0  0
   -1.6028   -2.0418    3.5223 H   0  0  0  0  0  0  0  0  0  0  0  0
   -1.2667   -4.5638    1.8118 H   0  0  0  0  0  0  0  0  0  0  0  0
   -2.3222   -4.4069    3.2254 H   0  0  0  0  0  0  0  0  0  0  0  0
   -2.6575   -3.4720    1.7591 H   0  0  0  0  0  0  0  0  0  0  0  0
  1  2  1  0
  1  5  1  0
  1  6  1  0
  1  7  1  0
  2  3  2  0
  3  4  2  0
  4  8  1  0
  4  9  1  0
 10 11  1  0
 11 12  1  0
 11 17  1  0
 11 18  1  0
 12 13  1  0
 12 19  1  0
 12 20  1  0
 13 14  1  0
 13 21  1  0
 13 22  1  0
 14 15  1  0
 15 16  1  0
 15 23  1  0
 15 24  1  0
 16 25  1  0
 16 26  1  0
 16 27  1  0
M  RAD  1   2   2
M  END
>  <reaction>  (5) 
rmg_rxn_230

>  <mol_properties>  (5) 
{"2": {"label": "*0", "atom_type": "Ct"}, "3": {"label": "*1", "atom_type": "Cs"}, "9": {"label": "*2", "atom_type": "H0"}, "10": {"label": "*3", "atom_type": "Cs"}, "11": {"label": "*4", "atom_type": "Cs"}}

>  <type>  (5) 
unop_1

>  <geom_source>  (5) 
Heuristics

$$$$

     RDKit          3D

 27 25  0  0  0  0  0  0  0  0999 V2000
    0.8502    2.9803   -4.0046 C   0  0  0  0  0  0  0  0  0  0  0  0
    0.8502    2.9803   -2.5473 C   0  0  0  0  0  3  0  0  0  0  0  0
    0.8502    2.9803   -1.3488 C   0  0  0  0  0  0  0  0  0  0  0  0
    0.8502    2.9803    0.1084 C   0  0  0  0  0  0  0  0  0  0  0  0
    1.8388    3.2295   -4.3939 H   0  0  0  0  0  0  0  0  0  0  0  0
    0.1401    3.7118   -4.3939 H   0  0  0  0  0  0  0  0  0  0  0  0
    0.5717    1.9995   -4.3939 H   0  0  0  0  0  0  0  0  0  0  0  0
    0.1680    3.7380    0.4978 H   0  0  0  0  0  0  0  0  0  0  0  0
    1.8474    3.1922    0.4978 H   0  0  0  0  0  0  0  0  0  0  0  0
    0.4720    1.8168    0.5756 H   0  0  0  0  0  0  0  0  0  0  0  0
    0.0940    0.6536    1.0426 C   0  0  0  0  0  0  0  0  0  0  0  0
    0.4756   -0.4704    0.0886 C   0  0  0  0  0  0  0  0  0  0  0  0
    0.4737   -1.8355    0.7457 C   0  0  0  0  0  0  0  0  0  0  0  0
   -0.8285   -2.1439    1.1749 O   0  0  0  0  0  0  0  0  0  0  0  0
   -0.9191   -3.3829    1.8308 C   0  0  0  0  0  0  0  0  0  0  0  0
   -2.3529   -3.6135    2.2486 C   0  0  0  0  0  0  0  0  0  0  0  0
   -0.9073    0.4964    1.4437 H   0  0  0  0  0  0  0  0  0  0  0  0
    0.7890    0.7030    1.8846 H   0  0  0  0  0  0  0  0  0  0  0  0
    1.4751   -0.2949   -0.3189 H   0  0  0  0  0  0  0  0  0  0  0  0
   -0.2131   -0.4926   -0.7599 H   0  0  0  0  0  0  0  0  0  0  0  0
    1.1630   -1.8424    1.6049 H   0  0  0  0  0  0  0  0  0  0  0  0
    0.8262   -2.5999    0.0377 H   0  0  0  0  0  0  0  0  0  0  0  0
   -0.5795   -4.1874    1.1616 H   0  0  0  0  0  0  0  0  0  0  0  0
   -0.2566   -3.3913    2.7089 H   0  0  0  0  0  0  0  0  0  0  0  0
   -3.0086   -3.6192    1.3772 H   0  0  0  0  0  0  0  0  0  0  0  0
   -2.4479   -4.5723    2.7607 H   0  0  0  0  0  0  0  0  0  0  0  0
   -2.6855   -2.8249    2.9244 H   0  0  0  0  0  0  0  0  0  0  0  0
  1  2  1  0
  1  5  1  0
  1  6  1  0
  1  7  1  0
  2  3  2  0
  3  4  2  0
  4  8  1  0
  4  9  1  0
 10 11  1  0
 11 12  1  0
 11 17  1  0
 11 18  1  0
 12 13  1  0
 12 19  1  0
 12 20  1  0
 13 14  1  0
 13 21  1  0
 13 22  1  0
 14 15  1  0
 15 16  1  0
 15 23  1  0
 15 24  1  0
 16 25  1  0
 16 26  1  0
 16 27  1  0
M  RAD  1   2   2
M  END
>  <reaction>  (6) 
rmg_rxn_230

>  <mol_properties>  (6) 
{"2": {"label": "*0", "atom_type": "Ct"}, "3": {"label": "*1", "atom_type": "Cs"}, "9": {"label": "*2", "atom_type": "H0"}, "10": {"label": "*3", "atom_type": "Cs"}, "11": {"label": "*4", "atom_type": "Cs"}}

>  <type>  (6) 
unop_2

>  <geom_source>  (6) 
Heuristics

$$$$

     RDKit          3D

 27 25  0  0  0  0  0  0  0  0999 V2000
    0.7174    2.6820   -4.8649 C   0  0  0  0  0  0  0  0  0  0  0  0
    0.7174    2.6820   -3.4076 C   0  0  0  0  0  3  0  0  0  0  0  0
    0.7174    2.6820   -2.2091 C   0  0  0  0  0  0  0  0  0  0  0  0
    0.7174    2.6820   -0.7519 C   0  0  0  0  0  0  0  0  0  0  0  0
    1.7060    2.9312   -5.2542 H   0  0  0  0  0  0  0  0  0  0  0  0
    0.0073    3.4136   -5.2542 H   0  0  0  0  0  0  0  0  0  0  0  0
    0.4388    1.7013   -5.2542 H   0  0  0  0  0  0  0  0  0  0  0  0
    0.0352    3.4397   -0.3625 H   0  0  0  0  0  0  0  0  0  0  0  0
    1.7146    2.8939   -0.3625 H   0  0  0  0  0  0  0  0  0  0  0  0
    0.3392    1.5185   -0.2847 H   0  0  0  0  0  0  0  0  0  0  0  0
   -0.0389    0.3553    0.1823 C   0  0  0  0  0  0  0  0  0  0  0  0
    0.6142    0.0662    1.5274 C   0  0  0  0  0  0  0  0  0  0  0  0
   -0.2292   -0.8205    2.4205 C   0  0  0  0  0  0  0  0  0  0  0  0
   -0.3892   -2.0771    1.8119 O   0  0  0  0  0  0  0  0  0  0  0  0
   -1.1914   -2.9576    2.5566 C   0  0  0  0  0  0  0  0  0  0  0  0
   -1.2979   -4.2704    1.8157 C   0  0  0  0  0  0  0  0  0  0  0  0
   -0.2176   -0.5691   -0.3667 H   0  0  0  0  0  0  0  0  0  0  0  0
   -1.0001    0.8578    0.3159 H   0  0  0  0  0  0  0  0  0  0  0  0
    0.8025    1.0009    2.0629 H   0  0  0  0  0  0  0  0  0  0  0  0
    1.5846   -0.4142    1.3779 H   0  0  0  0  0  0  0  0  0  0  0  0
   -1.2145   -0.3581    2.5903 H   0  0  0  0  0  0  0  0  0  0  0  0
    0.2504   -0.9381    3.4034 H   0  0  0  0  0  0  0  0  0  0  0  0
   -0.7524   -3.1132    3.5533 H   0  0  0  0  0  0  0  0  0  0  0  0
   -2.1889   -2.5191    2.7073 H   0  0  0  0  0  0  0  0  0  0  0  0
   -0.3106   -4.7126    1.6780 H   0  0  0  0  0  0  0  0  0  0  0  0
   -1.9173   -4.9719    2.3767 H   0  0  0  0  0  0  0  0  0  0  0  0
   -1.7474   -4.1195    0.8336 H   0  0  0  0  0  0  0  0  0  0  0  0
  1  2  1  0
  1  5  1  0
  1  6  1  0
  1  7  1  0
  2  3  2  0
  3  4  2  0
  4  8  1  0
  4  9  1  0
 10 11  1  0
 11 12  1  0
 11 17  1  0
 11 18  1  0
 12 13  1  0
 12 19  1  0
 12 20  1  0
 13 14  1  0
 13 21  1  0
 13 22  1  0
 14 15  1  0
 15 16  1  0
 15 23  1  0
 15 24  1  0
 16 25  1  0
 16 26  1  0
 16 27  1  0
M  RAD  1   2   2
M  END
>  <reaction>  (7) 
rmg_rxn_230

>  <mol_properties>  (7) 
{"2": {"label": "*0", "atom_type": "Ct"}, "3": {"label": "*1", "atom_type": "Cs"}, "9": {"label": "*2", "atom_type": "H0"}, "10": {"label": "*3", "atom_type": "Cs"}, "11": {"label": "*4", "atom_type": "Cs"}}

>  <type>  (7) 
unop_3

>  <geom_source>  (7) 
Heuristics

$$$$

     RDKit          3D

 27 25  0  0  0  0  0  0  0  0999 V2000
    1.7350    1.7994   -4.7969 C   0  0  0  0  0  0  0  0  0  0  0  0
    1.7350    1.7994   -3.3396 C   0  0  0  0  0  3  0  0  0  0  0  0
    1.7350    1.7994   -2.1411 C   0  0  0  0  0  0  0  0  0  0  0  0
    1.7350    1.7994   -0.6838 C   0  0  0  0  0  0  0  0  0  0  0  0
    2.7236    2.0486   -5.1862 H   0  0  0  0  0  0  0  0  0  0  0  0
    1.0249    2.5310   -5.1862 H   0  0  0  0  0  0  0  0  0  0  0  0
    1.4565    0.8187   -5.1862 H   0  0  0  0  0  0  0  0  0  0  0  0
    1.0528    2.5571   -0.2945 H   0  0  0  0  0  0  0  0  0  0  0  0
    2.7322    2.0113   -0.2945 H   0  0  0  0  0  0  0  0  0  0  0  0
    1.3568    0.6359   -0.2167 H   0  0  0  0  0  0  0  0  0  0  0  0
    0.9788   -0.5272    0.2504 C   0  0  0  0  0  0  0  0  0  0  0  0
   -0.4281   -0.8749   -0.2178 C   0  0  0  0  0  0  0  0  0  0  0  0
   -1.1984   -1.7129    0.7821 C   0  0  0  0  0  0  0  0  0  0  0  0
   -1.3762   -0.9779    1.9666 O   0  0  0  0  0  0  0  0  0  0  0  0
   -2.0534   -1.6930    2.9684 C   0  0  0  0  0  0  0  0  0  0  0  0
   -2.1892   -0.8158    4.1913 C   0  0  0  0  0  0  0  0  0  0  0  0
    0.9470    0.0394    1.1810 H   0  0  0  0  0  0  0  0  0  0  0  0
    1.5650   -1.4323    0.4281 H   0  0  0  0  0  0  0  0  0  0  0  0
   -0.3851   -1.4298   -1.1591 H   0  0  0  0  0  0  0  0  0  0  0  0
   -0.9947    0.0389   -0.4144 H   0  0  0  0  0  0  0  0  0  0  0  0
   -0.6499   -2.6436    0.9973 H   0  0  0  0  0  0  0  0  0  0  0  0
   -2.1763   -1.9982    0.3673 H   0  0  0  0  0  0  0  0  0  0  0  0
   -3.0448   -2.0012    2.6044 H   0  0  0  0  0  0  0  0  0  0  0  0
   -1.4990   -2.6110    3.2133 H   0  0  0  0  0  0  0  0  0  0  0  0
   -2.7506    0.0882    3.9528 H   0  0  0  0  0  0  0  0  0  0  0  0
   -2.7137   -1.3510    4.9843 H   0  0  0  0  0  0  0  0  0  0  0  0
   -1.2064   -0.5225    4.5622 H   0  0  0  0  0  0  0  0  0  0  0  0
  1  2  1  0
  1  5  1  0
  1  6  1  0
  1  7  1  0
  2  3  2  0
  3  4  2  0
  4  8  1  0
  4  9  1  0
 10 11  1  0
 11 12  1  0
 11 17  1  0
 11 18  1  0
 12 13  1  0
 12 19  1  0
 12 20  1  0
 13 14  1  0
 13 21  1  0
 13 22  1  0
 14 15  1  0
 15 16  1  0
 15 23  1  0
 15 24  1  0
 16 25  1  0
 16 26  1  0
 16 27  1  0
M  RAD  1   2   2
M  END
>  <reaction>  (8) 
rmg_rxn_230

>  <mol_properties>  (8) 
{"2": {"label": "*0", "atom_type": "Ct"}, "3": {"label": "*1", "atom_type": "Cs"}, "9": {"label": "*2", "atom_type": "H0"}, "10": {"label": "*3", "atom_type": "Cs"}, "11": {"label": "*4", "atom_type": "Cs"}}

>  <type>  (8) 
unop_4

>  <geom_source>  (8) 
Heuristics

$$$$

     RDKit          3D

 27 25  0  0  0  0  0  0  0  0999 V2000
    0.3292    2.6896   -4.8776 C   0  0  0  0  0  0  0  0  0  0  0  0
    0.3292    2.6896   -3.4203 C   0  0  0  0  0  3  0  0  0  0  0  0
    0.3292    2.6896   -2.2218 C   0  0  0  0  0  0  0  0  0  0  0  0
    0.3292    2.6896   -0.7646 C   0  0  0  0  0  0  0  0  0  0  0  0
    1.3178    2.9388   -5.2669 H   0  0  0  0  0  0  0  0  0  0  0  0
   -0.3809    3.4212   -5.2669 H   0  0  0  0  0  0  0  0  0  0  0  0
    0.0507    1.7089   -5.2669 H   0  0  0  0  0  0  0  0  0  0  0  0
   -0.3529    3.4473   -0.3752 H   0  0  0  0  0  0  0  0  0  0  0  0
    1.3265    2.9015   -0.3753 H   0  0  0  0  0  0  0  0  0  0  0  0
   -0.0489    1.5261   -0.2974 H   0  0  0  0  0  0  0  0  0  0  0  0
   -0.4270    0.3629    0.1696 C   0  0  0  0  0  0  0  0  0  0  0  0
   -0.4286    0.3580    1.6925 C   0  0  0  0  0  0  0  0  0  0  0  0
   -0.8670   -0.9664    2.2833 C   0  0  0  0  0  0  0  0  0  0  0  0
    0.0480   -1.9669    1.9134 O   0  0  0  0  0  0  0  0  0  0  0  0
   -0.2995   -3.2420    2.3898 C   0  0  0  0  0  0  0  0  0  0  0  0
    0.7441   -4.2366    1.9368 C   0  0  0  0  0  0  0  0  0  0  0  0
    0.2513   -0.3971   -0.2182 H   0  0  0  0  0  0  0  0  0  0  0  0
   -1.4256    0.1531   -0.2217 H   0  0  0  0  0  0  0  0  0  0  0  0
   -1.1004    1.1336    2.0706 H   0  0  0  0  0  0  0  0  0  0  0  0
    0.5701    0.5928    2.0696 H   0  0  0  0  0  0  0  0  0  0  0  0
   -1.8740   -1.2270    1.9210 H   0  0  0  0  0  0  0  0  0  0  0  0
   -0.9222   -0.8953    3.3795 H   0  0  0  0  0  0  0  0  0  0  0  0
   -0.3654   -3.2272    3.4879 H   0  0  0  0  0  0  0  0  0  0  0  0
   -1.2920   -3.5263    2.0099 H   0  0  0  0  0  0  0  0  0  0  0  0
    1.7262   -3.9632    2.3244 H   0  0  0  0  0  0  0  0  0  0  0  0
    0.4951   -5.2362    2.2964 H   0  0  0  0  0  0  0  0  0  0  0  0
    0.7993   -4.2634    0.8480 H   0  0  0  0  0  0  0  0  0  0  0  0
  1  2  1  0
  1  5  1  0
  1  6  1  0
  1  7  1  0
  2  3  2  0
  3  4  2  0
  4  8  1  0
  4  9  1  0
 10 11  1  0
 11 12  1  0
 11 17  1  0
 11 18  1  0
 12 13  1  0
 12 19  1  0
 12 20  1  0
 13 14  1  0
 13 21  1  0
 13 22  1  0
 14 15  1  0
 15 16  1  0
 15 23  1  0
 15 24  1  0
 16 25  1  0
 16 26  1  0
 16 27  1  0
M  RAD  1   2   2
M  END
>  <reaction>  (9) 
rmg_rxn_230

>  <mol_properties>  (9) 
{"2": {"label": "*0", "atom_type": "Ct"}, "3": {"label": "*1", "atom_type": "Cs"}, "9": {"label": "*2", "atom_type": "H0"}, "10": {"label": "*3", "atom_type": "Cs"}, "11": {"label": "*4", "atom_type": "Cs"}}

>  <type>  (9) 
unop_5

>  <geom_source>  (9) 
Heuristics

$$$$

     RDKit          3D

 27 25  0  0  0  0  0  0  0  0999 V2000
    1.2727    1.6101   -5.2662 C   0  0  0  0  0  0  0  0  0  0  0  0
    1.2727    1.6101   -3.8090 C   0  0  0  0  0  3  0  0  0  0  0  0
    1.2727    1.6101   -2.6105 C   0  0  0  0  0  0  0  0  0  0  0  0
    1.2727    1.6101   -1.1532 C   0  0  0  0  0  0  0  0  0  0  0  0
    2.2613    1.8592   -5.6556 H   0  0  0  0  0  0  0  0  0  0  0  0
    0.5626    2.3416   -5.6556 H   0  0  0  0  0  0  0  0  0  0  0  0
    0.9942    0.6293   -5.6556 H   0  0  0  0  0  0  0  0  0  0  0  0
    0.5905    2.3678   -0.7639 H   0  0  0  0  0  0  0  0  0  0  0  0
    2.2699    1.8219   -0.7639 H   0  0  0  0  0  0  0  0  0  0  0  0
    0.8945    0.4465   -0.6861 H   0  0  0  0  0  0  0  0  0  0  0  0
    0.5164   -0.7166   -0.2190 C   0  0  0  0  0  0  0  0  0  0  0  0
   -0.9931   -0.7644   -0.0235 C   0  0  0  0  0  0  0  0  0  0  0  0
   -1.4078   -1.5035    1.2323 C   0  0  0  0  0  0  0  0  0  0  0  0
   -0.9127   -0.8233    2.3580 O   0  0  0  0  0  0  0  0  0  0  0  0
   -1.2204   -1.4596    3.5721 C   0  0  0  0  0  0  0  0  0  0  0  0
   -0.6438   -0.6502    4.7104 C   0  0  0  0  0  0  0  0  0  0  0  0
    0.9985   -0.2131    0.6189 H   0  0  0  0  0  0  0  0  0  0  0  0
    0.9323   -1.7248   -0.2893 H   0  0  0  0  0  0  0  0  0  0  0  0
   -1.4675   -1.2579   -0.8762 H   0  0  0  0  0  0  0  0  0  0  0  0
   -1.3981    0.2499    0.0210 H   0  0  0  0  0  0  0  0  0  0  0  0
   -1.0142   -2.5322    1.2128 H   0  0  0  0  0  0  0  0  0  0  0  0
   -2.5040   -1.5740    1.2887 H   0  0  0  0  0  0  0  0  0  0  0  0
   -2.3112   -1.5531    3.6807 H   0  0  0  0  0  0  0  0  0  0  0  0
   -0.8064   -2.4787    3.5765 H   0  0  0  0  0  0  0  0  0  0  0  0
   -1.0641    0.3561    4.7151 H   0  0  0  0  0  0  0  0  0  0  0  0
   -0.8712   -1.1258    5.6657 H   0  0  0  0  0  0  0  0  0  0  0  0
    0.4394   -0.5701    4.6121 H   0  0  0  0  0  0  0  0  0  0  0  0
  1  2  1  0
  1  5  1  0
  1  6  1  0
  1  7  1  0
  2  3  2  0
  3  4  2  0
  4  8  1  0
  4  9  1  0
 10 11  1  0
 11 12  1  0
 11 17  1  0
 11 18  1  0
 12 13  1  0
 12 19  1  0
 12 20  1  0
 13 14  1  0
 13 21  1  0
 13 22  1  0
 14 15  1  0
 15 16  1  0
 15 23  1  0
 15 24  1  0
 16 25  1  0
 16 26  1  0
 16 27  1  0
M  RAD  1   2   2
M  END
>  <reaction>  (10) 
rmg_rxn_230

>  <mol_properties>  (10) 
{"2": {"label": "*0", "atom_type": "Ct"}, "3": {"label": "*1", "atom_type": "Cs"}, "9": {"label": "*2", "atom_type": "H0"}, "10": {"label": "*3", "atom_type": "Cs"}, "11": {"label": "*4", "atom_type": "Cs"}}

>  <type>  (10) 
unop_6

>  <geom_source>  (10) 
Heuristics

$$$$

     RDKit          3D

 27 25  0  0  0  0  0  0  0  0999 V2000
    0.6212    1.7349   -5.4601 C   0  0  0  0  0  0  0  0  0  0  0  0
    0.6212    1.7349   -4.0029 C   0  0  0  0  0  3  0  0  0  0  0  0
    0.6212    1.7349   -2.8044 C   0  0  0  0  0  0  0  0  0  0  0  0
    0.6212    1.7349   -1.3471 C   0  0  0  0  0  0  0  0  0  0  0  0
    1.6098    1.9841   -5.8495 H   0  0  0  0  0  0  0  0  0  0  0  0
   -0.0889    2.4665   -5.8495 H   0  0  0  0  0  0  0  0  0  0  0  0
    0.3427    0.7542   -5.8495 H   0  0  0  0  0  0  0  0  0  0  0  0
   -0.0610    2.4926   -0.9578 H   0  0  0  0  0  0  0  0  0  0  0  0
    1.6184    1.9468   -0.9578 H   0  0  0  0  0  0  0  0  0  0  0  0
    0.2430    0.5714   -0.8799 H   0  0  0  0  0  0  0  0  0  0  0  0
   -0.1350   -0.5918   -0.4129 C   0  0  0  0  0  0  0  0  0  0  0  0
   -1.3852   -0.4574    0.4463 C   0  0  0  0  0  0  0  0  0  0  0  0
   -1.3611   -1.3428    1.6754 C   0  0  0  0  0  0  0  0  0  0  0  0
   -0.2986   -0.9536    2.5089 O   0  0  0  0  0  0  0  0  0  0  0  0
   -0.1771   -1.7467    3.6621 C   0  0  0  0  0  0  0  0  0  0  0  0
    0.9893   -1.2457    4.4818 C   0  0  0  0  0  0  0  0  0  0  0  0
    0.7549   -0.3210    0.1553 H   0  0  0  0  0  0  0  0  0  0  0  0
   -0.0108   -1.6200   -0.7619 H   0  0  0  0  0  0  0  0  0  0  0  0
   -2.2727   -0.7168   -0.1375 H   0  0  0  0  0  0  0  0  0  0  0  0
   -1.5098    0.5798    0.7680 H   0  0  0  0  0  0  0  0  0  0  0  0
   -1.2387   -2.3968    1.3796 H   0  0  0  0  0  0  0  0  0  0  0  0
   -2.3133   -1.2647    2.2203 H   0  0  0  0  0  0  0  0  0  0  0  0
   -1.1069   -1.7011    4.2484 H   0  0  0  0  0  0  0  0  0  0  0  0
   -0.0245   -2.7987    3.3789 H   0  0  0  0  0  0  0  0  0  0  0  0
    0.8324   -0.2070    4.7746 H   0  0  0  0  0  0  0  0  0  0  0  0
    1.1030   -1.8475    5.3848 H   0  0  0  0  0  0  0  0  0  0  0  0
    1.9140   -1.3051    3.9067 H   0  0  0  0  0  0  0  0  0  0  0  0
  1  2  1  0
  1  5  1  0
  1  6  1  0
  1  7  1  0
  2  3  2  0
  3  4  2  0
  4  8  1  0
  4  9  1  0
 10 11  1  0
 11 12  1  0
 11 17  1  0
 11 18  1  0
 12 13  1  0
 12 19  1  0
 12 20  1  0
 13 14  1  0
 13 21  1  0
 13 22  1  0
 14 15  1  0
 15 16  1  0
 15 23  1  0
 15 24  1  0
 16 25  1  0
 16 26  1  0
 16 27  1  0
M  RAD  1   2   2
M  END
>  <reaction>  (11) 
rmg_rxn_230

>  <mol_properties>  (11) 
{"2": {"label": "*0", "atom_type": "Ct"}, "3": {"label": "*1", "atom_type": "Cs"}, "9": {"label": "*2", "atom_type": "H0"}, "10": {"label": "*3", "atom_type": "Cs"}, "11": {"label": "*4", "atom_type": "Cs"}}

>  <type>  (11) 
unop_7

>  <geom_source>  (11) 
Heuristics

$$$$

     RDKit          3D

 27 25  0  0  0  0  0  0  0  0999 V2000
    0.4072    2.7940   -4.7355 C   0  0  0  0  0  0  0  0  0  0  0  0
    0.4072    2.7940   -3.2783 C   0  0  0  0  0  3  0  0  0  0  0  0
    0.4072    2.7940   -2.0798 C   0  0  0  0  0  0  0  0  0  0  0  0
    0.4072    2.7940   -0.6225 C   0  0  0  0  0  0  0  0  0  0  0  0
    1.3958    3.0431   -5.1249 H   0  0  0  0  0  0  0  0  0  0  0  0
   -0.3029    3.5255   -5.1249 H   0  0  0  0  0  0  0  0  0  0  0  0
    0.1287    1.8132   -5.1248 H   0  0  0  0  0  0  0  0  0  0  0  0
   -0.2749    3.5517   -0.2332 H   0  0  0  0  0  0  0  0  0  0  0  0
    1.4045    3.0058   -0.2332 H   0  0  0  0  0  0  0  0  0  0  0  0
    0.0291    1.6305   -0.1553 H   0  0  0  0  0  0  0  0  0  0  0  0
   -0.3490    0.4673    0.3117 C   0  0  0  0  0  0  0  0  0  0  0  0
    0.8440   -0.4589    0.5072 C   0  0  0  0  0  0  0  0  0  0  0  0
    0.7520   -1.2898    1.7707 C   0  0  0  0  0  0  0  0  0  0  0  0
   -0.3639   -2.1401    1.6886 O   0  0  0  0  0  0  0  0  0  0  0  0
   -0.5492   -2.9270    2.8376 C   0  0  0  0  0  0  0  0  0  0  0  0
   -1.7691   -3.7977    2.6447 C   0  0  0  0  0  0  0  0  0  0  0  0
   -1.2750   -0.1041    0.2485 H   0  0  0  0  0  0  0  0  0  0  0  0
   -0.4414    1.1653    1.1475 H   0  0  0  0  0  0  0  0  0  0  0  0
    1.7685    0.1232    0.5543 H   0  0  0  0  0  0  0  0  0  0  0  0
    0.9383   -1.1347   -0.3467 H   0  0  0  0  0  0  0  0  0  0  0  0
    0.6584   -0.6323    2.6495 H   0  0  0  0  0  0  0  0  0  0  0  0
    1.6678   -1.8845    1.9034 H   0  0  0  0  0  0  0  0  0  0  0  0
    0.3418   -3.5474    3.0151 H   0  0  0  0  0  0  0  0  0  0  0  0
   -0.6739   -2.2802    3.7186 H   0  0  0  0  0  0  0  0  0  0  0  0
   -1.6407   -4.4491    1.7796 H   0  0  0  0  0  0  0  0  0  0  0  0
   -1.9329   -4.4196    3.5262 H   0  0  0  0  0  0  0  0  0  0  0  0
   -2.6557   -3.1832    2.4842 H   0  0  0  0  0  0  0  0  0  0  0  0
  1  2  1  0
  1  5  1  0
  1  6  1  0
  1  7  1  0
  2  3  2  0
  3  4  2  0
  4  8  1  0
  4  9  1  0
 10 11  1  0
 11 12  1  0
 11 17  1  0
 11 18  1  0
 12 13  1  0
 12 19  1  0
 12 20  1  0
 13 14  1  0
 13 21  1  0
 13 22  1  0
 14 15  1  0
 15 16  1  0
 15 23  1  0
 15 24  1  0
 16 25  1  0
 16 26  1  0
 16 27  1  0
M  RAD  1   2   2
M  END
>  <reaction>  (12) 
rmg_rxn_230

>  <mol_properties>  (12) 
{"2": {"label": "*0", "atom_type": "Ct"}, "3": {"label": "*1", "atom_type": "Cs"}, "9": {"label": "*2", "atom_type": "H0"}, "10": {"label": "*3", "atom_type": "Cs"}, "11": {"label": "*4", "atom_type": "Cs"}}

>  <type>  (12) 
unop_8

>  <geom_source>  (12) 
Heuristics

$$$$

     RDKit          3D

 27 25  0  0  0  0  0  0  0  0999 V2000
    1.8013    2.2294   -4.2643 C   0  0  0  0  0  0  0  0  0  0  0  0
    1.8013    2.2294   -2.8071 C   0  0  0  0  0  3  0  0  0  0  0  0
    1.8013    2.2294   -1.6086 C   0  0  0  0  0  0  0  0  0  0  0  0
    1.8013    2.2294   -0.1513 C   0  0  0  0  0  0  0  0  0  0  0  0
    2.7899    2.4785   -4.6537 H   0  0  0  0  0  0  0  0  0  0  0  0
    1.0912    2.9609   -4.6537 H   0  0  0  0  0  0  0  0  0  0  0  0
    1.5228    1.2486   -4.6537 H   0  0  0  0  0  0  0  0  0  0  0  0
    1.1191    2.9871    0.2380 H   0  0  0  0  0  0  0  0  0  0  0  0
    2.7985    2.4412    0.2380 H   0  0  0  0  0  0  0  0  0  0  0  0
    1.4231    1.0659    0.3158 H   0  0  0  0  0  0  0  0  0  0  0  0
    1.0450   -0.0973    0.7829 C   0  0  0  0  0  0  0  0  0  0  0  0
    0.0755   -0.7821   -0.1711 C   0  0  0  0  0  0  0  0  0  0  0  0
   -0.7149   -1.8974    0.4822 C   0  0  0  0  0  0  0  0  0  0  0  0
   -1.5195   -1.3621    1.5025 O   0  0  0  0  0  0  0  0  0  0  0  0
   -2.2652   -2.3340    2.1903 C   0  0  0  0  0  0  0  0  0  0  0  0
   -3.0890   -1.6547    3.2596 C   0  0  0  0  0  0  0  0  0  0  0  0
    0.5115    0.3435    1.6249 H   0  0  0  0  0  0  0  0  0  0  0  0
    1.7697   -0.8118    1.1813 H   0  0  0  0  0  0  0  0  0  0  0  0
    0.6193   -1.2076   -1.0191 H   0  0  0  0  0  0  0  0  0  0  0  0
   -0.6276   -0.0518   -0.5799 H   0  0  0  0  0  0  0  0  0  0  0  0
   -0.0295   -2.6508    0.9017 H   0  0  0  0  0  0  0  0  0  0  0  0
   -1.3435   -2.4064   -0.2632 H   0  0  0  0  0  0  0  0  0  0  0  0
   -2.9172   -2.8735    1.4874 H   0  0  0  0  0  0  0  0  0  0  0  0
   -1.5891   -3.0765    2.6394 H   0  0  0  0  0  0  0  0  0  0  0  0
   -3.7694   -0.9283    2.8140 H   0  0  0  0  0  0  0  0  0  0  0  0
   -3.6783   -2.3914    3.8079 H   0  0  0  0  0  0  0  0  0  0  0  0
   -2.4426   -1.1325    3.9659 H   0  0  0  0  0  0  0  0  0  0  0  0
  1  2  1  0
  1  5  1  0
  1  6  1  0
  1  7  1  0
  2  3  2  0
  3  4  2  0
  4  8  1  0
  4  9  1  0
 10 11  1  0
 11 12  1  0
 11 17  1  0
 11 18  1  0
 12 13  1  0
 12 19  1  0
 12 20  1  0
 13 14  1  0
 13 21  1  0
 13 22  1  0
 14 15  1  0
 15 16  1  0
 15 23  1  0
 15 24  1  0
 16 25  1  0
 16 26  1  0
 16 27  1  0
M  RAD  1   2   2
M  END
>  <reaction>  (13) 
rmg_rxn_230

>  <mol_properties>  (13) 
{"2": {"label": "*0", "atom_type": "Ct"}, "3": {"label": "*1", "atom_type": "Cs"}, "9": {"label": "*2", "atom_type": "H0"}, "10": {"label": "*3", "atom_type": "Cs"}, "11": {"label": "*4", "atom_type": "Cs"}}

>  <type>  (13) 
unop_9

>  <geom_source>  (13) 
Heuristics

$$$$

     RDKit          3D

 27 25  0  0  0  0  0  0  0  0999 V2000
    0.4555    2.9643   -4.3564 C   0  0  0  0  0  0  0  0  0  0  0  0
    0.4555    2.9643   -2.8992 C   0  0  0  0  0  3  0  0  0  0  0  0
    0.4555    2.9643   -1.7007 C   0  0  0  0  0  0  0  0  0  0  0  0
    0.4555    2.9643   -0.2434 C   0  0  0  0  0  0  0  0  0  0  0  0
    1.4441    3.2135   -4.7458 H   0  0  0  0  0  0  0  0  0  0  0  0
   -0.2546    3.6959   -4.7458 H   0  0  0  0  0  0  0  0  0  0  0  0
    0.1770    1.9836   -4.7458 H   0  0  0  0  0  0  0  0  0  0  0  0
   -0.2266    3.7220    0.1459 H   0  0  0  0  0  0  0  0  0  0  0  0
    1.4528    3.1762    0.1459 H   0  0  0  0  0  0  0  0  0  0  0  0
    0.0774    1.8008    0.2238 H   0  0  0  0  0  0  0  0  0  0  0  0
   -0.3007    0.6377    0.6908 C   0  0  0  0  0  0  0  0  0  0  0  0
    0.6329   -0.4707    0.2226 C   0  0  0  0  0  0  0  0  0  0  0  0
    0.7749   -1.5944    1.2289 C   0  0  0  0  0  0  0  0  0  0  0  0
   -0.4719   -2.2165    1.4112 O   0  0  0  0  0  0  0  0  0  0  0  0
   -0.4429   -3.2531    2.3589 C   0  0  0  0  0  0  0  0  0  0  0  0
   -1.8265   -3.8491    2.4771 C   0  0  0  0  0  0  0  0  0  0  0  0
   -1.3019    0.2476    0.8736 H   0  0  0  0  0  0  0  0  0  0  0  0
    0.0605    1.0846    1.6204 H   0  0  0  0  0  0  0  0  0  0  0  0
    1.6299   -0.0657    0.0280 H   0  0  0  0  0  0  0  0  0  0  0  0
    0.2727   -0.8918   -0.7195 H   0  0  0  0  0  0  0  0  0  0  0  0
    1.1398   -1.1976    2.1895 H   0  0  0  0  0  0  0  0  0  0  0  0
    1.5133   -2.3299    0.8774 H   0  0  0  0  0  0  0  0  0  0  0  0
    0.2818   -4.0218    2.0521 H   0  0  0  0  0  0  0  0  0  0  0  0
   -0.1081   -2.8626    3.3312 H   0  0  0  0  0  0  0  0  0  0  0  0
   -2.1537   -4.2490    1.5167 H   0  0  0  0  0  0  0  0  0  0  0  0
   -1.8283   -4.6585    3.2088 H   0  0  0  0  0  0  0  0  0  0  0  0
   -2.5430   -3.0914    2.7964 H   0  0  0  0  0  0  0  0  0  0  0  0
  1  2  1  0
  1  5  1  0
  1  6  1  0
  1  7  1  0
  2  3  2  0
  3  4  2  0
  4  8  1  0
  4  9  1  0
 10 11  1  0
 11 12  1  0
 11 17  1  0
 11 18  1  0
 12 13  1  0
 12 19  1  0
 12 20  1  0
 13 14  1  0
 13 21  1  0
 13 22  1  0
 14 15  1  0
 15 16  1  0
 15 23  1  0
 15 24  1  0
 16 25  1  0
 16 26  1  0
 16 27  1  0
M  RAD  1   2   2
M  END
>  <reaction>  (14) 
rmg_rxn_230

>  <mol_properties>  (14) 
{"2": {"label": "*0", "atom_type": "Ct"}, "3": {"label": "*1", "atom_type": "Cs"}, "9": {"label": "*2", "atom_type": "H0"}, "10": {"label": "*3", "atom_type": "Cs"}, "11": {"label": "*4", "atom_type": "Cs"}}

>  <type>  (14) 
unop_10

>  <geom_source>  (14) 
Heuristics

$$$$

     RDKit          3D

 27 25  0  0  0  0  0  0  0  0999 V2000
    0.1321    2.1859   -5.2684 C   0  0  0  0  0  0  0  0  0  0  0  0
    0.1321    2.1859   -3.8111 C   0  0  0  0  0  3  0  0  0  0  0  0
    0.1321    2.1859   -2.6126 C   0  0  0  0  0  0  0  0  0  0  0  0
    0.1321    2.1859   -1.1554 C   0  0  0  0  0  0  0  0  0  0  0  0
    1.1207    2.4351   -5.6577 H   0  0  0  0  0  0  0  0  0  0  0  0
   -0.5780    2.9175   -5.6578 H   0  0  0  0  0  0  0  0  0  0  0  0
   -0.1464    1.2052   -5.6577 H   0  0  0  0  0  0  0  0  0  0  0  0
   -0.5500    2.9436   -0.7660 H   0  0  0  0  0  0  0  0  0  0  0  0
    1.1294    2.3978   -0.7661 H   0  0  0  0  0  0  0  0  0  0  0  0
   -0.2461    1.0224   -0.6882 H   0  0  0  0  0  0  0  0  0  0  0  0
   -0.6241   -0.1407   -0.2212 C   0  0  0  0  0  0  0  0  0  0  0  0
   -1.3223    0.0093    1.1239 C   0  0  0  0  0  0  0  0  0  0  0  0
   -1.1740   -1.2097    2.0112 C   0  0  0  0  0  0  0  0  0  0  0  0
    0.1839   -1.3978    2.3208 O   0  0  0  0  0  0  0  0  0  0  0  0
    0.4212   -2.5320    3.1151 C   0  0  0  0  0  0  0  0  0  0  0  0
    1.9039   -2.6398    3.3863 C   0  0  0  0  0  0  0  0  0  0  0  0
    0.4447   -0.3054   -0.0851 H   0  0  0  0  0  0  0  0  0  0  0  0
   -1.0270   -0.9914   -0.7765 H   0  0  0  0  0  0  0  0  0  0  0  0
   -2.3908    0.1889    0.9753 H   0  0  0  0  0  0  0  0  0  0  0  0
   -0.9265    0.8773    1.6574 H   0  0  0  0  0  0  0  0  0  0  0  0
   -1.5683   -2.1010    1.4979 H   0  0  0  0  0  0  0  0  0  0  0  0
   -1.7553   -1.0811    2.9360 H   0  0  0  0  0  0  0  0  0  0  0  0
   -0.1375   -2.4523    4.0594 H   0  0  0  0  0  0  0  0  0  0  0  0
    0.0582   -3.4332    2.5993 H   0  0  0  0  0  0  0  0  0  0  0  0
    2.2621   -1.7527    3.9099 H   0  0  0  0  0  0  0  0  0  0  0  0
    2.1127   -3.5151    4.0034 H   0  0  0  0  0  0  0  0  0  0  0  0
    2.4575   -2.7345    2.4515 H   0  0  0  0  0  0  0  0  0  0  0  0
  1  2  1  0
  1  5  1  0
  1  6  1  0
  1  7  1  0
  2  3  2  0
  3  4  2  0
  4  8  1  0
  4  9  1  0
 10 11  1  0
 11 12  1  0
 11 17  1  0
 11 18  1  0
 12 13  1  0
 12 19  1  0
 12 20  1  0
 13 14  1  0
 13 21  1  0
 13 22  1  0
 14 15  1  0
 15 16  1  0
 15 23  1  0
 15 24  1  0
 16 25  1  0
 16 26  1  0
 16 27  1  0
M  RAD  1   2   2
M  END
>  <reaction>  (15) 
rmg_rxn_230

>  <mol_properties>  (15) 
{"2": {"label": "*0", "atom_type": "Ct"}, "3": {"label": "*1", "atom_type": "Cs"}, "9": {"label": "*2", "atom_type": "H0"}, "10": {"label": "*3", "atom_type": "Cs"}, "11": {"label": "*4", "atom_type": "Cs"}}

>  <type>  (15) 
unop_11

>  <geom_source>  (15) 
Heuristics

$$$$

     RDKit          3D

 27 25  0  0  0  0  0  0  0  0999 V2000
    1.4255    2.7093   -3.9411 C   0  0  0  0  0  0  0  0  0  0  0  0
    1.4255    2.7093   -2.4838 C   0  0  0  0  0  3  0  0  0  0  0  0
    1.4255    2.7093   -1.2853 C   0  0  0  0  0  0  0  0  0  0  0  0
    1.4255    2.7093    0.1719 C   0  0  0  0  0  0  0  0  0  0  0  0
    2.4141    2.9585   -4.3304 H   0  0  0  0  0  0  0  0  0  0  0  0
    0.7154    3.4409   -4.3304 H   0  0  0  0  0  0  0  0  0  0  0  0
    1.1470    1.7286   -4.3304 H   0  0  0  0  0  0  0  0  0  0  0  0
    0.7434    3.4670    0.5613 H   0  0  0  0  0  0  0  0  0  0  0  0
    2.4228    2.9212    0.5613 H   0  0  0  0  0  0  0  0  0  0  0  0
    1.0474    1.5458    0.6391 H   0  0  0  0  0  0  0  0  0  0  0  0
    0.6693    0.3826    1.1061 C   0  0  0  0  0  0  0  0  0  0  0  0
    0.3544   -0.5864   -0.0257 C   0  0  0  0  0  0  0  0  0  0  0  0
   -0.0817   -1.9522    0.4638 C   0  0  0  0  0  0  0  0  0  0  0  0
   -1.2812   -1.8273    1.1852 O   0  0  0  0  0  0  0  0  0  0  0  0
   -1.7440   -3.0455    1.7099 C   0  0  0  0  0  0  0  0  0  0  0  0
   -3.0307   -2.7984    2.4630 C   0  0  0  0  0  0  0  0  0  0  0  0
   -0.2059    0.5367    1.7373 H   0  0  0  0  0  0  0  0  0  0  0  0
    1.4743   -0.0031    1.7367 H   0  0  0  0  0  0  0  0  0  0  0  0
    1.2342   -0.7220   -0.6607 H   0  0  0  0  0  0  0  0  0  0  0  0
   -0.4350   -0.1771   -0.6614 H   0  0  0  0  0  0  0  0  0  0  0  0
    0.6984   -2.3901    1.1065 H   0  0  0  0  0  0  0  0  0  0  0  0
   -0.2250   -2.6343   -0.3872 H   0  0  0  0  0  0  0  0  0  0  0  0
   -1.9077   -3.7668    0.8955 H   0  0  0  0  0  0  0  0  0  0  0  0
   -0.9847   -3.4784    2.3777 H   0  0  0  0  0  0  0  0  0  0  0  0
   -3.7885   -2.3820    1.7985 H   0  0  0  0  0  0  0  0  0  0  0  0
   -3.4101   -3.7326    2.8799 H   0  0  0  0  0  0  0  0  0  0  0  0
   -2.8660   -2.0954    3.2804 H   0  0  0  0  0  0  0  0  0  0  0  0
  1  2  1  0
  1  5  1  0
  1  6  1  0
  1  7  1  0
  2  3  2  0
  3  4  2  0
  4  8  1  0
  4  9  1  0
 10 11  1  0
 11 12  1  0
 11 17  1  0
 11 18  1  0
 12 13  1  0
 12 19  1  0
 12 20  1  0
 13 14  1  0
 13 21  1  0
 13 22  1  0
 14 15  1  0
 15 16  1  0
 15 23  1  0
 15 24  1  0
 16 25  1  0
 16 26  1  0
 16 27  1  0
M  RAD  1   2   2
M  END
>  <reaction>  (16) 
rmg_rxn_230

>  <mol_properties>  (16) 
{"2": {"label": "*0", "atom_type": "Ct"}, "3": {"label": "*1", "atom_type": "Cs"}, "9": {"label": "*2", "atom_type": "H0"}, "10": {"label": "*3", "atom_type": "Cs"}, "11": {"label": "*4", "atom_type": "Cs"}}

>  <type>  (16) 
unop_12

>  <geom_source>  (16) 
Heuristics

$$$$

     RDKit          3D

 27 25  0  0  0  0  0  0  0  0999 V2000
    2.4816   -0.0234    0.2149 O   0  0  0  0  0  0  0  0  0  0  0  0
    0.5496   -0.9478   -0.8807 C   0  0  0  0  0  0  0  0  0  0  0  0
    1.7235    0.0277   -0.9760 C   0  0  0  0  0  0  0  0  0  0  0  0
    3.5517    0.8931    0.1314 C   0  0  0  0  0  0  0  0  0  0  0  0
   -0.4377   -0.5460    0.2118 C   0  0  0  0  0  0  0  0  0  0  0  0
    4.3681    0.8242    1.4127 C   0  0  0  0  0  0  0  0  0  0  0  0
   -4.8519    1.2317   -0.7510 C   0  0  0  0  0  0  0  0  0  0  0  0
   -2.6078   -1.8998    0.7414 C   0  0  0  0  0  0  0  0  0  0  0  0
   -4.0572    0.1228   -0.2225 C   0  0  0  0  0  3  0  0  0  0  0  0
   -3.4025   -0.7909    0.2129 C   0  0  0  0  0  0  0  0  0  0  0  0
    0.9310   -1.9708   -0.6728 H   0  0  0  0  0  0  0  0  0  0  0  0
    0.0151   -0.9698   -1.8547 H   0  0  0  0  0  0  0  0  0  0  0  0
    2.3488   -0.2748   -1.8468 H   0  0  0  0  0  0  0  0  0  0  0  0
    1.3254    1.0532   -1.1559 H   0  0  0  0  0  0  0  0  0  0  0  0
    4.2221    0.6437   -0.7227 H   0  0  0  0  0  0  0  0  0  0  0  0
    3.1730    1.9343    0.0157 H   0  0  0  0  0  0  0  0  0  0  0  0
    0.0560   -0.5578    1.2067 H   0  0  0  0  0  0  0  0  0  0  0  0
   -0.8421    0.4694    0.0136 H   0  0  0  0  0  0  0  0  0  0  0  0
   -1.4273   -1.3929    0.2293 H   0  0  0  0  0  0  0  0  0  0  0  0
    5.2134    1.5424    1.3589 H   0  0  0  0  0  0  0  0  0  0  0  0
    3.7301    1.0833    2.2842 H   0  0  0  0  0  0  0  0  0  0  0  0
    4.7741   -0.2005    1.5500 H   0  0  0  0  0  0  0  0  0  0  0  0
   -5.8321    1.2646   -0.2323 H   0  0  0  0  0  0  0  0  0  0  0  0
   -5.0140    1.0854   -1.8387 H   0  0  0  0  0  0  0  0  0  0  0  0
   -4.3126    2.1866   -0.5828 H   0  0  0  0  0  0  0  0  0  0  0  0
   -2.7082   -1.9337    1.8457 H   0  0  0  0  0  0  0  0  0  0  0  0
   -2.9702   -2.8544    0.3076 H   0  0  0  0  0  0  0  0  0  0  0  0
  1  4  1  0
  1  3  1  0
  2  5  1  0
  2  3  1  0
  2 11  1  0
  2 12  1  0
  3 13  1  0
  3 14  1  0
  4  6  1  0
  4 15  1  0
  4 16  1  0
  5 17  1  0
  5 18  1  0
  5 19  1  0
  6 20  1  0
  6 21  1  0
  6 22  1  0
  7  9  1  0
  7 23  1  0
  7 24  1  0
  7 25  1  0
  8 10  2  0
  8 26  1  0
  8 27  1  0
  9 10  2  0
M  RAD  1   9   2
M  END
>  <reaction>  (17) 
rmg_rxn_230

>  <mol_properties>  (17) 
{"2": {"label": "*0", "atom_type": "Ct"}, "3": {"label": "*1", "atom_type": "Cs"}, "9": {"label": "*2", "atom_type": "H0"}, "10": {"label": "*3", "atom_type": "Cs"}, "11": {"label": "*4", "atom_type": "Cs"}}

>  <type>  (17) 
unop_13

>  <geom_source>  (17) 
AutoTST

$$$$

     RDKit          3D

 27 25  0  0  0  0  0  0  0  0999 V2000
    0.8502    2.9803   -4.0046 C   0  0  0  0  0  0  0  0  0  0  0  0
    0.8502    2.9803   -2.5473 C   0  0  0  0  0  3  0  0  0  0  0  0
    0.8502    2.9803   -1.3488 C   0  0  0  0  0  0  0  0  0  0  0  0
    0.8502    2.9803    0.1084 C   0  0  0  0  0  0  0  0  0  0  0  0
    1.8388    3.2295   -4.3939 H   0  0  0  0  0  0  0  0  0  0  0  0
    0.1401    3.7118   -4.3939 H   0  0  0  0  0  0  0  0  0  0  0  0
    0.5717    1.9995   -4.3939 H   0  0  0  0  0  0  0  0  0  0  0  0
    0.1681    3.7380    0.4978 H   0  0  0  0  0  0  0  0  0  0  0  0
    1.8474    3.1922    0.4978 H   0  0  0  0  0  0  0  0  0  0  0  0
    0.4720    1.8168    0.5756 H   0  0  0  0  0  0  0  0  0  0  0  0
    0.0940    0.6536    1.0426 C   0  0  0  0  0  0  0  0  0  0  0  0
    0.4756   -0.4704    0.0887 C   0  0  0  0  0  0  0  0  0  0  0  0
    0.4737   -1.8355    0.7457 C   0  0  0  0  0  0  0  0  0  0  0  0
   -0.8285   -2.1439    1.1749 O   0  0  0  0  0  0  0  0  0  0  0  0
   -0.9191   -3.3829    1.8308 C   0  0  0  0  0  0  0  0  0  0  0  0
   -2.3529   -3.6136    2.2486 C   0  0  0  0  0  0  0  0  0  0  0  0
   -0.9073    0.4964    1.4437 H   0  0  0  0  0  0  0  0  0  0  0  0
    0.7890    0.7030    1.8846 H   0  0  0  0  0  0  0  0  0  0  0  0
    1.4751   -0.2949   -0.3189 H   0  0  0  0  0  0  0  0  0  0  0  0
   -0.2131   -0.4925   -0.7599 H   0  0  0  0  0  0  0  0  0  0  0  0
    1.1630   -1.8424    1.6049 H   0  0  0  0  0  0  0  0  0  0  0  0
    0.8262   -2.5999    0.0377 H   0  0  0  0  0  0  0  0  0  0  0  0
   -0.5795   -4.1874    1.1616 H   0  0  0  0  0  0  0  0  0  0  0  0
   -0.2566   -3.3913    2.7089 H   0  0  0  0  0  0  0  0  0  0  0  0
   -3.0086   -3.6192    1.3772 H   0  0  0  0  0  0  0  0  0  0  0  0
   -2.4479   -4.5723    2.7607 H   0  0  0  0  0  0  0  0  0  0  0  0
   -2.6855   -2.8249    2.9244 H   0  0  0  0  0  0  0  0  0  0  0  0
  1  2  1  0
  1  5  1  0
  1  6  1  0
  1  7  1  0
  2  3  2  0
  3  4  2  0
  4  8  1  0
  4  9  1  0
 10 11  1  0
 11 12  1  0
 11 17  1  0
 11 18  1  0
 12 13  1  0
 12 19  1  0
 12 20  1  0
 13 14  1  0
 13 21  1  0
 13 22  1  0
 14 15  1  0
 15 16  1  0
 15 23  1  0
 15 24  1  0
 16 25  1  0
 16 26  1  0
 16 27  1  0
M  RAD  1   2   2
M  END
>  <reaction>  (18) 
rmg_rxn_230

>  <mol_properties>  (18) 
{"2": {"label": "*0", "atom_type": "Ct"}, "3": {"label": "*1", "atom_type": "Cs"}, "9": {"label": "*2", "atom_type": "H0"}, "10": {"label": "*3", "atom_type": "Cs"}, "11": {"label": "*4", "atom_type": "Cs"}}

>  <type>  (18) 
unop_14

>  <geom_source>  (18) 
gaussian_log

$$$$
