
     RDKit          3D

  5  4  0  0  0  0  0  0  0  0999 V2000
   -0.4583    0.0384    0.1517 N   0  0  0  0  0  0  0  0  0  0  0  0
    0.7454   -0.3487    0.5322 N   0  0  0  0  0  0  0  0  0  0  0  0
    0.7566   -1.0388    1.5193 O   0  0  0  0  0  0  0  0  0  0  0  0
   -1.2688   -0.2521    0.6850 H   0  0  0  0  0  0  0  0  0  0  0  0
   -0.5137    0.6154   -0.6670 H   0  0  0  0  0  0  0  0  0  0  0  0
  1  2  1  0
  1  4  1  0
  1  5  1  0
  2  3  2  0
M  END
>  <reaction>  (1) 
rmg_rxn_1474

>  <mol_properties>  (1) 
{"0": {"label": "donator", "atom_type": "N3s"}, "3": {"label": "d_hydrogen", "atom_type": "H0"}}

>  <type>  (1) 
r1h

$$$$

     RDKit          3D

 13 12  0  0  0  0  0  0  0  0999 V2000
    2.0654   -0.2739   -0.0844 C   0  0  0  0  0  3  0  0  0  0  0  0
    0.6326   -0.4110   -0.4406 C   0  0  0  0  0  0  0  0  0  0  0  0
   -0.3055    0.4151    0.4359 C   0  0  0  0  0  0  0  0  0  0  0  0
   -1.7714    0.2357    0.0671 C   0  0  0  0  0  0  0  0  0  0  0  0
    2.3610    0.0676    0.8995 H   0  0  0  0  0  0  0  0  0  0  0  0
    2.8408   -0.6127   -0.7582 H   0  0  0  0  0  0  0  0  0  0  0  0
    0.3313   -1.4695   -0.3768 H   0  0  0  0  0  0  0  0  0  0  0  0
    0.4826   -0.1432   -1.4940 H   0  0  0  0  0  0  0  0  0  0  0  0
   -0.1518    0.1351    1.4826 H   0  0  0  0  0  0  0  0  0  0  0  0
   -0.0303    1.4705    0.3565 H   0  0  0  0  0  0  0  0  0  0  0  0
   -2.0768   -0.8084    0.1692 H   0  0  0  0  0  0  0  0  0  0  0  0
   -1.9546    0.5339   -0.9679 H   0  0  0  0  0  0  0  0  0  0  0  0
   -2.4194    0.8370    0.7066 H   0  0  0  0  0  0  0  0  0  0  0  0
  1  2  1  0
  1  5  1  0
  1  6  1  0
  2  3  1  0
  2  7  1  0
  2  8  1  0
  3  4  1  0
  3  9  1  0
  3 10  1  0
  4 11  1  0
  4 12  1  0
  4 13  1  0
M  RAD  1   1   2
M  END
>  <reaction>  (2) 
rmg_rxn_1474

>  <mol_properties>  (2) 
{"0": {"label": "acceptor", "atom_type": "Cs"}}

>  <type>  (2) 
r2

$$$$

     RDKit          3D

 14 13  0  0  0  0  0  0  0  0999 V2000
    1.8106   -0.5953    0.5577 C   0  0  0  0  0  0  0  0  0  0  0  0
    0.5197    0.2064    0.6554 C   0  0  0  0  0  0  0  0  0  0  0  0
   -0.5206   -0.2080   -0.3788 C   0  0  0  0  0  0  0  0  0  0  0  0
   -1.8114    0.5937   -0.2812 C   0  0  0  0  0  0  0  0  0  0  0  0
    2.2725   -0.4752   -0.4251 H   0  0  0  0  0  0  0  0  0  0  0  0
    1.6214   -1.6612    0.7052 H   0  0  0  0  0  0  0  0  0  0  0  0
    2.5364   -0.2784    1.3084 H   0  0  0  0  0  0  0  0  0  0  0  0
    0.0930    0.0950    1.6574 H   0  0  0  0  0  0  0  0  0  0  0  0
    0.7393    1.2723    0.5354 H   0  0  0  0  0  0  0  0  0  0  0  0
   -0.7402   -1.2739   -0.2588 H   0  0  0  0  0  0  0  0  0  0  0  0
   -0.0938   -0.0965   -1.3808 H   0  0  0  0  0  0  0  0  0  0  0  0
   -1.6222    1.6596   -0.4287 H   0  0  0  0  0  0  0  0  0  0  0  0
   -2.2734    0.4736    0.7017 H   0  0  0  0  0  0  0  0  0  0  0  0
   -2.5373    0.2768   -1.0318 H   0  0  0  0  0  0  0  0  0  0  0  0
  1  2  1  0
  1  5  1  0
  1  6  1  0
  1  7  1  0
  2  3  1  0
  2  8  1  0
  2  9  1  0
  3  4  1  0
  3 10  1  0
  3 11  1  0
  4 12  1  0
  4 13  1  0
  4 14  1  0
M  END
>  <reaction>  (3) 
rmg_rxn_1474

>  <mol_properties>  (3) 
{"0": {"label": "a_hydrogen", "atom_type": "H0"}, "1": {"label": "acceptor", "atom_type": "Cs"}}

>  <type>  (3) 
r2h

$$$$

     RDKit          3D

 18 16  0  0  0  0  0  0  0  0999 V2000
   -1.8765   -0.5021    0.4948 N   0  0  0  0  0  0  0  0  0  0  0  0
   -2.4243    0.2911   -0.3604 N   0  0  0  0  0  0  0  0  0  0  0  0
   -1.7716    0.6877   -1.2925 O   0  0  0  0  0  0  0  0  0  0  0  0
   -0.8378   -1.1059    0.1140 H   0  0  0  0  0  0  0  0  0  0  0  0
   -2.5505   -0.9344    1.1153 H   0  0  0  0  0  0  0  0  0  0  0  0
    0.2616   -1.7531   -0.3496 C   0  0  0  0  0  3  0  0  0  0  0  0
    1.4378   -1.0217    0.2301 C   0  0  0  0  0  0  0  0  0  0  0  0
    1.5765    0.4137   -0.2648 C   0  0  0  0  0  0  0  0  0  0  0  0
    2.7940    1.1194    0.3150 C   0  0  0  0  0  0  0  0  0  0  0  0
    0.0989   -2.7633    0.0240 H   0  0  0  0  0  0  0  0  0  0  0  0
    0.1495   -1.6819   -1.4295 H   0  0  0  0  0  0  0  0  0  0  0  0
    2.3511   -1.5785   -0.0247 H   0  0  0  0  0  0  0  0  0  0  0  0
    1.3819   -1.0332    1.3237 H   0  0  0  0  0  0  0  0  0  0  0  0
    1.6320    0.4106   -1.3570 H   0  0  0  0  0  0  0  0  0  0  0  0
    0.6682    0.9676   -0.0146 H   0  0  0  0  0  0  0  0  0  0  0  0
    3.7171    0.6002    0.0460 H   0  0  0  0  0  0  0  0  0  0  0  0
    2.7424    1.1591    1.4057 H   0  0  0  0  0  0  0  0  0  0  0  0
    2.8686    2.1439   -0.0519 H   0  0  0  0  0  0  0  0  0  0  0  0
  1  2  1  0
  1  4  1  0
  1  5  1  0
  2  3  2  0
  6  7  1  0
  6 10  1  0
  6 11  1  0
  7  8  1  0
  7 12  1  0
  7 13  1  0
  8  9  1  0
  8 14  1  0
  8 15  1  0
  9 16  1  0
  9 17  1  0
  9 18  1  0
M  RAD  1   6   2
M  END
>  <reaction>  (4) 
rmg_rxn_1474

>  <mol_properties>  (4) 
{"0": {"label": "*1", "atom_type": "N3s"}, "1": {"label": "*0", "atom_type": "N3d"}, "3": {"label": "*2", "atom_type": "H0"}, "5": {"label": "*3", "atom_type": "Cs"}, "6": {"label": "*4", "atom_type": "Cs"}}

>  <type>  (4) 
ts

$$$$

     RDKit          3D

 18 16  0  0  0  0  0  0  0  0999 V2000
    1.9511   -0.6942    0.1539 N   0  0  0  0  0  0  0  0  0  0  0  0
    2.2987    0.5065    0.0405 N   0  0  0  0  0  0  0  0  0  0  0  0
    1.5379    1.4423   -0.0633 O   0  0  0  0  0  0  0  0  0  0  0  0
    0.8418   -1.2023   -0.0211 H   0  0  0  0  0  0  0  0  0  0  0  0
    2.7298   -1.3443    0.1913 H   0  0  0  0  0  0  0  0  0  0  0  0
   -0.2800   -1.8241   -0.2374 C   0  0  0  0  0  3  0  0  0  0  0  0
   -1.4084   -0.9950    0.3180 C   0  0  0  0  0  0  0  0  0  0  0  0
   -1.5670    0.3500   -0.3867 C   0  0  0  0  0  0  0  0  0  0  0  0
   -2.7411    1.1454    0.1697 C   0  0  0  0  0  0  0  0  0  0  0  0
   -0.3390   -1.9515   -1.3140 H   0  0  0  0  0  0  0  0  0  0  0  0
   -0.1702   -2.7809    0.2637 H   0  0  0  0  0  0  0  0  0  0  0  0
   -1.2545   -0.8307    1.3882 H   0  0  0  0  0  0  0  0  0  0  0  0
   -2.3471   -1.5551    0.2136 H   0  0  0  0  0  0  0  0  0  0  0  0
   -0.6510    0.9339   -0.2672 H   0  0  0  0  0  0  0  0  0  0  0  0
   -1.7164    0.1815   -1.4560 H   0  0  0  0  0  0  0  0  0  0  0  0
   -2.8277    2.1017   -0.3401 H   0  0  0  0  0  0  0  0  0  0  0  0
   -2.6022    1.3362    1.2318 H   0  0  0  0  0  0  0  0  0  0  0  0
   -3.6747    0.6006    0.0389 H   0  0  0  0  0  0  0  0  0  0  0  0
  1  2  1  0
  1  4  1  0
  1  5  1  0
  2  3  2  0
  6  7  1  0
  6 10  1  0
  6 11  1  0
  7  8  1  0
  7 12  1  0
  7 13  1  0
  8  9  1  0
  8 14  1  0
  8 15  1  0
  9 16  1  0
  9 17  1  0
  9 18  1  0
M  RAD  1   6   2
M  END
>  <reaction>  (5) 
rmg_rxn_1474

>  <mol_properties>  (5) 
{"0": {"label": "*1", "atom_type": "N3s"}, "1": {"label": "*0", "atom_type": "N3d"}, "3": {"label": "*2", "atom_type": "H0"}, "5": {"label": "*3", "atom_type": "Cs"}, "6": {"label": "*4", "atom_type": "Cs"}}

>  <type>  (5) 
unop_1

>  <geom_source>  (5) 
crest_best.xyz

$$$$

     RDKit          3D

 18 16  0  0  0  0  0  0  0  0999 V2000
    0.6012   -1.7102    1.0343 N   0  0  0  0  0  0  0  0  0  0  0  0
    0.6012   -2.9130    0.4895 N   0  0  0  0  0  0  0  0  0  0  0  0
    0.6012   -2.9130   -0.7150 O   0  0  0  0  0  0  0  0  0  0  0  0
    0.6012   -0.7275    0.3191 H   0  0  0  0  0  0  0  0  0  0  0  0
    0.6012   -1.6638    2.0364 H   0  0  0  0  0  0  0  0  0  0  0  0
    0.6012    0.3312   -0.4515 C   0  0  0  0  0  3  0  0  0  0  0  0
   -0.6255    1.1997   -0.2077 C   0  0  0  0  0  0  0  0  0  0  0  0
   -0.3150    2.6918   -0.2300 C   0  0  0  0  0  0  0  0  0  0  0  0
   -1.5417    3.5603    0.0139 C   0  0  0  0  0  0  0  0  0  0  0  0
    1.3645    0.5095    0.3096 H   0  0  0  0  0  0  0  0  0  0  0  0
    1.0481    0.5494   -1.4244 H   0  0  0  0  0  0  0  0  0  0  0  0
   -1.0726    0.9411    0.7577 H   0  0  0  0  0  0  0  0  0  0  0  0
   -1.3867    0.9808   -0.9635 H   0  0  0  0  0  0  0  0  0  0  0  0
    0.4461    2.9107    0.5259 H   0  0  0  0  0  0  0  0  0  0  0  0
    0.1321    2.9504   -1.1953 H   0  0  0  0  0  0  0  0  0  0  0  0
   -1.9887    3.3421    0.9867 H   0  0  0  0  0  0  0  0  0  0  0  0
   -2.3051    3.3820   -0.7472 H   0  0  0  0  0  0  0  0  0  0  0  0
   -1.2912    4.6222   -0.0074 H   0  0  0  0  0  0  0  0  0  0  0  0
  1  2  1  0
  1  4  1  0
  1  5  1  0
  2  3  2  0
  6  7  1  0
  6 10  1  0
  6 11  1  0
  7  8  1  0
  7 12  1  0
  7 13  1  0
  8  9  1  0
  8 14  1  0
  8 15  1  0
  9 16  1  0
  9 17  1  0
  9 18  1  0
M  RAD  1   6   2
M  END
>  <reaction>  (6) 
rmg_rxn_1474

>  <mol_properties>  (6) 
{"0": {"label": "*1", "atom_type": "N3s"}, "1": {"label": "*0", "atom_type": "N3d"}, "3": {"label": "*2", "atom_type": "H0"}, "5": {"label": "*3", "atom_type": "Cs"}, "6": {"label": "*4", "atom_type": "Cs"}}

>  <type>  (6) 
unop_2

>  <geom_source>  (6) 
Heuristics

$$$$

     RDKit          3D

 18 16  0  0  0  0  0  0  0  0999 V2000
   -1.9513   -0.6941    0.1532 N   0  0  0  0  0  0  0  0  0  0  0  0
   -2.2986    0.5067    0.0406 N   0  0  0  0  0  0  0  0  0  0  0  0
   -1.5376    1.4423   -0.0629 O   0  0  0  0  0  0  0  0  0  0  0  0
   -0.8421   -1.2024   -0.0215 H   0  0  0  0  0  0  0  0  0  0  0  0
   -2.7302   -1.3440    0.1907 H   0  0  0  0  0  0  0  0  0  0  0  0
    0.2799   -1.8242   -0.2371 C   0  0  0  0  0  3  0  0  0  0  0  0
    1.4081   -0.9949    0.3184 C   0  0  0  0  0  0  0  0  0  0  0  0
    1.5673    0.3497   -0.3870 C   0  0  0  0  0  0  0  0  0  0  0  0
    2.7412    1.1452    0.1696 C   0  0  0  0  0  0  0  0  0  0  0  0
    0.1697   -2.7808    0.2643 H   0  0  0  0  0  0  0  0  0  0  0  0
    0.3392   -1.9520   -1.3136 H   0  0  0  0  0  0  0  0  0  0  0  0
    2.3468   -1.5551    0.2149 H   0  0  0  0  0  0  0  0  0  0  0  0
    1.2537   -0.8301    1.3884 H   0  0  0  0  0  0  0  0  0  0  0  0
    1.7172    0.1806   -1.4562 H   0  0  0  0  0  0  0  0  0  0  0  0
    0.6513    0.9338   -0.2683 H   0  0  0  0  0  0  0  0  0  0  0  0
    3.6746    0.6002    0.0396 H   0  0  0  0  0  0  0  0  0  0  0  0
    2.6017    1.3369    1.2314 H   0  0  0  0  0  0  0  0  0  0  0  0
    2.8283    2.1012   -0.3408 H   0  0  0  0  0  0  0  0  0  0  0  0
  1  2  1  0
  1  4  1  0
  1  5  1  0
  2  3  2  0
  6  7  1  0
  6 10  1  0
  6 11  1  0
  7  8  1  0
  7 12  1  0
  7 13  1  0
  8  9  1  0
  8 14  1  0
  8 15  1  0
  9 16  1  0
  9 17  1  0
  9 18  1  0
M  RAD  1   6   2
M  END
>  <reaction>  (7) 
rmg_rxn_1474

>  <mol_properties>  (7) 
{"0": {"label": "*1", "atom_type": "N3s"}, "1": {"label": "*0", "atom_type": "N3d"}, "3": {"label": "*2", "atom_type": "H0"}, "5": {"label": "*3", "atom_type": "Cs"}, "6": {"label": "*4", "atom_type": "Cs"}}

>  <type>  (7) 
unop_3

>  <geom_source>  (7) 
Heuristics

$$$$

     RDKit          3D

 18 16  0  0  0  0  0  0  0  0999 V2000
    0.5170   -1.0059    2.1197 N   0  0  0  0  0  0  0  0  0  0  0  0
    0.5170   -2.2087    1.5750 N   0  0  0  0  0  0  0  0  0  0  0  0
    0.5170   -2.2087    0.3705 O   0  0  0  0  0  0  0  0  0  0  0  0
    0.5170   -0.0233    1.4045 H   0  0  0  0  0  0  0  0  0  0  0  0
    0.5170   -0.9595    3.1218 H   0  0  0  0  0  0  0  0  0  0  0  0
    0.5170    1.0354    0.6339 C   0  0  0  0  0  3  0  0  0  0  0  0
   -0.1912    0.7652   -0.6867 C   0  0  0  0  0  0  0  0  0  0  0  0
   -0.6004    2.0393   -1.4167 C   0  0  0  0  0  0  0  0  0  0  0  0
   -1.3086    1.7691   -2.7373 C   0  0  0  0  0  0  0  0  0  0  0  0
   -0.1250    1.6004    1.3139 H   0  0  0  0  0  0  0  0  0  0  0  0
    1.4270    1.6197    0.4776 H   0  0  0  0  0  0  0  0  0  0  0  0
   -1.0812    0.1533   -0.5077 H   0  0  0  0  0  0  0  0  0  0  0  0
    0.4593    0.1724   -1.3378 H   0  0  0  0  0  0  0  0  0  0  0  0
   -1.2509    2.6321   -0.7656 H   0  0  0  0  0  0  0  0  0  0  0  0
    0.2896    2.6512   -1.5957 H   0  0  0  0  0  0  0  0  0  0  0  0
   -2.2186    1.1848   -2.5810 H   0  0  0  0  0  0  0  0  0  0  0  0
   -0.6666    1.2041   -3.4173 H   0  0  0  0  0  0  0  0  0  0  0  0
   -1.5899    2.6970   -3.2379 H   0  0  0  0  0  0  0  0  0  0  0  0
  1  2  1  0
  1  4  1  0
  1  5  1  0
  2  3  2  0
  6  7  1  0
  6 10  1  0
  6 11  1  0
  7  8  1  0
  7 12  1  0
  7 13  1  0
  8  9  1  0
  8 14  1  0
  8 15  1  0
  9 16  1  0
  9 17  1  0
  9 18  1  0
M  RAD  1   6   2
M  END
>  <reaction>  (8) 
rmg_rxn_1474

>  <mol_properties>  (8) 
{"0": {"label": "*1", "atom_type": "N3s"}, "1": {"label": "*0", "atom_type": "N3d"}, "3": {"label": "*2", "atom_type": "H0"}, "5": {"label": "*3", "atom_type": "Cs"}, "6": {"label": "*4", "atom_type": "Cs"}}

>  <type>  (8) 
unop_4

>  <geom_source>  (8) 
Heuristics

$$$$

     RDKit          3D

 18 16  0  0  0  0  0  0  0  0999 V2000
   -1.9506    0.6942    0.1565 N   0  0  0  0  0  0  0  0  0  0  0  0
   -2.2989   -0.5062    0.0417 N   0  0  0  0  0  0  0  0  0  0  0  0
   -1.5386   -1.4419   -0.0664 O   0  0  0  0  0  0  0  0  0  0  0  0
   -0.8418    1.2022   -0.0210 H   0  0  0  0  0  0  0  0  0  0  0  0
   -2.7292    1.3444    0.1979 H   0  0  0  0  0  0  0  0  0  0  0  0
    0.2799    1.8236   -0.2393 C   0  0  0  0  0  3  0  0  0  0  0  0
    1.4087    0.9954    0.3168 C   0  0  0  0  0  0  0  0  0  0  0  0
    1.5675   -0.3504   -0.3863 C   0  0  0  0  0  0  0  0  0  0  0  0
    2.7411   -1.1454    0.1716 C   0  0  0  0  0  0  0  0  0  0  0  0
    0.3381    1.9489   -1.3162 H   0  0  0  0  0  0  0  0  0  0  0  0
    0.1704    2.7813    0.2601 H   0  0  0  0  0  0  0  0  0  0  0  0
    1.2551    0.8325    1.3872 H   0  0  0  0  0  0  0  0  0  0  0  0
    2.3472    1.5556    0.2115 H   0  0  0  0  0  0  0  0  0  0  0  0
    0.6513   -0.9341   -0.2667 H   0  0  0  0  0  0  0  0  0  0  0  0
    1.7174   -0.1832   -1.4558 H   0  0  0  0  0  0  0  0  0  0  0  0
    3.6748   -0.6008    0.0407 H   0  0  0  0  0  0  0  0  0  0  0  0
    2.8279   -2.1023   -0.3371 H   0  0  0  0  0  0  0  0  0  0  0  0
    2.6017   -1.3351    1.2338 H   0  0  0  0  0  0  0  0  0  0  0  0
  1  2  1  0
  1  4  1  0
  1  5  1  0
  2  3  2  0
  6  7  1  0
  6 10  1  0
  6 11  1  0
  7  8  1  0
  7 12  1  0
  7 13  1  0
  8  9  1  0
  8 14  1  0
  8 15  1  0
  9 16  1  0
  9 17  1  0
  9 18  1  0
M  RAD  1   6   2
M  END
>  <reaction>  (9) 
rmg_rxn_1474

>  <mol_properties>  (9) 
{"0": {"label": "*1", "atom_type": "N3s"}, "1": {"label": "*0", "atom_type": "N3d"}, "3": {"label": "*2", "atom_type": "H0"}, "5": {"label": "*3", "atom_type": "Cs"}, "6": {"label": "*4", "atom_type": "Cs"}}

>  <type>  (9) 
unop_5

>  <geom_source>  (9) 
Heuristics

$$$$

     RDKit          3D

 18 16  0  0  0  0  0  0  0  0999 V2000
    0.2439   -1.8420    0.9219 N   0  0  0  0  0  0  0  0  0  0  0  0
    0.2439   -3.0448    0.3772 N   0  0  0  0  0  0  0  0  0  0  0  0
    0.2439   -3.0448   -0.8273 O   0  0  0  0  0  0  0  0  0  0  0  0
    0.2439   -0.8594    0.2067 H   0  0  0  0  0  0  0  0  0  0  0  0
    0.2439   -1.7957    1.9240 H   0  0  0  0  0  0  0  0  0  0  0  0
    0.2439    0.1993   -0.5639 C   0  0  0  0  0  3  0  0  0  0  0  0
   -0.4644    1.3729    0.0992 C   0  0  0  0  0  0  0  0  0  0  0  0
    0.0723    2.7266   -0.3516 C   0  0  0  0  0  0  0  0  0  0  0  0
   -0.6359    3.9002    0.3114 C   0  0  0  0  0  0  0  0  0  0  0  0
    1.3130    0.2096   -0.3388 H   0  0  0  0  0  0  0  0  0  0  0  0
    0.1352    0.2398   -1.6503 H   0  0  0  0  0  0  0  0  0  0  0  0
   -0.3677    1.2934    1.1868 H   0  0  0  0  0  0  0  0  0  0  0  0
   -1.5368    1.3234   -0.1151 H   0  0  0  0  0  0  0  0  0  0  0  0
    1.1448    2.7762   -0.1373 H   0  0  0  0  0  0  0  0  0  0  0  0
   -0.0243    2.8061   -1.4392 H   0  0  0  0  0  0  0  0  0  0  0  0
   -0.5272    3.8597    1.3979 H   0  0  0  0  0  0  0  0  0  0  0  0
   -1.7050    3.8899    0.0863 H   0  0  0  0  0  0  0  0  0  0  0  0
   -0.2325    4.8553   -0.0288 H   0  0  0  0  0  0  0  0  0  0  0  0
  1  2  1  0
  1  4  1  0
  1  5  1  0
  2  3  2  0
  6  7  1  0
  6 10  1  0
  6 11  1  0
  7  8  1  0
  7 12  1  0
  7 13  1  0
  8  9  1  0
  8 14  1  0
  8 15  1  0
  9 16  1  0
  9 17  1  0
  9 18  1  0
M  RAD  1   6   2
M  END
>  <reaction>  (10) 
rmg_rxn_1474

>  <mol_properties>  (10) 
{"0": {"label": "*1", "atom_type": "N3s"}, "1": {"label": "*0", "atom_type": "N3d"}, "3": {"label": "*2", "atom_type": "H0"}, "5": {"label": "*3", "atom_type": "Cs"}, "6": {"label": "*4", "atom_type": "Cs"}}

>  <type>  (10) 
unop_6

>  <geom_source>  (10) 
Heuristics

$$$$

     RDKit          3D

 18 16  0  0  0  0  0  0  0  0999 V2000
   -0.8268   -1.2186    1.7634 N   0  0  0  0  0  0  0  0  0  0  0  0
   -0.8268   -2.4214    1.2186 N   0  0  0  0  0  0  0  0  0  0  0  0
   -0.8268   -2.4214    0.0141 O   0  0  0  0  0  0  0  0  0  0  0  0
   -0.8268   -0.2359    1.0482 H   0  0  0  0  0  0  0  0  0  0  0  0
   -0.8268   -1.1722    2.7655 H   0  0  0  0  0  0  0  0  0  0  0  0
   -0.8268    0.8228    0.2776 C   0  0  0  0  0  3  0  0  0  0  0  0
    0.3999    0.8577   -0.6238 C   0  0  0  0  0  0  0  0  0  0  0  0
    0.8707    2.2732   -0.9374 C   0  0  0  0  0  0  0  0  0  0  0  0
    2.0974    2.3081   -1.8388 C   0  0  0  0  0  0  0  0  0  0  0  0
   -1.6681    1.3433   -0.1861 H   0  0  0  0  0  0  0  0  0  0  0  0
   -0.6238    1.3106    1.2339 H   0  0  0  0  0  0  0  0  0  0  0  0
    0.1816    0.3367   -1.5616 H   0  0  0  0  0  0  0  0  0  0  0  0
    1.2183    0.3042   -0.1520 H   0  0  0  0  0  0  0  0  0  0  0  0
    0.0523    2.8266   -1.4092 H   0  0  0  0  0  0  0  0  0  0  0  0
    1.0890    2.7941    0.0004 H   0  0  0  0  0  0  0  0  0  0  0  0
    1.8943    1.8203   -2.7952 H   0  0  0  0  0  0  0  0  0  0  0  0
    2.9387    1.7876   -1.3752 H   0  0  0  0  0  0  0  0  0  0  0  0
    2.4123    3.3319   -2.0469 H   0  0  0  0  0  0  0  0  0  0  0  0
  1  2  1  0
  1  4  1  0
  1  5  1  0
  2  3  2  0
  6  7  1  0
  6 10  1  0
  6 11  1  0
  7  8  1  0
  7 12  1  0
  7 13  1  0
  8  9  1  0
  8 14  1  0
  8 15  1  0
  9 16  1  0
  9 17  1  0
  9 18  1  0
M  RAD  1   6   2
M  END
>  <reaction>  (11) 
rmg_rxn_1474

>  <mol_properties>  (11) 
{"0": {"label": "*1", "atom_type": "N3s"}, "1": {"label": "*0", "atom_type": "N3d"}, "3": {"label": "*2", "atom_type": "H0"}, "5": {"label": "*3", "atom_type": "Cs"}, "6": {"label": "*4", "atom_type": "Cs"}}

>  <type>  (11) 
unop_7

>  <geom_source>  (11) 
Heuristics

$$$$

     RDKit          3D

 18 16  0  0  0  0  0  0  0  0999 V2000
    1.9512    0.6941    0.1540 N   0  0  0  0  0  0  0  0  0  0  0  0
    2.2987   -0.5066    0.0408 N   0  0  0  0  0  0  0  0  0  0  0  0
    1.5378   -1.4422   -0.0638 O   0  0  0  0  0  0  0  0  0  0  0  0
    0.8421    1.2023   -0.0213 H   0  0  0  0  0  0  0  0  0  0  0  0
    2.7300    1.3441    0.1926 H   0  0  0  0  0  0  0  0  0  0  0  0
   -0.2798    1.8240   -0.2377 C   0  0  0  0  0  3  0  0  0  0  0  0
   -1.4082    0.9950    0.3181 C   0  0  0  0  0  0  0  0  0  0  0  0
   -1.5674   -0.3498   -0.3870 C   0  0  0  0  0  0  0  0  0  0  0  0
   -2.7412   -1.1452    0.1701 C   0  0  0  0  0  0  0  0  0  0  0  0
   -0.1699    2.7809    0.2632 H   0  0  0  0  0  0  0  0  0  0  0  0
   -0.3390    1.9511   -1.3142 H   0  0  0  0  0  0  0  0  0  0  0  0
   -2.3468    1.5553    0.2143 H   0  0  0  0  0  0  0  0  0  0  0  0
   -1.2539    0.8306    1.3881 H   0  0  0  0  0  0  0  0  0  0  0  0
   -1.7176   -0.1811   -1.4562 H   0  0  0  0  0  0  0  0  0  0  0  0
   -0.6514   -0.9338   -0.2683 H   0  0  0  0  0  0  0  0  0  0  0  0
   -2.8284   -2.1013   -0.3401 H   0  0  0  0  0  0  0  0  0  0  0  0
   -3.6747   -0.6002    0.0404 H   0  0  0  0  0  0  0  0  0  0  0  0
   -2.6013   -1.3367    1.2319 H   0  0  0  0  0  0  0  0  0  0  0  0
  1  2  1  0
  1  4  1  0
  1  5  1  0
  2  3  2  0
  6  7  1  0
  6 10  1  0
  6 11  1  0
  7  8  1  0
  7 12  1  0
  7 13  1  0
  8  9  1  0
  8 14  1  0
  8 15  1  0
  9 16  1  0
  9 17  1  0
  9 18  1  0
M  RAD  1   6   2
M  END
>  <reaction>  (12) 
rmg_rxn_1474

>  <mol_properties>  (12) 
{"0": {"label": "*1", "atom_type": "N3s"}, "1": {"label": "*0", "atom_type": "N3d"}, "3": {"label": "*2", "atom_type": "H0"}, "5": {"label": "*3", "atom_type": "Cs"}, "6": {"label": "*4", "atom_type": "Cs"}}

>  <type>  (12) 
unop_8

>  <geom_source>  (12) 
Heuristics

$$$$

     RDKit          3D

 18 16  0  0  0  0  0  0  0  0999 V2000
    0.0000   -1.8768    0.9547 N   0  0  0  0  0  0  0  0  0  0  0  0
    0.0000   -3.0796    0.4099 N   0  0  0  0  0  0  0  0  0  0  0  0
    0.0000   -3.0796   -0.7946 O   0  0  0  0  0  0  0  0  0  0  0  0
    0.0000   -0.8941    0.2394 H   0  0  0  0  0  0  0  0  0  0  0  0
    0.0000   -1.8304    1.9568 H   0  0  0  0  0  0  0  0  0  0  0  0
   -0.0000    0.1646   -0.5311 C   0  0  0  0  0  3  0  0  0  0  0  0
   -0.0000    1.4499    0.2853 C   0  0  0  0  0  0  0  0  0  0  0  0
   -0.0000    2.7061   -0.5781 C   0  0  0  0  0  0  0  0  0  0  0  0
   -0.0000    3.9913    0.2384 C   0  0  0  0  0  0  0  0  0  0  0  0
    0.8815    0.1095   -1.1743 H   0  0  0  0  0  0  0  0  0  0  0  0
   -0.8815    0.1095   -1.1743 H   0  0  0  0  0  0  0  0  0  0  0  0
    0.8750    1.4672    0.9431 H   0  0  0  0  0  0  0  0  0  0  0  0
   -0.8750    1.4672    0.9431 H   0  0  0  0  0  0  0  0  0  0  0  0
    0.8750    2.6887   -1.2358 H   0  0  0  0  0  0  0  0  0  0  0  0
   -0.8750    2.6887   -1.2358 H   0  0  0  0  0  0  0  0  0  0  0  0
    0.8815    4.0464    0.8816 H   0  0  0  0  0  0  0  0  0  0  0  0
   -0.8815    4.0464    0.8816 H   0  0  0  0  0  0  0  0  0  0  0  0
   -0.0000    4.8736   -0.4037 H   0  0  0  0  0  0  0  0  0  0  0  0
  1  2  1  0
  1  4  1  0
  1  5  1  0
  2  3  2  0
  6  7  1  0
  6 10  1  0
  6 11  1  0
  7  8  1  0
  7 12  1  0
  7 13  1  0
  8  9  1  0
  8 14  1  0
  8 15  1  0
  9 16  1  0
  9 17  1  0
  9 18  1  0
M  RAD  1   6   2
M  END
>  <reaction>  (13) 
rmg_rxn_1474

>  <mol_properties>  (13) 
{"0": {"label": "*1", "atom_type": "N3s"}, "1": {"label": "*0", "atom_type": "N3d"}, "3": {"label": "*2", "atom_type": "H0"}, "5": {"label": "*3", "atom_type": "Cs"}, "6": {"label": "*4", "atom_type": "Cs"}}

>  <type>  (13) 
unop_9

>  <geom_source>  (13) 
Heuristics

$$$$

     RDKit          3D

 18 16  0  0  0  0  0  0  0  0999 V2000
    1.9511    0.6941   -0.1540 N   0  0  0  0  0  0  0  0  0  0  0  0
    2.2988   -0.5065   -0.0405 N   0  0  0  0  0  0  0  0  0  0  0  0
    1.5380   -1.4422    0.0634 O   0  0  0  0  0  0  0  0  0  0  0  0
    0.8419    1.2022    0.0213 H   0  0  0  0  0  0  0  0  0  0  0  0
    2.7299    1.3442   -0.1916 H   0  0  0  0  0  0  0  0  0  0  0  0
   -0.2799    1.8241    0.2375 C   0  0  0  0  0  3  0  0  0  0  0  0
   -1.4084    0.9951   -0.3179 C   0  0  0  0  0  0  0  0  0  0  0  0
   -1.5671   -0.3501    0.3866 C   0  0  0  0  0  0  0  0  0  0  0  0
   -2.7414   -1.1452   -0.1698 C   0  0  0  0  0  0  0  0  0  0  0  0
   -0.3388    1.9512    1.3141 H   0  0  0  0  0  0  0  0  0  0  0  0
   -0.1699    2.7810   -0.2633 H   0  0  0  0  0  0  0  0  0  0  0  0
   -1.2546    0.8311   -1.3881 H   0  0  0  0  0  0  0  0  0  0  0  0
   -2.3470    1.5552   -0.2134 H   0  0  0  0  0  0  0  0  0  0  0  0
   -0.6513   -0.9341    0.2668 H   0  0  0  0  0  0  0  0  0  0  0  0
   -1.7163   -0.1818    1.4560 H   0  0  0  0  0  0  0  0  0  0  0  0
   -3.6749   -0.6004   -0.0386 H   0  0  0  0  0  0  0  0  0  0  0  0
   -2.8280   -2.1017    0.3398 H   0  0  0  0  0  0  0  0  0  0  0  0
   -2.6028   -1.3358   -1.2319 H   0  0  0  0  0  0  0  0  0  0  0  0
  1  2  1  0
  1  4  1  0
  1  5  1  0
  2  3  2  0
  6  7  1  0
  6 10  1  0
  6 11  1  0
  7  8  1  0
  7 12  1  0
  7 13  1  0
  8  9  1  0
  8 14  1  0
  8 15  1  0
  9 16  1  0
  9 17  1  0
  9 18  1  0
M  RAD  1   6   2
M  END
>  <reaction>  (14) 
rmg_rxn_1474

>  <mol_properties>  (14) 
{"0": {"label": "*1", "atom_type": "N3s"}, "1": {"label": "*0", "atom_type": "N3d"}, "3": {"label": "*2", "atom_type": "H0"}, "5": {"label": "*3", "atom_type": "Cs"}, "6": {"label": "*4", "atom_type": "Cs"}}

>  <type>  (14) 
unop_10

>  <geom_source>  (14) 
Heuristics

$$$$

     RDKit          3D

 18 16  0  0  0  0  0  0  0  0999 V2000
   -0.8434   -1.4824    1.3512 N   0  0  0  0  0  0  0  0  0  0  0  0
   -0.8434   -2.6852    0.8064 N   0  0  0  0  0  0  0  0  0  0  0  0
   -0.8434   -2.6852   -0.3981 O   0  0  0  0  0  0  0  0  0  0  0  0
   -0.8434   -0.4997    0.6360 H   0  0  0  0  0  0  0  0  0  0  0  0
   -0.8434   -1.4360    2.3533 H   0  0  0  0  0  0  0  0  0  0  0  0
   -0.8434    0.5590   -0.1346 C   0  0  0  0  0  3  0  0  0  0  0  0
    0.5731    1.0107   -0.4634 C   0  0  0  0  0  0  0  0  0  0  0  0
    0.7311    2.5268   -0.4663 C   0  0  0  0  0  0  0  0  0  0  0  0
    2.1476    2.9785   -0.7951 C   0  0  0  0  0  0  0  0  0  0  0  0
   -1.5583    0.9527   -0.8611 H   0  0  0  0  0  0  0  0  0  0  0  0
   -1.1478    0.9133    0.8531 H   0  0  0  0  0  0  0  0  0  0  0  0
    0.8659    0.6181   -1.4426 H   0  0  0  0  0  0  0  0  0  0  0  0
    1.2733    0.5789    0.2590 H   0  0  0  0  0  0  0  0  0  0  0  0
    0.0309    2.9586   -1.1887 H   0  0  0  0  0  0  0  0  0  0  0  0
    0.4383    2.9194    0.5128 H   0  0  0  0  0  0  0  0  0  0  0  0
    2.4521    2.6242   -1.7828 H   0  0  0  0  0  0  0  0  0  0  0  0
    2.8625    2.5847   -0.0687 H   0  0  0  0  0  0  0  0  0  0  0  0
    2.2322    4.0664   -0.7903 H   0  0  0  0  0  0  0  0  0  0  0  0
  1  2  1  0
  1  4  1  0
  1  5  1  0
  2  3  2  0
  6  7  1  0
  6 10  1  0
  6 11  1  0
  7  8  1  0
  7 12  1  0
  7 13  1  0
  8  9  1  0
  8 14  1  0
  8 15  1  0
  9 16  1  0
  9 17  1  0
  9 18  1  0
M  RAD  1   6   2
M  END
>  <reaction>  (15) 
rmg_rxn_1474

>  <mol_properties>  (15) 
{"0": {"label": "*1", "atom_type": "N3s"}, "1": {"label": "*0", "atom_type": "N3d"}, "3": {"label": "*2", "atom_type": "H0"}, "5": {"label": "*3", "atom_type": "Cs"}, "6": {"label": "*4", "atom_type": "Cs"}}

>  <type>  (15) 
unop_11

>  <geom_source>  (15) 
Heuristics

$$$$

     RDKit          3D

 18 16  0  0  0  0  0  0  0  0999 V2000
    1.9509    0.6942    0.1550 N   0  0  0  0  0  0  0  0  0  0  0  0
    2.2987   -0.5065    0.0415 N   0  0  0  0  0  0  0  0  0  0  0  0
    1.5381   -1.4420   -0.0651 O   0  0  0  0  0  0  0  0  0  0  0  0
    0.8419    1.2024   -0.0214 H   0  0  0  0  0  0  0  0  0  0  0  0
    2.7296    1.3443    0.1950 H   0  0  0  0  0  0  0  0  0  0  0  0
   -0.2800    1.8238   -0.2384 C   0  0  0  0  0  3  0  0  0  0  0  0
   -1.4084    0.9951    0.3176 C   0  0  0  0  0  0  0  0  0  0  0  0
   -1.5674   -0.3500   -0.3869 C   0  0  0  0  0  0  0  0  0  0  0  0
   -2.7409   -1.1454    0.1709 C   0  0  0  0  0  0  0  0  0  0  0  0
   -0.1702    2.7810    0.2619 H   0  0  0  0  0  0  0  0  0  0  0  0
   -0.3388    1.9503   -1.3151 H   0  0  0  0  0  0  0  0  0  0  0  0
   -2.3471    1.5553    0.2133 H   0  0  0  0  0  0  0  0  0  0  0  0
   -1.2543    0.8312    1.3878 H   0  0  0  0  0  0  0  0  0  0  0  0
   -1.7178   -0.1818   -1.4561 H   0  0  0  0  0  0  0  0  0  0  0  0
   -0.6513   -0.9338   -0.2681 H   0  0  0  0  0  0  0  0  0  0  0  0
   -2.6009   -1.3363    1.2328 H   0  0  0  0  0  0  0  0  0  0  0  0
   -2.8279   -2.1018   -0.3388 H   0  0  0  0  0  0  0  0  0  0  0  0
   -3.6746   -0.6007    0.0409 H   0  0  0  0  0  0  0  0  0  0  0  0
  1  2  1  0
  1  4  1  0
  1  5  1  0
  2  3  2  0
  6  7  1  0
  6 10  1  0
  6 11  1  0
  7  8  1  0
  7 12  1  0
  7 13  1  0
  8  9  1  0
  8 14  1  0
  8 15  1  0
  9 16  1  0
  9 17  1  0
  9 18  1  0
M  RAD  1   6   2
M  END
>  <reaction>  (16) 
rmg_rxn_1474

>  <mol_properties>  (16) 
{"0": {"label": "*1", "atom_type": "N3s"}, "1": {"label": "*0", "atom_type": "N3d"}, "3": {"label": "*2", "atom_type": "H0"}, "5": {"label": "*3", "atom_type": "Cs"}, "6": {"label": "*4", "atom_type": "Cs"}}

>  <type>  (16) 
unop_12

>  <geom_source>  (16) 
Heuristics

$$$$

     RDKit          3D

 18 16  0  0  0  0  0  0  0  0999 V2000
   -0.6012   -1.7102    1.0343 N   0  0  0  0  0  0  0  0  0  0  0  0
   -0.6012   -2.9130    0.4895 N   0  0  0  0  0  0  0  0  0  0  0  0
   -0.6012   -2.9130   -0.7150 O   0  0  0  0  0  0  0  0  0  0  0  0
   -0.6012   -0.7275    0.3191 H   0  0  0  0  0  0  0  0  0  0  0  0
   -0.6012   -1.6638    2.0364 H   0  0  0  0  0  0  0  0  0  0  0  0
   -0.6012    0.3312   -0.4515 C   0  0  0  0  0  3  0  0  0  0  0  0
    0.6255    1.1997   -0.2077 C   0  0  0  0  0  0  0  0  0  0  0  0
    0.3150    2.6918   -0.2300 C   0  0  0  0  0  0  0  0  0  0  0  0
    1.5417    3.5603    0.0139 C   0  0  0  0  0  0  0  0  0  0  0  0
   -1.0481    0.5494   -1.4244 H   0  0  0  0  0  0  0  0  0  0  0  0
   -1.3645    0.5095    0.3096 H   0  0  0  0  0  0  0  0  0  0  0  0
    1.3867    0.9808   -0.9635 H   0  0  0  0  0  0  0  0  0  0  0  0
    1.0726    0.9411    0.7577 H   0  0  0  0  0  0  0  0  0  0  0  0
   -0.1321    2.9504   -1.1953 H   0  0  0  0  0  0  0  0  0  0  0  0
   -0.4461    2.9107    0.5259 H   0  0  0  0  0  0  0  0  0  0  0  0
    2.3051    3.3820   -0.7472 H   0  0  0  0  0  0  0  0  0  0  0  0
    1.9887    3.3421    0.9867 H   0  0  0  0  0  0  0  0  0  0  0  0
    1.2912    4.6222   -0.0074 H   0  0  0  0  0  0  0  0  0  0  0  0
  1  2  1  0
  1  4  1  0
  1  5  1  0
  2  3  2  0
  6  7  1  0
  6 10  1  0
  6 11  1  0
  7  8  1  0
  7 12  1  0
  7 13  1  0
  8  9  1  0
  8 14  1  0
  8 15  1  0
  9 16  1  0
  9 17  1  0
  9 18  1  0
M  RAD  1   6   2
M  END
>  <reaction>  (17) 
rmg_rxn_1474

>  <mol_properties>  (17) 
{"0": {"label": "*1", "atom_type": "N3s"}, "1": {"label": "*0", "atom_type": "N3d"}, "3": {"label": "*2", "atom_type": "H0"}, "5": {"label": "*3", "atom_type": "Cs"}, "6": {"label": "*4", "atom_type": "Cs"}}

>  <type>  (17) 
unop_13

>  <geom_source>  (17) 
Heuristics

$$$$

     RDKit          3D

 18 16  0  0  0  0  0  0  0  0999 V2000
    0.8434   -1.4824    1.3512 N   0  0  0  0  0  0  0  0  0  0  0  0
    0.8434   -2.6852    0.8064 N   0  0  0  0  0  0  0  0  0  0  0  0
    0.8434   -2.6852   -0.3981 O   0  0  0  0  0  0  0  0  0  0  0  0
    0.8434   -0.4997    0.6360 H   0  0  0  0  0  0  0  0  0  0  0  0
    0.8434   -1.4360    2.3533 H   0  0  0  0  0  0  0  0  0  0  0  0
    0.8434    0.5590   -0.1346 C   0  0  0  0  0  3  0  0  0  0  0  0
   -0.5731    1.0107   -0.4634 C   0  0  0  0  0  0  0  0  0  0  0  0
   -0.7311    2.5268   -0.4663 C   0  0  0  0  0  0  0  0  0  0  0  0
   -2.1476    2.9785   -0.7951 C   0  0  0  0  0  0  0  0  0  0  0  0
    1.1478    0.9133    0.8531 H   0  0  0  0  0  0  0  0  0  0  0  0
    1.5583    0.9527   -0.8611 H   0  0  0  0  0  0  0  0  0  0  0  0
   -1.2733    0.5789    0.2590 H   0  0  0  0  0  0  0  0  0  0  0  0
   -0.8659    0.6181   -1.4425 H   0  0  0  0  0  0  0  0  0  0  0  0
   -0.4383    2.9194    0.5128 H   0  0  0  0  0  0  0  0  0  0  0  0
   -0.0309    2.9586   -1.1887 H   0  0  0  0  0  0  0  0  0  0  0  0
   -2.8625    2.5847   -0.0687 H   0  0  0  0  0  0  0  0  0  0  0  0
   -2.4521    2.6242   -1.7828 H   0  0  0  0  0  0  0  0  0  0  0  0
   -2.2322    4.0664   -0.7903 H   0  0  0  0  0  0  0  0  0  0  0  0
  1  2  1  0
  1  4  1  0
  1  5  1  0
  2  3  2  0
  6  7  1  0
  6 10  1  0
  6 11  1  0
  7  8  1  0
  7 12  1  0
  7 13  1  0
  8  9  1  0
  8 14  1  0
  8 15  1  0
  9 16  1  0
  9 17  1  0
  9 18  1  0
M  RAD  1   6   2
M  END
>  <reaction>  (18) 
rmg_rxn_1474

>  <mol_properties>  (18) 
{"0": {"label": "*1", "atom_type": "N3s"}, "1": {"label": "*0", "atom_type": "N3d"}, "3": {"label": "*2", "atom_type": "H0"}, "5": {"label": "*3", "atom_type": "Cs"}, "6": {"label": "*4", "atom_type": "Cs"}}

>  <type>  (18) 
unop_14

>  <geom_source>  (18) 
Heuristics

$$$$

     RDKit          3D

 18 16  0  0  0  0  0  0  0  0999 V2000
    1.9511   -0.6942    0.1539 N   0  0  0  0  0  0  0  0  0  0  0  0
    2.2987    0.5065    0.0405 N   0  0  0  0  0  0  0  0  0  0  0  0
    1.5379    1.4423   -0.0633 O   0  0  0  0  0  0  0  0  0  0  0  0
    0.8418   -1.2023   -0.0211 H   0  0  0  0  0  0  0  0  0  0  0  0
    2.7298   -1.3443    0.1913 H   0  0  0  0  0  0  0  0  0  0  0  0
   -0.2800   -1.8241   -0.2374 C   0  0  0  0  0  3  0  0  0  0  0  0
   -1.4084   -0.9950    0.3180 C   0  0  0  0  0  0  0  0  0  0  0  0
   -1.5670    0.3500   -0.3867 C   0  0  0  0  0  0  0  0  0  0  0  0
   -2.7411    1.1454    0.1697 C   0  0  0  0  0  0  0  0  0  0  0  0
   -0.3390   -1.9515   -1.3140 H   0  0  0  0  0  0  0  0  0  0  0  0
   -0.1702   -2.7809    0.2637 H   0  0  0  0  0  0  0  0  0  0  0  0
   -1.2545   -0.8307    1.3882 H   0  0  0  0  0  0  0  0  0  0  0  0
   -2.3471   -1.5551    0.2136 H   0  0  0  0  0  0  0  0  0  0  0  0
   -0.6510    0.9339   -0.2672 H   0  0  0  0  0  0  0  0  0  0  0  0
   -1.7164    0.1815   -1.4560 H   0  0  0  0  0  0  0  0  0  0  0  0
   -2.8277    2.1017   -0.3401 H   0  0  0  0  0  0  0  0  0  0  0  0
   -2.6022    1.3362    1.2318 H   0  0  0  0  0  0  0  0  0  0  0  0
   -3.6747    0.6006    0.0389 H   0  0  0  0  0  0  0  0  0  0  0  0
  1  2  1  0
  1  4  1  0
  1  5  1  0
  2  3  2  0
  6  7  1  0
  6 10  1  0
  6 11  1  0
  7  8  1  0
  7 12  1  0
  7 13  1  0
  8  9  1  0
  8 14  1  0
  8 15  1  0
  9 16  1  0
  9 17  1  0
  9 18  1  0
M  RAD  1   6   2
M  END
>  <reaction>  (19) 
rmg_rxn_1474

>  <mol_properties>  (19) 
{"0": {"label": "*1", "atom_type": "N3s"}, "1": {"label": "*0", "atom_type": "N3d"}, "3": {"label": "*2", "atom_type": "H0"}, "5": {"label": "*3", "atom_type": "Cs"}, "6": {"label": "*4", "atom_type": "Cs"}}

>  <type>  (19) 
unop_15

>  <geom_source>  (19) 
Heuristics

$$$$

     RDKit          3D

 18 16  0  0  0  0  0  0  0  0999 V2000
   -0.5170   -1.0059    2.1197 N   0  0  0  0  0  0  0  0  0  0  0  0
   -0.5170   -2.2087    1.5750 N   0  0  0  0  0  0  0  0  0  0  0  0
   -0.5170   -2.2087    0.3705 O   0  0  0  0  0  0  0  0  0  0  0  0
   -0.5170   -0.0233    1.4045 H   0  0  0  0  0  0  0  0  0  0  0  0
   -0.5170   -0.9595    3.1218 H   0  0  0  0  0  0  0  0  0  0  0  0
   -0.5170    1.0354    0.6339 C   0  0  0  0  0  3  0  0  0  0  0  0
    0.1912    0.7652   -0.6867 C   0  0  0  0  0  0  0  0  0  0  0  0
    0.6004    2.0393   -1.4167 C   0  0  0  0  0  0  0  0  0  0  0  0
    1.3086    1.7691   -2.7373 C   0  0  0  0  0  0  0  0  0  0  0  0
   -1.4270    1.6197    0.4776 H   0  0  0  0  0  0  0  0  0  0  0  0
    0.1250    1.6004    1.3139 H   0  0  0  0  0  0  0  0  0  0  0  0
   -0.4593    0.1724   -1.3378 H   0  0  0  0  0  0  0  0  0  0  0  0
    1.0812    0.1533   -0.5077 H   0  0  0  0  0  0  0  0  0  0  0  0
   -0.2896    2.6512   -1.5957 H   0  0  0  0  0  0  0  0  0  0  0  0
    1.2509    2.6321   -0.7656 H   0  0  0  0  0  0  0  0  0  0  0  0
    0.6666    1.2041   -3.4173 H   0  0  0  0  0  0  0  0  0  0  0  0
    2.2186    1.1848   -2.5810 H   0  0  0  0  0  0  0  0  0  0  0  0
    1.5899    2.6970   -3.2379 H   0  0  0  0  0  0  0  0  0  0  0  0
  1  2  1  0
  1  4  1  0
  1  5  1  0
  2  3  2  0
  6  7  1  0
  6 10  1  0
  6 11  1  0
  7  8  1  0
  7 12  1  0
  7 13  1  0
  8  9  1  0
  8 14  1  0
  8 15  1  0
  9 16  1  0
  9 17  1  0
  9 18  1  0
M  RAD  1   6   2
M  END
>  <reaction>  (20) 
rmg_rxn_1474

>  <mol_properties>  (20) 
{"0": {"label": "*1", "atom_type": "N3s"}, "1": {"label": "*0", "atom_type": "N3d"}, "3": {"label": "*2", "atom_type": "H0"}, "5": {"label": "*3", "atom_type": "Cs"}, "6": {"label": "*4", "atom_type": "Cs"}}

>  <type>  (20) 
unop_16

>  <geom_source>  (20) 
Heuristics

$$$$

     RDKit          3D

 18 16  0  0  0  0  0  0  0  0999 V2000
    0.8268   -1.2186    1.7634 N   0  0  0  0  0  0  0  0  0  0  0  0
    0.8268   -2.4214    1.2186 N   0  0  0  0  0  0  0  0  0  0  0  0
    0.8268   -2.4214    0.0141 O   0  0  0  0  0  0  0  0  0  0  0  0
    0.8268   -0.2359    1.0482 H   0  0  0  0  0  0  0  0  0  0  0  0
    0.8268   -1.1722    2.7655 H   0  0  0  0  0  0  0  0  0  0  0  0
    0.8268    0.8228    0.2776 C   0  0  0  0  0  3  0  0  0  0  0  0
   -0.3999    0.8577   -0.6238 C   0  0  0  0  0  0  0  0  0  0  0  0
   -0.8707    2.2731   -0.9374 C   0  0  0  0  0  0  0  0  0  0  0  0
   -2.0974    2.3081   -1.8388 C   0  0  0  0  0  0  0  0  0  0  0  0
    0.6238    1.3106    1.2339 H   0  0  0  0  0  0  0  0  0  0  0  0
    1.6681    1.3433   -0.1861 H   0  0  0  0  0  0  0  0  0  0  0  0
   -1.2183    0.3042   -0.1520 H   0  0  0  0  0  0  0  0  0  0  0  0
   -0.1816    0.3367   -1.5616 H   0  0  0  0  0  0  0  0  0  0  0  0
   -1.0890    2.7941    0.0004 H   0  0  0  0  0  0  0  0  0  0  0  0
   -0.0523    2.8266   -1.4092 H   0  0  0  0  0  0  0  0  0  0  0  0
   -2.9387    1.7876   -1.3751 H   0  0  0  0  0  0  0  0  0  0  0  0
   -1.8943    1.8203   -2.7952 H   0  0  0  0  0  0  0  0  0  0  0  0
   -2.4123    3.3319   -2.0469 H   0  0  0  0  0  0  0  0  0  0  0  0
  1  2  1  0
  1  4  1  0
  1  5  1  0
  2  3  2  0
  6  7  1  0
  6 10  1  0
  6 11  1  0
  7  8  1  0
  7 12  1  0
  7 13  1  0
  8  9  1  0
  8 14  1  0
  8 15  1  0
  9 16  1  0
  9 17  1  0
  9 18  1  0
M  RAD  1   6   2
M  END
>  <reaction>  (21) 
rmg_rxn_1474

>  <mol_properties>  (21) 
{"0": {"label": "*1", "atom_type": "N3s"}, "1": {"label": "*0", "atom_type": "N3d"}, "3": {"label": "*2", "atom_type": "H0"}, "5": {"label": "*3", "atom_type": "Cs"}, "6": {"label": "*4", "atom_type": "Cs"}}

>  <type>  (21) 
unop_17

>  <geom_source>  (21) 
Heuristics

$$$$

     RDKit          3D

 18 16  0  0  0  0  0  0  0  0999 V2000
   -0.2439   -1.8420    0.9219 N   0  0  0  0  0  0  0  0  0  0  0  0
   -0.2439   -3.0448    0.3772 N   0  0  0  0  0  0  0  0  0  0  0  0
   -0.2439   -3.0448   -0.8273 O   0  0  0  0  0  0  0  0  0  0  0  0
   -0.2439   -0.8594    0.2067 H   0  0  0  0  0  0  0  0  0  0  0  0
   -0.2439   -1.7957    1.9240 H   0  0  0  0  0  0  0  0  0  0  0  0
   -0.2439    0.1993   -0.5639 C   0  0  0  0  0  3  0  0  0  0  0  0
    0.4644    1.3729    0.0992 C   0  0  0  0  0  0  0  0  0  0  0  0
   -0.0723    2.7266   -0.3516 C   0  0  0  0  0  0  0  0  0  0  0  0
    0.6359    3.9002    0.3114 C   0  0  0  0  0  0  0  0  0  0  0  0
   -0.1352    0.2398   -1.6503 H   0  0  0  0  0  0  0  0  0  0  0  0
   -1.3130    0.2096   -0.3388 H   0  0  0  0  0  0  0  0  0  0  0  0
    1.5368    1.3234   -0.1151 H   0  0  0  0  0  0  0  0  0  0  0  0
    0.3677    1.2934    1.1868 H   0  0  0  0  0  0  0  0  0  0  0  0
    0.0243    2.8061   -1.4392 H   0  0  0  0  0  0  0  0  0  0  0  0
   -1.1448    2.7762   -0.1373 H   0  0  0  0  0  0  0  0  0  0  0  0
    1.7050    3.8899    0.0863 H   0  0  0  0  0  0  0  0  0  0  0  0
    0.5272    3.8597    1.3979 H   0  0  0  0  0  0  0  0  0  0  0  0
    0.2325    4.8553   -0.0288 H   0  0  0  0  0  0  0  0  0  0  0  0
  1  2  1  0
  1  4  1  0
  1  5  1  0
  2  3  2  0
  6  7  1  0
  6 10  1  0
  6 11  1  0
  7  8  1  0
  7 12  1  0
  7 13  1  0
  8  9  1  0
  8 14  1  0
  8 15  1  0
  9 16  1  0
  9 17  1  0
  9 18  1  0
M  RAD  1   6   2
M  END
>  <reaction>  (22) 
rmg_rxn_1474

>  <mol_properties>  (22) 
{"0": {"label": "*1", "atom_type": "N3s"}, "1": {"label": "*0", "atom_type": "N3d"}, "3": {"label": "*2", "atom_type": "H0"}, "5": {"label": "*3", "atom_type": "Cs"}, "6": {"label": "*4", "atom_type": "Cs"}}

>  <type>  (22) 
unop_18

>  <geom_source>  (22) 
Heuristics

$$$$

     RDKit          3D

 18 16  0  0  0  0  0  0  0  0999 V2000
    0.0000   -0.9239    2.2639 N   0  0  0  0  0  0  0  0  0  0  0  0
    0.0000   -2.1267    1.7191 N   0  0  0  0  0  0  0  0  0  0  0  0
    0.0000   -2.1267    0.5146 O   0  0  0  0  0  0  0  0  0  0  0  0
    0.0000    0.0588    1.5487 H   0  0  0  0  0  0  0  0  0  0  0  0
    0.0000   -0.8775    3.2660 H   0  0  0  0  0  0  0  0  0  0  0  0
   -0.0000    1.1175    0.7781 C   0  0  0  0  0  3  0  0  0  0  0  0
   -0.0000    0.7356   -0.6960 C   0  0  0  0  0  0  0  0  0  0  0  0
   -0.0000    1.9434   -1.6259 C   0  0  0  0  0  0  0  0  0  0  0  0
   -0.0000    1.5615   -3.1000 C   0  0  0  0  0  0  0  0  0  0  0  0
   -0.8815    1.7126    1.0282 H   0  0  0  0  0  0  0  0  0  0  0  0
    0.8815    1.7126    1.0282 H   0  0  0  0  0  0  0  0  0  0  0  0
   -0.8750    0.1151   -0.9146 H   0  0  0  0  0  0  0  0  0  0  0  0
    0.8750    0.1150   -0.9146 H   0  0  0  0  0  0  0  0  0  0  0  0
   -0.8750    2.5639   -1.4073 H   0  0  0  0  0  0  0  0  0  0  0  0
    0.8750    2.5639   -1.4073 H   0  0  0  0  0  0  0  0  0  0  0  0
   -0.8815    0.9664   -3.3501 H   0  0  0  0  0  0  0  0  0  0  0  0
    0.8815    0.9664   -3.3501 H   0  0  0  0  0  0  0  0  0  0  0  0
   -0.0000    2.4437   -3.7421 H   0  0  0  0  0  0  0  0  0  0  0  0
  1  2  1  0
  1  4  1  0
  1  5  1  0
  2  3  2  0
  6  7  1  0
  6 10  1  0
  6 11  1  0
  7  8  1  0
  7 12  1  0
  7 13  1  0
  8  9  1  0
  8 14  1  0
  8 15  1  0
  9 16  1  0
  9 17  1  0
  9 18  1  0
M  RAD  1   6   2
M  END
>  <reaction>  (23) 
rmg_rxn_1474

>  <mol_properties>  (23) 
{"0": {"label": "*1", "atom_type": "N3s"}, "1": {"label": "*0", "atom_type": "N3d"}, "3": {"label": "*2", "atom_type": "H0"}, "5": {"label": "*3", "atom_type": "Cs"}, "6": {"label": "*4", "atom_type": "Cs"}}

>  <type>  (23) 
unop_19

>  <geom_source>  (23) 
Heuristics

$$$$

     RDKit          3D

 18 16  0  0  0  0  0  0  0  0999 V2000
    0.5170   -1.0059    2.1197 N   0  0  0  0  0  0  0  0  0  0  0  0
    0.5170   -2.2087    1.5750 N   0  0  0  0  0  0  0  0  0  0  0  0
    0.5170   -2.2087    0.3705 O   0  0  0  0  0  0  0  0  0  0  0  0
    0.5170   -0.0233    1.4045 H   0  0  0  0  0  0  0  0  0  0  0  0
    0.5170   -0.9596    3.1218 H   0  0  0  0  0  0  0  0  0  0  0  0
    0.5170    1.0354    0.6339 C   0  0  0  0  0  3  0  0  0  0  0  0
   -0.1912    0.7652   -0.6867 C   0  0  0  0  0  0  0  0  0  0  0  0
   -0.6004    2.0393   -1.4167 C   0  0  0  0  0  0  0  0  0  0  0  0
   -1.3087    1.7691   -2.7373 C   0  0  0  0  0  0  0  0  0  0  0  0
   -0.1250    1.6004    1.3139 H   0  0  0  0  0  0  0  0  0  0  0  0
    1.4270    1.6197    0.4776 H   0  0  0  0  0  0  0  0  0  0  0  0
   -1.0812    0.1533   -0.5077 H   0  0  0  0  0  0  0  0  0  0  0  0
    0.4593    0.1724   -1.3378 H   0  0  0  0  0  0  0  0  0  0  0  0
   -1.2509    2.6321   -0.7656 H   0  0  0  0  0  0  0  0  0  0  0  0
    0.2896    2.6512   -1.5957 H   0  0  0  0  0  0  0  0  0  0  0  0
   -2.2186    1.1848   -2.5810 H   0  0  0  0  0  0  0  0  0  0  0  0
   -0.6666    1.2041   -3.4173 H   0  0  0  0  0  0  0  0  0  0  0  0
   -1.5899    2.6970   -3.2379 H   0  0  0  0  0  0  0  0  0  0  0  0
  1  2  1  0
  1  4  1  0
  1  5  1  0
  2  3  2  0
  6  7  1  0
  6 10  1  0
  6 11  1  0
  7  8  1  0
  7 12  1  0
  7 13  1  0
  8  9  1  0
  8 14  1  0
  8 15  1  0
  9 16  1  0
  9 17  1  0
  9 18  1  0
M  RAD  1   6   2
M  END
>  <reaction>  (24) 
rmg_rxn_1474

>  <mol_properties>  (24) 
{"0": {"label": "*1", "atom_type": "N3s"}, "1": {"label": "*0", "atom_type": "N3d"}, "3": {"label": "*2", "atom_type": "H0"}, "5": {"label": "*3", "atom_type": "Cs"}, "6": {"label": "*4", "atom_type": "Cs"}}

>  <type>  (24) 
unop_20

>  <geom_source>  (24) 
gaussian_log

$$$$
