
     RDKit          3D

 12 11  0  0  0  0  0  0  0  0999 V2000
    1.8075    0.1979    0.4695 C   0  0  0  0  0  0  0  0  0  0  0  0
    1.0072   -0.8859   -0.7259 S   0  0  0  0  0  0  0  0  0  0  0  0
   -0.7258   -0.6904   -0.2447 C   0  0  0  0  0  0  0  0  0  0  0  0
   -1.0856   -1.2776    1.1108 C   0  0  0  0  0  0  0  0  0  0  0  0
    1.7126   -0.1777    1.4878 H   0  0  0  0  0  0  0  0  0  0  0  0
    1.4024    1.2089    0.4095 H   0  0  0  0  0  0  0  0  0  0  0  0
    2.8647    0.2298    0.2095 H   0  0  0  0  0  0  0  0  0  0  0  0
   -1.2866   -1.1892   -1.0369 H   0  0  0  0  0  0  0  0  0  0  0  0
   -0.9814    0.3707   -0.2917 H   0  0  0  0  0  0  0  0  0  0  0  0
   -0.5492   -0.7768    1.9180 H   0  0  0  0  0  0  0  0  0  0  0  0
   -0.8418   -2.3397    1.1503 H   0  0  0  0  0  0  0  0  0  0  0  0
   -2.1545   -1.1604    1.3035 H   0  0  0  0  0  0  0  0  0  0  0  0
  1  2  1  0
  1  5  1  0
  1  6  1  0
  1  7  1  0
  2  3  1  0
  3  4  1  0
  3  8  1  0
  3  9  1  0
  4 10  1  0
  4 11  1  0
  4 12  1  0
M  END
>  <reaction>  (1) 
rmg_rxn_15692

>  <mol_properties>  (1) 
{"2": {"label": "donator", "atom_type": "Cs"}, "7": {"label": "d_hydrogen", "atom_type": "H0"}}

>  <type>  (1) 
r1h

$$$$

     RDKit          3D

  8  7  0  0  0  0  0  0  0  0999 V2000
    1.7077   -0.1964   -0.0607 C   0  0  0  0  0  3  0  0  0  0  0  0
    0.4209   -0.4565    0.2808 O   0  0  0  0  0  0  0  0  0  0  0  0
   -0.4607    0.4385   -0.2968 N   0  0  0  0  0  0  0  0  0  0  0  0
   -1.6584    0.1416   -0.0244 C   0  0  0  0  0  0  0  0  0  0  0  0
    2.4163   -0.7685    0.5170 H   0  0  0  0  0  0  0  0  0  0  0  0
    1.9214    0.7645   -0.5045 H   0  0  0  0  0  0  0  0  0  0  0  0
   -2.4185    0.7953   -0.4307 H   0  0  0  0  0  0  0  0  0  0  0  0
   -1.9286   -0.7185    0.5831 H   0  0  0  0  0  0  0  0  0  0  0  0
  1  2  1  0
  1  5  1  0
  1  6  1  0
  2  3  1  0
  3  4  2  3
  4  7  1  0
  4  8  1  0
M  RAD  1   1   2
M  END
>  <reaction>  (2) 
rmg_rxn_15692

>  <mol_properties>  (2) 
{"0": {"label": "acceptor", "atom_type": "Cs"}}

>  <type>  (2) 
r2

$$$$

     RDKit          3D

  9  8  0  0  0  0  0  0  0  0999 V2000
   -1.5470   -0.0755   -0.1976 C   0  0  0  0  0  0  0  0  0  0  0  0
   -0.2885    0.4507    0.1749 O   0  0  0  0  0  0  0  0  0  0  0  0
   -0.1502    1.7216   -0.3294 N   0  0  0  0  0  0  0  0  0  0  0  0
    0.9626    2.2353   -0.0219 C   0  0  0  0  0  0  0  0  0  0  0  0
   -1.6392   -0.1356   -1.2844 H   0  0  0  0  0  0  0  0  0  0  0  0
   -2.3597    0.5337    0.2044 H   0  0  0  0  0  0  0  0  0  0  0  0
   -1.5879   -1.0750    0.2318 H   0  0  0  0  0  0  0  0  0  0  0  0
    1.1497    3.2381   -0.3820 H   0  0  0  0  0  0  0  0  0  0  0  0
    1.7060    1.7101    0.5739 H   0  0  0  0  0  0  0  0  0  0  0  0
  1  2  1  0
  1  5  1  0
  1  6  1  0
  1  7  1  0
  2  3  1  0
  3  4  2  3
  4  8  1  0
  4  9  1  0
M  END
>  <reaction>  (3) 
rmg_rxn_15692

>  <mol_properties>  (3) 
{"0": {"label": "acceptor", "atom_type": "Cs"}, "8": {"label": "a_hydrogen", "atom_type": "H0"}}

>  <type>  (3) 
r2h

$$$$

     RDKit          3D

 20 18  0  0  0  0  0  0  0  0999 V2000
    1.0423    1.1929    1.1423 C   0  0  0  0  0  3  0  0  0  0  0  0
    2.0831    0.8191    0.3007 O   0  0  0  0  0  0  0  0  0  0  0  0
    2.0786   -0.5394    0.0877 N   0  0  0  0  0  0  0  0  0  0  0  0
    2.9893   -0.8947   -0.7138 C   0  0  0  0  0  0  0  0  0  0  0  0
    0.9022    0.5162    1.9846 H   0  0  0  0  0  0  0  0  0  0  0  0
    1.1849    2.2348    1.4141 H   0  0  0  0  0  0  0  0  0  0  0  0
    3.0576   -1.9525   -0.9291 H   0  0  0  0  0  0  0  0  0  0  0  0
    3.6780   -0.1872   -1.1696 H   0  0  0  0  0  0  0  0  0  0  0  0
   -1.3550   -1.6979    0.1840 C   0  0  0  0  0  0  0  0  0  0  0  0
   -2.3018   -0.1835    0.4316 S   0  0  0  0  0  0  0  0  0  0  0  0
   -1.2369    1.0247   -0.3092 C   0  0  0  0  0  0  0  0  0  0  0  0
   -0.7536    0.7939   -1.7205 C   0  0  0  0  0  0  0  0  0  0  0  0
   -1.3732   -2.0165   -0.8576 H   0  0  0  0  0  0  0  0  0  0  0  0
   -1.8285   -2.4659    0.7940 H   0  0  0  0  0  0  0  0  0  0  0  0
   -0.3230   -1.5630    0.5086 H   0  0  0  0  0  0  0  0  0  0  0  0
   -0.1536    1.1215    0.4389 H   0  0  0  0  0  0  0  0  0  0  0  0
   -1.7171    1.9941   -0.1733 H   0  0  0  0  0  0  0  0  0  0  0  0
   -0.1013    1.6133   -2.0295 H   0  0  0  0  0  0  0  0  0  0  0  0
   -1.5881    0.7346   -2.4247 H   0  0  0  0  0  0  0  0  0  0  0  0
   -0.1770   -0.1291   -1.7971 H   0  0  0  0  0  0  0  0  0  0  0  0
  1  2  1  0
  1  5  1  0
  1  6  1  0
  2  3  1  0
  3  4  2  3
  4  7  1  0
  4  8  1  0
  9 10  1  0
  9 13  1  0
  9 14  1  0
  9 15  1  0
 10 11  1  0
 11 12  1  0
 11 16  1  0
 11 17  1  0
 12 18  1  0
 12 19  1  0
 12 20  1  0
M  RAD  1   1   2
M  END
>  <reaction>  (4) 
rmg_rxn_15692

>  <mol_properties>  (4) 
{"0": {"label": "*3", "atom_type": "Cs"}, "1": {"label": "*4", "atom_type": "O2s"}, "9": {"label": "*0", "atom_type": "S2s"}, "10": {"label": "*1", "atom_type": "Cs"}, "15": {"label": "*2", "atom_type": "H0"}}

>  <type>  (4) 
ts

$$$$

     RDKit          3D

 20 18  0  0  0  0  0  0  0  0999 V2000
    1.0098   -1.2784   -1.0842 C   0  0  0  0  0  0  0  0  0  0  0  0
    2.0330   -0.7866   -0.2762 O   0  0  0  0  0  0  0  0  0  0  0  0
    1.9910    0.5864   -0.1605 N   0  0  0  0  0  0  0  0  0  0  0  0
    2.8917    1.1141    0.5515 C   0  0  0  0  0  0  0  0  0  0  0  0
    0.8836   -0.7137   -2.0063 H   0  0  0  0  0  0  0  0  0  0  0  0
    1.2122   -2.3303   -1.2510 H   0  0  0  0  0  0  0  0  0  0  0  0
    2.8633    2.1850    0.6457 H   0  0  0  0  0  0  0  0  0  0  0  0
    3.6738    0.5574    1.0575 H   0  0  0  0  0  0  0  0  0  0  0  0
   -1.1252    1.7154   -0.0522 C   0  0  0  0  0  0  0  0  0  0  0  0
   -2.1807    0.2890   -0.4489 S   0  0  0  0  0  0  0  0  0  0  0  0
   -1.2608   -1.0435    0.2643 C   0  0  0  0  0  3  0  0  0  0  0  0
   -0.8598   -0.9074    1.7102 C   0  0  0  0  0  0  0  0  0  0  0  0
   -1.4406    2.5210   -0.7069 H   0  0  0  0  0  0  0  0  0  0  0  0
   -0.0848    1.4584   -0.2405 H   0  0  0  0  0  0  0  0  0  0  0  0
   -1.2732    2.0055    0.9838 H   0  0  0  0  0  0  0  0  0  0  0  0
   -0.1330   -1.1805   -0.4429 H   0  0  0  0  0  0  0  0  0  0  0  0
   -1.8228   -1.9526    0.0620 H   0  0  0  0  0  0  0  0  0  0  0  0
   -0.2099   -0.0476    1.8594 H   0  0  0  0  0  0  0  0  0  0  0  0
   -0.3211   -1.8003    2.0221 H   0  0  0  0  0  0  0  0  0  0  0  0
   -1.7356   -0.7932    2.3518 H   0  0  0  0  0  0  0  0  0  0  0  0
  1  2  1  0
  1  5  1  0
  1  6  1  0
  1 16  1  0
  2  3  1  0
  3  4  2  3
  4  7  1  0
  4  8  1  0
  9 10  1  0
  9 13  1  0
  9 14  1  0
  9 15  1  0
 10 11  1  0
 11 12  1  0
 11 17  1  0
 12 18  1  0
 12 19  1  0
 12 20  1  0
M  RAD  1  11   2
M  END
>  <reaction>  (5) 
rmg_rxn_15692

>  <mol_properties>  (5) 
{"0": {"label": "*3", "atom_type": "Cs"}, "1": {"label": "*4", "atom_type": "O2s"}, "9": {"label": "*0", "atom_type": "S2s"}, "10": {"label": "*1", "atom_type": "Cs"}, "15": {"label": "*2", "atom_type": "H0"}}

>  <type>  (5) 
unop_1

>  <geom_source>  (5) 
crest_best.xyz

$$$$

     RDKit          3D

 20 18  0  0  0  0  0  0  0  0999 V2000
   -0.7641    0.1694    1.3883 C   0  0  0  0  0  0  0  0  0  0  0  0
    0.3665    0.8396    1.9100 O   0  0  0  0  0  0  0  0  0  0  0  0
   -0.0231    1.6910    2.9160 N   0  0  0  0  0  0  0  0  0  0  0  0
    0.9560    2.3146    3.4152 C   0  0  0  0  0  0  0  0  0  0  0  0
   -1.2548   -0.4279    2.1601 H   0  0  0  0  0  0  0  0  0  0  0  0
   -1.4791    0.8795    0.9668 H   0  0  0  0  0  0  0  0  0  0  0  0
    0.7326    3.0070    4.2158 H   0  0  0  0  0  0  0  0  0  0  0  0
    1.9780    2.1745    3.0695 H   0  0  0  0  0  0  0  0  0  0  0  0
   -0.3541   -1.7909   -3.3230 C   0  0  0  0  0  0  0  0  0  0  0  0
   -0.3541   -1.7909   -1.5218 S   0  0  0  0  0  0  0  0  0  0  0  0
   -0.3541   -0.0126   -1.1888 C   0  0  0  0  0  3  0  0  0  0  0  0
    0.9251    0.7126   -1.5752 C   0  0  0  0  0  0  0  0  0  0  0  0
    0.5724   -1.3878   -3.7307 H   0  0  0  0  0  0  0  0  0  0  0  0
   -1.2041   -1.2284   -3.7115 H   0  0  0  0  0  0  0  0  0  0  0  0
   -0.4487   -2.8288   -3.6393 H   0  0  0  0  0  0  0  0  0  0  0  0
   -0.5593    0.0785    0.1013 H   0  0  0  0  0  0  0  0  0  0  0  0
   -1.2208    0.4328   -1.6825 H   0  0  0  0  0  0  0  0  0  0  0  0
    1.1020    0.6647   -2.6507 H   0  0  0  0  0  0  0  0  0  0  0  0
    1.7868    0.2744   -1.0707 H   0  0  0  0  0  0  0  0  0  0  0  0
    0.8616    1.7675   -1.2987 H   0  0  0  0  0  0  0  0  0  0  0  0
  1  2  1  0
  1  5  1  0
  1  6  1  0
  1 16  1  0
  2  3  1  0
  3  4  2  3
  4  7  1  0
  4  8  1  0
  9 10  1  0
  9 13  1  0
  9 14  1  0
  9 15  1  0
 10 11  1  0
 11 12  1  0
 11 17  1  0
 12 18  1  0
 12 19  1  0
 12 20  1  0
M  RAD  1  11   2
M  END
>  <reaction>  (6) 
rmg_rxn_15692

>  <mol_properties>  (6) 
{"0": {"label": "*3", "atom_type": "Cs"}, "1": {"label": "*4", "atom_type": "O2s"}, "9": {"label": "*0", "atom_type": "S2s"}, "10": {"label": "*1", "atom_type": "Cs"}, "15": {"label": "*2", "atom_type": "H0"}}

>  <type>  (6) 
unop_2

>  <geom_source>  (6) 
Heuristics

$$$$

     RDKit          3D

 20 18  0  0  0  0  0  0  0  0999 V2000
    1.0093    1.2764    1.0854 C   0  0  0  0  0  0  0  0  0  0  0  0
    2.0332    0.7866    0.2772 O   0  0  0  0  0  0  0  0  0  0  0  0
    1.9921   -0.5863    0.1591 N   0  0  0  0  0  0  0  0  0  0  0  0
    2.8938   -1.1119   -0.5531 C   0  0  0  0  0  0  0  0  0  0  0  0
    0.8831    0.7103    2.0067 H   0  0  0  0  0  0  0  0  0  0  0  0
    1.2108    2.3282    1.2539 H   0  0  0  0  0  0  0  0  0  0  0  0
    2.8666   -2.1828   -0.6493 H   0  0  0  0  0  0  0  0  0  0  0  0
    3.6766   -0.5538   -1.0567 H   0  0  0  0  0  0  0  0  0  0  0  0
   -1.1240   -1.7158    0.0502 C   0  0  0  0  0  0  0  0  0  0  0  0
   -2.1807   -0.2907    0.4489 S   0  0  0  0  0  0  0  0  0  0  0  0
   -1.2619    1.0435   -0.2625 C   0  0  0  0  0  3  0  0  0  0  0  0
   -0.8629    0.9111   -1.7093 C   0  0  0  0  0  0  0  0  0  0  0  0
   -1.2731   -2.0054   -0.9858 H   0  0  0  0  0  0  0  0  0  0  0  0
   -1.4379   -2.5219    0.7048 H   0  0  0  0  0  0  0  0  0  0  0  0
   -0.0837   -1.4579    0.2373 H   0  0  0  0  0  0  0  0  0  0  0  0
   -0.1334    1.1788    0.4440 H   0  0  0  0  0  0  0  0  0  0  0  0
   -1.8236    1.9520   -0.0573 H   0  0  0  0  0  0  0  0  0  0  0  0
   -0.3214    1.8032   -2.0186 H   0  0  0  0  0  0  0  0  0  0  0  0
   -1.7398    0.8023   -2.3503 H   0  0  0  0  0  0  0  0  0  0  0  0
   -0.2162    0.0495   -1.8624 H   0  0  0  0  0  0  0  0  0  0  0  0
  1  2  1  0
  1  5  1  0
  1  6  1  0
  1 16  1  0
  2  3  1  0
  3  4  2  3
  4  7  1  0
  4  8  1  0
  9 10  1  0
  9 13  1  0
  9 14  1  0
  9 15  1  0
 10 11  1  0
 11 12  1  0
 11 17  1  0
 12 18  1  0
 12 19  1  0
 12 20  1  0
M  RAD  1  11   2
M  END
>  <reaction>  (7) 
rmg_rxn_15692

>  <mol_properties>  (7) 
{"0": {"label": "*3", "atom_type": "Cs"}, "1": {"label": "*4", "atom_type": "O2s"}, "9": {"label": "*0", "atom_type": "S2s"}, "10": {"label": "*1", "atom_type": "Cs"}, "15": {"label": "*2", "atom_type": "H0"}}

>  <type>  (7) 
unop_3

>  <geom_source>  (7) 
Heuristics

$$$$

     RDKit          3D

 20 18  0  0  0  0  0  0  0  0999 V2000
    1.1253   -1.4950    0.8026 C   0  0  0  0  0  0  0  0  0  0  0  0
    2.2996   -1.0030    0.2038 O   0  0  0  0  0  0  0  0  0  0  0  0
    2.1920    0.3413   -0.0798 N   0  0  0  0  0  0  0  0  0  0  0  0
    3.1964    0.8847   -0.6097 C   0  0  0  0  0  0  0  0  0  0  0  0
    1.2708   -2.5537    0.9698 H   0  0  0  0  0  0  0  0  0  0  0  0
    0.8238   -0.9623    1.6840 H   0  0  0  0  0  0  0  0  0  0  0  0
    3.1159    1.9342   -0.8329 H   0  0  0  0  0  0  0  0  0  0  0  0
    4.1188    0.3642   -0.8474 H   0  0  0  0  0  0  0  0  0  0  0  0
   -0.6741    1.9664   -0.0383 C   0  0  0  0  0  0  0  0  0  0  0  0
   -1.9448    0.7601    0.4432 S   0  0  0  0  0  0  0  0  0  0  0  0
   -1.5834   -0.5146   -0.6638 C   0  0  0  0  0  3  0  0  0  0  0  0
   -2.4204   -1.7417   -0.6307 C   0  0  0  0  0  0  0  0  0  0  0  0
   -0.8907    2.3299   -1.0389 H   0  0  0  0  0  0  0  0  0  0  0  0
    0.3050    1.4917   -0.0035 H   0  0  0  0  0  0  0  0  0  0  0  0
   -0.7296    2.7835    0.6733 H   0  0  0  0  0  0  0  0  0  0  0  0
    0.2039   -1.2697    0.2339 H   0  0  0  0  0  0  0  0  0  0  0  0
   -1.1630   -0.1988   -1.6060 H   0  0  0  0  0  0  0  0  0  0  0  0
   -2.6991   -1.9822    0.3936 H   0  0  0  0  0  0  0  0  0  0  0  0
   -1.8713   -2.5813   -1.0573 H   0  0  0  0  0  0  0  0  0  0  0  0
   -3.3438   -1.6259   -1.2100 H   0  0  0  0  0  0  0  0  0  0  0  0
  1  2  1  0
  1  5  1  0
  1  6  1  0
  1 16  1  0
  2  3  1  0
  3  4  2  3
  4  7  1  0
  4  8  1  0
  9 10  1  0
  9 13  1  0
  9 14  1  0
  9 15  1  0
 10 11  1  0
 11 12  1  0
 11 17  1  0
 12 18  1  0
 12 19  1  0
 12 20  1  0
M  RAD  1  11   2
M  END
>  <reaction>  (8) 
rmg_rxn_15692

>  <mol_properties>  (8) 
{"0": {"label": "*3", "atom_type": "Cs"}, "1": {"label": "*4", "atom_type": "O2s"}, "9": {"label": "*0", "atom_type": "S2s"}, "10": {"label": "*1", "atom_type": "Cs"}, "15": {"label": "*2", "atom_type": "H0"}}

>  <type>  (8) 
unop_4

>  <geom_source>  (8) 
Heuristics

$$$$

     RDKit          3D

 20 18  0  0  0  0  0  0  0  0999 V2000
    1.1264    1.4885    0.8128 C   0  0  0  0  0  0  0  0  0  0  0  0
    2.3003    0.9995    0.2109 O   0  0  0  0  0  0  0  0  0  0  0  0
    2.1901   -0.3420   -0.0848 N   0  0  0  0  0  0  0  0  0  0  0  0
    3.1932   -0.8824   -0.6200 C   0  0  0  0  0  0  0  0  0  0  0  0
    0.8230    0.9489    1.6894 H   0  0  0  0  0  0  0  0  0  0  0  0
    1.2735    2.5455    0.9892 H   0  0  0  0  0  0  0  0  0  0  0  0
    3.1102   -1.9295   -0.8538 H   0  0  0  0  0  0  0  0  0  0  0  0
    4.1170   -0.3618   -0.8525 H   0  0  0  0  0  0  0  0  0  0  0  0
   -0.6776   -1.9672   -0.0318 C   0  0  0  0  0  0  0  0  0  0  0  0
   -1.9464   -0.7564    0.4433 S   0  0  0  0  0  0  0  0  0  0  0  0
   -1.5793    0.5150   -0.6656 C   0  0  0  0  0  3  0  0  0  0  0  0
   -2.4144    1.7434   -0.6391 C   0  0  0  0  0  0  0  0  0  0  0  0
    0.3021   -1.4937    0.0011 H   0  0  0  0  0  0  0  0  0  0  0  0
   -0.8942   -2.3349   -1.0309 H   0  0  0  0  0  0  0  0  0  0  0  0
   -0.7347   -2.7810    0.6834 H   0  0  0  0  0  0  0  0  0  0  0  0
    0.2054    1.2694    0.2413 H   0  0  0  0  0  0  0  0  0  0  0  0
   -1.1547    0.1963   -1.6050 H   0  0  0  0  0  0  0  0  0  0  0  0
   -2.7023    1.9832    0.3828 H   0  0  0  0  0  0  0  0  0  0  0  0
   -3.3324    1.6298   -1.2274 H   0  0  0  0  0  0  0  0  0  0  0  0
   -1.8600    2.5826   -1.0597 H   0  0  0  0  0  0  0  0  0  0  0  0
  1  2  1  0
  1  5  1  0
  1  6  1  0
  1 16  1  0
  2  3  1  0
  3  4  2  3
  4  7  1  0
  4  8  1  0
  9 10  1  0
  9 13  1  0
  9 14  1  0
  9 15  1  0
 10 11  1  0
 11 12  1  0
 11 17  1  0
 12 18  1  0
 12 19  1  0
 12 20  1  0
M  RAD  1  11   2
M  END
>  <reaction>  (9) 
rmg_rxn_15692

>  <mol_properties>  (9) 
{"0": {"label": "*3", "atom_type": "Cs"}, "1": {"label": "*4", "atom_type": "O2s"}, "9": {"label": "*0", "atom_type": "S2s"}, "10": {"label": "*1", "atom_type": "Cs"}, "15": {"label": "*2", "atom_type": "H0"}}

>  <type>  (9) 
unop_5

>  <geom_source>  (9) 
Heuristics

$$$$

     RDKit          3D

 20 18  0  0  0  0  0  0  0  0999 V2000
   -0.6571    1.0875    1.2970 C   0  0  0  0  0  0  0  0  0  0  0  0
   -0.0932   -0.0815    1.8585 O   0  0  0  0  0  0  0  0  0  0  0  0
    0.1135    0.1044    3.2044 N   0  0  0  0  0  0  0  0  0  0  0  0
    0.6178   -0.9166    3.7521 C   0  0  0  0  0  0  0  0  0  0  0  0
   -1.6224    1.3144    1.7550 H   0  0  0  0  0  0  0  0  0  0  0  0
    0.0136    1.9413    1.4172 H   0  0  0  0  0  0  0  0  0  0  0  0
    0.8119   -0.8509    4.8143 H   0  0  0  0  0  0  0  0  0  0  0  0
    0.8511   -1.8237    3.1988 H   0  0  0  0  0  0  0  0  0  0  0  0
   -0.2470   -0.8729   -3.4143 C   0  0  0  0  0  0  0  0  0  0  0  0
   -0.2470   -0.8729   -1.6131 S   0  0  0  0  0  0  0  0  0  0  0  0
   -0.2470    0.9054   -1.2801 C   0  0  0  0  0  3  0  0  0  0  0  0
    1.0321    1.6306   -1.6665 C   0  0  0  0  0  0  0  0  0  0  0  0
    0.6794   -0.4698   -3.8219 H   0  0  0  0  0  0  0  0  0  0  0  0
   -1.0970   -0.3104   -3.8028 H   0  0  0  0  0  0  0  0  0  0  0  0
   -0.3417   -1.9108   -3.7306 H   0  0  0  0  0  0  0  0  0  0  0  0
   -0.4523    0.9965    0.0100 H   0  0  0  0  0  0  0  0  0  0  0  0
   -1.1137    1.3508   -1.7738 H   0  0  0  0  0  0  0  0  0  0  0  0
    1.2090    1.5827   -2.7419 H   0  0  0  0  0  0  0  0  0  0  0  0
    1.8938    1.1924   -1.1620 H   0  0  0  0  0  0  0  0  0  0  0  0
    0.9687    2.6856   -1.3899 H   0  0  0  0  0  0  0  0  0  0  0  0
  1  2  1  0
  1  5  1  0
  1  6  1  0
  1 16  1  0
  2  3  1  0
  3  4  2  3
  4  7  1  0
  4  8  1  0
  9 10  1  0
  9 13  1  0
  9 14  1  0
  9 15  1  0
 10 11  1  0
 11 12  1  0
 11 17  1  0
 12 18  1  0
 12 19  1  0
 12 20  1  0
M  RAD  1  11   2
M  END
>  <reaction>  (10) 
rmg_rxn_15692

>  <mol_properties>  (10) 
{"0": {"label": "*3", "atom_type": "Cs"}, "1": {"label": "*4", "atom_type": "O2s"}, "9": {"label": "*0", "atom_type": "S2s"}, "10": {"label": "*1", "atom_type": "Cs"}, "15": {"label": "*2", "atom_type": "H0"}}

>  <type>  (10) 
unop_6

>  <geom_source>  (10) 
Heuristics

$$$$

     RDKit          3D

 20 18  0  0  0  0  0  0  0  0999 V2000
    1.0086    1.2757    1.0857 C   0  0  0  0  0  0  0  0  0  0  0  0
    2.0326    0.7870    0.2768 O   0  0  0  0  0  0  0  0  0  0  0  0
    1.9937   -0.5860    0.1595 N   0  0  0  0  0  0  0  0  0  0  0  0
    2.8956   -1.1107   -0.5532 C   0  0  0  0  0  0  0  0  0  0  0  0
    0.8825    0.7082    2.0060 H   0  0  0  0  0  0  0  0  0  0  0  0
    1.2101    2.3272    1.2557 H   0  0  0  0  0  0  0  0  0  0  0  0
    2.8699   -2.1817   -0.6486 H   0  0  0  0  0  0  0  0  0  0  0  0
    3.6766   -0.5516   -1.0584 H   0  0  0  0  0  0  0  0  0  0  0  0
   -1.1236   -1.7158    0.0486 C   0  0  0  0  0  0  0  0  0  0  0  0
   -2.1806   -0.2915    0.4493 S   0  0  0  0  0  0  0  0  0  0  0  0
   -1.2629    1.0435   -0.2620 C   0  0  0  0  0  3  0  0  0  0  0  0
   -0.8644    0.9116   -1.7090 C   0  0  0  0  0  0  0  0  0  0  0  0
   -1.4363   -2.5225    0.7031 H   0  0  0  0  0  0  0  0  0  0  0  0
   -0.0831   -1.4575    0.2351 H   0  0  0  0  0  0  0  0  0  0  0  0
   -1.2735   -2.0048   -0.9875 H   0  0  0  0  0  0  0  0  0  0  0  0
   -0.1341    1.1791    0.4441 H   0  0  0  0  0  0  0  0  0  0  0  0
   -1.8250    1.9517   -0.0563 H   0  0  0  0  0  0  0  0  0  0  0  0
   -1.7413    0.7990   -2.3493 H   0  0  0  0  0  0  0  0  0  0  0  0
   -0.2144    0.0524   -1.8619 H   0  0  0  0  0  0  0  0  0  0  0  0
   -0.3265    1.8056   -2.0193 H   0  0  0  0  0  0  0  0  0  0  0  0
  1  2  1  0
  1  5  1  0
  1  6  1  0
  1 16  1  0
  2  3  1  0
  3  4  2  3
  4  7  1  0
  4  8  1  0
  9 10  1  0
  9 13  1  0
  9 14  1  0
  9 15  1  0
 10 11  1  0
 11 12  1  0
 11 17  1  0
 12 18  1  0
 12 19  1  0
 12 20  1  0
M  RAD  1  11   2
M  END
>  <reaction>  (11) 
rmg_rxn_15692

>  <mol_properties>  (11) 
{"0": {"label": "*3", "atom_type": "Cs"}, "1": {"label": "*4", "atom_type": "O2s"}, "9": {"label": "*0", "atom_type": "S2s"}, "10": {"label": "*1", "atom_type": "Cs"}, "15": {"label": "*2", "atom_type": "H0"}}

>  <type>  (11) 
unop_7

>  <geom_source>  (11) 
Heuristics

$$$$

     RDKit          3D

 20 18  0  0  0  0  0  0  0  0999 V2000
   -0.5200    0.0328    1.4072 C   0  0  0  0  0  0  0  0  0  0  0  0
    0.1392    1.2146    1.8177 O   0  0  0  0  0  0  0  0  0  0  0  0
   -0.4611    1.7101    2.9504 N   0  0  0  0  0  0  0  0  0  0  0  0
    0.0948    2.7696    3.3568 C   0  0  0  0  0  0  0  0  0  0  0  0
   -0.4606   -0.7364    2.1804 H   0  0  0  0  0  0  0  0  0  0  0  0
   -1.5675    0.2319    1.1702 H   0  0  0  0  0  0  0  0  0  0  0  0
   -0.3198    3.2240    4.2467 H   0  0  0  0  0  0  0  0  0  0  0  0
    0.9477    3.2157    2.8498 H   0  0  0  0  0  0  0  0  0  0  0  0
   -0.1099   -1.9275   -3.3041 C   0  0  0  0  0  0  0  0  0  0  0  0
   -0.1099   -1.9275   -1.5029 S   0  0  0  0  0  0  0  0  0  0  0  0
   -0.1099   -0.1493   -1.1699 C   0  0  0  0  0  3  0  0  0  0  0  0
    1.1692    0.5760   -1.5563 C   0  0  0  0  0  0  0  0  0  0  0  0
    0.8165   -1.5244   -3.7118 H   0  0  0  0  0  0  0  0  0  0  0  0
   -0.9599   -1.3651   -3.6926 H   0  0  0  0  0  0  0  0  0  0  0  0
   -0.2046   -2.9655   -3.6204 H   0  0  0  0  0  0  0  0  0  0  0  0
   -0.3152   -0.0581    0.1202 H   0  0  0  0  0  0  0  0  0  0  0  0
   -0.9766    0.2962   -1.6637 H   0  0  0  0  0  0  0  0  0  0  0  0
    1.3461    0.5281   -2.6318 H   0  0  0  0  0  0  0  0  0  0  0  0
    2.0309    0.1378   -1.0518 H   0  0  0  0  0  0  0  0  0  0  0  0
    1.1057    1.6309   -1.2798 H   0  0  0  0  0  0  0  0  0  0  0  0
  1  2  1  0
  1  5  1  0
  1  6  1  0
  1 16  1  0
  2  3  1  0
  3  4  2  3
  4  7  1  0
  4  8  1  0
  9 10  1  0
  9 13  1  0
  9 14  1  0
  9 15  1  0
 10 11  1  0
 11 12  1  0
 11 17  1  0
 12 18  1  0
 12 19  1  0
 12 20  1  0
M  RAD  1  11   2
M  END
>  <reaction>  (12) 
rmg_rxn_15692

>  <mol_properties>  (12) 
{"0": {"label": "*3", "atom_type": "Cs"}, "1": {"label": "*4", "atom_type": "O2s"}, "9": {"label": "*0", "atom_type": "S2s"}, "10": {"label": "*1", "atom_type": "Cs"}, "15": {"label": "*2", "atom_type": "H0"}}

>  <type>  (12) 
unop_8

>  <geom_source>  (12) 
Heuristics

$$$$

     RDKit          3D

 20 18  0  0  0  0  0  0  0  0999 V2000
    0.2878    0.7620    1.4978 C   0  0  0  0  0  0  0  0  0  0  0  0
   -0.9630    0.1452    1.7315 O   0  0  0  0  0  0  0  0  0  0  0  0
   -1.5910    0.7578    2.7894 N   0  0  0  0  0  0  0  0  0  0  0  0
   -2.7165    0.2397    3.0373 C   0  0  0  0  0  0  0  0  0  0  0  0
    0.1620    1.8174    1.2459 H   0  0  0  0  0  0  0  0  0  0  0  0
    0.9379    0.6702    2.3708 H   0  0  0  0  0  0  0  0  0  0  0  0
   -3.2764    0.6665    3.8587 H   0  0  0  0  0  0  0  0  0  0  0  0
   -3.1173   -0.5935    2.4640 H   0  0  0  0  0  0  0  0  0  0  0  0
    0.6978   -1.1983   -3.2135 C   0  0  0  0  0  0  0  0  0  0  0  0
    0.6978   -1.1983   -1.4123 S   0  0  0  0  0  0  0  0  0  0  0  0
    0.6978    0.5800   -1.0793 C   0  0  0  0  0  3  0  0  0  0  0  0
    1.9770    1.3052   -1.4657 C   0  0  0  0  0  0  0  0  0  0  0  0
    1.6243   -0.7952   -3.6212 H   0  0  0  0  0  0  0  0  0  0  0  0
   -0.1522   -0.6359   -3.6020 H   0  0  0  0  0  0  0  0  0  0  0  0
    0.6032   -2.2362   -3.5298 H   0  0  0  0  0  0  0  0  0  0  0  0
    0.4926    0.6711    0.2108 H   0  0  0  0  0  0  0  0  0  0  0  0
   -0.1689    1.0254   -1.5730 H   0  0  0  0  0  0  0  0  0  0  0  0
    2.1539    1.2573   -2.5412 H   0  0  0  0  0  0  0  0  0  0  0  0
    2.8387    0.8670   -0.9612 H   0  0  0  0  0  0  0  0  0  0  0  0
    1.9135    2.3601   -1.1892 H   0  0  0  0  0  0  0  0  0  0  0  0
  1  2  1  0
  1  5  1  0
  1  6  1  0
  1 16  1  0
  2  3  1  0
  3  4  2  3
  4  7  1  0
  4  8  1  0
  9 10  1  0
  9 13  1  0
  9 14  1  0
  9 15  1  0
 10 11  1  0
 11 12  1  0
 11 17  1  0
 12 18  1  0
 12 19  1  0
 12 20  1  0
M  RAD  1  11   2
M  END
>  <reaction>  (13) 
rmg_rxn_15692

>  <mol_properties>  (13) 
{"0": {"label": "*3", "atom_type": "Cs"}, "1": {"label": "*4", "atom_type": "O2s"}, "9": {"label": "*0", "atom_type": "S2s"}, "10": {"label": "*1", "atom_type": "Cs"}, "15": {"label": "*2", "atom_type": "H0"}}

>  <type>  (13) 
unop_9

>  <geom_source>  (13) 
Heuristics

$$$$

     RDKit          3D

 20 18  0  0  0  0  0  0  0  0999 V2000
    1.1250   -1.4891    0.8103 C   0  0  0  0  0  0  0  0  0  0  0  0
    2.3008   -0.9988    0.2136 O   0  0  0  0  0  0  0  0  0  0  0  0
    2.1887    0.3413   -0.0874 N   0  0  0  0  0  0  0  0  0  0  0  0
    3.1937    0.8826   -0.6182 C   0  0  0  0  0  0  0  0  0  0  0  0
    1.2718   -2.5457    0.9885 H   0  0  0  0  0  0  0  0  0  0  0  0
    0.8128   -0.9481    1.6823 H   0  0  0  0  0  0  0  0  0  0  0  0
    3.1097    1.9288   -0.8557 H   0  0  0  0  0  0  0  0  0  0  0  0
    4.1201    0.3635   -0.8438 H   0  0  0  0  0  0  0  0  0  0  0  0
   -0.6790    1.9682   -0.0328 C   0  0  0  0  0  0  0  0  0  0  0  0
   -1.9455    0.7558    0.4443 S   0  0  0  0  0  0  0  0  0  0  0  0
   -1.5788   -0.5145   -0.6662 C   0  0  0  0  0  3  0  0  0  0  0  0
   -2.4131   -1.7435   -0.6392 C   0  0  0  0  0  0  0  0  0  0  0  0
   -0.7338    2.7802    0.6846 H   0  0  0  0  0  0  0  0  0  0  0  0
   -0.8996    2.3384   -1.0301 H   0  0  0  0  0  0  0  0  0  0  0  0
    0.3011    1.4951   -0.0047 H   0  0  0  0  0  0  0  0  0  0  0  0
    0.2053   -1.2688    0.2386 H   0  0  0  0  0  0  0  0  0  0  0  0
   -1.1559   -0.1948   -1.6059 H   0  0  0  0  0  0  0  0  0  0  0  0
   -3.3351   -1.6281   -1.2209 H   0  0  0  0  0  0  0  0  0  0  0  0
   -2.6943   -1.9876    0.3835 H   0  0  0  0  0  0  0  0  0  0  0  0
   -1.8609   -2.5806   -1.0667 H   0  0  0  0  0  0  0  0  0  0  0  0
  1  2  1  0
  1  5  1  0
  1  6  1  0
  1 16  1  0
  2  3  1  0
  3  4  2  3
  4  7  1  0
  4  8  1  0
  9 10  1  0
  9 13  1  0
  9 14  1  0
  9 15  1  0
 10 11  1  0
 11 12  1  0
 11 17  1  0
 12 18  1  0
 12 19  1  0
 12 20  1  0
M  RAD  1  11   2
M  END
>  <reaction>  (14) 
rmg_rxn_15692

>  <mol_properties>  (14) 
{"0": {"label": "*3", "atom_type": "Cs"}, "1": {"label": "*4", "atom_type": "O2s"}, "9": {"label": "*0", "atom_type": "S2s"}, "10": {"label": "*1", "atom_type": "Cs"}, "15": {"label": "*2", "atom_type": "H0"}}

>  <type>  (14) 
unop_10

>  <geom_source>  (14) 
Heuristics

$$$$

     RDKit          3D

 20 18  0  0  0  0  0  0  0  0999 V2000
   -0.3266    0.0150    1.4110 C   0  0  0  0  0  0  0  0  0  0  0  0
   -0.3316    1.3989    1.7016 O   0  0  0  0  0  0  0  0  0  0  0  0
   -0.5427    1.5890    3.0462 N   0  0  0  0  0  0  0  0  0  0  0  0
   -0.5556    2.8141    3.3556 C   0  0  0  0  0  0  0  0  0  0  0  0
    0.4751   -0.4945    1.9503 H   0  0  0  0  0  0  0  0  0  0  0  0
   -1.2856   -0.4413    1.6664 H   0  0  0  0  0  0  0  0  0  0  0  0
   -0.7168    3.0489    4.3992 H   0  0  0  0  0  0  0  0  0  0  0  0
   -0.4136    3.6053    2.6226 H   0  0  0  0  0  0  0  0  0  0  0  0
    0.0834   -1.9454   -3.3003 C   0  0  0  0  0  0  0  0  0  0  0  0
    0.0834   -1.9454   -1.4991 S   0  0  0  0  0  0  0  0  0  0  0  0
    0.0834   -0.1671   -1.1661 C   0  0  0  0  0  3  0  0  0  0  0  0
    1.3626    0.5582   -1.5525 C   0  0  0  0  0  0  0  0  0  0  0  0
    1.0099   -1.5423   -3.7080 H   0  0  0  0  0  0  0  0  0  0  0  0
   -0.7665   -1.3829   -3.6888 H   0  0  0  0  0  0  0  0  0  0  0  0
   -0.0112   -2.9833   -3.6166 H   0  0  0  0  0  0  0  0  0  0  0  0
   -0.1218   -0.0759    0.1240 H   0  0  0  0  0  0  0  0  0  0  0  0
   -0.7833    0.2783   -1.6598 H   0  0  0  0  0  0  0  0  0  0  0  0
    1.5395    0.5103   -2.6280 H   0  0  0  0  0  0  0  0  0  0  0  0
    2.2243    0.1199   -1.0480 H   0  0  0  0  0  0  0  0  0  0  0  0
    1.2991    1.6131   -1.2760 H   0  0  0  0  0  0  0  0  0  0  0  0
  1  2  1  0
  1  5  1  0
  1  6  1  0
  1 16  1  0
  2  3  1  0
  3  4  2  3
  4  7  1  0
  4  8  1  0
  9 10  1  0
  9 13  1  0
  9 14  1  0
  9 15  1  0
 10 11  1  0
 11 12  1  0
 11 17  1  0
 12 18  1  0
 12 19  1  0
 12 20  1  0
M  RAD  1  11   2
M  END
>  <reaction>  (15) 
rmg_rxn_15692

>  <mol_properties>  (15) 
{"0": {"label": "*3", "atom_type": "Cs"}, "1": {"label": "*4", "atom_type": "O2s"}, "9": {"label": "*0", "atom_type": "S2s"}, "10": {"label": "*1", "atom_type": "Cs"}, "15": {"label": "*2", "atom_type": "H0"}}

>  <type>  (15) 
unop_11

>  <geom_source>  (15) 
Heuristics

$$$$

     RDKit          3D

 20 18  0  0  0  0  0  0  0  0999 V2000
    1.0098   -1.2775   -1.0847 C   0  0  0  0  0  0  0  0  0  0  0  0
    2.0326   -0.7868   -0.2756 O   0  0  0  0  0  0  0  0  0  0  0  0
    1.9924    0.5863   -0.1604 N   0  0  0  0  0  0  0  0  0  0  0  0
    2.8929    1.1129    0.5526 C   0  0  0  0  0  0  0  0  0  0  0  0
    0.8849   -0.7124   -2.0067 H   0  0  0  0  0  0  0  0  0  0  0  0
    1.2116   -2.3295   -1.2517 H   0  0  0  0  0  0  0  0  0  0  0  0
    2.8659    2.1839    0.6467 H   0  0  0  0  0  0  0  0  0  0  0  0
    3.6741    0.5554    1.0594 H   0  0  0  0  0  0  0  0  0  0  0  0
   -1.1234    1.7159   -0.0484 C   0  0  0  0  0  0  0  0  0  0  0  0
   -2.1802    0.2915   -0.4492 S   0  0  0  0  0  0  0  0  0  0  0  0
   -1.2624   -1.0437    0.2614 C   0  0  0  0  0  3  0  0  0  0  0  0
   -0.8633   -0.9123    1.7083 C   0  0  0  0  0  0  0  0  0  0  0  0
   -0.0832    1.4583   -0.2370 H   0  0  0  0  0  0  0  0  0  0  0  0
   -1.2715    2.0033    0.9883 H   0  0  0  0  0  0  0  0  0  0  0  0
   -1.4377    2.5234   -0.7011 H   0  0  0  0  0  0  0  0  0  0  0  0
   -0.1337   -1.1793   -0.4447 H   0  0  0  0  0  0  0  0  0  0  0  0
   -1.8247   -1.9518    0.0556 H   0  0  0  0  0  0  0  0  0  0  0  0
   -0.3247   -1.8062    2.0178 H   0  0  0  0  0  0  0  0  0  0  0  0
   -1.7399   -0.8006    2.3491 H   0  0  0  0  0  0  0  0  0  0  0  0
   -0.2137   -0.0529    1.8613 H   0  0  0  0  0  0  0  0  0  0  0  0
  1  2  1  0
  1  5  1  0
  1  6  1  0
  1 16  1  0
  2  3  1  0
  3  4  2  3
  4  7  1  0
  4  8  1  0
  9 10  1  0
  9 13  1  0
  9 14  1  0
  9 15  1  0
 10 11  1  0
 11 12  1  0
 11 17  1  0
 12 18  1  0
 12 19  1  0
 12 20  1  0
M  RAD  1  11   2
M  END
>  <reaction>  (16) 
rmg_rxn_15692

>  <mol_properties>  (16) 
{"0": {"label": "*3", "atom_type": "Cs"}, "1": {"label": "*4", "atom_type": "O2s"}, "9": {"label": "*0", "atom_type": "S2s"}, "10": {"label": "*1", "atom_type": "Cs"}, "15": {"label": "*2", "atom_type": "H0"}}

>  <type>  (16) 
unop_12

>  <geom_source>  (16) 
Heuristics

$$$$

     RDKit          3D

 20 18  0  0  0  0  0  0  0  0999 V2000
    0.2818    0.4152    1.5398 C   0  0  0  0  0  0  0  0  0  0  0  0
   -1.1215    0.4824    1.7010 O   0  0  0  0  0  0  0  0  0  0  0  0
   -1.4304    1.3672    2.7062 N   0  0  0  0  0  0  0  0  0  0  0  0
   -2.6772    1.4617    2.8882 C   0  0  0  0  0  0  0  0  0  0  0  0
    0.6905    1.3899    1.2642 H   0  0  0  0  0  0  0  0  0  0  0  0
    0.7636    0.0629    2.4546 H   0  0  0  0  0  0  0  0  0  0  0  0
   -3.0038    2.1404    3.6647 H   0  0  0  0  0  0  0  0  0  0  0  0
   -3.3995    0.8968    2.3028 H   0  0  0  0  0  0  0  0  0  0  0  0
    0.6918   -1.5452   -3.1715 C   0  0  0  0  0  0  0  0  0  0  0  0
    0.6918   -1.5452   -1.3703 S   0  0  0  0  0  0  0  0  0  0  0  0
    0.6918    0.2331   -1.0373 C   0  0  0  0  0  3  0  0  0  0  0  0
    1.9710    0.9584   -1.4237 C   0  0  0  0  0  0  0  0  0  0  0  0
    1.6182   -1.1421   -3.5791 H   0  0  0  0  0  0  0  0  0  0  0  0
   -0.1582   -0.9827   -3.5600 H   0  0  0  0  0  0  0  0  0  0  0  0
    0.5971   -2.5831   -3.4878 H   0  0  0  0  0  0  0  0  0  0  0  0
    0.4865    0.3243    0.2528 H   0  0  0  0  0  0  0  0  0  0  0  0
   -0.1749    0.6785   -1.5310 H   0  0  0  0  0  0  0  0  0  0  0  0
    2.1478    0.9105   -2.4991 H   0  0  0  0  0  0  0  0  0  0  0  0
    2.8326    0.5201   -0.9192 H   0  0  0  0  0  0  0  0  0  0  0  0
    1.9075    2.0133   -1.1471 H   0  0  0  0  0  0  0  0  0  0  0  0
  1  2  1  0
  1  5  1  0
  1  6  1  0
  1 16  1  0
  2  3  1  0
  3  4  2  3
  4  7  1  0
  4  8  1  0
  9 10  1  0
  9 13  1  0
  9 14  1  0
  9 15  1  0
 10 11  1  0
 11 12  1  0
 11 17  1  0
 12 18  1  0
 12 19  1  0
 12 20  1  0
M  RAD  1  11   2
M  END
>  <reaction>  (17) 
rmg_rxn_15692

>  <mol_properties>  (17) 
{"0": {"label": "*3", "atom_type": "Cs"}, "1": {"label": "*4", "atom_type": "O2s"}, "9": {"label": "*0", "atom_type": "S2s"}, "10": {"label": "*1", "atom_type": "Cs"}, "15": {"label": "*2", "atom_type": "H0"}}

>  <type>  (17) 
unop_13

>  <geom_source>  (17) 
Heuristics

$$$$

     RDKit          3D

 20 18  0  0  0  0  0  0  0  0999 V2000
    1.0096    1.2781    1.0843 C   0  0  0  0  0  0  0  0  0  0  0  0
    2.0339    0.7863    0.2777 O   0  0  0  0  0  0  0  0  0  0  0  0
    1.9906   -0.5865    0.1598 N   0  0  0  0  0  0  0  0  0  0  0  0
    2.8918   -1.1140   -0.5516 C   0  0  0  0  0  0  0  0  0  0  0  0
    0.8823    0.7136    2.0064 H   0  0  0  0  0  0  0  0  0  0  0  0
    1.2117    2.3300    1.2512 H   0  0  0  0  0  0  0  0  0  0  0  0
    2.8630   -2.1848   -0.6469 H   0  0  0  0  0  0  0  0  0  0  0  0
    3.6760   -0.5576   -1.0549 H   0  0  0  0  0  0  0  0  0  0  0  0
   -1.1268   -1.7154    0.0546 C   0  0  0  0  0  0  0  0  0  0  0  0
   -2.1812   -0.2874    0.4488 S   0  0  0  0  0  0  0  0  0  0  0  0
   -1.2599    1.0432   -0.2661 C   0  0  0  0  0  3  0  0  0  0  0  0
   -0.8586    0.9049   -1.7117 C   0  0  0  0  0  0  0  0  0  0  0  0
   -1.4419   -2.5191    0.7118 H   0  0  0  0  0  0  0  0  0  0  0  0
   -0.0860   -1.4584    0.2409 H   0  0  0  0  0  0  0  0  0  0  0  0
   -1.2762   -2.0081   -0.9805 H   0  0  0  0  0  0  0  0  0  0  0  0
   -0.1325    1.1800    0.4419 H   0  0  0  0  0  0  0  0  0  0  0  0
   -1.8210    1.9531   -0.0650 H   0  0  0  0  0  0  0  0  0  0  0  0
   -0.3179    1.7964   -2.0241 H   0  0  0  0  0  0  0  0  0  0  0  0
   -1.7344    0.7922   -2.3535 H   0  0  0  0  0  0  0  0  0  0  0  0
   -0.2105    0.0436   -1.8600 H   0  0  0  0  0  0  0  0  0  0  0  0
  1  2  1  0
  1  5  1  0
  1  6  1  0
  1 16  1  0
  2  3  1  0
  3  4  2  3
  4  7  1  0
  4  8  1  0
  9 10  1  0
  9 13  1  0
  9 14  1  0
  9 15  1  0
 10 11  1  0
 11 12  1  0
 11 17  1  0
 12 18  1  0
 12 19  1  0
 12 20  1  0
M  RAD  1  11   2
M  END
>  <reaction>  (18) 
rmg_rxn_15692

>  <mol_properties>  (18) 
{"0": {"label": "*3", "atom_type": "Cs"}, "1": {"label": "*4", "atom_type": "O2s"}, "9": {"label": "*0", "atom_type": "S2s"}, "10": {"label": "*1", "atom_type": "Cs"}, "15": {"label": "*2", "atom_type": "H0"}}

>  <type>  (18) 
unop_14

>  <geom_source>  (18) 
Heuristics

$$$$

     RDKit          3D

 20 18  0  0  0  0  0  0  0  0999 V2000
    0.1042    0.1432    1.5283 C   0  0  0  0  0  0  0  0  0  0  0  0
   -1.0916    0.8836    1.6749 O   0  0  0  0  0  0  0  0  0  0  0  0
   -0.9882    1.7202    2.7604 N   0  0  0  0  0  0  0  0  0  0  0  0
   -2.0361    2.4050    2.9328 C   0  0  0  0  0  0  0  0  0  0  0  0
    0.9559    0.8060    1.3594 H   0  0  0  0  0  0  0  0  0  0  0  0
    0.2917   -0.4746    2.4094 H   0  0  0  0  0  0  0  0  0  0  0  0
   -2.0350    3.0906    3.7696 H   0  0  0  0  0  0  0  0  0  0  0  0
   -2.9042    2.3219    2.2824 H   0  0  0  0  0  0  0  0  0  0  0  0
    0.5142   -1.8171   -3.1830 C   0  0  0  0  0  0  0  0  0  0  0  0
    0.5142   -1.8171   -1.3818 S   0  0  0  0  0  0  0  0  0  0  0  0
    0.5142   -0.0389   -1.0488 C   0  0  0  0  0  3  0  0  0  0  0  0
    1.7934    0.6864   -1.4352 C   0  0  0  0  0  0  0  0  0  0  0  0
    1.4407   -1.4140   -3.5907 H   0  0  0  0  0  0  0  0  0  0  0  0
   -0.3358   -1.2547   -3.5715 H   0  0  0  0  0  0  0  0  0  0  0  0
    0.4196   -2.8550   -3.4993 H   0  0  0  0  0  0  0  0  0  0  0  0
    0.3090    0.0523    0.2413 H   0  0  0  0  0  0  0  0  0  0  0  0
   -0.3525    0.4066   -1.5425 H   0  0  0  0  0  0  0  0  0  0  0  0
    1.9703    0.6385   -2.5106 H   0  0  0  0  0  0  0  0  0  0  0  0
    2.6551    0.2482   -0.9307 H   0  0  0  0  0  0  0  0  0  0  0  0
    1.7299    1.7413   -1.1586 H   0  0  0  0  0  0  0  0  0  0  0  0
  1  2  1  0
  1  5  1  0
  1  6  1  0
  1 16  1  0
  2  3  1  0
  3  4  2  3
  4  7  1  0
  4  8  1  0
  9 10  1  0
  9 13  1  0
  9 14  1  0
  9 15  1  0
 10 11  1  0
 11 12  1  0
 11 17  1  0
 12 18  1  0
 12 19  1  0
 12 20  1  0
M  RAD  1  11   2
M  END
>  <reaction>  (19) 
rmg_rxn_15692

>  <mol_properties>  (19) 
{"0": {"label": "*3", "atom_type": "Cs"}, "1": {"label": "*4", "atom_type": "O2s"}, "9": {"label": "*0", "atom_type": "S2s"}, "10": {"label": "*1", "atom_type": "Cs"}, "15": {"label": "*2", "atom_type": "H0"}}

>  <type>  (19) 
unop_15

>  <geom_source>  (19) 
Heuristics

$$$$

     RDKit          3D

 20 18  0  0  0  0  0  0  0  0999 V2000
    0.8280    1.6382    0.6694 C   0  0  0  0  0  0  0  0  0  0  0  0
    1.7319    1.0710   -0.2246 O   0  0  0  0  0  0  0  0  0  0  0  0
    2.1744   -0.1670    0.1888 N   0  0  0  0  0  0  0  0  0  0  0  0
    2.9799   -0.7546   -0.5873 C   0  0  0  0  0  0  0  0  0  0  0  0
    1.1005    1.4720    1.7103 H   0  0  0  0  0  0  0  0  0  0  0  0
    0.7406    2.6889    0.4143 H   0  0  0  0  0  0  0  0  0  0  0  0
    3.3305   -1.7214   -0.2731 H   0  0  0  0  0  0  0  0  0  0  0  0
    3.3277   -0.3446   -1.5298 H   0  0  0  0  0  0  0  0  0  0  0  0
   -0.5339   -1.8880    0.8526 C   0  0  0  0  0  0  0  0  0  0  0  0
   -1.4658   -0.9939   -0.4233 S   0  0  0  0  0  0  0  0  0  0  0  0
   -1.5903    0.5850    0.3760 C   0  0  0  0  0  3  0  0  0  0  0  0
   -2.3917    1.5896   -0.4093 C   0  0  0  0  0  0  0  0  0  0  0  0
    0.4536   -1.4403    0.9488 H   0  0  0  0  0  0  0  0  0  0  0  0
   -0.4481   -2.9162    0.5175 H   0  0  0  0  0  0  0  0  0  0  0  0
   -1.0760   -1.8456    1.7929 H   0  0  0  0  0  0  0  0  0  0  0  0
   -0.3604    1.0985    0.5074 H   0  0  0  0  0  0  0  0  0  0  0  0
   -1.9372    0.4618    1.4012 H   0  0  0  0  0  0  0  0  0  0  0  0
   -3.4393    1.2935   -0.4807 H   0  0  0  0  0  0  0  0  0  0  0  0
   -1.9970    1.6799   -1.4190 H   0  0  0  0  0  0  0  0  0  0  0  0
   -2.3440    2.5624    0.0769 H   0  0  0  0  0  0  0  0  0  0  0  0
  1  2  1  0
  1  5  1  0
  1  6  1  0
  1 16  1  0
  2  3  1  0
  3  4  2  3
  4  7  1  0
  4  8  1  0
  9 10  1  0
  9 13  1  0
  9 14  1  0
  9 15  1  0
 10 11  1  0
 11 12  1  0
 11 17  1  0
 12 18  1  0
 12 19  1  0
 12 20  1  0
M  RAD  1  11   2
M  END
>  <reaction>  (20) 
rmg_rxn_15692

>  <mol_properties>  (20) 
{"0": {"label": "*3", "atom_type": "Cs"}, "1": {"label": "*4", "atom_type": "O2s"}, "9": {"label": "*0", "atom_type": "S2s"}, "10": {"label": "*1", "atom_type": "Cs"}, "15": {"label": "*2", "atom_type": "H0"}}

>  <type>  (20) 
unop_16

>  <geom_source>  (20) 
Heuristics

$$$$

     RDKit          3D

 20 18  0  0  0  0  0  0  0  0999 V2000
   -0.9200    0.4515    1.3461 C   0  0  0  0  0  0  0  0  0  0  0  0
    0.3631    0.4376    1.9403 O   0  0  0  0  0  0  0  0  0  0  0  0
    0.3922    1.3122    3.0001 N   0  0  0  0  0  0  0  0  0  0  0  0
    1.5221    1.3349    3.5652 C   0  0  0  0  0  0  0  0  0  0  0  0
   -1.6845    0.1368    2.0599 H   0  0  0  0  0  0  0  0  0  0  0  0
   -1.1634    1.4459    0.9652 H   0  0  0  0  0  0  0  0  0  0  0  0
    1.6276    2.0005    4.4115 H   0  0  0  0  0  0  0  0  0  0  0  0
    2.3571    0.7230    3.2309 H   0  0  0  0  0  0  0  0  0  0  0  0
   -0.5099   -1.5089   -3.3653 C   0  0  0  0  0  0  0  0  0  0  0  0
   -0.5099   -1.5089   -1.5640 S   0  0  0  0  0  0  0  0  0  0  0  0
   -0.5099    0.2694   -1.2311 C   0  0  0  0  0  3  0  0  0  0  0  0
    0.7692    0.9946   -1.6175 C   0  0  0  0  0  0  0  0  0  0  0  0
    0.4165   -1.1058   -3.7729 H   0  0  0  0  0  0  0  0  0  0  0  0
   -1.3599   -0.9464   -3.7538 H   0  0  0  0  0  0  0  0  0  0  0  0
   -0.6046   -2.5468   -3.6815 H   0  0  0  0  0  0  0  0  0  0  0  0
   -0.7152    0.3605    0.0591 H   0  0  0  0  0  0  0  0  0  0  0  0
   -1.3766    0.7148   -1.7248 H   0  0  0  0  0  0  0  0  0  0  0  0
    0.9461    0.9468   -2.6929 H   0  0  0  0  0  0  0  0  0  0  0  0
    1.6309    0.5564   -1.1129 H   0  0  0  0  0  0  0  0  0  0  0  0
    0.7058    2.0496   -1.3409 H   0  0  0  0  0  0  0  0  0  0  0  0
  1  2  1  0
  1  5  1  0
  1  6  1  0
  1 16  1  0
  2  3  1  0
  3  4  2  3
  4  7  1  0
  4  8  1  0
  9 10  1  0
  9 13  1  0
  9 14  1  0
  9 15  1  0
 10 11  1  0
 11 12  1  0
 11 17  1  0
 12 18  1  0
 12 19  1  0
 12 20  1  0
M  RAD  1  11   2
M  END
>  <reaction>  (21) 
rmg_rxn_15692

>  <mol_properties>  (21) 
{"0": {"label": "*3", "atom_type": "Cs"}, "1": {"label": "*4", "atom_type": "O2s"}, "9": {"label": "*0", "atom_type": "S2s"}, "10": {"label": "*1", "atom_type": "Cs"}, "15": {"label": "*2", "atom_type": "H0"}}

>  <type>  (21) 
unop_17

>  <geom_source>  (21) 
Heuristics

$$$$

     RDKit          3D

 20 18  0  0  0  0  0  0  0  0999 V2000
    1.0098   -1.2784   -1.0842 C   0  0  0  0  0  0  0  0  0  0  0  0
    2.0330   -0.7866   -0.2762 O   0  0  0  0  0  0  0  0  0  0  0  0
    1.9910    0.5864   -0.1605 N   0  0  0  0  0  0  0  0  0  0  0  0
    2.8917    1.1141    0.5515 C   0  0  0  0  0  0  0  0  0  0  0  0
    0.8836   -0.7137   -2.0063 H   0  0  0  0  0  0  0  0  0  0  0  0
    1.2122   -2.3303   -1.2510 H   0  0  0  0  0  0  0  0  0  0  0  0
    2.8633    2.1850    0.6457 H   0  0  0  0  0  0  0  0  0  0  0  0
    3.6738    0.5574    1.0575 H   0  0  0  0  0  0  0  0  0  0  0  0
   -1.1252    1.7154   -0.0522 C   0  0  0  0  0  0  0  0  0  0  0  0
   -2.1807    0.2890   -0.4489 S   0  0  0  0  0  0  0  0  0  0  0  0
   -1.2608   -1.0435    0.2643 C   0  0  0  0  0  3  0  0  0  0  0  0
   -0.8598   -0.9074    1.7102 C   0  0  0  0  0  0  0  0  0  0  0  0
   -1.4406    2.5210   -0.7069 H   0  0  0  0  0  0  0  0  0  0  0  0
   -0.0848    1.4584   -0.2405 H   0  0  0  0  0  0  0  0  0  0  0  0
   -1.2732    2.0055    0.9838 H   0  0  0  0  0  0  0  0  0  0  0  0
   -0.1330   -1.1805   -0.4429 H   0  0  0  0  0  0  0  0  0  0  0  0
   -1.8228   -1.9526    0.0620 H   0  0  0  0  0  0  0  0  0  0  0  0
   -0.2099   -0.0476    1.8594 H   0  0  0  0  0  0  0  0  0  0  0  0
   -0.3211   -1.8003    2.0221 H   0  0  0  0  0  0  0  0  0  0  0  0
   -1.7356   -0.7932    2.3518 H   0  0  0  0  0  0  0  0  0  0  0  0
  1  2  1  0
  1  5  1  0
  1  6  1  0
  1 16  1  0
  2  3  1  0
  3  4  2  3
  4  7  1  0
  4  8  1  0
  9 10  1  0
  9 13  1  0
  9 14  1  0
  9 15  1  0
 10 11  1  0
 11 12  1  0
 11 17  1  0
 12 18  1  0
 12 19  1  0
 12 20  1  0
M  RAD  1  11   2
M  END
>  <reaction>  (22) 
rmg_rxn_15692

>  <mol_properties>  (22) 
{"0": {"label": "*3", "atom_type": "Cs"}, "1": {"label": "*4", "atom_type": "O2s"}, "9": {"label": "*0", "atom_type": "S2s"}, "10": {"label": "*1", "atom_type": "Cs"}, "15": {"label": "*2", "atom_type": "H0"}}

>  <type>  (22) 
unop_18

>  <geom_source>  (22) 
Heuristics

$$$$

     RDKit          3D

 20 18  0  0  0  0  0  0  0  0999 V2000
    0.0854    1.0650    1.4168 C   0  0  0  0  0  0  0  0  0  0  0  0
   -0.6939   -0.0634    1.7616 O   0  0  0  0  0  0  0  0  0  0  0  0
   -1.3015    0.1471    2.9762 N   0  0  0  0  0  0  0  0  0  0  0  0
   -2.0114   -0.8372    3.3282 C   0  0  0  0  0  0  0  0  0  0  0  0
   -0.5376    1.9579    1.3283 H   0  0  0  0  0  0  0  0  0  0  0  0
    0.8697    1.2392    2.1568 H   0  0  0  0  0  0  0  0  0  0  0  0
   -2.5251   -0.7501    4.2763 H   0  0  0  0  0  0  0  0  0  0  0  0
   -2.1120   -1.7342    2.7210 H   0  0  0  0  0  0  0  0  0  0  0  0
    0.4955   -0.8953   -3.2946 C   0  0  0  0  0  0  0  0  0  0  0  0
    0.4955   -0.8953   -1.4933 S   0  0  0  0  0  0  0  0  0  0  0  0
    0.4955    0.8830   -1.1604 C   0  0  0  0  0  3  0  0  0  0  0  0
    1.7746    1.6082   -1.5468 C   0  0  0  0  0  0  0  0  0  0  0  0
    1.4219   -0.4922   -3.7022 H   0  0  0  0  0  0  0  0  0  0  0  0
   -0.3545   -0.3329   -3.6831 H   0  0  0  0  0  0  0  0  0  0  0  0
    0.4008   -1.9332   -3.6109 H   0  0  0  0  0  0  0  0  0  0  0  0
    0.2902    0.9741    0.1298 H   0  0  0  0  0  0  0  0  0  0  0  0
   -0.3713    1.3284   -1.6541 H   0  0  0  0  0  0  0  0  0  0  0  0
    1.9515    1.5603   -2.6222 H   0  0  0  0  0  0  0  0  0  0  0  0
    2.6363    1.1700   -1.0423 H   0  0  0  0  0  0  0  0  0  0  0  0
    1.7111    2.6631   -1.2702 H   0  0  0  0  0  0  0  0  0  0  0  0
  1  2  1  0
  1  5  1  0
  1  6  1  0
  1 16  1  0
  2  3  1  0
  3  4  2  3
  4  7  1  0
  4  8  1  0
  9 10  1  0
  9 13  1  0
  9 14  1  0
  9 15  1  0
 10 11  1  0
 11 12  1  0
 11 17  1  0
 12 18  1  0
 12 19  1  0
 12 20  1  0
M  RAD  1  11   2
M  END
>  <reaction>  (23) 
rmg_rxn_15692

>  <mol_properties>  (23) 
{"0": {"label": "*3", "atom_type": "Cs"}, "1": {"label": "*4", "atom_type": "O2s"}, "9": {"label": "*0", "atom_type": "S2s"}, "10": {"label": "*1", "atom_type": "Cs"}, "15": {"label": "*2", "atom_type": "H0"}}

>  <type>  (23) 
unop_19

>  <geom_source>  (23) 
Heuristics

$$$$

     RDKit          3D

 20 18  0  0  0  0  0  0  0  0999 V2000
   -0.8921    0.7977    1.3076 C   0  0  0  0  0  0  0  0  0  0  0  0
    0.1835    0.1106    1.9164 O   0  0  0  0  0  0  0  0  0  0  0  0
    0.4824    0.6952    3.1237 N   0  0  0  0  0  0  0  0  0  0  0  0
    1.4406    0.1142    3.7076 C   0  0  0  0  0  0  0  0  0  0  0  0
   -1.7877    0.7525    1.9314 H   0  0  0  0  0  0  0  0  0  0  0  0
   -0.6317    1.8414    1.1179 H   0  0  0  0  0  0  0  0  0  0  0  0
    1.7383    0.5151    4.6673 H   0  0  0  0  0  0  0  0  0  0  0  0
    1.9515   -0.7465    3.2813 H   0  0  0  0  0  0  0  0  0  0  0  0
   -0.4821   -1.1627   -3.4038 C   0  0  0  0  0  0  0  0  0  0  0  0
   -0.4821   -1.1627   -1.6025 S   0  0  0  0  0  0  0  0  0  0  0  0
   -0.4821    0.6156   -1.2696 C   0  0  0  0  0  3  0  0  0  0  0  0
    0.7971    1.3408   -1.6560 C   0  0  0  0  0  0  0  0  0  0  0  0
    0.4444   -0.7596   -3.8114 H   0  0  0  0  0  0  0  0  0  0  0  0
   -1.3321   -0.6002   -3.7923 H   0  0  0  0  0  0  0  0  0  0  0  0
   -0.5767   -2.2006   -3.7200 H   0  0  0  0  0  0  0  0  0  0  0  0
   -0.6873    0.7067    0.0206 H   0  0  0  0  0  0  0  0  0  0  0  0
   -1.3488    1.0610   -1.7633 H   0  0  0  0  0  0  0  0  0  0  0  0
    0.9740    1.2930   -2.7314 H   0  0  0  0  0  0  0  0  0  0  0  0
    1.6588    0.9026   -1.1514 H   0  0  0  0  0  0  0  0  0  0  0  0
    0.7336    2.3958   -1.3794 H   0  0  0  0  0  0  0  0  0  0  0  0
  1  2  1  0
  1  5  1  0
  1  6  1  0
  1 16  1  0
  2  3  1  0
  3  4  2  3
  4  7  1  0
  4  8  1  0
  9 10  1  0
  9 13  1  0
  9 14  1  0
  9 15  1  0
 10 11  1  0
 11 12  1  0
 11 17  1  0
 12 18  1  0
 12 19  1  0
 12 20  1  0
M  RAD  1  11   2
M  END
>  <reaction>  (24) 
rmg_rxn_15692

>  <mol_properties>  (24) 
{"0": {"label": "*3", "atom_type": "Cs"}, "1": {"label": "*4", "atom_type": "O2s"}, "9": {"label": "*0", "atom_type": "S2s"}, "10": {"label": "*1", "atom_type": "Cs"}, "15": {"label": "*2", "atom_type": "H0"}}

>  <type>  (24) 
unop_20

>  <geom_source>  (24) 
Heuristics

$$$$

     RDKit          3D

 20 18  0  0  0  0  0  0  0  0999 V2000
   -0.1411    0.0214    1.4683 C   0  0  0  0  0  0  0  0  0  0  0  0
   -0.8251    1.2437    1.6622 O   0  0  0  0  0  0  0  0  0  0  0  0
   -0.5828    1.7138    2.9307 N   0  0  0  0  0  0  0  0  0  0  0  0
   -1.1749    2.8079    3.1521 C   0  0  0  0  0  0  0  0  0  0  0  0
    0.9377    0.1563    1.5741 H   0  0  0  0  0  0  0  0  0  0  0  0
   -0.4854   -0.7357    2.1764 H   0  0  0  0  0  0  0  0  0  0  0  0
   -1.0347    3.2456    4.1314 H   0  0  0  0  0  0  0  0  0  0  0  0
   -1.7977    3.2985    2.4072 H   0  0  0  0  0  0  0  0  0  0  0  0
    0.2689   -1.9390   -3.2431 C   0  0  0  0  0  0  0  0  0  0  0  0
    0.2689   -1.9390   -1.4418 S   0  0  0  0  0  0  0  0  0  0  0  0
    0.2689   -0.1607   -1.1088 C   0  0  0  0  0  3  0  0  0  0  0  0
    1.5481    0.5645   -1.4952 C   0  0  0  0  0  0  0  0  0  0  0  0
    1.1954   -1.5359   -3.6507 H   0  0  0  0  0  0  0  0  0  0  0  0
   -0.5811   -1.3765   -3.6316 H   0  0  0  0  0  0  0  0  0  0  0  0
    0.1743   -2.9769   -3.5593 H   0  0  0  0  0  0  0  0  0  0  0  0
    0.0637   -0.0696    0.1813 H   0  0  0  0  0  0  0  0  0  0  0  0
   -0.5978    0.2847   -1.6026 H   0  0  0  0  0  0  0  0  0  0  0  0
    1.7250    0.5166   -2.5707 H   0  0  0  0  0  0  0  0  0  0  0  0
    2.4098    0.1263   -0.9907 H   0  0  0  0  0  0  0  0  0  0  0  0
    1.4846    1.6195   -1.2187 H   0  0  0  0  0  0  0  0  0  0  0  0
  1  2  1  0
  1  5  1  0
  1  6  1  0
  1 16  1  0
  2  3  1  0
  3  4  2  3
  4  7  1  0
  4  8  1  0
  9 10  1  0
  9 13  1  0
  9 14  1  0
  9 15  1  0
 10 11  1  0
 11 12  1  0
 11 17  1  0
 12 18  1  0
 12 19  1  0
 12 20  1  0
M  RAD  1  11   2
M  END
>  <reaction>  (25) 
rmg_rxn_15692

>  <mol_properties>  (25) 
{"0": {"label": "*3", "atom_type": "Cs"}, "1": {"label": "*4", "atom_type": "O2s"}, "9": {"label": "*0", "atom_type": "S2s"}, "10": {"label": "*1", "atom_type": "Cs"}, "15": {"label": "*2", "atom_type": "H0"}}

>  <type>  (25) 
unop_21

>  <geom_source>  (25) 
Heuristics

$$$$

     RDKit          3D

 20 18  0  0  0  0  0  0  0  0999 V2000
   -0.2787    1.1959    1.3352 C   0  0  0  0  0  0  0  0  0  0  0  0
   -0.3938   -0.1346    1.8000 O   0  0  0  0  0  0  0  0  0  0  0  0
   -0.6126   -0.1339    3.1568 N   0  0  0  0  0  0  0  0  0  0  0  0
   -0.7226   -1.3044    3.6200 C   0  0  0  0  0  0  0  0  0  0  0  0
   -1.1965    1.7569    1.5253 H   0  0  0  0  0  0  0  0  0  0  0  0
    0.5643    1.7038    1.8091 H   0  0  0  0  0  0  0  0  0  0  0  0
   -0.8968   -1.3903    4.6842 H   0  0  0  0  0  0  0  0  0  0  0  0
   -0.6485   -2.1916    2.9948 H   0  0  0  0  0  0  0  0  0  0  0  0
    0.1313   -0.7645   -3.3761 C   0  0  0  0  0  0  0  0  0  0  0  0
    0.1313   -0.7645   -1.5749 S   0  0  0  0  0  0  0  0  0  0  0  0
    0.1313    1.0138   -1.2419 C   0  0  0  0  0  3  0  0  0  0  0  0
    1.4105    1.7391   -1.6283 C   0  0  0  0  0  0  0  0  0  0  0  0
    1.0578   -0.3614   -3.7838 H   0  0  0  0  0  0  0  0  0  0  0  0
   -0.7187   -0.2020   -3.7646 H   0  0  0  0  0  0  0  0  0  0  0  0
    0.0367   -1.8024   -3.6924 H   0  0  0  0  0  0  0  0  0  0  0  0
   -0.0739    1.1050    0.0482 H   0  0  0  0  0  0  0  0  0  0  0  0
   -0.7354    1.4593   -1.7356 H   0  0  0  0  0  0  0  0  0  0  0  0
    1.5874    1.6912   -2.7038 H   0  0  0  0  0  0  0  0  0  0  0  0
    2.2722    1.3009   -1.1238 H   0  0  0  0  0  0  0  0  0  0  0  0
    1.3470    2.7940   -1.3518 H   0  0  0  0  0  0  0  0  0  0  0  0
  1  2  1  0
  1  5  1  0
  1  6  1  0
  1 16  1  0
  2  3  1  0
  3  4  2  3
  4  7  1  0
  4  8  1  0
  9 10  1  0
  9 13  1  0
  9 14  1  0
  9 15  1  0
 10 11  1  0
 11 12  1  0
 11 17  1  0
 12 18  1  0
 12 19  1  0
 12 20  1  0
M  RAD  1  11   2
M  END
>  <reaction>  (26) 
rmg_rxn_15692

>  <mol_properties>  (26) 
{"0": {"label": "*3", "atom_type": "Cs"}, "1": {"label": "*4", "atom_type": "O2s"}, "9": {"label": "*0", "atom_type": "S2s"}, "10": {"label": "*1", "atom_type": "Cs"}, "15": {"label": "*2", "atom_type": "H0"}}

>  <type>  (26) 
unop_22

>  <geom_source>  (26) 
Heuristics

$$$$

     RDKit          3D

 20 18  0  0  0  0  0  0  0  0999 V2000
    1.1232   -1.4897   -0.8085 C   0  0  0  0  0  0  0  0  0  0  0  0
    2.2996   -1.0016   -0.2111 O   0  0  0  0  0  0  0  0  0  0  0  0
    2.1916    0.3398    0.0856 N   0  0  0  0  0  0  0  0  0  0  0  0
    3.1974    0.8795    0.6166 C   0  0  0  0  0  0  0  0  0  0  0  0
    0.8112   -0.9467   -1.6792 H   0  0  0  0  0  0  0  0  0  0  0  0
    1.2691   -2.5461   -0.9889 H   0  0  0  0  0  0  0  0  0  0  0  0
    3.1162    1.9267    0.8503 H   0  0  0  0  0  0  0  0  0  0  0  0
    4.1216    0.3581    0.8454 H   0  0  0  0  0  0  0  0  0  0  0  0
   -0.6735    1.9662    0.0349 C   0  0  0  0  0  0  0  0  0  0  0  0
   -1.9437    0.7585   -0.4444 S   0  0  0  0  0  0  0  0  0  0  0  0
   -1.5827   -0.5140    0.6653 C   0  0  0  0  0  3  0  0  0  0  0  0
   -2.4219   -1.7397    0.6368 C   0  0  0  0  0  0  0  0  0  0  0  0
   -0.8928    2.3348    1.0331 H   0  0  0  0  0  0  0  0  0  0  0  0
   -0.7261    2.7799   -0.6808 H   0  0  0  0  0  0  0  0  0  0  0  0
    0.3053    1.4905    0.0056 H   0  0  0  0  0  0  0  0  0  0  0  0
    0.2036   -1.2701   -0.2362 H   0  0  0  0  0  0  0  0  0  0  0  0
   -1.1599   -0.1965    1.6059 H   0  0  0  0  0  0  0  0  0  0  0  0
   -1.8720   -2.5802    1.0608 H   0  0  0  0  0  0  0  0  0  0  0  0
   -2.7063   -1.9799   -0.3859 H   0  0  0  0  0  0  0  0  0  0  0  0
   -3.3420   -1.6222    1.2210 H   0  0  0  0  0  0  0  0  0  0  0  0
  1  2  1  0
  1  5  1  0
  1  6  1  0
  1 16  1  0
  2  3  1  0
  3  4  2  3
  4  7  1  0
  4  8  1  0
  9 10  1  0
  9 13  1  0
  9 14  1  0
  9 15  1  0
 10 11  1  0
 11 12  1  0
 11 17  1  0
 12 18  1  0
 12 19  1  0
 12 20  1  0
M  RAD  1  11   2
M  END
>  <reaction>  (27) 
rmg_rxn_15692

>  <mol_properties>  (27) 
{"0": {"label": "*3", "atom_type": "Cs"}, "1": {"label": "*4", "atom_type": "O2s"}, "9": {"label": "*0", "atom_type": "S2s"}, "10": {"label": "*1", "atom_type": "Cs"}, "15": {"label": "*2", "atom_type": "H0"}}

>  <type>  (27) 
unop_23

>  <geom_source>  (27) 
Heuristics

$$$$

     RDKit          3D

 20 18  0  0  0  0  0  0  0  0999 V2000
   -1.5176    1.1242    1.1901 S   0  0  0  0  0  0  0  0  0  0  0  0
    2.0516   -0.6380   -1.2780 O   0  0  0  0  0  0  0  0  0  0  0  0
    2.6705    0.5965   -1.1597 N   0  0  0  0  0  0  0  0  0  0  0  0
   -2.1529   -1.4286    0.3817 C   0  0  0  0  0  0  0  0  0  0  0  0
   -1.2770    1.8086   -0.4779 C   0  0  0  0  0  0  0  0  0  0  0  0
    1.3281   -1.2621   -0.2211 C   0  0  0  0  0  0  0  0  0  0  0  0
   -0.9622   -0.5437    0.7151 C   0  0  0  0  0  3  0  0  0  0  0  0
    2.6702    1.3221   -0.0839 C   0  0  0  0  0  0  0  0  0  0  0  0
   -2.7212   -1.0001   -0.4698 H   0  0  0  0  0  0  0  0  0  0  0  0
   -1.7918   -2.4383    0.0960 H   0  0  0  0  0  0  0  0  0  0  0  0
   -2.8217   -1.5202    1.2637 H   0  0  0  0  0  0  0  0  0  0  0  0
    2.0013   -1.4503    0.6415 H   0  0  0  0  0  0  0  0  0  0  0  0
    0.9271   -2.2325   -0.5787 H   0  0  0  0  0  0  0  0  0  0  0  0
    0.3189   -0.4955    0.1479 H   0  0  0  0  0  0  0  0  0  0  0  0
   -1.9404    1.2933   -1.2031 H   0  0  0  0  0  0  0  0  0  0  0  0
   -0.2180    1.6896   -0.7887 H   0  0  0  0  0  0  0  0  0  0  0  0
   -1.5292    2.8887   -0.4661 H   0  0  0  0  0  0  0  0  0  0  0  0
   -0.3893   -0.9902    1.5548 H   0  0  0  0  0  0  0  0  0  0  0  0
    3.1811    2.2750   -0.0844 H   0  0  0  0  0  0  0  0  0  0  0  0
    2.1722    1.0015    0.8206 H   0  0  0  0  0  0  0  0  0  0  0  0
  1  5  1  0
  1  7  1  0
  2  6  1  0
  2  3  1  0
  3  8  2  3
  4  7  1  0
  4  9  1  0
  4 10  1  0
  4 11  1  0
  5 15  1  0
  5 16  1  0
  5 17  1  0
  6 12  1  0
  6 13  1  0
  6 14  1  0
  7 18  1  0
  8 19  1  0
  8 20  1  0
M  RAD  1   7   2
M  END
>  <reaction>  (28) 
rmg_rxn_15692

>  <mol_properties>  (28) 
{"0": {"label": "*3", "atom_type": "Cs"}, "1": {"label": "*4", "atom_type": "O2s"}, "9": {"label": "*0", "atom_type": "S2s"}, "10": {"label": "*1", "atom_type": "Cs"}, "15": {"label": "*2", "atom_type": "H0"}}

>  <type>  (28) 
unop_24

>  <geom_source>  (28) 
AutoTST

$$$$

     RDKit          3D

 20 18  0  0  0  0  0  0  0  0999 V2000
   -0.6571    1.0875    1.2970 C   0  0  0  0  0  0  0  0  0  0  0  0
   -0.0932   -0.0815    1.8585 O   0  0  0  0  0  0  0  0  0  0  0  0
    0.1135    0.1044    3.2044 N   0  0  0  0  0  0  0  0  0  0  0  0
    0.6178   -0.9166    3.7521 C   0  0  0  0  0  0  0  0  0  0  0  0
   -1.6224    1.3144    1.7550 H   0  0  0  0  0  0  0  0  0  0  0  0
    0.0136    1.9412    1.4172 H   0  0  0  0  0  0  0  0  0  0  0  0
    0.8119   -0.8509    4.8143 H   0  0  0  0  0  0  0  0  0  0  0  0
    0.8511   -1.8237    3.1988 H   0  0  0  0  0  0  0  0  0  0  0  0
   -0.2470   -0.8729   -3.4143 C   0  0  0  0  0  0  0  0  0  0  0  0
   -0.2470   -0.8729   -1.6131 S   0  0  0  0  0  0  0  0  0  0  0  0
   -0.2470    0.9054   -1.2801 C   0  0  0  0  0  3  0  0  0  0  0  0
    1.0321    1.6306   -1.6665 C   0  0  0  0  0  0  0  0  0  0  0  0
    0.6794   -0.4698   -3.8219 H   0  0  0  0  0  0  0  0  0  0  0  0
   -1.0970   -0.3104   -3.8028 H   0  0  0  0  0  0  0  0  0  0  0  0
   -0.3417   -1.9108   -3.7306 H   0  0  0  0  0  0  0  0  0  0  0  0
   -0.4523    0.9965    0.0100 H   0  0  0  0  0  0  0  0  0  0  0  0
   -1.1137    1.3508   -1.7738 H   0  0  0  0  0  0  0  0  0  0  0  0
    1.2090    1.5827   -2.7419 H   0  0  0  0  0  0  0  0  0  0  0  0
    1.8938    1.1924   -1.1620 H   0  0  0  0  0  0  0  0  0  0  0  0
    0.9687    2.6856   -1.3899 H   0  0  0  0  0  0  0  0  0  0  0  0
  1  2  1  0
  1  5  1  0
  1  6  1  0
  1 16  1  0
  2  3  1  0
  3  4  2  3
  4  7  1  0
  4  8  1  0
  9 10  1  0
  9 13  1  0
  9 14  1  0
  9 15  1  0
 10 11  1  0
 11 12  1  0
 11 17  1  0
 12 18  1  0
 12 19  1  0
 12 20  1  0
M  RAD  1  11   2
M  END
>  <reaction>  (29) 
rmg_rxn_15692

>  <mol_properties>  (29) 
{"0": {"label": "*3", "atom_type": "Cs"}, "1": {"label": "*4", "atom_type": "O2s"}, "9": {"label": "*0", "atom_type": "S2s"}, "10": {"label": "*1", "atom_type": "Cs"}, "15": {"label": "*2", "atom_type": "H0"}}

>  <type>  (29) 
unop_25

>  <geom_source>  (29) 
gaussian_log

$$$$
