
     RDKit          3D

 15 14  0  0  0  0  0  0  0  0999 V2000
   -1.2811   -0.4129    1.0228 C   0  0  0  0  0  0  0  0  0  0  0  0
   -1.0023   -0.5809   -0.4650 C   0  0  0  0  0  0  0  0  0  0  0  0
   -2.0576    0.0568   -1.3449 C   0  0  0  0  0  0  0  0  0  0  0  0
   -2.0663    1.4464   -1.1307 O   0  0  0  0  0  0  0  0  0  0  0  0
   -3.0424    2.1072   -1.8849 C   0  0  0  0  0  0  0  0  0  0  0  0
   -2.2382   -0.8657    1.2935 H   0  0  0  0  0  0  0  0  0  0  0  0
   -1.3219    0.6426    1.2914 H   0  0  0  0  0  0  0  0  0  0  0  0
   -0.5042   -0.8881    1.6236 H   0  0  0  0  0  0  0  0  0  0  0  0
   -0.0316   -0.1460   -0.7167 H   0  0  0  0  0  0  0  0  0  0  0  0
   -0.9494   -1.6429   -0.7203 H   0  0  0  0  0  0  0  0  0  0  0  0
   -1.8518   -0.1570   -2.4041 H   0  0  0  0  0  0  0  0  0  0  0  0
   -3.0491   -0.3636   -1.1124 H   0  0  0  0  0  0  0  0  0  0  0  0
   -4.0521    1.7545   -1.6343 H   0  0  0  0  0  0  0  0  0  0  0  0
   -2.8850    1.9634   -2.9626 H   0  0  0  0  0  0  0  0  0  0  0  0
   -2.9730    3.1700   -1.6570 H   0  0  0  0  0  0  0  0  0  0  0  0
  1  2  1  0
  1  6  1  0
  1  7  1  0
  1  8  1  0
  2  3  1  0
  2  9  1  0
  2 10  1  0
  3  4  1  0
  3 11  1  0
  3 12  1  0
  4  5  1  0
  5 13  1  0
  5 14  1  0
  5 15  1  0
M  END
>  <reaction>  (1) 
rmg_rxn_15524

>  <mol_properties>  (1) 
{"2": {"label": "donator", "atom_type": "Cs"}, "10": {"label": "d_hydrogen", "atom_type": "H0"}}

>  <type>  (1) 
r1h

$$$$

     RDKit          3D

  5  4  0  0  0  0  0  0  0  0999 V2000
    0.8934    0.3742    0.4948 O   0  0  0  0  0  0  0  0  0  0  0  0
    0.1582   -0.1610   -0.5904 N   0  0  0  0  0  0  0  0  0  0  0  0
   -1.0297   -0.3739   -0.4689 C   0  0  0  0  0  3  0  0  0  0  0  0
    1.7804    0.4382    0.1306 H   0  0  0  0  0  0  0  0  0  0  0  0
   -1.8023   -0.2775    0.2859 H   0  0  0  0  0  0  0  0  0  0  0  0
  1  2  1  0
  1  4  1  0
  2  3  2  3
  3  5  1  0
M  RAD  1   3   2
M  END
>  <reaction>  (2) 
rmg_rxn_15524

>  <mol_properties>  (2) 
{"2": {"label": "acceptor", "atom_type": "Cd"}}

>  <type>  (2) 
r2

$$$$

     RDKit          3D

  6  5  0  0  0  0  0  0  0  0999 V2000
    1.2314    0.0428    0.5088 O   0  0  0  0  0  0  0  0  0  0  0  0
    0.2987    0.2341   -0.4915 N   0  0  0  0  0  0  0  0  0  0  0  0
   -0.8599   -0.1122   -0.1290 C   0  0  0  0  0  0  0  0  0  0  0  0
    2.0507    0.3401    0.1082 H   0  0  0  0  0  0  0  0  0  0  0  0
   -1.0700   -0.5112    0.8610 H   0  0  0  0  0  0  0  0  0  0  0  0
   -1.6509    0.0064   -0.8574 H   0  0  0  0  0  0  0  0  0  0  0  0
  1  2  1  0
  1  4  1  0
  2  3  2  3
  3  5  1  0
  3  6  1  0
M  END
>  <reaction>  (3) 
rmg_rxn_15524

>  <mol_properties>  (3) 
{"2": {"label": "acceptor", "atom_type": "Cd"}, "5": {"label": "a_hydrogen", "atom_type": "H0"}}

>  <type>  (3) 
r2h

$$$$

     RDKit          3D

 20 18  0  0  0  0  0  0  0  0999 V2000
    1.1830    0.2681    3.6276 O   0  0  0  0  0  0  0  0  0  0  0  0
    1.0061    0.4282    2.2414 N   0  0  0  0  0  0  0  0  0  0  0  0
    0.2331   -0.3985    1.7284 C   0  0  0  0  0  3  0  0  0  0  0  0
    1.7998    0.9714    3.8431 H   0  0  0  0  0  0  0  0  0  0  0  0
   -0.3075   -1.2074    2.2206 H   0  0  0  0  0  0  0  0  0  0  0  0
   -0.3075   -1.2595   -3.1525 C   0  0  0  0  0  0  0  0  0  0  0  0
   -0.2623   -1.3458   -1.6298 C   0  0  0  0  0  0  0  0  0  0  0  0
   -0.0408   -0.0108   -0.9691 C   0  0  0  0  0  0  0  0  0  0  0  0
   -1.1151    0.8324   -1.1678 O   0  0  0  0  0  0  0  0  0  0  0  0
   -0.9092    2.1367   -0.6795 C   0  0  0  0  0  0  0  0  0  0  0  0
    0.6299   -0.8624   -3.5486 H   0  0  0  0  0  0  0  0  0  0  0  0
   -1.1156   -0.6040   -3.4776 H   0  0  0  0  0  0  0  0  0  0  0  0
   -0.4680   -2.2443   -3.5938 H   0  0  0  0  0  0  0  0  0  0  0  0
   -1.1958   -1.7699   -1.2509 H   0  0  0  0  0  0  0  0  0  0  0  0
    0.5435   -2.0135   -1.3139 H   0  0  0  0  0  0  0  0  0  0  0  0
    0.0842   -0.2099    0.2424 H   0  0  0  0  0  0  0  0  0  0  0  0
    0.9126    0.4609   -1.2494 H   0  0  0  0  0  0  0  0  0  0  0  0
   -0.0574    2.6133   -1.1793 H   0  0  0  0  0  0  0  0  0  0  0  0
   -0.7218    2.1276    0.3994 H   0  0  0  0  0  0  0  0  0  0  0  0
   -1.8129    2.7065   -0.8873 H   0  0  0  0  0  0  0  0  0  0  0  0
  1  2  1  0
  1  4  1  0
  2  3  2  3
  3  5  1  0
  6  7  1  0
  6 11  1  0
  6 12  1  0
  6 13  1  0
  7  8  1  0
  7 14  1  0
  7 15  1  0
  8  9  1  0
  8 16  1  0
  8 17  1  0
  9 10  1  0
 10 18  1  0
 10 19  1  0
 10 20  1  0
M  RAD  1   3   2
M  END
>  <reaction>  (4) 
rmg_rxn_15524

>  <mol_properties>  (4) 
{"1": {"label": "*4", "atom_type": "N3d"}, "2": {"label": "*3", "atom_type": "Cd"}, "7": {"label": "*1", "atom_type": "Cs"}, "8": {"label": "*0", "atom_type": "O2s"}, "15": {"label": "*2", "atom_type": "H0"}}

>  <type>  (4) 
ts

$$$$

     RDKit          3D

 20 18  0  0  0  0  0  0  0  0999 V2000
   -3.3388   -0.1674    0.2374 O   0  0  0  0  0  0  0  0  0  0  0  0
   -1.9266   -0.0721    0.2118 N   0  0  0  0  0  0  0  0  0  0  0  0
   -1.3421   -0.1276   -0.8819 C   0  0  0  0  0  0  0  0  0  0  0  0
   -3.5670   -0.0925    1.1737 H   0  0  0  0  0  0  0  0  0  0  0  0
   -1.7759   -0.2490   -1.8681 H   0  0  0  0  0  0  0  0  0  0  0  0
    1.0049    2.4522    0.1296 C   0  0  0  0  0  0  0  0  0  0  0  0
    1.4428    1.0498    0.5322 C   0  0  0  0  0  0  0  0  0  0  0  0
    1.2835    0.0807   -0.6202 C   0  0  0  0  0  3  0  0  0  0  0  0
    1.7698   -1.2085   -0.4732 O   0  0  0  0  0  0  0  0  0  0  0  0
    1.4192   -1.8803    0.7138 C   0  0  0  0  0  0  0  0  0  0  0  0
    1.5910    2.8128   -0.7126 H   0  0  0  0  0  0  0  0  0  0  0  0
    1.1361    3.1410    0.9601 H   0  0  0  0  0  0  0  0  0  0  0  0
   -0.0445    2.4507   -0.1544 H   0  0  0  0  0  0  0  0  0  0  0  0
    2.4933    1.0691    0.8484 H   0  0  0  0  0  0  0  0  0  0  0  0
    0.8412    0.7186    1.3815 H   0  0  0  0  0  0  0  0  0  0  0  0
   -0.0579   -0.0168   -0.7996 H   0  0  0  0  0  0  0  0  0  0  0  0
    1.6780    0.4575   -1.5636 H   0  0  0  0  0  0  0  0  0  0  0  0
    1.9449   -1.4686    1.5810 H   0  0  0  0  0  0  0  0  0  0  0  0
    1.7177   -2.9179    0.5735 H   0  0  0  0  0  0  0  0  0  0  0  0
    0.3399   -1.8284    0.8882 H   0  0  0  0  0  0  0  0  0  0  0  0
  1  2  1  0
  1  4  1  0
  2  3  2  3
  3  5  1  0
  3 16  1  0
  6  7  1  0
  6 11  1  0
  6 12  1  0
  6 13  1  0
  7  8  1  0
  7 14  1  0
  7 15  1  0
  8  9  1  0
  8 17  1  0
  9 10  1  0
 10 18  1  0
 10 19  1  0
 10 20  1  0
M  RAD  1   8   2
M  END
>  <reaction>  (5) 
rmg_rxn_15524

>  <mol_properties>  (5) 
{"1": {"label": "*4", "atom_type": "N3d"}, "2": {"label": "*3", "atom_type": "Cd"}, "7": {"label": "*1", "atom_type": "Cs"}, "8": {"label": "*0", "atom_type": "O2s"}, "15": {"label": "*2", "atom_type": "H0"}}

>  <type>  (5) 
unop_1

>  <geom_source>  (5) 
crest_best.xyz

$$$$

     RDKit          3D

 20 18  0  0  0  0  0  0  0  0999 V2000
    0.8707    0.9353    3.3553 O   0  0  0  0  0  0  0  0  0  0  0  0
    1.2142    0.2274    2.2203 N   0  0  0  0  0  0  0  0  0  0  0  0
    0.2144   -0.3372    1.6956 C   0  0  0  0  0  0  0  0  0  0  0  0
    1.7059    1.3062    3.6468 H   0  0  0  0  0  0  0  0  0  0  0  0
   -0.7884   -0.2583    2.1101 H   0  0  0  0  0  0  0  0  0  0  0  0
    0.0316   -1.6019   -3.0321 C   0  0  0  0  0  0  0  0  0  0  0  0
    0.0316   -1.6019   -1.5092 C   0  0  0  0  0  0  0  0  0  0  0  0
    0.0316   -0.2093   -0.9131 C   0  0  0  0  0  3  0  0  0  0  0  0
   -1.1534    0.4541   -1.2773 O   0  0  0  0  0  0  0  0  0  0  0  0
   -1.2142    1.7652   -0.7921 C   0  0  0  0  0  0  0  0  0  0  0  0
    0.9140   -1.0883   -3.4218 H   0  0  0  0  0  0  0  0  0  0  0  0
   -0.8509   -1.0920   -3.4185 H   0  0  0  0  0  0  0  0  0  0  0  0
    0.0365   -2.6199   -3.4244 H   0  0  0  0  0  0  0  0  0  0  0  0
   -0.8425   -2.1401   -1.1335 H   0  0  0  0  0  0  0  0  0  0  0  0
    0.9133   -2.1281   -1.1329 H   0  0  0  0  0  0  0  0  0  0  0  0
    0.1238   -0.2738    0.4022 H   0  0  0  0  0  0  0  0  0  0  0  0
    0.9040    0.3577   -1.2753 H   0  0  0  0  0  0  0  0  0  0  0  0
   -0.3903    2.3778   -1.1827 H   0  0  0  0  0  0  0  0  0  0  0  0
   -1.1722    1.7913    0.3054 H   0  0  0  0  0  0  0  0  0  0  0  0
   -2.1599    2.1953   -1.1192 H   0  0  0  0  0  0  0  0  0  0  0  0
  1  2  1  0
  1  4  1  0
  2  3  2  3
  3  5  1  0
  3 16  1  0
  6  7  1  0
  6 11  1  0
  6 12  1  0
  6 13  1  0
  7  8  1  0
  7 14  1  0
  7 15  1  0
  8  9  1  0
  8 17  1  0
  9 10  1  0
 10 18  1  0
 10 19  1  0
 10 20  1  0
M  RAD  1   8   2
M  END
>  <reaction>  (6) 
rmg_rxn_15524

>  <mol_properties>  (6) 
{"1": {"label": "*4", "atom_type": "N3d"}, "2": {"label": "*3", "atom_type": "Cd"}, "7": {"label": "*1", "atom_type": "Cs"}, "8": {"label": "*0", "atom_type": "O2s"}, "15": {"label": "*2", "atom_type": "H0"}}

>  <type>  (6) 
unop_2

>  <geom_source>  (6) 
Heuristics

$$$$

     RDKit          3D

 20 18  0  0  0  0  0  0  0  0999 V2000
    3.3393    0.1686    0.2370 O   0  0  0  0  0  0  0  0  0  0  0  0
    1.9269    0.0752    0.2124 N   0  0  0  0  0  0  0  0  0  0  0  0
    1.3422    0.1264   -0.8814 C   0  0  0  0  0  0  0  0  0  0  0  0
    3.5678    0.0981    1.1736 H   0  0  0  0  0  0  0  0  0  0  0  0
    1.7761    0.2414   -1.8684 H   0  0  0  0  0  0  0  0  0  0  0  0
   -1.0019   -2.4522    0.1304 C   0  0  0  0  0  0  0  0  0  0  0  0
   -1.4433   -1.0506    0.5319 C   0  0  0  0  0  0  0  0  0  0  0  0
   -1.2835   -0.0814   -0.6203 C   0  0  0  0  0  3  0  0  0  0  0  0
   -1.7706    1.2076   -0.4740 O   0  0  0  0  0  0  0  0  0  0  0  0
   -1.4219    1.8796    0.7135 C   0  0  0  0  0  0  0  0  0  0  0  0
   -1.1354   -3.1415    0.9601 H   0  0  0  0  0  0  0  0  0  0  0  0
    0.0486   -2.4491   -0.1495 H   0  0  0  0  0  0  0  0  0  0  0  0
   -1.5842   -2.8131   -0.7142 H   0  0  0  0  0  0  0  0  0  0  0  0
   -2.4944   -1.0718    0.8459 H   0  0  0  0  0  0  0  0  0  0  0  0
   -0.8442   -0.7180    1.3824 H   0  0  0  0  0  0  0  0  0  0  0  0
    0.0580    0.0162   -0.7989 H   0  0  0  0  0  0  0  0  0  0  0  0
   -1.6770   -0.4584   -1.5641 H   0  0  0  0  0  0  0  0  0  0  0  0
   -1.9490    1.4680    1.5800 H   0  0  0  0  0  0  0  0  0  0  0  0
   -1.7204    2.9171    0.5726 H   0  0  0  0  0  0  0  0  0  0  0  0
   -0.3429    1.8279    0.8897 H   0  0  0  0  0  0  0  0  0  0  0  0
  1  2  1  0
  1  4  1  0
  2  3  2  3
  3  5  1  0
  3 16  1  0
  6  7  1  0
  6 11  1  0
  6 12  1  0
  6 13  1  0
  7  8  1  0
  7 14  1  0
  7 15  1  0
  8  9  1  0
  8 17  1  0
  9 10  1  0
 10 18  1  0
 10 19  1  0
 10 20  1  0
M  RAD  1   8   2
M  END
>  <reaction>  (7) 
rmg_rxn_15524

>  <mol_properties>  (7) 
{"1": {"label": "*4", "atom_type": "N3d"}, "2": {"label": "*3", "atom_type": "Cd"}, "7": {"label": "*1", "atom_type": "Cs"}, "8": {"label": "*0", "atom_type": "O2s"}, "15": {"label": "*2", "atom_type": "H0"}}

>  <type>  (7) 
unop_3

>  <geom_source>  (7) 
Heuristics

$$$$

     RDKit          3D

 20 18  0  0  0  0  0  0  0  0999 V2000
    3.3384    0.1732    0.2379 O   0  0  0  0  0  0  0  0  0  0  0  0
    1.9267    0.0692    0.2108 N   0  0  0  0  0  0  0  0  0  0  0  0
    1.3414    0.1411   -0.8815 C   0  0  0  0  0  0  0  0  0  0  0  0
    3.5673    0.0819    1.1726 H   0  0  0  0  0  0  0  0  0  0  0  0
    1.7736    0.2832   -1.8656 H   0  0  0  0  0  0  0  0  0  0  0  0
   -0.9957   -2.4542    0.1260 C   0  0  0  0  0  0  0  0  0  0  0  0
   -1.4360   -1.0535    0.5317 C   0  0  0  0  0  0  0  0  0  0  0  0
   -1.2829   -0.0827   -0.6200 C   0  0  0  0  0  3  0  0  0  0  0  0
   -1.7759    1.2039   -0.4715 O   0  0  0  0  0  0  0  0  0  0  0  0
   -1.4279    1.8764    0.7158 C   0  0  0  0  0  0  0  0  0  0  0  0
    0.0528   -2.4495   -0.1610 H   0  0  0  0  0  0  0  0  0  0  0  0
   -1.5833   -2.8151   -0.7150 H   0  0  0  0  0  0  0  0  0  0  0  0
   -1.1228   -3.1445    0.9559 H   0  0  0  0  0  0  0  0  0  0  0  0
   -2.4855   -1.0760    0.8512 H   0  0  0  0  0  0  0  0  0  0  0  0
   -0.8326   -0.7217    1.3795 H   0  0  0  0  0  0  0  0  0  0  0  0
    0.0577    0.0220   -0.8001 H   0  0  0  0  0  0  0  0  0  0  0  0
   -1.6762   -0.4606   -1.5634 H   0  0  0  0  0  0  0  0  0  0  0  0
   -1.7340    2.9121    0.5775 H   0  0  0  0  0  0  0  0  0  0  0  0
   -0.3478    1.8320    0.8881 H   0  0  0  0  0  0  0  0  0  0  0  0
   -1.9487    1.4598    1.5835 H   0  0  0  0  0  0  0  0  0  0  0  0
  1  2  1  0
  1  4  1  0
  2  3  2  3
  3  5  1  0
  3 16  1  0
  6  7  1  0
  6 11  1  0
  6 12  1  0
  6 13  1  0
  7  8  1  0
  7 14  1  0
  7 15  1  0
  8  9  1  0
  8 17  1  0
  9 10  1  0
 10 18  1  0
 10 19  1  0
 10 20  1  0
M  RAD  1   8   2
M  END
>  <reaction>  (8) 
rmg_rxn_15524

>  <mol_properties>  (8) 
{"1": {"label": "*4", "atom_type": "N3d"}, "2": {"label": "*3", "atom_type": "Cd"}, "7": {"label": "*1", "atom_type": "Cs"}, "8": {"label": "*0", "atom_type": "O2s"}, "15": {"label": "*2", "atom_type": "H0"}}

>  <type>  (8) 
unop_4

>  <geom_source>  (8) 
Heuristics

$$$$

     RDKit          3D

 20 18  0  0  0  0  0  0  0  0999 V2000
    3.3407    0.1725    0.2369 O   0  0  0  0  0  0  0  0  0  0  0  0
    1.9289    0.0694    0.2123 N   0  0  0  0  0  0  0  0  0  0  0  0
    1.3423    0.1381   -0.8795 C   0  0  0  0  0  0  0  0  0  0  0  0
    3.5711    0.0844    1.1715 H   0  0  0  0  0  0  0  0  0  0  0  0
    1.7738    0.2756   -1.8646 H   0  0  0  0  0  0  0  0  0  0  0  0
   -0.9973   -2.4534    0.1271 C   0  0  0  0  0  0  0  0  0  0  0  0
   -1.4415   -1.0532    0.5303 C   0  0  0  0  0  0  0  0  0  0  0  0
   -1.2827   -0.0821   -0.6204 C   0  0  0  0  0  3  0  0  0  0  0  0
   -1.7739    1.2053   -0.4729 O   0  0  0  0  0  0  0  0  0  0  0  0
   -1.4288    1.8767    0.7159 C   0  0  0  0  0  0  0  0  0  0  0  0
   -1.5786   -2.8142   -0.7183 H   0  0  0  0  0  0  0  0  0  0  0  0
   -1.1300   -3.1441    0.9557 H   0  0  0  0  0  0  0  0  0  0  0  0
    0.0532   -2.4480   -0.1522 H   0  0  0  0  0  0  0  0  0  0  0  0
   -2.4928   -1.0768    0.8434 H   0  0  0  0  0  0  0  0  0  0  0  0
   -0.8436   -0.7210    1.3818 H   0  0  0  0  0  0  0  0  0  0  0  0
    0.0586    0.0205   -0.7974 H   0  0  0  0  0  0  0  0  0  0  0  0
   -1.6737   -0.4588   -1.5653 H   0  0  0  0  0  0  0  0  0  0  0  0
   -0.3497    1.8284    0.8932 H   0  0  0  0  0  0  0  0  0  0  0  0
   -1.9552    1.4621    1.5813 H   0  0  0  0  0  0  0  0  0  0  0  0
   -1.7305    2.9135    0.5762 H   0  0  0  0  0  0  0  0  0  0  0  0
  1  2  1  0
  1  4  1  0
  2  3  2  3
  3  5  1  0
  3 16  1  0
  6  7  1  0
  6 11  1  0
  6 12  1  0
  6 13  1  0
  7  8  1  0
  7 14  1  0
  7 15  1  0
  8  9  1  0
  8 17  1  0
  9 10  1  0
 10 18  1  0
 10 19  1  0
 10 20  1  0
M  RAD  1   8   2
M  END
>  <reaction>  (9) 
rmg_rxn_15524

>  <mol_properties>  (9) 
{"1": {"label": "*4", "atom_type": "N3d"}, "2": {"label": "*3", "atom_type": "Cd"}, "7": {"label": "*1", "atom_type": "Cs"}, "8": {"label": "*0", "atom_type": "O2s"}, "15": {"label": "*2", "atom_type": "H0"}}

>  <type>  (9) 
unop_5

>  <geom_source>  (9) 
Heuristics

$$$$

     RDKit          3D

 20 18  0  0  0  0  0  0  0  0999 V2000
    3.3391    0.1565    0.2372 O   0  0  0  0  0  0  0  0  0  0  0  0
    1.9262    0.0697    0.2122 N   0  0  0  0  0  0  0  0  0  0  0  0
    1.3430    0.1089   -0.8829 C   0  0  0  0  0  0  0  0  0  0  0  0
    3.5662    0.0976    1.1749 H   0  0  0  0  0  0  0  0  0  0  0  0
    1.7786    0.2082   -1.8708 H   0  0  0  0  0  0  0  0  0  0  0  0
   -1.0265   -2.4490    0.1334 C   0  0  0  0  0  0  0  0  0  0  0  0
   -1.4520   -1.0421    0.5338 C   0  0  0  0  0  0  0  0  0  0  0  0
   -1.2842   -0.0763   -0.6201 C   0  0  0  0  0  3  0  0  0  0  0  0
   -1.7584    1.2176   -0.4749 O   0  0  0  0  0  0  0  0  0  0  0  0
   -1.4009    1.8880    0.7109 C   0  0  0  0  0  0  0  0  0  0  0  0
    0.0233   -2.4577   -0.1487 H   0  0  0  0  0  0  0  0  0  0  0  0
   -1.6144   -2.8049   -0.7095 H   0  0  0  0  0  0  0  0  0  0  0  0
   -1.1656   -3.1358    0.9643 H   0  0  0  0  0  0  0  0  0  0  0  0
   -2.5027   -1.0518    0.8499 H   0  0  0  0  0  0  0  0  0  0  0  0
   -0.8477   -0.7148    1.3827 H   0  0  0  0  0  0  0  0  0  0  0  0
    0.0579    0.0086   -0.8002 H   0  0  0  0  0  0  0  0  0  0  0  0
   -1.6826   -0.4508   -1.5628 H   0  0  0  0  0  0  0  0  0  0  0  0
   -0.3221    1.8258    0.8851 H   0  0  0  0  0  0  0  0  0  0  0  0
   -1.9304    1.4829    1.5790 H   0  0  0  0  0  0  0  0  0  0  0  0
   -1.6894    2.9282    0.5689 H   0  0  0  0  0  0  0  0  0  0  0  0
  1  2  1  0
  1  4  1  0
  2  3  2  3
  3  5  1  0
  3 16  1  0
  6  7  1  0
  6 11  1  0
  6 12  1  0
  6 13  1  0
  7  8  1  0
  7 14  1  0
  7 15  1  0
  8  9  1  0
  8 17  1  0
  9 10  1  0
 10 18  1  0
 10 19  1  0
 10 20  1  0
M  RAD  1   8   2
M  END
>  <reaction>  (10) 
rmg_rxn_15524

>  <mol_properties>  (10) 
{"1": {"label": "*4", "atom_type": "N3d"}, "2": {"label": "*3", "atom_type": "Cd"}, "7": {"label": "*1", "atom_type": "Cs"}, "8": {"label": "*0", "atom_type": "O2s"}, "15": {"label": "*2", "atom_type": "H0"}}

>  <type>  (10) 
unop_6

>  <geom_source>  (10) 
Heuristics

$$$$

     RDKit          3D

 20 18  0  0  0  0  0  0  0  0999 V2000
    1.2148   -0.6293    3.4670 O   0  0  0  0  0  0  0  0  0  0  0  0
    0.8315   -0.8425    2.1575 N   0  0  0  0  0  0  0  0  0  0  0  0
    0.2039    0.1445    1.6827 C   0  0  0  0  0  0  0  0  0  0  0  0
    1.6722   -1.4398    3.6992 H   0  0  0  0  0  0  0  0  0  0  0  0
    0.0028    1.0446    2.2599 H   0  0  0  0  0  0  0  0  0  0  0  0
    0.0210   -1.1202   -3.0450 C   0  0  0  0  0  0  0  0  0  0  0  0
    0.0210   -1.1202   -1.5221 C   0  0  0  0  0  0  0  0  0  0  0  0
    0.0210    0.2723   -0.9260 C   0  0  0  0  0  3  0  0  0  0  0  0
   -1.1640    0.9358   -1.2902 O   0  0  0  0  0  0  0  0  0  0  0  0
   -1.2248    2.2469   -0.8050 C   0  0  0  0  0  0  0  0  0  0  0  0
    0.9034   -0.6066   -3.4347 H   0  0  0  0  0  0  0  0  0  0  0  0
   -0.8614   -0.6103   -3.4314 H   0  0  0  0  0  0  0  0  0  0  0  0
    0.0260   -2.1382   -3.4373 H   0  0  0  0  0  0  0  0  0  0  0  0
   -0.8531   -1.6584   -1.1464 H   0  0  0  0  0  0  0  0  0  0  0  0
    0.9028   -1.6464   -1.1458 H   0  0  0  0  0  0  0  0  0  0  0  0
    0.1132    0.2079    0.3893 H   0  0  0  0  0  0  0  0  0  0  0  0
    0.8934    0.8394   -1.2882 H   0  0  0  0  0  0  0  0  0  0  0  0
   -0.4009    2.8594   -1.1956 H   0  0  0  0  0  0  0  0  0  0  0  0
   -1.1828    2.2730    0.2925 H   0  0  0  0  0  0  0  0  0  0  0  0
   -2.1705    2.6770   -1.1321 H   0  0  0  0  0  0  0  0  0  0  0  0
  1  2  1  0
  1  4  1  0
  2  3  2  3
  3  5  1  0
  3 16  1  0
  6  7  1  0
  6 11  1  0
  6 12  1  0
  6 13  1  0
  7  8  1  0
  7 14  1  0
  7 15  1  0
  8  9  1  0
  8 17  1  0
  9 10  1  0
 10 18  1  0
 10 19  1  0
 10 20  1  0
M  RAD  1   8   2
M  END
>  <reaction>  (11) 
rmg_rxn_15524

>  <mol_properties>  (11) 
{"1": {"label": "*4", "atom_type": "N3d"}, "2": {"label": "*3", "atom_type": "Cd"}, "7": {"label": "*1", "atom_type": "Cs"}, "8": {"label": "*0", "atom_type": "O2s"}, "15": {"label": "*2", "atom_type": "H0"}}

>  <type>  (11) 
unop_7

>  <geom_source>  (11) 
Heuristics

$$$$

     RDKit          3D

 20 18  0  0  0  0  0  0  0  0999 V2000
    3.3397    0.1779    0.2371 O   0  0  0  0  0  0  0  0  0  0  0  0
    1.9282    0.0717    0.2118 N   0  0  0  0  0  0  0  0  0  0  0  0
    1.3413    0.1462   -0.8794 C   0  0  0  0  0  0  0  0  0  0  0  0
    3.5703    0.0842    1.1711 H   0  0  0  0  0  0  0  0  0  0  0  0
    1.7718    0.2920   -1.8637 H   0  0  0  0  0  0  0  0  0  0  0  0
   -0.9853   -2.4548    0.1257 C   0  0  0  0  0  0  0  0  0  0  0  0
   -1.4368   -1.0571    0.5297 C   0  0  0  0  0  0  0  0  0  0  0  0
   -1.2828   -0.0844   -0.6204 C   0  0  0  0  0  3  0  0  0  0  0  0
   -1.7796    1.2007   -0.4719 O   0  0  0  0  0  0  0  0  0  0  0  0
   -1.4366    1.8731    0.7169 C   0  0  0  0  0  0  0  0  0  0  0  0
   -1.5640   -2.8178   -0.7205 H   0  0  0  0  0  0  0  0  0  0  0  0
   -1.1153   -3.1469    0.9536 H   0  0  0  0  0  0  0  0  0  0  0  0
    0.0654   -2.4439   -0.1527 H   0  0  0  0  0  0  0  0  0  0  0  0
   -2.4880   -1.0863    0.8427 H   0  0  0  0  0  0  0  0  0  0  0  0
   -0.8406   -0.7224    1.3814 H   0  0  0  0  0  0  0  0  0  0  0  0
    0.0579    0.0238   -0.7975 H   0  0  0  0  0  0  0  0  0  0  0  0
   -1.6725   -0.4623   -1.5653 H   0  0  0  0  0  0  0  0  0  0  0  0
   -0.3571    1.8300    0.8931 H   0  0  0  0  0  0  0  0  0  0  0  0
   -1.9601    1.4554    1.5826 H   0  0  0  0  0  0  0  0  0  0  0  0
   -1.7435    2.9085    0.5781 H   0  0  0  0  0  0  0  0  0  0  0  0
  1  2  1  0
  1  4  1  0
  2  3  2  3
  3  5  1  0
  3 16  1  0
  6  7  1  0
  6 11  1  0
  6 12  1  0
  6 13  1  0
  7  8  1  0
  7 14  1  0
  7 15  1  0
  8  9  1  0
  8 17  1  0
  9 10  1  0
 10 18  1  0
 10 19  1  0
 10 20  1  0
M  RAD  1   8   2
M  END
>  <reaction>  (12) 
rmg_rxn_15524

>  <mol_properties>  (12) 
{"1": {"label": "*4", "atom_type": "N3d"}, "2": {"label": "*3", "atom_type": "Cd"}, "7": {"label": "*1", "atom_type": "Cs"}, "8": {"label": "*0", "atom_type": "O2s"}, "15": {"label": "*2", "atom_type": "H0"}}

>  <type>  (12) 
unop_8

>  <geom_source>  (12) 
Heuristics

$$$$

     RDKit          3D

 20 18  0  0  0  0  0  0  0  0999 V2000
    0.3956    0.8442    3.4871 O   0  0  0  0  0  0  0  0  0  0  0  0
    0.9313    0.5902    2.2399 N   0  0  0  0  0  0  0  0  0  0  0  0
    0.3542   -0.3747    1.6659 C   0  0  0  0  0  0  0  0  0  0  0  0
    0.9153    1.5849    3.8053 H   0  0  0  0  0  0  0  0  0  0  0  0
   -0.4660   -0.9238    2.1235 H   0  0  0  0  0  0  0  0  0  0  0  0
    0.1714   -1.6395   -3.0618 C   0  0  0  0  0  0  0  0  0  0  0  0
    0.1714   -1.6395   -1.5389 C   0  0  0  0  0  0  0  0  0  0  0  0
    0.1714   -0.2469   -0.9428 C   0  0  0  0  0  3  0  0  0  0  0  0
   -1.0136    0.4165   -1.3070 O   0  0  0  0  0  0  0  0  0  0  0  0
   -1.0744    1.7276   -0.8218 C   0  0  0  0  0  0  0  0  0  0  0  0
    1.0538   -1.1258   -3.4515 H   0  0  0  0  0  0  0  0  0  0  0  0
   -0.7110   -1.1296   -3.4482 H   0  0  0  0  0  0  0  0  0  0  0  0
    0.1763   -2.6575   -3.4541 H   0  0  0  0  0  0  0  0  0  0  0  0
   -0.7027   -2.1777   -1.1632 H   0  0  0  0  0  0  0  0  0  0  0  0
    1.0531   -2.1656   -1.1626 H   0  0  0  0  0  0  0  0  0  0  0  0
    0.2636   -0.3114    0.3725 H   0  0  0  0  0  0  0  0  0  0  0  0
    1.0438    0.3201   -1.3050 H   0  0  0  0  0  0  0  0  0  0  0  0
   -0.2505    2.3402   -1.2124 H   0  0  0  0  0  0  0  0  0  0  0  0
   -1.0324    1.7537    0.2757 H   0  0  0  0  0  0  0  0  0  0  0  0
   -2.0201    2.1578   -1.1489 H   0  0  0  0  0  0  0  0  0  0  0  0
  1  2  1  0
  1  4  1  0
  2  3  2  3
  3  5  1  0
  3 16  1  0
  6  7  1  0
  6 11  1  0
  6 12  1  0
  6 13  1  0
  7  8  1  0
  7 14  1  0
  7 15  1  0
  8  9  1  0
  8 17  1  0
  9 10  1  0
 10 18  1  0
 10 19  1  0
 10 20  1  0
M  RAD  1   8   2
M  END
>  <reaction>  (13) 
rmg_rxn_15524

>  <mol_properties>  (13) 
{"1": {"label": "*4", "atom_type": "N3d"}, "2": {"label": "*3", "atom_type": "Cd"}, "7": {"label": "*1", "atom_type": "Cs"}, "8": {"label": "*0", "atom_type": "O2s"}, "15": {"label": "*2", "atom_type": "H0"}}

>  <type>  (13) 
unop_9

>  <geom_source>  (13) 
Heuristics

$$$$

     RDKit          3D

 20 18  0  0  0  0  0  0  0  0999 V2000
   -0.4646   -0.0878    3.5097 O   0  0  0  0  0  0  0  0  0  0  0  0
   -0.2155   -0.6192    2.2596 N   0  0  0  0  0  0  0  0  0  0  0  0
    0.7053    0.0005    1.6583 C   0  0  0  0  0  0  0  0  0  0  0  0
   -1.1707   -0.6411    3.8494 H   0  0  0  0  0  0  0  0  0  0  0  0
    1.2244    0.8499    2.0971 H   0  0  0  0  0  0  0  0  0  0  0  0
    0.5224   -1.2643   -3.0694 C   0  0  0  0  0  0  0  0  0  0  0  0
    0.5224   -1.2643   -1.5465 C   0  0  0  0  0  0  0  0  0  0  0  0
    0.5224    0.1283   -0.9504 C   0  0  0  0  0  3  0  0  0  0  0  0
   -0.6626    0.7918   -1.3146 O   0  0  0  0  0  0  0  0  0  0  0  0
   -0.7234    2.1029   -0.8294 C   0  0  0  0  0  0  0  0  0  0  0  0
    1.4048   -0.7506   -3.4591 H   0  0  0  0  0  0  0  0  0  0  0  0
   -0.3600   -0.7544   -3.4558 H   0  0  0  0  0  0  0  0  0  0  0  0
    0.5274   -2.2822   -3.4617 H   0  0  0  0  0  0  0  0  0  0  0  0
   -0.3517   -1.8024   -1.1709 H   0  0  0  0  0  0  0  0  0  0  0  0
    1.4042   -1.7904   -1.1702 H   0  0  0  0  0  0  0  0  0  0  0  0
    0.6146    0.0639    0.3648 H   0  0  0  0  0  0  0  0  0  0  0  0
    1.3948    0.6954   -1.3126 H   0  0  0  0  0  0  0  0  0  0  0  0
    0.1005    2.7154   -1.2200 H   0  0  0  0  0  0  0  0  0  0  0  0
   -0.6814    2.1290    0.2681 H   0  0  0  0  0  0  0  0  0  0  0  0
   -1.6691    2.5330   -1.1565 H   0  0  0  0  0  0  0  0  0  0  0  0
  1  2  1  0
  1  4  1  0
  2  3  2  3
  3  5  1  0
  3 16  1  0
  6  7  1  0
  6 11  1  0
  6 12  1  0
  6 13  1  0
  7  8  1  0
  7 14  1  0
  7 15  1  0
  8  9  1  0
  8 17  1  0
  9 10  1  0
 10 18  1  0
 10 19  1  0
 10 20  1  0
M  RAD  1   8   2
M  END
>  <reaction>  (14) 
rmg_rxn_15524

>  <mol_properties>  (14) 
{"1": {"label": "*4", "atom_type": "N3d"}, "2": {"label": "*3", "atom_type": "Cd"}, "7": {"label": "*1", "atom_type": "Cs"}, "8": {"label": "*0", "atom_type": "O2s"}, "15": {"label": "*2", "atom_type": "H0"}}

>  <type>  (14) 
unop_10

>  <geom_source>  (14) 
Heuristics

$$$$

     RDKit          3D

 20 18  0  0  0  0  0  0  0  0999 V2000
    3.3398    0.1635    0.2370 O   0  0  0  0  0  0  0  0  0  0  0  0
    1.9276    0.0665    0.2120 N   0  0  0  0  0  0  0  0  0  0  0  0
    1.3425    0.1253   -0.8812 C   0  0  0  0  0  0  0  0  0  0  0  0
    3.5687    0.0856    1.1728 H   0  0  0  0  0  0  0  0  0  0  0  0
    1.7757    0.2501   -1.8672 H   0  0  0  0  0  0  0  0  0  0  0  0
   -1.0142   -2.4513    0.1293 C   0  0  0  0  0  0  0  0  0  0  0  0
   -1.4467   -1.0473    0.5321 C   0  0  0  0  0  0  0  0  0  0  0  0
   -1.2835   -0.0786   -0.6201 C   0  0  0  0  0  3  0  0  0  0  0  0
   -1.7658    1.2122   -0.4732 O   0  0  0  0  0  0  0  0  0  0  0  0
   -1.4127    1.8830    0.7137 C   0  0  0  0  0  0  0  0  0  0  0  0
   -1.1497   -3.1400    0.9592 H   0  0  0  0  0  0  0  0  0  0  0  0
    0.0355   -2.4541   -0.1531 H   0  0  0  0  0  0  0  0  0  0  0  0
   -1.6007   -2.8087   -0.7140 H   0  0  0  0  0  0  0  0  0  0  0  0
   -2.4974   -1.0626    0.8480 H   0  0  0  0  0  0  0  0  0  0  0  0
   -0.8442   -0.7185    1.3817 H   0  0  0  0  0  0  0  0  0  0  0  0
    0.0582    0.0149   -0.7989 H   0  0  0  0  0  0  0  0  0  0  0  0
   -1.6787   -0.4539   -1.5637 H   0  0  0  0  0  0  0  0  0  0  0  0
   -0.3335    1.8276    0.8878 H   0  0  0  0  0  0  0  0  0  0  0  0
   -1.9394    1.4731    1.5811 H   0  0  0  0  0  0  0  0  0  0  0  0
   -1.7079    2.9215    0.5733 H   0  0  0  0  0  0  0  0  0  0  0  0
  1  2  1  0
  1  4  1  0
  2  3  2  3
  3  5  1  0
  3 16  1  0
  6  7  1  0
  6 11  1  0
  6 12  1  0
  6 13  1  0
  7  8  1  0
  7 14  1  0
  7 15  1  0
  8  9  1  0
  8 17  1  0
  9 10  1  0
 10 18  1  0
 10 19  1  0
 10 20  1  0
M  RAD  1   8   2
M  END
>  <reaction>  (15) 
rmg_rxn_15524

>  <mol_properties>  (15) 
{"1": {"label": "*4", "atom_type": "N3d"}, "2": {"label": "*3", "atom_type": "Cd"}, "7": {"label": "*1", "atom_type": "Cs"}, "8": {"label": "*0", "atom_type": "O2s"}, "15": {"label": "*2", "atom_type": "H0"}}

>  <type>  (15) 
unop_11

>  <geom_source>  (15) 
Heuristics

$$$$

     RDKit          3D

 20 18  0  0  0  0  0  0  0  0999 V2000
    0.5179    0.5752    3.6221 O   0  0  0  0  0  0  0  0  0  0  0  0
    0.4189    0.7538    2.2564 N   0  0  0  0  0  0  0  0  0  0  0  0
    0.4086   -0.3456    1.6361 C   0  0  0  0  0  0  0  0  0  0  0  0
    0.5150    1.4714    3.9640 H   0  0  0  0  0  0  0  0  0  0  0  0
    0.4716   -1.3059    2.1433 H   0  0  0  0  0  0  0  0  0  0  0  0
    0.2257   -1.6103   -3.0916 C   0  0  0  0  0  0  0  0  0  0  0  0
    0.2257   -1.6103   -1.5687 C   0  0  0  0  0  0  0  0  0  0  0  0
    0.2257   -0.2177   -0.9727 C   0  0  0  0  0  3  0  0  0  0  0  0
   -0.9593    0.4457   -1.3368 O   0  0  0  0  0  0  0  0  0  0  0  0
   -1.0201    1.7568   -0.8516 C   0  0  0  0  0  0  0  0  0  0  0  0
    1.1081   -1.0967   -3.4813 H   0  0  0  0  0  0  0  0  0  0  0  0
   -0.6567   -1.1004   -3.4780 H   0  0  0  0  0  0  0  0  0  0  0  0
    0.2307   -2.6283   -3.4839 H   0  0  0  0  0  0  0  0  0  0  0  0
   -0.6484   -2.1485   -1.1931 H   0  0  0  0  0  0  0  0  0  0  0  0
    1.1075   -2.1365   -1.1925 H   0  0  0  0  0  0  0  0  0  0  0  0
    0.3179   -0.2822    0.3426 H   0  0  0  0  0  0  0  0  0  0  0  0
    1.0981    0.3493   -1.3349 H   0  0  0  0  0  0  0  0  0  0  0  0
   -0.1962    2.3694   -1.2423 H   0  0  0  0  0  0  0  0  0  0  0  0
   -0.9781    1.7829    0.2458 H   0  0  0  0  0  0  0  0  0  0  0  0
   -1.9658    2.1869   -1.1788 H   0  0  0  0  0  0  0  0  0  0  0  0
  1  2  1  0
  1  4  1  0
  2  3  2  3
  3  5  1  0
  3 16  1  0
  6  7  1  0
  6 11  1  0
  6 12  1  0
  6 13  1  0
  7  8  1  0
  7 14  1  0
  7 15  1  0
  8  9  1  0
  8 17  1  0
  9 10  1  0
 10 18  1  0
 10 19  1  0
 10 20  1  0
M  RAD  1   8   2
M  END
>  <reaction>  (16) 
rmg_rxn_15524

>  <mol_properties>  (16) 
{"1": {"label": "*4", "atom_type": "N3d"}, "2": {"label": "*3", "atom_type": "Cd"}, "7": {"label": "*1", "atom_type": "Cs"}, "8": {"label": "*0", "atom_type": "O2s"}, "15": {"label": "*2", "atom_type": "H0"}}

>  <type>  (16) 
unop_12

>  <geom_source>  (16) 
Heuristics

$$$$

     RDKit          3D

 20 18  0  0  0  0  0  0  0  0999 V2000
    3.3397    0.1603    0.2371 O   0  0  0  0  0  0  0  0  0  0  0  0
    1.9269    0.0725    0.2124 N   0  0  0  0  0  0  0  0  0  0  0  0
    1.3432    0.1158   -0.8823 C   0  0  0  0  0  0  0  0  0  0  0  0
    3.5673    0.0978    1.1745 H   0  0  0  0  0  0  0  0  0  0  0  0
    1.7784    0.2199   -1.8699 H   0  0  0  0  0  0  0  0  0  0  0  0
   -1.0189   -2.4505    0.1320 C   0  0  0  0  0  0  0  0  0  0  0  0
   -1.4476   -1.0450    0.5335 C   0  0  0  0  0  0  0  0  0  0  0  0
   -1.2834   -0.0782   -0.6201 C   0  0  0  0  0  3  0  0  0  0  0  0
   -1.7632    1.2136   -0.4748 O   0  0  0  0  0  0  0  0  0  0  0  0
   -1.4098    1.8849    0.7118 C   0  0  0  0  0  0  0  0  0  0  0  0
   -1.6074   -2.8078   -0.7099 H   0  0  0  0  0  0  0  0  0  0  0  0
   -1.1546   -3.1378    0.9630 H   0  0  0  0  0  0  0  0  0  0  0  0
    0.0304   -2.4561   -0.1521 H   0  0  0  0  0  0  0  0  0  0  0  0
   -2.4980   -1.0574    0.8507 H   0  0  0  0  0  0  0  0  0  0  0  0
   -0.8433   -0.7165    1.3820 H   0  0  0  0  0  0  0  0  0  0  0  0
    0.0584    0.0120   -0.7997 H   0  0  0  0  0  0  0  0  0  0  0  0
   -1.6798   -0.4541   -1.5631 H   0  0  0  0  0  0  0  0  0  0  0  0
   -1.7028    2.9239    0.5701 H   0  0  0  0  0  0  0  0  0  0  0  0
   -0.3309    1.8274    0.8870 H   0  0  0  0  0  0  0  0  0  0  0  0
   -1.9383    1.4769    1.5791 H   0  0  0  0  0  0  0  0  0  0  0  0
  1  2  1  0
  1  4  1  0
  2  3  2  3
  3  5  1  0
  3 16  1  0
  6  7  1  0
  6 11  1  0
  6 12  1  0
  6 13  1  0
  7  8  1  0
  7 14  1  0
  7 15  1  0
  8  9  1  0
  8 17  1  0
  9 10  1  0
 10 18  1  0
 10 19  1  0
 10 20  1  0
M  RAD  1   8   2
M  END
>  <reaction>  (17) 
rmg_rxn_15524

>  <mol_properties>  (17) 
{"1": {"label": "*4", "atom_type": "N3d"}, "2": {"label": "*3", "atom_type": "Cd"}, "7": {"label": "*1", "atom_type": "Cs"}, "8": {"label": "*0", "atom_type": "O2s"}, "15": {"label": "*2", "atom_type": "H0"}}

>  <type>  (17) 
unop_13

>  <geom_source>  (17) 
Heuristics

$$$$

     RDKit          3D

 20 18  0  0  0  0  0  0  0  0999 V2000
   -3.3377   -0.1628    0.2376 O   0  0  0  0  0  0  0  0  0  0  0  0
   -1.9251   -0.0726    0.2115 N   0  0  0  0  0  0  0  0  0  0  0  0
   -1.3419   -0.1189   -0.8833 C   0  0  0  0  0  0  0  0  0  0  0  0
   -3.5647   -0.0969    1.1748 H   0  0  0  0  0  0  0  0  0  0  0  0
   -1.7772   -0.2272   -1.8704 H   0  0  0  0  0  0  0  0  0  0  0  0
    1.0128    2.4509    0.1315 C   0  0  0  0  0  0  0  0  0  0  0  0
    1.4451    1.0467    0.5336 C   0  0  0  0  0  0  0  0  0  0  0  0
    1.2843    0.0792   -0.6200 C   0  0  0  0  0  3  0  0  0  0  0  0
    1.7656   -1.2119   -0.4735 O   0  0  0  0  0  0  0  0  0  0  0  0
    1.4099   -1.8839    0.7120 C   0  0  0  0  0  0  0  0  0  0  0  0
    1.1468    3.1389    0.9623 H   0  0  0  0  0  0  0  0  0  0  0  0
   -0.0365    2.4537   -0.1524 H   0  0  0  0  0  0  0  0  0  0  0  0
    1.6003    2.8094   -0.7105 H   0  0  0  0  0  0  0  0  0  0  0  0
    2.4952    1.0620    0.8515 H   0  0  0  0  0  0  0  0  0  0  0  0
    0.8411    0.7166    1.3816 H   0  0  0  0  0  0  0  0  0  0  0  0
   -0.0572   -0.0130   -0.8012 H   0  0  0  0  0  0  0  0  0  0  0  0
    1.6816    0.4554   -1.5624 H   0  0  0  0  0  0  0  0  0  0  0  0
    0.3304   -1.8282    0.8841 H   0  0  0  0  0  0  0  0  0  0  0  0
    1.9352   -1.4751    1.5809 H   0  0  0  0  0  0  0  0  0  0  0  0
    1.7050   -2.9224    0.5711 H   0  0  0  0  0  0  0  0  0  0  0  0
  1  2  1  0
  1  4  1  0
  2  3  2  3
  3  5  1  0
  3 16  1  0
  6  7  1  0
  6 11  1  0
  6 12  1  0
  6 13  1  0
  7  8  1  0
  7 14  1  0
  7 15  1  0
  8  9  1  0
  8 17  1  0
  9 10  1  0
 10 18  1  0
 10 19  1  0
 10 20  1  0
M  RAD  1   8   2
M  END
>  <reaction>  (18) 
rmg_rxn_15524

>  <mol_properties>  (18) 
{"1": {"label": "*4", "atom_type": "N3d"}, "2": {"label": "*3", "atom_type": "Cd"}, "7": {"label": "*1", "atom_type": "Cs"}, "8": {"label": "*0", "atom_type": "O2s"}, "15": {"label": "*2", "atom_type": "H0"}}

>  <type>  (18) 
unop_14

>  <geom_source>  (18) 
Heuristics

$$$$

     RDKit          3D

 20 18  0  0  0  0  0  0  0  0999 V2000
   -0.3509    0.5359    3.4441 O   0  0  0  0  0  0  0  0  0  0  0  0
   -0.3787   -0.2442    2.3049 N   0  0  0  0  0  0  0  0  0  0  0  0
    0.7075   -0.1836    1.6646 C   0  0  0  0  0  0  0  0  0  0  0  0
   -1.2197    0.4004    3.8272 H   0  0  0  0  0  0  0  0  0  0  0  0
    1.5500    0.4204    1.9946 H   0  0  0  0  0  0  0  0  0  0  0  0
    0.5246   -1.4483   -3.0631 C   0  0  0  0  0  0  0  0  0  0  0  0
    0.5246   -1.4483   -1.5402 C   0  0  0  0  0  0  0  0  0  0  0  0
    0.5246   -0.0558   -0.9441 C   0  0  0  0  0  3  0  0  0  0  0  0
   -0.6604    0.6077   -1.3083 O   0  0  0  0  0  0  0  0  0  0  0  0
   -0.7212    1.9188   -0.8231 C   0  0  0  0  0  0  0  0  0  0  0  0
    1.4070   -0.9347   -3.4528 H   0  0  0  0  0  0  0  0  0  0  0  0
   -0.3578   -0.9384   -3.4495 H   0  0  0  0  0  0  0  0  0  0  0  0
    0.5295   -2.4663   -3.4554 H   0  0  0  0  0  0  0  0  0  0  0  0
   -0.3495   -1.9865   -1.1646 H   0  0  0  0  0  0  0  0  0  0  0  0
    1.4063   -1.9745   -1.1639 H   0  0  0  0  0  0  0  0  0  0  0  0
    0.6168   -0.1202    0.3711 H   0  0  0  0  0  0  0  0  0  0  0  0
    1.3970    0.5113   -1.3063 H   0  0  0  0  0  0  0  0  0  0  0  0
    0.1027    2.5314   -1.2137 H   0  0  0  0  0  0  0  0  0  0  0  0
   -0.6792    1.9449    0.2744 H   0  0  0  0  0  0  0  0  0  0  0  0
   -1.6669    2.3489   -1.1502 H   0  0  0  0  0  0  0  0  0  0  0  0
  1  2  1  0
  1  4  1  0
  2  3  2  3
  3  5  1  0
  3 16  1  0
  6  7  1  0
  6 11  1  0
  6 12  1  0
  6 13  1  0
  7  8  1  0
  7 14  1  0
  7 15  1  0
  8  9  1  0
  8 17  1  0
  9 10  1  0
 10 18  1  0
 10 19  1  0
 10 20  1  0
M  RAD  1   8   2
M  END
>  <reaction>  (19) 
rmg_rxn_15524

>  <mol_properties>  (19) 
{"1": {"label": "*4", "atom_type": "N3d"}, "2": {"label": "*3", "atom_type": "Cd"}, "7": {"label": "*1", "atom_type": "Cs"}, "8": {"label": "*0", "atom_type": "O2s"}, "15": {"label": "*2", "atom_type": "H0"}}

>  <type>  (19) 
unop_15

>  <geom_source>  (19) 
Heuristics

$$$$

     RDKit          3D

 20 18  0  0  0  0  0  0  0  0999 V2000
   -3.3367   -0.1722    0.2372 O   0  0  0  0  0  0  0  0  0  0  0  0
   -1.9243   -0.0793    0.2117 N   0  0  0  0  0  0  0  0  0  0  0  0
   -1.3404   -0.1287   -0.8827 C   0  0  0  0  0  0  0  0  0  0  0  0
   -3.5644   -0.1033    1.1741 H   0  0  0  0  0  0  0  0  0  0  0  0
   -1.7750   -0.2417   -1.8695 H   0  0  0  0  0  0  0  0  0  0  0  0
    0.9910    2.4526    0.1308 C   0  0  0  0  0  0  0  0  0  0  0  0
    1.4401    1.0534    0.5321 C   0  0  0  0  0  0  0  0  0  0  0  0
    1.2848    0.0835   -0.6201 C   0  0  0  0  0  3  0  0  0  0  0  0
    1.7746   -1.2043   -0.4727 O   0  0  0  0  0  0  0  0  0  0  0  0
    1.4235   -1.8779    0.7132 C   0  0  0  0  0  0  0  0  0  0  0  0
    1.1222    3.1428    0.9602 H   0  0  0  0  0  0  0  0  0  0  0  0
   -0.0598    2.4442   -0.1477 H   0  0  0  0  0  0  0  0  0  0  0  0
    1.5705    2.8163   -0.7147 H   0  0  0  0  0  0  0  0  0  0  0  0
    2.4912    1.0800    0.8457 H   0  0  0  0  0  0  0  0  0  0  0  0
    0.8429    0.7177    1.3827 H   0  0  0  0  0  0  0  0  0  0  0  0
   -0.0562   -0.0174   -0.8004 H   0  0  0  0  0  0  0  0  0  0  0  0
    1.6790    0.4612   -1.5633 H   0  0  0  0  0  0  0  0  0  0  0  0
    1.7257   -2.9144    0.5730 H   0  0  0  0  0  0  0  0  0  0  0  0
    0.3436   -1.8296    0.8851 H   0  0  0  0  0  0  0  0  0  0  0  0
    1.9458   -1.4650    1.5819 H   0  0  0  0  0  0  0  0  0  0  0  0
  1  2  1  0
  1  4  1  0
  2  3  2  3
  3  5  1  0
  3 16  1  0
  6  7  1  0
  6 11  1  0
  6 12  1  0
  6 13  1  0
  7  8  1  0
  7 14  1  0
  7 15  1  0
  8  9  1  0
  8 17  1  0
  9 10  1  0
 10 18  1  0
 10 19  1  0
 10 20  1  0
M  RAD  1   8   2
M  END
>  <reaction>  (20) 
rmg_rxn_15524

>  <mol_properties>  (20) 
{"1": {"label": "*4", "atom_type": "N3d"}, "2": {"label": "*3", "atom_type": "Cd"}, "7": {"label": "*1", "atom_type": "Cs"}, "8": {"label": "*0", "atom_type": "O2s"}, "15": {"label": "*2", "atom_type": "H0"}}

>  <type>  (20) 
unop_16

>  <geom_source>  (20) 
Heuristics

$$$$

     RDKit          3D

 20 18  0  0  0  0  0  0  0  0999 V2000
    0.1115    0.9129    3.4074 O   0  0  0  0  0  0  0  0  0  0  0  0
   -0.3418    0.1817    2.3272 N   0  0  0  0  0  0  0  0  0  0  0  0
    0.6082   -0.3256    1.6686 C   0  0  0  0  0  0  0  0  0  0  0  0
   -0.6963    1.2356    3.8117 H   0  0  0  0  0  0  0  0  0  0  0  0
    1.6519   -0.1866    1.9426 H   0  0  0  0  0  0  0  0  0  0  0  0
    0.4254   -1.5904   -3.0591 C   0  0  0  0  0  0  0  0  0  0  0  0
    0.4254   -1.5904   -1.5362 C   0  0  0  0  0  0  0  0  0  0  0  0
    0.4254   -0.1978   -0.9401 C   0  0  0  0  0  3  0  0  0  0  0  0
   -0.7597    0.4657   -1.3043 O   0  0  0  0  0  0  0  0  0  0  0  0
   -0.8205    1.7768   -0.8191 C   0  0  0  0  0  0  0  0  0  0  0  0
    1.3078   -1.0767   -3.4488 H   0  0  0  0  0  0  0  0  0  0  0  0
   -0.4571   -1.0805   -3.4455 H   0  0  0  0  0  0  0  0  0  0  0  0
    0.4303   -2.6084   -3.4514 H   0  0  0  0  0  0  0  0  0  0  0  0
   -0.4487   -2.1285   -1.1606 H   0  0  0  0  0  0  0  0  0  0  0  0
    1.3071   -2.1165   -1.1599 H   0  0  0  0  0  0  0  0  0  0  0  0
    0.5176   -0.2622    0.3751 H   0  0  0  0  0  0  0  0  0  0  0  0
    1.2977    0.3692   -1.3023 H   0  0  0  0  0  0  0  0  0  0  0  0
    0.0034    2.3893   -1.2098 H   0  0  0  0  0  0  0  0  0  0  0  0
   -0.7785    1.8029    0.2784 H   0  0  0  0  0  0  0  0  0  0  0  0
   -1.7661    2.2069   -1.1463 H   0  0  0  0  0  0  0  0  0  0  0  0
  1  2  1  0
  1  4  1  0
  2  3  2  3
  3  5  1  0
  3 16  1  0
  6  7  1  0
  6 11  1  0
  6 12  1  0
  6 13  1  0
  7  8  1  0
  7 14  1  0
  7 15  1  0
  8  9  1  0
  8 17  1  0
  9 10  1  0
 10 18  1  0
 10 19  1  0
 10 20  1  0
M  RAD  1   8   2
M  END
>  <reaction>  (21) 
rmg_rxn_15524

>  <mol_properties>  (21) 
{"1": {"label": "*4", "atom_type": "N3d"}, "2": {"label": "*3", "atom_type": "Cd"}, "7": {"label": "*1", "atom_type": "Cs"}, "8": {"label": "*0", "atom_type": "O2s"}, "15": {"label": "*2", "atom_type": "H0"}}

>  <type>  (21) 
unop_17

>  <geom_source>  (21) 
Heuristics

$$$$

     RDKit          3D

 20 18  0  0  0  0  0  0  0  0999 V2000
    3.3393    0.1797    0.2375 O   0  0  0  0  0  0  0  0  0  0  0  0
    1.9278    0.0745    0.2115 N   0  0  0  0  0  0  0  0  0  0  0  0
    1.3413    0.1491   -0.8800 C   0  0  0  0  0  0  0  0  0  0  0  0
    3.5694    0.0862    1.1717 H   0  0  0  0  0  0  0  0  0  0  0  0
    1.7724    0.2938   -1.8642 H   0  0  0  0  0  0  0  0  0  0  0  0
   -0.9818   -2.4557    0.1249 C   0  0  0  0  0  0  0  0  0  0  0  0
   -1.4319   -1.0581    0.5306 C   0  0  0  0  0  0  0  0  0  0  0  0
   -1.2823   -0.0857   -0.6202 C   0  0  0  0  0  3  0  0  0  0  0  0
   -1.7827    1.1980   -0.4717 O   0  0  0  0  0  0  0  0  0  0  0  0
   -1.4411    1.8716    0.7168 C   0  0  0  0  0  0  0  0  0  0  0  0
    0.0665   -2.4437   -0.1628 H   0  0  0  0  0  0  0  0  0  0  0  0
   -1.5675   -2.8210   -0.7156 H   0  0  0  0  0  0  0  0  0  0  0  0
   -1.1034   -3.1467    0.9552 H   0  0  0  0  0  0  0  0  0  0  0  0
   -2.4819   -1.0874    0.8477 H   0  0  0  0  0  0  0  0  0  0  0  0
   -0.8326   -0.7231    1.3800 H   0  0  0  0  0  0  0  0  0  0  0  0
    0.0580    0.0262   -0.7985 H   0  0  0  0  0  0  0  0  0  0  0  0
   -1.6719   -0.4651   -1.5645 H   0  0  0  0  0  0  0  0  0  0  0  0
   -0.3614    1.8314    0.8926 H   0  0  0  0  0  0  0  0  0  0  0  0
   -1.9631    1.4526    1.5828 H   0  0  0  0  0  0  0  0  0  0  0  0
   -1.7508    2.9060    0.5780 H   0  0  0  0  0  0  0  0  0  0  0  0
  1  2  1  0
  1  4  1  0
  2  3  2  3
  3  5  1  0
  3 16  1  0
  6  7  1  0
  6 11  1  0
  6 12  1  0
  6 13  1  0
  7  8  1  0
  7 14  1  0
  7 15  1  0
  8  9  1  0
  8 17  1  0
  9 10  1  0
 10 18  1  0
 10 19  1  0
 10 20  1  0
M  RAD  1   8   2
M  END
>  <reaction>  (22) 
rmg_rxn_15524

>  <mol_properties>  (22) 
{"1": {"label": "*4", "atom_type": "N3d"}, "2": {"label": "*3", "atom_type": "Cd"}, "7": {"label": "*1", "atom_type": "Cs"}, "8": {"label": "*0", "atom_type": "O2s"}, "15": {"label": "*2", "atom_type": "H0"}}

>  <type>  (22) 
unop_18

>  <geom_source>  (22) 
Heuristics

$$$$

     RDKit          3D

 20 18  0  0  0  0  0  0  0  0999 V2000
    1.3550    0.5860    3.3270 O   0  0  0  0  0  0  0  0  0  0  0  0
    1.2726   -0.1957    2.1915 N   0  0  0  0  0  0  0  0  0  0  0  0
    0.1075   -0.2012    1.7058 C   0  0  0  0  0  0  0  0  0  0  0  0
    2.2744    0.5031    3.5873 H   0  0  0  0  0  0  0  0  0  0  0  0
   -0.7160    0.3538    2.1502 H   0  0  0  0  0  0  0  0  0  0  0  0
   -0.0754   -1.4660   -3.0219 C   0  0  0  0  0  0  0  0  0  0  0  0
   -0.0754   -1.4660   -1.4990 C   0  0  0  0  0  0  0  0  0  0  0  0
   -0.0754   -0.0734   -0.9029 C   0  0  0  0  0  3  0  0  0  0  0  0
   -1.2604    0.5901   -1.2671 O   0  0  0  0  0  0  0  0  0  0  0  0
   -1.3212    1.9012   -0.7819 C   0  0  0  0  0  0  0  0  0  0  0  0
    0.8070   -0.9523   -3.4116 H   0  0  0  0  0  0  0  0  0  0  0  0
   -0.9578   -0.9561   -3.4083 H   0  0  0  0  0  0  0  0  0  0  0  0
   -0.0705   -2.4840   -3.4142 H   0  0  0  0  0  0  0  0  0  0  0  0
   -0.9495   -2.0041   -1.1234 H   0  0  0  0  0  0  0  0  0  0  0  0
    0.8063   -1.9921   -1.1227 H   0  0  0  0  0  0  0  0  0  0  0  0
    0.0168   -0.1378    0.4123 H   0  0  0  0  0  0  0  0  0  0  0  0
    0.7970    0.4936   -1.2651 H   0  0  0  0  0  0  0  0  0  0  0  0
   -0.4973    2.5137   -1.1726 H   0  0  0  0  0  0  0  0  0  0  0  0
   -1.2792    1.9273    0.3156 H   0  0  0  0  0  0  0  0  0  0  0  0
   -2.2669    2.3313   -1.1091 H   0  0  0  0  0  0  0  0  0  0  0  0
  1  2  1  0
  1  4  1  0
  2  3  2  3
  3  5  1  0
  3 16  1  0
  6  7  1  0
  6 11  1  0
  6 12  1  0
  6 13  1  0
  7  8  1  0
  7 14  1  0
  7 15  1  0
  8  9  1  0
  8 17  1  0
  9 10  1  0
 10 18  1  0
 10 19  1  0
 10 20  1  0
M  RAD  1   8   2
M  END
>  <reaction>  (23) 
rmg_rxn_15524

>  <mol_properties>  (23) 
{"1": {"label": "*4", "atom_type": "N3d"}, "2": {"label": "*3", "atom_type": "Cd"}, "7": {"label": "*1", "atom_type": "Cs"}, "8": {"label": "*0", "atom_type": "O2s"}, "15": {"label": "*2", "atom_type": "H0"}}

>  <type>  (23) 
unop_19

>  <geom_source>  (23) 
Heuristics

$$$$

     RDKit          3D

 20 18  0  0  0  0  0  0  0  0999 V2000
   -3.3388   -0.1674    0.2374 O   0  0  0  0  0  0  0  0  0  0  0  0
   -1.9266   -0.0721    0.2118 N   0  0  0  0  0  0  0  0  0  0  0  0
   -1.3421   -0.1276   -0.8819 C   0  0  0  0  0  0  0  0  0  0  0  0
   -3.5670   -0.0925    1.1737 H   0  0  0  0  0  0  0  0  0  0  0  0
   -1.7759   -0.2490   -1.8681 H   0  0  0  0  0  0  0  0  0  0  0  0
    1.0049    2.4522    0.1296 C   0  0  0  0  0  0  0  0  0  0  0  0
    1.4428    1.0498    0.5322 C   0  0  0  0  0  0  0  0  0  0  0  0
    1.2835    0.0807   -0.6202 C   0  0  0  0  0  3  0  0  0  0  0  0
    1.7698   -1.2085   -0.4732 O   0  0  0  0  0  0  0  0  0  0  0  0
    1.4192   -1.8803    0.7138 C   0  0  0  0  0  0  0  0  0  0  0  0
    1.5910    2.8128   -0.7126 H   0  0  0  0  0  0  0  0  0  0  0  0
    1.1361    3.1410    0.9601 H   0  0  0  0  0  0  0  0  0  0  0  0
   -0.0445    2.4507   -0.1544 H   0  0  0  0  0  0  0  0  0  0  0  0
    2.4933    1.0691    0.8484 H   0  0  0  0  0  0  0  0  0  0  0  0
    0.8412    0.7186    1.3815 H   0  0  0  0  0  0  0  0  0  0  0  0
   -0.0579   -0.0168   -0.7996 H   0  0  0  0  0  0  0  0  0  0  0  0
    1.6780    0.4575   -1.5636 H   0  0  0  0  0  0  0  0  0  0  0  0
    1.9449   -1.4686    1.5810 H   0  0  0  0  0  0  0  0  0  0  0  0
    1.7177   -2.9179    0.5735 H   0  0  0  0  0  0  0  0  0  0  0  0
    0.3399   -1.8284    0.8882 H   0  0  0  0  0  0  0  0  0  0  0  0
  1  2  1  0
  1  4  1  0
  2  3  2  3
  3  5  1  0
  3 16  1  0
  6  7  1  0
  6 11  1  0
  6 12  1  0
  6 13  1  0
  7  8  1  0
  7 14  1  0
  7 15  1  0
  8  9  1  0
  8 17  1  0
  9 10  1  0
 10 18  1  0
 10 19  1  0
 10 20  1  0
M  RAD  1   8   2
M  END
>  <reaction>  (24) 
rmg_rxn_15524

>  <mol_properties>  (24) 
{"1": {"label": "*4", "atom_type": "N3d"}, "2": {"label": "*3", "atom_type": "Cd"}, "7": {"label": "*1", "atom_type": "Cs"}, "8": {"label": "*0", "atom_type": "O2s"}, "15": {"label": "*2", "atom_type": "H0"}}

>  <type>  (24) 
unop_20

>  <geom_source>  (24) 
Heuristics

$$$$

     RDKit          3D

 20 18  0  0  0  0  0  0  0  0999 V2000
   -0.1221   -0.6685    3.5587 O   0  0  0  0  0  0  0  0  0  0  0  0
    0.0906   -0.8643    2.2084 N   0  0  0  0  0  0  0  0  0  0  0  0
    0.5887    0.1558    1.6563 C   0  0  0  0  0  0  0  0  0  0  0  0
   -0.4953   -1.5034    3.8480 H   0  0  0  0  0  0  0  0  0  0  0  0
    0.8138    1.0684    2.2042 H   0  0  0  0  0  0  0  0  0  0  0  0
    0.4059   -1.1089   -3.0714 C   0  0  0  0  0  0  0  0  0  0  0  0
    0.4059   -1.1089   -1.5485 C   0  0  0  0  0  0  0  0  0  0  0  0
    0.4059    0.2836   -0.9524 C   0  0  0  0  0  3  0  0  0  0  0  0
   -0.7792    0.9471   -1.3166 O   0  0  0  0  0  0  0  0  0  0  0  0
   -0.8399    2.2582   -0.8314 C   0  0  0  0  0  0  0  0  0  0  0  0
    1.2883   -0.5953   -3.4611 H   0  0  0  0  0  0  0  0  0  0  0  0
   -0.4766   -0.5990   -3.4578 H   0  0  0  0  0  0  0  0  0  0  0  0
    0.4108   -2.1269   -3.4637 H   0  0  0  0  0  0  0  0  0  0  0  0
   -0.4682   -1.6471   -1.1729 H   0  0  0  0  0  0  0  0  0  0  0  0
    1.2876   -1.6351   -1.1722 H   0  0  0  0  0  0  0  0  0  0  0  0
    0.4981    0.2192    0.3628 H   0  0  0  0  0  0  0  0  0  0  0  0
    1.2783    0.8507   -1.3146 H   0  0  0  0  0  0  0  0  0  0  0  0
   -0.0160    2.8708   -1.2220 H   0  0  0  0  0  0  0  0  0  0  0  0
   -0.7979    2.2843    0.2661 H   0  0  0  0  0  0  0  0  0  0  0  0
   -1.7856    2.6883   -1.1586 H   0  0  0  0  0  0  0  0  0  0  0  0
  1  2  1  0
  1  4  1  0
  2  3  2  3
  3  5  1  0
  3 16  1  0
  6  7  1  0
  6 11  1  0
  6 12  1  0
  6 13  1  0
  7  8  1  0
  7 14  1  0
  7 15  1  0
  8  9  1  0
  8 17  1  0
  9 10  1  0
 10 18  1  0
 10 19  1  0
 10 20  1  0
M  RAD  1   8   2
M  END
>  <reaction>  (25) 
rmg_rxn_15524

>  <mol_properties>  (25) 
{"1": {"label": "*4", "atom_type": "N3d"}, "2": {"label": "*3", "atom_type": "Cd"}, "7": {"label": "*1", "atom_type": "Cs"}, "8": {"label": "*0", "atom_type": "O2s"}, "15": {"label": "*2", "atom_type": "H0"}}

>  <type>  (25) 
unop_21

>  <geom_source>  (25) 
Heuristics

$$$$

     RDKit          3D

 20 18  0  0  0  0  0  0  0  0999 V2000
    1.5129   -0.0297    3.3739 O   0  0  0  0  0  0  0  0  0  0  0  0
    1.1269   -0.5798    2.1675 N   0  0  0  0  0  0  0  0  0  0  0  0
    0.0980   -0.0173    1.7000 C   0  0  0  0  0  0  0  0  0  0  0  0
    2.2899   -0.5394    3.6118 H   0  0  0  0  0  0  0  0  0  0  0  0
   -0.4051    0.8021    2.2090 H   0  0  0  0  0  0  0  0  0  0  0  0
   -0.0849   -1.2821   -3.0277 C   0  0  0  0  0  0  0  0  0  0  0  0
   -0.0849   -1.2821   -1.5048 C   0  0  0  0  0  0  0  0  0  0  0  0
   -0.0849    0.1105   -0.9087 C   0  0  0  0  0  3  0  0  0  0  0  0
   -1.2699    0.7739   -1.2729 O   0  0  0  0  0  0  0  0  0  0  0  0
   -1.3307    2.0850   -0.7877 C   0  0  0  0  0  0  0  0  0  0  0  0
    0.7975   -0.7684   -3.4174 H   0  0  0  0  0  0  0  0  0  0  0  0
   -0.9673   -0.7722   -3.4141 H   0  0  0  0  0  0  0  0  0  0  0  0
   -0.0800   -2.3001   -3.4200 H   0  0  0  0  0  0  0  0  0  0  0  0
   -0.9590   -1.8203   -1.1292 H   0  0  0  0  0  0  0  0  0  0  0  0
    0.7969   -1.8082   -1.1285 H   0  0  0  0  0  0  0  0  0  0  0  0
    0.0073    0.0460    0.4065 H   0  0  0  0  0  0  0  0  0  0  0  0
    0.7875    0.6775   -1.2709 H   0  0  0  0  0  0  0  0  0  0  0  0
   -0.5068    2.6976   -1.1783 H   0  0  0  0  0  0  0  0  0  0  0  0
   -1.2887    2.1111    0.3098 H   0  0  0  0  0  0  0  0  0  0  0  0
   -2.2764    2.5152   -1.1148 H   0  0  0  0  0  0  0  0  0  0  0  0
  1  2  1  0
  1  4  1  0
  2  3  2  3
  3  5  1  0
  3 16  1  0
  6  7  1  0
  6 11  1  0
  6 12  1  0
  6 13  1  0
  7  8  1  0
  7 14  1  0
  7 15  1  0
  8  9  1  0
  8 17  1  0
  9 10  1  0
 10 18  1  0
 10 19  1  0
 10 20  1  0
M  RAD  1   8   2
M  END
>  <reaction>  (26) 
rmg_rxn_15524

>  <mol_properties>  (26) 
{"1": {"label": "*4", "atom_type": "N3d"}, "2": {"label": "*3", "atom_type": "Cd"}, "7": {"label": "*1", "atom_type": "Cs"}, "8": {"label": "*0", "atom_type": "O2s"}, "15": {"label": "*2", "atom_type": "H0"}}

>  <type>  (26) 
unop_22

>  <geom_source>  (26) 
Heuristics

$$$$

     RDKit          3D

 20 18  0  0  0  0  0  0  0  0999 V2000
    0.6047    0.8503    3.4728 O   0  0  0  0  0  0  0  0  0  0  0  0
   -0.0805    0.5605    2.3094 N   0  0  0  0  0  0  0  0  0  0  0  0
    0.4681   -0.3714    1.6581 C   0  0  0  0  0  0  0  0  0  0  0  0
    0.0909    1.5607    3.8619 H   0  0  0  0  0  0  0  0  0  0  0  0
    1.3738   -0.8698    1.9971 H   0  0  0  0  0  0  0  0  0  0  0  0
    0.2852   -1.6362   -3.0696 C   0  0  0  0  0  0  0  0  0  0  0  0
    0.2852   -1.6362   -1.5467 C   0  0  0  0  0  0  0  0  0  0  0  0
    0.2852   -0.2436   -0.9506 C   0  0  0  0  0  3  0  0  0  0  0  0
   -0.8998    0.4199   -1.3148 O   0  0  0  0  0  0  0  0  0  0  0  0
   -0.9606    1.7310   -0.8296 C   0  0  0  0  0  0  0  0  0  0  0  0
    1.1676   -1.1225   -3.4593 H   0  0  0  0  0  0  0  0  0  0  0  0
   -0.5972   -1.1263   -3.4560 H   0  0  0  0  0  0  0  0  0  0  0  0
    0.2902   -2.6541   -3.4619 H   0  0  0  0  0  0  0  0  0  0  0  0
   -0.5889   -2.1743   -1.1711 H   0  0  0  0  0  0  0  0  0  0  0  0
    1.1670   -2.1623   -1.1704 H   0  0  0  0  0  0  0  0  0  0  0  0
    0.3774   -0.3080    0.3646 H   0  0  0  0  0  0  0  0  0  0  0  0
    1.1576    0.3235   -1.3128 H   0  0  0  0  0  0  0  0  0  0  0  0
   -0.1367    2.3435   -1.2202 H   0  0  0  0  0  0  0  0  0  0  0  0
   -0.9186    1.7571    0.2679 H   0  0  0  0  0  0  0  0  0  0  0  0
   -1.9063    2.1611   -1.1567 H   0  0  0  0  0  0  0  0  0  0  0  0
  1  2  1  0
  1  4  1  0
  2  3  2  3
  3  5  1  0
  3 16  1  0
  6  7  1  0
  6 11  1  0
  6 12  1  0
  6 13  1  0
  7  8  1  0
  7 14  1  0
  7 15  1  0
  8  9  1  0
  8 17  1  0
  9 10  1  0
 10 18  1  0
 10 19  1  0
 10 20  1  0
M  RAD  1   8   2
M  END
>  <reaction>  (27) 
rmg_rxn_15524

>  <mol_properties>  (27) 
{"1": {"label": "*4", "atom_type": "N3d"}, "2": {"label": "*3", "atom_type": "Cd"}, "7": {"label": "*1", "atom_type": "Cs"}, "8": {"label": "*0", "atom_type": "O2s"}, "15": {"label": "*2", "atom_type": "H0"}}

>  <type>  (27) 
unop_23

>  <geom_source>  (27) 
Heuristics

$$$$

     RDKit          3D

 20 18  0  0  0  0  0  0  0  0999 V2000
    0.5560   -0.8965    3.5474 O   0  0  0  0  0  0  0  0  0  0  0  0
    0.4628   -0.9408    2.1703 N   0  0  0  0  0  0  0  0  0  0  0  0
    0.3941    0.2138    1.6645 C   0  0  0  0  0  0  0  0  0  0  0  0
    0.6003   -1.8217    3.7967 H   0  0  0  0  0  0  0  0  0  0  0  0
    0.4088    1.1198    2.2666 H   0  0  0  0  0  0  0  0  0  0  0  0
    0.2112   -1.0510   -3.0632 C   0  0  0  0  0  0  0  0  0  0  0  0
    0.2112   -1.0510   -1.5403 C   0  0  0  0  0  0  0  0  0  0  0  0
    0.2112    0.3416   -0.9442 C   0  0  0  0  0  3  0  0  0  0  0  0
   -0.9738    1.0050   -1.3084 O   0  0  0  0  0  0  0  0  0  0  0  0
   -1.0346    2.3161   -0.8232 C   0  0  0  0  0  0  0  0  0  0  0  0
    1.0936   -0.5373   -3.4529 H   0  0  0  0  0  0  0  0  0  0  0  0
   -0.6712   -0.5411   -3.4496 H   0  0  0  0  0  0  0  0  0  0  0  0
    0.2162   -2.0690   -3.4555 H   0  0  0  0  0  0  0  0  0  0  0  0
   -0.6629   -1.5891   -1.1647 H   0  0  0  0  0  0  0  0  0  0  0  0
    1.0930   -1.5771   -1.1640 H   0  0  0  0  0  0  0  0  0  0  0  0
    0.3034    0.2771    0.3710 H   0  0  0  0  0  0  0  0  0  0  0  0
    1.0836    0.9086   -1.3064 H   0  0  0  0  0  0  0  0  0  0  0  0
   -0.2107    2.9287   -1.2139 H   0  0  0  0  0  0  0  0  0  0  0  0
   -0.9926    2.3422    0.2743 H   0  0  0  0  0  0  0  0  0  0  0  0
   -1.9803    2.7463   -1.1504 H   0  0  0  0  0  0  0  0  0  0  0  0
  1  2  1  0
  1  4  1  0
  2  3  2  3
  3  5  1  0
  3 16  1  0
  6  7  1  0
  6 11  1  0
  6 12  1  0
  6 13  1  0
  7  8  1  0
  7 14  1  0
  7 15  1  0
  8  9  1  0
  8 17  1  0
  9 10  1  0
 10 18  1  0
 10 19  1  0
 10 20  1  0
M  RAD  1   8   2
M  END
>  <reaction>  (28) 
rmg_rxn_15524

>  <mol_properties>  (28) 
{"1": {"label": "*4", "atom_type": "N3d"}, "2": {"label": "*3", "atom_type": "Cd"}, "7": {"label": "*1", "atom_type": "Cs"}, "8": {"label": "*0", "atom_type": "O2s"}, "15": {"label": "*2", "atom_type": "H0"}}

>  <type>  (28) 
unop_24

>  <geom_source>  (28) 
Heuristics

$$$$

     RDKit          3D

 20 18  0  0  0  0  0  0  0  0999 V2000
   -3.3382   -0.1733    0.2378 O   0  0  0  0  0  0  0  0  0  0  0  0
   -1.9264   -0.0707    0.2110 N   0  0  0  0  0  0  0  0  0  0  0  0
   -1.3412   -0.1392   -0.8816 C   0  0  0  0  0  0  0  0  0  0  0  0
   -3.5670   -0.0854    1.1728 H   0  0  0  0  0  0  0  0  0  0  0  0
   -1.7739   -0.2768   -1.8661 H   0  0  0  0  0  0  0  0  0  0  0  0
    0.9947    2.4539    0.1267 C   0  0  0  0  0  0  0  0  0  0  0  0
    1.4366    1.0535    0.5317 C   0  0  0  0  0  0  0  0  0  0  0  0
    1.2832    0.0829   -0.6201 C   0  0  0  0  0  3  0  0  0  0  0  0
    1.7758   -1.2039   -0.4718 O   0  0  0  0  0  0  0  0  0  0  0  0
    1.4277   -1.8764    0.7155 C   0  0  0  0  0  0  0  0  0  0  0  0
    1.1223    3.1442    0.9566 H   0  0  0  0  0  0  0  0  0  0  0  0
   -0.0542    2.4485   -0.1588 H   0  0  0  0  0  0  0  0  0  0  0  0
    1.5809    2.8154   -0.7149 H   0  0  0  0  0  0  0  0  0  0  0  0
    2.4863    1.0767    0.8503 H   0  0  0  0  0  0  0  0  0  0  0  0
    0.8343    0.7209    1.3800 H   0  0  0  0  0  0  0  0  0  0  0  0
   -0.0575   -0.0212   -0.8001 H   0  0  0  0  0  0  0  0  0  0  0  0
    1.6766    0.4608   -1.5635 H   0  0  0  0  0  0  0  0  0  0  0  0
    1.7310   -2.9127    0.5762 H   0  0  0  0  0  0  0  0  0  0  0  0
    0.3480   -1.8294    0.8893 H   0  0  0  0  0  0  0  0  0  0  0  0
    1.9509   -1.4616    1.5827 H   0  0  0  0  0  0  0  0  0  0  0  0
  1  2  1  0
  1  4  1  0
  2  3  2  3
  3  5  1  0
  3 16  1  0
  6  7  1  0
  6 11  1  0
  6 12  1  0
  6 13  1  0
  7  8  1  0
  7 14  1  0
  7 15  1  0
  8  9  1  0
  8 17  1  0
  9 10  1  0
 10 18  1  0
 10 19  1  0
 10 20  1  0
M  RAD  1   8   2
M  END
>  <reaction>  (29) 
rmg_rxn_15524

>  <mol_properties>  (29) 
{"1": {"label": "*4", "atom_type": "N3d"}, "2": {"label": "*3", "atom_type": "Cd"}, "7": {"label": "*1", "atom_type": "Cs"}, "8": {"label": "*0", "atom_type": "O2s"}, "15": {"label": "*2", "atom_type": "H0"}}

>  <type>  (29) 
unop_25

>  <geom_source>  (29) 
Heuristics

$$$$

     RDKit          3D

 20 18  0  0  0  0  0  0  0  0999 V2000
   -1.0196    1.5927   -0.0099 O   0  0  0  0  0  0  0  0  0  0  0  0
    3.7622   -1.0837    0.2826 O   0  0  0  0  0  0  0  0  0  0  0  0
    2.6644   -0.3601   -0.1329 N   0  0  0  0  0  0  0  0  0  0  0  0
   -1.3771   -0.6552    0.7681 C   0  0  0  0  0  0  0  0  0  0  0  0
   -0.3610    0.4569    0.5085 C   0  0  0  0  0  0  0  0  0  0  0  0
   -2.0115   -1.1568   -0.5271 C   0  0  0  0  0  0  0  0  0  0  0  0
   -0.0630    2.5777   -0.3256 C   0  0  0  0  0  0  0  0  0  0  0  0
    1.5657   -0.9383   -0.4982 C   0  0  0  0  0  3  0  0  0  0  0  0
   -0.8631   -1.5042    1.2682 H   0  0  0  0  0  0  0  0  0  0  0  0
   -2.1723   -0.2819    1.4493 H   0  0  0  0  0  0  0  0  0  0  0  0
    0.5018    0.0341   -0.2857 H   0  0  0  0  0  0  0  0  0  0  0  0
    0.1303    0.7057    1.4767 H   0  0  0  0  0  0  0  0  0  0  0  0
   -1.2310   -1.5481   -1.2138 H   0  0  0  0  0  0  0  0  0  0  0  0
   -2.5669   -0.3375   -1.0311 H   0  0  0  0  0  0  0  0  0  0  0  0
   -2.7243   -1.9766   -0.2972 H   0  0  0  0  0  0  0  0  0  0  0  0
   -0.5931    3.4774   -0.6999 H   0  0  0  0  0  0  0  0  0  0  0  0
    0.5191    2.8813    0.5733 H   0  0  0  0  0  0  0  0  0  0  0  0
    0.6195    2.2308   -1.1329 H   0  0  0  0  0  0  0  0  0  0  0  0
    3.7477   -2.0972    0.3168 H   0  0  0  0  0  0  0  0  0  0  0  0
    1.4721   -2.0169   -0.4895 H   0  0  0  0  0  0  0  0  0  0  0  0
  1  7  1  0
  1  5  1  0
  2  3  1  0
  2 19  1  0
  3  8  2  3
  4  6  1  0
  4  5  1  0
  4  9  1  0
  4 10  1  0
  5 11  1  0
  5 12  1  0
  6 13  1  0
  6 14  1  0
  6 15  1  0
  7 16  1  0
  7 17  1  0
  7 18  1  0
  8 20  1  0
M  RAD  1   8   2
M  END
>  <reaction>  (30) 
rmg_rxn_15524

>  <mol_properties>  (30) 
{"1": {"label": "*4", "atom_type": "N3d"}, "2": {"label": "*3", "atom_type": "Cd"}, "7": {"label": "*1", "atom_type": "Cs"}, "8": {"label": "*0", "atom_type": "O2s"}, "15": {"label": "*2", "atom_type": "H0"}}

>  <type>  (30) 
unop_26

>  <geom_source>  (30) 
AutoTST

$$$$

     RDKit          3D

 20 18  0  0  0  0  0  0  0  0999 V2000
    1.2148   -0.6292    3.4670 O   0  0  0  0  0  0  0  0  0  0  0  0
    0.8315   -0.8425    2.1575 N   0  0  0  0  0  0  0  0  0  0  0  0
    0.2039    0.1445    1.6827 C   0  0  0  0  0  0  0  0  0  0  0  0
    1.6722   -1.4398    3.6992 H   0  0  0  0  0  0  0  0  0  0  0  0
    0.0028    1.0446    2.2599 H   0  0  0  0  0  0  0  0  0  0  0  0
    0.0210   -1.1202   -3.0450 C   0  0  0  0  0  0  0  0  0  0  0  0
    0.0210   -1.1202   -1.5221 C   0  0  0  0  0  0  0  0  0  0  0  0
    0.0210    0.2723   -0.9260 C   0  0  0  0  0  3  0  0  0  0  0  0
   -1.1640    0.9358   -1.2902 O   0  0  0  0  0  0  0  0  0  0  0  0
   -1.2248    2.2469   -0.8050 C   0  0  0  0  0  0  0  0  0  0  0  0
    0.9034   -0.6066   -3.4347 H   0  0  0  0  0  0  0  0  0  0  0  0
   -0.8614   -0.6103   -3.4314 H   0  0  0  0  0  0  0  0  0  0  0  0
    0.0260   -2.1382   -3.4373 H   0  0  0  0  0  0  0  0  0  0  0  0
   -0.8531   -1.6584   -1.1464 H   0  0  0  0  0  0  0  0  0  0  0  0
    0.9028   -1.6464   -1.1458 H   0  0  0  0  0  0  0  0  0  0  0  0
    0.1132    0.2079    0.3892 H   0  0  0  0  0  0  0  0  0  0  0  0
    0.8934    0.8394   -1.2882 H   0  0  0  0  0  0  0  0  0  0  0  0
   -0.4009    2.8594   -1.1956 H   0  0  0  0  0  0  0  0  0  0  0  0
   -1.1828    2.2730    0.2925 H   0  0  0  0  0  0  0  0  0  0  0  0
   -2.1705    2.6770   -1.1321 H   0  0  0  0  0  0  0  0  0  0  0  0
  1  2  1  0
  1  4  1  0
  2  3  2  3
  3  5  1  0
  3 16  1  0
  6  7  1  0
  6 11  1  0
  6 12  1  0
  6 13  1  0
  7  8  1  0
  7 14  1  0
  7 15  1  0
  8  9  1  0
  8 17  1  0
  9 10  1  0
 10 18  1  0
 10 19  1  0
 10 20  1  0
M  RAD  1   8   2
M  END
>  <reaction>  (31) 
rmg_rxn_15524

>  <mol_properties>  (31) 
{"1": {"label": "*4", "atom_type": "N3d"}, "2": {"label": "*3", "atom_type": "Cd"}, "7": {"label": "*1", "atom_type": "Cs"}, "8": {"label": "*0", "atom_type": "O2s"}, "15": {"label": "*2", "atom_type": "H0"}}

>  <type>  (31) 
unop_27

>  <geom_source>  (31) 
gaussian_log

$$$$
