
     RDKit          3D

  4  3  0  0  0  0  0  0  0  0999 V2000
   -0.5192    0.5067    0.5114 O   0  0  0  0  0  0  0  0  0  0  0  0
    0.5296    0.4929   -0.3599 N   0  0  0  0  0  0  0  0  0  0  0  0
    0.7996   -0.5796   -0.7553 O   0  0  0  0  0  0  0  0  0  0  0  0
   -0.8100   -0.4200    0.6039 H   0  0  0  0  0  0  0  0  0  0  0  0
  1  2  1  0
  1  4  1  0
  2  3  2  0
M  END
>  <reaction>  (1) 
rmg_rxn_15442

>  <mol_properties>  (1) 
{"0": {"label": "donator", "atom_type": "O2s"}, "3": {"label": "d_hydrogen", "atom_type": "H0"}}

>  <type>  (1) 
r1h

$$$$

     RDKit          3D

  5  4  0  0  0  0  0  0  0  0999 V2000
    0.8934    0.3742    0.4948 O   0  0  0  0  0  0  0  0  0  0  0  0
    0.1582   -0.1610   -0.5904 N   0  0  0  0  0  0  0  0  0  0  0  0
   -1.0297   -0.3739   -0.4689 C   0  0  0  0  0  3  0  0  0  0  0  0
    1.7804    0.4382    0.1306 H   0  0  0  0  0  0  0  0  0  0  0  0
   -1.8023   -0.2775    0.2859 H   0  0  0  0  0  0  0  0  0  0  0  0
  1  2  1  0
  1  4  1  0
  2  3  2  3
  3  5  1  0
M  RAD  1   3   2
M  END
>  <reaction>  (2) 
rmg_rxn_15442

>  <mol_properties>  (2) 
{"2": {"label": "acceptor", "atom_type": "Cd"}}

>  <type>  (2) 
r2

$$$$

     RDKit          3D

  6  5  0  0  0  0  0  0  0  0999 V2000
    1.2314    0.0428    0.5088 O   0  0  0  0  0  0  0  0  0  0  0  0
    0.2987    0.2341   -0.4915 N   0  0  0  0  0  0  0  0  0  0  0  0
   -0.8599   -0.1122   -0.1290 C   0  0  0  0  0  0  0  0  0  0  0  0
    2.0507    0.3401    0.1082 H   0  0  0  0  0  0  0  0  0  0  0  0
   -1.0700   -0.5112    0.8610 H   0  0  0  0  0  0  0  0  0  0  0  0
   -1.6509    0.0064   -0.8574 H   0  0  0  0  0  0  0  0  0  0  0  0
  1  2  1  0
  1  4  1  0
  2  3  2  3
  3  5  1  0
  3  6  1  0
M  END
>  <reaction>  (3) 
rmg_rxn_15442

>  <mol_properties>  (3) 
{"0": {"label": "a_hydrogen", "atom_type": "H0"}, "3": {"label": "acceptor", "atom_type": "Cd"}}

>  <type>  (3) 
r2h

$$$$

     RDKit          3D

  9  7  0  0  0  0  0  0  0  0999 V2000
    0.5601   -1.3470    0.8747 O   0  0  0  0  0  0  0  0  0  0  0  0
    0.2238   -1.0419    2.0874 N   0  0  0  0  0  0  0  0  0  0  0  0
   -0.4412   -0.0752    2.2502 O   0  0  0  0  0  0  0  0  0  0  0  0
    0.1264   -0.5553    0.1716 H   0  0  0  0  0  0  0  0  0  0  0  0
    0.0692    2.1406   -2.0792 O   0  0  0  0  0  0  0  0  0  0  0  0
    0.4630    1.1587   -1.1850 N   0  0  0  0  0  0  0  0  0  0  0  0
   -0.4075    0.4586   -0.6763 C   0  0  0  0  0  3  0  0  0  0  0  0
    0.8993    2.5551   -2.3298 H   0  0  0  0  0  0  0  0  0  0  0  0
   -1.4930    0.4668   -0.7501 H   0  0  0  0  0  0  0  0  0  0  0  0
  1  2  1  0
  1  4  1  0
  2  3  2  0
  5  6  1  0
  5  8  1  0
  6  7  2  3
  7  9  1  0
M  RAD  1   7   2
M  END
>  <reaction>  (4) 
rmg_rxn_15442

>  <mol_properties>  (4) 
{"0": {"label": "*1", "atom_type": "O2s"}, "1": {"label": "*0", "atom_type": "N3d"}, "3": {"label": "*2", "atom_type": "H0"}, "5": {"label": "*4", "atom_type": "N3d"}, "6": {"label": "*3", "atom_type": "Cd"}}

>  <type>  (4) 
ts

$$$$

     RDKit          3D

  9  7  0  0  0  0  0  0  0  0999 V2000
    1.4505   -0.9540   -0.1181 O   0  0  0  0  0  0  0  0  0  0  0  0
    2.2221   -0.0032   -0.0887 N   0  0  0  0  0  0  0  0  0  0  0  0
    1.9735    1.1385    0.1414 O   0  0  0  0  0  1  0  0  0  0  0  0
    0.1704   -0.9295    0.0552 H   0  0  0  0  0  0  0  0  0  0  0  0
   -2.9301    0.4149   -0.0194 O   0  0  0  0  0  0  0  0  0  0  0  0
   -1.5679    0.1820   -0.1253 N   0  0  0  0  0  0  0  0  0  0  0  0
   -1.0514   -0.8903    0.2155 C   0  0  0  0  0  0  0  0  0  0  0  0
   -3.0558    1.3198   -0.3408 H   0  0  0  0  0  0  0  0  0  0  0  0
   -1.5164   -1.7778    0.6278 H   0  0  0  0  0  0  0  0  0  0  0  0
  1  2  2  0
  2  3  1  0
  4  7  1  0
  5  6  1  0
  5  8  1  0
  6  7  2  3
  7  9  1  0
M  RAD  1   3   2
M  END
>  <reaction>  (5) 
rmg_rxn_15442

>  <mol_properties>  (5) 
{"0": {"label": "*1", "atom_type": "O2s"}, "1": {"label": "*0", "atom_type": "N3d"}, "3": {"label": "*2", "atom_type": "H0"}, "5": {"label": "*4", "atom_type": "N3d"}, "6": {"label": "*3", "atom_type": "Cd"}}

>  <type>  (5) 
unop_1

>  <geom_source>  (5) 
crest_best.xyz

$$$$

     RDKit          3D

  9  7  0  0  0  0  0  0  0  0999 V2000
    0.2562   -0.8820    1.3998 O   0  0  0  0  0  0  0  0  0  0  0  0
    0.2562   -2.1311    0.8528 N   0  0  0  0  0  0  0  0  0  0  0  0
    0.2562   -2.1311   -0.3217 O   0  0  0  0  0  0  0  0  0  0  0  0
    0.2562   -0.1307    0.5018 H   0  0  0  0  0  0  0  0  0  0  0  0
   -0.3220    2.7789   -0.8913 O   0  0  0  0  0  0  0  0  0  0  0  0
   -0.7214    1.4978   -0.5651 N   0  0  0  0  0  0  0  0  0  0  0  0
    0.2562    0.7024   -0.4939 C   0  0  0  0  0  3  0  0  0  0  0  0
   -1.1457    3.2699   -0.9116 H   0  0  0  0  0  0  0  0  0  0  0  0
    1.2822    1.0163   -0.6733 H   0  0  0  0  0  0  0  0  0  0  0  0
  1  2  1  0
  1  4  1  0
  2  3  2  0
  5  6  1  0
  5  8  1  0
  6  7  2  3
  7  9  1  0
M  RAD  1   7   2
M  END
>  <reaction>  (6) 
rmg_rxn_15442

>  <mol_properties>  (6) 
{"0": {"label": "*1", "atom_type": "O2s"}, "1": {"label": "*0", "atom_type": "N3d"}, "3": {"label": "*2", "atom_type": "H0"}, "5": {"label": "*4", "atom_type": "N3d"}, "6": {"label": "*3", "atom_type": "Cd"}}

>  <type>  (6) 
unop_2

>  <geom_source>  (6) 
Heuristics

$$$$

     RDKit          3D

  9  7  0  0  0  0  0  0  0  0999 V2000
    0.2504   -0.4348    1.8368 O   0  0  0  0  0  0  0  0  0  0  0  0
    0.2504   -1.6839    1.2898 N   0  0  0  0  0  0  0  0  0  0  0  0
    0.2504   -1.6839    0.1153 O   0  0  0  0  0  0  0  0  0  0  0  0
    0.2504    0.3166    0.9388 H   0  0  0  0  0  0  0  0  0  0  0  0
   -0.6129    1.8168   -1.9578 O   0  0  0  0  0  0  0  0  0  0  0  0
   -0.3140    0.7625   -1.1175 N   0  0  0  0  0  0  0  0  0  0  0  0
    0.2504    1.1496   -0.0569 C   0  0  0  0  0  3  0  0  0  0  0  0
   -1.0294    1.3905   -2.7094 H   0  0  0  0  0  0  0  0  0  0  0  0
    0.4640    2.1970    0.1453 H   0  0  0  0  0  0  0  0  0  0  0  0
  1  2  1  0
  1  4  1  0
  2  3  2  0
  5  6  1  0
  5  8  1  0
  6  7  2  3
  7  9  1  0
M  RAD  1   7   2
M  END
>  <reaction>  (7) 
rmg_rxn_15442

>  <mol_properties>  (7) 
{"0": {"label": "*1", "atom_type": "O2s"}, "1": {"label": "*0", "atom_type": "N3d"}, "3": {"label": "*2", "atom_type": "H0"}, "5": {"label": "*4", "atom_type": "N3d"}, "6": {"label": "*3", "atom_type": "Cd"}}

>  <type>  (7) 
unop_3

>  <geom_source>  (7) 
Heuristics

$$$$

     RDKit          3D

  9  7  0  0  0  0  0  0  0  0999 V2000
    0.0741   -0.9394    1.3822 O   0  0  0  0  0  0  0  0  0  0  0  0
    0.0741   -2.1885    0.8353 N   0  0  0  0  0  0  0  0  0  0  0  0
    0.0741   -2.1885   -0.3393 O   0  0  0  0  0  0  0  0  0  0  0  0
    0.0741   -0.1881    0.4842 H   0  0  0  0  0  0  0  0  0  0  0  0
    0.1218    2.7764   -1.0202 O   0  0  0  0  0  0  0  0  0  0  0  0
   -0.4903    1.7573   -0.3175 N   0  0  0  0  0  0  0  0  0  0  0  0
    0.0741    0.6450   -0.5114 C   0  0  0  0  0  3  0  0  0  0  0  0
   -0.3964    3.5492   -0.7872 H   0  0  0  0  0  0  0  0  0  0  0  0
    0.9394    0.5315   -1.1610 H   0  0  0  0  0  0  0  0  0  0  0  0
  1  2  1  0
  1  4  1  0
  2  3  2  0
  5  6  1  0
  5  8  1  0
  6  7  2  3
  7  9  1  0
M  RAD  1   7   2
M  END
>  <reaction>  (8) 
rmg_rxn_15442

>  <mol_properties>  (8) 
{"0": {"label": "*1", "atom_type": "O2s"}, "1": {"label": "*0", "atom_type": "N3d"}, "3": {"label": "*2", "atom_type": "H0"}, "5": {"label": "*4", "atom_type": "N3d"}, "6": {"label": "*3", "atom_type": "Cd"}}

>  <type>  (8) 
unop_4

>  <geom_source>  (8) 
Heuristics

$$$$

     RDKit          3D

  9  7  0  0  0  0  0  0  0  0999 V2000
   -0.3951   -0.5772    1.6876 O   0  0  0  0  0  0  0  0  0  0  0  0
   -0.3951   -1.8263    1.1407 N   0  0  0  0  0  0  0  0  0  0  0  0
   -0.3951   -1.8263   -0.0339 O   0  0  0  0  0  0  0  0  0  0  0  0
   -0.3951    0.1741    0.7896 H   0  0  0  0  0  0  0  0  0  0  0  0
    0.9010    2.1688   -1.5383 O   0  0  0  0  0  0  0  0  0  0  0  0
    0.5825    0.9369   -1.0016 N   0  0  0  0  0  0  0  0  0  0  0  0
   -0.3951    1.0072   -0.2060 C   0  0  0  0  0  3  0  0  0  0  0  0
    1.6445    1.9753   -2.1125 H   0  0  0  0  0  0  0  0  0  0  0  0
   -0.9076    1.9416    0.0125 H   0  0  0  0  0  0  0  0  0  0  0  0
  1  2  1  0
  1  4  1  0
  2  3  2  0
  5  6  1  0
  5  8  1  0
  6  7  2  3
  7  9  1  0
M  RAD  1   7   2
M  END
>  <reaction>  (9) 
rmg_rxn_15442

>  <mol_properties>  (9) 
{"0": {"label": "*1", "atom_type": "O2s"}, "1": {"label": "*0", "atom_type": "N3d"}, "3": {"label": "*2", "atom_type": "H0"}, "5": {"label": "*4", "atom_type": "N3d"}, "6": {"label": "*3", "atom_type": "Cd"}}

>  <type>  (9) 
unop_5

>  <geom_source>  (9) 
Heuristics

$$$$

     RDKit          3D

  9  7  0  0  0  0  0  0  0  0999 V2000
    1.4499   -0.9537    0.1197 O   0  0  0  0  0  0  0  0  0  0  0  0
    2.2227   -0.0037    0.0893 N   0  0  0  0  0  0  0  0  0  0  0  0
    1.9755    1.1378   -0.1428 O   0  0  0  0  0  1  0  0  0  0  0  0
    0.1702   -0.9282   -0.0555 H   0  0  0  0  0  0  0  0  0  0  0  0
   -2.9310    0.4146    0.0191 O   0  0  0  0  0  0  0  0  0  0  0  0
   -1.5691    0.1815    0.1274 N   0  0  0  0  0  0  0  0  0  0  0  0
   -1.0513   -0.8886   -0.2183 C   0  0  0  0  0  0  0  0  0  0  0  0
   -3.0579    1.3176    0.3454 H   0  0  0  0  0  0  0  0  0  0  0  0
   -1.5149   -1.7736   -0.6373 H   0  0  0  0  0  0  0  0  0  0  0  0
  1  2  2  0
  2  3  1  0
  4  7  1  0
  5  6  1  0
  5  8  1  0
  6  7  2  3
  7  9  1  0
M  RAD  1   3   2
M  END
>  <reaction>  (10) 
rmg_rxn_15442

>  <mol_properties>  (10) 
{"0": {"label": "*1", "atom_type": "O2s"}, "1": {"label": "*0", "atom_type": "N3d"}, "3": {"label": "*2", "atom_type": "H0"}, "5": {"label": "*4", "atom_type": "N3d"}, "6": {"label": "*3", "atom_type": "Cd"}}

>  <type>  (10) 
unop_6

>  <geom_source>  (10) 
Heuristics

$$$$

     RDKit          3D

  9  7  0  0  0  0  0  0  0  0999 V2000
    0.0000   -0.9362    1.4313 O   0  0  0  0  0  0  0  0  0  0  0  0
    0.0000   -2.1853    0.8843 N   0  0  0  0  0  0  0  0  0  0  0  0
    0.0000   -2.1853   -0.2902 O   0  0  0  0  0  0  0  0  0  0  0  0
    0.0000   -0.1848    0.5333 H   0  0  0  0  0  0  0  0  0  0  0  0
   -0.0000    2.6742   -1.2987 O   0  0  0  0  0  0  0  0  0  0  0  0
   -0.0000    1.8766   -0.1714 N   0  0  0  0  0  0  0  0  0  0  0  0
   -0.0000    0.6482   -0.4624 C   0  0  0  0  0  3  0  0  0  0  0  0
   -0.0000    3.5642   -0.9409 H   0  0  0  0  0  0  0  0  0  0  0  0
   -0.0000    0.2886   -1.4891 H   0  0  0  0  0  0  0  0  0  0  0  0
  1  2  1  0
  1  4  1  0
  2  3  2  0
  5  6  1  0
  5  8  1  0
  6  7  2  3
  7  9  1  0
M  RAD  1   7   2
M  END
>  <reaction>  (11) 
rmg_rxn_15442

>  <mol_properties>  (11) 
{"0": {"label": "*1", "atom_type": "O2s"}, "1": {"label": "*0", "atom_type": "N3d"}, "3": {"label": "*2", "atom_type": "H0"}, "5": {"label": "*4", "atom_type": "N3d"}, "6": {"label": "*3", "atom_type": "Cd"}}

>  <type>  (11) 
unop_7

>  <geom_source>  (11) 
Heuristics

$$$$

     RDKit          3D

  9  7  0  0  0  0  0  0  0  0999 V2000
    1.4507    0.9544   -0.1127 O   0  0  0  0  0  0  0  0  0  0  0  0
    2.2228    0.0039   -0.0852 N   0  0  0  0  0  0  0  0  0  0  0  0
    1.9741   -1.1396    0.1356 O   0  0  0  0  0  1  0  0  0  0  0  0
    0.1696    0.9303    0.0531 H   0  0  0  0  0  0  0  0  0  0  0  0
   -2.9304   -0.4154   -0.0185 O   0  0  0  0  0  0  0  0  0  0  0  0
   -1.5674   -0.1846   -0.1195 N   0  0  0  0  0  0  0  0  0  0  0  0
   -1.0532    0.8937    0.2054 C   0  0  0  0  0  0  0  0  0  0  0  0
   -3.0541   -1.3258   -0.3247 H   0  0  0  0  0  0  0  0  0  0  0  0
   -1.5211    1.7883    0.5984 H   0  0  0  0  0  0  0  0  0  0  0  0
  1  2  2  0
  2  3  1  0
  4  7  1  0
  5  6  1  0
  5  8  1  0
  6  7  2  3
  7  9  1  0
M  RAD  1   3   2
M  END
>  <reaction>  (12) 
rmg_rxn_15442

>  <mol_properties>  (12) 
{"0": {"label": "*1", "atom_type": "O2s"}, "1": {"label": "*0", "atom_type": "N3d"}, "3": {"label": "*2", "atom_type": "H0"}, "5": {"label": "*4", "atom_type": "N3d"}, "6": {"label": "*3", "atom_type": "Cd"}}

>  <type>  (12) 
unop_8

>  <geom_source>  (12) 
Heuristics

$$$$

     RDKit          3D

  9  7  0  0  0  0  0  0  0  0999 V2000
   -0.3903   -0.7470    1.5195 O   0  0  0  0  0  0  0  0  0  0  0  0
   -0.3903   -1.9961    0.9725 N   0  0  0  0  0  0  0  0  0  0  0  0
   -0.3903   -1.9961   -0.2020 O   0  0  0  0  0  0  0  0  0  0  0  0
   -0.3903    0.0043    0.6215 H   0  0  0  0  0  0  0  0  0  0  0  0
    0.7658    2.5463   -1.1139 O   0  0  0  0  0  0  0  0  0  0  0  0
    0.7385    1.2000   -0.8075 N   0  0  0  0  0  0  0  0  0  0  0  0
   -0.3903    0.8374   -0.3741 C   0  0  0  0  0  3  0  0  0  0  0  0
    1.6624    2.6850   -1.4251 H   0  0  0  0  0  0  0  0  0  0  0  0
   -1.2257    1.5258   -0.2651 H   0  0  0  0  0  0  0  0  0  0  0  0
  1  2  1  0
  1  4  1  0
  2  3  2  0
  5  6  1  0
  5  8  1  0
  6  7  2  3
  7  9  1  0
M  RAD  1   7   2
M  END
>  <reaction>  (13) 
rmg_rxn_15442

>  <mol_properties>  (13) 
{"0": {"label": "*1", "atom_type": "O2s"}, "1": {"label": "*0", "atom_type": "N3d"}, "3": {"label": "*2", "atom_type": "H0"}, "5": {"label": "*4", "atom_type": "N3d"}, "6": {"label": "*3", "atom_type": "Cd"}}

>  <type>  (13) 
unop_9

>  <geom_source>  (13) 
Heuristics

$$$$

     RDKit          3D

  9  7  0  0  0  0  0  0  0  0999 V2000
    1.4510    0.9547    0.1099 O   0  0  0  0  0  0  0  0  0  0  0  0
    2.2225    0.0036    0.0841 N   0  0  0  0  0  0  0  0  0  0  0  0
    1.9729   -1.1403   -0.1332 O   0  0  0  0  0  1  0  0  0  0  0  0
    0.1695    0.9316   -0.0526 H   0  0  0  0  0  0  0  0  0  0  0  0
   -2.9296   -0.4160    0.0185 O   0  0  0  0  0  0  0  0  0  0  0  0
   -1.5664   -0.1854    0.1163 N   0  0  0  0  0  0  0  0  0  0  0  0
   -1.0539    0.8961   -0.2006 C   0  0  0  0  0  0  0  0  0  0  0  0
   -3.0517   -1.3292    0.3169 H   0  0  0  0  0  0  0  0  0  0  0  0
   -1.5236    1.7942   -0.5832 H   0  0  0  0  0  0  0  0  0  0  0  0
  1  2  2  0
  2  3  1  0
  4  7  1  0
  5  6  1  0
  5  8  1  0
  6  7  2  3
  7  9  1  0
M  RAD  1   3   2
M  END
>  <reaction>  (14) 
rmg_rxn_15442

>  <mol_properties>  (14) 
{"0": {"label": "*1", "atom_type": "O2s"}, "1": {"label": "*0", "atom_type": "N3d"}, "3": {"label": "*2", "atom_type": "H0"}, "5": {"label": "*4", "atom_type": "N3d"}, "6": {"label": "*3", "atom_type": "Cd"}}

>  <type>  (14) 
unop_10

>  <geom_source>  (14) 
Heuristics

$$$$

     RDKit          3D

  9  7  0  0  0  0  0  0  0  0999 V2000
   -0.2562   -0.8820    1.3998 O   0  0  0  0  0  0  0  0  0  0  0  0
   -0.2562   -2.1311    0.8528 N   0  0  0  0  0  0  0  0  0  0  0  0
   -0.2562   -2.1311   -0.3217 O   0  0  0  0  0  0  0  0  0  0  0  0
   -0.2562   -0.1307    0.5018 H   0  0  0  0  0  0  0  0  0  0  0  0
    0.3220    2.7789   -0.8913 O   0  0  0  0  0  0  0  0  0  0  0  0
    0.7214    1.4978   -0.5651 N   0  0  0  0  0  0  0  0  0  0  0  0
   -0.2562    0.7024   -0.4939 C   0  0  0  0  0  3  0  0  0  0  0  0
    1.1457    3.2699   -0.9116 H   0  0  0  0  0  0  0  0  0  0  0  0
   -1.2822    1.0163   -0.6733 H   0  0  0  0  0  0  0  0  0  0  0  0
  1  2  1  0
  1  4  1  0
  2  3  2  0
  5  6  1  0
  5  8  1  0
  6  7  2  3
  7  9  1  0
M  RAD  1   7   2
M  END
>  <reaction>  (15) 
rmg_rxn_15442

>  <mol_properties>  (15) 
{"0": {"label": "*1", "atom_type": "O2s"}, "1": {"label": "*0", "atom_type": "N3d"}, "3": {"label": "*2", "atom_type": "H0"}, "5": {"label": "*4", "atom_type": "N3d"}, "6": {"label": "*3", "atom_type": "Cd"}}

>  <type>  (15) 
unop_11

>  <geom_source>  (15) 
Heuristics

$$$$

     RDKit          3D

  9  7  0  0  0  0  0  0  0  0999 V2000
    0.3903   -0.7470    1.5195 O   0  0  0  0  0  0  0  0  0  0  0  0
    0.3903   -1.9961    0.9725 N   0  0  0  0  0  0  0  0  0  0  0  0
    0.3903   -1.9961   -0.2020 O   0  0  0  0  0  0  0  0  0  0  0  0
    0.3903    0.0043    0.6215 H   0  0  0  0  0  0  0  0  0  0  0  0
   -0.7658    2.5463   -1.1139 O   0  0  0  0  0  0  0  0  0  0  0  0
   -0.7385    1.2000   -0.8075 N   0  0  0  0  0  0  0  0  0  0  0  0
    0.3903    0.8374   -0.3741 C   0  0  0  0  0  3  0  0  0  0  0  0
   -1.6624    2.6850   -1.4251 H   0  0  0  0  0  0  0  0  0  0  0  0
    1.2257    1.5258   -0.2651 H   0  0  0  0  0  0  0  0  0  0  0  0
  1  2  1  0
  1  4  1  0
  2  3  2  0
  5  6  1  0
  5  8  1  0
  6  7  2  3
  7  9  1  0
M  RAD  1   7   2
M  END
>  <reaction>  (16) 
rmg_rxn_15442

>  <mol_properties>  (16) 
{"0": {"label": "*1", "atom_type": "O2s"}, "1": {"label": "*0", "atom_type": "N3d"}, "3": {"label": "*2", "atom_type": "H0"}, "5": {"label": "*4", "atom_type": "N3d"}, "6": {"label": "*3", "atom_type": "Cd"}}

>  <type>  (16) 
unop_12

>  <geom_source>  (16) 
Heuristics

$$$$

     RDKit          3D

  9  7  0  0  0  0  0  0  0  0999 V2000
    1.4505   -0.9540   -0.1181 O   0  0  0  0  0  0  0  0  0  0  0  0
    2.2221   -0.0032   -0.0887 N   0  0  0  0  0  0  0  0  0  0  0  0
    1.9735    1.1385    0.1414 O   0  0  0  0  0  1  0  0  0  0  0  0
    0.1704   -0.9295    0.0552 H   0  0  0  0  0  0  0  0  0  0  0  0
   -2.9301    0.4149   -0.0194 O   0  0  0  0  0  0  0  0  0  0  0  0
   -1.5679    0.1820   -0.1253 N   0  0  0  0  0  0  0  0  0  0  0  0
   -1.0514   -0.8903    0.2155 C   0  0  0  0  0  0  0  0  0  0  0  0
   -3.0558    1.3198   -0.3408 H   0  0  0  0  0  0  0  0  0  0  0  0
   -1.5164   -1.7778    0.6278 H   0  0  0  0  0  0  0  0  0  0  0  0
  1  2  2  0
  2  3  1  0
  4  7  1  0
  5  6  1  0
  5  8  1  0
  6  7  2  3
  7  9  1  0
M  RAD  1   3   2
M  END
>  <reaction>  (17) 
rmg_rxn_15442

>  <mol_properties>  (17) 
{"0": {"label": "*1", "atom_type": "O2s"}, "1": {"label": "*0", "atom_type": "N3d"}, "3": {"label": "*2", "atom_type": "H0"}, "5": {"label": "*4", "atom_type": "N3d"}, "6": {"label": "*3", "atom_type": "Cd"}}

>  <type>  (17) 
unop_13

>  <geom_source>  (17) 
Heuristics

$$$$

     RDKit          3D

  9  7  0  0  0  0  0  0  0  0999 V2000
   -0.2504   -0.4348    1.8368 O   0  0  0  0  0  0  0  0  0  0  0  0
   -0.2504   -1.6839    1.2898 N   0  0  0  0  0  0  0  0  0  0  0  0
   -0.2504   -1.6839    0.1153 O   0  0  0  0  0  0  0  0  0  0  0  0
   -0.2504    0.3166    0.9388 H   0  0  0  0  0  0  0  0  0  0  0  0
    0.6129    1.8168   -1.9578 O   0  0  0  0  0  0  0  0  0  0  0  0
    0.3140    0.7625   -1.1175 N   0  0  0  0  0  0  0  0  0  0  0  0
   -0.2504    1.1496   -0.0569 C   0  0  0  0  0  3  0  0  0  0  0  0
    1.0294    1.3905   -2.7094 H   0  0  0  0  0  0  0  0  0  0  0  0
   -0.4640    2.1970    0.1453 H   0  0  0  0  0  0  0  0  0  0  0  0
  1  2  1  0
  1  4  1  0
  2  3  2  0
  5  6  1  0
  5  8  1  0
  6  7  2  3
  7  9  1  0
M  RAD  1   7   2
M  END
>  <reaction>  (18) 
rmg_rxn_15442

>  <mol_properties>  (18) 
{"0": {"label": "*1", "atom_type": "O2s"}, "1": {"label": "*0", "atom_type": "N3d"}, "3": {"label": "*2", "atom_type": "H0"}, "5": {"label": "*4", "atom_type": "N3d"}, "6": {"label": "*3", "atom_type": "Cd"}}

>  <type>  (18) 
unop_14

>  <geom_source>  (18) 
Heuristics

$$$$

     RDKit          3D

  9  7  0  0  0  0  0  0  0  0999 V2000
    0.3951   -0.5772    1.6876 O   0  0  0  0  0  0  0  0  0  0  0  0
    0.3951   -1.8263    1.1407 N   0  0  0  0  0  0  0  0  0  0  0  0
    0.3951   -1.8263   -0.0339 O   0  0  0  0  0  0  0  0  0  0  0  0
    0.3951    0.1741    0.7896 H   0  0  0  0  0  0  0  0  0  0  0  0
   -0.9010    2.1688   -1.5383 O   0  0  0  0  0  0  0  0  0  0  0  0
   -0.5825    0.9369   -1.0016 N   0  0  0  0  0  0  0  0  0  0  0  0
    0.3951    1.0072   -0.2060 C   0  0  0  0  0  3  0  0  0  0  0  0
   -1.6446    1.9753   -2.1125 H   0  0  0  0  0  0  0  0  0  0  0  0
    0.9076    1.9416    0.0125 H   0  0  0  0  0  0  0  0  0  0  0  0
  1  2  1  0
  1  4  1  0
  2  3  2  0
  5  6  1  0
  5  8  1  0
  6  7  2  3
  7  9  1  0
M  RAD  1   7   2
M  END
>  <reaction>  (19) 
rmg_rxn_15442

>  <mol_properties>  (19) 
{"0": {"label": "*1", "atom_type": "O2s"}, "1": {"label": "*0", "atom_type": "N3d"}, "3": {"label": "*2", "atom_type": "H0"}, "5": {"label": "*4", "atom_type": "N3d"}, "6": {"label": "*3", "atom_type": "Cd"}}

>  <type>  (19) 
unop_15

>  <geom_source>  (19) 
Heuristics

$$$$

     RDKit          3D

  9  7  0  0  0  0  0  0  0  0999 V2000
   -0.0741   -0.9394    1.3822 O   0  0  0  0  0  0  0  0  0  0  0  0
   -0.0741   -2.1885    0.8353 N   0  0  0  0  0  0  0  0  0  0  0  0
   -0.0741   -2.1885   -0.3393 O   0  0  0  0  0  0  0  0  0  0  0  0
   -0.0741   -0.1881    0.4842 H   0  0  0  0  0  0  0  0  0  0  0  0
   -0.1218    2.7764   -1.0202 O   0  0  0  0  0  0  0  0  0  0  0  0
    0.4903    1.7573   -0.3175 N   0  0  0  0  0  0  0  0  0  0  0  0
   -0.0741    0.6450   -0.5114 C   0  0  0  0  0  3  0  0  0  0  0  0
    0.3963    3.5492   -0.7872 H   0  0  0  0  0  0  0  0  0  0  0  0
   -0.9394    0.5315   -1.1610 H   0  0  0  0  0  0  0  0  0  0  0  0
  1  2  1  0
  1  4  1  0
  2  3  2  0
  5  6  1  0
  5  8  1  0
  6  7  2  3
  7  9  1  0
M  RAD  1   7   2
M  END
>  <reaction>  (20) 
rmg_rxn_15442

>  <mol_properties>  (20) 
{"0": {"label": "*1", "atom_type": "O2s"}, "1": {"label": "*0", "atom_type": "N3d"}, "3": {"label": "*2", "atom_type": "H0"}, "5": {"label": "*4", "atom_type": "N3d"}, "6": {"label": "*3", "atom_type": "Cd"}}

>  <type>  (20) 
unop_16

>  <geom_source>  (20) 
Heuristics

$$$$

     RDKit          3D

  9  7  0  0  0  0  0  0  0  0999 V2000
    0.0000   -0.3787    1.8977 O   0  0  0  0  0  0  0  0  0  0  0  0
    0.0000   -1.6278    1.3508 N   0  0  0  0  0  0  0  0  0  0  0  0
    0.0000   -1.6278    0.1762 O   0  0  0  0  0  0  0  0  0  0  0  0
    0.0000    0.3727    0.9997 H   0  0  0  0  0  0  0  0  0  0  0  0
   -0.0000    1.6715   -2.1377 O   0  0  0  0  0  0  0  0  0  0  0  0
   -0.0000    0.7026   -1.1537 N   0  0  0  0  0  0  0  0  0  0  0  0
   -0.0000    1.2057    0.0041 C   0  0  0  0  0  3  0  0  0  0  0  0
   -0.0000    1.1623   -2.9506 H   0  0  0  0  0  0  0  0  0  0  0  0
   -0.0000    2.2798    0.1769 H   0  0  0  0  0  0  0  0  0  0  0  0
  1  2  1  0
  1  4  1  0
  2  3  2  0
  5  6  1  0
  5  8  1  0
  6  7  2  3
  7  9  1  0
M  RAD  1   7   2
M  END
>  <reaction>  (21) 
rmg_rxn_15442

>  <mol_properties>  (21) 
{"0": {"label": "*1", "atom_type": "O2s"}, "1": {"label": "*0", "atom_type": "N3d"}, "3": {"label": "*2", "atom_type": "H0"}, "5": {"label": "*4", "atom_type": "N3d"}, "6": {"label": "*3", "atom_type": "Cd"}}

>  <type>  (21) 
unop_17

>  <geom_source>  (21) 
Heuristics

$$$$

     RDKit          3D

  9  7  0  0  0  0  0  0  0  0999 V2000
   -2.6291   -0.8839   -0.2314 O   0  0  0  0  0  0  0  0  0  0  0  0
    1.6587    0.2663   -0.6562 O   0  0  0  0  0  0  0  0  0  0  0  0
    3.4760   -0.0084    0.6774 O   0  0  0  0  0  1  0  0  0  0  0  0
   -1.4174   -0.4245   -0.7023 N   0  0  0  0  0  0  0  0  0  0  0  0
    3.0174    0.1925   -0.4645 N   0  0  0  0  0  0  0  0  0  0  0  0
   -0.6316    0.2982    0.0295 C   0  0  0  0  0  0  0  0  0  0  0  0
   -0.9055    0.5654    1.0423 H   0  0  0  0  0  0  0  0  0  0  0  0
    0.3803    0.6661   -0.4021 H   0  0  0  0  0  0  0  0  0  0  0  0
   -2.9488   -0.6716    0.7073 H   0  0  0  0  0  0  0  0  0  0  0  0
  1  4  1  0
  1  9  1  0
  2  5  2  0
  3  5  1  0
  4  6  2  3
  6  7  1  0
  6  8  1  0
M  RAD  1   3   2
M  END
>  <reaction>  (22) 
rmg_rxn_15442

>  <mol_properties>  (22) 
{"0": {"label": "*1", "atom_type": "O2s"}, "1": {"label": "*0", "atom_type": "N3d"}, "3": {"label": "*2", "atom_type": "H0"}, "5": {"label": "*4", "atom_type": "N3d"}, "6": {"label": "*3", "atom_type": "Cd"}}

>  <type>  (22) 
unop_18

>  <geom_source>  (22) 
AutoTST

$$$$

     RDKit          3D

  9  7  0  0  0  0  0  0  0  0999 V2000
    0.2504   -0.4348    1.8368 O   0  0  0  0  0  0  0  0  0  0  0  0
    0.2504   -1.6839    1.2898 N   0  0  0  0  0  0  0  0  0  0  0  0
    0.2504   -1.6839    0.1153 O   0  0  0  0  0  0  0  0  0  0  0  0
    0.2504    0.3166    0.9388 H   0  0  0  0  0  0  0  0  0  0  0  0
   -0.6129    1.8168   -1.9578 O   0  0  0  0  0  0  0  0  0  0  0  0
   -0.3140    0.7625   -1.1176 N   0  0  0  0  0  0  0  0  0  0  0  0
    0.2504    1.1496   -0.0569 C   0  0  0  0  0  3  0  0  0  0  0  0
   -1.0294    1.3905   -2.7094 H   0  0  0  0  0  0  0  0  0  0  0  0
    0.4640    2.1970    0.1453 H   0  0  0  0  0  0  0  0  0  0  0  0
  1  2  1  0
  1  4  1  0
  2  3  2  0
  5  6  1  0
  5  8  1  0
  6  7  2  3
  7  9  1  0
M  RAD  1   7   2
M  END
>  <reaction>  (23) 
rmg_rxn_15442

>  <mol_properties>  (23) 
{"0": {"label": "*1", "atom_type": "O2s"}, "1": {"label": "*0", "atom_type": "N3d"}, "3": {"label": "*2", "atom_type": "H0"}, "5": {"label": "*4", "atom_type": "N3d"}, "6": {"label": "*3", "atom_type": "Cd"}}

>  <type>  (23) 
unop_19

>  <geom_source>  (23) 
gaussian_log

$$$$
