
     RDKit          3D

 14 14  0  0  0  0  0  0  0  0999 V2000
   -1.1778    0.2241    0.1818 C   0  0  0  0  0  0  0  0  0  0  0  0
   -0.5633   -1.1636    0.0678 C   0  0  0  0  0  0  0  0  0  0  0  0
    0.6943   -1.1996    0.7146 O   0  0  0  0  0  0  0  0  0  0  0  0
    1.5547   -0.2288    0.2011 C   0  0  0  0  0  0  0  0  0  0  0  0
    1.0729    1.0696    0.3698 O   0  0  0  0  0  0  0  0  0  0  0  0
   -0.1607    1.2493   -0.2989 C   0  0  0  0  0  0  0  0  0  0  0  0
   -2.0927    0.2866   -0.4117 H   0  0  0  0  0  0  0  0  0  0  0  0
   -1.4303    0.4248    1.2248 H   0  0  0  0  0  0  0  0  0  0  0  0
   -1.1822   -1.9235    0.5431 H   0  0  0  0  0  0  0  0  0  0  0  0
   -0.4389   -1.4347   -0.9919 H   0  0  0  0  0  0  0  0  0  0  0  0
    1.7250   -0.4207   -0.8742 H   0  0  0  0  0  0  0  0  0  0  0  0
    2.4896   -0.3010    0.7524 H   0  0  0  0  0  0  0  0  0  0  0  0
   -0.0080    1.1481   -1.3844 H   0  0  0  0  0  0  0  0  0  0  0  0
   -0.4826    2.2695   -0.0942 H   0  0  0  0  0  0  0  0  0  0  0  0
  1  2  1  0
  1  6  1  0
  1  7  1  0
  1  8  1  0
  2  3  1  0
  2  9  1  0
  2 10  1  0
  3  4  1  0
  4  5  1  0
  4 11  1  0
  4 12  1  0
  5  6  1  0
  6 13  1  0
  6 14  1  0
M  END
>  <reaction>  (1) 
rmg_rxn_352

>  <mol_properties>  (1) 
{"3": {"label": "donator", "atom_type": "Cs"}, "10": {"label": "d_hydrogen", "atom_type": "H0"}}

>  <type>  (1) 
r1h

$$$$

     RDKit          3D

  8  7  0  0  0  0  0  0  0  0999 V2000
    1.3778   -0.6812    0.2772 C   0  0  0  0  0  3  0  0  0  0  0  0
    0.4890    0.2108   -0.0590 C   0  0  0  0  0  0  0  0  0  0  0  0
   -1.0010    0.0286   -0.0323 C   0  0  0  0  0  0  0  0  0  0  0  0
    2.4535   -0.7507    0.3287 H   0  0  0  0  0  0  0  0  0  0  0  0
    0.8447    1.1899   -0.3945 H   0  0  0  0  0  0  0  0  0  0  0  0
   -1.4635    0.7638    0.6301 H   0  0  0  0  0  0  0  0  0  0  0  0
   -1.2709   -0.9687    0.3117 H   0  0  0  0  0  0  0  0  0  0  0  0
   -1.4218    0.1801   -1.0289 H   0  0  0  0  0  0  0  0  0  0  0  0
  1  2  2  3
  1  4  1  0
  2  3  1  0
  2  5  1  0
  3  6  1  0
  3  7  1  0
  3  8  1  0
M  RAD  1   1   2
M  END
>  <reaction>  (2) 
rmg_rxn_352

>  <mol_properties>  (2) 
{"0": {"label": "acceptor", "atom_type": "Cd"}}

>  <type>  (2) 
r2

$$$$

     RDKit          3D

  9  8  0  0  0  0  0  0  0  0999 V2000
    1.1303   -0.2933   -0.7510 C   0  0  0  0  0  0  0  0  0  0  0  0
    0.2866    0.4560   -0.0588 C   0  0  0  0  0  0  0  0  0  0  0  0
   -0.9719   -0.0331    0.5823 C   0  0  0  0  0  0  0  0  0  0  0  0
    2.0274    0.1230   -1.1916 H   0  0  0  0  0  0  0  0  0  0  0  0
    0.9532   -1.3530   -0.9023 H   0  0  0  0  0  0  0  0  0  0  0  0
    0.5065    1.5132    0.0659 H   0  0  0  0  0  0  0  0  0  0  0  0
   -0.9526    0.1426    1.6610 H   0  0  0  0  0  0  0  0  0  0  0  0
   -1.1182   -1.1002    0.4106 H   0  0  0  0  0  0  0  0  0  0  0  0
   -1.8412    0.5010    0.1901 H   0  0  0  0  0  0  0  0  0  0  0  0
  1  2  2  3
  1  4  1  0
  1  5  1  0
  2  3  1  0
  2  6  1  0
  3  7  1  0
  3  8  1  0
  3  9  1  0
M  END
>  <reaction>  (3) 
rmg_rxn_352

>  <mol_properties>  (3) 
{"0": {"label": "acceptor", "atom_type": "Cd"}, "8": {"label": "a_hydrogen", "atom_type": "H0"}}

>  <type>  (3) 
r2h

$$$$

     RDKit          3D

 22 21  0  0  0  0  0  0  0  0999 V2000
    0.9506    1.2990    1.1280 C   0  0  0  0  0  3  0  0  0  0  0  0
    1.4703    2.1283    0.2498 C   0  0  0  0  0  0  0  0  0  0  0  0
    2.6968    2.9707    0.4565 C   0  0  0  0  0  0  0  0  0  0  0  0
    1.3018    1.0791    2.1311 H   0  0  0  0  0  0  0  0  0  0  0  0
    0.9801    2.2333   -0.7183 H   0  0  0  0  0  0  0  0  0  0  0  0
    3.4556    2.7377   -0.2949 H   0  0  0  0  0  0  0  0  0  0  0  0
    3.1284    2.8111    1.4447 H   0  0  0  0  0  0  0  0  0  0  0  0
    2.4558    4.0315    0.3513 H   0  0  0  0  0  0  0  0  0  0  0  0
   -0.3315   -2.1878   -0.9602 C   0  0  0  0  0  0  0  0  0  0  0  0
   -0.5183   -2.0258    0.5396 C   0  0  0  0  0  0  0  0  0  0  0  0
   -1.5534   -1.0931    0.8063 O   0  0  0  0  0  0  0  0  0  0  0  0
   -1.3352    0.1249    0.1916 C   0  0  0  0  0  0  0  0  0  0  0  0
   -1.1763    0.0639   -1.1807 O   0  0  0  0  0  0  0  0  0  0  0  0
   -0.1293   -0.8115   -1.5731 C   0  0  0  0  0  0  0  0  0  0  0  0
    0.5303   -2.8251   -1.1693 H   0  0  0  0  0  0  0  0  0  0  0  0
   -1.2185   -2.6570   -1.3907 H   0  0  0  0  0  0  0  0  0  0  0  0
   -0.8133   -2.9580    1.0186 H   0  0  0  0  0  0  0  0  0  0  0  0
    0.4139   -1.6743    1.0019 H   0  0  0  0  0  0  0  0  0  0  0  0
   -0.3033    0.6348    0.6833 H   0  0  0  0  0  0  0  0  0  0  0  0
   -2.1708    0.7844    0.4157 H   0  0  0  0  0  0  0  0  0  0  0  0
    0.8320   -0.3915   -1.2509 H   0  0  0  0  0  0  0  0  0  0  0  0
   -0.1493   -0.8424   -2.6614 H   0  0  0  0  0  0  0  0  0  0  0  0
  1  2  2  3
  1  4  1  0
  2  3  1  0
  2  5  1  0
  3  6  1  0
  3  7  1  0
  3  8  1  0
  9 10  1  0
  9 14  1  0
  9 15  1  0
  9 16  1  0
 10 11  1  0
 10 17  1  0
 10 18  1  0
 11 12  1  0
 12 13  1  0
 12 19  1  0
 12 20  1  0
 13 14  1  0
 14 21  1  0
 14 22  1  0
M  RAD  1   1   2
M  END
>  <reaction>  (4) 
rmg_rxn_352

>  <mol_properties>  (4) 
{"0": {"label": "*3", "atom_type": "Cd"}, "1": {"label": "*4", "atom_type": "Cd"}, "10": {"label": "*0", "atom_type": "O2s"}, "11": {"label": "*1", "atom_type": "Cs"}, "18": {"label": "*2", "atom_type": "H0"}}

>  <type>  (4) 
ts

$$$$

     RDKit          3D

 22 21  0  0  0  0  0  0  0  0999 V2000
    0.9599    1.1673    1.1990 C   0  0  0  0  0  0  0  0  0  0  0  0
    1.8602    1.5861    0.3236 C   0  0  0  0  0  0  0  0  0  0  0  0
    2.5821    2.8933    0.3902 C   0  0  0  0  0  0  0  0  0  0  0  0
    0.6784    1.7719    2.0547 H   0  0  0  0  0  0  0  0  0  0  0  0
    2.1098    0.9451   -0.5181 H   0  0  0  0  0  0  0  0  0  0  0  0
    3.6629    2.7384    0.4429 H   0  0  0  0  0  0  0  0  0  0  0  0
    2.2754    3.4741    1.2610 H   0  0  0  0  0  0  0  0  0  0  0  0
    2.3910    3.4892   -0.5059 H   0  0  0  0  0  0  0  0  0  0  0  0
   -0.3519   -2.0187   -1.0859 C   0  0  0  0  0  0  0  0  0  0  0  0
   -0.3519   -2.0187    0.4361 C   0  0  0  0  0  0  0  0  0  0  0  0
   -1.4002   -1.2061    0.9282 O   0  0  0  0  0  0  0  0  0  0  0  0
   -1.3093    0.0935    0.4289 C   0  0  0  0  0  3  0  0  0  0  0  0
   -1.4002    0.1497   -0.9622 O   0  0  0  0  0  0  0  0  0  0  0  0
   -0.3519   -0.5770   -1.5740 C   0  0  0  0  0  0  0  0  0  0  0  0
    0.5221   -2.5512   -1.4678 H   0  0  0  0  0  0  0  0  0  0  0  0
   -1.2485   -2.5249   -1.4489 H   0  0  0  0  0  0  0  0  0  0  0  0
   -0.5108   -3.0162    0.8434 H   0  0  0  0  0  0  0  0  0  0  0  0
    0.6117   -1.6427    0.8128 H   0  0  0  0  0  0  0  0  0  0  0  0
   -0.1629    0.6360    0.8179 H   0  0  0  0  0  0  0  0  0  0  0  0
   -2.1503    0.6540    0.8309 H   0  0  0  0  0  0  0  0  0  0  0  0
    0.6117   -0.0997   -1.3387 H   0  0  0  0  0  0  0  0  0  0  0  0
   -0.5108   -0.5111   -2.6495 H   0  0  0  0  0  0  0  0  0  0  0  0
  1  2  2  3
  1  4  1  0
  1 19  1  0
  2  3  1  0
  2  5  1  0
  3  6  1  0
  3  7  1  0
  3  8  1  0
  9 10  1  0
  9 14  1  0
  9 15  1  0
  9 16  1  0
 10 11  1  0
 10 17  1  0
 10 18  1  0
 11 12  1  0
 12 13  1  0
 12 20  1  0
 13 14  1  0
 14 21  1  0
 14 22  1  0
M  RAD  1  12   2
M  END
>  <reaction>  (5) 
rmg_rxn_352

>  <mol_properties>  (5) 
{"0": {"label": "*3", "atom_type": "Cd"}, "1": {"label": "*4", "atom_type": "Cd"}, "10": {"label": "*0", "atom_type": "O2s"}, "11": {"label": "*1", "atom_type": "Cs"}, "18": {"label": "*2", "atom_type": "H0"}}

>  <type>  (5) 
unop_1

>  <geom_source>  (5) 
Heuristics

$$$$

     RDKit          3D

 22 21  0  0  0  0  0  0  0  0999 V2000
    0.8383    1.5144    0.9633 C   0  0  0  0  0  0  0  0  0  0  0  0
    1.9176    0.7771    1.1726 C   0  0  0  0  0  0  0  0  0  0  0  0
    3.3166    1.2991    1.2397 C   0  0  0  0  0  0  0  0  0  0  0  0
    0.9050    2.5879    0.8216 H   0  0  0  0  0  0  0  0  0  0  0  0
    1.8008   -0.2950    1.3092 H   0  0  0  0  0  0  0  0  0  0  0  0
    3.7712    1.0700    2.2070 H   0  0  0  0  0  0  0  0  0  0  0  0
    3.3464    2.3795    1.0933 H   0  0  0  0  0  0  0  0  0  0  0  0
    3.9434    0.8308    0.4765 H   0  0  0  0  0  0  0  0  0  0  0  0
   -0.4736   -1.6716   -1.3216 C   0  0  0  0  0  0  0  0  0  0  0  0
   -0.4736   -1.6716    0.2004 C   0  0  0  0  0  0  0  0  0  0  0  0
   -1.5218   -0.8590    0.6925 O   0  0  0  0  0  0  0  0  0  0  0  0
   -1.4309    0.4406    0.1932 C   0  0  0  0  0  3  0  0  0  0  0  0
   -1.5218    0.4968   -1.1978 O   0  0  0  0  0  0  0  0  0  0  0  0
   -0.4736   -0.2299   -1.8097 C   0  0  0  0  0  0  0  0  0  0  0  0
    0.4004   -2.2040   -1.7035 H   0  0  0  0  0  0  0  0  0  0  0  0
   -1.3701   -2.1777   -1.6846 H   0  0  0  0  0  0  0  0  0  0  0  0
   -0.6325   -2.6691    0.6078 H   0  0  0  0  0  0  0  0  0  0  0  0
    0.4901   -1.2956    0.5772 H   0  0  0  0  0  0  0  0  0  0  0  0
   -0.2845    0.9831    0.5823 H   0  0  0  0  0  0  0  0  0  0  0  0
   -2.2720    1.0011    0.5952 H   0  0  0  0  0  0  0  0  0  0  0  0
    0.4901    0.2475   -1.5744 H   0  0  0  0  0  0  0  0  0  0  0  0
   -0.6325   -0.1640   -2.8852 H   0  0  0  0  0  0  0  0  0  0  0  0
  1  2  2  3
  1  4  1  0
  1 19  1  0
  2  3  1  0
  2  5  1  0
  3  6  1  0
  3  7  1  0
  3  8  1  0
  9 10  1  0
  9 14  1  0
  9 15  1  0
  9 16  1  0
 10 11  1  0
 10 17  1  0
 10 18  1  0
 11 12  1  0
 12 13  1  0
 12 20  1  0
 13 14  1  0
 14 21  1  0
 14 22  1  0
M  RAD  1  12   2
M  END
>  <reaction>  (6) 
rmg_rxn_352

>  <mol_properties>  (6) 
{"0": {"label": "*3", "atom_type": "Cd"}, "1": {"label": "*4", "atom_type": "Cd"}, "10": {"label": "*0", "atom_type": "O2s"}, "11": {"label": "*1", "atom_type": "Cs"}, "18": {"label": "*2", "atom_type": "H0"}}

>  <type>  (6) 
unop_2

>  <geom_source>  (6) 
Heuristics

$$$$

     RDKit          3D

 22 21  0  0  0  0  0  0  0  0999 V2000
    1.0193    1.0753    1.1106 C   0  0  0  0  0  0  0  0  0  0  0  0
    1.6388    1.9863    0.3766 C   0  0  0  0  0  0  0  0  0  0  0  0
    2.3739    3.1710    0.9154 C   0  0  0  0  0  0  0  0  0  0  0  0
    1.0062    1.1346    2.1938 H   0  0  0  0  0  0  0  0  0  0  0  0
    1.6246    1.8847   -0.7056 H   0  0  0  0  0  0  0  0  0  0  0  0
    3.4214    3.1536    0.6033 H   0  0  0  0  0  0  0  0  0  0  0  0
    2.3405    3.1990    2.0052 H   0  0  0  0  0  0  0  0  0  0  0  0
    1.9453    4.1012    0.5337 H   0  0  0  0  0  0  0  0  0  0  0  0
   -0.2925   -2.1106   -1.1744 C   0  0  0  0  0  0  0  0  0  0  0  0
   -0.2925   -2.1106    0.3477 C   0  0  0  0  0  0  0  0  0  0  0  0
   -1.3408   -1.2980    0.8398 O   0  0  0  0  0  0  0  0  0  0  0  0
   -1.2499    0.0016    0.3405 C   0  0  0  0  0  3  0  0  0  0  0  0
   -1.3408    0.0577   -1.0506 O   0  0  0  0  0  0  0  0  0  0  0  0
   -0.2925   -0.6690   -1.6625 C   0  0  0  0  0  0  0  0  0  0  0  0
    0.5815   -2.6431   -1.5562 H   0  0  0  0  0  0  0  0  0  0  0  0
   -1.1891   -2.6168   -1.5374 H   0  0  0  0  0  0  0  0  0  0  0  0
   -0.4515   -3.1081    0.7550 H   0  0  0  0  0  0  0  0  0  0  0  0
    0.6711   -1.7346    0.7244 H   0  0  0  0  0  0  0  0  0  0  0  0
   -0.1035    0.5440    0.7295 H   0  0  0  0  0  0  0  0  0  0  0  0
   -2.0910    0.5621    0.7425 H   0  0  0  0  0  0  0  0  0  0  0  0
    0.6711   -0.1916   -1.4272 H   0  0  0  0  0  0  0  0  0  0  0  0
   -0.4515   -0.6030   -2.7379 H   0  0  0  0  0  0  0  0  0  0  0  0
  1  2  2  3
  1  4  1  0
  1 19  1  0
  2  3  1  0
  2  5  1  0
  3  6  1  0
  3  7  1  0
  3  8  1  0
  9 10  1  0
  9 14  1  0
  9 15  1  0
  9 16  1  0
 10 11  1  0
 10 17  1  0
 10 18  1  0
 11 12  1  0
 12 13  1  0
 12 20  1  0
 13 14  1  0
 14 21  1  0
 14 22  1  0
M  RAD  1  12   2
M  END
>  <reaction>  (7) 
rmg_rxn_352

>  <mol_properties>  (7) 
{"0": {"label": "*3", "atom_type": "Cd"}, "1": {"label": "*4", "atom_type": "Cd"}, "10": {"label": "*0", "atom_type": "O2s"}, "11": {"label": "*1", "atom_type": "Cs"}, "18": {"label": "*2", "atom_type": "H0"}}

>  <type>  (7) 
unop_3

>  <geom_source>  (7) 
Heuristics

$$$$

     RDKit          3D

 22 21  0  0  0  0  0  0  0  0999 V2000
    1.0791    1.2501    0.6688 C   0  0  0  0  0  0  0  0  0  0  0  0
    1.3758    1.3976    1.9504 C   0  0  0  0  0  0  0  0  0  0  0  0
    2.1953    2.5095    2.5215 C   0  0  0  0  0  0  0  0  0  0  0  0
    1.4269    1.9564   -0.0777 H   0  0  0  0  0  0  0  0  0  0  0  0
    1.0046    0.6640    2.6615 H   0  0  0  0  0  0  0  0  0  0  0  0
    1.6227    3.0743    3.2616 H   0  0  0  0  0  0  0  0  0  0  0  0
    2.5276    3.1995    1.7448 H   0  0  0  0  0  0  0  0  0  0  0  0
    3.0775    2.1184    3.0349 H   0  0  0  0  0  0  0  0  0  0  0  0
   -0.2327   -1.9359   -1.6161 C   0  0  0  0  0  0  0  0  0  0  0  0
   -0.2327   -1.9359   -0.0941 C   0  0  0  0  0  0  0  0  0  0  0  0
   -1.2810   -1.1233    0.3980 O   0  0  0  0  0  0  0  0  0  0  0  0
   -1.1901    0.1763   -0.1013 C   0  0  0  0  0  3  0  0  0  0  0  0
   -1.2810    0.2325   -1.4924 O   0  0  0  0  0  0  0  0  0  0  0  0
   -0.2327   -0.4943   -2.1042 C   0  0  0  0  0  0  0  0  0  0  0  0
    0.6413   -2.4684   -1.9980 H   0  0  0  0  0  0  0  0  0  0  0  0
   -1.1293   -2.4421   -1.9791 H   0  0  0  0  0  0  0  0  0  0  0  0
   -0.3917   -2.9334    0.3132 H   0  0  0  0  0  0  0  0  0  0  0  0
    0.7309   -1.5599    0.2826 H   0  0  0  0  0  0  0  0  0  0  0  0
   -0.0437    0.7187    0.2877 H   0  0  0  0  0  0  0  0  0  0  0  0
   -2.0312    0.7368    0.3007 H   0  0  0  0  0  0  0  0  0  0  0  0
    0.7309   -0.0169   -1.8689 H   0  0  0  0  0  0  0  0  0  0  0  0
   -0.3917   -0.4283   -3.1797 H   0  0  0  0  0  0  0  0  0  0  0  0
  1  2  2  3
  1  4  1  0
  1 19  1  0
  2  3  1  0
  2  5  1  0
  3  6  1  0
  3  7  1  0
  3  8  1  0
  9 10  1  0
  9 14  1  0
  9 15  1  0
  9 16  1  0
 10 11  1  0
 10 17  1  0
 10 18  1  0
 11 12  1  0
 12 13  1  0
 12 20  1  0
 13 14  1  0
 14 21  1  0
 14 22  1  0
M  RAD  1  12   2
M  END
>  <reaction>  (8) 
rmg_rxn_352

>  <mol_properties>  (8) 
{"0": {"label": "*3", "atom_type": "Cd"}, "1": {"label": "*4", "atom_type": "Cd"}, "10": {"label": "*0", "atom_type": "O2s"}, "11": {"label": "*1", "atom_type": "Cs"}, "18": {"label": "*2", "atom_type": "H0"}}

>  <type>  (8) 
unop_4

>  <geom_source>  (8) 
Heuristics

$$$$

     RDKit          3D

 22 21  0  0  0  0  0  0  0  0999 V2000
    1.0165    1.0655    1.0432 C   0  0  0  0  0  0  0  0  0  0  0  0
    1.3495    2.3004    0.7017 C   0  0  0  0  0  0  0  0  0  0  0  0
    2.6166    2.9896    1.0939 C   0  0  0  0  0  0  0  0  0  0  0  0
    1.6697    0.4516    1.6544 H   0  0  0  0  0  0  0  0  0  0  0  0
    0.6624    2.8772    0.0880 H   0  0  0  0  0  0  0  0  0  0  0  0
    3.1855    3.2899    0.2102 H   0  0  0  0  0  0  0  0  0  0  0  0
    3.2481    2.3448    1.7063 H   0  0  0  0  0  0  0  0  0  0  0  0
    2.4047    3.9011    1.6588 H   0  0  0  0  0  0  0  0  0  0  0  0
   -0.2953   -2.1204   -1.2417 C   0  0  0  0  0  0  0  0  0  0  0  0
   -0.2953   -2.1204    0.2804 C   0  0  0  0  0  0  0  0  0  0  0  0
   -1.3436   -1.3078    0.7725 O   0  0  0  0  0  0  0  0  0  0  0  0
   -1.2527   -0.0082    0.2731 C   0  0  0  0  0  3  0  0  0  0  0  0
   -1.3436    0.0480   -1.1179 O   0  0  0  0  0  0  0  0  0  0  0  0
   -0.2953   -0.6788   -1.7298 C   0  0  0  0  0  0  0  0  0  0  0  0
    0.5787   -2.6529   -1.6236 H   0  0  0  0  0  0  0  0  0  0  0  0
   -1.1919   -2.6266   -1.6047 H   0  0  0  0  0  0  0  0  0  0  0  0
   -0.4543   -3.1179    0.6877 H   0  0  0  0  0  0  0  0  0  0  0  0
    0.6683   -1.7444    0.6571 H   0  0  0  0  0  0  0  0  0  0  0  0
   -0.1063    0.5342    0.6622 H   0  0  0  0  0  0  0  0  0  0  0  0
   -2.0937    0.5523    0.6751 H   0  0  0  0  0  0  0  0  0  0  0  0
    0.6683   -0.2014   -1.4945 H   0  0  0  0  0  0  0  0  0  0  0  0
   -0.4543   -0.6128   -2.8053 H   0  0  0  0  0  0  0  0  0  0  0  0
  1  2  2  3
  1  4  1  0
  1 19  1  0
  2  3  1  0
  2  5  1  0
  3  6  1  0
  3  7  1  0
  3  8  1  0
  9 10  1  0
  9 14  1  0
  9 15  1  0
  9 16  1  0
 10 11  1  0
 10 17  1  0
 10 18  1  0
 11 12  1  0
 12 13  1  0
 12 20  1  0
 13 14  1  0
 14 21  1  0
 14 22  1  0
M  RAD  1  12   2
M  END
>  <reaction>  (9) 
rmg_rxn_352

>  <mol_properties>  (9) 
{"0": {"label": "*3", "atom_type": "Cd"}, "1": {"label": "*4", "atom_type": "Cd"}, "10": {"label": "*0", "atom_type": "O2s"}, "11": {"label": "*1", "atom_type": "Cs"}, "18": {"label": "*2", "atom_type": "H0"}}

>  <type>  (9) 
unop_5

>  <geom_source>  (9) 
Heuristics

$$$$

     RDKit          3D

 22 21  0  0  0  0  0  0  0  0999 V2000
    1.1311    1.1146    0.7490 C   0  0  0  0  0  0  0  0  0  0  0  0
    1.2279    1.7906    1.8831 C   0  0  0  0  0  0  0  0  0  0  0  0
    1.9770    3.0718    2.0599 C   0  0  0  0  0  0  0  0  0  0  0  0
    1.6096    1.4631   -0.1602 H   0  0  0  0  0  0  0  0  0  0  0  0
    0.7312    1.4017    2.7683 H   0  0  0  0  0  0  0  0  0  0  0  0
    1.3108    3.8678    2.4024 H   0  0  0  0  0  0  0  0  0  0  0  0
    2.4444    3.3923    1.1279 H   0  0  0  0  0  0  0  0  0  0  0  0
    2.7576    2.9646    2.8174 H   0  0  0  0  0  0  0  0  0  0  0  0
   -0.1807   -2.0714   -1.5359 C   0  0  0  0  0  0  0  0  0  0  0  0
   -0.1807   -2.0714   -0.0138 C   0  0  0  0  0  0  0  0  0  0  0  0
   -1.2290   -1.2588    0.4783 O   0  0  0  0  0  0  0  0  0  0  0  0
   -1.1381    0.0408   -0.0211 C   0  0  0  0  0  3  0  0  0  0  0  0
   -1.2290    0.0970   -1.4121 O   0  0  0  0  0  0  0  0  0  0  0  0
   -0.1807   -0.6297   -2.0240 C   0  0  0  0  0  0  0  0  0  0  0  0
    0.6933   -2.6038   -1.9177 H   0  0  0  0  0  0  0  0  0  0  0  0
   -1.0773   -2.5775   -1.8989 H   0  0  0  0  0  0  0  0  0  0  0  0
   -0.3396   -3.0689    0.3935 H   0  0  0  0  0  0  0  0  0  0  0  0
    0.7829   -1.6954    0.3629 H   0  0  0  0  0  0  0  0  0  0  0  0
    0.0084    0.5833    0.3680 H   0  0  0  0  0  0  0  0  0  0  0  0
   -1.9791    0.6013    0.3809 H   0  0  0  0  0  0  0  0  0  0  0  0
    0.7829   -0.1523   -1.7887 H   0  0  0  0  0  0  0  0  0  0  0  0
   -0.3396   -0.5638   -3.0994 H   0  0  0  0  0  0  0  0  0  0  0  0
  1  2  2  3
  1  4  1  0
  1 19  1  0
  2  3  1  0
  2  5  1  0
  3  6  1  0
  3  7  1  0
  3  8  1  0
  9 10  1  0
  9 14  1  0
  9 15  1  0
  9 16  1  0
 10 11  1  0
 10 17  1  0
 10 18  1  0
 11 12  1  0
 12 13  1  0
 12 20  1  0
 13 14  1  0
 14 21  1  0
 14 22  1  0
M  RAD  1  12   2
M  END
>  <reaction>  (10) 
rmg_rxn_352

>  <mol_properties>  (10) 
{"0": {"label": "*3", "atom_type": "Cd"}, "1": {"label": "*4", "atom_type": "Cd"}, "10": {"label": "*0", "atom_type": "O2s"}, "11": {"label": "*1", "atom_type": "Cs"}, "18": {"label": "*2", "atom_type": "H0"}}

>  <type>  (10) 
unop_6

>  <geom_source>  (10) 
Heuristics

$$$$

     RDKit          3D

 22 21  0  0  0  0  0  0  0  0999 V2000
    1.1282    1.0356    0.8869 C   0  0  0  0  0  0  0  0  0  0  0  0
    1.1594    2.1347    1.6239 C   0  0  0  0  0  0  0  0  0  0  0  0
    2.0494    3.3103    1.3786 C   0  0  0  0  0  0  0  0  0  0  0  0
    1.7735    0.9147    0.0232 H   0  0  0  0  0  0  0  0  0  0  0  0
    0.4938    2.2101    2.4800 H   0  0  0  0  0  0  0  0  0  0  0  0
    1.4606    4.2175    1.2202 H   0  0  0  0  0  0  0  0  0  0  0  0
    2.6832    3.1550    0.5046 H   0  0  0  0  0  0  0  0  0  0  0  0
    2.6932    3.4974    2.2419 H   0  0  0  0  0  0  0  0  0  0  0  0
   -0.1837   -2.1504   -1.3980 C   0  0  0  0  0  0  0  0  0  0  0  0
   -0.1837   -2.1504    0.1240 C   0  0  0  0  0  0  0  0  0  0  0  0
   -1.2320   -1.3378    0.6161 O   0  0  0  0  0  0  0  0  0  0  0  0
   -1.1410   -0.0382    0.1168 C   0  0  0  0  0  3  0  0  0  0  0  0
   -1.2320    0.0180   -1.2743 O   0  0  0  0  0  0  0  0  0  0  0  0
   -0.1837   -0.7087   -1.8861 C   0  0  0  0  0  0  0  0  0  0  0  0
    0.6903   -2.6828   -1.7799 H   0  0  0  0  0  0  0  0  0  0  0  0
   -1.0802   -2.6565   -1.7610 H   0  0  0  0  0  0  0  0  0  0  0  0
   -0.3426   -3.1479    0.5313 H   0  0  0  0  0  0  0  0  0  0  0  0
    0.7800   -1.7744    0.5007 H   0  0  0  0  0  0  0  0  0  0  0  0
    0.0054    0.5043    0.5058 H   0  0  0  0  0  0  0  0  0  0  0  0
   -1.9821    0.5223    0.5188 H   0  0  0  0  0  0  0  0  0  0  0  0
    0.7800   -0.2313   -1.6508 H   0  0  0  0  0  0  0  0  0  0  0  0
   -0.3426   -0.6428   -2.9616 H   0  0  0  0  0  0  0  0  0  0  0  0
  1  2  2  3
  1  4  1  0
  1 19  1  0
  2  3  1  0
  2  5  1  0
  3  6  1  0
  3  7  1  0
  3  8  1  0
  9 10  1  0
  9 14  1  0
  9 15  1  0
  9 16  1  0
 10 11  1  0
 10 17  1  0
 10 18  1  0
 11 12  1  0
 12 13  1  0
 12 20  1  0
 13 14  1  0
 14 21  1  0
 14 22  1  0
M  RAD  1  12   2
M  END
>  <reaction>  (11) 
rmg_rxn_352

>  <mol_properties>  (11) 
{"0": {"label": "*3", "atom_type": "Cd"}, "1": {"label": "*4", "atom_type": "Cd"}, "10": {"label": "*0", "atom_type": "O2s"}, "11": {"label": "*1", "atom_type": "Cs"}, "18": {"label": "*2", "atom_type": "H0"}}

>  <type>  (11) 
unop_7

>  <geom_source>  (11) 
Heuristics

$$$$

     RDKit          3D

 22 21  0  0  0  0  0  0  0  0999 V2000
    0.8850    1.3072    1.2057 C   0  0  0  0  0  0  0  0  0  0  0  0
    1.9853    1.1977    0.4779 C   0  0  0  0  0  0  0  0  0  0  0  0
    2.9647    2.2987    0.2276 C   0  0  0  0  0  0  0  0  0  0  0  0
    0.6146    2.2419    1.6856 H   0  0  0  0  0  0  0  0  0  0  0  0
    2.2146    0.2406    0.0164 H   0  0  0  0  0  0  0  0  0  0  0  0
    3.9593    2.0239    0.5881 H   0  0  0  0  0  0  0  0  0  0  0  0
    2.6622    3.2217    0.7238 H   0  0  0  0  0  0  0  0  0  0  0  0
    3.0600    2.4985   -0.8428 H   0  0  0  0  0  0  0  0  0  0  0  0
   -0.4268   -1.8787   -1.0792 C   0  0  0  0  0  0  0  0  0  0  0  0
   -0.4268   -1.8787    0.4428 C   0  0  0  0  0  0  0  0  0  0  0  0
   -1.4751   -1.0661    0.9349 O   0  0  0  0  0  0  0  0  0  0  0  0
   -1.3842    0.2334    0.4356 C   0  0  0  0  0  3  0  0  0  0  0  0
   -1.4751    0.2896   -0.9555 O   0  0  0  0  0  0  0  0  0  0  0  0
   -0.4268   -0.4371   -1.5673 C   0  0  0  0  0  0  0  0  0  0  0  0
    0.4472   -2.4112   -1.4611 H   0  0  0  0  0  0  0  0  0  0  0  0
   -1.3234   -2.3849   -1.4423 H   0  0  0  0  0  0  0  0  0  0  0  0
   -0.5858   -2.8762    0.8501 H   0  0  0  0  0  0  0  0  0  0  0  0
    0.5368   -1.5027    0.8195 H   0  0  0  0  0  0  0  0  0  0  0  0
   -0.2378    0.7759    0.8246 H   0  0  0  0  0  0  0  0  0  0  0  0
   -2.2253    0.7940    0.8376 H   0  0  0  0  0  0  0  0  0  0  0  0
    0.5368    0.0403   -1.3321 H   0  0  0  0  0  0  0  0  0  0  0  0
   -0.5858   -0.3711   -2.6428 H   0  0  0  0  0  0  0  0  0  0  0  0
  1  2  2  3
  1  4  1  0
  1 19  1  0
  2  3  1  0
  2  5  1  0
  3  6  1  0
  3  7  1  0
  3  8  1  0
  9 10  1  0
  9 14  1  0
  9 15  1  0
  9 16  1  0
 10 11  1  0
 10 17  1  0
 10 18  1  0
 11 12  1  0
 12 13  1  0
 12 20  1  0
 13 14  1  0
 14 21  1  0
 14 22  1  0
M  RAD  1  12   2
M  END
>  <reaction>  (12) 
rmg_rxn_352

>  <mol_properties>  (12) 
{"0": {"label": "*3", "atom_type": "Cd"}, "1": {"label": "*4", "atom_type": "Cd"}, "10": {"label": "*0", "atom_type": "O2s"}, "11": {"label": "*1", "atom_type": "Cs"}, "18": {"label": "*2", "atom_type": "H0"}}

>  <type>  (12) 
unop_8

>  <geom_source>  (12) 
Heuristics

$$$$

     RDKit          3D

 22 21  0  0  0  0  0  0  0  0999 V2000
    0.9892    1.3963    0.6834 C   0  0  0  0  0  0  0  0  0  0  0  0
    1.5667    1.0517    1.8236 C   0  0  0  0  0  0  0  0  0  0  0  0
    2.6230    1.8420    2.5264 C   0  0  0  0  0  0  0  0  0  0  0  0
    1.2579    2.3117    0.1668 H   0  0  0  0  0  0  0  0  0  0  0  0
    1.2643    0.1250    2.3045 H   0  0  0  0  0  0  0  0  0  0  0  0
    2.2965    2.1199    3.5318 H   0  0  0  0  0  0  0  0  0  0  0  0
    2.8682    2.7538    1.9804 H   0  0  0  0  0  0  0  0  0  0  0  0
    3.5368    1.2534    2.6418 H   0  0  0  0  0  0  0  0  0  0  0  0
   -0.3227   -1.7897   -1.6015 C   0  0  0  0  0  0  0  0  0  0  0  0
   -0.3227   -1.7897   -0.0795 C   0  0  0  0  0  0  0  0  0  0  0  0
   -1.3710   -0.9771    0.4126 O   0  0  0  0  0  0  0  0  0  0  0  0
   -1.2800    0.3225   -0.0867 C   0  0  0  0  0  3  0  0  0  0  0  0
   -1.3710    0.3787   -1.4777 O   0  0  0  0  0  0  0  0  0  0  0  0
   -0.3227   -0.3480   -2.0896 C   0  0  0  0  0  0  0  0  0  0  0  0
    0.5513   -2.3221   -1.9834 H   0  0  0  0  0  0  0  0  0  0  0  0
   -1.2192   -2.2958   -1.9645 H   0  0  0  0  0  0  0  0  0  0  0  0
   -0.4816   -2.7872    0.3279 H   0  0  0  0  0  0  0  0  0  0  0  0
    0.6410   -1.4137    0.2972 H   0  0  0  0  0  0  0  0  0  0  0  0
   -0.1336    0.8650    0.3024 H   0  0  0  0  0  0  0  0  0  0  0  0
   -2.1211    0.8830    0.3153 H   0  0  0  0  0  0  0  0  0  0  0  0
    0.6410    0.1294   -1.8543 H   0  0  0  0  0  0  0  0  0  0  0  0
   -0.4816   -0.2821   -3.1651 H   0  0  0  0  0  0  0  0  0  0  0  0
  1  2  2  3
  1  4  1  0
  1 19  1  0
  2  3  1  0
  2  5  1  0
  3  6  1  0
  3  7  1  0
  3  8  1  0
  9 10  1  0
  9 14  1  0
  9 15  1  0
  9 16  1  0
 10 11  1  0
 10 17  1  0
 10 18  1  0
 11 12  1  0
 12 13  1  0
 12 20  1  0
 13 14  1  0
 14 21  1  0
 14 22  1  0
M  RAD  1  12   2
M  END
>  <reaction>  (13) 
rmg_rxn_352

>  <mol_properties>  (13) 
{"0": {"label": "*3", "atom_type": "Cd"}, "1": {"label": "*4", "atom_type": "Cd"}, "10": {"label": "*0", "atom_type": "O2s"}, "11": {"label": "*1", "atom_type": "Cs"}, "18": {"label": "*2", "atom_type": "H0"}}

>  <type>  (13) 
unop_9

>  <geom_source>  (13) 
Heuristics

$$$$

     RDKit          3D

 22 21  0  0  0  0  0  0  0  0999 V2000
    0.8366    1.4399    1.1187 C   0  0  0  0  0  0  0  0  0  0  0  0
    2.0024    0.9071    0.7879 C   0  0  0  0  0  0  0  0  0  0  0  0
    3.2613    1.6752    0.5439 C   0  0  0  0  0  0  0  0  0  0  0  0
    0.7176    2.5116    1.2382 H   0  0  0  0  0  0  0  0  0  0  0  0
    2.0729   -0.1722    0.6796 H   0  0  0  0  0  0  0  0  0  0  0  0
    4.0501    1.3571    1.2304 H   0  0  0  0  0  0  0  0  0  0  0  0
    3.1056    2.7470    0.6725 H   0  0  0  0  0  0  0  0  0  0  0  0
    3.6335    1.5003   -0.4688 H   0  0  0  0  0  0  0  0  0  0  0  0
   -0.4752   -1.7461   -1.1663 C   0  0  0  0  0  0  0  0  0  0  0  0
   -0.4752   -1.7461    0.3558 C   0  0  0  0  0  0  0  0  0  0  0  0
   -1.5235   -0.9335    0.8479 O   0  0  0  0  0  0  0  0  0  0  0  0
   -1.4326    0.3661    0.3486 C   0  0  0  0  0  3  0  0  0  0  0  0
   -1.5235    0.4223   -1.0425 O   0  0  0  0  0  0  0  0  0  0  0  0
   -0.4752   -0.3044   -1.6544 C   0  0  0  0  0  0  0  0  0  0  0  0
    0.3988   -2.2785   -1.5481 H   0  0  0  0  0  0  0  0  0  0  0  0
   -1.3718   -2.2522   -1.5293 H   0  0  0  0  0  0  0  0  0  0  0  0
   -0.6342   -2.7436    0.7631 H   0  0  0  0  0  0  0  0  0  0  0  0
    0.4884   -1.3701    0.7325 H   0  0  0  0  0  0  0  0  0  0  0  0
   -0.2862    0.9086    0.7376 H   0  0  0  0  0  0  0  0  0  0  0  0
   -2.2736    0.9266    0.7505 H   0  0  0  0  0  0  0  0  0  0  0  0
    0.4884    0.1730   -1.4191 H   0  0  0  0  0  0  0  0  0  0  0  0
   -0.6342   -0.2385   -2.7298 H   0  0  0  0  0  0  0  0  0  0  0  0
  1  2  2  3
  1  4  1  0
  1 19  1  0
  2  3  1  0
  2  5  1  0
  3  6  1  0
  3  7  1  0
  3  8  1  0
  9 10  1  0
  9 14  1  0
  9 15  1  0
  9 16  1  0
 10 11  1  0
 10 17  1  0
 10 18  1  0
 11 12  1  0
 12 13  1  0
 12 20  1  0
 13 14  1  0
 14 21  1  0
 14 22  1  0
M  RAD  1  12   2
M  END
>  <reaction>  (14) 
rmg_rxn_352

>  <mol_properties>  (14) 
{"0": {"label": "*3", "atom_type": "Cd"}, "1": {"label": "*4", "atom_type": "Cd"}, "10": {"label": "*0", "atom_type": "O2s"}, "11": {"label": "*1", "atom_type": "Cs"}, "18": {"label": "*2", "atom_type": "H0"}}

>  <type>  (14) 
unop_10

>  <geom_source>  (14) 
Heuristics

$$$$

     RDKit          3D

 22 21  0  0  0  0  0  0  0  0999 V2000
    1.0707    1.0351    1.0153 C   0  0  0  0  0  0  0  0  0  0  0  0
    1.1884    2.3389    1.2122 C   0  0  0  0  0  0  0  0  0  0  0  0
    2.3951    3.1544    0.8762 C   0  0  0  0  0  0  0  0  0  0  0  0
    1.8763    0.4535    0.5797 H   0  0  0  0  0  0  0  0  0  0  0  0
    0.3540    2.8794    1.6518 H   0  0  0  0  0  0  0  0  0  0  0  0
    2.1440    3.9457    0.1651 H   0  0  0  0  0  0  0  0  0  0  0  0
    3.1836    2.5391    0.4411 H   0  0  0  0  0  0  0  0  0  0  0  0
    2.7936    3.6450    1.7680 H   0  0  0  0  0  0  0  0  0  0  0  0
   -0.2412   -2.1508   -1.2696 C   0  0  0  0  0  0  0  0  0  0  0  0
   -0.2412   -2.1508    0.2524 C   0  0  0  0  0  0  0  0  0  0  0  0
   -1.2895   -1.3382    0.7445 O   0  0  0  0  0  0  0  0  0  0  0  0
   -1.1985   -0.0386    0.2452 C   0  0  0  0  0  3  0  0  0  0  0  0
   -1.2895    0.0175   -1.1459 O   0  0  0  0  0  0  0  0  0  0  0  0
   -0.2412   -0.7092   -1.7577 C   0  0  0  0  0  0  0  0  0  0  0  0
    0.6328   -2.6833   -1.6515 H   0  0  0  0  0  0  0  0  0  0  0  0
   -1.1377   -2.6570   -1.6326 H   0  0  0  0  0  0  0  0  0  0  0  0
   -0.4001   -3.1483    0.6597 H   0  0  0  0  0  0  0  0  0  0  0  0
    0.7225   -1.7748    0.6291 H   0  0  0  0  0  0  0  0  0  0  0  0
   -0.0521    0.5038    0.6342 H   0  0  0  0  0  0  0  0  0  0  0  0
   -2.0396    0.5219    0.6472 H   0  0  0  0  0  0  0  0  0  0  0  0
    0.7225   -0.2318   -1.5224 H   0  0  0  0  0  0  0  0  0  0  0  0
   -0.4001   -0.6432   -2.8332 H   0  0  0  0  0  0  0  0  0  0  0  0
  1  2  2  3
  1  4  1  0
  1 19  1  0
  2  3  1  0
  2  5  1  0
  3  6  1  0
  3  7  1  0
  3  8  1  0
  9 10  1  0
  9 14  1  0
  9 15  1  0
  9 16  1  0
 10 11  1  0
 10 17  1  0
 10 18  1  0
 11 12  1  0
 12 13  1  0
 12 20  1  0
 13 14  1  0
 14 21  1  0
 14 22  1  0
M  RAD  1  12   2
M  END
>  <reaction>  (15) 
rmg_rxn_352

>  <mol_properties>  (15) 
{"0": {"label": "*3", "atom_type": "Cd"}, "1": {"label": "*4", "atom_type": "Cd"}, "10": {"label": "*0", "atom_type": "O2s"}, "11": {"label": "*1", "atom_type": "Cs"}, "18": {"label": "*2", "atom_type": "H0"}}

>  <type>  (15) 
unop_11

>  <geom_source>  (15) 
Heuristics

$$$$

     RDKit          3D

 22 21  0  0  0  0  0  0  0  0999 V2000
    0.8958    1.4983    0.7955 C   0  0  0  0  0  0  0  0  0  0  0  0
    1.7597    0.8299    1.5433 C   0  0  0  0  0  0  0  0  0  0  0  0
    3.0710    1.3607    2.0261 C   0  0  0  0  0  0  0  0  0  0  0  0
    1.0941    2.5152    0.4734 H   0  0  0  0  0  0  0  0  0  0  0  0
    1.5172   -0.1868    1.8415 H   0  0  0  0  0  0  0  0  0  0  0  0
    3.1161    1.3510    3.1182 H   0  0  0  0  0  0  0  0  0  0  0  0
    3.2374    2.3831    1.6844 H   0  0  0  0  0  0  0  0  0  0  0  0
    3.8969    0.7398    1.6696 H   0  0  0  0  0  0  0  0  0  0  0  0
   -0.4160   -1.6876   -1.4894 C   0  0  0  0  0  0  0  0  0  0  0  0
   -0.4160   -1.6876    0.0327 C   0  0  0  0  0  0  0  0  0  0  0  0
   -1.4643   -0.8750    0.5248 O   0  0  0  0  0  0  0  0  0  0  0  0
   -1.3734    0.4245    0.0254 C   0  0  0  0  0  3  0  0  0  0  0  0
   -1.4643    0.4807   -1.3656 O   0  0  0  0  0  0  0  0  0  0  0  0
   -0.4160   -0.2460   -1.9775 C   0  0  0  0  0  0  0  0  0  0  0  0
    0.4579   -2.2201   -1.8712 H   0  0  0  0  0  0  0  0  0  0  0  0
   -1.3126   -2.1938   -1.8524 H   0  0  0  0  0  0  0  0  0  0  0  0
   -0.5750   -2.6851    0.4400 H   0  0  0  0  0  0  0  0  0  0  0  0
    0.5476   -1.3116    0.4094 H   0  0  0  0  0  0  0  0  0  0  0  0
   -0.2270    0.9670    0.4145 H   0  0  0  0  0  0  0  0  0  0  0  0
   -2.2145    0.9851    0.4274 H   0  0  0  0  0  0  0  0  0  0  0  0
    0.5476    0.2314   -1.7422 H   0  0  0  0  0  0  0  0  0  0  0  0
   -0.5750   -0.1800   -3.0529 H   0  0  0  0  0  0  0  0  0  0  0  0
  1  2  2  3
  1  4  1  0
  1 19  1  0
  2  3  1  0
  2  5  1  0
  3  6  1  0
  3  7  1  0
  3  8  1  0
  9 10  1  0
  9 14  1  0
  9 15  1  0
  9 16  1  0
 10 11  1  0
 10 17  1  0
 10 18  1  0
 11 12  1  0
 12 13  1  0
 12 20  1  0
 13 14  1  0
 14 21  1  0
 14 22  1  0
M  RAD  1  12   2
M  END
>  <reaction>  (16) 
rmg_rxn_352

>  <mol_properties>  (16) 
{"0": {"label": "*3", "atom_type": "Cd"}, "1": {"label": "*4", "atom_type": "Cd"}, "10": {"label": "*0", "atom_type": "O2s"}, "11": {"label": "*1", "atom_type": "Cs"}, "18": {"label": "*2", "atom_type": "H0"}}

>  <type>  (16) 
unop_12

>  <geom_source>  (16) 
Heuristics

$$$$

     RDKit          3D

 22 21  0  0  0  0  0  0  0  0999 V2000
    0.9112   -0.8507    0.1052 O   0  0  0  0  0  0  0  0  0  0  0  0
    1.7528    1.3787   -0.1902 O   0  0  0  0  0  0  0  0  0  0  0  0
    3.2187   -0.5104   -0.4842 C   0  0  0  0  0  0  0  0  0  0  0  0
    1.8868   -1.1615   -0.8635 C   0  0  0  0  0  0  0  0  0  0  0  0
    2.9372    0.7801    0.2884 C   0  0  0  0  0  0  0  0  0  0  0  0
   -4.3779    0.0126    0.4014 C   0  0  0  0  0  0  0  0  0  0  0  0
   -3.0658    0.6694    0.1039 C   0  0  0  0  0  0  0  0  0  0  0  0
    0.6288    0.5435    0.0740 C   0  0  0  0  0  3  0  0  0  0  0  0
   -1.9144    0.0118    0.2547 C   0  0  0  0  0  0  0  0  0  0  0  0
    3.7978   -0.2881   -1.4068 H   0  0  0  0  0  0  0  0  0  0  0  0
    3.8167   -1.1981    0.1524 H   0  0  0  0  0  0  0  0  0  0  0  0
    1.5582   -0.8245   -1.8743 H   0  0  0  0  0  0  0  0  0  0  0  0
    2.0147   -2.2637   -0.9087 H   0  0  0  0  0  0  0  0  0  0  0  0
    3.7830    1.4859    0.1476 H   0  0  0  0  0  0  0  0  0  0  0  0
    2.8554    0.5732    1.3806 H   0  0  0  0  0  0  0  0  0  0  0  0
   -4.5141   -0.8754   -0.2514 H   0  0  0  0  0  0  0  0  0  0  0  0
   -4.4117   -0.3022    1.4659 H   0  0  0  0  0  0  0  0  0  0  0  0
   -5.2057    0.7276    0.2122 H   0  0  0  0  0  0  0  0  0  0  0  0
   -3.0498    1.6988   -0.2406 H   0  0  0  0  0  0  0  0  0  0  0  0
   -1.9004   -1.0185    0.5978 H   0  0  0  0  0  0  0  0  0  0  0  0
   -0.8696    0.5630    0.0084 H   0  0  0  0  0  0  0  0  0  0  0  0
    0.1483    0.8486    1.0273 H   0  0  0  0  0  0  0  0  0  0  0  0
  1  4  1  0
  1  8  1  0
  2  5  1  0
  2  8  1  0
  3  4  1  0
  3  5  1  0
  3 10  1  0
  3 11  1  0
  4 12  1  0
  4 13  1  0
  5 14  1  0
  5 15  1  0
  6  7  1  0
  6 16  1  0
  6 17  1  0
  6 18  1  0
  7  9  2  3
  7 19  1  0
  8 22  1  0
  9 20  1  0
  9 21  1  0
M  RAD  1   8   2
M  END
>  <reaction>  (17) 
rmg_rxn_352

>  <mol_properties>  (17) 
{"0": {"label": "*3", "atom_type": "Cd"}, "1": {"label": "*4", "atom_type": "Cd"}, "10": {"label": "*0", "atom_type": "O2s"}, "11": {"label": "*1", "atom_type": "Cs"}, "18": {"label": "*2", "atom_type": "H0"}}

>  <type>  (17) 
unop_13

>  <geom_source>  (17) 
AutoTST

$$$$

     RDKit          3D

 22 21  0  0  0  0  0  0  0  0999 V2000
    0.8383    1.5144    0.9633 C   0  0  0  0  0  0  0  0  0  0  0  0
    1.9176    0.7771    1.1726 C   0  0  0  0  0  0  0  0  0  0  0  0
    3.3166    1.2991    1.2397 C   0  0  0  0  0  0  0  0  0  0  0  0
    0.9050    2.5879    0.8216 H   0  0  0  0  0  0  0  0  0  0  0  0
    1.8008   -0.2950    1.3092 H   0  0  0  0  0  0  0  0  0  0  0  0
    3.7712    1.0700    2.2069 H   0  0  0  0  0  0  0  0  0  0  0  0
    3.3464    2.3795    1.0933 H   0  0  0  0  0  0  0  0  0  0  0  0
    3.9434    0.8308    0.4764 H   0  0  0  0  0  0  0  0  0  0  0  0
   -0.4736   -1.6716   -1.3216 C   0  0  0  0  0  0  0  0  0  0  0  0
   -0.4736   -1.6716    0.2004 C   0  0  0  0  0  0  0  0  0  0  0  0
   -1.5218   -0.8590    0.6925 O   0  0  0  0  0  0  0  0  0  0  0  0
   -1.4309    0.4406    0.1932 C   0  0  0  0  0  3  0  0  0  0  0  0
   -1.5218    0.4968   -1.1978 O   0  0  0  0  0  0  0  0  0  0  0  0
   -0.4736   -0.2299   -1.8097 C   0  0  0  0  0  0  0  0  0  0  0  0
    0.4004   -2.2040   -1.7035 H   0  0  0  0  0  0  0  0  0  0  0  0
   -1.3701   -2.1777   -1.6846 H   0  0  0  0  0  0  0  0  0  0  0  0
   -0.6325   -2.6691    0.6078 H   0  0  0  0  0  0  0  0  0  0  0  0
    0.4901   -1.2956    0.5772 H   0  0  0  0  0  0  0  0  0  0  0  0
   -0.2845    0.9831    0.5823 H   0  0  0  0  0  0  0  0  0  0  0  0
   -2.2720    1.0011    0.5952 H   0  0  0  0  0  0  0  0  0  0  0  0
    0.4901    0.2475   -1.5744 H   0  0  0  0  0  0  0  0  0  0  0  0
   -0.6325   -0.1640   -2.8852 H   0  0  0  0  0  0  0  0  0  0  0  0
  1  2  2  3
  1  4  1  0
  1 19  1  0
  2  3  1  0
  2  5  1  0
  3  6  1  0
  3  7  1  0
  3  8  1  0
  9 10  1  0
  9 14  1  0
  9 15  1  0
  9 16  1  0
 10 11  1  0
 10 17  1  0
 10 18  1  0
 11 12  1  0
 12 13  1  0
 12 20  1  0
 13 14  1  0
 14 21  1  0
 14 22  1  0
M  RAD  1  12   2
M  END
>  <reaction>  (18) 
rmg_rxn_352

>  <mol_properties>  (18) 
{"0": {"label": "*3", "atom_type": "Cd"}, "1": {"label": "*4", "atom_type": "Cd"}, "10": {"label": "*0", "atom_type": "O2s"}, "11": {"label": "*1", "atom_type": "Cs"}, "18": {"label": "*2", "atom_type": "H0"}}

>  <type>  (18) 
unop_14

>  <geom_source>  (18) 
gaussian_log

$$$$
