
     RDKit          3D

 15 14  0  0  0  0  0  0  0  0999 V2000
    2.4145    0.0817    0.4065 C   0  0  0  0  0  0  0  0  0  0  0  0
    1.1257   -0.2220   -0.3219 C   0  0  0  0  0  0  0  0  0  0  0  0
    1.0983   -1.5879   -0.6512 O   0  0  0  0  0  0  0  0  0  0  0  0
   -0.0685   -1.9694   -1.3352 C   0  0  0  0  0  0  0  0  0  0  0  0
    0.0024   -3.4478   -1.6403 C   0  0  0  0  0  0  0  0  0  0  0  0
    3.2736   -0.1534   -0.2229 H   0  0  0  0  0  0  0  0  0  0  0  0
    2.4581    1.1389    0.6728 H   0  0  0  0  0  0  0  0  0  0  0  0
    2.4855   -0.5095    1.3201 H   0  0  0  0  0  0  0  0  0  0  0  0
    0.2597    0.0294    0.3083 H   0  0  0  0  0  0  0  0  0  0  0  0
    1.0482    0.3858   -1.2356 H   0  0  0  0  0  0  0  0  0  0  0  0
   -0.9535   -1.7457   -0.7211 H   0  0  0  0  0  0  0  0  0  0  0  0
   -0.1650   -1.3894   -2.2650 H   0  0  0  0  0  0  0  0  0  0  0  0
    0.0831   -4.0247   -0.7183 H   0  0  0  0  0  0  0  0  0  0  0  0
   -0.8950   -3.7674   -2.1724 H   0  0  0  0  0  0  0  0  0  0  0  0
    0.8712   -3.6686   -2.2613 H   0  0  0  0  0  0  0  0  0  0  0  0
  1  2  1  0
  1  6  1  0
  1  7  1  0
  1  8  1  0
  2  3  1  0
  2  9  1  0
  2 10  1  0
  3  4  1  0
  4  5  1  0
  4 11  1  0
  4 12  1  0
  5 13  1  0
  5 14  1  0
  5 15  1  0
M  END
>  <reaction>  (1) 
rmg_rxn_642

>  <mol_properties>  (1) 
{"0": {"label": "donator", "atom_type": "Cs"}, "5": {"label": "d_hydrogen", "atom_type": "H0"}}

>  <type>  (1) 
r1h

$$$$

     RDKit          3D

  9  8  0  0  0  0  0  0  0  0999 V2000
    1.3246   -0.8124   -0.0809 C   0  0  0  0  0  2  0  0  0  0  0  0
    0.4082    0.3080    0.1518 C   0  0  0  0  0  0  0  0  0  0  0  0
   -1.0545   -0.0277   -0.1520 C   0  0  0  0  0  0  0  0  0  0  0  0
    2.3933   -0.9471    0.0203 H   0  0  0  0  0  0  0  0  0  0  0  0
    0.4898    0.6406    1.1970 H   0  0  0  0  0  0  0  0  0  0  0  0
    0.7134    1.1680   -0.4624 H   0  0  0  0  0  0  0  0  0  0  0  0
   -1.4014   -0.8515    0.4727 H   0  0  0  0  0  0  0  0  0  0  0  0
   -1.1767   -0.3214   -1.1952 H   0  0  0  0  0  0  0  0  0  0  0  0
   -1.6915    0.8372    0.0370 H   0  0  0  0  0  0  0  0  0  0  0  0
  1  2  1  0
  1  4  1  0
  2  3  1  0
  2  5  1  0
  2  6  1  0
  3  7  1  0
  3  8  1  0
  3  9  1  0
M  RAD  1   1   3
M  END
>  <reaction>  (2) 
rmg_rxn_642

>  <mol_properties>  (2) 
{"0": {"label": "acceptor", "atom_type": "Cs"}}

>  <type>  (2) 
r2

$$$$

     RDKit          3D

 10  9  0  0  0  0  0  0  0  0999 V2000
    1.4352    0.2660   -0.1351 C   0  0  0  0  0  3  0  0  0  0  0  0
    0.2236   -0.3243    0.4850 C   0  0  0  0  0  0  0  0  0  0  0  0
   -0.8893    0.6872    0.7364 C   0  0  0  0  0  0  0  0  0  0  0  0
    2.3577   -0.2958   -0.1940 H   0  0  0  0  0  0  0  0  0  0  0  0
    1.3935    1.2286   -0.6287 H   0  0  0  0  0  0  0  0  0  0  0  0
   -0.1633   -1.1318   -0.1556 H   0  0  0  0  0  0  0  0  0  0  0  0
    0.4945   -0.8215    1.4240 H   0  0  0  0  0  0  0  0  0  0  0  0
   -1.1991    1.1627   -0.1967 H   0  0  0  0  0  0  0  0  0  0  0  0
   -1.7660    0.2103    1.1768 H   0  0  0  0  0  0  0  0  0  0  0  0
   -0.5545    1.4732    1.4159 H   0  0  0  0  0  0  0  0  0  0  0  0
  1  2  1  0
  1  4  1  0
  1  5  1  0
  2  3  1  0
  2  6  1  0
  2  7  1  0
  3  8  1  0
  3  9  1  0
  3 10  1  0
M  RAD  1   1   2
M  END
>  <reaction>  (3) 
rmg_rxn_642

>  <mol_properties>  (3) 
{"0": {"label": "acceptor", "atom_type": "Cs"}, "9": {"label": "a_hydrogen", "atom_type": "H0"}}

>  <type>  (3) 
r2h

$$$$

     RDKit          3D

 24 22  0  0  0  0  0  0  0  0999 V2000
   -1.3043    1.6963    1.3131 C   0  0  0  0  0  2  0  0  0  0  0  0
   -2.0466    0.8610    0.3454 C   0  0  0  0  0  0  0  0  0  0  0  0
   -1.8602    1.3229   -1.1076 C   0  0  0  0  0  0  0  0  0  0  0  0
   -1.6754    2.6057    1.7737 H   0  0  0  0  0  0  0  0  0  0  0  0
   -1.7050   -0.1765    0.4206 H   0  0  0  0  0  0  0  0  0  0  0  0
   -3.1142    0.8607    0.5943 H   0  0  0  0  0  0  0  0  0  0  0  0
   -0.8058    1.2759   -1.3808 H   0  0  0  0  0  0  0  0  0  0  0  0
   -2.2071    2.3492   -1.2394 H   0  0  0  0  0  0  0  0  0  0  0  0
   -2.4239    0.6829   -1.7905 H   0  0  0  0  0  0  0  0  0  0  0  0
    1.2280    0.9720    1.6813 C   0  0  0  0  0  0  0  0  0  0  0  0
    1.2286   -0.4489    1.2091 C   0  0  0  0  0  0  0  0  0  0  0  0
    0.9561   -0.4742   -0.1701 O   0  0  0  0  0  0  0  0  0  0  0  0
    0.8197   -1.7739   -0.6875 C   0  0  0  0  0  0  0  0  0  0  0  0
    0.4941   -1.6812   -2.1600 C   0  0  0  0  0  0  0  0  0  0  0  0
   -0.0011    1.4115    1.5089 H   0  0  0  0  0  0  0  0  0  0  0  0
    1.4127    1.0754    2.7485 H   0  0  0  0  0  0  0  0  0  0  0  0
    1.8532    1.6335    1.0849 H   0  0  0  0  0  0  0  0  0  0  0  0
    2.2008   -0.9301    1.4066 H   0  0  0  0  0  0  0  0  0  0  0  0
    0.4685   -1.0288    1.7551 H   0  0  0  0  0  0  0  0  0  0  0  0
    1.7490   -2.3408   -0.5310 H   0  0  0  0  0  0  0  0  0  0  0  0
    0.0206   -2.3069   -0.1507 H   0  0  0  0  0  0  0  0  0  0  0  0
    1.2870   -1.1568   -2.6944 H   0  0  0  0  0  0  0  0  0  0  0  0
    0.3885   -2.6793   -2.5877 H   0  0  0  0  0  0  0  0  0  0  0  0
   -0.4395   -1.1380   -2.3105 H   0  0  0  0  0  0  0  0  0  0  0  0
  1  2  1  0
  1  4  1  0
  2  3  1  0
  2  5  1  0
  2  6  1  0
  3  7  1  0
  3  8  1  0
  3  9  1  0
 10 11  1  0
 10 15  1  0
 10 16  1  0
 10 17  1  0
 11 12  1  0
 11 18  1  0
 11 19  1  0
 12 13  1  0
 13 14  1  0
 13 20  1  0
 13 21  1  0
 14 22  1  0
 14 23  1  0
 14 24  1  0
M  RAD  1   1   3
M  END
>  <reaction>  (4) 
rmg_rxn_642

>  <mol_properties>  (4) 
{"0": {"label": "*3", "atom_type": "Cs"}, "1": {"label": "*4", "atom_type": "Cs"}, "9": {"label": "*1", "atom_type": "Cs"}, "10": {"label": "*0", "atom_type": "Cs"}, "14": {"label": "*2", "atom_type": "H0"}}

>  <type>  (4) 
ts

$$$$

     RDKit          3D

 24 22  0  0  0  0  0  0  0  0999 V2000
   -1.0163    1.5511    0.2877 C   0  0  0  0  0  3  0  0  0  0  0  0
   -1.9916    2.2054    1.1940 C   0  0  0  0  0  0  0  0  0  0  0  0
   -2.6390    3.4511    0.5989 C   0  0  0  0  0  0  0  0  0  0  0  0
   -0.5977    2.0847   -0.5561 H   0  0  0  0  0  0  0  0  0  0  0  0
   -2.7660    1.4856    1.4844 H   0  0  0  0  0  0  0  0  0  0  0  0
   -1.4948    2.4755    2.1386 H   0  0  0  0  0  0  0  0  0  0  0  0
   -3.1895    3.2064   -0.3115 H   0  0  0  0  0  0  0  0  0  0  0  0
   -1.8827    4.1957    0.3414 H   0  0  0  0  0  0  0  0  0  0  0  0
   -3.3354    3.9100    1.3021 H   0  0  0  0  0  0  0  0  0  0  0  0
    1.0977    0.3576    1.2374 C   0  0  0  0  0  3  0  0  0  0  0  0
    1.0977   -1.1041    0.8538 C   0  0  0  0  0  0  0  0  0  0  0  0
    1.0977   -1.2083   -0.5477 O   0  0  0  0  0  0  0  0  0  0  0  0
    1.0977   -2.5374   -1.0043 C   0  0  0  0  0  0  0  0  0  0  0  0
    1.0977   -2.5374   -2.5155 C   0  0  0  0  0  0  0  0  0  0  0  0
    0.0365    0.9568    0.7606 H   0  0  0  0  0  0  0  0  0  0  0  0
    1.0977    0.4634    2.3234 H   0  0  0  0  0  0  0  0  0  0  0  0
    1.9821    0.8569    0.8401 H   0  0  0  0  0  0  0  0  0  0  0  0
    1.9826   -1.6100    1.2676 H   0  0  0  0  0  0  0  0  0  0  0  0
    0.2128   -1.6100    1.2676 H   0  0  0  0  0  0  0  0  0  0  0  0
    1.9826   -3.0661   -0.6200 H   0  0  0  0  0  0  0  0  0  0  0  0
    0.2128   -3.0661   -0.6200 H   0  0  0  0  0  0  0  0  0  0  0  0
    1.9821   -2.0264   -2.8975 H   0  0  0  0  0  0  0  0  0  0  0  0
    1.0977   -3.5610   -2.8935 H   0  0  0  0  0  0  0  0  0  0  0  0
    0.2133   -2.0264   -2.8975 H   0  0  0  0  0  0  0  0  0  0  0  0
  1  2  1  0
  1  4  1  0
  1 15  1  0
  2  3  1  0
  2  5  1  0
  2  6  1  0
  3  7  1  0
  3  8  1  0
  3  9  1  0
 10 11  1  0
 10 16  1  0
 10 17  1  0
 11 12  1  0
 11 18  1  0
 11 19  1  0
 12 13  1  0
 13 14  1  0
 13 20  1  0
 13 21  1  0
 14 22  1  0
 14 23  1  0
 14 24  1  0
M  RAD  2   1   2  10   2
M  END
>  <reaction>  (5) 
rmg_rxn_642

>  <mol_properties>  (5) 
{"0": {"label": "*3", "atom_type": "Cs"}, "1": {"label": "*4", "atom_type": "Cs"}, "9": {"label": "*1", "atom_type": "Cs"}, "10": {"label": "*0", "atom_type": "Cs"}, "14": {"label": "*2", "atom_type": "H0"}}

>  <type>  (5) 
unop_1

>  <geom_source>  (5) 
Heuristics

$$$$

     RDKit          3D

 24 22  0  0  0  0  0  0  0  0999 V2000
   -0.8695    1.9522    0.5395 C   0  0  0  0  0  3  0  0  0  0  0  0
   -2.1395    1.2100    0.3466 C   0  0  0  0  0  0  0  0  0  0  0  0
   -3.3071    2.0953   -0.0752 C   0  0  0  0  0  0  0  0  0  0  0  0
   -0.8687    3.0270    0.6688 H   0  0  0  0  0  0  0  0  0  0  0  0
   -1.9920    0.4116   -0.3903 H   0  0  0  0  0  0  0  0  0  0  0  0
   -2.4053    0.6844    1.2766 H   0  0  0  0  0  0  0  0  0  0  0  0
   -3.0978    2.5884   -1.0263 H   0  0  0  0  0  0  0  0  0  0  0  0
   -3.4933    2.8722    0.6694 H   0  0  0  0  0  0  0  0  0  0  0  0
   -4.2234    1.5145   -0.1899 H   0  0  0  0  0  0  0  0  0  0  0  0
    1.2444    0.7587    1.4892 C   0  0  0  0  0  3  0  0  0  0  0  0
    1.2444   -0.7030    1.1056 C   0  0  0  0  0  0  0  0  0  0  0  0
    1.2444   -0.8072   -0.2959 O   0  0  0  0  0  0  0  0  0  0  0  0
    1.2444   -2.1363   -0.7525 C   0  0  0  0  0  0  0  0  0  0  0  0
    1.2444   -2.1363   -2.2636 C   0  0  0  0  0  0  0  0  0  0  0  0
    0.1832    1.3579    1.0124 H   0  0  0  0  0  0  0  0  0  0  0  0
    1.2444    0.8645    2.5752 H   0  0  0  0  0  0  0  0  0  0  0  0
    2.1288    1.2580    1.0919 H   0  0  0  0  0  0  0  0  0  0  0  0
    2.1293   -1.2089    1.5194 H   0  0  0  0  0  0  0  0  0  0  0  0
    0.3595   -1.2089    1.5194 H   0  0  0  0  0  0  0  0  0  0  0  0
    2.1293   -2.6650   -0.3681 H   0  0  0  0  0  0  0  0  0  0  0  0
    0.3595   -2.6650   -0.3681 H   0  0  0  0  0  0  0  0  0  0  0  0
    2.1288   -1.6253   -2.6457 H   0  0  0  0  0  0  0  0  0  0  0  0
    1.2444   -3.1599   -2.6416 H   0  0  0  0  0  0  0  0  0  0  0  0
    0.3600   -1.6253   -2.6457 H   0  0  0  0  0  0  0  0  0  0  0  0
  1  2  1  0
  1  4  1  0
  1 15  1  0
  2  3  1  0
  2  5  1  0
  2  6  1  0
  3  7  1  0
  3  8  1  0
  3  9  1  0
 10 11  1  0
 10 16  1  0
 10 17  1  0
 11 12  1  0
 11 18  1  0
 11 19  1  0
 12 13  1  0
 13 14  1  0
 13 20  1  0
 13 21  1  0
 14 22  1  0
 14 23  1  0
 14 24  1  0
M  RAD  2   1   2  10   2
M  END
>  <reaction>  (6) 
rmg_rxn_642

>  <mol_properties>  (6) 
{"0": {"label": "*3", "atom_type": "Cs"}, "1": {"label": "*4", "atom_type": "Cs"}, "9": {"label": "*1", "atom_type": "Cs"}, "10": {"label": "*0", "atom_type": "Cs"}, "14": {"label": "*2", "atom_type": "H0"}}

>  <type>  (6) 
unop_2

>  <geom_source>  (6) 
Heuristics

$$$$

     RDKit          3D

 24 22  0  0  0  0  0  0  0  0999 V2000
   -1.0916    1.4668    0.3826 C   0  0  0  0  0  3  0  0  0  0  0  0
   -1.6922    2.6252    1.0883 C   0  0  0  0  0  0  0  0  0  0  0  0
   -2.4827    3.5552    0.1744 C   0  0  0  0  0  0  0  0  0  0  0  0
   -0.9747    1.4719   -0.6937 H   0  0  0  0  0  0  0  0  0  0  0  0
   -2.3341    2.2689    1.9027 H   0  0  0  0  0  0  0  0  0  0  0  0
   -0.9009    3.2029    1.5904 H   0  0  0  0  0  0  0  0  0  0  0  0
   -3.3125    3.0250   -0.2967 H   0  0  0  0  0  0  0  0  0  0  0  0
   -1.8463    3.9513   -0.6198 H   0  0  0  0  0  0  0  0  0  0  0  0
   -2.8927    4.4007    0.7285 H   0  0  0  0  0  0  0  0  0  0  0  0
    1.0224    0.2733    1.3322 C   0  0  0  0  0  3  0  0  0  0  0  0
    1.0224   -1.1884    0.9486 C   0  0  0  0  0  0  0  0  0  0  0  0
    1.0224   -1.2926   -0.4529 O   0  0  0  0  0  0  0  0  0  0  0  0
    1.0224   -2.6217   -0.9094 C   0  0  0  0  0  0  0  0  0  0  0  0
    1.0224   -2.6217   -2.4206 C   0  0  0  0  0  0  0  0  0  0  0  0
   -0.0388    0.8724    0.8555 H   0  0  0  0  0  0  0  0  0  0  0  0
    1.0224    0.3791    2.4182 H   0  0  0  0  0  0  0  0  0  0  0  0
    1.9068    0.7726    0.9349 H   0  0  0  0  0  0  0  0  0  0  0  0
    1.9073   -1.6943    1.3624 H   0  0  0  0  0  0  0  0  0  0  0  0
    0.1375   -1.6943    1.3624 H   0  0  0  0  0  0  0  0  0  0  0  0
    1.9073   -3.1504   -0.5251 H   0  0  0  0  0  0  0  0  0  0  0  0
    0.1375   -3.1504   -0.5251 H   0  0  0  0  0  0  0  0  0  0  0  0
    1.9068   -2.1107   -2.8027 H   0  0  0  0  0  0  0  0  0  0  0  0
    1.0224   -3.6453   -2.7986 H   0  0  0  0  0  0  0  0  0  0  0  0
    0.1380   -2.1107   -2.8027 H   0  0  0  0  0  0  0  0  0  0  0  0
  1  2  1  0
  1  4  1  0
  1 15  1  0
  2  3  1  0
  2  5  1  0
  2  6  1  0
  3  7  1  0
  3  8  1  0
  3  9  1  0
 10 11  1  0
 10 16  1  0
 10 17  1  0
 11 12  1  0
 11 18  1  0
 11 19  1  0
 12 13  1  0
 13 14  1  0
 13 20  1  0
 13 21  1  0
 14 22  1  0
 14 23  1  0
 14 24  1  0
M  RAD  2   1   2  10   2
M  END
>  <reaction>  (7) 
rmg_rxn_642

>  <mol_properties>  (7) 
{"0": {"label": "*3", "atom_type": "Cs"}, "1": {"label": "*4", "atom_type": "Cs"}, "9": {"label": "*1", "atom_type": "Cs"}, "10": {"label": "*0", "atom_type": "Cs"}, "14": {"label": "*2", "atom_type": "H0"}}

>  <type>  (7) 
unop_3

>  <geom_source>  (7) 
Heuristics

$$$$

     RDKit          3D

 24 22  0  0  0  0  0  0  0  0999 V2000
   -1.2183    1.6912    0.8714 C   0  0  0  0  0  3  0  0  0  0  0  0
   -1.4762    1.7331   -0.5890 C   0  0  0  0  0  0  0  0  0  0  0  0
   -1.9315    3.0992   -1.0905 C   0  0  0  0  0  0  0  0  0  0  0  0
   -1.6143    2.4559    1.5274 H   0  0  0  0  0  0  0  0  0  0  0  0
   -0.5772    1.4176   -1.1317 H   0  0  0  0  0  0  0  0  0  0  0  0
   -2.2373    0.9824   -0.8516 H   0  0  0  0  0  0  0  0  0  0  0  0
   -1.1716    3.8583   -0.8960 H   0  0  0  0  0  0  0  0  0  0  0  0
   -2.8500    3.4102   -0.5881 H   0  0  0  0  0  0  0  0  0  0  0  0
   -2.1258    3.0825   -2.1639 H   0  0  0  0  0  0  0  0  0  0  0  0
    0.8957    0.4977    1.8210 C   0  0  0  0  0  3  0  0  0  0  0  0
    0.8957   -0.9640    1.4374 C   0  0  0  0  0  0  0  0  0  0  0  0
    0.8957   -1.0682    0.0359 O   0  0  0  0  0  0  0  0  0  0  0  0
    0.8957   -2.3973   -0.4206 C   0  0  0  0  0  0  0  0  0  0  0  0
    0.8957   -2.3973   -1.9318 C   0  0  0  0  0  0  0  0  0  0  0  0
   -0.1655    1.0969    1.3443 H   0  0  0  0  0  0  0  0  0  0  0  0
    0.8957    0.6035    2.9070 H   0  0  0  0  0  0  0  0  0  0  0  0
    1.7801    0.9970    1.4237 H   0  0  0  0  0  0  0  0  0  0  0  0
    1.7806   -1.4699    1.8512 H   0  0  0  0  0  0  0  0  0  0  0  0
    0.0108   -1.4699    1.8512 H   0  0  0  0  0  0  0  0  0  0  0  0
    1.7806   -2.9260   -0.0363 H   0  0  0  0  0  0  0  0  0  0  0  0
    0.0108   -2.9260   -0.0363 H   0  0  0  0  0  0  0  0  0  0  0  0
    1.7801   -1.8863   -2.3139 H   0  0  0  0  0  0  0  0  0  0  0  0
    0.8957   -3.4209   -2.3098 H   0  0  0  0  0  0  0  0  0  0  0  0
    0.0113   -1.8863   -2.3139 H   0  0  0  0  0  0  0  0  0  0  0  0
  1  2  1  0
  1  4  1  0
  1 15  1  0
  2  3  1  0
  2  5  1  0
  2  6  1  0
  3  7  1  0
  3  8  1  0
  3  9  1  0
 10 11  1  0
 10 16  1  0
 10 17  1  0
 11 12  1  0
 11 18  1  0
 11 19  1  0
 12 13  1  0
 13 14  1  0
 13 20  1  0
 13 21  1  0
 14 22  1  0
 14 23  1  0
 14 24  1  0
M  RAD  2   1   2  10   2
M  END
>  <reaction>  (8) 
rmg_rxn_642

>  <mol_properties>  (8) 
{"0": {"label": "*3", "atom_type": "Cs"}, "1": {"label": "*4", "atom_type": "Cs"}, "9": {"label": "*1", "atom_type": "Cs"}, "10": {"label": "*0", "atom_type": "Cs"}, "14": {"label": "*2", "atom_type": "H0"}}

>  <type>  (8) 
unop_4

>  <geom_source>  (8) 
Heuristics

$$$$

     RDKit          3D

 24 22  0  0  0  0  0  0  0  0999 V2000
   -1.1013    1.4576    0.4292 C   0  0  0  0  0  3  0  0  0  0  0  0
   -1.3314    2.9031    0.6710 C   0  0  0  0  0  0  0  0  0  0  0  0
   -2.7326    3.3708    0.2929 C   0  0  0  0  0  0  0  0  0  0  0  0
   -1.7516    0.8940   -0.2276 H   0  0  0  0  0  0  0  0  0  0  0  0
   -1.1316    3.1376    1.7233 H   0  0  0  0  0  0  0  0  0  0  0  0
   -0.5920    3.4942    0.1091 H   0  0  0  0  0  0  0  0  0  0  0  0
   -3.4896    2.8426    0.8757 H   0  0  0  0  0  0  0  0  0  0  0  0
   -2.9327    3.1810   -0.7638 H   0  0  0  0  0  0  0  0  0  0  0  0
   -2.8547    4.4402    0.4704 H   0  0  0  0  0  0  0  0  0  0  0  0
    1.0127    0.2641    1.3788 C   0  0  0  0  0  3  0  0  0  0  0  0
    1.0127   -1.1975    0.9952 C   0  0  0  0  0  0  0  0  0  0  0  0
    1.0127   -1.3017   -0.4063 O   0  0  0  0  0  0  0  0  0  0  0  0
    1.0127   -2.6309   -0.8628 C   0  0  0  0  0  0  0  0  0  0  0  0
    1.0127   -2.6309   -2.3740 C   0  0  0  0  0  0  0  0  0  0  0  0
   -0.0485    0.8633    0.9021 H   0  0  0  0  0  0  0  0  0  0  0  0
    1.0127    0.3699    2.4648 H   0  0  0  0  0  0  0  0  0  0  0  0
    1.8971    0.7634    0.9815 H   0  0  0  0  0  0  0  0  0  0  0  0
    1.8976   -1.7035    1.4090 H   0  0  0  0  0  0  0  0  0  0  0  0
    0.1278   -1.7035    1.4090 H   0  0  0  0  0  0  0  0  0  0  0  0
    1.8976   -3.1595   -0.4785 H   0  0  0  0  0  0  0  0  0  0  0  0
    0.1278   -3.1595   -0.4785 H   0  0  0  0  0  0  0  0  0  0  0  0
    1.8971   -2.1198   -2.7561 H   0  0  0  0  0  0  0  0  0  0  0  0
    1.0127   -3.6544   -2.7520 H   0  0  0  0  0  0  0  0  0  0  0  0
    0.1283   -2.1198   -2.7561 H   0  0  0  0  0  0  0  0  0  0  0  0
  1  2  1  0
  1  4  1  0
  1 15  1  0
  2  3  1  0
  2  5  1  0
  2  6  1  0
  3  7  1  0
  3  8  1  0
  3  9  1  0
 10 11  1  0
 10 16  1  0
 10 17  1  0
 11 12  1  0
 11 18  1  0
 11 19  1  0
 12 13  1  0
 13 14  1  0
 13 20  1  0
 13 21  1  0
 14 22  1  0
 14 23  1  0
 14 24  1  0
M  RAD  2   1   2  10   2
M  END
>  <reaction>  (9) 
rmg_rxn_642

>  <mol_properties>  (9) 
{"0": {"label": "*3", "atom_type": "Cs"}, "1": {"label": "*4", "atom_type": "Cs"}, "9": {"label": "*1", "atom_type": "Cs"}, "10": {"label": "*0", "atom_type": "Cs"}, "14": {"label": "*2", "atom_type": "H0"}}

>  <type>  (9) 
unop_5

>  <geom_source>  (9) 
Heuristics

$$$$

     RDKit          3D

 24 22  0  0  0  0  0  0  0  0999 V2000
   -1.2902    1.5311    0.7753 C   0  0  0  0  0  3  0  0  0  0  0  0
   -1.2695    2.1593   -0.5685 C   0  0  0  0  0  0  0  0  0  0  0  0
   -1.7113    3.6187   -0.5682 C   0  0  0  0  0  0  0  0  0  0  0  0
   -1.8529    1.9746    1.5869 H   0  0  0  0  0  0  0  0  0  0  0  0
   -0.2652    2.0740   -1.0003 H   0  0  0  0  0  0  0  0  0  0  0  0
   -1.9158    1.5887   -1.2531 H   0  0  0  0  0  0  0  0  0  0  0  0
   -1.0539    4.2241    0.0585 H   0  0  0  0  0  0  0  0  0  0  0  0
   -2.7268    3.7162   -0.1783 H   0  0  0  0  0  0  0  0  0  0  0  0
   -1.6975    4.0369   -1.5757 H   0  0  0  0  0  0  0  0  0  0  0  0
    0.8237    0.3377    1.7250 C   0  0  0  0  0  3  0  0  0  0  0  0
    0.8237   -1.1240    1.3414 C   0  0  0  0  0  0  0  0  0  0  0  0
    0.8237   -1.2282   -0.0601 O   0  0  0  0  0  0  0  0  0  0  0  0
    0.8237   -2.5573   -0.5167 C   0  0  0  0  0  0  0  0  0  0  0  0
    0.8237   -2.5573   -2.0278 C   0  0  0  0  0  0  0  0  0  0  0  0
   -0.2375    0.9368    1.2482 H   0  0  0  0  0  0  0  0  0  0  0  0
    0.8237    0.4435    2.8110 H   0  0  0  0  0  0  0  0  0  0  0  0
    1.7081    0.8370    1.3277 H   0  0  0  0  0  0  0  0  0  0  0  0
    1.7087   -1.6299    1.7552 H   0  0  0  0  0  0  0  0  0  0  0  0
   -0.0612   -1.6299    1.7552 H   0  0  0  0  0  0  0  0  0  0  0  0
    1.7087   -3.0860   -0.1323 H   0  0  0  0  0  0  0  0  0  0  0  0
   -0.0612   -3.0860   -0.1323 H   0  0  0  0  0  0  0  0  0  0  0  0
    1.7081   -2.0463   -2.4099 H   0  0  0  0  0  0  0  0  0  0  0  0
    0.8237   -3.5809   -2.4058 H   0  0  0  0  0  0  0  0  0  0  0  0
   -0.0606   -2.0463   -2.4099 H   0  0  0  0  0  0  0  0  0  0  0  0
  1  2  1  0
  1  4  1  0
  1 15  1  0
  2  3  1  0
  2  5  1  0
  2  6  1  0
  3  7  1  0
  3  8  1  0
  3  9  1  0
 10 11  1  0
 10 16  1  0
 10 17  1  0
 11 12  1  0
 11 18  1  0
 11 19  1  0
 12 13  1  0
 13 14  1  0
 13 20  1  0
 13 21  1  0
 14 22  1  0
 14 23  1  0
 14 24  1  0
M  RAD  2   1   2  10   2
M  END
>  <reaction>  (10) 
rmg_rxn_642

>  <mol_properties>  (10) 
{"0": {"label": "*3", "atom_type": "Cs"}, "1": {"label": "*4", "atom_type": "Cs"}, "9": {"label": "*1", "atom_type": "Cs"}, "10": {"label": "*0", "atom_type": "Cs"}, "14": {"label": "*2", "atom_type": "H0"}}

>  <type>  (10) 
unop_6

>  <geom_source>  (10) 
Heuristics

$$$$

     RDKit          3D

 24 22  0  0  0  0  0  0  0  0999 V2000
   -1.2839    1.4279    0.6103 C   0  0  0  0  0  3  0  0  0  0  0  0
   -1.1554    2.5671   -0.3312 C   0  0  0  0  0  0  0  0  0  0  0  0
   -1.8478    3.8380    0.1487 C   0  0  0  0  0  0  0  0  0  0  0  0
   -2.0438    1.4277    1.3813 H   0  0  0  0  0  0  0  0  0  0  0  0
   -0.0949    2.7701   -0.5224 H   0  0  0  0  0  0  0  0  0  0  0  0
   -1.5655    2.2836   -1.3126 H   0  0  0  0  0  0  0  0  0  0  0  0
   -1.4237    4.1788    1.0950 H   0  0  0  0  0  0  0  0  0  0  0  0
   -2.9145    3.6629    0.3050 H   0  0  0  0  0  0  0  0  0  0  0  0
   -1.7437    4.6446   -0.5784 H   0  0  0  0  0  0  0  0  0  0  0  0
    0.8301    0.2344    1.5600 C   0  0  0  0  0  3  0  0  0  0  0  0
    0.8301   -1.2273    1.1764 C   0  0  0  0  0  0  0  0  0  0  0  0
    0.8301   -1.3315   -0.2251 O   0  0  0  0  0  0  0  0  0  0  0  0
    0.8301   -2.6606   -0.6817 C   0  0  0  0  0  0  0  0  0  0  0  0
    0.8301   -2.6606   -2.1928 C   0  0  0  0  0  0  0  0  0  0  0  0
   -0.2312    0.8335    1.0832 H   0  0  0  0  0  0  0  0  0  0  0  0
    0.8301    0.3402    2.6460 H   0  0  0  0  0  0  0  0  0  0  0  0
    1.7145    0.7337    1.1627 H   0  0  0  0  0  0  0  0  0  0  0  0
    1.7150   -1.7332    1.5902 H   0  0  0  0  0  0  0  0  0  0  0  0
   -0.0548   -1.7332    1.5902 H   0  0  0  0  0  0  0  0  0  0  0  0
    1.7150   -3.1893   -0.2974 H   0  0  0  0  0  0  0  0  0  0  0  0
   -0.0548   -3.1893   -0.2974 H   0  0  0  0  0  0  0  0  0  0  0  0
    1.7145   -2.1496   -2.5749 H   0  0  0  0  0  0  0  0  0  0  0  0
    0.8301   -3.6842   -2.5709 H   0  0  0  0  0  0  0  0  0  0  0  0
   -0.0543   -2.1496   -2.5749 H   0  0  0  0  0  0  0  0  0  0  0  0
  1  2  1  0
  1  4  1  0
  1 15  1  0
  2  3  1  0
  2  5  1  0
  2  6  1  0
  3  7  1  0
  3  8  1  0
  3  9  1  0
 10 11  1  0
 10 16  1  0
 10 17  1  0
 11 12  1  0
 11 18  1  0
 11 19  1  0
 12 13  1  0
 13 14  1  0
 13 20  1  0
 13 21  1  0
 14 22  1  0
 14 23  1  0
 14 24  1  0
M  RAD  2   1   2  10   2
M  END
>  <reaction>  (11) 
rmg_rxn_642

>  <mol_properties>  (11) 
{"0": {"label": "*3", "atom_type": "Cs"}, "1": {"label": "*4", "atom_type": "Cs"}, "9": {"label": "*1", "atom_type": "Cs"}, "10": {"label": "*0", "atom_type": "Cs"}, "14": {"label": "*2", "atom_type": "H0"}}

>  <type>  (11) 
unop_7

>  <geom_source>  (11) 
Heuristics

$$$$

     RDKit          3D

 24 22  0  0  0  0  0  0  0  0999 V2000
   -0.9204    1.6989    0.2741 C   0  0  0  0  0  3  0  0  0  0  0  0
   -2.1743    1.7671    1.0639 C   0  0  0  0  0  0  0  0  0  0  0  0
   -3.0083    3.0118    0.7809 C   0  0  0  0  0  0  0  0  0  0  0  0
   -0.5140    2.5833   -0.2000 H   0  0  0  0  0  0  0  0  0  0  0  0
   -2.7742    0.8674    0.8824 H   0  0  0  0  0  0  0  0  0  0  0  0
   -1.9368    1.7308    2.1383 H   0  0  0  0  0  0  0  0  0  0  0  0
   -3.3093    3.0485   -0.2677 H   0  0  0  0  0  0  0  0  0  0  0  0
   -2.4378    3.9179    0.9960 H   0  0  0  0  0  0  0  0  0  0  0  0
   -3.9113    3.0312    1.3928 H   0  0  0  0  0  0  0  0  0  0  0  0
    1.1936    0.5055    1.2238 C   0  0  0  0  0  3  0  0  0  0  0  0
    1.1936   -0.9562    0.8402 C   0  0  0  0  0  0  0  0  0  0  0  0
    1.1936   -1.0604   -0.5613 O   0  0  0  0  0  0  0  0  0  0  0  0
    1.1936   -2.3895   -1.0179 C   0  0  0  0  0  0  0  0  0  0  0  0
    1.1936   -2.3895   -2.5291 C   0  0  0  0  0  0  0  0  0  0  0  0
    0.1323    1.1046    0.7470 H   0  0  0  0  0  0  0  0  0  0  0  0
    1.1936    0.6113    2.3098 H   0  0  0  0  0  0  0  0  0  0  0  0
    2.0780    1.0048    0.8265 H   0  0  0  0  0  0  0  0  0  0  0  0
    2.0785   -1.4621    1.2540 H   0  0  0  0  0  0  0  0  0  0  0  0
    0.3087   -1.4621    1.2540 H   0  0  0  0  0  0  0  0  0  0  0  0
    2.0785   -2.9182   -0.6336 H   0  0  0  0  0  0  0  0  0  0  0  0
    0.3087   -2.9182   -0.6336 H   0  0  0  0  0  0  0  0  0  0  0  0
    2.0780   -1.8785   -2.9111 H   0  0  0  0  0  0  0  0  0  0  0  0
    1.1936   -3.4131   -2.9071 H   0  0  0  0  0  0  0  0  0  0  0  0
    0.3092   -1.8785   -2.9111 H   0  0  0  0  0  0  0  0  0  0  0  0
  1  2  1  0
  1  4  1  0
  1 15  1  0
  2  3  1  0
  2  5  1  0
  2  6  1  0
  3  7  1  0
  3  8  1  0
  3  9  1  0
 10 11  1  0
 10 16  1  0
 10 17  1  0
 11 12  1  0
 11 18  1  0
 11 19  1  0
 12 13  1  0
 13 14  1  0
 13 20  1  0
 13 21  1  0
 14 22  1  0
 14 23  1  0
 14 24  1  0
M  RAD  2   1   2  10   2
M  END
>  <reaction>  (12) 
rmg_rxn_642

>  <mol_properties>  (12) 
{"0": {"label": "*3", "atom_type": "Cs"}, "1": {"label": "*4", "atom_type": "Cs"}, "9": {"label": "*1", "atom_type": "Cs"}, "10": {"label": "*0", "atom_type": "Cs"}, "14": {"label": "*2", "atom_type": "H0"}}

>  <type>  (12) 
unop_8

>  <geom_source>  (12) 
Heuristics

$$$$

     RDKit          3D

 24 22  0  0  0  0  0  0  0  0999 V2000
   -1.0914    1.8523    0.8570 C   0  0  0  0  0  3  0  0  0  0  0  0
   -1.7241    1.3900   -0.4027 C   0  0  0  0  0  0  0  0  0  0  0  0
   -2.4229    2.5007   -1.1794 C   0  0  0  0  0  0  0  0  0  0  0  0
   -1.3739    2.7957    1.3066 H   0  0  0  0  0  0  0  0  0  0  0  0
   -0.9719    0.9075   -1.0380 H   0  0  0  0  0  0  0  0  0  0  0  0
   -2.4520    0.5947   -0.1806 H   0  0  0  0  0  0  0  0  0  0  0  0
   -1.7147    3.2806   -1.4653 H   0  0  0  0  0  0  0  0  0  0  0  0
   -3.2039    2.9652   -0.5735 H   0  0  0  0  0  0  0  0  0  0  0  0
   -2.8878    2.1164   -2.0883 H   0  0  0  0  0  0  0  0  0  0  0  0
    1.0225    0.6588    1.8067 C   0  0  0  0  0  3  0  0  0  0  0  0
    1.0225   -0.8029    1.4231 C   0  0  0  0  0  0  0  0  0  0  0  0
    1.0225   -0.9071    0.0216 O   0  0  0  0  0  0  0  0  0  0  0  0
    1.0225   -2.2362   -0.4350 C   0  0  0  0  0  0  0  0  0  0  0  0
    1.0225   -2.2362   -1.9461 C   0  0  0  0  0  0  0  0  0  0  0  0
   -0.0387    1.2579    1.3300 H   0  0  0  0  0  0  0  0  0  0  0  0
    1.0225    0.7646    2.8927 H   0  0  0  0  0  0  0  0  0  0  0  0
    1.9069    1.1581    1.4094 H   0  0  0  0  0  0  0  0  0  0  0  0
    1.9074   -1.3088    1.8369 H   0  0  0  0  0  0  0  0  0  0  0  0
    0.1376   -1.3088    1.8369 H   0  0  0  0  0  0  0  0  0  0  0  0
    1.9074   -2.7649   -0.0506 H   0  0  0  0  0  0  0  0  0  0  0  0
    0.1376   -2.7649   -0.0506 H   0  0  0  0  0  0  0  0  0  0  0  0
    1.9069   -1.7252   -2.3282 H   0  0  0  0  0  0  0  0  0  0  0  0
    1.0225   -3.2598   -2.3241 H   0  0  0  0  0  0  0  0  0  0  0  0
    0.1381   -1.7252   -2.3282 H   0  0  0  0  0  0  0  0  0  0  0  0
  1  2  1  0
  1  4  1  0
  1 15  1  0
  2  3  1  0
  2  5  1  0
  2  6  1  0
  3  7  1  0
  3  8  1  0
  3  9  1  0
 10 11  1  0
 10 16  1  0
 10 17  1  0
 11 12  1  0
 11 18  1  0
 11 19  1  0
 12 13  1  0
 13 14  1  0
 13 20  1  0
 13 21  1  0
 14 22  1  0
 14 23  1  0
 14 24  1  0
M  RAD  2   1   2  10   2
M  END
>  <reaction>  (13) 
rmg_rxn_642

>  <mol_properties>  (13) 
{"0": {"label": "*3", "atom_type": "Cs"}, "1": {"label": "*4", "atom_type": "Cs"}, "9": {"label": "*1", "atom_type": "Cs"}, "10": {"label": "*0", "atom_type": "Cs"}, "14": {"label": "*2", "atom_type": "H0"}}

>  <type>  (13) 
unop_9

>  <geom_source>  (13) 
Heuristics

$$$$

     RDKit          3D

 24 22  0  0  0  0  0  0  0  0999 V2000
   -0.8601    1.8528    0.3662 C   0  0  0  0  0  3  0  0  0  0  0  0
   -2.2219    1.4097    0.7536 C   0  0  0  0  0  0  0  0  0  0  0  0
   -3.2953    2.4704    0.5350 C   0  0  0  0  0  0  0  0  0  0  0  0
   -0.6315    2.9040    0.2457 H   0  0  0  0  0  0  0  0  0  0  0  0
   -2.4830    0.4968    0.2053 H   0  0  0  0  0  0  0  0  0  0  0  0
   -2.2253    1.1086    1.8125 H   0  0  0  0  0  0  0  0  0  0  0  0
   -3.3569    2.7504   -0.5182 H   0  0  0  0  0  0  0  0  0  0  0  0
   -3.0707    3.3730    1.1075 H   0  0  0  0  0  0  0  0  0  0  0  0
   -4.2768    2.1110    0.8473 H   0  0  0  0  0  0  0  0  0  0  0  0
    1.2538    0.6593    1.3159 C   0  0  0  0  0  3  0  0  0  0  0  0
    1.2538   -0.8024    0.9323 C   0  0  0  0  0  0  0  0  0  0  0  0
    1.2538   -0.9066   -0.4693 O   0  0  0  0  0  0  0  0  0  0  0  0
    1.2538   -2.2357   -0.9258 C   0  0  0  0  0  0  0  0  0  0  0  0
    1.2538   -2.2357   -2.4370 C   0  0  0  0  0  0  0  0  0  0  0  0
    0.1926    1.2584    0.8391 H   0  0  0  0  0  0  0  0  0  0  0  0
    1.2538    0.7651    2.4018 H   0  0  0  0  0  0  0  0  0  0  0  0
    2.1382    1.1586    0.9186 H   0  0  0  0  0  0  0  0  0  0  0  0
    2.1388   -1.3083    1.3460 H   0  0  0  0  0  0  0  0  0  0  0  0
    0.3689   -1.3083    1.3460 H   0  0  0  0  0  0  0  0  0  0  0  0
    2.1388   -2.7644   -0.5415 H   0  0  0  0  0  0  0  0  0  0  0  0
    0.3689   -2.7644   -0.5415 H   0  0  0  0  0  0  0  0  0  0  0  0
    2.1382   -1.7247   -2.8191 H   0  0  0  0  0  0  0  0  0  0  0  0
    1.2538   -3.2593   -2.8150 H   0  0  0  0  0  0  0  0  0  0  0  0
    0.3695   -1.7247   -2.8191 H   0  0  0  0  0  0  0  0  0  0  0  0
  1  2  1  0
  1  4  1  0
  1 15  1  0
  2  3  1  0
  2  5  1  0
  2  6  1  0
  3  7  1  0
  3  8  1  0
  3  9  1  0
 10 11  1  0
 10 16  1  0
 10 17  1  0
 11 12  1  0
 11 18  1  0
 11 19  1  0
 12 13  1  0
 13 14  1  0
 13 20  1  0
 13 21  1  0
 14 22  1  0
 14 23  1  0
 14 24  1  0
M  RAD  2   1   2  10   2
M  END
>  <reaction>  (14) 
rmg_rxn_642

>  <mol_properties>  (14) 
{"0": {"label": "*3", "atom_type": "Cs"}, "1": {"label": "*4", "atom_type": "Cs"}, "9": {"label": "*1", "atom_type": "Cs"}, "10": {"label": "*0", "atom_type": "Cs"}, "14": {"label": "*2", "atom_type": "H0"}}

>  <type>  (14) 
unop_10

>  <geom_source>  (14) 
Heuristics

$$$$

     RDKit          3D

 24 22  0  0  0  0  0  0  0  0999 V2000
   -1.1974    1.4155    0.4542 C   0  0  0  0  0  3  0  0  0  0  0  0
   -1.1607    2.8540    0.0931 C   0  0  0  0  0  0  0  0  0  0  0  0
   -2.3301    3.6554    0.6545 C   0  0  0  0  0  0  0  0  0  0  0  0
   -2.1121    0.9539    0.8037 H   0  0  0  0  0  0  0  0  0  0  0  0
   -0.2133    3.2941    0.4263 H   0  0  0  0  0  0  0  0  0  0  0  0
   -1.1463    2.9597   -1.0026 H   0  0  0  0  0  0  0  0  0  0  0  0
   -2.3396    3.6178    1.7454 H   0  0  0  0  0  0  0  0  0  0  0  0
   -3.2815    3.2540    0.2987 H   0  0  0  0  0  0  0  0  0  0  0  0
   -2.2742    4.7022    0.3527 H   0  0  0  0  0  0  0  0  0  0  0  0
    0.9166    0.2220    1.4039 C   0  0  0  0  0  3  0  0  0  0  0  0
    0.9166   -1.2396    1.0203 C   0  0  0  0  0  0  0  0  0  0  0  0
    0.9166   -1.3438   -0.3812 O   0  0  0  0  0  0  0  0  0  0  0  0
    0.9166   -2.6730   -0.8378 C   0  0  0  0  0  0  0  0  0  0  0  0
    0.9166   -2.6730   -2.3489 C   0  0  0  0  0  0  0  0  0  0  0  0
   -0.1447    0.8212    0.9271 H   0  0  0  0  0  0  0  0  0  0  0  0
    0.9166    0.3278    2.4899 H   0  0  0  0  0  0  0  0  0  0  0  0
    1.8009    0.7213    1.0066 H   0  0  0  0  0  0  0  0  0  0  0  0
    1.8015   -1.7456    1.4341 H   0  0  0  0  0  0  0  0  0  0  0  0
    0.0317   -1.7456    1.4341 H   0  0  0  0  0  0  0  0  0  0  0  0
    1.8015   -3.2016   -0.4535 H   0  0  0  0  0  0  0  0  0  0  0  0
    0.0317   -3.2016   -0.4534 H   0  0  0  0  0  0  0  0  0  0  0  0
    1.8009   -2.1619   -2.7310 H   0  0  0  0  0  0  0  0  0  0  0  0
    0.9166   -3.6965   -2.7270 H   0  0  0  0  0  0  0  0  0  0  0  0
    0.0322   -2.1619   -2.7310 H   0  0  0  0  0  0  0  0  0  0  0  0
  1  2  1  0
  1  4  1  0
  1 15  1  0
  2  3  1  0
  2  5  1  0
  2  6  1  0
  3  7  1  0
  3  8  1  0
  3  9  1  0
 10 11  1  0
 10 16  1  0
 10 17  1  0
 11 12  1  0
 11 18  1  0
 11 19  1  0
 12 13  1  0
 13 14  1  0
 13 20  1  0
 13 21  1  0
 14 22  1  0
 14 23  1  0
 14 24  1  0
M  RAD  2   1   2  10   2
M  END
>  <reaction>  (15) 
rmg_rxn_642

>  <mol_properties>  (15) 
{"0": {"label": "*3", "atom_type": "Cs"}, "1": {"label": "*4", "atom_type": "Cs"}, "9": {"label": "*1", "atom_type": "Cs"}, "10": {"label": "*0", "atom_type": "Cs"}, "14": {"label": "*2", "atom_type": "H0"}}

>  <type>  (15) 
unop_11

>  <geom_source>  (15) 
Heuristics

$$$$

     RDKit          3D

 24 22  0  0  0  0  0  0  0  0999 V2000
   -0.9566    1.9532    0.7300 C   0  0  0  0  0  3  0  0  0  0  0  0
   -1.9597    1.2039   -0.0659 C   0  0  0  0  0  0  0  0  0  0  0  0
   -2.9722    2.0990   -0.7721 C   0  0  0  0  0  0  0  0  0  0  0  0
   -1.1313    2.9825    1.0162 H   0  0  0  0  0  0  0  0  0  0  0  0
   -1.4491    0.5683   -0.7990 H   0  0  0  0  0  0  0  0  0  0  0  0
   -2.4975    0.4990    0.5866 H   0  0  0  0  0  0  0  0  0  0  0  0
   -2.4744    2.7734   -1.4713 H   0  0  0  0  0  0  0  0  0  0  0  0
   -3.5188    2.7103   -0.0508 H   0  0  0  0  0  0  0  0  0  0  0  0
   -3.7000    1.5093   -1.3313 H   0  0  0  0  0  0  0  0  0  0  0  0
    1.1573    0.7597    1.6797 C   0  0  0  0  0  3  0  0  0  0  0  0
    1.1573   -0.7020    1.2961 C   0  0  0  0  0  0  0  0  0  0  0  0
    1.1573   -0.8062   -0.1054 O   0  0  0  0  0  0  0  0  0  0  0  0
    1.1573   -2.1353   -0.5620 C   0  0  0  0  0  0  0  0  0  0  0  0
    1.1573   -2.1353   -2.0732 C   0  0  0  0  0  0  0  0  0  0  0  0
    0.0961    1.3588    1.2029 H   0  0  0  0  0  0  0  0  0  0  0  0
    1.1573    0.8655    2.7657 H   0  0  0  0  0  0  0  0  0  0  0  0
    2.0417    1.2590    1.2824 H   0  0  0  0  0  0  0  0  0  0  0  0
    2.0422   -1.2079    1.7099 H   0  0  0  0  0  0  0  0  0  0  0  0
    0.2724   -1.2079    1.7099 H   0  0  0  0  0  0  0  0  0  0  0  0
    2.0422   -2.6640   -0.1777 H   0  0  0  0  0  0  0  0  0  0  0  0
    0.2724   -2.6640   -0.1777 H   0  0  0  0  0  0  0  0  0  0  0  0
    2.0417   -1.6243   -2.4552 H   0  0  0  0  0  0  0  0  0  0  0  0
    1.1573   -3.1589   -2.4512 H   0  0  0  0  0  0  0  0  0  0  0  0
    0.2729   -1.6243   -2.4552 H   0  0  0  0  0  0  0  0  0  0  0  0
  1  2  1  0
  1  4  1  0
  1 15  1  0
  2  3  1  0
  2  5  1  0
  2  6  1  0
  3  7  1  0
  3  8  1  0
  3  9  1  0
 10 11  1  0
 10 16  1  0
 10 17  1  0
 11 12  1  0
 11 18  1  0
 11 19  1  0
 12 13  1  0
 13 14  1  0
 13 20  1  0
 13 21  1  0
 14 22  1  0
 14 23  1  0
 14 24  1  0
M  RAD  2   1   2  10   2
M  END
>  <reaction>  (16) 
rmg_rxn_642

>  <mol_properties>  (16) 
{"0": {"label": "*3", "atom_type": "Cs"}, "1": {"label": "*4", "atom_type": "Cs"}, "9": {"label": "*1", "atom_type": "Cs"}, "10": {"label": "*0", "atom_type": "Cs"}, "14": {"label": "*2", "atom_type": "H0"}}

>  <type>  (16) 
unop_12

>  <geom_source>  (16) 
Heuristics

$$$$

     RDKit          3D

 24 22  0  0  0  0  0  0  0  0999 V2000
   -1.7699   -0.8509   -0.2321 O   0  0  0  0  0  0  0  0  0  0  0  0
    2.7962    0.7707    0.9647 C   0  0  0  0  0  0  0  0  0  0  0  0
   -2.8487    0.0605   -0.2025 C   0  0  0  0  0  0  0  0  0  0  0  0
   -1.1020   -0.7881   -1.4776 C   0  0  0  0  0  0  0  0  0  0  0  0
    3.7441   -0.2557    0.3540 C   0  0  0  0  0  0  0  0  0  0  0  0
   -3.4603    0.0661    1.1899 C   0  0  0  0  0  0  0  0  0  0  0  0
    1.3536    0.2884    0.9091 C   0  0  0  0  0  2  0  0  0  0  0  0
    0.1276    0.1018   -1.3649 C   0  0  0  0  0  0  0  0  0  0  0  0
    2.8780    1.7271    0.4064 H   0  0  0  0  0  0  0  0  0  0  0  0
    3.0790    0.9540    2.0231 H   0  0  0  0  0  0  0  0  0  0  0  0
   -3.6347   -0.2469   -0.9288 H   0  0  0  0  0  0  0  0  0  0  0  0
   -2.5089    1.0947   -0.4383 H   0  0  0  0  0  0  0  0  0  0  0  0
    3.6863   -1.2146    0.9120 H   0  0  0  0  0  0  0  0  0  0  0  0
    3.4852   -0.4346   -0.7114 H   0  0  0  0  0  0  0  0  0  0  0  0
    4.7863    0.1237    0.4072 H   0  0  0  0  0  0  0  0  0  0  0  0
   -4.3136    0.7760    1.2227 H   0  0  0  0  0  0  0  0  0  0  0  0
   -2.7009    0.3808    1.9369 H   0  0  0  0  0  0  0  0  0  0  0  0
   -3.8268   -0.9500    1.4484 H   0  0  0  0  0  0  0  0  0  0  0  0
   -0.7595   -1.8124   -1.7337 H   0  0  0  0  0  0  0  0  0  0  0  0
   -1.7467   -0.4461   -2.3222 H   0  0  0  0  0  0  0  0  0  0  0  0
    1.2281   -0.6469    1.4952 H   0  0  0  0  0  0  0  0  0  0  0  0
    0.9681    0.0818   -0.3925 H   0  0  0  0  0  0  0  0  0  0  0  0
    0.7076    0.0702   -2.3113 H   0  0  0  0  0  0  0  0  0  0  0  0
   -0.1682    1.1507   -1.1542 H   0  0  0  0  0  0  0  0  0  0  0  0
  1  3  1  0
  1  4  1  0
  2  7  1  0
  2  5  1  0
  2  9  1  0
  2 10  1  0
  3  6  1  0
  3 11  1  0
  3 12  1  0
  4  8  1  0
  4 19  1  0
  4 20  1  0
  5 13  1  0
  5 14  1  0
  5 15  1  0
  6 16  1  0
  6 17  1  0
  6 18  1  0
  7 21  1  0
  8 22  1  0
  8 23  1  0
  8 24  1  0
M  RAD  1   7   3
M  END
>  <reaction>  (17) 
rmg_rxn_642

>  <mol_properties>  (17) 
{"0": {"label": "*3", "atom_type": "Cs"}, "1": {"label": "*4", "atom_type": "Cs"}, "9": {"label": "*1", "atom_type": "Cs"}, "10": {"label": "*0", "atom_type": "Cs"}, "14": {"label": "*2", "atom_type": "H0"}}

>  <type>  (17) 
unop_13

>  <geom_source>  (17) 
AutoTST

$$$$

     RDKit          3D

 24 22  0  0  0  0  0  0  0  0999 V2000
   -0.8696    1.9522    0.5395 C   0  0  0  0  0  3  0  0  0  0  0  0
   -2.1395    1.2100    0.3466 C   0  0  0  0  0  0  0  0  0  0  0  0
   -3.3071    2.0953   -0.0752 C   0  0  0  0  0  0  0  0  0  0  0  0
   -0.8687    3.0270    0.6688 H   0  0  0  0  0  0  0  0  0  0  0  0
   -1.9921    0.4116   -0.3903 H   0  0  0  0  0  0  0  0  0  0  0  0
   -2.4053    0.6844    1.2766 H   0  0  0  0  0  0  0  0  0  0  0  0
   -3.0978    2.5884   -1.0263 H   0  0  0  0  0  0  0  0  0  0  0  0
   -3.4933    2.8722    0.6694 H   0  0  0  0  0  0  0  0  0  0  0  0
   -4.2234    1.5145   -0.1899 H   0  0  0  0  0  0  0  0  0  0  0  0
    1.2444    0.7587    1.4892 C   0  0  0  0  0  3  0  0  0  0  0  0
    1.2444   -0.7030    1.1056 C   0  0  0  0  0  0  0  0  0  0  0  0
    1.2444   -0.8072   -0.2959 O   0  0  0  0  0  0  0  0  0  0  0  0
    1.2444   -2.1363   -0.7525 C   0  0  0  0  0  0  0  0  0  0  0  0
    1.2444   -2.1363   -2.2636 C   0  0  0  0  0  0  0  0  0  0  0  0
    0.1832    1.3579    1.0125 H   0  0  0  0  0  0  0  0  0  0  0  0
    1.2444    0.8645    2.5752 H   0  0  0  0  0  0  0  0  0  0  0  0
    2.1288    1.2580    1.0919 H   0  0  0  0  0  0  0  0  0  0  0  0
    2.1293   -1.2089    1.5194 H   0  0  0  0  0  0  0  0  0  0  0  0
    0.3595   -1.2089    1.5194 H   0  0  0  0  0  0  0  0  0  0  0  0
    2.1293   -2.6650   -0.3681 H   0  0  0  0  0  0  0  0  0  0  0  0
    0.3595   -2.6650   -0.3681 H   0  0  0  0  0  0  0  0  0  0  0  0
    2.1288   -1.6253   -2.6457 H   0  0  0  0  0  0  0  0  0  0  0  0
    1.2444   -3.1599   -2.6416 H   0  0  0  0  0  0  0  0  0  0  0  0
    0.3600   -1.6253   -2.6457 H   0  0  0  0  0  0  0  0  0  0  0  0
  1  2  1  0
  1  4  1  0
  1 15  1  0
  2  3  1  0
  2  5  1  0
  2  6  1  0
  3  7  1  0
  3  8  1  0
  3  9  1  0
 10 11  1  0
 10 16  1  0
 10 17  1  0
 11 12  1  0
 11 18  1  0
 11 19  1  0
 12 13  1  0
 13 14  1  0
 13 20  1  0
 13 21  1  0
 14 22  1  0
 14 23  1  0
 14 24  1  0
M  RAD  2   1   2  10   2
M  END
>  <reaction>  (18) 
rmg_rxn_642

>  <mol_properties>  (18) 
{"0": {"label": "*3", "atom_type": "Cs"}, "1": {"label": "*4", "atom_type": "Cs"}, "9": {"label": "*1", "atom_type": "Cs"}, "10": {"label": "*0", "atom_type": "Cs"}, "14": {"label": "*2", "atom_type": "H0"}}

>  <type>  (18) 
unop_14

>  <geom_source>  (18) 
gaussian_log

$$$$
