
     RDKit          3D

  9  8  0  0  0  0  0  0  0  0999 V2000
    1.1303   -0.2933   -0.7510 C   0  0  0  0  0  0  0  0  0  0  0  0
    0.2866    0.4560   -0.0588 C   0  0  0  0  0  0  0  0  0  0  0  0
   -0.9719   -0.0331    0.5823 C   0  0  0  0  0  0  0  0  0  0  0  0
    2.0274    0.1230   -1.1916 H   0  0  0  0  0  0  0  0  0  0  0  0
    0.9532   -1.3530   -0.9023 H   0  0  0  0  0  0  0  0  0  0  0  0
    0.5065    1.5132    0.0659 H   0  0  0  0  0  0  0  0  0  0  0  0
   -0.9526    0.1426    1.6610 H   0  0  0  0  0  0  0  0  0  0  0  0
   -1.1182   -1.1002    0.4106 H   0  0  0  0  0  0  0  0  0  0  0  0
   -1.8412    0.5010    0.1901 H   0  0  0  0  0  0  0  0  0  0  0  0
  1  2  2  3
  1  4  1  0
  1  5  1  0
  2  3  1  0
  2  6  1  0
  3  7  1  0
  3  8  1  0
  3  9  1  0
M  END
>  <reaction>  (1) 
rmg_rxn_15725

>  <mol_properties>  (1) 
{"2": {"label": "donator", "atom_type": "Cs"}, "6": {"label": "d_hydrogen", "atom_type": "H0"}}

>  <type>  (1) 
r1h

$$$$

     RDKit          3D

  8  7  0  0  0  0  0  0  0  0999 V2000
    1.7077   -0.1964   -0.0607 C   0  0  0  0  0  3  0  0  0  0  0  0
    0.4209   -0.4565    0.2808 O   0  0  0  0  0  0  0  0  0  0  0  0
   -0.4607    0.4385   -0.2968 N   0  0  0  0  0  0  0  0  0  0  0  0
   -1.6584    0.1416   -0.0244 C   0  0  0  0  0  0  0  0  0  0  0  0
    2.4163   -0.7685    0.5170 H   0  0  0  0  0  0  0  0  0  0  0  0
    1.9214    0.7645   -0.5045 H   0  0  0  0  0  0  0  0  0  0  0  0
   -2.4185    0.7953   -0.4307 H   0  0  0  0  0  0  0  0  0  0  0  0
   -1.9286   -0.7185    0.5831 H   0  0  0  0  0  0  0  0  0  0  0  0
  1  2  1  0
  1  5  1  0
  1  6  1  0
  2  3  1  0
  3  4  2  3
  4  7  1  0
  4  8  1  0
M  RAD  1   1   2
M  END
>  <reaction>  (2) 
rmg_rxn_15725

>  <mol_properties>  (2) 
{"0": {"label": "acceptor", "atom_type": "Cs"}}

>  <type>  (2) 
r2

$$$$

     RDKit          3D

  9  8  0  0  0  0  0  0  0  0999 V2000
   -1.5470   -0.0755   -0.1976 C   0  0  0  0  0  0  0  0  0  0  0  0
   -0.2885    0.4507    0.1749 O   0  0  0  0  0  0  0  0  0  0  0  0
   -0.1502    1.7216   -0.3294 N   0  0  0  0  0  0  0  0  0  0  0  0
    0.9626    2.2353   -0.0219 C   0  0  0  0  0  0  0  0  0  0  0  0
   -1.6392   -0.1356   -1.2844 H   0  0  0  0  0  0  0  0  0  0  0  0
   -2.3597    0.5337    0.2044 H   0  0  0  0  0  0  0  0  0  0  0  0
   -1.5879   -1.0750    0.2318 H   0  0  0  0  0  0  0  0  0  0  0  0
    1.1497    3.2381   -0.3820 H   0  0  0  0  0  0  0  0  0  0  0  0
    1.7060    1.7101    0.5739 H   0  0  0  0  0  0  0  0  0  0  0  0
  1  2  1  0
  1  5  1  0
  1  6  1  0
  1  7  1  0
  2  3  1  0
  3  4  2  3
  4  8  1  0
  4  9  1  0
M  END
>  <reaction>  (3) 
rmg_rxn_15725

>  <mol_properties>  (3) 
{"0": {"label": "acceptor", "atom_type": "Cs"}, "8": {"label": "a_hydrogen", "atom_type": "H0"}}

>  <type>  (3) 
r2h

$$$$

     RDKit          3D

 17 15  0  0  0  0  0  0  0  0999 V2000
    0.2417    0.9726    1.5805 C   0  0  0  0  0  3  0  0  0  0  0  0
   -0.5396   -0.1327    1.3184 O   0  0  0  0  0  0  0  0  0  0  0  0
   -1.5458    0.1804    0.4249 N   0  0  0  0  0  0  0  0  0  0  0  0
   -2.1417   -0.8569    0.0190 C   0  0  0  0  0  0  0  0  0  0  0  0
   -0.3201    1.9023    1.6499 H   0  0  0  0  0  0  0  0  0  0  0  0
    0.8949    0.7510    2.4194 H   0  0  0  0  0  0  0  0  0  0  0  0
   -2.9602   -0.7029   -0.6714 H   0  0  0  0  0  0  0  0  0  0  0  0
   -1.8594   -1.8579    0.3353 H   0  0  0  0  0  0  0  0  0  0  0  0
    1.0462   -0.8595   -1.9820 C   0  0  0  0  0  0  0  0  0  0  0  0
    1.8577   -0.2419   -1.1206 C   0  0  0  0  0  0  0  0  0  0  0  0
    1.7153    1.1394   -0.6769 C   0  0  0  0  0  0  0  0  0  0  0  0
    1.1868   -1.9001   -2.2444 H   0  0  0  0  0  0  0  0  0  0  0  0
    0.2212   -0.3357   -2.4522 H   0  0  0  0  0  0  0  0  0  0  0  0
    2.6660   -0.8139   -0.6727 H   0  0  0  0  0  0  0  0  0  0  0  0
    1.0731    1.1223    0.4665 H   0  0  0  0  0  0  0  0  0  0  0  0
    1.0684    1.7574   -1.2967 H   0  0  0  0  0  0  0  0  0  0  0  0
    2.6426    1.6437   -0.4129 H   0  0  0  0  0  0  0  0  0  0  0  0
  1  2  1  0
  1  5  1  0
  1  6  1  0
  2  3  1  0
  3  4  2  3
  4  7  1  0
  4  8  1  0
  9 10  2  3
  9 12  1  0
  9 13  1  0
 10 11  1  0
 10 14  1  0
 11 15  1  0
 11 16  1  0
 11 17  1  0
M  RAD  1   1   2
M  END
>  <reaction>  (4) 
rmg_rxn_15725

>  <mol_properties>  (4) 
{"0": {"label": "*3", "atom_type": "Cs"}, "1": {"label": "*4", "atom_type": "O2s"}, "9": {"label": "*0", "atom_type": "Cd"}, "10": {"label": "*1", "atom_type": "Cs"}, "14": {"label": "*2", "atom_type": "H0"}}

>  <type>  (4) 
ts

$$$$

     RDKit          3D

 17 15  0  0  0  0  0  0  0  0999 V2000
   -0.9152   -1.2340    0.5899 C   0  0  0  0  0  0  0  0  0  0  0  0
   -1.8651   -0.6222   -0.2216 O   0  0  0  0  0  0  0  0  0  0  0  0
   -1.9535    0.7207   -0.3115 N   0  0  0  0  0  0  0  0  0  0  0  0
   -1.1179    1.4988    0.2238 C   0  0  0  0  0  0  0  0  0  0  0  0
   -0.8323   -0.7894    1.5831 H   0  0  0  0  0  0  0  0  0  0  0  0
   -1.1786   -2.2860    0.6291 H   0  0  0  0  0  0  0  0  0  0  0  0
   -1.3079    2.5490    0.0867 H   0  0  0  0  0  0  0  0  0  0  0  0
   -0.2294    1.2161    0.7837 H   0  0  0  0  0  0  0  0  0  0  0  0
    2.4074    1.1045   -0.0307 C   0  0  0  0  0  0  0  0  0  0  0  0
    2.2852   -0.2054    0.2375 C   0  0  0  0  0  0  0  0  0  0  0  0
    1.4811   -1.1149   -0.5255 C   0  0  0  0  0  3  0  0  0  0  0  0
    2.9997    1.7578    0.5847 H   0  0  0  0  0  0  0  0  0  0  0  0
    1.9341    1.5460   -0.8921 H   0  0  0  0  0  0  0  0  0  0  0  0
    2.7680   -0.6089    1.1194 H   0  0  0  0  0  0  0  0  0  0  0  0
    0.2694   -1.1607    0.0520 H   0  0  0  0  0  0  0  0  0  0  0  0
    1.7606   -2.1589   -0.4704 H   0  0  0  0  0  0  0  0  0  0  0  0
    1.2265   -0.7880   -1.5268 H   0  0  0  0  0  0  0  0  0  0  0  0
  1  2  1  0
  1  5  1  0
  1  6  1  0
  1 15  1  0
  2  3  1  0
  3  4  2  3
  4  7  1  0
  4  8  1  0
  9 10  2  3
  9 12  1  0
  9 13  1  0
 10 11  1  0
 10 14  1  0
 11 16  1  0
 11 17  1  0
M  RAD  1  11   2
M  END
>  <reaction>  (5) 
rmg_rxn_15725

>  <mol_properties>  (5) 
{"0": {"label": "*3", "atom_type": "Cs"}, "1": {"label": "*4", "atom_type": "O2s"}, "9": {"label": "*0", "atom_type": "Cd"}, "10": {"label": "*1", "atom_type": "Cs"}, "14": {"label": "*2", "atom_type": "H0"}}

>  <type>  (5) 
unop_1

>  <geom_source>  (5) 
crest_best.xyz

$$$$

     RDKit          3D

 17 15  0  0  0  0  0  0  0  0999 V2000
   -0.9336    0.1014    0.0968 C   0  0  0  0  0  0  0  0  0  0  0  0
   -0.4303    0.1157    1.4182 O   0  0  0  0  0  0  0  0  0  0  0  0
   -1.2156    0.9246    2.2041 N   0  0  0  0  0  0  0  0  0  0  0  0
   -0.8042    0.9696    3.3980 C   0  0  0  0  0  0  0  0  0  0  0  0
   -1.9516   -0.2939    0.0706 H   0  0  0  0  0  0  0  0  0  0  0  0
   -0.9201    1.1037   -0.3373 H   0  0  0  0  0  0  0  0  0  0  0  0
   -1.3700    1.5870    4.0828 H   0  0  0  0  0  0  0  0  0  0  0  0
    0.0723    0.4216    3.7370 H   0  0  0  0  0  0  0  0  0  0  0  0
    1.1687   -1.1618   -3.6473 C   0  0  0  0  0  0  0  0  0  0  0  0
    1.1687   -1.1618   -2.3235 C   0  0  0  0  0  0  0  0  0  0  0  0
    1.1687    0.0604   -1.4630 C   0  0  0  0  0  3  0  0  0  0  0  0
    1.1687   -2.0845   -4.2137 H   0  0  0  0  0  0  0  0  0  0  0  0
    1.1687   -0.2362   -4.2133 H   0  0  0  0  0  0  0  0  0  0  0  0
    1.1687   -2.1144   -1.8000 H   0  0  0  0  0  0  0  0  0  0  0  0
    0.1154    0.0809   -0.6815 H   0  0  0  0  0  0  0  0  0  0  0  0
    1.1687    0.9708   -2.0636 H   0  0  0  0  0  0  0  0  0  0  0  0
    2.0464    0.0775   -0.8118 H   0  0  0  0  0  0  0  0  0  0  0  0
  1  2  1  0
  1  5  1  0
  1  6  1  0
  1 15  1  0
  2  3  1  0
  3  4  2  3
  4  7  1  0
  4  8  1  0
  9 10  2  3
  9 12  1  0
  9 13  1  0
 10 11  1  0
 10 14  1  0
 11 16  1  0
 11 17  1  0
M  RAD  1  11   2
M  END
>  <reaction>  (6) 
rmg_rxn_15725

>  <mol_properties>  (6) 
{"0": {"label": "*3", "atom_type": "Cs"}, "1": {"label": "*4", "atom_type": "O2s"}, "9": {"label": "*0", "atom_type": "Cd"}, "10": {"label": "*1", "atom_type": "Cs"}, "14": {"label": "*2", "atom_type": "H0"}}

>  <type>  (6) 
unop_2

>  <geom_source>  (6) 
Heuristics

$$$$

     RDKit          3D

 17 15  0  0  0  0  0  0  0  0999 V2000
    0.8093    1.7056   -0.0273 C   0  0  0  0  0  0  0  0  0  0  0  0
    1.8183    0.7281    0.0091 O   0  0  0  0  0  0  0  0  0  0  0  0
    1.2818   -0.5439   -0.0187 N   0  0  0  0  0  0  0  0  0  0  0  0
    2.1020   -1.4964    0.0148 C   0  0  0  0  0  0  0  0  0  0  0  0
    1.2994    2.6704   -0.0351 H   0  0  0  0  0  0  0  0  0  0  0  0
    0.1033    1.5777   -0.8254 H   0  0  0  0  0  0  0  0  0  0  0  0
    1.6875   -2.4893   -0.0073 H   0  0  0  0  0  0  0  0  0  0  0  0
    3.1806   -1.3774    0.0633 H   0  0  0  0  0  0  0  0  0  0  0  0
   -1.9569   -0.2804    1.2169 C   0  0  0  0  0  0  0  0  0  0  0  0
   -2.5460   -0.0067    0.0075 C   0  0  0  0  0  0  0  0  0  0  0  0
   -1.9817   -0.3235   -1.2030 C   0  0  0  0  0  3  0  0  0  0  0  0
   -2.4276   -0.0165    2.1466 H   0  0  0  0  0  0  0  0  0  0  0  0
   -1.0005   -0.7719    1.2563 H   0  0  0  0  0  0  0  0  0  0  0  0
   -3.5101    0.4890    0.0088 H   0  0  0  0  0  0  0  0  0  0  0  0
    0.0705    1.6091    0.7790 H   0  0  0  0  0  0  0  0  0  0  0  0
   -1.0246   -0.8134   -1.2445 H   0  0  0  0  0  0  0  0  0  0  0  0
   -2.4724   -0.0938   -2.1315 H   0  0  0  0  0  0  0  0  0  0  0  0
  1  2  1  0
  1  5  1  0
  1  6  1  0
  1 15  1  0
  2  3  1  0
  3  4  2  3
  4  7  1  0
  4  8  1  0
  9 10  2  3
  9 12  1  0
  9 13  1  0
 10 11  1  0
 10 14  1  0
 11 16  1  0
 11 17  1  0
M  RAD  1  11   2
M  END
>  <reaction>  (7) 
rmg_rxn_15725

>  <mol_properties>  (7) 
{"0": {"label": "*3", "atom_type": "Cs"}, "1": {"label": "*4", "atom_type": "O2s"}, "9": {"label": "*0", "atom_type": "Cd"}, "10": {"label": "*1", "atom_type": "Cs"}, "14": {"label": "*2", "atom_type": "H0"}}

>  <type>  (7) 
unop_3

>  <geom_source>  (7) 
Heuristics

$$$$

     RDKit          3D

 17 15  0  0  0  0  0  0  0  0999 V2000
   -0.8038   -1.7042    0.0247 C   0  0  0  0  0  0  0  0  0  0  0  0
   -1.8167   -0.7309   -0.0096 O   0  0  0  0  0  0  0  0  0  0  0  0
   -1.2855    0.5432    0.0176 N   0  0  0  0  0  0  0  0  0  0  0  0
   -2.1098    1.4922   -0.0147 C   0  0  0  0  0  0  0  0  0  0  0  0
   -0.0916   -1.5704    0.8155 H   0  0  0  0  0  0  0  0  0  0  0  0
   -1.2887   -2.6713    0.0371 H   0  0  0  0  0  0  0  0  0  0  0  0
   -1.6997    2.4869    0.0071 H   0  0  0  0  0  0  0  0  0  0  0  0
   -3.1880    1.3686   -0.0619 H   0  0  0  0  0  0  0  0  0  0  0  0
    1.9643    0.2852   -1.2162 C   0  0  0  0  0  0  0  0  0  0  0  0
    2.5462    0.0071   -0.0044 C   0  0  0  0  0  0  0  0  0  0  0  0
    1.9776    0.3248    1.2039 C   0  0  0  0  0  3  0  0  0  0  0  0
    2.4384    0.0207   -2.1440 H   0  0  0  0  0  0  0  0  0  0  0  0
    1.0103    0.7811   -1.2598 H   0  0  0  0  0  0  0  0  0  0  0  0
    3.5078   -0.4933   -0.0017 H   0  0  0  0  0  0  0  0  0  0  0  0
   -0.0660   -1.6055   -0.7812 H   0  0  0  0  0  0  0  0  0  0  0  0
    1.0228    0.8195    1.2416 H   0  0  0  0  0  0  0  0  0  0  0  0
    2.4625    0.0911    2.1345 H   0  0  0  0  0  0  0  0  0  0  0  0
  1  2  1  0
  1  5  1  0
  1  6  1  0
  1 15  1  0
  2  3  1  0
  3  4  2  3
  4  7  1  0
  4  8  1  0
  9 10  2  3
  9 12  1  0
  9 13  1  0
 10 11  1  0
 10 14  1  0
 11 16  1  0
 11 17  1  0
M  RAD  1  11   2
M  END
>  <reaction>  (8) 
rmg_rxn_15725

>  <mol_properties>  (8) 
{"0": {"label": "*3", "atom_type": "Cs"}, "1": {"label": "*4", "atom_type": "O2s"}, "9": {"label": "*0", "atom_type": "Cd"}, "10": {"label": "*1", "atom_type": "Cs"}, "14": {"label": "*2", "atom_type": "H0"}}

>  <type>  (8) 
unop_4

>  <geom_source>  (8) 
Heuristics

$$$$

     RDKit          3D

 17 15  0  0  0  0  0  0  0  0999 V2000
   -0.4648    1.1356    0.6051 C   0  0  0  0  0  0  0  0  0  0  0  0
   -0.7848   -0.2193    0.8529 O   0  0  0  0  0  0  0  0  0  0  0  0
   -1.5900   -0.3095    1.9630 N   0  0  0  0  0  0  0  0  0  0  0  0
   -1.9037   -1.5051    2.2254 C   0  0  0  0  0  0  0  0  0  0  0  0
   -1.3666    1.7211    0.4122 H   0  0  0  0  0  0  0  0  0  0  0  0
    0.0784    1.5692    1.4478 H   0  0  0  0  0  0  0  0  0  0  0  0
   -2.5382   -1.6618    3.0875 H   0  0  0  0  0  0  0  0  0  0  0  0
   -1.5621   -2.3459    1.6255 H   0  0  0  0  0  0  0  0  0  0  0  0
    1.6374   -0.1275   -3.1389 C   0  0  0  0  0  0  0  0  0  0  0  0
    1.6374   -0.1275   -1.8151 C   0  0  0  0  0  0  0  0  0  0  0  0
    1.6374    1.0946   -0.9546 C   0  0  0  0  0  3  0  0  0  0  0  0
    1.6374   -1.0503   -3.7054 H   0  0  0  0  0  0  0  0  0  0  0  0
    1.6374    0.7981   -3.7049 H   0  0  0  0  0  0  0  0  0  0  0  0
    1.6374   -1.0802   -1.2916 H   0  0  0  0  0  0  0  0  0  0  0  0
    0.5842    1.1152   -0.1732 H   0  0  0  0  0  0  0  0  0  0  0  0
    1.6374    2.0051   -1.5552 H   0  0  0  0  0  0  0  0  0  0  0  0
    2.5151    1.1118   -0.3034 H   0  0  0  0  0  0  0  0  0  0  0  0
  1  2  1  0
  1  5  1  0
  1  6  1  0
  1 15  1  0
  2  3  1  0
  3  4  2  3
  4  7  1  0
  4  8  1  0
  9 10  2  3
  9 12  1  0
  9 13  1  0
 10 11  1  0
 10 14  1  0
 11 16  1  0
 11 17  1  0
M  RAD  1  11   2
M  END
>  <reaction>  (9) 
rmg_rxn_15725

>  <mol_properties>  (9) 
{"0": {"label": "*3", "atom_type": "Cs"}, "1": {"label": "*4", "atom_type": "O2s"}, "9": {"label": "*0", "atom_type": "Cd"}, "10": {"label": "*1", "atom_type": "Cs"}, "14": {"label": "*2", "atom_type": "H0"}}

>  <type>  (9) 
unop_5

>  <geom_source>  (9) 
Heuristics

$$$$

     RDKit          3D

 17 15  0  0  0  0  0  0  0  0999 V2000
    0.9182    1.2367    0.5879 C   0  0  0  0  0  0  0  0  0  0  0  0
    1.8625    0.6197   -0.2262 O   0  0  0  0  0  0  0  0  0  0  0  0
    1.9468   -0.7237   -0.3122 N   0  0  0  0  0  0  0  0  0  0  0  0
    1.1117   -1.4978    0.2294 C   0  0  0  0  0  0  0  0  0  0  0  0
    0.8384    0.7953    1.5827 H   0  0  0  0  0  0  0  0  0  0  0  0
    1.1849    2.2880    0.6228 H   0  0  0  0  0  0  0  0  0  0  0  0
    1.2981   -2.5490    0.0947 H   0  0  0  0  0  0  0  0  0  0  0  0
    0.2266   -1.2110    0.7926 H   0  0  0  0  0  0  0  0  0  0  0  0
   -2.3977   -1.1061   -0.0369 C   0  0  0  0  0  0  0  0  0  0  0  0
   -2.2813    0.2027    0.2391 C   0  0  0  0  0  0  0  0  0  0  0  0
   -1.4821    1.1203   -0.5193 C   0  0  0  0  0  3  0  0  0  0  0  0
   -2.9861   -1.7660    0.5753 H   0  0  0  0  0  0  0  0  0  0  0  0
   -1.9230   -1.5401   -0.9013 H   0  0  0  0  0  0  0  0  0  0  0  0
   -2.7649    0.5986    1.1242 H   0  0  0  0  0  0  0  0  0  0  0  0
   -0.2688    1.1656    0.0551 H   0  0  0  0  0  0  0  0  0  0  0  0
   -1.7647    2.1630   -0.4559 H   0  0  0  0  0  0  0  0  0  0  0  0
   -1.2288    0.8014   -1.5234 H   0  0  0  0  0  0  0  0  0  0  0  0
  1  2  1  0
  1  5  1  0
  1  6  1  0
  1 15  1  0
  2  3  1  0
  3  4  2  3
  4  7  1  0
  4  8  1  0
  9 10  2  3
  9 12  1  0
  9 13  1  0
 10 11  1  0
 10 14  1  0
 11 16  1  0
 11 17  1  0
M  RAD  1  11   2
M  END
>  <reaction>  (10) 
rmg_rxn_15725

>  <mol_properties>  (10) 
{"0": {"label": "*3", "atom_type": "Cs"}, "1": {"label": "*4", "atom_type": "O2s"}, "9": {"label": "*0", "atom_type": "Cd"}, "10": {"label": "*1", "atom_type": "Cs"}, "14": {"label": "*2", "atom_type": "H0"}}

>  <type>  (10) 
unop_6

>  <geom_source>  (10) 
Heuristics

$$$$

     RDKit          3D

 17 15  0  0  0  0  0  0  0  0999 V2000
   -0.7845   -0.2121    0.2403 C   0  0  0  0  0  0  0  0  0  0  0  0
   -0.3838    0.4816    1.4056 O   0  0  0  0  0  0  0  0  0  0  0  0
   -1.4800    1.0574    2.0018 N   0  0  0  0  0  0  0  0  0  0  0  0
   -1.1714    1.6907    3.0508 C   0  0  0  0  0  0  0  0  0  0  0  0
   -1.4900   -1.0098    0.4836 H   0  0  0  0  0  0  0  0  0  0  0  0
   -1.2388    0.4689   -0.4829 H   0  0  0  0  0  0  0  0  0  0  0  0
   -1.9808    2.1746    3.5808 H   0  0  0  0  0  0  0  0  0  0  0  0
   -0.1489    1.7561    3.4165 H   0  0  0  0  0  0  0  0  0  0  0  0
    1.3178   -1.4752   -3.5037 C   0  0  0  0  0  0  0  0  0  0  0  0
    1.3178   -1.4752   -2.1799 C   0  0  0  0  0  0  0  0  0  0  0  0
    1.3178   -0.2531   -1.3194 C   0  0  0  0  0  3  0  0  0  0  0  0
    1.3178   -2.3980   -4.0702 H   0  0  0  0  0  0  0  0  0  0  0  0
    1.3178   -0.5497   -4.0697 H   0  0  0  0  0  0  0  0  0  0  0  0
    1.3178   -2.4279   -1.6564 H   0  0  0  0  0  0  0  0  0  0  0  0
    0.2645   -0.2325   -0.5380 H   0  0  0  0  0  0  0  0  0  0  0  0
    1.3178    0.6574   -1.9200 H   0  0  0  0  0  0  0  0  0  0  0  0
    2.1955   -0.2360   -0.6682 H   0  0  0  0  0  0  0  0  0  0  0  0
  1  2  1  0
  1  5  1  0
  1  6  1  0
  1 15  1  0
  2  3  1  0
  3  4  2  3
  4  7  1  0
  4  8  1  0
  9 10  2  3
  9 12  1  0
  9 13  1  0
 10 11  1  0
 10 14  1  0
 11 16  1  0
 11 17  1  0
M  RAD  1  11   2
M  END
>  <reaction>  (11) 
rmg_rxn_15725

>  <mol_properties>  (11) 
{"0": {"label": "*3", "atom_type": "Cs"}, "1": {"label": "*4", "atom_type": "O2s"}, "9": {"label": "*0", "atom_type": "Cd"}, "10": {"label": "*1", "atom_type": "Cs"}, "14": {"label": "*2", "atom_type": "H0"}}

>  <type>  (11) 
unop_7

>  <geom_source>  (11) 
Heuristics

$$$$

     RDKit          3D

 17 15  0  0  0  0  0  0  0  0999 V2000
    0.0511    0.1425    1.3875 C   0  0  0  0  0  0  0  0  0  0  0  0
   -1.0678    0.1402    0.5229 O   0  0  0  0  0  0  0  0  0  0  0  0
   -2.1000    0.8410    1.0994 N   0  0  0  0  0  0  0  0  0  0  0  0
   -3.1257    0.8670    0.3618 C   0  0  0  0  0  0  0  0  0  0  0  0
    0.4006    1.1610    1.5715 H   0  0  0  0  0  0  0  0  0  0  0  0
   -0.1889   -0.3384    2.3384 H   0  0  0  0  0  0  0  0  0  0  0  0
   -3.9850    1.4009    0.7450 H   0  0  0  0  0  0  0  0  0  0  0  0
   -3.1600    0.3825   -0.6116 H   0  0  0  0  0  0  0  0  0  0  0  0
    2.1534   -1.1206   -2.3565 C   0  0  0  0  0  0  0  0  0  0  0  0
    2.1534   -1.1206   -1.0328 C   0  0  0  0  0  0  0  0  0  0  0  0
    2.1534    0.1015   -0.1723 C   0  0  0  0  0  3  0  0  0  0  0  0
    2.1534   -2.0434   -2.9230 H   0  0  0  0  0  0  0  0  0  0  0  0
    2.1534   -0.1950   -2.9225 H   0  0  0  0  0  0  0  0  0  0  0  0
    2.1534   -2.0733   -0.5093 H   0  0  0  0  0  0  0  0  0  0  0  0
    1.1002    0.1221    0.6092 H   0  0  0  0  0  0  0  0  0  0  0  0
    2.1534    1.0120   -0.7729 H   0  0  0  0  0  0  0  0  0  0  0  0
    3.0311    0.1187    0.4789 H   0  0  0  0  0  0  0  0  0  0  0  0
  1  2  1  0
  1  5  1  0
  1  6  1  0
  1 15  1  0
  2  3  1  0
  3  4  2  3
  4  7  1  0
  4  8  1  0
  9 10  2  3
  9 12  1  0
  9 13  1  0
 10 11  1  0
 10 14  1  0
 11 16  1  0
 11 17  1  0
M  RAD  1  11   2
M  END
>  <reaction>  (12) 
rmg_rxn_15725

>  <mol_properties>  (12) 
{"0": {"label": "*3", "atom_type": "Cs"}, "1": {"label": "*4", "atom_type": "O2s"}, "9": {"label": "*0", "atom_type": "Cd"}, "10": {"label": "*1", "atom_type": "Cs"}, "14": {"label": "*2", "atom_type": "H0"}}

>  <type>  (12) 
unop_8

>  <geom_source>  (12) 
Heuristics

$$$$

     RDKit          3D

 17 15  0  0  0  0  0  0  0  0999 V2000
    0.8002   -1.7040    0.0265 C   0  0  0  0  0  0  0  0  0  0  0  0
    1.8142   -0.7318   -0.0057 O   0  0  0  0  0  0  0  0  0  0  0  0
    1.2840    0.5429    0.0155 N   0  0  0  0  0  0  0  0  0  0  0  0
    2.1096    1.4910   -0.0150 C   0  0  0  0  0  0  0  0  0  0  0  0
    1.2841   -2.6716    0.0410 H   0  0  0  0  0  0  0  0  0  0  0  0
    0.0859   -1.5689    0.8153 H   0  0  0  0  0  0  0  0  0  0  0  0
    1.7005    2.4862    0.0020 H   0  0  0  0  0  0  0  0  0  0  0  0
    3.1878    1.3659   -0.0564 H   0  0  0  0  0  0  0  0  0  0  0  0
   -1.9809    0.3288    1.2031 C   0  0  0  0  0  0  0  0  0  0  0  0
   -2.5431    0.0074   -0.0072 C   0  0  0  0  0  0  0  0  0  0  0  0
   -1.9553    0.2832   -1.2168 C   0  0  0  0  0  3  0  0  0  0  0  0
   -2.4703    0.0968    2.1318 H   0  0  0  0  0  0  0  0  0  0  0  0
   -1.0270    0.8249    1.2444 H   0  0  0  0  0  0  0  0  0  0  0  0
   -3.5041   -0.4944   -0.0080 H   0  0  0  0  0  0  0  0  0  0  0  0
    0.0647   -1.6052   -0.7814 H   0  0  0  0  0  0  0  0  0  0  0  0
   -1.0018    0.7802   -1.2567 H   0  0  0  0  0  0  0  0  0  0  0  0
   -2.4245    0.0157   -2.1462 H   0  0  0  0  0  0  0  0  0  0  0  0
  1  2  1  0
  1  5  1  0
  1  6  1  0
  1 15  1  0
  2  3  1  0
  3  4  2  3
  4  7  1  0
  4  8  1  0
  9 10  2  3
  9 12  1  0
  9 13  1  0
 10 11  1  0
 10 14  1  0
 11 16  1  0
 11 17  1  0
M  RAD  1  11   2
M  END
>  <reaction>  (13) 
rmg_rxn_15725

>  <mol_properties>  (13) 
{"0": {"label": "*3", "atom_type": "Cs"}, "1": {"label": "*4", "atom_type": "O2s"}, "9": {"label": "*0", "atom_type": "Cd"}, "10": {"label": "*1", "atom_type": "Cs"}, "14": {"label": "*2", "atom_type": "H0"}}

>  <type>  (13) 
unop_9

>  <geom_source>  (13) 
Heuristics

$$$$

     RDKit          3D

 17 15  0  0  0  0  0  0  0  0999 V2000
   -0.6272   -0.3517    0.3935 C   0  0  0  0  0  0  0  0  0  0  0  0
   -0.5190    0.8370    1.1517 O   0  0  0  0  0  0  0  0  0  0  0  0
   -1.5908    0.9410    2.0055 N   0  0  0  0  0  0  0  0  0  0  0  0
   -1.5385    1.9910    2.7066 C   0  0  0  0  0  0  0  0  0  0  0  0
   -0.6240   -1.2305    1.0423 H   0  0  0  0  0  0  0  0  0  0  0  0
   -1.5368   -0.3479   -0.2113 H   0  0  0  0  0  0  0  0  0  0  0  0
   -2.3483    2.1474    3.4065 H   0  0  0  0  0  0  0  0  0  0  0  0
   -0.7277    2.7115    2.6234 H   0  0  0  0  0  0  0  0  0  0  0  0
    1.4750   -1.6149   -3.3505 C   0  0  0  0  0  0  0  0  0  0  0  0
    1.4750   -1.6149   -2.0268 C   0  0  0  0  0  0  0  0  0  0  0  0
    1.4750   -0.3927   -1.1662 C   0  0  0  0  0  3  0  0  0  0  0  0
    1.4750   -2.5376   -3.9170 H   0  0  0  0  0  0  0  0  0  0  0  0
    1.4750   -0.6893   -3.9165 H   0  0  0  0  0  0  0  0  0  0  0  0
    1.4750   -2.5675   -1.5032 H   0  0  0  0  0  0  0  0  0  0  0  0
    0.4218   -0.3722   -0.3848 H   0  0  0  0  0  0  0  0  0  0  0  0
    1.4750    0.5177   -1.7668 H   0  0  0  0  0  0  0  0  0  0  0  0
    2.3527   -0.3756   -0.5150 H   0  0  0  0  0  0  0  0  0  0  0  0
  1  2  1  0
  1  5  1  0
  1  6  1  0
  1 15  1  0
  2  3  1  0
  3  4  2  3
  4  7  1  0
  4  8  1  0
  9 10  2  3
  9 12  1  0
  9 13  1  0
 10 11  1  0
 10 14  1  0
 11 16  1  0
 11 17  1  0
M  RAD  1  11   2
M  END
>  <reaction>  (14) 
rmg_rxn_15725

>  <mol_properties>  (14) 
{"0": {"label": "*3", "atom_type": "Cs"}, "1": {"label": "*4", "atom_type": "O2s"}, "9": {"label": "*0", "atom_type": "Cd"}, "10": {"label": "*1", "atom_type": "Cs"}, "14": {"label": "*2", "atom_type": "H0"}}

>  <type>  (14) 
unop_10

>  <geom_source>  (14) 
Heuristics

$$$$

     RDKit          3D

 17 15  0  0  0  0  0  0  0  0999 V2000
    0.5532   -1.7185   -0.1617 C   0  0  0  0  0  0  0  0  0  0  0  0
    1.2089   -0.5692   -0.5844 O   0  0  0  0  0  0  0  0  0  0  0  0
    1.5602    0.2455    0.4740 N   0  0  0  0  0  0  0  0  0  0  0  0
    2.0889    1.3483    0.1683 C   0  0  0  0  0  0  0  0  0  0  0  0
    0.5416   -2.4152   -0.9931 H   0  0  0  0  0  0  0  0  0  0  0  0
    0.9725   -2.1370    0.7512 H   0  0  0  0  0  0  0  0  0  0  0  0
    2.3760    1.9850    0.9859 H   0  0  0  0  0  0  0  0  0  0  0  0
    2.2672    1.6812   -0.8498 H   0  0  0  0  0  0  0  0  0  0  0  0
   -1.9785    1.3173   -0.6179 C   0  0  0  0  0  0  0  0  0  0  0  0
   -1.7948    0.5088    0.4367 C   0  0  0  0  0  0  0  0  0  0  0  0
   -1.9044   -0.9204    0.3880 C   0  0  0  0  0  3  0  0  0  0  0  0
   -1.8523    2.3826   -0.5458 H   0  0  0  0  0  0  0  0  0  0  0  0
   -2.2703    0.9273   -1.5787 H   0  0  0  0  0  0  0  0  0  0  0  0
   -1.4766    0.9372    1.3790 H   0  0  0  0  0  0  0  0  0  0  0  0
   -0.6748   -1.3830    0.1136 H   0  0  0  0  0  0  0  0  0  0  0  0
   -2.4732   -1.3188   -0.4435 H   0  0  0  0  0  0  0  0  0  0  0  0
   -2.1056   -1.4171    1.3281 H   0  0  0  0  0  0  0  0  0  0  0  0
  1  2  1  0
  1  5  1  0
  1  6  1  0
  1 15  1  0
  2  3  1  0
  3  4  2  3
  4  7  1  0
  4  8  1  0
  9 10  2  3
  9 12  1  0
  9 13  1  0
 10 11  1  0
 10 14  1  0
 11 16  1  0
 11 17  1  0
M  RAD  1  11   2
M  END
>  <reaction>  (15) 
rmg_rxn_15725

>  <mol_properties>  (15) 
{"0": {"label": "*3", "atom_type": "Cs"}, "1": {"label": "*4", "atom_type": "O2s"}, "9": {"label": "*0", "atom_type": "Cd"}, "10": {"label": "*1", "atom_type": "Cs"}, "14": {"label": "*2", "atom_type": "H0"}}

>  <type>  (15) 
unop_11

>  <geom_source>  (15) 
Heuristics

$$$$

     RDKit          3D

 17 15  0  0  0  0  0  0  0  0999 V2000
   -0.1037   -0.2704    1.2306 C   0  0  0  0  0  0  0  0  0  0  0  0
   -1.1079    0.4089    0.5027 O   0  0  0  0  0  0  0  0  0  0  0  0
   -1.8329    1.2106    1.3514 N   0  0  0  0  0  0  0  0  0  0  0  0
   -2.7453    1.8403    0.7451 C   0  0  0  0  0  0  0  0  0  0  0  0
    0.5880    0.4362    1.6947 H   0  0  0  0  0  0  0  0  0  0  0  0
   -0.5433   -0.9095    1.9997 H   0  0  0  0  0  0  0  0  0  0  0  0
   -3.3630    2.4955    1.3446 H   0  0  0  0  0  0  0  0  0  0  0  0
   -2.9149    1.7404   -0.3249 H   0  0  0  0  0  0  0  0  0  0  0  0
    1.9986   -1.5336   -2.5135 C   0  0  0  0  0  0  0  0  0  0  0  0
    1.9986   -1.5336   -1.1897 C   0  0  0  0  0  0  0  0  0  0  0  0
    1.9986   -0.3114   -0.3292 C   0  0  0  0  0  3  0  0  0  0  0  0
    1.9986   -2.4563   -3.0799 H   0  0  0  0  0  0  0  0  0  0  0  0
    1.9986   -0.6080   -3.0795 H   0  0  0  0  0  0  0  0  0  0  0  0
    1.9986   -2.4862   -0.6662 H   0  0  0  0  0  0  0  0  0  0  0  0
    0.9453   -0.2909    0.4523 H   0  0  0  0  0  0  0  0  0  0  0  0
    1.9986    0.5990   -0.9298 H   0  0  0  0  0  0  0  0  0  0  0  0
    2.8763   -0.2943    0.3220 H   0  0  0  0  0  0  0  0  0  0  0  0
  1  2  1  0
  1  5  1  0
  1  6  1  0
  1 15  1  0
  2  3  1  0
  3  4  2  3
  4  7  1  0
  4  8  1  0
  9 10  2  3
  9 12  1  0
  9 13  1  0
 10 11  1  0
 10 14  1  0
 11 16  1  0
 11 17  1  0
M  RAD  1  11   2
M  END
>  <reaction>  (16) 
rmg_rxn_15725

>  <mol_properties>  (16) 
{"0": {"label": "*3", "atom_type": "Cs"}, "1": {"label": "*4", "atom_type": "O2s"}, "9": {"label": "*0", "atom_type": "Cd"}, "10": {"label": "*1", "atom_type": "Cs"}, "14": {"label": "*2", "atom_type": "H0"}}

>  <type>  (16) 
unop_12

>  <geom_source>  (16) 
Heuristics

$$$$

     RDKit          3D

 17 15  0  0  0  0  0  0  0  0999 V2000
    0.9163   -1.2373    0.5863 C   0  0  0  0  0  0  0  0  0  0  0  0
    1.8607   -0.6217   -0.2287 O   0  0  0  0  0  0  0  0  0  0  0  0
    1.9498    0.7216   -0.3119 N   0  0  0  0  0  0  0  0  0  0  0  0
    1.1179    1.4977    0.2319 C   0  0  0  0  0  0  0  0  0  0  0  0
    1.1816   -2.2890    0.6209 H   0  0  0  0  0  0  0  0  0  0  0  0
    0.8384   -0.7958    1.5812 H   0  0  0  0  0  0  0  0  0  0  0  0
    1.3085    2.5485    0.0997 H   0  0  0  0  0  0  0  0  0  0  0  0
    0.2318    1.2129    0.7946 H   0  0  0  0  0  0  0  0  0  0  0  0
   -2.3980    1.1085   -0.0415 C   0  0  0  0  0  0  0  0  0  0  0  0
   -2.2820   -0.1989    0.2412 C   0  0  0  0  0  0  0  0  0  0  0  0
   -1.4866   -1.1214   -0.5152 C   0  0  0  0  0  3  0  0  0  0  0  0
   -2.9836    1.7724    0.5689 H   0  0  0  0  0  0  0  0  0  0  0  0
   -1.9258    1.5372   -0.9099 H   0  0  0  0  0  0  0  0  0  0  0  0
   -2.7627   -0.5895    1.1301 H   0  0  0  0  0  0  0  0  0  0  0  0
   -0.2713   -1.1651    0.0552 H   0  0  0  0  0  0  0  0  0  0  0  0
   -1.2365   -0.8082   -1.5219 H   0  0  0  0  0  0  0  0  0  0  0  0
   -1.7700   -2.1634   -0.4452 H   0  0  0  0  0  0  0  0  0  0  0  0
  1  2  1  0
  1  5  1  0
  1  6  1  0
  1 15  1  0
  2  3  1  0
  3  4  2  3
  4  7  1  0
  4  8  1  0
  9 10  2  3
  9 12  1  0
  9 13  1  0
 10 11  1  0
 10 14  1  0
 11 16  1  0
 11 17  1  0
M  RAD  1  11   2
M  END
>  <reaction>  (17) 
rmg_rxn_15725

>  <mol_properties>  (17) 
{"0": {"label": "*3", "atom_type": "Cs"}, "1": {"label": "*4", "atom_type": "O2s"}, "9": {"label": "*0", "atom_type": "Cd"}, "10": {"label": "*1", "atom_type": "Cs"}, "14": {"label": "*2", "atom_type": "H0"}}

>  <type>  (17) 
unop_13

>  <geom_source>  (17) 
Heuristics

$$$$

     RDKit          3D

 17 15  0  0  0  0  0  0  0  0999 V2000
   -0.3306   -0.4817    0.9249 C   0  0  0  0  0  0  0  0  0  0  0  0
   -1.0334    0.6987    0.5900 O   0  0  0  0  0  0  0  0  0  0  0  0
   -1.5631    1.2607    1.7269 N   0  0  0  0  0  0  0  0  0  0  0  0
   -2.2026    2.3216    1.4778 C   0  0  0  0  0  0  0  0  0  0  0  0
    0.4952   -0.2648    1.6062 H   0  0  0  0  0  0  0  0  0  0  0  0
   -0.9969   -1.2169    1.3816 H   0  0  0  0  0  0  0  0  0  0  0  0
   -2.6519    2.8266    2.3224 H   0  0  0  0  0  0  0  0  0  0  0  0
   -2.3060    2.7211    0.4711 H   0  0  0  0  0  0  0  0  0  0  0  0
    1.7717   -1.7449   -2.8191 C   0  0  0  0  0  0  0  0  0  0  0  0
    1.7717   -1.7449   -1.4954 C   0  0  0  0  0  0  0  0  0  0  0  0
    1.7717   -0.5227   -0.6349 C   0  0  0  0  0  3  0  0  0  0  0  0
    1.7717   -2.6676   -3.3856 H   0  0  0  0  0  0  0  0  0  0  0  0
    1.7717   -0.8193   -3.3852 H   0  0  0  0  0  0  0  0  0  0  0  0
    1.7717   -2.6975   -0.9719 H   0  0  0  0  0  0  0  0  0  0  0  0
    0.7184   -0.5021    0.1466 H   0  0  0  0  0  0  0  0  0  0  0  0
    1.7717    0.3878   -1.2355 H   0  0  0  0  0  0  0  0  0  0  0  0
    2.6494   -0.5056    0.0163 H   0  0  0  0  0  0  0  0  0  0  0  0
  1  2  1  0
  1  5  1  0
  1  6  1  0
  1 15  1  0
  2  3  1  0
  3  4  2  3
  4  7  1  0
  4  8  1  0
  9 10  2  3
  9 12  1  0
  9 13  1  0
 10 11  1  0
 10 14  1  0
 11 16  1  0
 11 17  1  0
M  RAD  1  11   2
M  END
>  <reaction>  (18) 
rmg_rxn_15725

>  <mol_properties>  (18) 
{"0": {"label": "*3", "atom_type": "Cs"}, "1": {"label": "*4", "atom_type": "O2s"}, "9": {"label": "*0", "atom_type": "Cd"}, "10": {"label": "*1", "atom_type": "Cs"}, "14": {"label": "*2", "atom_type": "H0"}}

>  <type>  (18) 
unop_14

>  <geom_source>  (18) 
Heuristics

$$$$

     RDKit          3D

 17 15  0  0  0  0  0  0  0  0999 V2000
   -0.8121    1.7056   -0.0276 C   0  0  0  0  0  0  0  0  0  0  0  0
   -1.8201    0.7275    0.0166 O   0  0  0  0  0  0  0  0  0  0  0  0
   -1.2834   -0.5441   -0.0258 N   0  0  0  0  0  0  0  0  0  0  0  0
   -2.1027   -1.4971    0.0144 C   0  0  0  0  0  0  0  0  0  0  0  0
   -0.1124    1.5783   -0.8313 H   0  0  0  0  0  0  0  0  0  0  0  0
   -1.3029    2.6701   -0.0314 H   0  0  0  0  0  0  0  0  0  0  0  0
   -1.6883   -2.4898   -0.0193 H   0  0  0  0  0  0  0  0  0  0  0  0
   -3.1805   -1.3788    0.0795 H   0  0  0  0  0  0  0  0  0  0  0  0
    1.9629   -0.2831    1.2170 C   0  0  0  0  0  0  0  0  0  0  0  0
    2.5487   -0.0066    0.0067 C   0  0  0  0  0  0  0  0  0  0  0  0
    1.9806   -0.3193   -1.2031 C   0  0  0  0  0  3  0  0  0  0  0  0
    2.4367   -0.0226    2.1461 H   0  0  0  0  0  0  0  0  0  0  0  0
    1.0060   -0.7736    1.2580 H   0  0  0  0  0  0  0  0  0  0  0  0
    3.5134    0.4879    0.0067 H   0  0  0  0  0  0  0  0  0  0  0  0
   -0.0669    1.6096    0.7729 H   0  0  0  0  0  0  0  0  0  0  0  0
    1.0227   -0.8078   -1.2433 H   0  0  0  0  0  0  0  0  0  0  0  0
    2.4689   -0.0873   -2.1323 H   0  0  0  0  0  0  0  0  0  0  0  0
  1  2  1  0
  1  5  1  0
  1  6  1  0
  1 15  1  0
  2  3  1  0
  3  4  2  3
  4  7  1  0
  4  8  1  0
  9 10  2  3
  9 12  1  0
  9 13  1  0
 10 11  1  0
 10 14  1  0
 11 16  1  0
 11 17  1  0
M  RAD  1  11   2
M  END
>  <reaction>  (19) 
rmg_rxn_15725

>  <mol_properties>  (19) 
{"0": {"label": "*3", "atom_type": "Cs"}, "1": {"label": "*4", "atom_type": "O2s"}, "9": {"label": "*0", "atom_type": "Cd"}, "10": {"label": "*1", "atom_type": "Cs"}, "14": {"label": "*2", "atom_type": "H0"}}

>  <type>  (19) 
unop_15

>  <geom_source>  (19) 
Heuristics

$$$$

     RDKit          3D

 17 15  0  0  0  0  0  0  0  0999 V2000
   -0.9383    0.5365    0.0845 C   0  0  0  0  0  0  0  0  0  0  0  0
   -0.5498   -0.1307    1.2691 O   0  0  0  0  0  0  0  0  0  0  0  0
   -1.0996    0.5016    2.3584 N   0  0  0  0  0  0  0  0  0  0  0  0
   -0.7798   -0.0601    3.4442 C   0  0  0  0  0  0  0  0  0  0  0  0
   -2.0241    0.5223   -0.0339 H   0  0  0  0  0  0  0  0  0  0  0  0
   -0.5847    1.5701    0.0843 H   0  0  0  0  0  0  0  0  0  0  0  0
   -1.1735    0.3785    4.3513 H   0  0  0  0  0  0  0  0  0  0  0  0
   -0.1420   -0.9406    3.4830 H   0  0  0  0  0  0  0  0  0  0  0  0
    1.1639   -0.7266   -3.6596 C   0  0  0  0  0  0  0  0  0  0  0  0
    1.1639   -0.7266   -2.3358 C   0  0  0  0  0  0  0  0  0  0  0  0
    1.1639    0.4955   -1.4753 C   0  0  0  0  0  3  0  0  0  0  0  0
    1.1639   -1.6494   -4.2261 H   0  0  0  0  0  0  0  0  0  0  0  0
    1.1639    0.1990   -4.2256 H   0  0  0  0  0  0  0  0  0  0  0  0
    1.1639   -1.6793   -1.8123 H   0  0  0  0  0  0  0  0  0  0  0  0
    0.1107    0.5161   -0.6938 H   0  0  0  0  0  0  0  0  0  0  0  0
    1.1639    1.4060   -2.0759 H   0  0  0  0  0  0  0  0  0  0  0  0
    2.0417    0.5127   -0.8241 H   0  0  0  0  0  0  0  0  0  0  0  0
  1  2  1  0
  1  5  1  0
  1  6  1  0
  1 15  1  0
  2  3  1  0
  3  4  2  3
  4  7  1  0
  4  8  1  0
  9 10  2  3
  9 12  1  0
  9 13  1  0
 10 11  1  0
 10 14  1  0
 11 16  1  0
 11 17  1  0
M  RAD  1  11   2
M  END
>  <reaction>  (20) 
rmg_rxn_15725

>  <mol_properties>  (20) 
{"0": {"label": "*3", "atom_type": "Cs"}, "1": {"label": "*4", "atom_type": "O2s"}, "9": {"label": "*0", "atom_type": "Cd"}, "10": {"label": "*1", "atom_type": "Cs"}, "14": {"label": "*2", "atom_type": "H0"}}

>  <type>  (20) 
unop_16

>  <geom_source>  (20) 
Heuristics

$$$$

     RDKit          3D

 17 15  0  0  0  0  0  0  0  0999 V2000
   -0.9152   -1.2340    0.5899 C   0  0  0  0  0  0  0  0  0  0  0  0
   -1.8651   -0.6222   -0.2216 O   0  0  0  0  0  0  0  0  0  0  0  0
   -1.9535    0.7207   -0.3115 N   0  0  0  0  0  0  0  0  0  0  0  0
   -1.1179    1.4988    0.2238 C   0  0  0  0  0  0  0  0  0  0  0  0
   -0.8323   -0.7894    1.5831 H   0  0  0  0  0  0  0  0  0  0  0  0
   -1.1786   -2.2860    0.6291 H   0  0  0  0  0  0  0  0  0  0  0  0
   -1.3079    2.5490    0.0867 H   0  0  0  0  0  0  0  0  0  0  0  0
   -0.2294    1.2161    0.7837 H   0  0  0  0  0  0  0  0  0  0  0  0
    2.4074    1.1045   -0.0307 C   0  0  0  0  0  0  0  0  0  0  0  0
    2.2852   -0.2054    0.2375 C   0  0  0  0  0  0  0  0  0  0  0  0
    1.4811   -1.1149   -0.5255 C   0  0  0  0  0  3  0  0  0  0  0  0
    2.9997    1.7578    0.5847 H   0  0  0  0  0  0  0  0  0  0  0  0
    1.9341    1.5460   -0.8921 H   0  0  0  0  0  0  0  0  0  0  0  0
    2.7680   -0.6089    1.1194 H   0  0  0  0  0  0  0  0  0  0  0  0
    0.2694   -1.1607    0.0520 H   0  0  0  0  0  0  0  0  0  0  0  0
    1.7606   -2.1589   -0.4704 H   0  0  0  0  0  0  0  0  0  0  0  0
    1.2265   -0.7880   -1.5268 H   0  0  0  0  0  0  0  0  0  0  0  0
  1  2  1  0
  1  5  1  0
  1  6  1  0
  1 15  1  0
  2  3  1  0
  3  4  2  3
  4  7  1  0
  4  8  1  0
  9 10  2  3
  9 12  1  0
  9 13  1  0
 10 11  1  0
 10 14  1  0
 11 16  1  0
 11 17  1  0
M  RAD  1  11   2
M  END
>  <reaction>  (21) 
rmg_rxn_15725

>  <mol_properties>  (21) 
{"0": {"label": "*3", "atom_type": "Cs"}, "1": {"label": "*4", "atom_type": "O2s"}, "9": {"label": "*0", "atom_type": "Cd"}, "10": {"label": "*1", "atom_type": "Cs"}, "14": {"label": "*2", "atom_type": "H0"}}

>  <type>  (21) 
unop_17

>  <geom_source>  (21) 
Heuristics

$$$$

     RDKit          3D

 17 15  0  0  0  0  0  0  0  0999 V2000
    0.0508    0.6370    1.3133 C   0  0  0  0  0  0  0  0  0  0  0  0
   -0.9655   -0.0446    0.6048 O   0  0  0  0  0  0  0  0  0  0  0  0
   -2.1929    0.2734    1.1352 N   0  0  0  0  0  0  0  0  0  0  0  0
   -3.1361   -0.3135    0.5331 C   0  0  0  0  0  0  0  0  0  0  0  0
   -0.0766    1.7191    1.2349 H   0  0  0  0  0  0  0  0  0  0  0  0
    0.0562    0.3454    2.3660 H   0  0  0  0  0  0  0  0  0  0  0  0
   -4.1375   -0.1154    0.8913 H   0  0  0  0  0  0  0  0  0  0  0  0
   -2.9676   -0.9870   -0.3045 H   0  0  0  0  0  0  0  0  0  0  0  0
    2.1531   -0.6261   -2.4308 C   0  0  0  0  0  0  0  0  0  0  0  0
    2.1531   -0.6261   -1.1070 C   0  0  0  0  0  0  0  0  0  0  0  0
    2.1531    0.5960   -0.2465 C   0  0  0  0  0  3  0  0  0  0  0  0
    2.1531   -1.5489   -2.9972 H   0  0  0  0  0  0  0  0  0  0  0  0
    2.1531    0.2995   -2.9968 H   0  0  0  0  0  0  0  0  0  0  0  0
    2.1531   -1.5788   -0.5835 H   0  0  0  0  0  0  0  0  0  0  0  0
    1.0999    0.6166    0.5350 H   0  0  0  0  0  0  0  0  0  0  0  0
    2.1531    1.5065   -0.8471 H   0  0  0  0  0  0  0  0  0  0  0  0
    3.0308    0.6132    0.4047 H   0  0  0  0  0  0  0  0  0  0  0  0
  1  2  1  0
  1  5  1  0
  1  6  1  0
  1 15  1  0
  2  3  1  0
  3  4  2  3
  4  7  1  0
  4  8  1  0
  9 10  2  3
  9 12  1  0
  9 13  1  0
 10 11  1  0
 10 14  1  0
 11 16  1  0
 11 17  1  0
M  RAD  1  11   2
M  END
>  <reaction>  (22) 
rmg_rxn_15725

>  <mol_properties>  (22) 
{"0": {"label": "*3", "atom_type": "Cs"}, "1": {"label": "*4", "atom_type": "O2s"}, "9": {"label": "*0", "atom_type": "Cd"}, "10": {"label": "*1", "atom_type": "Cs"}, "14": {"label": "*2", "atom_type": "H0"}}

>  <type>  (22) 
unop_18

>  <geom_source>  (22) 
Heuristics

$$$$

     RDKit          3D

 17 15  0  0  0  0  0  0  0  0999 V2000
   -0.7683    0.9349    0.2622 C   0  0  0  0  0  0  0  0  0  0  0  0
   -0.6812   -0.2336    1.0538 O   0  0  0  0  0  0  0  0  0  0  0  0
   -1.2328    0.0025    2.2903 N   0  0  0  0  0  0  0  0  0  0  0  0
   -1.1782   -1.0160    3.0362 C   0  0  0  0  0  0  0  0  0  0  0  0
   -1.8097    1.2287    0.1127 H   0  0  0  0  0  0  0  0  0  0  0  0
   -0.2186    1.7597    0.7212 H   0  0  0  0  0  0  0  0  0  0  0  0
   -1.5929   -0.9120    4.0299 H   0  0  0  0  0  0  0  0  0  0  0  0
   -0.7399   -1.9574    2.7117 H   0  0  0  0  0  0  0  0  0  0  0  0
    1.3339   -0.3283   -3.4819 C   0  0  0  0  0  0  0  0  0  0  0  0
    1.3339   -0.3283   -2.1581 C   0  0  0  0  0  0  0  0  0  0  0  0
    1.3339    0.8939   -1.2976 C   0  0  0  0  0  3  0  0  0  0  0  0
    1.3339   -1.2510   -4.0483 H   0  0  0  0  0  0  0  0  0  0  0  0
    1.3339    0.5973   -4.0479 H   0  0  0  0  0  0  0  0  0  0  0  0
    1.3339   -1.2810   -1.6346 H   0  0  0  0  0  0  0  0  0  0  0  0
    0.2807    0.9144   -0.5161 H   0  0  0  0  0  0  0  0  0  0  0  0
    1.3339    1.8043   -1.8982 H   0  0  0  0  0  0  0  0  0  0  0  0
    2.2116    0.9110   -0.6464 H   0  0  0  0  0  0  0  0  0  0  0  0
  1  2  1  0
  1  5  1  0
  1  6  1  0
  1 15  1  0
  2  3  1  0
  3  4  2  3
  4  7  1  0
  4  8  1  0
  9 10  2  3
  9 12  1  0
  9 13  1  0
 10 11  1  0
 10 14  1  0
 11 16  1  0
 11 17  1  0
M  RAD  1  11   2
M  END
>  <reaction>  (23) 
rmg_rxn_15725

>  <mol_properties>  (23) 
{"0": {"label": "*3", "atom_type": "Cs"}, "1": {"label": "*4", "atom_type": "O2s"}, "9": {"label": "*0", "atom_type": "Cd"}, "10": {"label": "*1", "atom_type": "Cs"}, "14": {"label": "*2", "atom_type": "H0"}}

>  <type>  (23) 
unop_19

>  <geom_source>  (23) 
Heuristics

$$$$

     RDKit          3D

 17 15  0  0  0  0  0  0  0  0999 V2000
   -0.5214   -0.4665    0.6017 C   0  0  0  0  0  0  0  0  0  0  0  0
   -0.8170    0.9004    0.8107 O   0  0  0  0  0  0  0  0  0  0  0  0
   -1.4764    1.0540    2.0067 N   0  0  0  0  0  0  0  0  0  0  0  0
   -1.7630    2.2627    2.2384 C   0  0  0  0  0  0  0  0  0  0  0  0
    0.1267   -0.8514    1.3923 H   0  0  0  0  0  0  0  0  0  0  0  0
   -1.4362   -1.0618    0.5575 H   0  0  0  0  0  0  0  0  0  0  0  0
   -2.2847    2.4685    3.1635 H   0  0  0  0  0  0  0  0  0  0  0  0
   -1.5056    3.0678    1.5535 H   0  0  0  0  0  0  0  0  0  0  0  0
    1.5809   -1.7297   -3.1424 C   0  0  0  0  0  0  0  0  0  0  0  0
    1.5809   -1.7297   -1.8186 C   0  0  0  0  0  0  0  0  0  0  0  0
    1.5809   -0.5075   -0.9581 C   0  0  0  0  0  3  0  0  0  0  0  0
    1.5809   -2.6524   -3.7088 H   0  0  0  0  0  0  0  0  0  0  0  0
    1.5809   -0.8041   -3.7084 H   0  0  0  0  0  0  0  0  0  0  0  0
    1.5809   -2.6823   -1.2951 H   0  0  0  0  0  0  0  0  0  0  0  0
    0.5276   -0.4869   -0.1766 H   0  0  0  0  0  0  0  0  0  0  0  0
    1.5809    0.4030   -1.5587 H   0  0  0  0  0  0  0  0  0  0  0  0
    2.4586   -0.4904   -0.3069 H   0  0  0  0  0  0  0  0  0  0  0  0
  1  2  1  0
  1  5  1  0
  1  6  1  0
  1 15  1  0
  2  3  1  0
  3  4  2  3
  4  7  1  0
  4  8  1  0
  9 10  2  3
  9 12  1  0
  9 13  1  0
 10 11  1  0
 10 14  1  0
 11 16  1  0
 11 17  1  0
M  RAD  1  11   2
M  END
>  <reaction>  (24) 
rmg_rxn_15725

>  <mol_properties>  (24) 
{"0": {"label": "*3", "atom_type": "Cs"}, "1": {"label": "*4", "atom_type": "O2s"}, "9": {"label": "*0", "atom_type": "Cd"}, "10": {"label": "*1", "atom_type": "Cs"}, "14": {"label": "*2", "atom_type": "H0"}}

>  <type>  (24) 
unop_20

>  <geom_source>  (24) 
Heuristics

$$$$

     RDKit          3D

 17 15  0  0  0  0  0  0  0  0999 V2000
   -0.1422    1.0269    1.0110 C   0  0  0  0  0  0  0  0  0  0  0  0
   -0.8661   -0.1498    0.7097 O   0  0  0  0  0  0  0  0  0  0  0  0
   -1.9961   -0.2109    1.4895 N   0  0  0  0  0  0  0  0  0  0  0  0
   -2.6782   -1.2486    1.2556 C   0  0  0  0  0  0  0  0  0  0  0  0
   -0.7399    1.9173    0.8033 H   0  0  0  0  0  0  0  0  0  0  0  0
    0.1730    1.0347    2.0568 H   0  0  0  0  0  0  0  0  0  0  0  0
   -3.5864   -1.3716    1.8304 H   0  0  0  0  0  0  0  0  0  0  0  0
   -2.3819   -1.9907    0.5174 H   0  0  0  0  0  0  0  0  0  0  0  0
    1.9601   -0.2363   -2.7330 C   0  0  0  0  0  0  0  0  0  0  0  0
    1.9601   -0.2363   -1.4093 C   0  0  0  0  0  0  0  0  0  0  0  0
    1.9601    0.9859   -0.5488 C   0  0  0  0  0  3  0  0  0  0  0  0
    1.9601   -1.1590   -3.2995 H   0  0  0  0  0  0  0  0  0  0  0  0
    1.9601    0.6893   -3.2990 H   0  0  0  0  0  0  0  0  0  0  0  0
    1.9601   -1.1889   -0.8858 H   0  0  0  0  0  0  0  0  0  0  0  0
    0.9068    1.0064    0.2327 H   0  0  0  0  0  0  0  0  0  0  0  0
    1.9601    1.8963   -1.1494 H   0  0  0  0  0  0  0  0  0  0  0  0
    2.8378    1.0030    0.1024 H   0  0  0  0  0  0  0  0  0  0  0  0
  1  2  1  0
  1  5  1  0
  1  6  1  0
  1 15  1  0
  2  3  1  0
  3  4  2  3
  4  7  1  0
  4  8  1  0
  9 10  2  3
  9 12  1  0
  9 13  1  0
 10 11  1  0
 10 14  1  0
 11 16  1  0
 11 17  1  0
M  RAD  1  11   2
M  END
>  <reaction>  (25) 
rmg_rxn_15725

>  <mol_properties>  (25) 
{"0": {"label": "*3", "atom_type": "Cs"}, "1": {"label": "*4", "atom_type": "O2s"}, "9": {"label": "*0", "atom_type": "Cd"}, "10": {"label": "*1", "atom_type": "Cs"}, "14": {"label": "*2", "atom_type": "H0"}}

>  <type>  (25) 
unop_21

>  <geom_source>  (25) 
Heuristics

$$$$

     RDKit          3D

 17 15  0  0  0  0  0  0  0  0999 V2000
   -0.9216   -1.2393   -0.5852 C   0  0  0  0  0  0  0  0  0  0  0  0
   -1.8604   -0.6176    0.2318 O   0  0  0  0  0  0  0  0  0  0  0  0
   -1.9421    0.7263    0.3131 N   0  0  0  0  0  0  0  0  0  0  0  0
   -1.1092    1.4971   -0.2368 C   0  0  0  0  0  0  0  0  0  0  0  0
   -1.1903   -2.2903   -0.6142 H   0  0  0  0  0  0  0  0  0  0  0  0
   -0.8470   -0.8021   -1.5823 H   0  0  0  0  0  0  0  0  0  0  0  0
   -1.2932    2.5490   -0.1050 H   0  0  0  0  0  0  0  0  0  0  0  0
   -0.2283    1.2068   -0.8045 H   0  0  0  0  0  0  0  0  0  0  0  0
    2.3929    1.1071    0.0449 C   0  0  0  0  0  0  0  0  0  0  0  0
    2.2790   -0.1997   -0.2414 C   0  0  0  0  0  0  0  0  0  0  0  0
    1.4835   -1.1251    0.5114 C   0  0  0  0  0  3  0  0  0  0  0  0
    2.9788    1.7733   -0.5629 H   0  0  0  0  0  0  0  0  0  0  0  0
    1.9184    1.5331    0.9133 H   0  0  0  0  0  0  0  0  0  0  0  0
    2.7619   -0.5874   -1.1305 H   0  0  0  0  0  0  0  0  0  0  0  0
    0.2679   -1.1679   -0.0582 H   0  0  0  0  0  0  0  0  0  0  0  0
    1.2321   -0.8150    1.5187 H   0  0  0  0  0  0  0  0  0  0  0  0
    1.7679   -2.1667    0.4386 H   0  0  0  0  0  0  0  0  0  0  0  0
  1  2  1  0
  1  5  1  0
  1  6  1  0
  1 15  1  0
  2  3  1  0
  3  4  2  3
  4  7  1  0
  4  8  1  0
  9 10  2  3
  9 12  1  0
  9 13  1  0
 10 11  1  0
 10 14  1  0
 11 16  1  0
 11 17  1  0
M  RAD  1  11   2
M  END
>  <reaction>  (26) 
rmg_rxn_15725

>  <mol_properties>  (26) 
{"0": {"label": "*3", "atom_type": "Cs"}, "1": {"label": "*4", "atom_type": "O2s"}, "9": {"label": "*0", "atom_type": "Cd"}, "10": {"label": "*1", "atom_type": "Cs"}, "14": {"label": "*2", "atom_type": "H0"}}

>  <type>  (26) 
unop_22

>  <geom_source>  (26) 
Heuristics

$$$$

     RDKit          3D

 17 15  0  0  0  0  0  0  0  0999 V2000
    1.9596   -0.5398   -0.3805 O   0  0  0  0  0  0  0  0  0  0  0  0
    1.9155    0.6261    0.3489 N   0  0  0  0  0  0  0  0  0  0  0  0
    0.8408   -1.4093   -0.4064 C   0  0  0  0  0  0  0  0  0  0  0  0
   -2.2332   -0.1936   -0.0857 C   0  0  0  0  0  0  0  0  0  0  0  0
   -1.0128    0.3574   -0.7506 C   0  0  0  0  0  0  0  0  0  0  0  0
   -2.4879    0.0655    1.1977 C   0  0  0  0  0  3  0  0  0  0  0  0
    2.9328    1.4221    0.3757 C   0  0  0  0  0  0  0  0  0  0  0  0
    1.0652   -2.2774   -1.0596 H   0  0  0  0  0  0  0  0  0  0  0  0
    0.6226   -1.7718    0.6201 H   0  0  0  0  0  0  0  0  0  0  0  0
   -0.2135   -0.7654   -0.8829 H   0  0  0  0  0  0  0  0  0  0  0  0
   -2.9138   -0.8228   -0.6516 H   0  0  0  0  0  0  0  0  0  0  0  0
   -3.3744   -0.3461    1.6693 H   0  0  0  0  0  0  0  0  0  0  0  0
   -1.8183    0.6866    1.7854 H   0  0  0  0  0  0  0  0  0  0  0  0
   -1.0557    1.4670   -0.7642 H   0  0  0  0  0  0  0  0  0  0  0  0
   -0.9470   -0.0178   -1.7933 H   0  0  0  0  0  0  0  0  0  0  0  0
    3.8341    1.1837   -0.1750 H   0  0  0  0  0  0  0  0  0  0  0  0
    2.8859    2.3355    0.9526 H   0  0  0  0  0  0  0  0  0  0  0  0
  1  3  1  0
  1  2  1  0
  2  7  2  3
  3  8  1  0
  3  9  1  0
  3 10  1  0
  4  5  2  3
  4  6  1  0
  4 11  1  0
  5 14  1  0
  5 15  1  0
  6 12  1  0
  6 13  1  0
  7 16  1  0
  7 17  1  0
M  RAD  1   6   2
M  END
>  <reaction>  (27) 
rmg_rxn_15725

>  <mol_properties>  (27) 
{"0": {"label": "*3", "atom_type": "Cs"}, "1": {"label": "*4", "atom_type": "O2s"}, "9": {"label": "*0", "atom_type": "Cd"}, "10": {"label": "*1", "atom_type": "Cs"}, "14": {"label": "*2", "atom_type": "H0"}}

>  <type>  (27) 
unop_23

>  <geom_source>  (27) 
AutoTST

$$$$

     RDKit          3D

 17 15  0  0  0  0  0  0  0  0999 V2000
   -0.4648    1.1356    0.6051 C   0  0  0  0  0  0  0  0  0  0  0  0
   -0.7848   -0.2193    0.8529 O   0  0  0  0  0  0  0  0  0  0  0  0
   -1.5900   -0.3095    1.9630 N   0  0  0  0  0  0  0  0  0  0  0  0
   -1.9037   -1.5051    2.2254 C   0  0  0  0  0  0  0  0  0  0  0  0
   -1.3666    1.7211    0.4122 H   0  0  0  0  0  0  0  0  0  0  0  0
    0.0784    1.5692    1.4478 H   0  0  0  0  0  0  0  0  0  0  0  0
   -2.5382   -1.6618    3.0875 H   0  0  0  0  0  0  0  0  0  0  0  0
   -1.5621   -2.3458    1.6255 H   0  0  0  0  0  0  0  0  0  0  0  0
    1.6374   -0.1275   -3.1389 C   0  0  0  0  0  0  0  0  0  0  0  0
    1.6374   -0.1275   -1.8151 C   0  0  0  0  0  0  0  0  0  0  0  0
    1.6374    1.0946   -0.9546 C   0  0  0  0  0  3  0  0  0  0  0  0
    1.6374   -1.0503   -3.7054 H   0  0  0  0  0  0  0  0  0  0  0  0
    1.6374    0.7981   -3.7049 H   0  0  0  0  0  0  0  0  0  0  0  0
    1.6374   -1.0802   -1.2916 H   0  0  0  0  0  0  0  0  0  0  0  0
    0.5842    1.1152   -0.1732 H   0  0  0  0  0  0  0  0  0  0  0  0
    1.6374    2.0051   -1.5552 H   0  0  0  0  0  0  0  0  0  0  0  0
    2.5151    1.1118   -0.3034 H   0  0  0  0  0  0  0  0  0  0  0  0
  1  2  1  0
  1  5  1  0
  1  6  1  0
  1 15  1  0
  2  3  1  0
  3  4  2  3
  4  7  1  0
  4  8  1  0
  9 10  2  3
  9 12  1  0
  9 13  1  0
 10 11  1  0
 10 14  1  0
 11 16  1  0
 11 17  1  0
M  RAD  1  11   2
M  END
>  <reaction>  (28) 
rmg_rxn_15725

>  <mol_properties>  (28) 
{"0": {"label": "*3", "atom_type": "Cs"}, "1": {"label": "*4", "atom_type": "O2s"}, "9": {"label": "*0", "atom_type": "Cd"}, "10": {"label": "*1", "atom_type": "Cs"}, "14": {"label": "*2", "atom_type": "H0"}}

>  <type>  (28) 
unop_24

>  <geom_source>  (28) 
gaussian_log

$$$$
