
     RDKit          3D

 18 17  0  0  0  0  0  0  0  0999 V2000
    2.3520    0.9498    0.2303 C   0  0  0  0  0  0  0  0  0  0  0  0
    1.9456   -0.3826   -0.3833 C   0  0  0  0  0  0  0  0  0  0  0  0
    0.6129   -0.8880    0.1586 C   0  0  0  0  0  0  0  0  0  0  0  0
   -0.4216    0.0223   -0.2088 O   0  0  0  0  0  0  0  0  0  0  0  0
   -1.6937   -0.3990    0.2766 C   0  0  0  0  0  0  0  0  0  0  0  0
   -2.7315    0.6179   -0.1548 C   0  0  0  0  0  0  0  0  0  0  0  0
    2.4361    0.8699    1.3188 H   0  0  0  0  0  0  0  0  0  0  0  0
    1.6247    1.7340   -0.0020 H   0  0  0  0  0  0  0  0  0  0  0  0
    3.3238    1.2651   -0.1628 H   0  0  0  0  0  0  0  0  0  0  0  0
    2.7250   -1.1255   -0.1814 H   0  0  0  0  0  0  0  0  0  0  0  0
    1.8763   -0.2576   -1.4701 H   0  0  0  0  0  0  0  0  0  0  0  0
    0.6566   -0.9798    1.2501 H   0  0  0  0  0  0  0  0  0  0  0  0
    0.3966   -1.8732   -0.2699 H   0  0  0  0  0  0  0  0  0  0  0  0
   -1.9410   -1.3825   -0.1378 H   0  0  0  0  0  0  0  0  0  0  0  0
   -1.6694   -0.4651    1.3699 H   0  0  0  0  0  0  0  0  0  0  0  0
   -2.7548    0.7058   -1.2461 H   0  0  0  0  0  0  0  0  0  0  0  0
   -2.4866    1.6097    0.2395 H   0  0  0  0  0  0  0  0  0  0  0  0
   -3.7268    0.3335    0.1978 H   0  0  0  0  0  0  0  0  0  0  0  0
  1  2  1  0
  1  7  1  0
  1  8  1  0
  1  9  1  0
  2  3  1  0
  2 10  1  0
  2 11  1  0
  3  4  1  0
  3 12  1  0
  3 13  1  0
  4  5  1  0
  5  6  1  0
  5 14  1  0
  5 15  1  0
  6 16  1  0
  6 17  1  0
  6 18  1  0
M  END
>  <reaction>  (1) 
rmg_rxn_1157

>  <mol_properties>  (1) 
{"0": {"label": "donator", "atom_type": "Cs"}, "6": {"label": "d_hydrogen", "atom_type": "H0"}}

>  <type>  (1) 
r1h

$$$$

     RDKit          3D

  1  0  0  0  0  0  0  0  0  0999 V2000
    0.0000    0.0000    0.0000 O   0  0  0  0  0 15  0  0  0  0  0  0
M  END
>  <reaction>  (2) 
rmg_rxn_1157

>  <mol_properties>  (2) 
{"0": {"label": "acceptor", "atom_type": "O2s"}}

>  <type>  (2) 
r2

$$$$

     RDKit          3D

  2  1  0  0  0  0  0  0  0  0999 V2000
    0.0000    0.0000    0.1079 O   0  0  0  0  0  1  0  0  0  0  0  0
    0.0000    0.0000   -0.8631 H   0  0  0  0  0  0  0  0  0  0  0  0
  1  2  1  0
M  RAD  1   1   2
M  END
>  <reaction>  (3) 
rmg_rxn_1157

>  <mol_properties>  (3) 
{"0": {"label": "acceptor", "atom_type": "O2s"}, "1": {"label": "a_hydrogen", "atom_type": "H0"}}

>  <type>  (3) 
r2h

$$$$

     RDKit          3D

 19 17  0  0  0  0  0  0  0  0999 V2000
   -2.7591    1.7003   -0.3450 O   0  0  0  0  0  1  0  0  0  0  0  0
   -1.9570   -0.2807    0.9107 C   0  0  0  0  0  3  0  0  0  0  0  0
   -1.3024   -1.2885   -0.0235 C   0  0  0  0  0  0  0  0  0  0  0  0
   -0.1180   -0.6951   -0.7785 C   0  0  0  0  0  0  0  0  0  0  0  0
    0.9008   -0.3329    0.1514 O   0  0  0  0  0  0  0  0  0  0  0  0
    2.0348    0.2333   -0.5005 C   0  0  0  0  0  0  0  0  0  0  0  0
    3.0647    0.5888    0.5531 C   0  0  0  0  0  0  0  0  0  0  0  0
   -2.3820    0.7691    0.2452 H   0  0  0  0  0  0  0  0  0  0  0  0
   -1.2588    0.0602    1.6816 H   0  0  0  0  0  0  0  0  0  0  0  0
   -2.8169   -0.7352    1.4128 H   0  0  0  0  0  0  0  0  0  0  0  0
   -2.0461   -1.6510   -0.7416 H   0  0  0  0  0  0  0  0  0  0  0  0
   -0.9664   -2.1459    0.5713 H   0  0  0  0  0  0  0  0  0  0  0  0
   -0.4332    0.1876   -1.3469 H   0  0  0  0  0  0  0  0  0  0  0  0
    0.2785   -1.4412   -1.4766 H   0  0  0  0  0  0  0  0  0  0  0  0
    2.4573   -0.4916   -1.2048 H   0  0  0  0  0  0  0  0  0  0  0  0
    1.7357    1.1341   -1.0475 H   0  0  0  0  0  0  0  0  0  0  0  0
    3.3605   -0.3009    1.1189 H   0  0  0  0  0  0  0  0  0  0  0  0
    2.6490    1.3008    1.2738 H   0  0  0  0  0  0  0  0  0  0  0  0
    3.9553    1.0286    0.0957 H   0  0  0  0  0  0  0  0  0  0  0  0
  1  8  1  0
  2  3  1  0
  2  9  1  0
  2 10  1  0
  3  4  1  0
  3 11  1  0
  3 12  1  0
  4  5  1  0
  4 13  1  0
  4 14  1  0
  5  6  1  0
  6  7  1  0
  6 15  1  0
  6 16  1  0
  7 17  1  0
  7 18  1  0
  7 19  1  0
M  RAD  2   1   2   2   2
M  END
>  <reaction>  (4) 
rmg_rxn_1157

>  <mol_properties>  (4) 
{"0": {"label": "*1", "atom_type": "O2s"}, "1": {"label": "*3", "atom_type": "Cs"}, "2": {"label": "*4", "atom_type": "Cs"}, "7": {"label": "*2", "atom_type": "H0"}}

>  <type>  (4) 
ts

$$$$

     RDKit          3D

 19 17  0  0  0  0  0  0  0  0999 V2000
   -2.5961    0.8491    1.6878 O   0  0  0  0  0  1  0  0  0  0  0  0
   -0.5786    1.9286    0.7345 C   0  0  0  0  0  3  0  0  0  0  0  0
    0.6856    1.2046    1.1755 C   0  0  0  0  0  0  0  0  0  0  0  0
    0.6903   -0.2615    0.7564 C   0  0  0  0  0  0  0  0  0  0  0  0
    0.6906   -0.3452   -0.6673 O   0  0  0  0  0  0  0  0  0  0  0  0
    0.6906   -1.6976   -1.1175 C   0  0  0  0  0  0  0  0  0  0  0  0
    0.6906   -1.6976   -2.6332 C   0  0  0  0  0  0  0  0  0  0  0  0
   -1.6477    1.3565    1.2397 H   0  0  0  0  0  0  0  0  0  0  0  0
   -0.6745    1.9350   -0.3558 H   0  0  0  0  0  0  0  0  0  0  0  0
   -0.5564    2.9682    1.0764 H   0  0  0  0  0  0  0  0  0  0  0  0
    0.7781    1.2711    2.2651 H   0  0  0  0  0  0  0  0  0  0  0  0
    1.5497    1.7152    0.7348 H   0  0  0  0  0  0  0  0  0  0  0  0
   -0.1908   -0.7747    1.1586 H   0  0  0  0  0  0  0  0  0  0  0  0
    1.5911   -0.7482    1.1472 H   0  0  0  0  0  0  0  0  0  0  0  0
    1.5833   -2.2118   -0.7449 H   0  0  0  0  0  0  0  0  0  0  0  0
   -0.2024   -2.2116   -0.7453 H   0  0  0  0  0  0  0  0  0  0  0  0
    1.5705   -1.1720   -3.0187 H   0  0  0  0  0  0  0  0  0  0  0  0
   -0.1890   -1.1714   -3.0187 H   0  0  0  0  0  0  0  0  0  0  0  0
    0.6903   -2.7191   -3.0235 H   0  0  0  0  0  0  0  0  0  0  0  0
  1  8  1  0
  2  3  1  0
  2  9  1  0
  2 10  1  0
  3  4  1  0
  3 11  1  0
  3 12  1  0
  4  5  1  0
  4 13  1  0
  4 14  1  0
  5  6  1  0
  6  7  1  0
  6 15  1  0
  6 16  1  0
  7 17  1  0
  7 18  1  0
  7 19  1  0
M  RAD  2   1   2   2   2
M  END
>  <reaction>  (5) 
rmg_rxn_1157

>  <mol_properties>  (5) 
{"0": {"label": "*1", "atom_type": "O2s"}, "1": {"label": "*3", "atom_type": "Cs"}, "2": {"label": "*4", "atom_type": "Cs"}, "7": {"label": "*2", "atom_type": "H0"}}

>  <type>  (5) 
unop_1

>  <geom_source>  (5) 
Heuristics

$$$$

     RDKit          3D

 19 17  0  0  0  0  0  0  0  0999 V2000
    1.0006   -0.9925   -0.3750 O   0  0  0  0  0  0  0  0  0  0  0  0
   -2.2862    1.4924    1.3713 O   0  0  0  0  0 15  0  0  0  0  0  0
   -1.3806   -0.6702   -0.1105 C   0  0  0  0  0  0  0  0  0  0  0  0
   -0.0974   -0.2083   -0.8044 C   0  0  0  0  0  0  0  0  0  0  0  0
    1.6724   -0.3888    0.7154 C   0  0  0  0  0  0  0  0  0  0  0  0
    2.8308    0.4683    0.2166 C   0  0  0  0  0  0  0  0  0  0  0  0
   -2.5783    0.1312   -0.6022 C   0  0  0  0  0  0  0  0  0  0  0  0
   -1.5502   -1.7493   -0.3161 H   0  0  0  0  0  0  0  0  0  0  0  0
   -1.2845   -0.5306    0.9871 H   0  0  0  0  0  0  0  0  0  0  0  0
    2.0898   -1.1979    1.3510 H   0  0  0  0  0  0  0  0  0  0  0  0
    1.0026    0.2141    1.3724 H   0  0  0  0  0  0  0  0  0  0  0  0
    0.0573    0.8866   -0.6540 H   0  0  0  0  0  0  0  0  0  0  0  0
   -0.2121   -0.3608   -1.8990 H   0  0  0  0  0  0  0  0  0  0  0  0
    3.3902    0.8814    1.0822 H   0  0  0  0  0  0  0  0  0  0  0  0
    3.5218   -0.1476   -0.3972 H   0  0  0  0  0  0  0  0  0  0  0  0
    2.4518    1.3112   -0.3982 H   0  0  0  0  0  0  0  0  0  0  0  0
   -2.7456   -0.0452   -1.6862 H   0  0  0  0  0  0  0  0  0  0  0  0
   -3.4892   -0.1657   -0.0410 H   0  0  0  0  0  0  0  0  0  0  0  0
   -2.3932    1.0718    0.1876 H   0  0  0  0  0  0  0  0  0  0  0  0
  1  5  1  0
  1  4  1  0
  3  7  1  0
  3  4  1  0
  3  8  1  0
  3  9  1  0
  4 12  1  0
  4 13  1  0
  5  6  1  0
  5 10  1  0
  5 11  1  0
  6 14  1  0
  6 15  1  0
  6 16  1  0
  7 17  1  0
  7 18  1  0
  7 19  1  0
M  END
>  <reaction>  (6) 
rmg_rxn_1157

>  <mol_properties>  (6) 
{"0": {"label": "*1", "atom_type": "O2s"}, "1": {"label": "*3", "atom_type": "Cs"}, "2": {"label": "*4", "atom_type": "Cs"}, "7": {"label": "*2", "atom_type": "H0"}}

>  <type>  (6) 
unop_2

>  <geom_source>  (6) 
AutoTST

$$$$

     RDKit          3D

 19 17  0  0  0  0  0  0  0  0999 V2000
    0.8337   -0.9569   -0.3472 O   0  0  0  0  0  0  0  0  0  0  0  0
   -2.2530    1.4963    3.1856 O   0  0  0  0  0  1  0  0  0  0  0  0
   -0.8982    0.1507    0.9227 C   0  0  0  0  0  0  0  0  0  0  0  0
   -0.5631   -0.7380   -0.2788 C   0  0  0  0  0  0  0  0  0  0  0  0
    1.4326   -0.0587   -1.2580 C   0  0  0  0  0  0  0  0  0  0  0  0
   -2.4045    0.3372    1.0725 C   0  0  0  0  0  3  0  0  0  0  0  0
    2.9435   -0.2215   -1.1999 C   0  0  0  0  0  0  0  0  0  0  0  0
   -0.4246    1.1475    0.7981 H   0  0  0  0  0  0  0  0  0  0  0  0
   -0.4973   -0.3133    1.8496 H   0  0  0  0  0  0  0  0  0  0  0  0
   -0.9937   -0.3061   -1.2144 H   0  0  0  0  0  0  0  0  0  0  0  0
   -1.0517   -1.7256   -0.1359 H   0  0  0  0  0  0  0  0  0  0  0  0
    1.0962   -0.2798   -2.2962 H   0  0  0  0  0  0  0  0  0  0  0  0
    1.1859    0.9975   -1.0049 H   0  0  0  0  0  0  0  0  0  0  0  0
   -2.6378    1.0733    2.0716 H   0  0  0  0  0  0  0  0  0  0  0  0
   -2.9020   -0.6437    1.2291 H   0  0  0  0  0  0  0  0  0  0  0  0
   -2.8255    0.8228    0.1664 H   0  0  0  0  0  0  0  0  0  0  0  0
    3.2244   -1.2624   -1.4669 H   0  0  0  0  0  0  0  0  0  0  0  0
    3.3105    0.0042   -0.1762 H   0  0  0  0  0  0  0  0  0  0  0  0
    3.4246    0.4766   -1.9172 H   0  0  0  0  0  0  0  0  0  0  0  0
  1  5  1  0
  1  4  1  0
  2 14  1  0
  3  6  1  0
  3  4  1  0
  3  8  1  0
  3  9  1  0
  4 10  1  0
  4 11  1  0
  5  7  1  0
  5 12  1  0
  5 13  1  0
  6 15  1  0
  6 16  1  0
  7 17  1  0
  7 18  1  0
  7 19  1  0
M  RAD  2   2   2   6   2
M  END
>  <reaction>  (7) 
rmg_rxn_1157

>  <mol_properties>  (7) 
{"0": {"label": "*1", "atom_type": "O2s"}, "1": {"label": "*3", "atom_type": "Cs"}, "2": {"label": "*4", "atom_type": "Cs"}, "7": {"label": "*2", "atom_type": "H0"}}

>  <type>  (7) 
unop_3

>  <geom_source>  (7) 
gaussian_log

$$$$
