
     RDKit          3D

  5  4  0  0  0  0  0  0  0  0999 V2000
   -0.4583    0.0384    0.1517 N   0  0  0  0  0  0  0  0  0  0  0  0
    0.7454   -0.3487    0.5322 N   0  0  0  0  0  0  0  0  0  0  0  0
    0.7566   -1.0388    1.5193 O   0  0  0  0  0  0  0  0  0  0  0  0
   -1.2688   -0.2521    0.6850 H   0  0  0  0  0  0  0  0  0  0  0  0
   -0.5137    0.6154   -0.6670 H   0  0  0  0  0  0  0  0  0  0  0  0
  1  2  1  0
  1  4  1  0
  1  5  1  0
  2  3  2  0
M  END
>  <reaction>  (1) 
rmg_rxn_1481

>  <mol_properties>  (1) 
{"0": {"label": "donator", "atom_type": "N3s"}, "3": {"label": "d_hydrogen", "atom_type": "H0"}}

>  <type>  (1) 
r1h

$$$$

     RDKit          3D

 13 13  0  0  0  0  0  0  0  0999 V2000
   -0.9087    1.0135    0.2744 C   0  0  0  0  0  3  0  0  0  0  0  0
   -1.1528   -0.4306   -0.0132 C   0  0  0  0  0  0  0  0  0  0  0  0
    0.1597   -1.1985    0.0580 C   0  0  0  0  0  0  0  0  0  0  0  0
    1.1497   -0.5125   -0.6902 O   0  0  0  0  0  0  0  0  0  0  0  0
    1.3593    0.7608   -0.1866 C   0  0  0  0  0  0  0  0  0  0  0  0
    0.2092    1.5798   -0.2538 O   0  0  0  0  0  0  0  0  0  0  0  0
   -1.7260    1.7182    0.3534 H   0  0  0  0  0  0  0  0  0  0  0  0
   -1.8796   -0.8393    0.6913 H   0  0  0  0  0  0  0  0  0  0  0  0
   -1.5725   -0.5507   -1.0227 H   0  0  0  0  0  0  0  0  0  0  0  0
    0.4914   -1.2968    1.1007 H   0  0  0  0  0  0  0  0  0  0  0  0
    0.0732   -2.1931   -0.3758 H   0  0  0  0  0  0  0  0  0  0  0  0
    1.6805    0.7077    0.8652 H   0  0  0  0  0  0  0  0  0  0  0  0
    2.1167    1.2415   -0.8007 H   0  0  0  0  0  0  0  0  0  0  0  0
  1  2  1  0
  1  6  1  0
  1  7  1  0
  2  3  1  0
  2  8  1  0
  2  9  1  0
  3  4  1  0
  3 10  1  0
  3 11  1  0
  4  5  1  0
  5  6  1  0
  5 12  1  0
  5 13  1  0
M  RAD  1   1   2
M  END
>  <reaction>  (2) 
rmg_rxn_1481

>  <mol_properties>  (2) 
{"0": {"label": "acceptor", "atom_type": "Cs"}}

>  <type>  (2) 
r2

$$$$

     RDKit          3D

 14 14  0  0  0  0  0  0  0  0999 V2000
   -1.1778    0.2241    0.1818 C   0  0  0  0  0  0  0  0  0  0  0  0
   -0.5633   -1.1636    0.0678 C   0  0  0  0  0  0  0  0  0  0  0  0
    0.6943   -1.1996    0.7146 O   0  0  0  0  0  0  0  0  0  0  0  0
    1.5547   -0.2288    0.2011 C   0  0  0  0  0  0  0  0  0  0  0  0
    1.0729    1.0696    0.3698 O   0  0  0  0  0  0  0  0  0  0  0  0
   -0.1607    1.2493   -0.2989 C   0  0  0  0  0  0  0  0  0  0  0  0
   -2.0927    0.2866   -0.4117 H   0  0  0  0  0  0  0  0  0  0  0  0
   -1.4303    0.4248    1.2248 H   0  0  0  0  0  0  0  0  0  0  0  0
   -1.1822   -1.9235    0.5431 H   0  0  0  0  0  0  0  0  0  0  0  0
   -0.4389   -1.4347   -0.9919 H   0  0  0  0  0  0  0  0  0  0  0  0
    1.7250   -0.4207   -0.8742 H   0  0  0  0  0  0  0  0  0  0  0  0
    2.4896   -0.3010    0.7524 H   0  0  0  0  0  0  0  0  0  0  0  0
   -0.0080    1.1481   -1.3844 H   0  0  0  0  0  0  0  0  0  0  0  0
   -0.4826    2.2695   -0.0942 H   0  0  0  0  0  0  0  0  0  0  0  0
  1  2  1  0
  1  6  1  0
  1  7  1  0
  1  8  1  0
  2  3  1  0
  2  9  1  0
  2 10  1  0
  3  4  1  0
  4  5  1  0
  4 11  1  0
  4 12  1  0
  5  6  1  0
  6 13  1  0
  6 14  1  0
M  END
>  <reaction>  (3) 
rmg_rxn_1481

>  <mol_properties>  (3) 
{"0": {"label": "a_hydrogen", "atom_type": "H0"}, "1": {"label": "acceptor", "atom_type": "Cs"}}

>  <type>  (3) 
r2h

$$$$

     RDKit          3D

 18 17  0  0  0  0  0  0  0  0999 V2000
    2.0859   -1.0286    0.0518 N   0  0  0  0  0  0  0  0  0  0  0  0
    2.6435    0.1072    0.2426 N   0  0  0  0  0  0  0  0  0  0  0  0
    1.9700    1.0704    0.5331 O   0  0  0  0  0  1  0  0  0  0  0  0
    0.7774   -1.1116   -0.1723 H   0  0  0  0  0  0  0  0  0  0  0  0
    2.7351   -1.7143   -0.3165 H   0  0  0  0  0  0  0  0  0  0  0  0
   -0.5162   -1.2837   -0.4110 C   0  0  0  0  0  0  0  0  0  0  0  0
   -1.2090   -1.1143    0.9248 C   0  0  0  0  0  0  0  0  0  0  0  0
   -1.3346    0.3627    1.2596 C   0  0  0  0  0  0  0  0  0  0  0  0
   -1.8773    1.0507    0.1422 O   0  0  0  0  0  0  0  0  0  0  0  0
   -1.0542    0.9268   -0.9632 C   0  0  0  0  0  0  0  0  0  0  0  0
   -0.9190   -0.4198   -1.3931 O   0  0  0  0  0  0  0  0  0  0  0  0
   -0.5289   -2.2984   -0.8102 H   0  0  0  0  0  0  0  0  0  0  0  0
   -2.2076   -1.5583    0.8597 H   0  0  0  0  0  0  0  0  0  0  0  0
   -0.6540   -1.6448    1.7006 H   0  0  0  0  0  0  0  0  0  0  0  0
   -2.0174    0.5286    2.0909 H   0  0  0  0  0  0  0  0  0  0  0  0
   -0.3544    0.7837    1.5106 H   0  0  0  0  0  0  0  0  0  0  0  0
   -1.5177    1.4604   -1.7888 H   0  0  0  0  0  0  0  0  0  0  0  0
   -0.0489    1.3130   -0.7445 H   0  0  0  0  0  0  0  0  0  0  0  0
  1  2  2  3
  1  5  1  0
  2  3  1  0
  4  6  1  0
  6  7  1  0
  6 11  1  0
  6 12  1  0
  7  8  1  0
  7 13  1  0
  7 14  1  0
  8  9  1  0
  8 15  1  0
  8 16  1  0
  9 10  1  0
 10 11  1  0
 10 17  1  0
 10 18  1  0
M  RAD  1   3   2
M  END
>  <reaction>  (4) 
rmg_rxn_1481

>  <mol_properties>  (4) 
{"0": {"label": "*3", "atom_type": "N3d"}, "1": {"label": "*4", "atom_type": "N3d"}, "3": {"label": "*2", "atom_type": "H0"}, "5": {"label": "*1", "atom_type": "Cs"}, "10": {"label": "*0", "atom_type": "O2s"}}

>  <type>  (4) 
ts

$$$$

     RDKit          3D

 18 17  0  0  0  0  0  0  0  0999 V2000
    1.9827   -0.9445    0.0899 N   0  0  0  0  0  0  0  0  0  0  0  0
    2.5439    0.1845    0.0829 N   0  0  0  0  0  0  0  0  0  0  0  0
    1.9363    1.2310    0.2202 O   0  0  0  0  0  0  0  0  0  0  0  0
    0.7871   -1.1342   -0.1234 H   0  0  0  0  0  0  0  0  0  0  0  0
    2.6152   -1.7119   -0.1144 H   0  0  0  0  0  0  0  0  0  0  0  0
   -0.4746   -1.3151   -0.3939 C   0  0  0  0  0  3  0  0  0  0  0  0
   -1.2374   -1.1690    0.9146 C   0  0  0  0  0  0  0  0  0  0  0  0
   -1.3034    0.3157    1.2796 C   0  0  0  0  0  0  0  0  0  0  0  0
   -1.8090    1.0536    0.1817 O   0  0  0  0  0  0  0  0  0  0  0  0
   -0.9762    0.9194   -0.9232 C   0  0  0  0  0  0  0  0  0  0  0  0
   -0.8518   -0.4017   -1.3780 O   0  0  0  0  0  0  0  0  0  0  0  0
   -0.5461   -2.3092   -0.8365 H   0  0  0  0  0  0  0  0  0  0  0  0
   -2.2583   -1.5415    0.7840 H   0  0  0  0  0  0  0  0  0  0  0  0
   -0.7527   -1.7429    1.7042 H   0  0  0  0  0  0  0  0  0  0  0  0
   -1.9881    0.4960    2.1091 H   0  0  0  0  0  0  0  0  0  0  0  0
   -0.3040    0.6909    1.5439 H   0  0  0  0  0  0  0  0  0  0  0  0
   -1.4233    1.4874   -1.7416 H   0  0  0  0  0  0  0  0  0  0  0  0
    0.0326    1.3214   -0.6826 H   0  0  0  0  0  0  0  0  0  0  0  0
  1  2  1  0
  1  4  1  0
  1  5  1  0
  2  3  2  0
  6  7  1  0
  6 11  1  0
  6 12  1  0
  7  8  1  0
  7 13  1  0
  7 14  1  0
  8  9  1  0
  8 15  1  0
  8 16  1  0
  9 10  1  0
 10 11  1  0
 10 17  1  0
 10 18  1  0
M  RAD  1   6   2
M  END
>  <reaction>  (5) 
rmg_rxn_1481

>  <mol_properties>  (5) 
{"0": {"label": "*3", "atom_type": "N3d"}, "1": {"label": "*4", "atom_type": "N3d"}, "3": {"label": "*2", "atom_type": "H0"}, "5": {"label": "*1", "atom_type": "Cs"}, "10": {"label": "*0", "atom_type": "O2s"}}

>  <type>  (5) 
unop_1

>  <geom_source>  (5) 
crest_best.xyz

$$$$

     RDKit          3D

 18 17  0  0  0  0  0  0  0  0999 V2000
   -0.0740   -1.8928    0.7718 N   0  0  0  0  0  0  0  0  0  0  0  0
   -0.0740   -3.0956    0.2271 N   0  0  0  0  0  0  0  0  0  0  0  0
   -0.0740   -3.0956   -0.9774 O   0  0  0  0  0  0  0  0  0  0  0  0
   -0.0740   -0.9101    0.0566 H   0  0  0  0  0  0  0  0  0  0  0  0
   -0.0740   -1.8464    1.7739 H   0  0  0  0  0  0  0  0  0  0  0  0
   -0.0740    0.1466   -0.7125 C   0  0  0  0  0  3  0  0  0  0  0  0
   -1.2965    1.0222   -0.4769 C   0  0  0  0  0  0  0  0  0  0  0  0
   -0.8377    2.4616   -0.2926 C   0  0  0  0  0  0  0  0  0  0  0  0
    0.1677    2.5345    0.7001 O   0  0  0  0  0  0  0  0  0  0  0  0
    1.2444    1.7029    0.3909 C   0  0  0  0  0  0  0  0  0  0  0  0
    0.8858    0.3573    0.3052 O   0  0  0  0  0  0  0  0  0  0  0  0
    0.3723    0.3784   -1.6917 H   0  0  0  0  0  0  0  0  0  0  0  0
   -1.9883    0.9467   -1.3188 H   0  0  0  0  0  0  0  0  0  0  0  0
   -1.8141    0.6879    0.4244 H   0  0  0  0  0  0  0  0  0  0  0  0
   -0.4450    2.8564   -1.2423 H   0  0  0  0  0  0  0  0  0  0  0  0
   -1.6497    3.1092    0.0355 H   0  0  0  0  0  0  0  0  0  0  0  0
    1.6942    2.0249   -0.5663 H   0  0  0  0  0  0  0  0  0  0  0  0
    1.9663    1.7943    1.1994 H   0  0  0  0  0  0  0  0  0  0  0  0
  1  2  1  0
  1  4  1  0
  1  5  1  0
  2  3  2  0
  6  7  1  0
  6 11  1  0
  6 12  1  0
  7  8  1  0
  7 13  1  0
  7 14  1  0
  8  9  1  0
  8 15  1  0
  8 16  1  0
  9 10  1  0
 10 11  1  0
 10 17  1  0
 10 18  1  0
M  RAD  1   6   2
M  END
>  <reaction>  (6) 
rmg_rxn_1481

>  <mol_properties>  (6) 
{"0": {"label": "*3", "atom_type": "N3d"}, "1": {"label": "*4", "atom_type": "N3d"}, "3": {"label": "*2", "atom_type": "H0"}, "5": {"label": "*1", "atom_type": "Cs"}, "10": {"label": "*0", "atom_type": "O2s"}}

>  <type>  (6) 
unop_2

>  <geom_source>  (6) 
Heuristics

$$$$

     RDKit          3D

 18 17  0  0  0  0  0  0  0  0999 V2000
    0.6836   -1.6499    1.5435 N   0  0  0  0  0  0  0  0  0  0  0  0
    0.6836   -2.8527    0.9988 N   0  0  0  0  0  0  0  0  0  0  0  0
    0.6836   -2.8527   -0.2057 O   0  0  0  0  0  0  0  0  0  0  0  0
    0.6836   -0.6673    0.8283 H   0  0  0  0  0  0  0  0  0  0  0  0
    0.6836   -1.6036    2.5456 H   0  0  0  0  0  0  0  0  0  0  0  0
    0.6836    0.3894    0.0592 C   0  0  0  0  0  3  0  0  0  0  0  0
   -0.0222    0.1302   -1.2642 C   0  0  0  0  0  0  0  0  0  0  0  0
   -0.5770    1.4474   -1.7876 C   0  0  0  0  0  0  0  0  0  0  0  0
   -1.3563    2.0832   -0.7927 O   0  0  0  0  0  0  0  0  0  0  0  0
   -0.6206    2.2805    0.3761 C   0  0  0  0  0  0  0  0  0  0  0  0
   -0.1709    1.0882    0.9441 O   0  0  0  0  0  0  0  0  0  0  0  0
    1.5977    0.9789   -0.1105 H   0  0  0  0  0  0  0  0  0  0  0  0
    0.6703   -0.3067   -1.9871 H   0  0  0  0  0  0  0  0  0  0  0  0
   -0.8429   -0.5722   -1.1064 H   0  0  0  0  0  0  0  0  0  0  0  0
    0.2484    2.1113   -2.0872 H   0  0  0  0  0  0  0  0  0  0  0  0
   -1.2268    1.3019   -2.6495 H   0  0  0  0  0  0  0  0  0  0  0  0
    0.2447    2.9336    0.1596 H   0  0  0  0  0  0  0  0  0  0  0  0
   -1.2820    2.7536    1.0986 H   0  0  0  0  0  0  0  0  0  0  0  0
  1  2  1  0
  1  4  1  0
  1  5  1  0
  2  3  2  0
  6  7  1  0
  6 11  1  0
  6 12  1  0
  7  8  1  0
  7 13  1  0
  7 14  1  0
  8  9  1  0
  8 15  1  0
  8 16  1  0
  9 10  1  0
 10 11  1  0
 10 17  1  0
 10 18  1  0
M  RAD  1   6   2
M  END
>  <reaction>  (7) 
rmg_rxn_1481

>  <mol_properties>  (7) 
{"0": {"label": "*3", "atom_type": "N3d"}, "1": {"label": "*4", "atom_type": "N3d"}, "3": {"label": "*2", "atom_type": "H0"}, "5": {"label": "*1", "atom_type": "Cs"}, "10": {"label": "*0", "atom_type": "O2s"}}

>  <type>  (7) 
unop_3

>  <geom_source>  (7) 
Heuristics

$$$$

     RDKit          3D

 18 17  0  0  0  0  0  0  0  0999 V2000
   -0.4717   -1.8664    1.0327 N   0  0  0  0  0  0  0  0  0  0  0  0
   -0.4717   -3.0692    0.4880 N   0  0  0  0  0  0  0  0  0  0  0  0
   -0.4717   -3.0692   -0.7165 O   0  0  0  0  0  0  0  0  0  0  0  0
   -0.4717   -0.8838    0.3175 H   0  0  0  0  0  0  0  0  0  0  0  0
   -0.4717   -1.8200    2.0348 H   0  0  0  0  0  0  0  0  0  0  0  0
   -0.4717    0.1729   -0.4516 C   0  0  0  0  0  3  0  0  0  0  0  0
   -1.1775    1.3526    0.2018 C   0  0  0  0  0  0  0  0  0  0  0  0
   -0.4167    2.6261   -0.1385 C   0  0  0  0  0  0  0  0  0  0  0  0
    0.9540    2.4804    0.1798 O   0  0  0  0  0  0  0  0  0  0  0  0
    1.5095    1.3780   -0.4703 C   0  0  0  0  0  0  0  0  0  0  0  0
    0.9023    0.1734   -0.1146 O   0  0  0  0  0  0  0  0  0  0  0  0
   -0.5813    0.2273   -1.5456 H   0  0  0  0  0  0  0  0  0  0  0  0
   -2.2106    1.4202   -0.1467 H   0  0  0  0  0  0  0  0  0  0  0  0
   -1.1884    1.2146    1.2847 H   0  0  0  0  0  0  0  0  0  0  0  0
   -0.5224    2.8530   -1.2105 H   0  0  0  0  0  0  0  0  0  0  0  0
   -0.7809    3.4819    0.4281 H   0  0  0  0  0  0  0  0  0  0  0  0
    1.4323    1.5193   -1.5641 H   0  0  0  0  0  0  0  0  0  0  0  0
    2.5526    1.3161   -0.1682 H   0  0  0  0  0  0  0  0  0  0  0  0
  1  2  1  0
  1  4  1  0
  1  5  1  0
  2  3  2  0
  6  7  1  0
  6 11  1  0
  6 12  1  0
  7  8  1  0
  7 13  1  0
  7 14  1  0
  8  9  1  0
  8 15  1  0
  8 16  1  0
  9 10  1  0
 10 11  1  0
 10 17  1  0
 10 18  1  0
M  RAD  1   6   2
M  END
>  <reaction>  (8) 
rmg_rxn_1481

>  <mol_properties>  (8) 
{"0": {"label": "*3", "atom_type": "N3d"}, "1": {"label": "*4", "atom_type": "N3d"}, "3": {"label": "*2", "atom_type": "H0"}, "5": {"label": "*1", "atom_type": "Cs"}, "10": {"label": "*0", "atom_type": "O2s"}}

>  <type>  (8) 
unop_4

>  <geom_source>  (8) 
Heuristics

$$$$

     RDKit          3D

 18 17  0  0  0  0  0  0  0  0999 V2000
   -0.1130   -1.7702    1.8650 N   0  0  0  0  0  0  0  0  0  0  0  0
   -0.1130   -2.9730    1.3203 N   0  0  0  0  0  0  0  0  0  0  0  0
   -0.1130   -2.9730    0.1158 O   0  0  0  0  0  0  0  0  0  0  0  0
   -0.1130   -0.7875    1.1498 H   0  0  0  0  0  0  0  0  0  0  0  0
   -0.1130   -1.7238    2.8671 H   0  0  0  0  0  0  0  0  0  0  0  0
   -0.1130    0.2692    0.3807 C   0  0  0  0  0  3  0  0  0  0  0  0
    1.1095    0.3141   -0.5250 C   0  0  0  0  0  0  0  0  0  0  0  0
    1.3490    1.7556   -0.9506 C   0  0  0  0  0  0  0  0  0  0  0  0
    0.1660    2.3120   -1.4914 O   0  0  0  0  0  0  0  0  0  0  0  0
   -0.8920    2.2279   -0.5859 C   0  0  0  0  0  0  0  0  0  0  0  0
   -1.2088    0.9141   -0.2395 O   0  0  0  0  0  0  0  0  0  0  0  0
    0.1096    0.7635    1.3388 H   0  0  0  0  0  0  0  0  0  0  0  0
    1.9849   -0.0809   -0.0046 H   0  0  0  0  0  0  0  0  0  0  0  0
    0.9290   -0.3003   -1.4092 H   0  0  0  0  0  0  0  0  0  0  0  0
    1.6744    2.3545   -0.0861 H   0  0  0  0  0  0  0  0  0  0  0  0
    2.1126    1.8306   -1.7235 H   0  0  0  0  0  0  0  0  0  0  0  0
   -0.6401    2.7980    0.3272 H   0  0  0  0  0  0  0  0  0  0  0  0
   -1.7672    2.6547   -1.0706 H   0  0  0  0  0  0  0  0  0  0  0  0
  1  2  1  0
  1  4  1  0
  1  5  1  0
  2  3  2  0
  6  7  1  0
  6 11  1  0
  6 12  1  0
  7  8  1  0
  7 13  1  0
  7 14  1  0
  8  9  1  0
  8 15  1  0
  8 16  1  0
  9 10  1  0
 10 11  1  0
 10 17  1  0
 10 18  1  0
M  RAD  1   6   2
M  END
>  <reaction>  (9) 
rmg_rxn_1481

>  <mol_properties>  (9) 
{"0": {"label": "*3", "atom_type": "N3d"}, "1": {"label": "*4", "atom_type": "N3d"}, "3": {"label": "*2", "atom_type": "H0"}, "5": {"label": "*1", "atom_type": "Cs"}, "10": {"label": "*0", "atom_type": "O2s"}}

>  <type>  (9) 
unop_5

>  <geom_source>  (9) 
Heuristics

$$$$

     RDKit          3D

 18 17  0  0  0  0  0  0  0  0999 V2000
   -0.4509   -1.8410    1.5534 N   0  0  0  0  0  0  0  0  0  0  0  0
   -0.4509   -3.0438    1.0087 N   0  0  0  0  0  0  0  0  0  0  0  0
   -0.4509   -3.0438   -0.1958 O   0  0  0  0  0  0  0  0  0  0  0  0
   -0.4509   -0.8583    0.8382 H   0  0  0  0  0  0  0  0  0  0  0  0
   -0.4509   -1.7946    2.5555 H   0  0  0  0  0  0  0  0  0  0  0  0
   -0.4509    0.1984    0.0691 C   0  0  0  0  0  3  0  0  0  0  0  0
   -0.4509    1.4893    0.8754 C   0  0  0  0  0  0  0  0  0  0  0  0
   -0.2241    2.6575   -0.0735 C   0  0  0  0  0  0  0  0  0  0  0  0
    0.9255    2.4313   -0.8665 O   0  0  0  0  0  0  0  0  0  0  0  0
    0.8269    1.2297   -1.5684 C   0  0  0  0  0  0  0  0  0  0  0  0
    0.7122    0.1187   -0.7323 O   0  0  0  0  0  0  0  0  0  0  0  0
   -1.3434    0.1559   -0.5740 H   0  0  0  0  0  0  0  0  0  0  0  0
   -1.3978    1.6075    1.4070 H   0  0  0  0  0  0  0  0  0  0  0  0
    0.3549    1.4576    1.6113 H   0  0  0  0  0  0  0  0  0  0  0  0
   -1.1006    2.7880   -0.7267 H   0  0  0  0  0  0  0  0  0  0  0  0
   -0.0567    3.5909    0.4622 H   0  0  0  0  0  0  0  0  0  0  0  0
   -0.0454    1.2708   -2.2463 H   0  0  0  0  0  0  0  0  0  0  0  0
    1.7457    1.1118   -2.1386 H   0  0  0  0  0  0  0  0  0  0  0  0
  1  2  1  0
  1  4  1  0
  1  5  1  0
  2  3  2  0
  6  7  1  0
  6 11  1  0
  6 12  1  0
  7  8  1  0
  7 13  1  0
  7 14  1  0
  8  9  1  0
  8 15  1  0
  8 16  1  0
  9 10  1  0
 10 11  1  0
 10 17  1  0
 10 18  1  0
M  RAD  1   6   2
M  END
>  <reaction>  (10) 
rmg_rxn_1481

>  <mol_properties>  (10) 
{"0": {"label": "*3", "atom_type": "N3d"}, "1": {"label": "*4", "atom_type": "N3d"}, "3": {"label": "*2", "atom_type": "H0"}, "5": {"label": "*1", "atom_type": "Cs"}, "10": {"label": "*0", "atom_type": "O2s"}}

>  <type>  (10) 
unop_6

>  <geom_source>  (10) 
Heuristics

$$$$

     RDKit          3D

 18 17  0  0  0  0  0  0  0  0999 V2000
   -0.1476   -1.8730    1.7178 N   0  0  0  0  0  0  0  0  0  0  0  0
   -0.1476   -3.0758    1.1730 N   0  0  0  0  0  0  0  0  0  0  0  0
   -0.1476   -3.0758   -0.0315 O   0  0  0  0  0  0  0  0  0  0  0  0
   -0.1476   -0.8903    1.0026 H   0  0  0  0  0  0  0  0  0  0  0  0
   -0.1476   -1.8266    2.7199 H   0  0  0  0  0  0  0  0  0  0  0  0
   -0.1476    0.1664    0.2334 C   0  0  0  0  0  3  0  0  0  0  0  0
    1.2640    0.6266   -0.1015 C   0  0  0  0  0  0  0  0  0  0  0  0
    1.2520    2.1361   -0.2961 C   0  0  0  0  0  0  0  0  0  0  0  0
    0.2515    2.5045   -1.2259 O   0  0  0  0  0  0  0  0  0  0  0  0
   -1.0033    2.0423   -0.8279 C   0  0  0  0  0  0  0  0  0  0  0  0
   -1.0647    0.6521   -0.7280 O   0  0  0  0  0  0  0  0  0  0  0  0
   -0.4354    0.5300    1.2318 H   0  0  0  0  0  0  0  0  0  0  0  0
    1.9556    0.3500    0.6975 H   0  0  0  0  0  0  0  0  0  0  0  0
    1.5938    0.1443   -1.0238 H   0  0  0  0  0  0  0  0  0  0  0  0
    1.0626    2.6383    0.6650 H   0  0  0  0  0  0  0  0  0  0  0  0
    2.1980    2.5034   -0.6915 H   0  0  0  0  0  0  0  0  0  0  0  0
   -1.2685    2.4926    0.1463 H   0  0  0  0  0  0  0  0  0  0  0  0
   -1.7163    2.3435   -1.5921 H   0  0  0  0  0  0  0  0  0  0  0  0
  1  2  1  0
  1  4  1  0
  1  5  1  0
  2  3  2  0
  6  7  1  0
  6 11  1  0
  6 12  1  0
  7  8  1  0
  7 13  1  0
  7 14  1  0
  8  9  1  0
  8 15  1  0
  8 16  1  0
  9 10  1  0
 10 11  1  0
 10 17  1  0
 10 18  1  0
M  RAD  1   6   2
M  END
>  <reaction>  (11) 
rmg_rxn_1481

>  <mol_properties>  (11) 
{"0": {"label": "*3", "atom_type": "N3d"}, "1": {"label": "*4", "atom_type": "N3d"}, "3": {"label": "*2", "atom_type": "H0"}, "5": {"label": "*1", "atom_type": "Cs"}, "10": {"label": "*0", "atom_type": "O2s"}}

>  <type>  (11) 
unop_7

>  <geom_source>  (11) 
Heuristics

$$$$

     RDKit          3D

 18 17  0  0  0  0  0  0  0  0999 V2000
   -0.0819   -1.9140    1.6598 N   0  0  0  0  0  0  0  0  0  0  0  0
   -0.0819   -3.1168    1.1150 N   0  0  0  0  0  0  0  0  0  0  0  0
   -0.0819   -3.1168   -0.0895 O   0  0  0  0  0  0  0  0  0  0  0  0
   -0.0819   -0.9314    0.9446 H   0  0  0  0  0  0  0  0  0  0  0  0
   -0.0819   -1.8677    2.6619 H   0  0  0  0  0  0  0  0  0  0  0  0
   -0.0819    0.1253    0.1755 C   0  0  0  0  0  3  0  0  0  0  0  0
    1.1405    1.0009    0.4111 C   0  0  0  0  0  0  0  0  0  0  0  0
    0.7602    2.4511    0.1486 C   0  0  0  0  0  0  0  0  0  0  0  0
    0.1524    2.5781   -1.1225 O   0  0  0  0  0  0  0  0  0  0  0  0
   -0.9584    1.7419   -1.2375 C   0  0  0  0  0  0  0  0  0  0  0  0
   -0.6395    0.3909   -1.0973 O   0  0  0  0  0  0  0  0  0  0  0  0
   -0.8369    0.3151    0.9538 H   0  0  0  0  0  0  0  0  0  0  0  0
    1.5049    0.8808    1.4339 H   0  0  0  0  0  0  0  0  0  0  0  0
    1.9368    0.7047   -0.2745 H   0  0  0  0  0  0  0  0  0  0  0  0
    0.0644    2.8045    0.9251 H   0  0  0  0  0  0  0  0  0  0  0  0
    1.6300    3.1065    0.1472 H   0  0  0  0  0  0  0  0  0  0  0  0
   -1.7099    2.0227   -0.4768 H   0  0  0  0  0  0  0  0  0  0  0  0
   -1.3625    1.8766   -2.2383 H   0  0  0  0  0  0  0  0  0  0  0  0
  1  2  1  0
  1  4  1  0
  1  5  1  0
  2  3  2  0
  6  7  1  0
  6 11  1  0
  6 12  1  0
  7  8  1  0
  7 13  1  0
  7 14  1  0
  8  9  1  0
  8 15  1  0
  8 16  1  0
  9 10  1  0
 10 11  1  0
 10 17  1  0
 10 18  1  0
M  RAD  1   6   2
M  END
>  <reaction>  (12) 
rmg_rxn_1481

>  <mol_properties>  (12) 
{"0": {"label": "*3", "atom_type": "N3d"}, "1": {"label": "*4", "atom_type": "N3d"}, "3": {"label": "*2", "atom_type": "H0"}, "5": {"label": "*1", "atom_type": "Cs"}, "10": {"label": "*0", "atom_type": "O2s"}}

>  <type>  (12) 
unop_8

>  <geom_source>  (12) 
Heuristics

$$$$

     RDKit          3D

 18 17  0  0  0  0  0  0  0  0999 V2000
    0.3622   -1.8520    0.8421 N   0  0  0  0  0  0  0  0  0  0  0  0
    0.3622   -3.0548    0.2974 N   0  0  0  0  0  0  0  0  0  0  0  0
    0.3622   -3.0548   -0.9071 O   0  0  0  0  0  0  0  0  0  0  0  0
    0.3622   -0.8694    0.1269 H   0  0  0  0  0  0  0  0  0  0  0  0
    0.3622   -1.8057    1.8442 H   0  0  0  0  0  0  0  0  0  0  0  0
    0.3622    0.1873   -0.6422 C   0  0  0  0  0  3  0  0  0  0  0  0
   -1.0494    0.6476   -0.9772 C   0  0  0  0  0  0  0  0  0  0  0  0
   -1.1453    2.1465   -0.7312 C   0  0  0  0  0  0  0  0  0  0  0  0
   -0.6920    2.4614    0.5714 O   0  0  0  0  0  0  0  0  0  0  0  0
    0.6097    2.0039    0.7779 C   0  0  0  0  0  0  0  0  0  0  0  0
    0.7257    0.6190    0.6551 O   0  0  0  0  0  0  0  0  0  0  0  0
    1.0749    0.5924   -1.3770 H   0  0  0  0  0  0  0  0  0  0  0  0
   -1.2902    0.4150   -2.0170 H   0  0  0  0  0  0  0  0  0  0  0  0
   -1.7627    0.1278   -0.3346 H   0  0  0  0  0  0  0  0  0  0  0  0
   -0.5387    2.6895   -1.4722 H   0  0  0  0  0  0  0  0  0  0  0  0
   -2.1710    2.5060   -0.8017 H   0  0  0  0  0  0  0  0  0  0  0  0
    1.2901    2.4948    0.0581 H   0  0  0  0  0  0  0  0  0  0  0  0
    0.8853    2.2623    1.7979 H   0  0  0  0  0  0  0  0  0  0  0  0
  1  2  1  0
  1  4  1  0
  1  5  1  0
  2  3  2  0
  6  7  1  0
  6 11  1  0
  6 12  1  0
  7  8  1  0
  7 13  1  0
  7 14  1  0
  8  9  1  0
  8 15  1  0
  8 16  1  0
  9 10  1  0
 10 11  1  0
 10 17  1  0
 10 18  1  0
M  RAD  1   6   2
M  END
>  <reaction>  (13) 
rmg_rxn_1481

>  <mol_properties>  (13) 
{"0": {"label": "*3", "atom_type": "N3d"}, "1": {"label": "*4", "atom_type": "N3d"}, "3": {"label": "*2", "atom_type": "H0"}, "5": {"label": "*1", "atom_type": "Cs"}, "10": {"label": "*0", "atom_type": "O2s"}}

>  <type>  (13) 
unop_9

>  <geom_source>  (13) 
Heuristics

$$$$

     RDKit          3D

 18 17  0  0  0  0  0  0  0  0999 V2000
    1.9827   -0.9445    0.0899 N   0  0  0  0  0  0  0  0  0  0  0  0
    2.5439    0.1845    0.0829 N   0  0  0  0  0  0  0  0  0  0  0  0
    1.9363    1.2310    0.2202 O   0  0  0  0  0  0  0  0  0  0  0  0
    0.7871   -1.1342   -0.1234 H   0  0  0  0  0  0  0  0  0  0  0  0
    2.6152   -1.7119   -0.1144 H   0  0  0  0  0  0  0  0  0  0  0  0
   -0.4746   -1.3151   -0.3939 C   0  0  0  0  0  3  0  0  0  0  0  0
   -1.2374   -1.1690    0.9146 C   0  0  0  0  0  0  0  0  0  0  0  0
   -1.3034    0.3157    1.2796 C   0  0  0  0  0  0  0  0  0  0  0  0
   -1.8090    1.0536    0.1817 O   0  0  0  0  0  0  0  0  0  0  0  0
   -0.9762    0.9194   -0.9232 C   0  0  0  0  0  0  0  0  0  0  0  0
   -0.8518   -0.4017   -1.3780 O   0  0  0  0  0  0  0  0  0  0  0  0
   -0.5461   -2.3092   -0.8365 H   0  0  0  0  0  0  0  0  0  0  0  0
   -2.2583   -1.5415    0.7840 H   0  0  0  0  0  0  0  0  0  0  0  0
   -0.7527   -1.7429    1.7042 H   0  0  0  0  0  0  0  0  0  0  0  0
   -1.9881    0.4960    2.1091 H   0  0  0  0  0  0  0  0  0  0  0  0
   -0.3040    0.6909    1.5439 H   0  0  0  0  0  0  0  0  0  0  0  0
   -1.4233    1.4874   -1.7416 H   0  0  0  0  0  0  0  0  0  0  0  0
    0.0326    1.3214   -0.6826 H   0  0  0  0  0  0  0  0  0  0  0  0
  1  2  1  0
  1  4  1  0
  1  5  1  0
  2  3  2  0
  6  7  1  0
  6 11  1  0
  6 12  1  0
  7  8  1  0
  7 13  1  0
  7 14  1  0
  8  9  1  0
  8 15  1  0
  8 16  1  0
  9 10  1  0
 10 11  1  0
 10 17  1  0
 10 18  1  0
M  RAD  1   6   2
M  END
>  <reaction>  (14) 
rmg_rxn_1481

>  <mol_properties>  (14) 
{"0": {"label": "*3", "atom_type": "N3d"}, "1": {"label": "*4", "atom_type": "N3d"}, "3": {"label": "*2", "atom_type": "H0"}, "5": {"label": "*1", "atom_type": "Cs"}, "10": {"label": "*0", "atom_type": "O2s"}}

>  <type>  (14) 
unop_10

>  <geom_source>  (14) 
Heuristics

$$$$

     RDKit          3D

 18 17  0  0  0  0  0  0  0  0999 V2000
    0.1113   -1.6601    1.9695 N   0  0  0  0  0  0  0  0  0  0  0  0
    0.1113   -2.8629    1.4247 N   0  0  0  0  0  0  0  0  0  0  0  0
    0.1113   -2.8629    0.2202 O   0  0  0  0  0  0  0  0  0  0  0  0
    0.1113   -0.6775    1.2542 H   0  0  0  0  0  0  0  0  0  0  0  0
    0.1113   -1.6138    2.9716 H   0  0  0  0  0  0  0  0  0  0  0  0
    0.1113    0.3792    0.4851 C   0  0  0  0  0  3  0  0  0  0  0  0
    0.8170    0.1201   -0.8382 C   0  0  0  0  0  0  0  0  0  0  0  0
    0.9719    1.4423   -1.5760 C   0  0  0  0  0  0  0  0  0  0  0  0
   -0.2751    2.1041   -1.6669 O   0  0  0  0  0  0  0  0  0  0  0  0
   -0.8370    2.2992   -0.4049 C   0  0  0  0  0  0  0  0  0  0  0  0
   -1.0845    1.1043    0.2713 O   0  0  0  0  0  0  0  0  0  0  0  0
    0.7703    0.9485    1.1584 H   0  0  0  0  0  0  0  0  0  0  0  0
    1.7936   -0.3383   -0.6668 H   0  0  0  0  0  0  0  0  0  0  0  0
    0.2174   -0.5642   -1.4416 H   0  0  0  0  0  0  0  0  0  0  0  0
    1.6916    2.0864   -1.0477 H   0  0  0  0  0  0  0  0  0  0  0  0
    1.3268    1.3006   -2.5959 H   0  0  0  0  0  0  0  0  0  0  0  0
   -0.1646    2.9326    0.2025 H   0  0  0  0  0  0  0  0  0  0  0  0
   -1.7952    2.7931   -0.5503 H   0  0  0  0  0  0  0  0  0  0  0  0
  1  2  1  0
  1  4  1  0
  1  5  1  0
  2  3  2  0
  6  7  1  0
  6 11  1  0
  6 12  1  0
  7  8  1  0
  7 13  1  0
  7 14  1  0
  8  9  1  0
  8 15  1  0
  8 16  1  0
  9 10  1  0
 10 11  1  0
 10 17  1  0
 10 18  1  0
M  RAD  1   6   2
M  END
>  <reaction>  (15) 
rmg_rxn_1481

>  <mol_properties>  (15) 
{"0": {"label": "*3", "atom_type": "N3d"}, "1": {"label": "*4", "atom_type": "N3d"}, "3": {"label": "*2", "atom_type": "H0"}, "5": {"label": "*1", "atom_type": "Cs"}, "10": {"label": "*0", "atom_type": "O2s"}}

>  <type>  (15) 
unop_11

>  <geom_source>  (15) 
Heuristics

$$$$

     RDKit          3D

 18 17  0  0  0  0  0  0  0  0999 V2000
    0.6501   -1.7528    1.1408 N   0  0  0  0  0  0  0  0  0  0  0  0
    0.6501   -2.9556    0.5961 N   0  0  0  0  0  0  0  0  0  0  0  0
    0.6501   -2.9556   -0.6084 O   0  0  0  0  0  0  0  0  0  0  0  0
    0.6501   -0.7702    0.4256 H   0  0  0  0  0  0  0  0  0  0  0  0
    0.6501   -1.7065    2.1429 H   0  0  0  0  0  0  0  0  0  0  0  0
    0.6501    0.2865   -0.3435 C   0  0  0  0  0  3  0  0  0  0  0  0
   -0.5723    0.3314   -1.2492 C   0  0  0  0  0  0  0  0  0  0  0  0
   -1.0820    1.7642   -1.3104 C   0  0  0  0  0  0  0  0  0  0  0  0
   -1.2685    2.2764   -0.0049 O   0  0  0  0  0  0  0  0  0  0  0  0
   -0.0930    2.1961    0.7422 C   0  0  0  0  0  0  0  0  0  0  0  0
    0.3604    0.8868    0.9043 O   0  0  0  0  0  0  0  0  0  0  0  0
    1.4907    0.8151   -0.8188 H   0  0  0  0  0  0  0  0  0  0  0  0
   -0.3198   -0.0272   -2.2496 H   0  0  0  0  0  0  0  0  0  0  0  0
   -1.3517   -0.3139   -0.8392 H   0  0  0  0  0  0  0  0  0  0  0  0
   -0.3634    2.3968   -1.8537 H   0  0  0  0  0  0  0  0  0  0  0  0
   -2.0450    1.8328   -1.8146 H   0  0  0  0  0  0  0  0  0  0  0  0
    0.6942    2.7997    0.2543 H   0  0  0  0  0  0  0  0  0  0  0  0
   -0.3123    2.5875    1.7331 H   0  0  0  0  0  0  0  0  0  0  0  0
  1  2  1  0
  1  4  1  0
  1  5  1  0
  2  3  2  0
  6  7  1  0
  6 11  1  0
  6 12  1  0
  7  8  1  0
  7 13  1  0
  7 14  1  0
  8  9  1  0
  8 15  1  0
  8 16  1  0
  9 10  1  0
 10 11  1  0
 10 17  1  0
 10 18  1  0
M  RAD  1   6   2
M  END
>  <reaction>  (16) 
rmg_rxn_1481

>  <mol_properties>  (16) 
{"0": {"label": "*3", "atom_type": "N3d"}, "1": {"label": "*4", "atom_type": "N3d"}, "3": {"label": "*2", "atom_type": "H0"}, "5": {"label": "*1", "atom_type": "Cs"}, "10": {"label": "*0", "atom_type": "O2s"}}

>  <type>  (16) 
unop_12

>  <geom_source>  (16) 
Heuristics

$$$$

     RDKit          3D

 18 17  0  0  0  0  0  0  0  0999 V2000
   -0.1261   -1.8826    1.7077 N   0  0  0  0  0  0  0  0  0  0  0  0
   -0.1261   -3.0854    1.1630 N   0  0  0  0  0  0  0  0  0  0  0  0
   -0.1261   -3.0854   -0.0415 O   0  0  0  0  0  0  0  0  0  0  0  0
   -0.1261   -0.8999    0.9925 H   0  0  0  0  0  0  0  0  0  0  0  0
   -0.1261   -1.8362    2.7098 H   0  0  0  0  0  0  0  0  0  0  0  0
   -0.1261    0.1568    0.2234 C   0  0  0  0  0  3  0  0  0  0  0  0
    0.5796    1.3364    0.8768 C   0  0  0  0  0  0  0  0  0  0  0  0
    0.1196    2.6181    0.1969 C   0  0  0  0  0  0  0  0  0  0  0  0
    0.2731    2.5136   -1.2056 O   0  0  0  0  0  0  0  0  0  0  0  0
   -0.4131    1.4077   -1.7081 C   0  0  0  0  0  0  0  0  0  0  0  0
    0.0420    0.1989   -1.1807 O   0  0  0  0  0  0  0  0  0  0  0  0
   -1.1998    0.1791    0.4653 H   0  0  0  0  0  0  0  0  0  0  0  0
    0.3572    1.3701    1.9457 H   0  0  0  0  0  0  0  0  0  0  0  0
    1.6589    1.2273    0.7535 H   0  0  0  0  0  0  0  0  0  0  0  0
   -0.9368    2.8136    0.4369 H   0  0  0  0  0  0  0  0  0  0  0  0
    0.7057    3.4799    0.5130 H   0  0  0  0  0  0  0  0  0  0  0  0
   -1.4925    1.5177   -1.4961 H   0  0  0  0  0  0  0  0  0  0  0  0
   -0.2380    1.3786   -2.7813 H   0  0  0  0  0  0  0  0  0  0  0  0
  1  2  1  0
  1  4  1  0
  1  5  1  0
  2  3  2  0
  6  7  1  0
  6 11  1  0
  6 12  1  0
  7  8  1  0
  7 13  1  0
  7 14  1  0
  8  9  1  0
  8 15  1  0
  8 16  1  0
  9 10  1  0
 10 11  1  0
 10 17  1  0
 10 18  1  0
M  RAD  1   6   2
M  END
>  <reaction>  (17) 
rmg_rxn_1481

>  <mol_properties>  (17) 
{"0": {"label": "*3", "atom_type": "N3d"}, "1": {"label": "*4", "atom_type": "N3d"}, "3": {"label": "*2", "atom_type": "H0"}, "5": {"label": "*1", "atom_type": "Cs"}, "10": {"label": "*0", "atom_type": "O2s"}}

>  <type>  (17) 
unop_13

>  <geom_source>  (17) 
Heuristics

$$$$

     RDKit          3D

 18 17  0  0  0  0  0  0  0  0999 V2000
    0.4509   -1.6091    1.8720 N   0  0  0  0  0  0  0  0  0  0  0  0
    0.4509   -2.8119    1.3272 N   0  0  0  0  0  0  0  0  0  0  0  0
    0.4509   -2.8119    0.1227 O   0  0  0  0  0  0  0  0  0  0  0  0
    0.4509   -0.6265    1.1568 H   0  0  0  0  0  0  0  0  0  0  0  0
    0.4509   -1.5628    2.8741 H   0  0  0  0  0  0  0  0  0  0  0  0
    0.4509    0.4302    0.3876 C   0  0  0  0  0  3  0  0  0  0  0  0
    0.4509    0.0598   -1.0886 C   0  0  0  0  0  0  0  0  0  0  0  0
    0.2241    1.3218   -1.9086 C   0  0  0  0  0  0  0  0  0  0  0  0
   -0.9255    2.0069   -1.4496 O   0  0  0  0  0  0  0  0  0  0  0  0
   -0.8269    2.3055   -0.0904 C   0  0  0  0  0  0  0  0  0  0  0  0
   -0.7122    1.1684    0.7098 O   0  0  0  0  0  0  0  0  0  0  0  0
    1.3434    1.0291    0.6258 H   0  0  0  0  0  0  0  0  0  0  0  0
    1.3978   -0.4098   -1.3645 H   0  0  0  0  0  0  0  0  0  0  0  0
   -0.3549   -0.6502   -1.2847 H   0  0  0  0  0  0  0  0  0  0  0  0
    1.1006    1.9835   -1.8320 H   0  0  0  0  0  0  0  0  0  0  0  0
    0.0567    1.0990   -2.9614 H   0  0  0  0  0  0  0  0  0  0  0  0
    0.0454    2.9632    0.0789 H   0  0  0  0  0  0  0  0  0  0  0  0
   -1.7457    2.8118    0.1970 H   0  0  0  0  0  0  0  0  0  0  0  0
  1  2  1  0
  1  4  1  0
  1  5  1  0
  2  3  2  0
  6  7  1  0
  6 11  1  0
  6 12  1  0
  7  8  1  0
  7 13  1  0
  7 14  1  0
  8  9  1  0
  8 15  1  0
  8 16  1  0
  9 10  1  0
 10 11  1  0
 10 17  1  0
 10 18  1  0
M  RAD  1   6   2
M  END
>  <reaction>  (18) 
rmg_rxn_1481

>  <mol_properties>  (18) 
{"0": {"label": "*3", "atom_type": "N3d"}, "1": {"label": "*4", "atom_type": "N3d"}, "3": {"label": "*2", "atom_type": "H0"}, "5": {"label": "*1", "atom_type": "Cs"}, "10": {"label": "*0", "atom_type": "O2s"}}

>  <type>  (18) 
unop_14

>  <geom_source>  (18) 
Heuristics

$$$$

     RDKit          3D

 18 17  0  0  0  0  0  0  0  0999 V2000
    0.6836   -1.6499    1.5435 N   0  0  0  0  0  0  0  0  0  0  0  0
    0.6836   -2.8527    0.9988 N   0  0  0  0  0  0  0  0  0  0  0  0
    0.6836   -2.8527   -0.2057 O   0  0  0  0  0  0  0  0  0  0  0  0
    0.6836   -0.6673    0.8283 H   0  0  0  0  0  0  0  0  0  0  0  0
    0.6836   -1.6036    2.5456 H   0  0  0  0  0  0  0  0  0  0  0  0
    0.6836    0.3894    0.0592 C   0  0  0  0  0  3  0  0  0  0  0  0
   -0.0222    0.1303   -1.2642 C   0  0  0  0  0  0  0  0  0  0  0  0
   -0.5770    1.4474   -1.7876 C   0  0  0  0  0  0  0  0  0  0  0  0
   -1.3563    2.0832   -0.7927 O   0  0  0  0  0  0  0  0  0  0  0  0
   -0.6206    2.2805    0.3761 C   0  0  0  0  0  0  0  0  0  0  0  0
   -0.1709    1.0882    0.9440 O   0  0  0  0  0  0  0  0  0  0  0  0
    1.5977    0.9789   -0.1105 H   0  0  0  0  0  0  0  0  0  0  0  0
    0.6703   -0.3067   -1.9871 H   0  0  0  0  0  0  0  0  0  0  0  0
   -0.8429   -0.5722   -1.1064 H   0  0  0  0  0  0  0  0  0  0  0  0
    0.2484    2.1113   -2.0872 H   0  0  0  0  0  0  0  0  0  0  0  0
   -1.2268    1.3019   -2.6495 H   0  0  0  0  0  0  0  0  0  0  0  0
    0.2447    2.9336    0.1596 H   0  0  0  0  0  0  0  0  0  0  0  0
   -1.2820    2.7536    1.0986 H   0  0  0  0  0  0  0  0  0  0  0  0
  1  2  1  0
  1  4  1  0
  1  5  1  0
  2  3  2  0
  6  7  1  0
  6 11  1  0
  6 12  1  0
  7  8  1  0
  7 13  1  0
  7 14  1  0
  8  9  1  0
  8 15  1  0
  8 16  1  0
  9 10  1  0
 10 11  1  0
 10 17  1  0
 10 18  1  0
M  RAD  1   6   2
M  END
>  <reaction>  (19) 
rmg_rxn_1481

>  <mol_properties>  (19) 
{"0": {"label": "*3", "atom_type": "N3d"}, "1": {"label": "*4", "atom_type": "N3d"}, "3": {"label": "*2", "atom_type": "H0"}, "5": {"label": "*1", "atom_type": "Cs"}, "10": {"label": "*0", "atom_type": "O2s"}}

>  <type>  (19) 
unop_15

>  <geom_source>  (19) 
gaussian_log

$$$$
