
     RDKit          3D

  9  8  0  0  0  0  0  0  0  0999 V2000
   -1.2461    0.5037    0.0950 C   0  0  0  0  0  0  0  0  0  0  0  0
   -0.0155   -0.3334    0.0640 C   0  0  0  0  0  0  0  0  0  0  0  0
    1.0697    0.1457   -0.3733 N   0  0  0  0  0  0  0  0  0  0  0  0
    2.1001   -0.7834   -0.3224 O   0  0  0  0  0  0  0  0  0  0  0  0
   -2.0357    0.0440   -0.5039 H   0  0  0  0  0  0  0  0  0  0  0  0
   -1.6237    0.5897    1.1166 H   0  0  0  0  0  0  0  0  0  0  0  0
   -1.0397    1.4998   -0.2929 H   0  0  0  0  0  0  0  0  0  0  0  0
   -0.0537   -1.3634    0.4205 H   0  0  0  0  0  0  0  0  0  0  0  0
    2.8478   -0.2985   -0.6758 H   0  0  0  0  0  0  0  0  0  0  0  0
  1  2  1  0
  1  5  1  0
  1  6  1  0
  1  7  1  0
  2  3  2  3
  2  8  1  0
  3  4  1  0
  4  9  1  0
M  END
>  <reaction>  (1) 
rmg_rxn_47

>  <mol_properties>  (1) 
{"3": {"label": "donator", "atom_type": "O2s"}, "8": {"label": "d_hydrogen", "atom_type": "H0"}}

>  <type>  (1) 
r1h

$$$$

     RDKit          3D

 13 13  0  0  0  0  0  0  0  0999 V2000
    0.5794    1.5990    0.2108 C   0  0  0  0  0  3  0  0  0  0  0  0
    1.4528    0.6621   -0.2496 O   0  0  0  0  0  0  0  0  0  0  0  0
    1.0751   -0.6763    0.0423 C   0  0  0  0  0  0  0  0  0  0  0  0
   -0.3579   -0.9282   -0.3924 C   0  0  0  0  0  0  0  0  0  0  0  0
   -1.2426    0.1393    0.2269 C   0  0  0  0  0  0  0  0  0  0  0  0
   -0.7410    1.4341   -0.0749 O   0  0  0  0  0  0  0  0  0  0  0  0
    0.9183    2.6078    0.0084 H   0  0  0  0  0  0  0  0  0  0  0  0
    1.1839   -0.8508    1.1199 H   0  0  0  0  0  0  0  0  0  0  0  0
    1.7816   -1.3130   -0.4874 H   0  0  0  0  0  0  0  0  0  0  0  0
   -0.6818   -1.9210   -0.0736 H   0  0  0  0  0  0  0  0  0  0  0  0
   -0.4271   -0.8785   -1.4810 H   0  0  0  0  0  0  0  0  0  0  0  0
   -1.2832    0.0173    1.3164 H   0  0  0  0  0  0  0  0  0  0  0  0
   -2.2575    0.1083   -0.1657 H   0  0  0  0  0  0  0  0  0  0  0  0
  1  2  1  0
  1  6  1  0
  1  7  1  0
  2  3  1  0
  3  4  1  0
  3  8  1  0
  3  9  1  0
  4  5  1  0
  4 10  1  0
  4 11  1  0
  5  6  1  0
  5 12  1  0
  5 13  1  0
M  RAD  1   1   2
M  END
>  <reaction>  (2) 
rmg_rxn_47

>  <mol_properties>  (2) 
{"0": {"label": "acceptor", "atom_type": "Cs"}}

>  <type>  (2) 
r2

$$$$

     RDKit          3D

 14 14  0  0  0  0  0  0  0  0999 V2000
   -1.1778    0.2241    0.1818 C   0  0  0  0  0  0  0  0  0  0  0  0
   -0.5633   -1.1636    0.0678 C   0  0  0  0  0  0  0  0  0  0  0  0
    0.6943   -1.1996    0.7146 O   0  0  0  0  0  0  0  0  0  0  0  0
    1.5547   -0.2288    0.2011 C   0  0  0  0  0  0  0  0  0  0  0  0
    1.0729    1.0696    0.3698 O   0  0  0  0  0  0  0  0  0  0  0  0
   -0.1607    1.2493   -0.2989 C   0  0  0  0  0  0  0  0  0  0  0  0
   -2.0927    0.2866   -0.4117 H   0  0  0  0  0  0  0  0  0  0  0  0
   -1.4303    0.4248    1.2248 H   0  0  0  0  0  0  0  0  0  0  0  0
   -1.1822   -1.9235    0.5431 H   0  0  0  0  0  0  0  0  0  0  0  0
   -0.4389   -1.4347   -0.9919 H   0  0  0  0  0  0  0  0  0  0  0  0
    1.7250   -0.4207   -0.8742 H   0  0  0  0  0  0  0  0  0  0  0  0
    2.4896   -0.3010    0.7524 H   0  0  0  0  0  0  0  0  0  0  0  0
   -0.0080    1.1481   -1.3844 H   0  0  0  0  0  0  0  0  0  0  0  0
   -0.4826    2.2695   -0.0942 H   0  0  0  0  0  0  0  0  0  0  0  0
  1  2  1  0
  1  6  1  0
  1  7  1  0
  1  8  1  0
  2  3  1  0
  2  9  1  0
  2 10  1  0
  3  4  1  0
  4  5  1  0
  4 11  1  0
  4 12  1  0
  5  6  1  0
  6 13  1  0
  6 14  1  0
M  END
>  <reaction>  (3) 
rmg_rxn_47

>  <mol_properties>  (3) 
{"0": {"label": "a_hydrogen", "atom_type": "H0"}, "1": {"label": "acceptor", "atom_type": "Cs"}}

>  <type>  (3) 
r2h

$$$$

     RDKit          3D

 22 21  0  0  0  0  0  0  0  0999 V2000
   -0.3984   -1.7486   -3.1411 C   0  0  0  0  0  0  0  0  0  0  0  0
    0.1654   -2.0574   -1.7966 C   0  0  0  0  0  3  0  0  0  0  0  0
    0.4119   -1.1224   -0.9734 N   0  0  0  0  0  2  0  0  0  0  0  0
    0.9055   -1.4728    0.2011 O   0  0  0  0  0  1  0  0  0  0  0  0
    0.2643   -2.1109   -3.9310 H   0  0  0  0  0  0  0  0  0  0  0  0
   -1.3644   -2.2405   -3.2807 H   0  0  0  0  0  0  0  0  0  0  0  0
   -0.5292   -0.6737   -3.2588 H   0  0  0  0  0  0  0  0  0  0  0  0
    0.3675   -3.0935   -1.5235 H   0  0  0  0  0  0  0  0  0  0  0  0
    1.1515   -0.3427    0.8105 H   0  0  0  0  0  0  0  0  0  0  0  0
    1.3503    0.7565    1.3931 C   0  0  0  0  0  0  0  0  0  0  0  0
    1.2667    1.7578    0.4594 O   0  0  0  0  0  0  0  0  0  0  0  0
   -0.0175    2.3621    0.3522 C   0  0  0  0  0  0  0  0  0  0  0  0
   -1.1120    1.3601    0.6673 C   0  0  0  0  0  0  0  0  0  0  0  0
   -0.9010    0.8270    2.0804 C   0  0  0  0  0  0  0  0  0  0  0  0
    0.4824    0.8524    2.4449 O   0  0  0  0  0  0  0  0  0  0  0  0
    2.3738    0.6815    1.7623 H   0  0  0  0  0  0  0  0  0  0  0  0
   -0.0615    3.2120    1.0431 H   0  0  0  0  0  0  0  0  0  0  0  0
   -0.0935    2.7375   -0.6667 H   0  0  0  0  0  0  0  0  0  0  0  0
   -2.0910    1.8333    0.5837 H   0  0  0  0  0  0  0  0  0  0  0  0
   -1.0590    0.5533   -0.0656 H   0  0  0  0  0  0  0  0  0  0  0  0
   -1.2695   -0.1971    2.1789 H   0  0  0  0  0  0  0  0  0  0  0  0
   -1.4016    1.4530    2.8196 H   0  0  0  0  0  0  0  0  0  0  0  0
  1  7  1  0
  1  5  1  0
  1  2  1  0
  1  6  1  0
  2  3  1  0
  2  8  1  0
  3  4  1  0
  9 10  1  0
 10 16  1  0
 10 15  1  0
 10 11  1  0
 11 12  1  0
 12 18  1  0
 12 13  1  0
 12 17  1  0
 13 14  1  0
 13 19  1  0
 13 20  1  0
 14 15  1  0
 14 22  1  0
 14 21  1  0
M  RAD  3   2   2   3   2   4   2
M  END
>  <reaction>  (4) 
rmg_rxn_47

>  <mol_properties>  (4) 
{"2": {"label": "*4", "atom_type": "N3s"}, "3": {"label": "*3", "atom_type": "O2s"}, "8": {"label": "*2", "atom_type": "H0"}, "9": {"label": "*1", "atom_type": "Cs"}, "10": {"label": "*0", "atom_type": "O2s"}}

>  <type>  (4) 
ts

$$$$

     RDKit          3D

 22 21  0  0  0  0  0  0  0  0999 V2000
   -0.0629   -2.1649   -4.1594 C   0  0  0  0  0  0  0  0  0  0  0  0
   -0.0629   -2.1649   -2.6707 C   0  0  0  0  0  0  0  0  0  0  0  0
   -0.0629   -1.0729   -2.0339 N   0  0  0  0  0  0  0  0  0  0  0  0
   -0.0629   -1.2775   -0.6607 O   0  0  0  0  0  0  0  0  0  0  0  0
    0.8165   -2.6888   -4.5412 H   0  0  0  0  0  0  0  0  0  0  0  0
   -0.9423   -2.6888   -4.5412 H   0  0  0  0  0  0  0  0  0  0  0  0
   -0.0629   -1.1452   -4.5408 H   0  0  0  0  0  0  0  0  0  0  0  0
   -0.0629   -3.1125   -2.1306 H   0  0  0  0  0  0  0  0  0  0  0  0
   -0.0629   -0.2079   -0.2374 H   0  0  0  0  0  0  0  0  0  0  0  0
   -0.0629    1.0058    0.2430 C   0  0  0  0  0  3  0  0  0  0  0  0
   -1.2164    1.1464    1.0149 O   0  0  0  0  0  0  0  0  0  0  0  0
   -0.9600    1.8940    2.1882 C   0  0  0  0  0  0  0  0  0  0  0  0
    0.1589    1.2485    2.9933 C   0  0  0  0  0  0  0  0  0  0  0  0
    1.3549    1.0291    2.0779 C   0  0  0  0  0  0  0  0  0  0  0  0
    0.9605    0.3330    0.9112 O   0  0  0  0  0  0  0  0  0  0  0  0
    0.2955    2.0045   -0.0673 H   0  0  0  0  0  0  0  0  0  0  0  0
   -0.6815    2.9232    1.9142 H   0  0  0  0  0  0  0  0  0  0  0  0
   -1.8943    1.9314    2.7467 H   0  0  0  0  0  0  0  0  0  0  0  0
    0.4361    1.8826    3.8385 H   0  0  0  0  0  0  0  0  0  0  0  0
   -0.1819    0.2870    3.3822 H   0  0  0  0  0  0  0  0  0  0  0  0
    2.1282    0.4285    2.5550 H   0  0  0  0  0  0  0  0  0  0  0  0
    1.7963    1.9974    1.7961 H   0  0  0  0  0  0  0  0  0  0  0  0
  1  2  1  0
  1  5  1  0
  1  6  1  0
  1  7  1  0
  2  3  2  3
  2  8  1  0
  3  4  1  0
  4  9  1  0
 10 11  1  0
 10 15  1  0
 10 16  1  0
 11 12  1  0
 12 13  1  0
 12 17  1  0
 12 18  1  0
 13 14  1  0
 13 19  1  0
 13 20  1  0
 14 15  1  0
 14 21  1  0
 14 22  1  0
M  RAD  1  10   2
M  END
>  <reaction>  (5) 
rmg_rxn_47

>  <mol_properties>  (5) 
{"2": {"label": "*4", "atom_type": "N3s"}, "3": {"label": "*3", "atom_type": "O2s"}, "8": {"label": "*2", "atom_type": "H0"}, "9": {"label": "*1", "atom_type": "Cs"}, "10": {"label": "*0", "atom_type": "O2s"}}

>  <type>  (5) 
unop_1

>  <geom_source>  (5) 
Heuristics

$$$$

     RDKit          3D

 22 21  0  0  0  0  0  0  0  0999 V2000
    0.5762   -2.5905   -3.6188 C   0  0  0  0  0  0  0  0  0  0  0  0
    0.5762   -2.5905   -2.1301 C   0  0  0  0  0  0  0  0  0  0  0  0
    0.5762   -1.4984   -1.4933 N   0  0  0  0  0  0  0  0  0  0  0  0
    0.5762   -1.7031   -0.1201 O   0  0  0  0  0  0  0  0  0  0  0  0
    1.4556   -3.1143   -4.0006 H   0  0  0  0  0  0  0  0  0  0  0  0
   -0.3032   -3.1143   -4.0006 H   0  0  0  0  0  0  0  0  0  0  0  0
    0.5762   -1.5708   -4.0002 H   0  0  0  0  0  0  0  0  0  0  0  0
    0.5762   -3.5380   -1.5900 H   0  0  0  0  0  0  0  0  0  0  0  0
    0.5762   -0.6334    0.3032 H   0  0  0  0  0  0  0  0  0  0  0  0
    0.5762    0.5803    0.7836 C   0  0  0  0  0  3  0  0  0  0  0  0
   -0.0898    1.3905   -0.1364 O   0  0  0  0  0  0  0  0  0  0  0  0
   -0.5288    2.5939    0.4641 C   0  0  0  0  0  0  0  0  0  0  0  0
   -1.4130    2.2940    1.6661 C   0  0  0  0  0  0  0  0  0  0  0  0
   -0.6765    1.3300    2.5854 C   0  0  0  0  0  0  0  0  0  0  0  0
   -0.2287    0.2020    1.8585 O   0  0  0  0  0  0  0  0  0  0  0  0
    1.4688    1.1114    1.1621 H   0  0  0  0  0  0  0  0  0  0  0  0
    0.3438    3.1876    0.7770 H   0  0  0  0  0  0  0  0  0  0  0  0
   -1.0619    3.1516   -0.3047 H   0  0  0  0  0  0  0  0  0  0  0  0
   -1.6598    3.2156    2.1980 H   0  0  0  0  0  0  0  0  0  0  0  0
   -2.3428    1.8333    1.3269 H   0  0  0  0  0  0  0  0  0  0  0  0
   -1.3185    0.9554    3.3814 H   0  0  0  0  0  0  0  0  0  0  0  0
    0.1858    1.8348    3.0476 H   0  0  0  0  0  0  0  0  0  0  0  0
  1  2  1  0
  1  5  1  0
  1  6  1  0
  1  7  1  0
  2  3  2  3
  2  8  1  0
  3  4  1  0
  4  9  1  0
 10 11  1  0
 10 15  1  0
 10 16  1  0
 11 12  1  0
 12 13  1  0
 12 17  1  0
 12 18  1  0
 13 14  1  0
 13 19  1  0
 13 20  1  0
 14 15  1  0
 14 21  1  0
 14 22  1  0
M  RAD  1  10   2
M  END
>  <reaction>  (6) 
rmg_rxn_47

>  <mol_properties>  (6) 
{"2": {"label": "*4", "atom_type": "N3s"}, "3": {"label": "*3", "atom_type": "O2s"}, "8": {"label": "*2", "atom_type": "H0"}, "9": {"label": "*1", "atom_type": "Cs"}, "10": {"label": "*0", "atom_type": "O2s"}}

>  <type>  (6) 
unop_2

>  <geom_source>  (6) 
Heuristics

$$$$

     RDKit          3D

 22 21  0  0  0  0  0  0  0  0999 V2000
   -0.3757   -2.3449   -4.0262 C   0  0  0  0  0  0  0  0  0  0  0  0
   -0.3757   -2.3449   -2.5376 C   0  0  0  0  0  0  0  0  0  0  0  0
   -0.3757   -1.2529   -1.9008 N   0  0  0  0  0  0  0  0  0  0  0  0
   -0.3757   -1.4575   -0.5276 O   0  0  0  0  0  0  0  0  0  0  0  0
    0.5037   -2.8688   -4.4080 H   0  0  0  0  0  0  0  0  0  0  0  0
   -1.2552   -2.8688   -4.4080 H   0  0  0  0  0  0  0  0  0  0  0  0
   -0.3757   -1.3252   -4.4076 H   0  0  0  0  0  0  0  0  0  0  0  0
   -0.3757   -3.2925   -1.9974 H   0  0  0  0  0  0  0  0  0  0  0  0
   -0.3757   -0.3879   -0.1042 H   0  0  0  0  0  0  0  0  0  0  0  0
   -0.3757    0.8258    0.3761 C   0  0  0  0  0  3  0  0  0  0  0  0
   -1.0418    0.7870    1.6014 O   0  0  0  0  0  0  0  0  0  0  0  0
   -0.5799    1.8052    2.4683 C   0  0  0  0  0  0  0  0  0  0  0  0
    0.9254    1.6925    2.6627 C   0  0  0  0  0  0  0  0  0  0  0  0
    1.5916    1.6398    1.2952 C   0  0  0  0  0  0  0  0  0  0  0  0
    1.0004    0.6315    0.4983 O   0  0  0  0  0  0  0  0  0  0  0  0
   -0.5673    1.7973   -0.1155 H   0  0  0  0  0  0  0  0  0  0  0  0
   -0.8325    2.7897    2.0454 H   0  0  0  0  0  0  0  0  0  0  0  0
   -1.1216    1.6883    3.4059 H   0  0  0  0  0  0  0  0  0  0  0  0
    1.3008    2.5418    3.2379 H   0  0  0  0  0  0  0  0  0  0  0  0
    1.1529    0.7773    3.2128 H   0  0  0  0  0  0  0  0  0  0  0  0
    2.6518    1.4009    1.3675 H   0  0  0  0  0  0  0  0  0  0  0  0
    1.4918    2.6127    0.7898 H   0  0  0  0  0  0  0  0  0  0  0  0
  1  2  1  0
  1  5  1  0
  1  6  1  0
  1  7  1  0
  2  3  2  3
  2  8  1  0
  3  4  1  0
  4  9  1  0
 10 11  1  0
 10 15  1  0
 10 16  1  0
 11 12  1  0
 12 13  1  0
 12 17  1  0
 12 18  1  0
 13 14  1  0
 13 19  1  0
 13 20  1  0
 14 15  1  0
 14 21  1  0
 14 22  1  0
M  RAD  1  10   2
M  END
>  <reaction>  (7) 
rmg_rxn_47

>  <mol_properties>  (7) 
{"2": {"label": "*4", "atom_type": "N3s"}, "3": {"label": "*3", "atom_type": "O2s"}, "8": {"label": "*2", "atom_type": "H0"}, "9": {"label": "*1", "atom_type": "Cs"}, "10": {"label": "*0", "atom_type": "O2s"}}

>  <type>  (7) 
unop_3

>  <geom_source>  (7) 
Heuristics

$$$$

     RDKit          3D

 22 21  0  0  0  0  0  0  0  0999 V2000
   -0.1532   -2.8512   -3.5843 C   0  0  0  0  0  0  0  0  0  0  0  0
   -0.1532   -2.8512   -2.0957 C   0  0  0  0  0  0  0  0  0  0  0  0
   -0.1532   -1.7591   -1.4589 N   0  0  0  0  0  0  0  0  0  0  0  0
   -0.1532   -1.9638   -0.0857 O   0  0  0  0  0  0  0  0  0  0  0  0
    0.7262   -3.3750   -3.9661 H   0  0  0  0  0  0  0  0  0  0  0  0
   -1.0326   -3.3750   -3.9661 H   0  0  0  0  0  0  0  0  0  0  0  0
   -0.1532   -1.8315   -3.9658 H   0  0  0  0  0  0  0  0  0  0  0  0
   -0.1532   -3.7987   -1.5555 H   0  0  0  0  0  0  0  0  0  0  0  0
   -0.1532   -0.8941    0.3377 H   0  0  0  0  0  0  0  0  0  0  0  0
   -0.1532    0.3195    0.8180 C   0  0  0  0  0  3  0  0  0  0  0  0
    1.0004    0.9504    0.3514 O   0  0  0  0  0  0  0  0  0  0  0  0
    1.4705    1.9100    1.2785 C   0  0  0  0  0  0  0  0  0  0  0  0
    0.3805    2.9265    1.5869 C   0  0  0  0  0  0  0  0  0  0  0  0
   -0.8817    2.1802    1.9948 C   0  0  0  0  0  0  0  0  0  0  0  0
   -1.2117    1.2045    1.0250 O   0  0  0  0  0  0  0  0  0  0  0  0
    0.0735   -0.2091    1.7621 H   0  0  0  0  0  0  0  0  0  0  0  0
    1.7854    1.4031    2.2036 H   0  0  0  0  0  0  0  0  0  0  0  0
    2.3470    2.3759    0.8303 H   0  0  0  0  0  0  0  0  0  0  0  0
    0.7009    3.5997    2.3852 H   0  0  0  0  0  0  0  0  0  0  0  0
    0.1775    3.5228    0.6952 H   0  0  0  0  0  0  0  0  0  0  0  0
   -1.7404    2.8455    2.0749 H   0  0  0  0  0  0  0  0  0  0  0  0
   -0.7323    1.6924    2.9702 H   0  0  0  0  0  0  0  0  0  0  0  0
  1  2  1  0
  1  5  1  0
  1  6  1  0
  1  7  1  0
  2  3  2  3
  2  8  1  0
  3  4  1  0
  4  9  1  0
 10 11  1  0
 10 15  1  0
 10 16  1  0
 11 12  1  0
 12 13  1  0
 12 17  1  0
 12 18  1  0
 13 14  1  0
 13 19  1  0
 13 20  1  0
 14 15  1  0
 14 21  1  0
 14 22  1  0
M  RAD  1  10   2
M  END
>  <reaction>  (8) 
rmg_rxn_47

>  <mol_properties>  (8) 
{"2": {"label": "*4", "atom_type": "N3s"}, "3": {"label": "*3", "atom_type": "O2s"}, "8": {"label": "*2", "atom_type": "H0"}, "9": {"label": "*1", "atom_type": "Cs"}, "10": {"label": "*0", "atom_type": "O2s"}}

>  <type>  (8) 
unop_4

>  <geom_source>  (8) 
Heuristics

$$$$

     RDKit          3D

 22 21  0  0  0  0  0  0  0  0999 V2000
   -0.3559   -2.6641   -3.8032 C   0  0  0  0  0  0  0  0  0  0  0  0
   -0.3559   -2.6641   -2.3145 C   0  0  0  0  0  0  0  0  0  0  0  0
   -0.3559   -1.5721   -1.6777 N   0  0  0  0  0  0  0  0  0  0  0  0
   -0.3559   -1.7767   -0.3045 O   0  0  0  0  0  0  0  0  0  0  0  0
    0.5236   -3.1880   -4.1850 H   0  0  0  0  0  0  0  0  0  0  0  0
   -1.2353   -3.1880   -4.1850 H   0  0  0  0  0  0  0  0  0  0  0  0
   -0.3559   -1.6444   -4.1846 H   0  0  0  0  0  0  0  0  0  0  0  0
   -0.3559   -3.6116   -1.7744 H   0  0  0  0  0  0  0  0  0  0  0  0
   -0.3559   -0.7071    0.1189 H   0  0  0  0  0  0  0  0  0  0  0  0
   -0.3559    0.5066    0.5992 C   0  0  0  0  0  3  0  0  0  0  0  0
   -0.3559    0.4021    1.9904 O   0  0  0  0  0  0  0  0  0  0  0  0
   -0.3327    1.6785    2.6002 C   0  0  0  0  0  0  0  0  0  0  0  0
    0.8690    2.4759    2.1138 C   0  0  0  0  0  0  0  0  0  0  0  0
    0.8728    2.4734    0.5918 C   0  0  0  0  0  0  0  0  0  0  0  0
    0.7779    1.1497    0.1017 O   0  0  0  0  0  0  0  0  0  0  0  0
   -1.2605    1.0512    0.2718 H   0  0  0  0  0  0  0  0  0  0  0  0
   -1.2632    2.2161    2.3616 H   0  0  0  0  0  0  0  0  0  0  0  0
   -0.3024    1.5114    3.6760 H   0  0  0  0  0  0  0  0  0  0  0  0
    0.8274    3.4992    2.4939 H   0  0  0  0  0  0  0  0  0  0  0  0
    1.7860    2.0102    2.4800 H   0  0  0  0  0  0  0  0  0  0  0  0
    1.7925    2.8927    0.1861 H   0  0  0  0  0  0  0  0  0  0  0  0
    0.0272    3.0669    0.2119 H   0  0  0  0  0  0  0  0  0  0  0  0
  1  2  1  0
  1  5  1  0
  1  6  1  0
  1  7  1  0
  2  3  2  3
  2  8  1  0
  3  4  1  0
  4  9  1  0
 10 11  1  0
 10 15  1  0
 10 16  1  0
 11 12  1  0
 12 13  1  0
 12 17  1  0
 12 18  1  0
 13 14  1  0
 13 19  1  0
 13 20  1  0
 14 15  1  0
 14 21  1  0
 14 22  1  0
M  RAD  1  10   2
M  END
>  <reaction>  (9) 
rmg_rxn_47

>  <mol_properties>  (9) 
{"2": {"label": "*4", "atom_type": "N3s"}, "3": {"label": "*3", "atom_type": "O2s"}, "8": {"label": "*2", "atom_type": "H0"}, "9": {"label": "*1", "atom_type": "Cs"}, "10": {"label": "*0", "atom_type": "O2s"}}

>  <type>  (9) 
unop_5

>  <geom_source>  (9) 
Heuristics

$$$$

     RDKit          3D

 22 21  0  0  0  0  0  0  0  0999 V2000
   -0.1715   -2.7828   -3.7401 C   0  0  0  0  0  0  0  0  0  0  0  0
   -0.1715   -2.7828   -2.2514 C   0  0  0  0  0  0  0  0  0  0  0  0
   -0.1715   -1.6907   -1.6147 N   0  0  0  0  0  0  0  0  0  0  0  0
   -0.1715   -1.8954   -0.2415 O   0  0  0  0  0  0  0  0  0  0  0  0
    0.7079   -3.3066   -4.1219 H   0  0  0  0  0  0  0  0  0  0  0  0
   -1.0509   -3.3066   -4.1219 H   0  0  0  0  0  0  0  0  0  0  0  0
   -0.1715   -1.7631   -4.1215 H   0  0  0  0  0  0  0  0  0  0  0  0
   -0.1715   -3.7303   -1.7113 H   0  0  0  0  0  0  0  0  0  0  0  0
   -0.1715   -0.8257    0.1819 H   0  0  0  0  0  0  0  0  0  0  0  0
   -0.1715    0.3879    0.6623 C   0  0  0  0  0  3  0  0  0  0  0  0
    1.1606    0.7737    0.8149 O   0  0  0  0  0  0  0  0  0  0  0  0
    1.3398    1.5441    1.9878 C   0  0  0  0  0  0  0  0  0  0  0  0
    0.4201    2.7567    1.9705 C   0  0  0  0  0  0  0  0  0  0  0  0
   -1.0025    2.2865    1.7027 C   0  0  0  0  0  0  0  0  0  0  0  0
   -1.0422    1.4719    0.5468 O   0  0  0  0  0  0  0  0  0  0  0  0
   -0.4741   -0.2362    1.5231 H   0  0  0  0  0  0  0  0  0  0  0  0
    1.1272    0.9226    2.8712 H   0  0  0  0  0  0  0  0  0  0  0  0
    2.3903    1.8300    2.0176 H   0  0  0  0  0  0  0  0  0  0  0  0
    0.4733    3.2899    2.9224 H   0  0  0  0  0  0  0  0  0  0  0  0
    0.7327    3.4381    1.1769 H   0  0  0  0  0  0  0  0  0  0  0  0
   -1.6798    3.1201    1.5222 H   0  0  0  0  0  0  0  0  0  0  0  0
   -1.3799    1.7173    2.5661 H   0  0  0  0  0  0  0  0  0  0  0  0
  1  2  1  0
  1  5  1  0
  1  6  1  0
  1  7  1  0
  2  3  2  3
  2  8  1  0
  3  4  1  0
  4  9  1  0
 10 11  1  0
 10 15  1  0
 10 16  1  0
 11 12  1  0
 12 13  1  0
 12 17  1  0
 12 18  1  0
 13 14  1  0
 13 19  1  0
 13 20  1  0
 14 15  1  0
 14 21  1  0
 14 22  1  0
M  RAD  1  10   2
M  END
>  <reaction>  (10) 
rmg_rxn_47

>  <mol_properties>  (10) 
{"2": {"label": "*4", "atom_type": "N3s"}, "3": {"label": "*3", "atom_type": "O2s"}, "8": {"label": "*2", "atom_type": "H0"}, "9": {"label": "*1", "atom_type": "Cs"}, "10": {"label": "*0", "atom_type": "O2s"}}

>  <type>  (10) 
unop_6

>  <geom_source>  (10) 
Heuristics

$$$$

     RDKit          3D

 22 21  0  0  0  0  0  0  0  0999 V2000
   -0.1030   -2.7585   -3.8035 C   0  0  0  0  0  0  0  0  0  0  0  0
   -0.1030   -2.7585   -2.3148 C   0  0  0  0  0  0  0  0  0  0  0  0
   -0.1030   -1.6664   -1.6780 N   0  0  0  0  0  0  0  0  0  0  0  0
   -0.1030   -1.8711   -0.3048 O   0  0  0  0  0  0  0  0  0  0  0  0
    0.7764   -3.2823   -4.1853 H   0  0  0  0  0  0  0  0  0  0  0  0
   -0.9824   -3.2823   -4.1853 H   0  0  0  0  0  0  0  0  0  0  0  0
   -0.1030   -1.7388   -4.1849 H   0  0  0  0  0  0  0  0  0  0  0  0
   -0.1030   -3.7060   -1.7747 H   0  0  0  0  0  0  0  0  0  0  0  0
   -0.1030   -0.8014    0.1186 H   0  0  0  0  0  0  0  0  0  0  0  0
   -0.1030    0.4122    0.5989 C   0  0  0  0  0  3  0  0  0  0  0  0
    1.0506    0.5529    1.3709 O   0  0  0  0  0  0  0  0  0  0  0  0
    0.8049    1.3390    2.5211 C   0  0  0  0  0  0  0  0  0  0  0  0
    0.2461    2.6979    2.1241 C   0  0  0  0  0  0  0  0  0  0  0  0
   -0.9482    2.4850    1.2049 C   0  0  0  0  0  0  0  0  0  0  0  0
   -0.5980    1.6306    0.1331 O   0  0  0  0  0  0  0  0  0  0  0  0
   -0.8829   -0.0979    1.1935 H   0  0  0  0  0  0  0  0  0  0  0  0
    0.0928    0.8161    3.1778 H   0  0  0  0  0  0  0  0  0  0  0  0
    1.7534    1.4271    3.0491 H   0  0  0  0  0  0  0  0  0  0  0  0
   -0.0505    3.2627    3.0108 H   0  0  0  0  0  0  0  0  0  0  0  0
    1.0142    3.2660    1.5957 H   0  0  0  0  0  0  0  0  0  0  0  0
   -1.2928    3.4184    0.7620 H   0  0  0  0  0  0  0  0  0  0  0  0
   -1.7836    2.0427    1.7690 H   0  0  0  0  0  0  0  0  0  0  0  0
  1  2  1  0
  1  5  1  0
  1  6  1  0
  1  7  1  0
  2  3  2  3
  2  8  1  0
  3  4  1  0
  4  9  1  0
 10 11  1  0
 10 15  1  0
 10 16  1  0
 11 12  1  0
 12 13  1  0
 12 17  1  0
 12 18  1  0
 13 14  1  0
 13 19  1  0
 13 20  1  0
 14 15  1  0
 14 21  1  0
 14 22  1  0
M  RAD  1  10   2
M  END
>  <reaction>  (11) 
rmg_rxn_47

>  <mol_properties>  (11) 
{"2": {"label": "*4", "atom_type": "N3s"}, "3": {"label": "*3", "atom_type": "O2s"}, "8": {"label": "*2", "atom_type": "H0"}, "9": {"label": "*1", "atom_type": "Cs"}, "10": {"label": "*0", "atom_type": "O2s"}}

>  <type>  (11) 
unop_7

>  <geom_source>  (11) 
Heuristics

$$$$

     RDKit          3D

 22 21  0  0  0  0  0  0  0  0999 V2000
    0.3039   -2.1831   -4.0997 C   0  0  0  0  0  0  0  0  0  0  0  0
    0.3039   -2.1831   -2.6111 C   0  0  0  0  0  0  0  0  0  0  0  0
    0.3039   -1.0910   -1.9743 N   0  0  0  0  0  0  0  0  0  0  0  0
    0.3039   -1.2957   -0.6011 O   0  0  0  0  0  0  0  0  0  0  0  0
    1.1833   -2.7069   -4.4815 H   0  0  0  0  0  0  0  0  0  0  0  0
   -0.5755   -2.7069   -4.4815 H   0  0  0  0  0  0  0  0  0  0  0  0
    0.3039   -1.1634   -4.4812 H   0  0  0  0  0  0  0  0  0  0  0  0
    0.3039   -3.1306   -2.0709 H   0  0  0  0  0  0  0  0  0  0  0  0
    0.3039   -0.2260   -0.1777 H   0  0  0  0  0  0  0  0  0  0  0  0
    0.3039    0.9876    0.3026 C   0  0  0  0  0  3  0  0  0  0  0  0
   -1.0281    1.3734    0.4553 O   0  0  0  0  0  0  0  0  0  0  0  0
   -1.2160    2.1048    1.6516 C   0  0  0  0  0  0  0  0  0  0  0  0
   -0.7435    1.2923    2.8487 C   0  0  0  0  0  0  0  0  0  0  0  0
    0.6776    0.8156    2.5849 C   0  0  0  0  0  0  0  0  0  0  0  0
    0.7527    0.1609    1.3330 O   0  0  0  0  0  0  0  0  0  0  0  0
    0.9432    1.8880    0.2492 H   0  0  0  0  0  0  0  0  0  0  0  0
   -0.6570    3.0515    1.5946 H   0  0  0  0  0  0  0  0  0  0  0  0
   -2.2778    2.3396    1.7120 H   0  0  0  0  0  0  0  0  0  0  0  0
   -0.7812    1.8955    3.7586 H   0  0  0  0  0  0  0  0  0  0  0  0
   -1.3974    0.4282    2.9818 H   0  0  0  0  0  0  0  0  0  0  0  0
    1.0127    0.0993    3.3338 H   0  0  0  0  0  0  0  0  0  0  0  0
    1.3698    1.6715    2.5935 H   0  0  0  0  0  0  0  0  0  0  0  0
  1  2  1  0
  1  5  1  0
  1  6  1  0
  1  7  1  0
  2  3  2  3
  2  8  1  0
  3  4  1  0
  4  9  1  0
 10 11  1  0
 10 15  1  0
 10 16  1  0
 11 12  1  0
 12 13  1  0
 12 17  1  0
 12 18  1  0
 13 14  1  0
 13 19  1  0
 13 20  1  0
 14 15  1  0
 14 21  1  0
 14 22  1  0
M  RAD  1  10   2
M  END
>  <reaction>  (12) 
rmg_rxn_47

>  <mol_properties>  (12) 
{"2": {"label": "*4", "atom_type": "N3s"}, "3": {"label": "*3", "atom_type": "O2s"}, "8": {"label": "*2", "atom_type": "H0"}, "9": {"label": "*1", "atom_type": "Cs"}, "10": {"label": "*0", "atom_type": "O2s"}}

>  <type>  (12) 
unop_8

>  <geom_source>  (12) 
Heuristics

$$$$

     RDKit          3D

 22 21  0  0  0  0  0  0  0  0999 V2000
    0.0420   -2.8928   -3.4375 C   0  0  0  0  0  0  0  0  0  0  0  0
    0.0420   -2.8928   -1.9488 C   0  0  0  0  0  0  0  0  0  0  0  0
    0.0420   -1.8007   -1.3120 N   0  0  0  0  0  0  0  0  0  0  0  0
    0.0420   -2.0054    0.0612 O   0  0  0  0  0  0  0  0  0  0  0  0
    0.9215   -3.4166   -3.8193 H   0  0  0  0  0  0  0  0  0  0  0  0
   -0.8374   -3.4166   -3.8193 H   0  0  0  0  0  0  0  0  0  0  0  0
    0.0420   -1.8731   -3.8189 H   0  0  0  0  0  0  0  0  0  0  0  0
    0.0420   -3.8403   -1.4087 H   0  0  0  0  0  0  0  0  0  0  0  0
    0.0420   -0.9357    0.4845 H   0  0  0  0  0  0  0  0  0  0  0  0
    0.0420    0.2779    0.9649 C   0  0  0  0  0  3  0  0  0  0  0  0
    0.7081    1.0882    0.0449 O   0  0  0  0  0  0  0  0  0  0  0  0
    1.1069    2.3112    0.6336 C   0  0  0  0  0  0  0  0  0  0  0  0
   -0.0968    3.0323    1.2234 C   0  0  0  0  0  0  0  0  0  0  0  0
   -0.8400    2.0716    2.1406 C   0  0  0  0  0  0  0  0  0  0  0  0
   -1.1228    0.8629    1.4621 O   0  0  0  0  0  0  0  0  0  0  0  0
    0.7211    0.0404    1.8043 H   0  0  0  0  0  0  0  0  0  0  0  0
    1.8509    2.1143    1.4207 H   0  0  0  0  0  0  0  0  0  0  0  0
    1.5873    2.8947   -0.1506 H   0  0  0  0  0  0  0  0  0  0  0  0
    0.2223    3.9186    1.7764 H   0  0  0  0  0  0  0  0  0  0  0  0
   -0.7602    3.3507    0.4169 H   0  0  0  0  0  0  0  0  0  0  0  0
   -1.7958    2.4784    2.4681 H   0  0  0  0  0  0  0  0  0  0  0  0
   -0.2329    1.8579    3.0337 H   0  0  0  0  0  0  0  0  0  0  0  0
  1  2  1  0
  1  5  1  0
  1  6  1  0
  1  7  1  0
  2  3  2  3
  2  8  1  0
  3  4  1  0
  4  9  1  0
 10 11  1  0
 10 15  1  0
 10 16  1  0
 11 12  1  0
 12 13  1  0
 12 17  1  0
 12 18  1  0
 13 14  1  0
 13 19  1  0
 13 20  1  0
 14 15  1  0
 14 21  1  0
 14 22  1  0
M  RAD  1  10   2
M  END
>  <reaction>  (13) 
rmg_rxn_47

>  <mol_properties>  (13) 
{"2": {"label": "*4", "atom_type": "N3s"}, "3": {"label": "*3", "atom_type": "O2s"}, "8": {"label": "*2", "atom_type": "H0"}, "9": {"label": "*1", "atom_type": "Cs"}, "10": {"label": "*0", "atom_type": "O2s"}}

>  <type>  (13) 
unop_9

>  <geom_source>  (13) 
Heuristics

$$$$

     RDKit          3D

 22 21  0  0  0  0  0  0  0  0999 V2000
    0.5522   -2.3458   -3.8874 C   0  0  0  0  0  0  0  0  0  0  0  0
    0.5522   -2.3458   -2.3988 C   0  0  0  0  0  0  0  0  0  0  0  0
    0.5522   -1.2537   -1.7620 N   0  0  0  0  0  0  0  0  0  0  0  0
    0.5522   -1.4584   -0.3888 O   0  0  0  0  0  0  0  0  0  0  0  0
    1.4316   -2.8696   -4.2692 H   0  0  0  0  0  0  0  0  0  0  0  0
   -0.3272   -2.8696   -4.2692 H   0  0  0  0  0  0  0  0  0  0  0  0
    0.5522   -1.3261   -4.2689 H   0  0  0  0  0  0  0  0  0  0  0  0
    0.5522   -3.2933   -1.8586 H   0  0  0  0  0  0  0  0  0  0  0  0
    0.5522   -0.3887    0.0346 H   0  0  0  0  0  0  0  0  0  0  0  0
    0.5522    0.8250    0.5149 C   0  0  0  0  0  3  0  0  0  0  0  0
   -0.6014    1.4558    0.0483 O   0  0  0  0  0  0  0  0  0  0  0  0
   -1.0974    2.3826    0.9951 C   0  0  0  0  0  0  0  0  0  0  0  0
   -1.3548    1.6923    2.3270 C   0  0  0  0  0  0  0  0  0  0  0  0
   -0.0969    0.9405    2.7383 C   0  0  0  0  0  0  0  0  0  0  0  0
    0.3395    0.0996    1.6876 O   0  0  0  0  0  0  0  0  0  0  0  0
    1.3397    1.5811    0.6885 H   0  0  0  0  0  0  0  0  0  0  0  0
   -0.3690    3.1973    1.1276 H   0  0  0  0  0  0  0  0  0  0  0  0
   -2.0079    2.8053    0.5728 H   0  0  0  0  0  0  0  0  0  0  0  0
   -1.6286    2.4245    3.0899 H   0  0  0  0  0  0  0  0  0  0  0  0
   -2.1799    0.9862    2.2164 H   0  0  0  0  0  0  0  0  0  0  0  0
   -0.2694    0.2995    3.6017 H   0  0  0  0  0  0  0  0  0  0  0  0
    0.7018    1.6538    2.9934 H   0  0  0  0  0  0  0  0  0  0  0  0
  1  2  1  0
  1  5  1  0
  1  6  1  0
  1  7  1  0
  2  3  2  3
  2  8  1  0
  3  4  1  0
  4  9  1  0
 10 11  1  0
 10 15  1  0
 10 16  1  0
 11 12  1  0
 12 13  1  0
 12 17  1  0
 12 18  1  0
 13 14  1  0
 13 19  1  0
 13 20  1  0
 14 15  1  0
 14 21  1  0
 14 22  1  0
M  RAD  1  10   2
M  END
>  <reaction>  (14) 
rmg_rxn_47

>  <mol_properties>  (14) 
{"2": {"label": "*4", "atom_type": "N3s"}, "3": {"label": "*3", "atom_type": "O2s"}, "8": {"label": "*2", "atom_type": "H0"}, "9": {"label": "*1", "atom_type": "Cs"}, "10": {"label": "*0", "atom_type": "O2s"}}

>  <type>  (14) 
unop_10

>  <geom_source>  (14) 
Heuristics

$$$$

     RDKit          3D

 22 21  0  0  0  0  0  0  0  0999 V2000
   -0.1265   -2.7774   -3.7669 C   0  0  0  0  0  0  0  0  0  0  0  0
   -0.1265   -2.7774   -2.2782 C   0  0  0  0  0  0  0  0  0  0  0  0
   -0.1265   -1.6853   -1.6414 N   0  0  0  0  0  0  0  0  0  0  0  0
   -0.1265   -1.8900   -0.2682 O   0  0  0  0  0  0  0  0  0  0  0  0
    0.7529   -3.3012   -4.1487 H   0  0  0  0  0  0  0  0  0  0  0  0
   -1.0059   -3.3012   -4.1487 H   0  0  0  0  0  0  0  0  0  0  0  0
   -0.1265   -1.7577   -4.1483 H   0  0  0  0  0  0  0  0  0  0  0  0
   -0.1265   -3.7249   -1.7381 H   0  0  0  0  0  0  0  0  0  0  0  0
   -0.1265   -0.8203    0.1551 H   0  0  0  0  0  0  0  0  0  0  0  0
   -0.1265    0.3934    0.6355 C   0  0  0  0  0  3  0  0  0  0  0  0
    0.5395    0.3546    1.8608 O   0  0  0  0  0  0  0  0  0  0  0  0
    0.1103    1.4008    2.7107 C   0  0  0  0  0  0  0  0  0  0  0  0
    0.3011    2.7484    2.0294 C   0  0  0  0  0  0  0  0  0  0  0  0
   -0.3596    2.7005    0.6591 C   0  0  0  0  0  0  0  0  0  0  0  0
    0.0976    1.5768   -0.0686 O   0  0  0  0  0  0  0  0  0  0  0  0
   -1.2118    0.2656    0.8031 H   0  0  0  0  0  0  0  0  0  0  0  0
   -0.9505    1.2546    2.9660 H   0  0  0  0  0  0  0  0  0  0  0  0
    0.6948    1.3208    3.6262 H   0  0  0  0  0  0  0  0  0  0  0  0
   -0.1330    3.5473    2.6349 H   0  0  0  0  0  0  0  0  0  0  0  0
    1.3679    2.9477    1.9113 H   0  0  0  0  0  0  0  0  0  0  0  0
   -0.1217    3.5792    0.0612 H   0  0  0  0  0  0  0  0  0  0  0  0
   -1.4535    2.6457    0.7700 H   0  0  0  0  0  0  0  0  0  0  0  0
  1  2  1  0
  1  5  1  0
  1  6  1  0
  1  7  1  0
  2  3  2  3
  2  8  1  0
  3  4  1  0
  4  9  1  0
 10 11  1  0
 10 15  1  0
 10 16  1  0
 11 12  1  0
 12 13  1  0
 12 17  1  0
 12 18  1  0
 13 14  1  0
 13 19  1  0
 13 20  1  0
 14 15  1  0
 14 21  1  0
 14 22  1  0
M  RAD  1  10   2
M  END
>  <reaction>  (15) 
rmg_rxn_47

>  <mol_properties>  (15) 
{"2": {"label": "*4", "atom_type": "N3s"}, "3": {"label": "*3", "atom_type": "O2s"}, "8": {"label": "*2", "atom_type": "H0"}, "9": {"label": "*1", "atom_type": "Cs"}, "10": {"label": "*0", "atom_type": "O2s"}}

>  <type>  (15) 
unop_11

>  <geom_source>  (15) 
Heuristics

$$$$

     RDKit          3D

 22 21  0  0  0  0  0  0  0  0999 V2000
    0.3558   -2.8103   -3.4338 C   0  0  0  0  0  0  0  0  0  0  0  0
    0.3558   -2.8103   -1.9451 C   0  0  0  0  0  0  0  0  0  0  0  0
    0.3558   -1.7182   -1.3083 N   0  0  0  0  0  0  0  0  0  0  0  0
    0.3558   -1.9229    0.0649 O   0  0  0  0  0  0  0  0  0  0  0  0
    1.2353   -3.3341   -3.8156 H   0  0  0  0  0  0  0  0  0  0  0  0
   -0.5236   -3.3341   -3.8156 H   0  0  0  0  0  0  0  0  0  0  0  0
    0.3559   -1.7906   -3.8152 H   0  0  0  0  0  0  0  0  0  0  0  0
    0.3558   -3.7578   -1.4050 H   0  0  0  0  0  0  0  0  0  0  0  0
    0.3559   -0.8532    0.4882 H   0  0  0  0  0  0  0  0  0  0  0  0
    0.3559    0.3604    0.9686 C   0  0  0  0  0  3  0  0  0  0  0  0
    0.3559    1.2363   -0.1173 O   0  0  0  0  0  0  0  0  0  0  0  0
    0.3327    2.5843    0.3115 C   0  0  0  0  0  0  0  0  0  0  0  0
   -0.8690    2.8329    1.2119 C   0  0  0  0  0  0  0  0  0  0  0  0
   -0.8728    1.7894    2.3199 C   0  0  0  0  0  0  0  0  0  0  0  0
   -0.7779    0.4888    1.7714 O   0  0  0  0  0  0  0  0  0  0  0  0
    1.2605    0.5334    1.5800 H   0  0  0  0  0  0  0  0  0  0  0  0
    1.2632    2.8130    0.8534 H   0  0  0  0  0  0  0  0  0  0  0  0
    0.3024    3.1987   -0.5872 H   0  0  0  0  0  0  0  0  0  0  0  0
   -0.8274    3.8391    1.6351 H   0  0  0  0  0  0  0  0  0  0  0  0
   -1.7860    2.7439    0.6262 H   0  0  0  0  0  0  0  0  0  0  0  0
   -1.7925    1.8175    2.9027 H   0  0  0  0  0  0  0  0  0  0  0  0
   -0.0272    1.9622    3.0031 H   0  0  0  0  0  0  0  0  0  0  0  0
  1  2  1  0
  1  5  1  0
  1  6  1  0
  1  7  1  0
  2  3  2  3
  2  8  1  0
  3  4  1  0
  4  9  1  0
 10 11  1  0
 10 15  1  0
 10 16  1  0
 11 12  1  0
 12 13  1  0
 12 17  1  0
 12 18  1  0
 13 14  1  0
 13 19  1  0
 13 20  1  0
 14 15  1  0
 14 21  1  0
 14 22  1  0
M  RAD  1  10   2
M  END
>  <reaction>  (16) 
rmg_rxn_47

>  <mol_properties>  (16) 
{"2": {"label": "*4", "atom_type": "N3s"}, "3": {"label": "*3", "atom_type": "O2s"}, "8": {"label": "*2", "atom_type": "H0"}, "9": {"label": "*1", "atom_type": "Cs"}, "10": {"label": "*0", "atom_type": "O2s"}}

>  <type>  (16) 
unop_12

>  <geom_source>  (16) 
Heuristics

$$$$

     RDKit          3D

 22 21  0  0  0  0  0  0  0  0999 V2000
   -1.3181   -0.9613   -0.5167 O   0  0  0  0  0  0  0  0  0  0  0  0
   -1.8207    0.6219    1.2131 O   0  0  0  0  0  0  0  0  0  0  0  0
    1.4181    0.4472    0.0464 O   0  0  0  0  0  0  0  0  0  0  0  0
    2.7531    0.7767    0.0268 N   0  0  0  0  0  0  0  0  0  0  0  0
   -3.5027    0.0418   -0.4088 C   0  0  0  0  0  0  0  0  0  0  0  0
   -2.2425   -0.1849   -1.2458 C   0  0  0  0  0  0  0  0  0  0  0  0
   -3.1143    0.0777    1.0705 C   0  0  0  0  0  0  0  0  0  0  0  0
   -0.8508   -0.2342    0.6153 C   0  0  0  0  0  3  0  0  0  0  0  0
    5.0997    0.2244   -0.0884 C   0  0  0  0  0  0  0  0  0  0  0  0
    3.6556   -0.1444   -0.0681 C   0  0  0  0  0  0  0  0  0  0  0  0
   -3.9761    1.0027   -0.7062 H   0  0  0  0  0  0  0  0  0  0  0  0
   -4.2317   -0.7802   -0.5790 H   0  0  0  0  0  0  0  0  0  0  0  0
   -1.7884    0.7888   -1.5435 H   0  0  0  0  0  0  0  0  0  0  0  0
   -2.5115   -0.7230   -2.1792 H   0  0  0  0  0  0  0  0  0  0  0  0
   -3.1593   -0.9445    1.5128 H   0  0  0  0  0  0  0  0  0  0  0  0
   -3.8377    0.7108    1.6264 H   0  0  0  0  0  0  0  0  0  0  0  0
   -0.4917   -0.9574    1.3777 H   0  0  0  0  0  0  0  0  0  0  0  0
    0.1593    0.4774    0.2608 H   0  0  0  0  0  0  0  0  0  0  0  0
    5.3654    0.7551    0.8499 H   0  0  0  0  0  0  0  0  0  0  0  0
    5.7206   -0.6918   -0.1738 H   0  0  0  0  0  0  0  0  0  0  0  0
    5.3071    0.8842   -0.9569 H   0  0  0  0  0  0  0  0  0  0  0  0
    3.3667   -1.1868   -0.1333 H   0  0  0  0  0  0  0  0  0  0  0  0
  1  6  1  0
  1  8  1  0
  2  7  1  0
  2  8  1  0
  3  4  1  0
  3 18  1  0
  4 10  2  3
  5  6  1  0
  5  7  1  0
  5 11  1  0
  5 12  1  0
  6 13  1  0
  6 14  1  0
  7 15  1  0
  7 16  1  0
  8 17  1  0
  9 10  1  0
  9 19  1  0
  9 20  1  0
  9 21  1  0
 10 22  1  0
M  RAD  1   8   2
M  END
>  <reaction>  (17) 
rmg_rxn_47

>  <mol_properties>  (17) 
{"2": {"label": "*4", "atom_type": "N3s"}, "3": {"label": "*3", "atom_type": "O2s"}, "8": {"label": "*2", "atom_type": "H0"}, "9": {"label": "*1", "atom_type": "Cs"}, "10": {"label": "*0", "atom_type": "O2s"}}

>  <type>  (17) 
unop_13

>  <geom_source>  (17) 
AutoTST

$$$$

     RDKit          3D

 22 21  0  0  0  0  0  0  0  0999 V2000
    0.5762   -2.5905   -3.6188 C   0  0  0  0  0  0  0  0  0  0  0  0
    0.5762   -2.5905   -2.1301 C   0  0  0  0  0  0  0  0  0  0  0  0
    0.5762   -1.4984   -1.4933 N   0  0  0  0  0  0  0  0  0  0  0  0
    0.5762   -1.7031   -0.1202 O   0  0  0  0  0  0  0  0  0  0  0  0
    1.4556   -3.1143   -4.0006 H   0  0  0  0  0  0  0  0  0  0  0  0
   -0.3032   -3.1143   -4.0006 H   0  0  0  0  0  0  0  0  0  0  0  0
    0.5762   -1.5708   -4.0002 H   0  0  0  0  0  0  0  0  0  0  0  0
    0.5762   -3.5380   -1.5900 H   0  0  0  0  0  0  0  0  0  0  0  0
    0.5762   -0.6334    0.3032 H   0  0  0  0  0  0  0  0  0  0  0  0
    0.5762    0.5803    0.7836 C   0  0  0  0  0  3  0  0  0  0  0  0
   -0.0898    1.3905   -0.1364 O   0  0  0  0  0  0  0  0  0  0  0  0
   -0.5288    2.5939    0.4641 C   0  0  0  0  0  0  0  0  0  0  0  0
   -1.4130    2.2940    1.6661 C   0  0  0  0  0  0  0  0  0  0  0  0
   -0.6765    1.3300    2.5854 C   0  0  0  0  0  0  0  0  0  0  0  0
   -0.2287    0.2020    1.8585 O   0  0  0  0  0  0  0  0  0  0  0  0
    1.4688    1.1114    1.1621 H   0  0  0  0  0  0  0  0  0  0  0  0
    0.3438    3.1875    0.7770 H   0  0  0  0  0  0  0  0  0  0  0  0
   -1.0619    3.1516   -0.3047 H   0  0  0  0  0  0  0  0  0  0  0  0
   -1.6598    3.2156    2.1980 H   0  0  0  0  0  0  0  0  0  0  0  0
   -2.3428    1.8333    1.3269 H   0  0  0  0  0  0  0  0  0  0  0  0
   -1.3185    0.9554    3.3814 H   0  0  0  0  0  0  0  0  0  0  0  0
    0.1858    1.8348    3.0476 H   0  0  0  0  0  0  0  0  0  0  0  0
  1  2  1  0
  1  5  1  0
  1  6  1  0
  1  7  1  0
  2  3  2  3
  2  8  1  0
  3  4  1  0
  4  9  1  0
 10 11  1  0
 10 15  1  0
 10 16  1  0
 11 12  1  0
 12 13  1  0
 12 17  1  0
 12 18  1  0
 13 14  1  0
 13 19  1  0
 13 20  1  0
 14 15  1  0
 14 21  1  0
 14 22  1  0
M  RAD  1  10   2
M  END
>  <reaction>  (18) 
rmg_rxn_47

>  <mol_properties>  (18) 
{"2": {"label": "*4", "atom_type": "N3s"}, "3": {"label": "*3", "atom_type": "O2s"}, "8": {"label": "*2", "atom_type": "H0"}, "9": {"label": "*1", "atom_type": "Cs"}, "10": {"label": "*0", "atom_type": "O2s"}}

>  <type>  (18) 
unop_14

>  <geom_source>  (18) 
gaussian_log

$$$$
