
     RDKit          3D

  9  8  0  0  0  0  0  0  0  0999 V2000
    1.1890   -0.2426   -0.0202 C   0  0  0  0  0  0  0  0  0  0  0  0
   -0.0825    0.5777    0.0465 C   0  0  0  0  0  0  0  0  0  0  0  0
   -1.2134   -0.2664   -0.1128 O   0  0  0  0  0  0  0  0  0  0  0  0
    1.2515   -0.7796   -0.9723 H   0  0  0  0  0  0  0  0  0  0  0  0
    2.0707    0.3958    0.0844 H   0  0  0  0  0  0  0  0  0  0  0  0
    1.2046   -0.9975    0.7728 H   0  0  0  0  0  0  0  0  0  0  0  0
   -0.0988    1.3243   -0.7528 H   0  0  0  0  0  0  0  0  0  0  0  0
   -0.1645    1.0974    1.0059 H   0  0  0  0  0  0  0  0  0  0  0  0
   -1.1953   -0.9198    0.6071 H   0  0  0  0  0  0  0  0  0  0  0  0
  1  2  1  0
  1  4  1  0
  1  5  1  0
  1  6  1  0
  2  3  1  0
  2  7  1  0
  2  8  1  0
  3  9  1  0
M  END
>  <reaction>  (1) 
rmg_rxn_1153

>  <mol_properties>  (1) 
{"2": {"label": "donator", "atom_type": "O2s"}, "8": {"label": "d_hydrogen", "atom_type": "H0"}}

>  <type>  (1) 
r1h

$$$$

     RDKit          3D

  1  0  0  0  0  0  0  0  0  0999 V2000
    0.0000    0.0000    0.0000 O   0  0  0  0  0 15  0  0  0  0  0  0
M  END
>  <reaction>  (2) 
rmg_rxn_1153

>  <mol_properties>  (2) 
{"0": {"label": "acceptor", "atom_type": "O2s"}}

>  <type>  (2) 
r2

$$$$

     RDKit          3D

  2  1  0  0  0  0  0  0  0  0999 V2000
    0.0000    0.0000    0.1079 O   0  0  0  0  0  1  0  0  0  0  0  0
    0.0000    0.0000   -0.8631 H   0  0  0  0  0  0  0  0  0  0  0  0
  1  2  1  0
M  RAD  1   1   2
M  END
>  <reaction>  (3) 
rmg_rxn_1153

>  <mol_properties>  (3) 
{"0": {"label": "acceptor", "atom_type": "O2s"}, "1": {"label": "a_hydrogen", "atom_type": "H0"}}

>  <type>  (3) 
r2h

$$$$

     RDKit          3D

 10  8  0  0  0  0  0  0  0  0999 V2000
    1.9971    0.5154    0.1183 O   0  0  0  0  0  1  0  0  0  0  0  0
   -1.2549    0.8660   -0.1395 C   0  0  0  0  0  0  0  0  0  0  0  0
   -0.8881   -0.5240    0.3374 C   0  0  0  0  0  0  0  0  0  0  0  0
    0.2700   -0.9814   -0.3457 O   0  0  0  0  0  1  0  0  0  0  0  0
   -1.4300    0.8688   -1.2203 H   0  0  0  0  0  0  0  0  0  0  0  0
   -2.1554    1.2264    0.3656 H   0  0  0  0  0  0  0  0  0  0  0  0
   -0.4379    1.5692    0.0526 H   0  0  0  0  0  0  0  0  0  0  0  0
   -1.7027   -1.2255    0.1353 H   0  0  0  0  0  0  0  0  0  0  0  0
   -0.6866   -0.5297    1.4128 H   0  0  0  0  0  0  0  0  0  0  0  0
    1.1342   -0.2325   -0.1136 H   0  0  0  0  0  0  0  0  0  0  0  0
  1 10  1  0
  2  3  1  0
  2  5  1  0
  2  6  1  0
  2  7  1  0
  3  4  1  0
  3  8  1  0
  3  9  1  0
M  RAD  2   1   2   4   2
M  END
>  <reaction>  (4) 
rmg_rxn_1153

>  <mol_properties>  (4) 
{"0": {"label": "*1", "atom_type": "O2s"}, "2": {"label": "*4", "atom_type": "Cs"}, "3": {"label": "*3", "atom_type": "O2s"}, "9": {"label": "*2", "atom_type": "H0"}}

>  <type>  (4) 
ts

$$$$

     RDKit          3D

 10  8  0  0  0  0  0  0  0  0999 V2000
   -1.4117    1.4059    0.0062 O   0  0  0  0  0  1  0  0  0  0  0  0
    0.5112   -0.9711   -1.1844 C   0  0  0  0  0  0  0  0  0  0  0  0
    0.5112   -0.9711    0.3302 C   0  0  0  0  0  0  0  0  0  0  0  0
    0.5112    0.3636    0.8154 O   0  0  0  0  0  1  0  0  0  0  0  0
    1.3821   -0.4307   -1.5697 H   0  0  0  0  0  0  0  0  0  0  0  0
    0.5279   -1.9926   -1.5743 H   0  0  0  0  0  0  0  0  0  0  0  0
   -0.3769   -0.4608   -1.5715 H   0  0  0  0  0  0  0  0  0  0  0  0
    1.4045   -1.4732    0.7130 H   0  0  0  0  0  0  0  0  0  0  0  0
   -0.3700   -1.4875    0.7227 H   0  0  0  0  0  0  0  0  0  0  0  0
   -0.4509    0.8852    0.4105 H   0  0  0  0  0  0  0  0  0  0  0  0
  1 10  1  0
  2  3  1  0
  2  5  1  0
  2  6  1  0
  2  7  1  0
  3  4  1  0
  3  8  1  0
  3  9  1  0
M  RAD  2   1   2   4   2
M  END
>  <reaction>  (5) 
rmg_rxn_1153

>  <mol_properties>  (5) 
{"0": {"label": "*1", "atom_type": "O2s"}, "2": {"label": "*4", "atom_type": "Cs"}, "3": {"label": "*3", "atom_type": "O2s"}, "9": {"label": "*2", "atom_type": "H0"}}

>  <type>  (5) 
unop_1

>  <geom_source>  (5) 
Heuristics

$$$$

     RDKit          3D

 10  8  0  0  0  0  0  0  0  0999 V2000
    1.0571    0.0325   -0.2479 O   0  0  0  0  0  0  0  0  0  0  0  0
    3.1442   -0.1623   -0.9009 O   0  0  0  0  0 15  0  0  0  0  0  0
   -0.0630   -0.2246    0.5433 C   0  0  0  0  0  0  0  0  0  0  0  0
   -1.3247    0.1886   -0.1981 C   0  0  0  0  0  0  0  0  0  0  0  0
    0.0193    0.3477    1.4912 H   0  0  0  0  0  0  0  0  0  0  0  0
   -0.1042   -1.3091    0.7780 H   0  0  0  0  0  0  0  0  0  0  0  0
   -2.2144   -0.0171    0.4338 H   0  0  0  0  0  0  0  0  0  0  0  0
   -1.2911    1.2742   -0.4305 H   0  0  0  0  0  0  0  0  0  0  0  0
   -1.4148   -0.3852   -1.1448 H   0  0  0  0  0  0  0  0  0  0  0  0
    2.1915    0.2555   -0.3243 H   0  0  0  0  0  0  0  0  0  0  0  0
  1  3  1  0
  1 10  1  0
  3  4  1  0
  3  5  1  0
  3  6  1  0
  4  7  1  0
  4  8  1  0
  4  9  1  0
M  END
>  <reaction>  (6) 
rmg_rxn_1153

>  <mol_properties>  (6) 
{"0": {"label": "*1", "atom_type": "O2s"}, "2": {"label": "*4", "atom_type": "Cs"}, "3": {"label": "*3", "atom_type": "O2s"}, "9": {"label": "*2", "atom_type": "H0"}}

>  <type>  (6) 
unop_2

>  <geom_source>  (6) 
AutoTST

$$$$

     RDKit          3D

 10  8  0  0  0  0  0  0  0  0999 V2000
    1.2599    0.1044    0.4454 O   0  0  0  0  0  1  0  0  0  0  0  0
    2.4438   -0.9863   -1.0709 O   0  0  0  0  0  1  0  0  0  0  0  0
    0.0180    0.7107    0.2256 C   0  0  0  0  0  0  0  0  0  0  0  0
   -1.0803   -0.3427    0.1747 C   0  0  0  0  0  0  0  0  0  0  0  0
    0.0358    1.2871   -0.7255 H   0  0  0  0  0  0  0  0  0  0  0  0
   -0.1897    1.4162    1.0574 H   0  0  0  0  0  0  0  0  0  0  0  0
   -2.0641    0.1497    0.0248 H   0  0  0  0  0  0  0  0  0  0  0  0
   -0.8981   -1.0444   -0.6666 H   0  0  0  0  0  0  0  0  0  0  0  0
   -1.1043   -0.9131    1.1275 H   0  0  0  0  0  0  0  0  0  0  0  0
    1.5789   -0.3815   -0.5923 H   0  0  0  0  0  0  0  0  0  0  0  0
  1  3  1  0
  2 10  1  0
  3  4  1  0
  3  5  1  0
  3  6  1  0
  4  7  1  0
  4  8  1  0
  4  9  1  0
M  RAD  2   1   2   2   2
M  END
>  <reaction>  (7) 
rmg_rxn_1153

>  <mol_properties>  (7) 
{"0": {"label": "*1", "atom_type": "O2s"}, "2": {"label": "*4", "atom_type": "Cs"}, "3": {"label": "*3", "atom_type": "O2s"}, "9": {"label": "*2", "atom_type": "H0"}}

>  <type>  (7) 
unop_3

>  <geom_source>  (7) 
gaussian_log

$$$$
