
     RDKit          3D

  8  7  0  0  0  0  0  0  0  0999 V2000
    0.9548    0.1194   -0.0790 C   0  0  0  0  0  0  0  0  0  0  0  0
   -0.4838   -0.2649    0.0193 C   0  0  0  0  0  0  0  0  0  0  0  0
   -0.8933   -1.1081    0.8664 N   0  0  0  0  0  0  0  0  0  0  0  0
    1.3360   -0.0983   -1.0800 H   0  0  0  0  0  0  0  0  0  0  0  0
    1.0698    1.1948    0.0786 H   0  0  0  0  0  0  0  0  0  0  0  0
    1.5426   -0.4219    0.6602 H   0  0  0  0  0  0  0  0  0  0  0  0
   -1.1575    0.2324   -0.6905 H   0  0  0  0  0  0  0  0  0  0  0  0
   -1.8989   -1.2455    0.7886 H   0  0  0  0  0  0  0  0  0  0  0  0
  1  2  1  0
  1  4  1  0
  1  5  1  0
  1  6  1  0
  2  3  2  3
  2  7  1  0
  3  8  1  0
M  END
>  <reaction>  (1) 
rmg_rxn_16529

>  <mol_properties>  (1) 
{"2": {"label": "donator", "atom_type": "N3d"}, "7": {"label": "d_hydrogen", "atom_type": "H0"}}

>  <type>  (1) 
r1h

$$$$

     RDKit          3D

 14 13  0  0  0  0  0  0  0  0999 V2000
    2.6694    0.2813   -0.6046 C   0  0  0  0  0  3  0  0  0  0  0  0
    1.5626   -0.5075   -0.0103 C   0  0  0  0  0  0  0  0  0  0  0  0
    0.5522   -0.8487   -0.9278 O   0  0  0  0  0  0  0  0  0  0  0  0
    0.9505   -1.8204   -1.8682 C   0  0  0  0  0  0  0  0  0  0  0  0
   -0.2101   -2.1029   -2.7930 C   0  0  0  0  0  0  0  0  0  0  0  0
    2.4666    0.9443   -1.4355 H   0  0  0  0  0  0  0  0  0  0  0  0
    3.6339    0.3312   -0.1179 H   0  0  0  0  0  0  0  0  0  0  0  0
    1.0573    0.0741    0.7733 H   0  0  0  0  0  0  0  0  0  0  0  0
    1.9580   -1.4106    0.4809 H   0  0  0  0  0  0  0  0  0  0  0  0
    1.8195   -1.4649   -2.4379 H   0  0  0  0  0  0  0  0  0  0  0  0
    1.2587   -2.7372   -1.3440 H   0  0  0  0  0  0  0  0  0  0  0  0
   -0.5051   -1.1971   -3.3238 H   0  0  0  0  0  0  0  0  0  0  0  0
    0.0686   -2.8601   -3.5276 H   0  0  0  0  0  0  0  0  0  0  0  0
   -1.0699   -2.4661   -2.2289 H   0  0  0  0  0  0  0  0  0  0  0  0
  1  2  1  0
  1  6  1  0
  1  7  1  0
  2  3  1  0
  2  8  1  0
  2  9  1  0
  3  4  1  0
  4  5  1  0
  4 10  1  0
  4 11  1  0
  5 12  1  0
  5 13  1  0
  5 14  1  0
M  RAD  1   1   2
M  END
>  <reaction>  (2) 
rmg_rxn_16529

>  <mol_properties>  (2) 
{"0": {"label": "acceptor", "atom_type": "Cs"}}

>  <type>  (2) 
r2

$$$$

     RDKit          3D

 15 14  0  0  0  0  0  0  0  0999 V2000
    2.4145    0.0817    0.4065 C   0  0  0  0  0  0  0  0  0  0  0  0
    1.1257   -0.2220   -0.3219 C   0  0  0  0  0  0  0  0  0  0  0  0
    1.0983   -1.5879   -0.6512 O   0  0  0  0  0  0  0  0  0  0  0  0
   -0.0685   -1.9694   -1.3352 C   0  0  0  0  0  0  0  0  0  0  0  0
    0.0024   -3.4478   -1.6403 C   0  0  0  0  0  0  0  0  0  0  0  0
    3.2736   -0.1534   -0.2229 H   0  0  0  0  0  0  0  0  0  0  0  0
    2.4581    1.1389    0.6728 H   0  0  0  0  0  0  0  0  0  0  0  0
    2.4855   -0.5095    1.3201 H   0  0  0  0  0  0  0  0  0  0  0  0
    0.2597    0.0294    0.3083 H   0  0  0  0  0  0  0  0  0  0  0  0
    1.0482    0.3858   -1.2356 H   0  0  0  0  0  0  0  0  0  0  0  0
   -0.9535   -1.7457   -0.7211 H   0  0  0  0  0  0  0  0  0  0  0  0
   -0.1650   -1.3894   -2.2650 H   0  0  0  0  0  0  0  0  0  0  0  0
    0.0831   -4.0247   -0.7183 H   0  0  0  0  0  0  0  0  0  0  0  0
   -0.8950   -3.7674   -2.1724 H   0  0  0  0  0  0  0  0  0  0  0  0
    0.8712   -3.6686   -2.2613 H   0  0  0  0  0  0  0  0  0  0  0  0
  1  2  1  0
  1  6  1  0
  1  7  1  0
  1  8  1  0
  2  3  1  0
  2  9  1  0
  2 10  1  0
  3  4  1  0
  4  5  1  0
  4 11  1  0
  4 12  1  0
  5 13  1  0
  5 14  1  0
  5 15  1  0
M  END
>  <reaction>  (3) 
rmg_rxn_16529

>  <mol_properties>  (3) 
{"0": {"label": "a_hydrogen", "atom_type": "H0"}, "1": {"label": "acceptor", "atom_type": "Cs"}}

>  <type>  (3) 
r2h

$$$$

     RDKit          3D

 22 20  0  0  0  0  0  0  0  0999 V2000
   -3.1973   -1.2386   -0.2649 C   0  0  0  0  0  0  0  0  0  0  0  0
   -2.0283   -0.3248   -0.0561 C   0  0  0  0  0  0  0  0  0  0  0  0
   -2.1700    0.8290    0.4256 N   0  0  0  0  0  0  0  0  0  0  0  0
   -3.0516   -2.1628    0.2995 H   0  0  0  0  0  0  0  0  0  0  0  0
   -4.1233   -0.7618    0.0514 H   0  0  0  0  0  0  0  0  0  0  0  0
   -3.2697   -1.5131   -1.3199 H   0  0  0  0  0  0  0  0  0  0  0  0
   -1.0439   -0.7102   -0.3452 H   0  0  0  0  0  0  0  0  0  0  0  0
   -1.0966    1.3663    0.4885 H   0  0  0  0  0  0  0  0  0  0  0  0
    0.1930    1.9214    0.4904 C   0  0  0  0  0  3  0  0  0  0  0  0
    0.9783    1.3671   -0.6624 C   0  0  0  0  0  0  0  0  0  0  0  0
    1.2118   -0.0230   -0.5901 O   0  0  0  0  0  0  0  0  0  0  0  0
    2.1927   -0.4064    0.3455 C   0  0  0  0  0  0  0  0  0  0  0  0
    2.3951   -1.9005    0.2437 C   0  0  0  0  0  0  0  0  0  0  0  0
    0.5628    1.6799    1.4844 H   0  0  0  0  0  0  0  0  0  0  0  0
   -0.0538    2.9762    0.3869 H   0  0  0  0  0  0  0  0  0  0  0  0
    1.9416    1.8960   -0.7570 H   0  0  0  0  0  0  0  0  0  0  0  0
    0.4337    1.5294   -1.5953 H   0  0  0  0  0  0  0  0  0  0  0  0
    3.1312    0.1258    0.1336 H   0  0  0  0  0  0  0  0  0  0  0  0
    1.8873   -0.1375    1.3645 H   0  0  0  0  0  0  0  0  0  0  0  0
    1.4681   -2.4285    0.4714 H   0  0  0  0  0  0  0  0  0  0  0  0
    2.7105   -2.1764   -0.7630 H   0  0  0  0  0  0  0  0  0  0  0  0
    3.1596   -2.2270    0.9503 H   0  0  0  0  0  0  0  0  0  0  0  0
  1  2  1  0
  1  4  1  0
  1  5  1  0
  1  6  1  0
  2  3  2  3
  2  7  1  0
  3  8  1  0
  9 10  1  0
  9 14  1  0
  9 15  1  0
 10 11  1  0
 10 16  1  0
 10 17  1  0
 11 12  1  0
 12 13  1  0
 12 18  1  0
 12 19  1  0
 13 20  1  0
 13 21  1  0
 13 22  1  0
M  RAD  1   9   2
M  END
>  <reaction>  (4) 
rmg_rxn_16529

>  <mol_properties>  (4) 
{"1": {"label": "*0", "atom_type": "Cd"}, "2": {"label": "*1", "atom_type": "N3d"}, "7": {"label": "*2", "atom_type": "H0"}, "8": {"label": "*3", "atom_type": "Cs"}, "9": {"label": "*4", "atom_type": "Cs"}}

>  <type>  (4) 
ts

$$$$

     RDKit          3D

 22 20  0  0  0  0  0  0  0  0999 V2000
   -3.1547   -1.2770   -0.2106 C   0  0  0  0  0  0  0  0  0  0  0  0
   -1.9754   -0.3531   -0.1337 C   0  0  0  0  0  0  0  0  0  0  0  0
   -1.9729    0.6643    0.5738 N   0  0  0  0  0  0  0  0  0  0  0  0
   -2.8511   -2.2740    0.1041 H   0  0  0  0  0  0  0  0  0  0  0  0
   -3.9600   -0.9198    0.4252 H   0  0  0  0  0  0  0  0  0  0  0  0
   -3.4979   -1.3344   -1.2423 H   0  0  0  0  0  0  0  0  0  0  0  0
   -1.1260   -0.6644   -0.7543 H   0  0  0  0  0  0  0  0  0  0  0  0
   -0.9115    1.3390    0.5280 H   0  0  0  0  0  0  0  0  0  0  0  0
    0.1980    1.9881    0.4376 C   0  0  0  0  0  3  0  0  0  0  0  0
    1.0144    1.3992   -0.6883 C   0  0  0  0  0  0  0  0  0  0  0  0
    1.2108    0.0028   -0.6122 O   0  0  0  0  0  0  0  0  0  0  0  0
    2.0546   -0.4259    0.4357 C   0  0  0  0  0  0  0  0  0  0  0  0
    2.3397   -1.9073    0.2440 C   0  0  0  0  0  0  0  0  0  0  0  0
    0.6619    1.8908    1.4125 H   0  0  0  0  0  0  0  0  0  0  0  0
   -0.0864    3.0136    0.2367 H   0  0  0  0  0  0  0  0  0  0  0  0
    1.9992    1.9025   -0.7421 H   0  0  0  0  0  0  0  0  0  0  0  0
    0.5025    1.5540   -1.6431 H   0  0  0  0  0  0  0  0  0  0  0  0
    2.9933    0.1505    0.4143 H   0  0  0  0  0  0  0  0  0  0  0  0
    1.5733   -0.2627    1.4105 H   0  0  0  0  0  0  0  0  0  0  0  0
    1.4097   -2.4685    0.2741 H   0  0  0  0  0  0  0  0  0  0  0  0
    2.8123   -2.0730   -0.7203 H   0  0  0  0  0  0  0  0  0  0  0  0
    2.9970   -2.2640    1.0320 H   0  0  0  0  0  0  0  0  0  0  0  0
  1  2  1  0
  1  4  1  0
  1  5  1  0
  1  6  1  0
  2  3  2  3
  2  7  1  0
  3  8  1  0
  9 10  1  0
  9 14  1  0
  9 15  1  0
 10 11  1  0
 10 16  1  0
 10 17  1  0
 11 12  1  0
 12 13  1  0
 12 18  1  0
 12 19  1  0
 13 20  1  0
 13 21  1  0
 13 22  1  0
M  RAD  1   9   2
M  END
>  <reaction>  (5) 
rmg_rxn_16529

>  <mol_properties>  (5) 
{"1": {"label": "*0", "atom_type": "Cd"}, "2": {"label": "*1", "atom_type": "N3d"}, "7": {"label": "*2", "atom_type": "H0"}, "8": {"label": "*3", "atom_type": "Cs"}, "9": {"label": "*4", "atom_type": "Cs"}}

>  <type>  (5) 
unop_1

>  <geom_source>  (5) 
crest_best.xyz

$$$$

     RDKit          3D

 22 20  0  0  0  0  0  0  0  0999 V2000
   -1.4148   -0.3917   -3.9564 C   0  0  0  0  0  0  0  0  0  0  0  0
   -1.4148   -0.3917   -2.4640 C   0  0  0  0  0  0  0  0  0  0  0  0
   -1.4148    0.6810   -1.7963 N   0  0  0  0  0  0  0  0  0  0  0  0
   -0.5365   -0.9216   -4.3338 H   0  0  0  0  0  0  0  0  0  0  0  0
   -2.2930   -0.9216   -4.3338 H   0  0  0  0  0  0  0  0  0  0  0  0
   -1.4148    0.6290   -4.3350 H   0  0  0  0  0  0  0  0  0  0  0  0
   -1.4148   -1.3813   -1.9894 H   0  0  0  0  0  0  0  0  0  0  0  0
   -1.4148    0.4508   -0.5968 H   0  0  0  0  0  0  0  0  0  0  0  0
   -1.4148    0.2042    0.6884 C   0  0  0  0  0  3  0  0  0  0  0  0
   -0.1890    0.7994    1.3418 C   0  0  0  0  0  0  0  0  0  0  0  0
    0.7704   -0.2120    1.5194 O   0  0  0  0  0  0  0  0  0  0  0  0
    1.9533    0.2466    2.1237 C   0  0  0  0  0  0  0  0  0  0  0  0
    2.9123   -0.9124    2.2678 C   0  0  0  0  0  0  0  0  0  0  0  0
   -1.8357   -0.5845    1.3130 H   0  0  0  0  0  0  0  0  0  0  0  0
   -2.1750    0.9727    0.5403 H   0  0  0  0  0  0  0  0  0  0  0  0
   -0.4493    1.2444    2.3136 H   0  0  0  0  0  0  0  0  0  0  0  0
    0.2261    1.6049    0.7180 H   0  0  0  0  0  0  0  0  0  0  0  0
    2.4025    1.0433    1.5123 H   0  0  0  0  0  0  0  0  0  0  0  0
    1.7270    0.6829    3.1080 H   0  0  0  0  0  0  0  0  0  0  0  0
    3.1488   -1.3362    1.2913 H   0  0  0  0  0  0  0  0  0  0  0  0
    3.8401   -0.5794    2.7357 H   0  0  0  0  0  0  0  0  0  0  0  0
    2.4738   -1.6965    2.8860 H   0  0  0  0  0  0  0  0  0  0  0  0
  1  2  1  0
  1  4  1  0
  1  5  1  0
  1  6  1  0
  2  3  2  3
  2  7  1  0
  3  8  1  0
  9 10  1  0
  9 14  1  0
  9 15  1  0
 10 11  1  0
 10 16  1  0
 10 17  1  0
 11 12  1  0
 12 13  1  0
 12 18  1  0
 12 19  1  0
 13 20  1  0
 13 21  1  0
 13 22  1  0
M  RAD  1   9   2
M  END
>  <reaction>  (6) 
rmg_rxn_16529

>  <mol_properties>  (6) 
{"1": {"label": "*0", "atom_type": "Cd"}, "2": {"label": "*1", "atom_type": "N3d"}, "7": {"label": "*2", "atom_type": "H0"}, "8": {"label": "*3", "atom_type": "Cs"}, "9": {"label": "*4", "atom_type": "Cs"}}

>  <type>  (6) 
unop_2

>  <geom_source>  (6) 
Heuristics

$$$$

     RDKit          3D

 22 20  0  0  0  0  0  0  0  0999 V2000
   -0.0498    1.0294   -3.4295 C   0  0  0  0  0  0  0  0  0  0  0  0
   -0.0498    1.0294   -1.9372 C   0  0  0  0  0  0  0  0  0  0  0  0
   -0.0498    2.1021   -1.2695 N   0  0  0  0  0  0  0  0  0  0  0  0
    0.8285    0.4994   -3.8069 H   0  0  0  0  0  0  0  0  0  0  0  0
   -0.9280    0.4994   -3.8069 H   0  0  0  0  0  0  0  0  0  0  0  0
   -0.0498    2.0500   -3.8081 H   0  0  0  0  0  0  0  0  0  0  0  0
   -0.0498    0.0397   -1.4625 H   0  0  0  0  0  0  0  0  0  0  0  0
   -0.0498    1.8719   -0.0699 H   0  0  0  0  0  0  0  0  0  0  0  0
   -0.0498    1.6253    1.2153 C   0  0  0  0  0  3  0  0  0  0  0  0
    0.6579    0.3217    1.5043 C   0  0  0  0  0  0  0  0  0  0  0  0
   -0.2065   -0.7441    1.2010 O   0  0  0  0  0  0  0  0  0  0  0  0
    0.3653   -2.0057    1.4384 C   0  0  0  0  0  0  0  0  0  0  0  0
   -0.6407   -3.0755    1.0822 C   0  0  0  0  0  0  0  0  0  0  0  0
   -0.9530    1.7120    1.8203 H   0  0  0  0  0  0  0  0  0  0  0  0
    0.6035    2.4688    1.4438 H   0  0  0  0  0  0  0  0  0  0  0  0
    0.9569    0.2730    2.5619 H   0  0  0  0  0  0  0  0  0  0  0  0
    1.5766    0.2420    0.9044 H   0  0  0  0  0  0  0  0  0  0  0  0
    1.2794   -2.1224    0.8375 H   0  0  0  0  0  0  0  0  0  0  0  0
    0.6596   -2.0914    2.4949 H   0  0  0  0  0  0  0  0  0  0  0  0
   -0.9221   -3.0007    0.0312 H   0  0  0  0  0  0  0  0  0  0  0  0
   -0.2180   -4.0658    1.2588 H   0  0  0  0  0  0  0  0  0  0  0  0
   -1.5415   -2.9698    1.6877 H   0  0  0  0  0  0  0  0  0  0  0  0
  1  2  1  0
  1  4  1  0
  1  5  1  0
  1  6  1  0
  2  3  2  3
  2  7  1  0
  3  8  1  0
  9 10  1  0
  9 14  1  0
  9 15  1  0
 10 11  1  0
 10 16  1  0
 10 17  1  0
 11 12  1  0
 12 13  1  0
 12 18  1  0
 12 19  1  0
 13 20  1  0
 13 21  1  0
 13 22  1  0
M  RAD  1   9   2
M  END
>  <reaction>  (7) 
rmg_rxn_16529

>  <mol_properties>  (7) 
{"1": {"label": "*0", "atom_type": "Cd"}, "2": {"label": "*1", "atom_type": "N3d"}, "7": {"label": "*2", "atom_type": "H0"}, "8": {"label": "*3", "atom_type": "Cs"}, "9": {"label": "*4", "atom_type": "Cs"}}

>  <type>  (7) 
unop_3

>  <geom_source>  (7) 
Heuristics

$$$$

     RDKit          3D

 22 20  0  0  0  0  0  0  0  0999 V2000
   -1.2586   -1.1462   -3.9699 C   0  0  0  0  0  0  0  0  0  0  0  0
   -1.2586   -1.1462   -2.4775 C   0  0  0  0  0  0  0  0  0  0  0  0
   -1.2586   -0.0736   -1.8098 N   0  0  0  0  0  0  0  0  0  0  0  0
   -0.3803   -1.6762   -4.3473 H   0  0  0  0  0  0  0  0  0  0  0  0
   -2.1368   -1.6762   -4.3473 H   0  0  0  0  0  0  0  0  0  0  0  0
   -1.2586   -0.1256   -4.3484 H   0  0  0  0  0  0  0  0  0  0  0  0
   -1.2586   -2.1359   -2.0029 H   0  0  0  0  0  0  0  0  0  0  0  0
   -1.2586   -0.3037   -0.6102 H   0  0  0  0  0  0  0  0  0  0  0  0
   -1.2586   -0.5503    0.6750 C   0  0  0  0  0  3  0  0  0  0  0  0
   -0.5509    0.5537    1.4259 C   0  0  0  0  0  0  0  0  0  0  0  0
    0.8199    0.2520    1.4964 O   0  0  0  0  0  0  0  0  0  0  0  0
    1.5669    1.2261    2.1806 C   0  0  0  0  0  0  0  0  0  0  0  0
    3.0189    0.8077    2.1993 C   0  0  0  0  0  0  0  0  0  0  0  0
   -1.1267   -1.5050    1.1853 H   0  0  0  0  0  0  0  0  0  0  0  0
   -2.3266   -0.3373    0.6075 H   0  0  0  0  0  0  0  0  0  0  0  0
   -0.9652    0.6556    2.4399 H   0  0  0  0  0  0  0  0  0  0  0  0
   -0.6969    1.5187    0.9182 H   0  0  0  0  0  0  0  0  0  0  0  0
    1.4545    2.2017    1.6849 H   0  0  0  0  0  0  0  0  0  0  0  0
    1.1862    1.3387    3.2066 H   0  0  0  0  0  0  0  0  0  0  0  0
    3.4015    0.7100    1.1828 H   0  0  0  0  0  0  0  0  0  0  0  0
    3.6196    1.5505    2.7265 H   0  0  0  0  0  0  0  0  0  0  0  0
    3.1334   -0.1525    2.7035 H   0  0  0  0  0  0  0  0  0  0  0  0
  1  2  1  0
  1  4  1  0
  1  5  1  0
  1  6  1  0
  2  3  2  3
  2  7  1  0
  3  8  1  0
  9 10  1  0
  9 14  1  0
  9 15  1  0
 10 11  1  0
 10 16  1  0
 10 17  1  0
 11 12  1  0
 12 13  1  0
 12 18  1  0
 12 19  1  0
 13 20  1  0
 13 21  1  0
 13 22  1  0
M  RAD  1   9   2
M  END
>  <reaction>  (8) 
rmg_rxn_16529

>  <mol_properties>  (8) 
{"1": {"label": "*0", "atom_type": "Cd"}, "2": {"label": "*1", "atom_type": "N3d"}, "7": {"label": "*2", "atom_type": "H0"}, "8": {"label": "*3", "atom_type": "Cs"}, "9": {"label": "*4", "atom_type": "Cs"}}

>  <type>  (8) 
unop_4

>  <geom_source>  (8) 
Heuristics

$$$$

     RDKit          3D

 22 20  0  0  0  0  0  0  0  0999 V2000
    1.4636   -0.0874   -3.1784 C   0  0  0  0  0  0  0  0  0  0  0  0
    1.4636   -0.0874   -1.6860 C   0  0  0  0  0  0  0  0  0  0  0  0
    1.4636    0.9853   -1.0184 N   0  0  0  0  0  0  0  0  0  0  0  0
    2.3419   -0.6173   -3.5558 H   0  0  0  0  0  0  0  0  0  0  0  0
    0.5854   -0.6173   -3.5558 H   0  0  0  0  0  0  0  0  0  0  0  0
    1.4636    0.9333   -3.5570 H   0  0  0  0  0  0  0  0  0  0  0  0
    1.4636   -1.0770   -1.2114 H   0  0  0  0  0  0  0  0  0  0  0  0
    1.4636    0.7551    0.1812 H   0  0  0  0  0  0  0  0  0  0  0  0
    1.4636    0.5085    1.4664 C   0  0  0  0  0  3  0  0  0  0  0  0
    0.2379   -0.2863    1.8531 C   0  0  0  0  0  0  0  0  0  0  0  0
   -0.8023    0.0140    0.9570 O   0  0  0  0  0  0  0  0  0  0  0  0
   -1.9916   -0.6808    1.2361 C   0  0  0  0  0  0  0  0  0  0  0  0
   -3.0394   -0.2883    0.2204 C   0  0  0  0  0  0  0  0  0  0  0  0
    1.2535    1.5779    1.5053 H   0  0  0  0  0  0  0  0  0  0  0  0
    2.2861    0.2912    2.1498 H   0  0  0  0  0  0  0  0  0  0  0  0
   -0.0701   -0.0422    2.8806 H   0  0  0  0  0  0  0  0  0  0  0  0
    0.4552   -1.3644    1.8279 H   0  0  0  0  0  0  0  0  0  0  0  0
   -1.8096   -1.7652    1.2012 H   0  0  0  0  0  0  0  0  0  0  0  0
   -2.3349   -0.4430    2.2539 H   0  0  0  0  0  0  0  0  0  0  0  0
   -2.7063   -0.5371   -0.7878 H   0  0  0  0  0  0  0  0  0  0  0  0
   -3.9736   -0.8165    0.4176 H   0  0  0  0  0  0  0  0  0  0  0  0
   -3.2312    0.7843    0.2643 H   0  0  0  0  0  0  0  0  0  0  0  0
  1  2  1  0
  1  4  1  0
  1  5  1  0
  1  6  1  0
  2  3  2  3
  2  7  1  0
  3  8  1  0
  9 10  1  0
  9 14  1  0
  9 15  1  0
 10 11  1  0
 10 16  1  0
 10 17  1  0
 11 12  1  0
 12 13  1  0
 12 18  1  0
 12 19  1  0
 13 20  1  0
 13 21  1  0
 13 22  1  0
M  RAD  1   9   2
M  END
>  <reaction>  (9) 
rmg_rxn_16529

>  <mol_properties>  (9) 
{"1": {"label": "*0", "atom_type": "Cd"}, "2": {"label": "*1", "atom_type": "N3d"}, "7": {"label": "*2", "atom_type": "H0"}, "8": {"label": "*3", "atom_type": "Cs"}, "9": {"label": "*4", "atom_type": "Cs"}}

>  <type>  (9) 
unop_5

>  <geom_source>  (9) 
Heuristics

$$$$

     RDKit          3D

 22 20  0  0  0  0  0  0  0  0999 V2000
   -0.6254   -1.8436   -3.7788 C   0  0  0  0  0  0  0  0  0  0  0  0
   -0.6254   -1.8436   -2.2864 C   0  0  0  0  0  0  0  0  0  0  0  0
   -0.6254   -0.7710   -1.6187 N   0  0  0  0  0  0  0  0  0  0  0  0
    0.2528   -2.3736   -4.1562 H   0  0  0  0  0  0  0  0  0  0  0  0
   -1.5037   -2.3736   -4.1562 H   0  0  0  0  0  0  0  0  0  0  0  0
   -0.6254   -0.8230   -4.1573 H   0  0  0  0  0  0  0  0  0  0  0  0
   -0.6254   -2.8333   -1.8118 H   0  0  0  0  0  0  0  0  0  0  0  0
   -0.6254   -1.0012   -0.4191 H   0  0  0  0  0  0  0  0  0  0  0  0
   -0.6254   -1.2478    0.8661 C   0  0  0  0  0  3  0  0  0  0  0  0
   -0.6254    0.0425    1.6527 C   0  0  0  0  0  0  0  0  0  0  0  0
    0.5254    0.7785    1.3226 O   0  0  0  0  0  0  0  0  0  0  0  0
    0.6156    2.0022    2.0077 C   0  0  0  0  0  0  0  0  0  0  0  0
    1.8812    2.7105    1.5830 C   0  0  0  0  0  0  0  0  0  0  0  0
    0.2595   -1.8395    1.1026 H   0  0  0  0  0  0  0  0  0  0  0  0
   -1.5117   -1.8371    1.1065 H   0  0  0  0  0  0  0  0  0  0  0  0
   -0.6404   -0.1659    2.7328 H   0  0  0  0  0  0  0  0  0  0  0  0
   -1.5259    0.6318    1.4245 H   0  0  0  0  0  0  0  0  0  0  0  0
   -0.2652    2.6226    1.7850 H   0  0  0  0  0  0  0  0  0  0  0  0
    0.6203    1.8249    3.0934 H   0  0  0  0  0  0  0  0  0  0  0  0
    1.8710    2.8999    0.5091 H   0  0  0  0  0  0  0  0  0  0  0  0
    1.9728    3.6652    2.1031 H   0  0  0  0  0  0  0  0  0  0  0  0
    2.7560    2.1027    1.8167 H   0  0  0  0  0  0  0  0  0  0  0  0
  1  2  1  0
  1  4  1  0
  1  5  1  0
  1  6  1  0
  2  3  2  3
  2  7  1  0
  3  8  1  0
  9 10  1  0
  9 14  1  0
  9 15  1  0
 10 11  1  0
 10 16  1  0
 10 17  1  0
 11 12  1  0
 12 13  1  0
 12 18  1  0
 12 19  1  0
 13 20  1  0
 13 21  1  0
 13 22  1  0
M  RAD  1   9   2
M  END
>  <reaction>  (10) 
rmg_rxn_16529

>  <mol_properties>  (10) 
{"1": {"label": "*0", "atom_type": "Cd"}, "2": {"label": "*1", "atom_type": "N3d"}, "7": {"label": "*2", "atom_type": "H0"}, "8": {"label": "*3", "atom_type": "Cs"}, "9": {"label": "*4", "atom_type": "Cs"}}

>  <type>  (10) 
unop_6

>  <geom_source>  (10) 
Heuristics

$$$$

     RDKit          3D

 22 20  0  0  0  0  0  0  0  0999 V2000
    1.5039   -0.7883   -3.2749 C   0  0  0  0  0  0  0  0  0  0  0  0
    1.5039   -0.7883   -1.7826 C   0  0  0  0  0  0  0  0  0  0  0  0
    1.5039    0.2844   -1.1149 N   0  0  0  0  0  0  0  0  0  0  0  0
    2.3821   -1.3183   -3.6523 H   0  0  0  0  0  0  0  0  0  0  0  0
    0.6256   -1.3183   -3.6523 H   0  0  0  0  0  0  0  0  0  0  0  0
    1.5039    0.2324   -3.6535 H   0  0  0  0  0  0  0  0  0  0  0  0
    1.5039   -1.7780   -1.3079 H   0  0  0  0  0  0  0  0  0  0  0  0
    1.5039    0.0542    0.0847 H   0  0  0  0  0  0  0  0  0  0  0  0
    1.5039   -0.1924    1.3699 C   0  0  0  0  0  3  0  0  0  0  0  0
    0.0885   -0.2922    1.8899 C   0  0  0  0  0  0  0  0  0  0  0  0
   -0.7745    0.3599    0.9926 O   0  0  0  0  0  0  0  0  0  0  0  0
   -2.1213    0.3209    1.3922 C   0  0  0  0  0  0  0  0  0  0  0  0
   -2.9595    1.0458    0.3648 C   0  0  0  0  0  0  0  0  0  0  0  0
    1.8042    0.8519    1.2774 H   0  0  0  0  0  0  0  0  0  0  0  0
    2.1932   -0.6928    2.0518 H   0  0  0  0  0  0  0  0  0  0  0  0
    0.0117    0.1683    2.8860 H   0  0  0  0  0  0  0  0  0  0  0  0
   -0.2082   -1.3461    1.9969 H   0  0  0  0  0  0  0  0  0  0  0  0
   -2.4531   -0.7233    1.4914 H   0  0  0  0  0  0  0  0  0  0  0  0
   -2.2332    0.7911    2.3805 H   0  0  0  0  0  0  0  0  0  0  0  0
   -2.8608    0.5715   -0.6123 H   0  0  0  0  0  0  0  0  0  0  0  0
   -4.0113    1.0284    0.6545 H   0  0  0  0  0  0  0  0  0  0  0  0
   -2.6410    2.0850    0.2763 H   0  0  0  0  0  0  0  0  0  0  0  0
  1  2  1  0
  1  4  1  0
  1  5  1  0
  1  6  1  0
  2  3  2  3
  2  7  1  0
  3  8  1  0
  9 10  1  0
  9 14  1  0
  9 15  1  0
 10 11  1  0
 10 16  1  0
 10 17  1  0
 11 12  1  0
 12 13  1  0
 12 18  1  0
 12 19  1  0
 13 20  1  0
 13 21  1  0
 13 22  1  0
M  RAD  1   9   2
M  END
>  <reaction>  (11) 
rmg_rxn_16529

>  <mol_properties>  (11) 
{"1": {"label": "*0", "atom_type": "Cd"}, "2": {"label": "*1", "atom_type": "N3d"}, "7": {"label": "*2", "atom_type": "H0"}, "8": {"label": "*3", "atom_type": "Cs"}, "9": {"label": "*4", "atom_type": "Cs"}}

>  <type>  (11) 
unop_7

>  <geom_source>  (11) 
Heuristics

$$$$

     RDKit          3D

 22 20  0  0  0  0  0  0  0  0999 V2000
    1.1736   -1.4899   -3.4083 C   0  0  0  0  0  0  0  0  0  0  0  0
    1.1736   -1.4899   -1.9159 C   0  0  0  0  0  0  0  0  0  0  0  0
    1.1736   -0.4172   -1.2482 N   0  0  0  0  0  0  0  0  0  0  0  0
    2.0519   -2.0198   -3.7857 H   0  0  0  0  0  0  0  0  0  0  0  0
    0.2954   -2.0198   -3.7857 H   0  0  0  0  0  0  0  0  0  0  0  0
    1.1736   -0.4692   -3.7868 H   0  0  0  0  0  0  0  0  0  0  0  0
    1.1736   -2.4795   -1.4413 H   0  0  0  0  0  0  0  0  0  0  0  0
    1.1736   -0.6474   -0.0486 H   0  0  0  0  0  0  0  0  0  0  0  0
    1.1736   -0.8940    1.2366 C   0  0  0  0  0  3  0  0  0  0  0  0
   -0.0521   -0.2987    1.8899 C   0  0  0  0  0  0  0  0  0  0  0  0
   -0.5678    0.7105    1.0589 O   0  0  0  0  0  0  0  0  0  0  0  0
   -1.7160    1.3276    1.5842 C   0  0  0  0  0  0  0  0  0  0  0  0
   -2.1869    2.3909    0.6192 C   0  0  0  0  0  0  0  0  0  0  0  0
    1.9358   -0.1288    1.0856 H   0  0  0  0  0  0  0  0  0  0  0  0
    1.5921   -1.6816    1.8651 H   0  0  0  0  0  0  0  0  0  0  0  0
    0.2024    0.1199    2.8749 H   0  0  0  0  0  0  0  0  0  0  0  0
   -0.8145   -1.0744    2.0552 H   0  0  0  0  0  0  0  0  0  0  0  0
   -2.5047    0.5777    1.7447 H   0  0  0  0  0  0  0  0  0  0  0  0
   -1.4879    1.7720    2.5644 H   0  0  0  0  0  0  0  0  0  0  0  0
   -2.4274    1.9491   -0.3485 H   0  0  0  0  0  0  0  0  0  0  0  0
   -3.0794    2.8847    1.0068 H   0  0  0  0  0  0  0  0  0  0  0  0
   -1.4111    3.1428    0.4707 H   0  0  0  0  0  0  0  0  0  0  0  0
  1  2  1  0
  1  4  1  0
  1  5  1  0
  1  6  1  0
  2  3  2  3
  2  7  1  0
  3  8  1  0
  9 10  1  0
  9 14  1  0
  9 15  1  0
 10 11  1  0
 10 16  1  0
 10 17  1  0
 11 12  1  0
 12 13  1  0
 12 18  1  0
 12 19  1  0
 13 20  1  0
 13 21  1  0
 13 22  1  0
M  RAD  1   9   2
M  END
>  <reaction>  (12) 
rmg_rxn_16529

>  <mol_properties>  (12) 
{"1": {"label": "*0", "atom_type": "Cd"}, "2": {"label": "*1", "atom_type": "N3d"}, "7": {"label": "*2", "atom_type": "H0"}, "8": {"label": "*3", "atom_type": "Cs"}, "9": {"label": "*4", "atom_type": "Cs"}}

>  <type>  (12) 
unop_8

>  <geom_source>  (12) 
Heuristics

$$$$

     RDKit          3D

 22 20  0  0  0  0  0  0  0  0999 V2000
   -1.2268    0.3031   -3.8196 C   0  0  0  0  0  0  0  0  0  0  0  0
   -1.2268    0.3031   -2.3273 C   0  0  0  0  0  0  0  0  0  0  0  0
   -1.2268    1.3758   -1.6596 N   0  0  0  0  0  0  0  0  0  0  0  0
   -0.3486   -0.2269   -4.1970 H   0  0  0  0  0  0  0  0  0  0  0  0
   -2.1051   -0.2269   -4.1970 H   0  0  0  0  0  0  0  0  0  0  0  0
   -1.2268    1.3238   -4.1982 H   0  0  0  0  0  0  0  0  0  0  0  0
   -1.2268   -0.6866   -1.8526 H   0  0  0  0  0  0  0  0  0  0  0  0
   -1.2268    1.1456   -0.4600 H   0  0  0  0  0  0  0  0  0  0  0  0
   -1.2268    0.8990    0.8252 C   0  0  0  0  0  3  0  0  0  0  0  0
    0.1885    0.7992    1.3452 C   0  0  0  0  0  0  0  0  0  0  0  0
    0.5418   -0.5570    1.4502 O   0  0  0  0  0  0  0  0  0  0  0  0
    1.8486   -0.7534    1.9284 C   0  0  0  0  0  0  0  0  0  0  0  0
    2.1262   -2.2370    2.0032 C   0  0  0  0  0  0  0  0  0  0  0  0
   -1.9192    0.3990    1.5034 H   0  0  0  0  0  0  0  0  0  0  0  0
   -1.5236    1.9451    0.7352 H   0  0  0  0  0  0  0  0  0  0  0  0
    0.2720    1.2859    2.3282 H   0  0  0  0  0  0  0  0  0  0  0  0
    0.8842    1.3167    0.6679 H   0  0  0  0  0  0  0  0  0  0  0  0
    2.5706   -0.2606    1.2604 H   0  0  0  0  0  0  0  0  0  0  0  0
    1.9584   -0.2914    2.9207 H   0  0  0  0  0  0  0  0  0  0  0  0
    2.0320   -2.6935    1.0173 H   0  0  0  0  0  0  0  0  0  0  0  0
    3.1374   -2.4143    2.3727 H   0  0  0  0  0  0  0  0  0  0  0  0
    1.4202   -2.7243    2.6766 H   0  0  0  0  0  0  0  0  0  0  0  0
  1  2  1  0
  1  4  1  0
  1  5  1  0
  1  6  1  0
  2  3  2  3
  2  7  1  0
  3  8  1  0
  9 10  1  0
  9 14  1  0
  9 15  1  0
 10 11  1  0
 10 16  1  0
 10 17  1  0
 11 12  1  0
 12 13  1  0
 12 18  1  0
 12 19  1  0
 13 20  1  0
 13 21  1  0
 13 22  1  0
M  RAD  1   9   2
M  END
>  <reaction>  (13) 
rmg_rxn_16529

>  <mol_properties>  (13) 
{"1": {"label": "*0", "atom_type": "Cd"}, "2": {"label": "*1", "atom_type": "N3d"}, "7": {"label": "*2", "atom_type": "H0"}, "8": {"label": "*3", "atom_type": "Cs"}, "9": {"label": "*4", "atom_type": "Cs"}}

>  <type>  (13) 
unop_9

>  <geom_source>  (13) 
Heuristics

$$$$

     RDKit          3D

 22 20  0  0  0  0  0  0  0  0999 V2000
   -3.1547   -1.2770   -0.2106 C   0  0  0  0  0  0  0  0  0  0  0  0
   -1.9754   -0.3531   -0.1337 C   0  0  0  0  0  0  0  0  0  0  0  0
   -1.9729    0.6643    0.5738 N   0  0  0  0  0  0  0  0  0  0  0  0
   -2.8511   -2.2740    0.1041 H   0  0  0  0  0  0  0  0  0  0  0  0
   -3.9600   -0.9198    0.4252 H   0  0  0  0  0  0  0  0  0  0  0  0
   -3.4979   -1.3344   -1.2423 H   0  0  0  0  0  0  0  0  0  0  0  0
   -1.1260   -0.6644   -0.7543 H   0  0  0  0  0  0  0  0  0  0  0  0
   -0.9115    1.3390    0.5280 H   0  0  0  0  0  0  0  0  0  0  0  0
    0.1980    1.9881    0.4376 C   0  0  0  0  0  3  0  0  0  0  0  0
    1.0144    1.3992   -0.6883 C   0  0  0  0  0  0  0  0  0  0  0  0
    1.2108    0.0028   -0.6122 O   0  0  0  0  0  0  0  0  0  0  0  0
    2.0546   -0.4259    0.4357 C   0  0  0  0  0  0  0  0  0  0  0  0
    2.3397   -1.9073    0.2440 C   0  0  0  0  0  0  0  0  0  0  0  0
    0.6619    1.8908    1.4125 H   0  0  0  0  0  0  0  0  0  0  0  0
   -0.0864    3.0136    0.2367 H   0  0  0  0  0  0  0  0  0  0  0  0
    1.9992    1.9025   -0.7421 H   0  0  0  0  0  0  0  0  0  0  0  0
    0.5025    1.5540   -1.6431 H   0  0  0  0  0  0  0  0  0  0  0  0
    2.9933    0.1505    0.4143 H   0  0  0  0  0  0  0  0  0  0  0  0
    1.5733   -0.2627    1.4105 H   0  0  0  0  0  0  0  0  0  0  0  0
    1.4097   -2.4685    0.2741 H   0  0  0  0  0  0  0  0  0  0  0  0
    2.8123   -2.0730   -0.7203 H   0  0  0  0  0  0  0  0  0  0  0  0
    2.9970   -2.2640    1.0320 H   0  0  0  0  0  0  0  0  0  0  0  0
  1  2  1  0
  1  4  1  0
  1  5  1  0
  1  6  1  0
  2  3  2  3
  2  7  1  0
  3  8  1  0
  9 10  1  0
  9 14  1  0
  9 15  1  0
 10 11  1  0
 10 16  1  0
 10 17  1  0
 11 12  1  0
 12 13  1  0
 12 18  1  0
 12 19  1  0
 13 20  1  0
 13 21  1  0
 13 22  1  0
M  RAD  1   9   2
M  END
>  <reaction>  (14) 
rmg_rxn_16529

>  <mol_properties>  (14) 
{"1": {"label": "*0", "atom_type": "Cd"}, "2": {"label": "*1", "atom_type": "N3d"}, "7": {"label": "*2", "atom_type": "H0"}, "8": {"label": "*3", "atom_type": "Cs"}, "9": {"label": "*4", "atom_type": "Cs"}}

>  <type>  (14) 
unop_10

>  <geom_source>  (14) 
Heuristics

$$$$

     RDKit          3D

 22 20  0  0  0  0  0  0  0  0999 V2000
    1.1475    0.4929   -3.1617 C   0  0  0  0  0  0  0  0  0  0  0  0
    1.1475    0.4929   -1.6694 C   0  0  0  0  0  0  0  0  0  0  0  0
    1.1475    1.5655   -1.0017 N   0  0  0  0  0  0  0  0  0  0  0  0
    2.0258   -0.0371   -3.5391 H   0  0  0  0  0  0  0  0  0  0  0  0
    0.2692   -0.0371   -3.5391 H   0  0  0  0  0  0  0  0  0  0  0  0
    1.1475    1.5135   -3.5403 H   0  0  0  0  0  0  0  0  0  0  0  0
    1.1475   -0.4968   -1.1947 H   0  0  0  0  0  0  0  0  0  0  0  0
    1.1475    1.3353    0.1979 H   0  0  0  0  0  0  0  0  0  0  0  0
    1.1475    1.0887    1.4831 C   0  0  0  0  0  3  0  0  0  0  0  0
    0.4398   -0.2148    1.7721 C   0  0  0  0  0  0  0  0  0  0  0  0
   -0.7157   -0.2933    0.9760 O   0  0  0  0  0  0  0  0  0  0  0  0
   -1.4458   -1.4775    1.1748 C   0  0  0  0  0  0  0  0  0  0  0  0
   -2.6611   -1.4616    0.2767 C   0  0  0  0  0  0  0  0  0  0  0  0
    0.4975    1.9347    1.7091 H   0  0  0  0  0  0  0  0  0  0  0  0
    2.0497    1.1719    2.0911 H   0  0  0  0  0  0  0  0  0  0  0  0
    0.1672   -0.2765    2.8361 H   0  0  0  0  0  0  0  0  0  0  0  0
    1.1016   -1.0672    1.5578 H   0  0  0  0  0  0  0  0  0  0  0  0
   -0.8140   -2.3499    0.9510 H   0  0  0  0  0  0  0  0  0  0  0  0
   -1.7484   -1.5592    2.2293 H   0  0  0  0  0  0  0  0  0  0  0  0
   -2.3618   -1.3955   -0.7699 H   0  0  0  0  0  0  0  0  0  0  0  0
   -3.2446   -2.3733    0.4140 H   0  0  0  0  0  0  0  0  0  0  0  0
   -3.2957   -0.6053    0.5076 H   0  0  0  0  0  0  0  0  0  0  0  0
  1  2  1  0
  1  4  1  0
  1  5  1  0
  1  6  1  0
  2  3  2  3
  2  7  1  0
  3  8  1  0
  9 10  1  0
  9 14  1  0
  9 15  1  0
 10 11  1  0
 10 16  1  0
 10 17  1  0
 11 12  1  0
 12 13  1  0
 12 18  1  0
 12 19  1  0
 13 20  1  0
 13 21  1  0
 13 22  1  0
M  RAD  1   9   2
M  END
>  <reaction>  (15) 
rmg_rxn_16529

>  <mol_properties>  (15) 
{"1": {"label": "*0", "atom_type": "Cd"}, "2": {"label": "*1", "atom_type": "N3d"}, "7": {"label": "*2", "atom_type": "H0"}, "8": {"label": "*3", "atom_type": "Cs"}, "9": {"label": "*4", "atom_type": "Cs"}}

>  <type>  (15) 
unop_11

>  <geom_source>  (15) 
Heuristics

$$$$

     RDKit          3D

 22 20  0  0  0  0  0  0  0  0999 V2000
   -0.7321    0.8205   -3.6315 C   0  0  0  0  0  0  0  0  0  0  0  0
   -0.7321    0.8205   -2.1391 C   0  0  0  0  0  0  0  0  0  0  0  0
   -0.7321    1.8931   -1.4715 N   0  0  0  0  0  0  0  0  0  0  0  0
    0.1462    0.2905   -4.0089 H   0  0  0  0  0  0  0  0  0  0  0  0
   -1.6103    0.2905   -4.0089 H   0  0  0  0  0  0  0  0  0  0  0  0
   -0.7321    1.8411   -4.0101 H   0  0  0  0  0  0  0  0  0  0  0  0
   -0.7321   -0.1692   -1.6645 H   0  0  0  0  0  0  0  0  0  0  0  0
   -0.7321    1.6629   -0.2719 H   0  0  0  0  0  0  0  0  0  0  0  0
   -0.7321    1.4163    1.0133 C   0  0  0  0  0  3  0  0  0  0  0  0
    0.4937    0.6216    1.4000 C   0  0  0  0  0  0  0  0  0  0  0  0
    0.1877   -0.7487    1.3376 O   0  0  0  0  0  0  0  0  0  0  0  0
    1.2715   -1.5744    1.6821 C   0  0  0  0  0  0  0  0  0  0  0  0
    0.8390   -3.0189    1.5832 C   0  0  0  0  0  0  0  0  0  0  0  0
   -1.5571    1.2012    1.6933 H   0  0  0  0  0  0  0  0  0  0  0  0
   -0.5179    2.4854    1.0546 H   0  0  0  0  0  0  0  0  0  0  0  0
    0.8192    0.8874    2.4167 H   0  0  0  0  0  0  0  0  0  0  0  0
    1.3296    0.8505    0.7224 H   0  0  0  0  0  0  0  0  0  0  0  0
    2.1198   -1.3803    1.0091 H   0  0  0  0  0  0  0  0  0  0  0  0
    1.6094   -1.3434    2.7033 H   0  0  0  0  0  0  0  0  0  0  0  0
    0.5178   -3.2530    0.5677 H   0  0  0  0  0  0  0  0  0  0  0  0
    1.6660   -3.6801    1.8468 H   0  0  0  0  0  0  0  0  0  0  0  0
    0.0076   -3.2161    2.2609 H   0  0  0  0  0  0  0  0  0  0  0  0
  1  2  1  0
  1  4  1  0
  1  5  1  0
  1  6  1  0
  2  3  2  3
  2  7  1  0
  3  8  1  0
  9 10  1  0
  9 14  1  0
  9 15  1  0
 10 11  1  0
 10 16  1  0
 10 17  1  0
 11 12  1  0
 12 13  1  0
 12 18  1  0
 12 19  1  0
 13 20  1  0
 13 21  1  0
 13 22  1  0
M  RAD  1   9   2
M  END
>  <reaction>  (16) 
rmg_rxn_16529

>  <mol_properties>  (16) 
{"1": {"label": "*0", "atom_type": "Cd"}, "2": {"label": "*1", "atom_type": "N3d"}, "7": {"label": "*2", "atom_type": "H0"}, "8": {"label": "*3", "atom_type": "Cs"}, "9": {"label": "*4", "atom_type": "Cs"}}

>  <type>  (16) 
unop_12

>  <geom_source>  (16) 
Heuristics

$$$$

     RDKit          3D

 22 20  0  0  0  0  0  0  0  0999 V2000
    0.4107   -1.9690   -3.5592 C   0  0  0  0  0  0  0  0  0  0  0  0
    0.4107   -1.9690   -2.0669 C   0  0  0  0  0  0  0  0  0  0  0  0
    0.4107   -0.8964   -1.3992 N   0  0  0  0  0  0  0  0  0  0  0  0
    1.2889   -2.4990   -3.9366 H   0  0  0  0  0  0  0  0  0  0  0  0
   -0.4676   -2.4990   -3.9366 H   0  0  0  0  0  0  0  0  0  0  0  0
    0.4107   -0.9484   -3.9378 H   0  0  0  0  0  0  0  0  0  0  0  0
    0.4107   -2.9587   -1.5922 H   0  0  0  0  0  0  0  0  0  0  0  0
    0.4107   -1.1266   -0.1996 H   0  0  0  0  0  0  0  0  0  0  0  0
    0.4107   -1.3732    1.0856 C   0  0  0  0  0  3  0  0  0  0  0  0
   -0.2970   -0.2691    1.8366 C   0  0  0  0  0  0  0  0  0  0  0  0
   -0.1076    0.9432    1.1514 O   0  0  0  0  0  0  0  0  0  0  0  0
   -0.7323    2.0360    1.7764 C   0  0  0  0  0  0  0  0  0  0  0  0
   -0.4686    3.2827    0.9641 C   0  0  0  0  0  0  0  0  0  0  0  0
    1.4785   -1.1636    1.0149 H   0  0  0  0  0  0  0  0  0  0  0  0
    0.2772   -2.3261    1.6001 H   0  0  0  0  0  0  0  0  0  0  0  0
    0.0970   -0.1869    2.8604 H   0  0  0  0  0  0  0  0  0  0  0  0
   -1.3717   -0.4889    1.9202 H   0  0  0  0  0  0  0  0  0  0  0  0
   -1.8140    1.8528    1.8591 H   0  0  0  0  0  0  0  0  0  0  0  0
   -0.3453    2.1548    2.7993 H   0  0  0  0  0  0  0  0  0  0  0  0
   -0.8650    3.1717   -0.0458 H   0  0  0  0  0  0  0  0  0  0  0  0
   -0.9451    4.1460    1.4311 H   0  0  0  0  0  0  0  0  0  0  0  0
    0.6028    3.4734    0.8939 H   0  0  0  0  0  0  0  0  0  0  0  0
  1  2  1  0
  1  4  1  0
  1  5  1  0
  1  6  1  0
  2  3  2  3
  2  7  1  0
  3  8  1  0
  9 10  1  0
  9 14  1  0
  9 15  1  0
 10 11  1  0
 10 16  1  0
 10 17  1  0
 11 12  1  0
 12 13  1  0
 12 18  1  0
 12 19  1  0
 13 20  1  0
 13 21  1  0
 13 22  1  0
M  RAD  1   9   2
M  END
>  <reaction>  (17) 
rmg_rxn_16529

>  <mol_properties>  (17) 
{"1": {"label": "*0", "atom_type": "Cd"}, "2": {"label": "*1", "atom_type": "N3d"}, "7": {"label": "*2", "atom_type": "H0"}, "8": {"label": "*3", "atom_type": "Cs"}, "9": {"label": "*4", "atom_type": "Cs"}}

>  <type>  (17) 
unop_13

>  <geom_source>  (17) 
Heuristics

$$$$

     RDKit          3D

 22 20  0  0  0  0  0  0  0  0999 V2000
    0.6254    0.8928   -3.2537 C   0  0  0  0  0  0  0  0  0  0  0  0
    0.6254    0.8928   -1.7614 C   0  0  0  0  0  0  0  0  0  0  0  0
    0.6254    1.9654   -1.0937 N   0  0  0  0  0  0  0  0  0  0  0  0
    1.5037    0.3628   -3.6311 H   0  0  0  0  0  0  0  0  0  0  0  0
   -0.2528    0.3628   -3.6311 H   0  0  0  0  0  0  0  0  0  0  0  0
    0.6254    1.9134   -3.6323 H   0  0  0  0  0  0  0  0  0  0  0  0
    0.6254   -0.0969   -1.2867 H   0  0  0  0  0  0  0  0  0  0  0  0
    0.6254    1.7352    0.1059 H   0  0  0  0  0  0  0  0  0  0  0  0
    0.6254    1.4886    1.3911 C   0  0  0  0  0  3  0  0  0  0  0  0
    0.6254   -0.0012    1.6444 C   0  0  0  0  0  0  0  0  0  0  0  0
   -0.5254   -0.5627    1.0653 O   0  0  0  0  0  0  0  0  0  0  0  0
   -0.6156   -1.9531    1.2488 C   0  0  0  0  0  0  0  0  0  0  0  0
   -1.8812   -2.4539    0.5921 C   0  0  0  0  0  0  0  0  0  0  0  0
   -0.2595    1.9508    1.8299 H   0  0  0  0  0  0  0  0  0  0  0  0
    1.5117    1.9471    1.8326 H   0  0  0  0  0  0  0  0  0  0  0  0
    0.6404   -0.2073    2.7249 H   0  0  0  0  0  0  0  0  0  0  0  0
    1.5259   -0.4641    1.2142 H   0  0  0  0  0  0  0  0  0  0  0  0
    0.2652   -2.4470    0.8123 H   0  0  0  0  0  0  0  0  0  0  0  0
   -0.6203   -2.1902    2.3230 H   0  0  0  0  0  0  0  0  0  0  0  0
   -1.8710   -2.2324   -0.4756 H   0  0  0  0  0  0  0  0  0  0  0  0
   -1.9728   -3.5334    0.7219 H   0  0  0  0  0  0  0  0  0  0  0  0
   -2.7560   -1.9757    1.0342 H   0  0  0  0  0  0  0  0  0  0  0  0
  1  2  1  0
  1  4  1  0
  1  5  1  0
  1  6  1  0
  2  3  2  3
  2  7  1  0
  3  8  1  0
  9 10  1  0
  9 14  1  0
  9 15  1  0
 10 11  1  0
 10 16  1  0
 10 17  1  0
 11 12  1  0
 12 13  1  0
 12 18  1  0
 12 19  1  0
 13 20  1  0
 13 21  1  0
 13 22  1  0
M  RAD  1   9   2
M  END
>  <reaction>  (18) 
rmg_rxn_16529

>  <mol_properties>  (18) 
{"1": {"label": "*0", "atom_type": "Cd"}, "2": {"label": "*1", "atom_type": "N3d"}, "7": {"label": "*2", "atom_type": "H0"}, "8": {"label": "*3", "atom_type": "Cs"}, "9": {"label": "*4", "atom_type": "Cs"}}

>  <type>  (18) 
unop_14

>  <geom_source>  (18) 
Heuristics

$$$$

     RDKit          3D

 22 20  0  0  0  0  0  0  0  0999 V2000
   -0.0498    1.0294   -3.4295 C   0  0  0  0  0  0  0  0  0  0  0  0
   -0.0498    1.0294   -1.9372 C   0  0  0  0  0  0  0  0  0  0  0  0
   -0.0498    2.1021   -1.2695 N   0  0  0  0  0  0  0  0  0  0  0  0
    0.8285    0.4994   -3.8069 H   0  0  0  0  0  0  0  0  0  0  0  0
   -0.9280    0.4994   -3.8069 H   0  0  0  0  0  0  0  0  0  0  0  0
   -0.0498    2.0500   -3.8081 H   0  0  0  0  0  0  0  0  0  0  0  0
   -0.0498    0.0397   -1.4625 H   0  0  0  0  0  0  0  0  0  0  0  0
   -0.0498    1.8719   -0.0699 H   0  0  0  0  0  0  0  0  0  0  0  0
   -0.0498    1.6253    1.2153 C   0  0  0  0  0  3  0  0  0  0  0  0
    0.6579    0.3217    1.5043 C   0  0  0  0  0  0  0  0  0  0  0  0
   -0.2065   -0.7440    1.2010 O   0  0  0  0  0  0  0  0  0  0  0  0
    0.3653   -2.0057    1.4384 C   0  0  0  0  0  0  0  0  0  0  0  0
   -0.6407   -3.0755    1.0822 C   0  0  0  0  0  0  0  0  0  0  0  0
   -0.9530    1.7120    1.8203 H   0  0  0  0  0  0  0  0  0  0  0  0
    0.6035    2.4688    1.4438 H   0  0  0  0  0  0  0  0  0  0  0  0
    0.9569    0.2730    2.5619 H   0  0  0  0  0  0  0  0  0  0  0  0
    1.5767    0.2420    0.9044 H   0  0  0  0  0  0  0  0  0  0  0  0
    1.2794   -2.1223    0.8375 H   0  0  0  0  0  0  0  0  0  0  0  0
    0.6596   -2.0914    2.4949 H   0  0  0  0  0  0  0  0  0  0  0  0
   -0.9221   -3.0007    0.0312 H   0  0  0  0  0  0  0  0  0  0  0  0
   -0.2180   -4.0658    1.2588 H   0  0  0  0  0  0  0  0  0  0  0  0
   -1.5415   -2.9698    1.6877 H   0  0  0  0  0  0  0  0  0  0  0  0
  1  2  1  0
  1  4  1  0
  1  5  1  0
  1  6  1  0
  2  3  2  3
  2  7  1  0
  3  8  1  0
  9 10  1  0
  9 14  1  0
  9 15  1  0
 10 11  1  0
 10 16  1  0
 10 17  1  0
 11 12  1  0
 12 13  1  0
 12 18  1  0
 12 19  1  0
 13 20  1  0
 13 21  1  0
 13 22  1  0
M  RAD  1   9   2
M  END
>  <reaction>  (19) 
rmg_rxn_16529

>  <mol_properties>  (19) 
{"1": {"label": "*0", "atom_type": "Cd"}, "2": {"label": "*1", "atom_type": "N3d"}, "7": {"label": "*2", "atom_type": "H0"}, "8": {"label": "*3", "atom_type": "Cs"}, "9": {"label": "*4", "atom_type": "Cs"}}

>  <type>  (19) 
unop_15

>  <geom_source>  (19) 
gaussian_log

$$$$
