
     RDKit          3D

 12 11  0  0  0  0  0  0  0  0999 V2000
    1.8075    0.1979    0.4695 C   0  0  0  0  0  0  0  0  0  0  0  0
    1.0072   -0.8859   -0.7259 S   0  0  0  0  0  0  0  0  0  0  0  0
   -0.7258   -0.6904   -0.2447 C   0  0  0  0  0  0  0  0  0  0  0  0
   -1.0856   -1.2776    1.1108 C   0  0  0  0  0  0  0  0  0  0  0  0
    1.7126   -0.1777    1.4878 H   0  0  0  0  0  0  0  0  0  0  0  0
    1.4024    1.2089    0.4095 H   0  0  0  0  0  0  0  0  0  0  0  0
    2.8647    0.2298    0.2095 H   0  0  0  0  0  0  0  0  0  0  0  0
   -1.2866   -1.1892   -1.0369 H   0  0  0  0  0  0  0  0  0  0  0  0
   -0.9814    0.3707   -0.2917 H   0  0  0  0  0  0  0  0  0  0  0  0
   -0.5492   -0.7768    1.9180 H   0  0  0  0  0  0  0  0  0  0  0  0
   -0.8418   -2.3397    1.1503 H   0  0  0  0  0  0  0  0  0  0  0  0
   -2.1545   -1.1604    1.3035 H   0  0  0  0  0  0  0  0  0  0  0  0
  1  2  1  0
  1  5  1  0
  1  6  1  0
  1  7  1  0
  2  3  1  0
  3  4  1  0
  3  8  1  0
  3  9  1  0
  4 10  1  0
  4 11  1  0
  4 12  1  0
M  END
>  <reaction>  (1) 
rmg_rxn_520

>  <mol_properties>  (1) 
{"0": {"label": "donator", "atom_type": "Cs"}, "4": {"label": "d_hydrogen", "atom_type": "H0"}}

>  <type>  (1) 
r1h

$$$$

     RDKit          3D

 13 12  0  0  0  0  0  0  0  0999 V2000
    2.0654   -0.2739   -0.0844 C   0  0  0  0  0  3  0  0  0  0  0  0
    0.6326   -0.4110   -0.4406 C   0  0  0  0  0  0  0  0  0  0  0  0
   -0.3055    0.4151    0.4359 C   0  0  0  0  0  0  0  0  0  0  0  0
   -1.7714    0.2357    0.0671 C   0  0  0  0  0  0  0  0  0  0  0  0
    2.3610    0.0676    0.8995 H   0  0  0  0  0  0  0  0  0  0  0  0
    2.8408   -0.6127   -0.7582 H   0  0  0  0  0  0  0  0  0  0  0  0
    0.3313   -1.4695   -0.3768 H   0  0  0  0  0  0  0  0  0  0  0  0
    0.4826   -0.1432   -1.4940 H   0  0  0  0  0  0  0  0  0  0  0  0
   -0.1518    0.1351    1.4826 H   0  0  0  0  0  0  0  0  0  0  0  0
   -0.0303    1.4705    0.3565 H   0  0  0  0  0  0  0  0  0  0  0  0
   -2.0768   -0.8084    0.1692 H   0  0  0  0  0  0  0  0  0  0  0  0
   -1.9546    0.5339   -0.9679 H   0  0  0  0  0  0  0  0  0  0  0  0
   -2.4194    0.8370    0.7066 H   0  0  0  0  0  0  0  0  0  0  0  0
  1  2  1  0
  1  5  1  0
  1  6  1  0
  2  3  1  0
  2  7  1  0
  2  8  1  0
  3  4  1  0
  3  9  1  0
  3 10  1  0
  4 11  1  0
  4 12  1  0
  4 13  1  0
M  RAD  1   1   2
M  END
>  <reaction>  (2) 
rmg_rxn_520

>  <mol_properties>  (2) 
{"0": {"label": "acceptor", "atom_type": "Cs"}}

>  <type>  (2) 
r2

$$$$

     RDKit          3D

 14 13  0  0  0  0  0  0  0  0999 V2000
    1.8106   -0.5953    0.5577 C   0  0  0  0  0  0  0  0  0  0  0  0
    0.5197    0.2064    0.6554 C   0  0  0  0  0  0  0  0  0  0  0  0
   -0.5206   -0.2080   -0.3788 C   0  0  0  0  0  0  0  0  0  0  0  0
   -1.8114    0.5937   -0.2812 C   0  0  0  0  0  0  0  0  0  0  0  0
    2.2725   -0.4752   -0.4251 H   0  0  0  0  0  0  0  0  0  0  0  0
    1.6214   -1.6612    0.7052 H   0  0  0  0  0  0  0  0  0  0  0  0
    2.5364   -0.2784    1.3084 H   0  0  0  0  0  0  0  0  0  0  0  0
    0.0930    0.0950    1.6574 H   0  0  0  0  0  0  0  0  0  0  0  0
    0.7393    1.2723    0.5354 H   0  0  0  0  0  0  0  0  0  0  0  0
   -0.7402   -1.2739   -0.2588 H   0  0  0  0  0  0  0  0  0  0  0  0
   -0.0938   -0.0965   -1.3808 H   0  0  0  0  0  0  0  0  0  0  0  0
   -1.6222    1.6596   -0.4287 H   0  0  0  0  0  0  0  0  0  0  0  0
   -2.2734    0.4736    0.7017 H   0  0  0  0  0  0  0  0  0  0  0  0
   -2.5373    0.2768   -1.0318 H   0  0  0  0  0  0  0  0  0  0  0  0
  1  2  1  0
  1  5  1  0
  1  6  1  0
  1  7  1  0
  2  3  1  0
  2  8  1  0
  2  9  1  0
  3  4  1  0
  3 10  1  0
  3 11  1  0
  4 12  1  0
  4 13  1  0
  4 14  1  0
M  END
>  <reaction>  (3) 
rmg_rxn_520

>  <mol_properties>  (3) 
{"0": {"label": "a_hydrogen", "atom_type": "H0"}, "1": {"label": "acceptor", "atom_type": "Cs"}}

>  <type>  (3) 
r2h

$$$$

     RDKit          3D

 25 23  0  0  0  0  0  0  0  0999 V2000
    0.8117    0.6412    1.7152 C   0  0  0  0  0  0  0  0  0  0  0  0
   -0.7793   -0.0651    2.0103 S   0  0  0  0  0  0  0  0  0  0  0  0
   -0.4031   -1.8317    1.9194 C   0  0  0  0  0  0  0  0  0  0  0  0
   -0.0292   -2.3376    0.5360 C   0  0  0  0  0  0  0  0  0  0  0  0
    1.1413    0.6376    0.4452 H   0  0  0  0  0  0  0  0  0  0  0  0
    1.6193    0.1235    2.2333 H   0  0  0  0  0  0  0  0  0  0  0  0
    0.7912    1.6994    1.9683 H   0  0  0  0  0  0  0  0  0  0  0  0
   -1.3086   -2.3244    2.2770 H   0  0  0  0  0  0  0  0  0  0  0  0
    0.3875   -2.0478    2.6413 H   0  0  0  0  0  0  0  0  0  0  0  0
    0.8717   -1.8467    0.1671 H   0  0  0  0  0  0  0  0  0  0  0  0
   -0.8328   -2.1504   -0.1770 H   0  0  0  0  0  0  0  0  0  0  0  0
    0.1614   -3.4128    0.5654 H   0  0  0  0  0  0  0  0  0  0  0  0
    1.4347    0.7383   -0.9093 C   0  0  0  0  0  3  0  0  0  0  0  0
    0.1048    0.8682   -1.5975 C   0  0  0  0  0  0  0  0  0  0  0  0
    0.2119    0.9507   -3.1223 C   0  0  0  0  0  0  0  0  0  0  0  0
   -1.1462    1.0793   -3.7997 C   0  0  0  0  0  0  0  0  0  0  0  0
    2.0753    1.6175   -0.9665 H   0  0  0  0  0  0  0  0  0  0  0  0
    1.9846   -0.1758   -1.1324 H   0  0  0  0  0  0  0  0  0  0  0  0
   -0.4147    1.7583   -1.2277 H   0  0  0  0  0  0  0  0  0  0  0  0
   -0.5309    0.0181   -1.3308 H   0  0  0  0  0  0  0  0  0  0  0  0
    0.8424    1.8031   -3.3926 H   0  0  0  0  0  0  0  0  0  0  0  0
    0.7267    0.0591   -3.4929 H   0  0  0  0  0  0  0  0  0  0  0  0
   -1.6670    1.9791   -3.4644 H   0  0  0  0  0  0  0  0  0  0  0  0
   -1.7828    0.2231   -3.5648 H   0  0  0  0  0  0  0  0  0  0  0  0
   -1.0472    1.1349   -4.8851 H   0  0  0  0  0  0  0  0  0  0  0  0
  1  2  1  0
  1  5  1  0
  1  6  1  0
  1  7  1  0
  2  3  1  0
  3  4  1  0
  3  8  1  0
  3  9  1  0
  4 10  1  0
  4 11  1  0
  4 12  1  0
 13 14  1  0
 13 17  1  0
 13 18  1  0
 14 15  1  0
 14 19  1  0
 14 20  1  0
 15 16  1  0
 15 21  1  0
 15 22  1  0
 16 23  1  0
 16 24  1  0
 16 25  1  0
M  RAD  1  13   2
M  END
>  <reaction>  (4) 
rmg_rxn_520

>  <mol_properties>  (4) 
{"0": {"label": "*1", "atom_type": "Cs"}, "1": {"label": "*0", "atom_type": "S2s"}, "4": {"label": "*2", "atom_type": "H0"}, "12": {"label": "*3", "atom_type": "Cs"}, "13": {"label": "*4", "atom_type": "Cs"}}

>  <type>  (4) 
ts

$$$$

     RDKit          3D

 25 23  0  0  0  0  0  0  0  0999 V2000
    0.2686   -0.1798    1.6423 C   0  0  0  0  0  0  0  0  0  0  0  0
   -1.3745   -0.7586    2.1001 S   0  0  0  0  0  0  0  0  0  0  0  0
   -1.3745   -2.3987    1.3365 C   0  0  0  0  0  0  0  0  0  0  0  0
   -1.3745   -2.3987   -0.1839 C   0  0  0  0  0  0  0  0  0  0  0  0
    0.3835   -0.0041    0.3519 H   0  0  0  0  0  0  0  0  0  0  0  0
    1.0356   -0.8728    1.9904 H   0  0  0  0  0  0  0  0  0  0  0  0
    0.4151    0.7796    2.1367 H   0  0  0  0  0  0  0  0  0  0  0  0
   -2.2785   -2.8767    1.7174 H   0  0  0  0  0  0  0  0  0  0  0  0
   -0.5252   -2.9636    1.7277 H   0  0  0  0  0  0  0  0  0  0  0  0
   -0.4675   -1.9425   -0.5832 H   0  0  0  0  0  0  0  0  0  0  0  0
   -2.2305   -1.8455   -0.5716 H   0  0  0  0  0  0  0  0  0  0  0  0
   -1.4229   -3.4219   -0.5634 H   0  0  0  0  0  0  0  0  0  0  0  0
    0.4985    0.1719   -0.9406 C   0  0  0  0  0  3  0  0  0  0  0  0
    0.8447    1.6155   -1.2793 C   0  0  0  0  0  0  0  0  0  0  0  0
    1.8622    1.7368   -2.4078 C   0  0  0  0  0  0  0  0  0  0  0  0
    2.2084    3.1804   -2.7465 C   0  0  0  0  0  0  0  0  0  0  0  0
    1.3878   -0.3812   -0.6290 H   0  0  0  0  0  0  0  0  0  0  0  0
    0.0766   -0.3430   -1.8070 H   0  0  0  0  0  0  0  0  0  0  0  0
    1.2359    2.1180   -0.3887 H   0  0  0  0  0  0  0  0  0  0  0  0
   -0.0657    2.1558   -1.5581 H   0  0  0  0  0  0  0  0  0  0  0  0
    2.7726    1.1964   -2.1290 H   0  0  0  0  0  0  0  0  0  0  0  0
    1.4711    1.2342   -3.2983 H   0  0  0  0  0  0  0  0  0  0  0  0
    2.6303    3.6953   -1.8801 H   0  0  0  0  0  0  0  0  0  0  0  0
    1.3191    3.7334   -3.0581 H   0  0  0  0  0  0  0  0  0  0  0  0
    2.9376    3.2378   -3.5562 H   0  0  0  0  0  0  0  0  0  0  0  0
  1  2  1  0
  1  5  1  0
  1  6  1  0
  1  7  1  0
  2  3  1  0
  3  4  1  0
  3  8  1  0
  3  9  1  0
  4 10  1  0
  4 11  1  0
  4 12  1  0
 13 14  1  0
 13 17  1  0
 13 18  1  0
 14 15  1  0
 14 19  1  0
 14 20  1  0
 15 16  1  0
 15 21  1  0
 15 22  1  0
 16 23  1  0
 16 24  1  0
 16 25  1  0
M  RAD  1  13   2
M  END
>  <reaction>  (5) 
rmg_rxn_520

>  <mol_properties>  (5) 
{"0": {"label": "*1", "atom_type": "Cs"}, "1": {"label": "*0", "atom_type": "S2s"}, "4": {"label": "*2", "atom_type": "H0"}, "12": {"label": "*3", "atom_type": "Cs"}, "13": {"label": "*4", "atom_type": "Cs"}}

>  <type>  (5) 
unop_1

>  <geom_source>  (5) 
Heuristics

$$$$

     RDKit          3D

 25 23  0  0  0  0  0  0  0  0999 V2000
    1.1929    0.1673    1.8262 C   0  0  0  0  0  0  0  0  0  0  0  0
   -0.4502   -0.4116    2.2840 S   0  0  0  0  0  0  0  0  0  0  0  0
   -0.4502   -2.0517    1.5204 C   0  0  0  0  0  0  0  0  0  0  0  0
   -0.4502   -2.0517   -0.0000 C   0  0  0  0  0  0  0  0  0  0  0  0
    1.3077    0.3429    0.5358 H   0  0  0  0  0  0  0  0  0  0  0  0
    1.9599   -0.5258    2.1743 H   0  0  0  0  0  0  0  0  0  0  0  0
    1.3393    1.1266    2.3206 H   0  0  0  0  0  0  0  0  0  0  0  0
   -1.3543   -2.5297    1.9013 H   0  0  0  0  0  0  0  0  0  0  0  0
    0.3990   -2.6166    1.9116 H   0  0  0  0  0  0  0  0  0  0  0  0
    0.4568   -1.5955   -0.3993 H   0  0  0  0  0  0  0  0  0  0  0  0
   -1.3062   -1.4985   -0.3877 H   0  0  0  0  0  0  0  0  0  0  0  0
   -0.4987   -3.0749   -0.3795 H   0  0  0  0  0  0  0  0  0  0  0  0
    1.4227    0.5189   -0.7567 C   0  0  0  0  0  3  0  0  0  0  0  0
    0.0924    0.9060   -1.3884 C   0  0  0  0  0  0  0  0  0  0  0  0
    0.2470    1.5361   -2.7677 C   0  0  0  0  0  0  0  0  0  0  0  0
   -1.0833    1.9232   -3.3994 C   0  0  0  0  0  0  0  0  0  0  0  0
    2.0683    1.3923   -0.6377 H   0  0  0  0  0  0  0  0  0  0  0  0
    1.9562   -0.2033   -1.3793 H   0  0  0  0  0  0  0  0  0  0  0  0
   -0.4361    1.6050   -0.7323 H   0  0  0  0  0  0  0  0  0  0  0  0
   -0.5474    0.0212   -1.4684 H   0  0  0  0  0  0  0  0  0  0  0  0
    0.8869    2.4209   -2.6877 H   0  0  0  0  0  0  0  0  0  0  0  0
    0.7756    0.8370   -3.4238 H   0  0  0  0  0  0  0  0  0  0  0  0
   -1.6168    2.6454   -2.7768 H   0  0  0  0  0  0  0  0  0  0  0  0
   -1.7289    1.0498   -3.5184 H   0  0  0  0  0  0  0  0  0  0  0  0
   -0.9434    2.3712   -4.3845 H   0  0  0  0  0  0  0  0  0  0  0  0
  1  2  1  0
  1  5  1  0
  1  6  1  0
  1  7  1  0
  2  3  1  0
  3  4  1  0
  3  8  1  0
  3  9  1  0
  4 10  1  0
  4 11  1  0
  4 12  1  0
 13 14  1  0
 13 17  1  0
 13 18  1  0
 14 15  1  0
 14 19  1  0
 14 20  1  0
 15 16  1  0
 15 21  1  0
 15 22  1  0
 16 23  1  0
 16 24  1  0
 16 25  1  0
M  RAD  1  13   2
M  END
>  <reaction>  (6) 
rmg_rxn_520

>  <mol_properties>  (6) 
{"0": {"label": "*1", "atom_type": "Cs"}, "1": {"label": "*0", "atom_type": "S2s"}, "4": {"label": "*2", "atom_type": "H0"}, "12": {"label": "*3", "atom_type": "Cs"}, "13": {"label": "*4", "atom_type": "Cs"}}

>  <type>  (6) 
unop_2

>  <geom_source>  (6) 
Heuristics

$$$$

     RDKit          3D

 25 23  0  0  0  0  0  0  0  0999 V2000
    0.0577    0.0399    1.6852 C   0  0  0  0  0  0  0  0  0  0  0  0
   -1.5854   -0.5389    2.1430 S   0  0  0  0  0  0  0  0  0  0  0  0
   -1.5854   -2.1790    1.3793 C   0  0  0  0  0  0  0  0  0  0  0  0
   -1.5854   -2.1790   -0.1410 C   0  0  0  0  0  0  0  0  0  0  0  0
    0.1726    0.2156    0.3948 H   0  0  0  0  0  0  0  0  0  0  0  0
    0.8247   -0.6531    2.0333 H   0  0  0  0  0  0  0  0  0  0  0  0
    0.2042    0.9993    2.1795 H   0  0  0  0  0  0  0  0  0  0  0  0
   -2.4894   -2.6570    1.7603 H   0  0  0  0  0  0  0  0  0  0  0  0
   -0.7361   -2.7439    1.7706 H   0  0  0  0  0  0  0  0  0  0  0  0
   -0.6784   -1.7229   -0.5403 H   0  0  0  0  0  0  0  0  0  0  0  0
   -2.4413   -1.6258   -0.5288 H   0  0  0  0  0  0  0  0  0  0  0  0
   -1.6338   -3.2023   -0.5206 H   0  0  0  0  0  0  0  0  0  0  0  0
    0.2876    0.3915   -0.8977 C   0  0  0  0  0  3  0  0  0  0  0  0
    1.2837    1.4958   -1.2247 C   0  0  0  0  0  0  0  0  0  0  0  0
    1.9767    1.2966   -2.5677 C   0  0  0  0  0  0  0  0  0  0  0  0
    2.9728    2.4009   -2.8948 C   0  0  0  0  0  0  0  0  0  0  0  0
    0.7813   -0.5825   -0.8605 H   0  0  0  0  0  0  0  0  0  0  0  0
   -0.4969    0.3349   -1.6561 H   0  0  0  0  0  0  0  0  0  0  0  0
    2.0408    1.5530   -0.4359 H   0  0  0  0  0  0  0  0  0  0  0  0
    0.7720    2.4636   -1.2257 H   0  0  0  0  0  0  0  0  0  0  0  0
    2.4884    0.3288   -2.5668 H   0  0  0  0  0  0  0  0  0  0  0  0
    1.2196    1.2395   -3.3565 H   0  0  0  0  0  0  0  0  0  0  0  0
    3.7573    2.4575   -2.1364 H   0  0  0  0  0  0  0  0  0  0  0  0
    2.4791    3.3749   -2.9320 H   0  0  0  0  0  0  0  0  0  0  0  0
    3.4535    2.2335   -3.8600 H   0  0  0  0  0  0  0  0  0  0  0  0
  1  2  1  0
  1  5  1  0
  1  6  1  0
  1  7  1  0
  2  3  1  0
  3  4  1  0
  3  8  1  0
  3  9  1  0
  4 10  1  0
  4 11  1  0
  4 12  1  0
 13 14  1  0
 13 17  1  0
 13 18  1  0
 14 15  1  0
 14 19  1  0
 14 20  1  0
 15 16  1  0
 15 21  1  0
 15 22  1  0
 16 23  1  0
 16 24  1  0
 16 25  1  0
M  RAD  1  13   2
M  END
>  <reaction>  (7) 
rmg_rxn_520

>  <mol_properties>  (7) 
{"0": {"label": "*1", "atom_type": "Cs"}, "1": {"label": "*0", "atom_type": "S2s"}, "4": {"label": "*2", "atom_type": "H0"}, "12": {"label": "*3", "atom_type": "Cs"}, "13": {"label": "*4", "atom_type": "Cs"}}

>  <type>  (7) 
unop_3

>  <geom_source>  (7) 
Heuristics

$$$$

     RDKit          3D

 25 23  0  0  0  0  0  0  0  0999 V2000
    0.5743    1.0631    1.8635 C   0  0  0  0  0  0  0  0  0  0  0  0
   -1.0688    0.4843    2.3213 S   0  0  0  0  0  0  0  0  0  0  0  0
   -1.0688   -1.1559    1.5576 C   0  0  0  0  0  0  0  0  0  0  0  0
   -1.0688   -1.1559    0.0373 C   0  0  0  0  0  0  0  0  0  0  0  0
    0.6891    1.2388    0.5731 H   0  0  0  0  0  0  0  0  0  0  0  0
    1.3413    0.3701    2.2116 H   0  0  0  0  0  0  0  0  0  0  0  0
    0.7208    2.0225    2.3578 H   0  0  0  0  0  0  0  0  0  0  0  0
   -1.9729   -1.6338    1.9386 H   0  0  0  0  0  0  0  0  0  0  0  0
   -0.2196   -1.7207    1.9489 H   0  0  0  0  0  0  0  0  0  0  0  0
   -0.1618   -0.6997   -0.3620 H   0  0  0  0  0  0  0  0  0  0  0  0
   -1.9248   -0.6026   -0.3505 H   0  0  0  0  0  0  0  0  0  0  0  0
   -1.1172   -2.1791   -0.3423 H   0  0  0  0  0  0  0  0  0  0  0  0
    0.8042    1.4147   -0.7194 C   0  0  0  0  0  3  0  0  0  0  0  0
    0.5561    0.1212   -1.4836 C   0  0  0  0  0  0  0  0  0  0  0  0
    1.3659    0.0234   -2.7713 C   0  0  0  0  0  0  0  0  0  0  0  0
    1.1178   -1.2700   -3.5354 C   0  0  0  0  0  0  0  0  0  0  0  0
    0.5433    2.2845   -1.3270 H   0  0  0  0  0  0  0  0  0  0  0  0
    1.8567    1.5098   -0.4422 H   0  0  0  0  0  0  0  0  0  0  0  0
   -0.5088    0.0343   -1.7225 H   0  0  0  0  0  0  0  0  0  0  0  0
    0.7950   -0.7348   -0.8442 H   0  0  0  0  0  0  0  0  0  0  0  0
    1.1269    0.8794   -3.4106 H   0  0  0  0  0  0  0  0  0  0  0  0
    2.4307    0.1104   -2.5323 H   0  0  0  0  0  0  0  0  0  0  0  0
    0.0652   -1.3651   -3.8127 H   0  0  0  0  0  0  0  0  0  0  0  0
    1.3787   -2.1398   -2.9278 H   0  0  0  0  0  0  0  0  0  0  0  0
    1.7092   -1.3136   -4.4515 H   0  0  0  0  0  0  0  0  0  0  0  0
  1  2  1  0
  1  5  1  0
  1  6  1  0
  1  7  1  0
  2  3  1  0
  3  4  1  0
  3  8  1  0
  3  9  1  0
  4 10  1  0
  4 11  1  0
  4 12  1  0
 13 14  1  0
 13 17  1  0
 13 18  1  0
 14 15  1  0
 14 19  1  0
 14 20  1  0
 15 16  1  0
 15 21  1  0
 15 22  1  0
 16 23  1  0
 16 24  1  0
 16 25  1  0
M  RAD  1  13   2
M  END
>  <reaction>  (8) 
rmg_rxn_520

>  <mol_properties>  (8) 
{"0": {"label": "*1", "atom_type": "Cs"}, "1": {"label": "*0", "atom_type": "S2s"}, "4": {"label": "*2", "atom_type": "H0"}, "12": {"label": "*3", "atom_type": "Cs"}, "13": {"label": "*4", "atom_type": "Cs"}}

>  <type>  (8) 
unop_4

>  <geom_source>  (8) 
Heuristics

$$$$

     RDKit          3D

 25 23  0  0  0  0  0  0  0  0999 V2000
    0.0013    0.2152    1.7412 C   0  0  0  0  0  0  0  0  0  0  0  0
   -1.6418   -0.3636    2.1990 S   0  0  0  0  0  0  0  0  0  0  0  0
   -1.6418   -2.0037    1.4354 C   0  0  0  0  0  0  0  0  0  0  0  0
   -1.6418   -2.0037   -0.0850 C   0  0  0  0  0  0  0  0  0  0  0  0
    0.1161    0.3909    0.4508 H   0  0  0  0  0  0  0  0  0  0  0  0
    0.7683   -0.4778    2.0893 H   0  0  0  0  0  0  0  0  0  0  0  0
    0.1477    1.1746    2.2356 H   0  0  0  0  0  0  0  0  0  0  0  0
   -2.5459   -2.4817    1.8163 H   0  0  0  0  0  0  0  0  0  0  0  0
   -0.7926   -2.5686    1.8266 H   0  0  0  0  0  0  0  0  0  0  0  0
   -0.7348   -1.5476   -0.4843 H   0  0  0  0  0  0  0  0  0  0  0  0
   -2.4978   -1.4505   -0.4727 H   0  0  0  0  0  0  0  0  0  0  0  0
   -1.6903   -3.0270   -0.4645 H   0  0  0  0  0  0  0  0  0  0  0  0
    0.2311    0.5668   -0.8417 C   0  0  0  0  0  3  0  0  0  0  0  0
    1.6234    1.0560   -1.2172 C   0  0  0  0  0  0  0  0  0  0  0  0
    1.7963    1.2727   -2.7161 C   0  0  0  0  0  0  0  0  0  0  0  0
    3.1885    1.7619   -3.0916 C   0  0  0  0  0  0  0  0  0  0  0  0
    0.0057   -0.3844   -1.3296 H   0  0  0  0  0  0  0  0  0  0  0  0
   -0.5324    1.2849   -1.1502 H   0  0  0  0  0  0  0  0  0  0  0  0
    2.3716    0.3357   -0.8707 H   0  0  0  0  0  0  0  0  0  0  0  0
    1.8375    1.9928   -0.6927 H   0  0  0  0  0  0  0  0  0  0  0  0
    1.5822    0.3359   -3.2406 H   0  0  0  0  0  0  0  0  0  0  0  0
    1.0480    1.9929   -3.0626 H   0  0  0  0  0  0  0  0  0  0  0  0
    3.9520    1.0438   -2.7831 H   0  0  0  0  0  0  0  0  0  0  0  0
    3.4139    2.7131   -2.6037 H   0  0  0  0  0  0  0  0  0  0  0  0
    3.2844    1.9085   -4.1687 H   0  0  0  0  0  0  0  0  0  0  0  0
  1  2  1  0
  1  5  1  0
  1  6  1  0
  1  7  1  0
  2  3  1  0
  3  4  1  0
  3  8  1  0
  3  9  1  0
  4 10  1  0
  4 11  1  0
  4 12  1  0
 13 14  1  0
 13 17  1  0
 13 18  1  0
 14 15  1  0
 14 19  1  0
 14 20  1  0
 15 16  1  0
 15 21  1  0
 15 22  1  0
 16 23  1  0
 16 24  1  0
 16 25  1  0
M  RAD  1  13   2
M  END
>  <reaction>  (9) 
rmg_rxn_520

>  <mol_properties>  (9) 
{"0": {"label": "*1", "atom_type": "Cs"}, "1": {"label": "*0", "atom_type": "S2s"}, "4": {"label": "*2", "atom_type": "H0"}, "12": {"label": "*3", "atom_type": "Cs"}, "13": {"label": "*4", "atom_type": "Cs"}}

>  <type>  (9) 
unop_5

>  <geom_source>  (9) 
Heuristics

$$$$

     RDKit          3D

 25 23  0  0  0  0  0  0  0  0999 V2000
    0.2136    0.9677    1.7954 C   0  0  0  0  0  0  0  0  0  0  0  0
   -1.4295    0.3889    2.2532 S   0  0  0  0  0  0  0  0  0  0  0  0
   -1.4295   -1.2513    1.4896 C   0  0  0  0  0  0  0  0  0  0  0  0
   -1.4295   -1.2513   -0.0308 C   0  0  0  0  0  0  0  0  0  0  0  0
    0.3285    1.1434    0.5050 H   0  0  0  0  0  0  0  0  0  0  0  0
    0.9806    0.2747    2.1435 H   0  0  0  0  0  0  0  0  0  0  0  0
    0.3601    1.9271    2.2898 H   0  0  0  0  0  0  0  0  0  0  0  0
   -2.3335   -1.7292    1.8705 H   0  0  0  0  0  0  0  0  0  0  0  0
   -0.5802   -1.8161    1.8808 H   0  0  0  0  0  0  0  0  0  0  0  0
   -0.5225   -0.7951   -0.4301 H   0  0  0  0  0  0  0  0  0  0  0  0
   -2.2855   -0.6980   -0.4185 H   0  0  0  0  0  0  0  0  0  0  0  0
   -1.4779   -2.2745   -0.4103 H   0  0  0  0  0  0  0  0  0  0  0  0
    0.4435    1.3193   -0.7875 C   0  0  0  0  0  3  0  0  0  0  0  0
    0.9249    0.0532   -1.4830 C   0  0  0  0  0  0  0  0  0  0  0  0
    1.9247    0.3286   -2.6002 C   0  0  0  0  0  0  0  0  0  0  0  0
    2.4061   -0.9375   -3.2957 C   0  0  0  0  0  0  0  0  0  0  0  0
   -0.0464    1.9924   -1.4951 H   0  0  0  0  0  0  0  0  0  0  0  0
    1.2796    1.8623   -0.3404 H   0  0  0  0  0  0  0  0  0  0  0  0
    0.0672   -0.4882   -1.8952 H   0  0  0  0  0  0  0  0  0  0  0  0
    1.3835   -0.6174   -0.7491 H   0  0  0  0  0  0  0  0  0  0  0  0
    1.4661    0.9992   -3.3341 H   0  0  0  0  0  0  0  0  0  0  0  0
    2.7824    0.8700   -2.1880 H   0  0  0  0  0  0  0  0  0  0  0  0
    1.5700   -1.4805   -3.7427 H   0  0  0  0  0  0  0  0  0  0  0  0
    2.8960   -1.6107   -2.5881 H   0  0  0  0  0  0  0  0  0  0  0  0
    3.1197   -0.7115   -4.0897 H   0  0  0  0  0  0  0  0  0  0  0  0
  1  2  1  0
  1  5  1  0
  1  6  1  0
  1  7  1  0
  2  3  1  0
  3  4  1  0
  3  8  1  0
  3  9  1  0
  4 10  1  0
  4 11  1  0
  4 12  1  0
 13 14  1  0
 13 17  1  0
 13 18  1  0
 14 15  1  0
 14 19  1  0
 14 20  1  0
 15 16  1  0
 15 21  1  0
 15 22  1  0
 16 23  1  0
 16 24  1  0
 16 25  1  0
M  RAD  1  13   2
M  END
>  <reaction>  (10) 
rmg_rxn_520

>  <mol_properties>  (10) 
{"0": {"label": "*1", "atom_type": "Cs"}, "1": {"label": "*0", "atom_type": "S2s"}, "4": {"label": "*2", "atom_type": "H0"}, "12": {"label": "*3", "atom_type": "Cs"}, "13": {"label": "*4", "atom_type": "Cs"}}

>  <type>  (10) 
unop_6

>  <geom_source>  (10) 
Heuristics

$$$$

     RDKit          3D

 25 23  0  0  0  0  0  0  0  0999 V2000
   -0.0156    0.7020    1.7371 C   0  0  0  0  0  0  0  0  0  0  0  0
   -1.6587    0.1231    2.1948 S   0  0  0  0  0  0  0  0  0  0  0  0
   -1.6587   -1.5170    1.4312 C   0  0  0  0  0  0  0  0  0  0  0  0
   -1.6587   -1.5170   -0.0892 C   0  0  0  0  0  0  0  0  0  0  0  0
    0.0992    0.8777    0.4466 H   0  0  0  0  0  0  0  0  0  0  0  0
    0.7514    0.0089    2.0851 H   0  0  0  0  0  0  0  0  0  0  0  0
    0.1309    1.6614    2.2314 H   0  0  0  0  0  0  0  0  0  0  0  0
   -2.5628   -1.9950    1.8121 H   0  0  0  0  0  0  0  0  0  0  0  0
   -0.8095   -2.0818    1.8224 H   0  0  0  0  0  0  0  0  0  0  0  0
   -0.7517   -1.0608   -0.4885 H   0  0  0  0  0  0  0  0  0  0  0  0
   -2.5147   -0.9638   -0.4769 H   0  0  0  0  0  0  0  0  0  0  0  0
   -1.7071   -2.5402   -0.4687 H   0  0  0  0  0  0  0  0  0  0  0  0
    0.2143    1.0536   -0.8458 C   0  0  0  0  0  3  0  0  0  0  0  0
    1.3093    0.1742   -1.4341 C   0  0  0  0  0  0  0  0  0  0  0  0
    2.1372    0.8835   -2.4995 C   0  0  0  0  0  0  0  0  0  0  0  0
    3.2323    0.0041   -3.0878 C   0  0  0  0  0  0  0  0  0  0  0  0
   -0.4804    1.3850   -1.6213 H   0  0  0  0  0  0  0  0  0  0  0  0
    0.6376    1.9461   -0.3789 H   0  0  0  0  0  0  0  0  0  0  0  0
    0.8635   -0.7268   -1.8678 H   0  0  0  0  0  0  0  0  0  0  0  0
    1.9733   -0.1699   -0.6345 H   0  0  0  0  0  0  0  0  0  0  0  0
    1.4732    1.2275   -3.2991 H   0  0  0  0  0  0  0  0  0  0  0  0
    2.5830    1.7845   -2.0658 H   0  0  0  0  0  0  0  0  0  0  0  0
    2.8090   -0.8884   -3.5547 H   0  0  0  0  0  0  0  0  0  0  0  0
    3.9270   -0.3274   -2.3123 H   0  0  0  0  0  0  0  0  0  0  0  0
    3.8086    0.5360   -3.8465 H   0  0  0  0  0  0  0  0  0  0  0  0
  1  2  1  0
  1  5  1  0
  1  6  1  0
  1  7  1  0
  2  3  1  0
  3  4  1  0
  3  8  1  0
  3  9  1  0
  4 10  1  0
  4 11  1  0
  4 12  1  0
 13 14  1  0
 13 17  1  0
 13 18  1  0
 14 15  1  0
 14 19  1  0
 14 20  1  0
 15 16  1  0
 15 21  1  0
 15 22  1  0
 16 23  1  0
 16 24  1  0
 16 25  1  0
M  RAD  1  13   2
M  END
>  <reaction>  (11) 
rmg_rxn_520

>  <mol_properties>  (11) 
{"0": {"label": "*1", "atom_type": "Cs"}, "1": {"label": "*0", "atom_type": "S2s"}, "4": {"label": "*2", "atom_type": "H0"}, "12": {"label": "*3", "atom_type": "Cs"}, "13": {"label": "*4", "atom_type": "Cs"}}

>  <type>  (11) 
unop_7

>  <geom_source>  (11) 
Heuristics

$$$$

     RDKit          3D

 25 23  0  0  0  0  0  0  0  0999 V2000
    0.6123   -0.2692    1.6625 C   0  0  0  0  0  0  0  0  0  0  0  0
   -1.0308   -0.8481    2.1203 S   0  0  0  0  0  0  0  0  0  0  0  0
   -1.0308   -2.4882    1.3567 C   0  0  0  0  0  0  0  0  0  0  0  0
   -1.0308   -2.4882   -0.1637 C   0  0  0  0  0  0  0  0  0  0  0  0
    0.7272   -0.0936    0.3721 H   0  0  0  0  0  0  0  0  0  0  0  0
    1.3793   -0.9623    2.0106 H   0  0  0  0  0  0  0  0  0  0  0  0
    0.7588    0.6902    2.1569 H   0  0  0  0  0  0  0  0  0  0  0  0
   -1.9348   -2.9662    1.7376 H   0  0  0  0  0  0  0  0  0  0  0  0
   -0.1815   -3.0531    1.7479 H   0  0  0  0  0  0  0  0  0  0  0  0
   -0.1238   -2.0320   -0.5630 H   0  0  0  0  0  0  0  0  0  0  0  0
   -1.8867   -1.9350   -0.5514 H   0  0  0  0  0  0  0  0  0  0  0  0
   -1.0792   -3.5114   -0.5432 H   0  0  0  0  0  0  0  0  0  0  0  0
    0.8422    0.0824   -0.9204 C   0  0  0  0  0  3  0  0  0  0  0  0
    0.4589    1.4987   -1.3277 C   0  0  0  0  0  0  0  0  0  0  0  0
    1.3623    2.0733   -2.4127 C   0  0  0  0  0  0  0  0  0  0  0  0
    0.9790    3.4896   -2.8200 C   0  0  0  0  0  0  0  0  0  0  0  0
    1.8641    0.0489   -0.5353 H   0  0  0  0  0  0  0  0  0  0  0  0
    0.7887   -0.5982   -1.7734 H   0  0  0  0  0  0  0  0  0  0  0  0
    0.4901    2.1541   -0.4513 H   0  0  0  0  0  0  0  0  0  0  0  0
   -0.5774    1.5117   -1.6803 H   0  0  0  0  0  0  0  0  0  0  0  0
    2.3987    2.0603   -2.0601 H   0  0  0  0  0  0  0  0  0  0  0  0
    1.3311    1.4179   -3.2891 H   0  0  0  0  0  0  0  0  0  0  0  0
    1.0325    4.1702   -1.9670 H   0  0  0  0  0  0  0  0  0  0  0  0
   -0.0429    3.5230   -3.2051 H   0  0  0  0  0  0  0  0  0  0  0  0
    1.6410    3.8757   -3.5969 H   0  0  0  0  0  0  0  0  0  0  0  0
  1  2  1  0
  1  5  1  0
  1  6  1  0
  1  7  1  0
  2  3  1  0
  3  4  1  0
  3  8  1  0
  3  9  1  0
  4 10  1  0
  4 11  1  0
  4 12  1  0
 13 14  1  0
 13 17  1  0
 13 18  1  0
 14 15  1  0
 14 19  1  0
 14 20  1  0
 15 16  1  0
 15 21  1  0
 15 22  1  0
 16 23  1  0
 16 24  1  0
 16 25  1  0
M  RAD  1  13   2
M  END
>  <reaction>  (12) 
rmg_rxn_520

>  <mol_properties>  (12) 
{"0": {"label": "*1", "atom_type": "Cs"}, "1": {"label": "*0", "atom_type": "S2s"}, "4": {"label": "*2", "atom_type": "H0"}, "12": {"label": "*3", "atom_type": "Cs"}, "13": {"label": "*4", "atom_type": "Cs"}}

>  <type>  (12) 
unop_8

>  <geom_source>  (12) 
Heuristics

$$$$

     RDKit          3D

 25 23  0  0  0  0  0  0  0  0999 V2000
    0.9484    0.9256    1.9077 C   0  0  0  0  0  0  0  0  0  0  0  0
   -0.6947    0.3467    2.3655 S   0  0  0  0  0  0  0  0  0  0  0  0
   -0.6947   -1.2934    1.6018 C   0  0  0  0  0  0  0  0  0  0  0  0
   -0.6947   -1.2934    0.0814 C   0  0  0  0  0  0  0  0  0  0  0  0
    1.0633    1.1012    0.6173 H   0  0  0  0  0  0  0  0  0  0  0  0
    1.7155    0.2325    2.2558 H   0  0  0  0  0  0  0  0  0  0  0  0
    1.0949    1.8849    2.4020 H   0  0  0  0  0  0  0  0  0  0  0  0
   -1.5987   -1.7714    1.9827 H   0  0  0  0  0  0  0  0  0  0  0  0
    0.1546   -1.8583    1.9931 H   0  0  0  0  0  0  0  0  0  0  0  0
    0.2123   -0.8372   -0.3179 H   0  0  0  0  0  0  0  0  0  0  0  0
   -1.5506   -0.7402   -0.3063 H   0  0  0  0  0  0  0  0  0  0  0  0
   -0.7431   -2.3166   -0.2981 H   0  0  0  0  0  0  0  0  0  0  0  0
    1.1783    1.2772   -0.6752 C   0  0  0  0  0  3  0  0  0  0  0  0
    0.2803    0.3230   -1.4510 C   0  0  0  0  0  0  0  0  0  0  0  0
    0.6847    0.1784   -2.9136 C   0  0  0  0  0  0  0  0  0  0  0  0
   -0.2133   -0.7757   -3.6894 C   0  0  0  0  0  0  0  0  0  0  0  0
    1.1563    2.2781   -1.1127 H   0  0  0  0  0  0  0  0  0  0  0  0
    2.2158    0.9348   -0.6869 H   0  0  0  0  0  0  0  0  0  0  0  0
   -0.7566    0.6702   -1.3987 H   0  0  0  0  0  0  0  0  0  0  0  0
    0.2950   -0.6632   -0.9760 H   0  0  0  0  0  0  0  0  0  0  0  0
    0.6700    1.1647   -3.3886 H   0  0  0  0  0  0  0  0  0  0  0  0
    1.7217   -0.1688   -2.9659 H   0  0  0  0  0  0  0  0  0  0  0  0
   -1.2508   -0.4334   -3.6777 H   0  0  0  0  0  0  0  0  0  0  0  0
   -0.1913   -1.7767   -3.2519 H   0  0  0  0  0  0  0  0  0  0  0  0
    0.0983   -0.8604   -4.7317 H   0  0  0  0  0  0  0  0  0  0  0  0
  1  2  1  0
  1  5  1  0
  1  6  1  0
  1  7  1  0
  2  3  1  0
  3  4  1  0
  3  8  1  0
  3  9  1  0
  4 10  1  0
  4 11  1  0
  4 12  1  0
 13 14  1  0
 13 17  1  0
 13 18  1  0
 14 15  1  0
 14 19  1  0
 14 20  1  0
 15 16  1  0
 15 21  1  0
 15 22  1  0
 16 23  1  0
 16 24  1  0
 16 25  1  0
M  RAD  1  13   2
M  END
>  <reaction>  (13) 
rmg_rxn_520

>  <mol_properties>  (13) 
{"0": {"label": "*1", "atom_type": "Cs"}, "1": {"label": "*0", "atom_type": "S2s"}, "4": {"label": "*2", "atom_type": "H0"}, "12": {"label": "*3", "atom_type": "Cs"}, "13": {"label": "*4", "atom_type": "Cs"}}

>  <type>  (13) 
unop_9

>  <geom_source>  (13) 
Heuristics

$$$$

     RDKit          3D

 25 23  0  0  0  0  0  0  0  0999 V2000
    0.9652   -0.1495    1.7332 C   0  0  0  0  0  0  0  0  0  0  0  0
   -0.6779   -0.7284    2.1910 S   0  0  0  0  0  0  0  0  0  0  0  0
   -0.6779   -2.3685    1.4274 C   0  0  0  0  0  0  0  0  0  0  0  0
   -0.6779   -2.3685   -0.0930 C   0  0  0  0  0  0  0  0  0  0  0  0
    1.0800    0.0261    0.4428 H   0  0  0  0  0  0  0  0  0  0  0  0
    1.7322   -0.8426    2.0813 H   0  0  0  0  0  0  0  0  0  0  0  0
    1.1117    0.8099    2.2276 H   0  0  0  0  0  0  0  0  0  0  0  0
   -1.5820   -2.8465    1.8083 H   0  0  0  0  0  0  0  0  0  0  0  0
    0.1713   -2.9334    1.8186 H   0  0  0  0  0  0  0  0  0  0  0  0
    0.2291   -1.9123   -0.4923 H   0  0  0  0  0  0  0  0  0  0  0  0
   -1.5339   -1.8153   -0.4807 H   0  0  0  0  0  0  0  0  0  0  0  0
   -0.7264   -3.3917   -0.4725 H   0  0  0  0  0  0  0  0  0  0  0  0
    1.1950    0.2021   -0.8497 C   0  0  0  0  0  3  0  0  0  0  0  0
    0.1981    1.2316   -1.3643 C   0  0  0  0  0  0  0  0  0  0  0  0
    0.7206    2.0253   -2.5562 C   0  0  0  0  0  0  0  0  0  0  0  0
   -0.2763    3.0548   -3.0708 C   0  0  0  0  0  0  0  0  0  0  0  0
    2.1237    0.6817   -0.5311 H   0  0  0  0  0  0  0  0  0  0  0  0
    1.4477   -0.5214   -1.6285 H   0  0  0  0  0  0  0  0  0  0  0  0
   -0.0625    1.9253   -0.5584 H   0  0  0  0  0  0  0  0  0  0  0  0
   -0.7334    0.7312   -1.6477 H   0  0  0  0  0  0  0  0  0  0  0  0
    1.6522    2.5257   -2.2728 H   0  0  0  0  0  0  0  0  0  0  0  0
    0.9812    1.3316   -3.3621 H   0  0  0  0  0  0  0  0  0  0  0  0
   -0.5290    3.7783   -2.2919 H   0  0  0  0  0  0  0  0  0  0  0  0
   -1.2049    2.5753   -3.3893 H   0  0  0  0  0  0  0  0  0  0  0  0
    0.1228    3.6077   -3.9227 H   0  0  0  0  0  0  0  0  0  0  0  0
  1  2  1  0
  1  5  1  0
  1  6  1  0
  1  7  1  0
  2  3  1  0
  3  4  1  0
  3  8  1  0
  3  9  1  0
  4 10  1  0
  4 11  1  0
  4 12  1  0
 13 14  1  0
 13 17  1  0
 13 18  1  0
 14 15  1  0
 14 19  1  0
 14 20  1  0
 15 16  1  0
 15 21  1  0
 15 22  1  0
 16 23  1  0
 16 24  1  0
 16 25  1  0
M  RAD  1  13   2
M  END
>  <reaction>  (14) 
rmg_rxn_520

>  <mol_properties>  (14) 
{"0": {"label": "*1", "atom_type": "Cs"}, "1": {"label": "*0", "atom_type": "S2s"}, "4": {"label": "*2", "atom_type": "H0"}, "12": {"label": "*3", "atom_type": "Cs"}, "13": {"label": "*4", "atom_type": "Cs"}}

>  <type>  (14) 
unop_10

>  <geom_source>  (14) 
Heuristics

$$$$

     RDKit          3D

 25 23  0  0  0  0  0  0  0  0999 V2000
   -0.0576    0.3976    1.7236 C   0  0  0  0  0  0  0  0  0  0  0  0
   -1.7007   -0.1812    2.1814 S   0  0  0  0  0  0  0  0  0  0  0  0
   -1.7007   -1.8213    1.4178 C   0  0  0  0  0  0  0  0  0  0  0  0
   -1.7007   -1.8213   -0.1026 C   0  0  0  0  0  0  0  0  0  0  0  0
    0.0573    0.5733    0.4332 H   0  0  0  0  0  0  0  0  0  0  0  0
    0.7094   -0.2954    2.0717 H   0  0  0  0  0  0  0  0  0  0  0  0
    0.0889    1.3570    2.2180 H   0  0  0  0  0  0  0  0  0  0  0  0
   -2.6047   -2.2993    1.7987 H   0  0  0  0  0  0  0  0  0  0  0  0
   -0.8514   -2.3862    1.8090 H   0  0  0  0  0  0  0  0  0  0  0  0
   -0.7937   -1.3652   -0.5019 H   0  0  0  0  0  0  0  0  0  0  0  0
   -2.5566   -1.2681   -0.4903 H   0  0  0  0  0  0  0  0  0  0  0  0
   -1.7491   -2.8446   -0.4821 H   0  0  0  0  0  0  0  0  0  0  0  0
    0.1723    0.7492   -0.8592 C   0  0  0  0  0  3  0  0  0  0  0  0
    1.6008    0.5123   -1.3304 C   0  0  0  0  0  0  0  0  0  0  0  0
    1.9661    1.3295   -2.5642 C   0  0  0  0  0  0  0  0  0  0  0  0
    3.3946    1.0925   -3.0354 C   0  0  0  0  0  0  0  0  0  0  0  0
   -0.5459    0.4868   -1.6397 H   0  0  0  0  0  0  0  0  0  0  0  0
    0.0134    1.7998   -0.6045 H   0  0  0  0  0  0  0  0  0  0  0  0
    1.7437   -0.5508   -1.5495 H   0  0  0  0  0  0  0  0  0  0  0  0
    2.2988    0.7525   -0.5219 H   0  0  0  0  0  0  0  0  0  0  0  0
    1.2681    1.0892   -3.3727 H   0  0  0  0  0  0  0  0  0  0  0  0
    1.8232    2.3925   -2.3451 H   0  0  0  0  0  0  0  0  0  0  0  0
    3.5535    0.0420   -3.2901 H   0  0  0  0  0  0  0  0  0  0  0  0
    4.1127    1.3550   -2.2549 H   0  0  0  0  0  0  0  0  0  0  0  0
    3.6290    1.6890   -3.9185 H   0  0  0  0  0  0  0  0  0  0  0  0
  1  2  1  0
  1  5  1  0
  1  6  1  0
  1  7  1  0
  2  3  1  0
  3  4  1  0
  3  8  1  0
  3  9  1  0
  4 10  1  0
  4 11  1  0
  4 12  1  0
 13 14  1  0
 13 17  1  0
 13 18  1  0
 14 15  1  0
 14 19  1  0
 14 20  1  0
 15 16  1  0
 15 21  1  0
 15 22  1  0
 16 23  1  0
 16 24  1  0
 16 25  1  0
M  RAD  1  13   2
M  END
>  <reaction>  (15) 
rmg_rxn_520

>  <mol_properties>  (15) 
{"0": {"label": "*1", "atom_type": "Cs"}, "1": {"label": "*0", "atom_type": "S2s"}, "4": {"label": "*2", "atom_type": "H0"}, "12": {"label": "*3", "atom_type": "Cs"}, "13": {"label": "*4", "atom_type": "Cs"}}

>  <type>  (15) 
unop_11

>  <geom_source>  (15) 
Heuristics

$$$$

     RDKit          3D

 25 23  0  0  0  0  0  0  0  0999 V2000
    1.1905    0.5818    1.8969 C   0  0  0  0  0  0  0  0  0  0  0  0
   -0.4527    0.0030    2.3547 S   0  0  0  0  0  0  0  0  0  0  0  0
   -0.4527   -1.6372    1.5911 C   0  0  0  0  0  0  0  0  0  0  0  0
   -0.4527   -1.6372    0.0707 C   0  0  0  0  0  0  0  0  0  0  0  0
    1.3053    0.7575    0.6065 H   0  0  0  0  0  0  0  0  0  0  0  0
    1.9575   -0.1112    2.2450 H   0  0  0  0  0  0  0  0  0  0  0  0
    1.3369    1.5412    2.3913 H   0  0  0  0  0  0  0  0  0  0  0  0
   -1.3567   -2.1151    1.9720 H   0  0  0  0  0  0  0  0  0  0  0  0
    0.3966   -2.2020    1.9823 H   0  0  0  0  0  0  0  0  0  0  0  0
    0.4543   -1.1810   -0.3286 H   0  0  0  0  0  0  0  0  0  0  0  0
   -1.3086   -1.0839   -0.3170 H   0  0  0  0  0  0  0  0  0  0  0  0
   -0.5011   -2.6604   -0.3088 H   0  0  0  0  0  0  0  0  0  0  0  0
    1.4203    0.9334   -0.6859 C   0  0  0  0  0  3  0  0  0  0  0  0
    0.1262    0.5944   -1.4133 C   0  0  0  0  0  0  0  0  0  0  0  0
    0.2210    0.7871   -2.9224 C   0  0  0  0  0  0  0  0  0  0  0  0
   -1.0731    0.4481   -3.6497 C   0  0  0  0  0  0  0  0  0  0  0  0
    1.7044    1.9744   -0.8573 H   0  0  0  0  0  0  0  0  0  0  0  0
    2.2425    0.3051   -1.0366 H   0  0  0  0  0  0  0  0  0  0  0  0
   -0.6875    1.2144   -1.0234 H   0  0  0  0  0  0  0  0  0  0  0  0
   -0.1534   -0.4427   -1.2014 H   0  0  0  0  0  0  0  0  0  0  0  0
    0.5007    1.8242   -3.1343 H   0  0  0  0  0  0  0  0  0  0  0  0
    1.0348    0.1672   -3.3123 H   0  0  0  0  0  0  0  0  0  0  0  0
   -1.8953    1.0764   -3.2990 H   0  0  0  0  0  0  0  0  0  0  0  0
   -1.3572   -0.5929   -3.4784 H   0  0  0  0  0  0  0  0  0  0  0  0
   -0.9772    0.5947   -4.7268 H   0  0  0  0  0  0  0  0  0  0  0  0
  1  2  1  0
  1  5  1  0
  1  6  1  0
  1  7  1  0
  2  3  1  0
  3  4  1  0
  3  8  1  0
  3  9  1  0
  4 10  1  0
  4 11  1  0
  4 12  1  0
 13 14  1  0
 13 17  1  0
 13 18  1  0
 14 15  1  0
 14 19  1  0
 14 20  1  0
 15 16  1  0
 15 21  1  0
 15 22  1  0
 16 23  1  0
 16 24  1  0
 16 25  1  0
M  RAD  1  13   2
M  END
>  <reaction>  (16) 
rmg_rxn_520

>  <mol_properties>  (16) 
{"0": {"label": "*1", "atom_type": "Cs"}, "1": {"label": "*0", "atom_type": "S2s"}, "4": {"label": "*2", "atom_type": "H0"}, "12": {"label": "*3", "atom_type": "Cs"}, "13": {"label": "*4", "atom_type": "Cs"}}

>  <type>  (16) 
unop_12

>  <geom_source>  (16) 
Heuristics

$$$$

     RDKit          3D

 25 23  0  0  0  0  0  0  0  0999 V2000
   -2.2407    0.4584   -1.3944 S   0  0  0  0  0  0  0  0  0  0  0  0
    2.3474   -1.0365   -0.4527 C   0  0  0  0  0  0  0  0  0  0  0  0
    2.6738    0.1646    0.4406 C   0  0  0  0  0  0  0  0  0  0  0  0
   -3.4917    1.2644   -0.3325 C   0  0  0  0  0  0  0  0  0  0  0  0
    0.9548   -1.5797   -0.1521 C   0  0  0  0  0  0  0  0  0  0  0  0
    4.0665    0.7110    0.1411 C   0  0  0  0  0  0  0  0  0  0  0  0
   -4.4975    0.2454    0.1875 C   0  0  0  0  0  0  0  0  0  0  0  0
   -1.1161   -0.0102   -0.0391 C   0  0  0  0  0  3  0  0  0  0  0  0
    2.3894   -0.7315   -1.5209 H   0  0  0  0  0  0  0  0  0  0  0  0
    3.0935   -1.8439   -0.2854 H   0  0  0  0  0  0  0  0  0  0  0  0
    1.9273    0.9713    0.2724 H   0  0  0  0  0  0  0  0  0  0  0  0
    2.6291   -0.1395    1.5093 H   0  0  0  0  0  0  0  0  0  0  0  0
   -4.0312    2.0169   -0.9453 H   0  0  0  0  0  0  0  0  0  0  0  0
   -3.0133    1.7969    0.5168 H   0  0  0  0  0  0  0  0  0  0  0  0
    0.8920   -1.9193    0.9038 H   0  0  0  0  0  0  0  0  0  0  0  0
    0.7399   -2.4427   -0.8169 H   0  0  0  0  0  0  0  0  0  0  0  0
    0.0573   -0.6542   -0.3630 H   0  0  0  0  0  0  0  0  0  0  0  0
    4.1304    1.0461   -0.9162 H   0  0  0  0  0  0  0  0  0  0  0  0
    4.2754    1.5787    0.8017 H   0  0  0  0  0  0  0  0  0  0  0  0
    4.8353   -0.0693    0.3260 H   0  0  0  0  0  0  0  0  0  0  0  0
   -4.9847   -0.2786   -0.6620 H   0  0  0  0  0  0  0  0  0  0  0  0
   -5.2789    0.7647    0.7813 H   0  0  0  0  0  0  0  0  0  0  0  0
   -3.9965   -0.5002    0.8386 H   0  0  0  0  0  0  0  0  0  0  0  0
   -0.7474    0.8912    0.4930 H   0  0  0  0  0  0  0  0  0  0  0  0
   -1.6141   -0.7040    0.6682 H   0  0  0  0  0  0  0  0  0  0  0  0
  1  8  1  0
  1  4  1  0
  2  5  1  0
  2  3  1  0
  2  9  1  0
  2 10  1  0
  3  6  1  0
  3 11  1  0
  3 12  1  0
  4  7  1  0
  4 13  1  0
  4 14  1  0
  5 15  1  0
  5 16  1  0
  5 17  1  0
  6 18  1  0
  6 19  1  0
  6 20  1  0
  7 21  1  0
  7 22  1  0
  7 23  1  0
  8 24  1  0
  8 25  1  0
M  RAD  1   8   2
M  END
>  <reaction>  (17) 
rmg_rxn_520

>  <mol_properties>  (17) 
{"0": {"label": "*1", "atom_type": "Cs"}, "1": {"label": "*0", "atom_type": "S2s"}, "4": {"label": "*2", "atom_type": "H0"}, "12": {"label": "*3", "atom_type": "Cs"}, "13": {"label": "*4", "atom_type": "Cs"}}

>  <type>  (17) 
unop_13

>  <geom_source>  (17) 
AutoTST

$$$$

     RDKit          3D

 25 23  0  0  0  0  0  0  0  0999 V2000
    1.1929    0.1673    1.8262 C   0  0  0  0  0  0  0  0  0  0  0  0
   -0.4502   -0.4116    2.2840 S   0  0  0  0  0  0  0  0  0  0  0  0
   -0.4502   -2.0517    1.5204 C   0  0  0  0  0  0  0  0  0  0  0  0
   -0.4502   -2.0517   -0.0000 C   0  0  0  0  0  0  0  0  0  0  0  0
    1.3077    0.3429    0.5358 H   0  0  0  0  0  0  0  0  0  0  0  0
    1.9599   -0.5258    2.1743 H   0  0  0  0  0  0  0  0  0  0  0  0
    1.3393    1.1266    2.3205 H   0  0  0  0  0  0  0  0  0  0  0  0
   -1.3543   -2.5297    1.9013 H   0  0  0  0  0  0  0  0  0  0  0  0
    0.3990   -2.6166    1.9116 H   0  0  0  0  0  0  0  0  0  0  0  0
    0.4568   -1.5955   -0.3993 H   0  0  0  0  0  0  0  0  0  0  0  0
   -1.3062   -1.4985   -0.3877 H   0  0  0  0  0  0  0  0  0  0  0  0
   -0.4987   -3.0749   -0.3795 H   0  0  0  0  0  0  0  0  0  0  0  0
    1.4227    0.5189   -0.7567 C   0  0  0  0  0  3  0  0  0  0  0  0
    0.0924    0.9060   -1.3884 C   0  0  0  0  0  0  0  0  0  0  0  0
    0.2470    1.5361   -2.7677 C   0  0  0  0  0  0  0  0  0  0  0  0
   -1.0833    1.9232   -3.3994 C   0  0  0  0  0  0  0  0  0  0  0  0
    2.0684    1.3923   -0.6377 H   0  0  0  0  0  0  0  0  0  0  0  0
    1.9562   -0.2033   -1.3793 H   0  0  0  0  0  0  0  0  0  0  0  0
   -0.4361    1.6051   -0.7323 H   0  0  0  0  0  0  0  0  0  0  0  0
   -0.5474    0.0212   -1.4684 H   0  0  0  0  0  0  0  0  0  0  0  0
    0.8869    2.4209   -2.6877 H   0  0  0  0  0  0  0  0  0  0  0  0
    0.7756    0.8370   -3.4238 H   0  0  0  0  0  0  0  0  0  0  0  0
   -1.6168    2.6454   -2.7768 H   0  0  0  0  0  0  0  0  0  0  0  0
   -1.7289    1.0498   -3.5184 H   0  0  0  0  0  0  0  0  0  0  0  0
   -0.9434    2.3712   -4.3845 H   0  0  0  0  0  0  0  0  0  0  0  0
  1  2  1  0
  1  5  1  0
  1  6  1  0
  1  7  1  0
  2  3  1  0
  3  4  1  0
  3  8  1  0
  3  9  1  0
  4 10  1  0
  4 11  1  0
  4 12  1  0
 13 14  1  0
 13 17  1  0
 13 18  1  0
 14 15  1  0
 14 19  1  0
 14 20  1  0
 15 16  1  0
 15 21  1  0
 15 22  1  0
 16 23  1  0
 16 24  1  0
 16 25  1  0
M  RAD  1  13   2
M  END
>  <reaction>  (18) 
rmg_rxn_520

>  <mol_properties>  (18) 
{"0": {"label": "*1", "atom_type": "Cs"}, "1": {"label": "*0", "atom_type": "S2s"}, "4": {"label": "*2", "atom_type": "H0"}, "12": {"label": "*3", "atom_type": "Cs"}, "13": {"label": "*4", "atom_type": "Cs"}}

>  <type>  (18) 
unop_14

>  <geom_source>  (18) 
gaussian_log

$$$$
