
     RDKit          3D

 12 11  0  0  0  0  0  0  0  0999 V2000
    1.8075    0.1979    0.4695 C   0  0  0  0  0  0  0  0  0  0  0  0
    1.0072   -0.8859   -0.7259 S   0  0  0  0  0  0  0  0  0  0  0  0
   -0.7258   -0.6904   -0.2447 C   0  0  0  0  0  0  0  0  0  0  0  0
   -1.0856   -1.2776    1.1108 C   0  0  0  0  0  0  0  0  0  0  0  0
    1.7126   -0.1777    1.4878 H   0  0  0  0  0  0  0  0  0  0  0  0
    1.4024    1.2089    0.4095 H   0  0  0  0  0  0  0  0  0  0  0  0
    2.8647    0.2298    0.2095 H   0  0  0  0  0  0  0  0  0  0  0  0
   -1.2866   -1.1892   -1.0369 H   0  0  0  0  0  0  0  0  0  0  0  0
   -0.9814    0.3707   -0.2917 H   0  0  0  0  0  0  0  0  0  0  0  0
   -0.5492   -0.7768    1.9180 H   0  0  0  0  0  0  0  0  0  0  0  0
   -0.8418   -2.3397    1.1503 H   0  0  0  0  0  0  0  0  0  0  0  0
   -2.1545   -1.1604    1.3035 H   0  0  0  0  0  0  0  0  0  0  0  0
  1  2  1  0
  1  5  1  0
  1  6  1  0
  1  7  1  0
  2  3  1  0
  3  4  1  0
  3  8  1  0
  3  9  1  0
  4 10  1  0
  4 11  1  0
  4 12  1  0
M  END
>  <reaction>  (1) 
rmg_rxn_15589

>  <mol_properties>  (1) 
{"0": {"label": "donator", "atom_type": "Cs"}, "4": {"label": "d_hydrogen", "atom_type": "H0"}}

>  <type>  (1) 
r1h

$$$$

     RDKit          3D

  8  7  0  0  0  0  0  0  0  0999 V2000
    1.7077   -0.1964   -0.0607 C   0  0  0  0  0  3  0  0  0  0  0  0
    0.4209   -0.4565    0.2808 O   0  0  0  0  0  0  0  0  0  0  0  0
   -0.4607    0.4385   -0.2968 N   0  0  0  0  0  0  0  0  0  0  0  0
   -1.6584    0.1416   -0.0244 C   0  0  0  0  0  0  0  0  0  0  0  0
    2.4163   -0.7685    0.5170 H   0  0  0  0  0  0  0  0  0  0  0  0
    1.9214    0.7645   -0.5045 H   0  0  0  0  0  0  0  0  0  0  0  0
   -2.4185    0.7953   -0.4307 H   0  0  0  0  0  0  0  0  0  0  0  0
   -1.9286   -0.7185    0.5831 H   0  0  0  0  0  0  0  0  0  0  0  0
  1  2  1  0
  1  5  1  0
  1  6  1  0
  2  3  1  0
  3  4  2  3
  4  7  1  0
  4  8  1  0
M  RAD  1   1   2
M  END
>  <reaction>  (2) 
rmg_rxn_15589

>  <mol_properties>  (2) 
{"0": {"label": "acceptor", "atom_type": "Cs"}}

>  <type>  (2) 
r2

$$$$

     RDKit          3D

  9  8  0  0  0  0  0  0  0  0999 V2000
   -1.5470   -0.0755   -0.1976 C   0  0  0  0  0  0  0  0  0  0  0  0
   -0.2885    0.4507    0.1749 O   0  0  0  0  0  0  0  0  0  0  0  0
   -0.1502    1.7216   -0.3294 N   0  0  0  0  0  0  0  0  0  0  0  0
    0.9626    2.2353   -0.0219 C   0  0  0  0  0  0  0  0  0  0  0  0
   -1.6392   -0.1356   -1.2844 H   0  0  0  0  0  0  0  0  0  0  0  0
   -2.3597    0.5337    0.2044 H   0  0  0  0  0  0  0  0  0  0  0  0
   -1.5879   -1.0750    0.2318 H   0  0  0  0  0  0  0  0  0  0  0  0
    1.1497    3.2381   -0.3820 H   0  0  0  0  0  0  0  0  0  0  0  0
    1.7060    1.7101    0.5739 H   0  0  0  0  0  0  0  0  0  0  0  0
  1  2  1  0
  1  5  1  0
  1  6  1  0
  1  7  1  0
  2  3  1  0
  3  4  2  3
  4  8  1  0
  4  9  1  0
M  END
>  <reaction>  (3) 
rmg_rxn_15589

>  <mol_properties>  (3) 
{"0": {"label": "acceptor", "atom_type": "Cs"}, "8": {"label": "a_hydrogen", "atom_type": "H0"}}

>  <type>  (3) 
r2h

$$$$

     RDKit          3D

 20 18  0  0  0  0  0  0  0  0999 V2000
   -1.3947   -1.5800   -0.3925 C   0  0  0  0  0  3  0  0  0  0  0  0
   -2.2855   -0.6611    0.1479 O   0  0  0  0  0  0  0  0  0  0  0  0
   -1.9353    0.6220   -0.2032 N   0  0  0  0  0  0  0  0  0  0  0  0
   -2.7035    1.4807    0.3168 C   0  0  0  0  0  0  0  0  0  0  0  0
   -1.7780   -2.5775   -0.1978 H   0  0  0  0  0  0  0  0  0  0  0  0
   -1.1468   -1.3825   -1.4353 H   0  0  0  0  0  0  0  0  0  0  0  0
   -2.4972    2.5167    0.0838 H   0  0  0  0  0  0  0  0  0  0  0  0
   -3.5336    1.2092    0.9648 H   0  0  0  0  0  0  0  0  0  0  0  0
    0.9081   -1.2376    0.9784 C   0  0  0  0  0  0  0  0  0  0  0  0
    2.2008   -0.6940   -0.0870 S   0  0  0  0  0  0  0  0  0  0  0  0
    1.5482    0.8976   -0.6539 C   0  0  0  0  0  0  0  0  0  0  0  0
    1.4620    1.9705    0.4187 C   0  0  0  0  0  0  0  0  0  0  0  0
   -0.2016   -1.4602    0.2797 H   0  0  0  0  0  0  0  0  0  0  0  0
    0.6082   -0.5223    1.7425 H   0  0  0  0  0  0  0  0  0  0  0  0
    1.1679   -2.2018    1.4104 H   0  0  0  0  0  0  0  0  0  0  0  0
    0.5681    0.7274   -1.1010 H   0  0  0  0  0  0  0  0  0  0  0  0
    2.2316    1.2018   -1.4482 H   0  0  0  0  0  0  0  0  0  0  0  0
    2.4340    2.1450    0.8816 H   0  0  0  0  0  0  0  0  0  0  0  0
    0.7537    1.6925    1.2000 H   0  0  0  0  0  0  0  0  0  0  0  0
    1.1132    2.9086   -0.0193 H   0  0  0  0  0  0  0  0  0  0  0  0
  1  2  1  0
  1  5  1  0
  1  6  1  0
  2  3  1  0
  3  4  2  3
  4  7  1  0
  4  8  1  0
  9 10  1  0
  9 13  1  0
  9 14  1  0
  9 15  1  0
 10 11  1  0
 11 12  1  0
 11 16  1  0
 11 17  1  0
 12 18  1  0
 12 19  1  0
 12 20  1  0
M  RAD  1   1   2
M  END
>  <reaction>  (4) 
rmg_rxn_15589

>  <mol_properties>  (4) 
{"0": {"label": "*3", "atom_type": "Cs"}, "1": {"label": "*4", "atom_type": "O2s"}, "8": {"label": "*1", "atom_type": "Cs"}, "9": {"label": "*0", "atom_type": "S2s"}, "12": {"label": "*2", "atom_type": "H0"}}

>  <type>  (4) 
ts

$$$$

     RDKit          3D

 20 18  0  0  0  0  0  0  0  0999 V2000
   -1.3997    1.6992    0.2587 C   0  0  0  0  0  0  0  0  0  0  0  0
   -2.2659    0.7115   -0.2032 O   0  0  0  0  0  0  0  0  0  0  0  0
   -1.9624   -0.5304    0.3132 N   0  0  0  0  0  0  0  0  0  0  0  0
   -2.7049   -1.4839   -0.0545 C   0  0  0  0  0  0  0  0  0  0  0  0
   -1.7955    2.6530   -0.0708 H   0  0  0  0  0  0  0  0  0  0  0  0
   -1.2261    1.6501    1.3323 H   0  0  0  0  0  0  0  0  0  0  0  0
   -2.4732   -2.4545    0.3464 H   0  0  0  0  0  0  0  0  0  0  0  0
   -3.5457   -1.3769   -0.7325 H   0  0  0  0  0  0  0  0  0  0  0  0
    0.9529    1.2761   -0.8828 C   0  0  0  0  0  3  0  0  0  0  0  0
    2.0694    0.6000    0.2934 S   0  0  0  0  0  0  0  0  0  0  0  0
    1.3145   -1.0429    0.5686 C   0  0  0  0  0  0  0  0  0  0  0  0
    1.6290   -2.0215   -0.5467 C   0  0  0  0  0  0  0  0  0  0  0  0
   -0.2181    1.5272   -0.3023 H   0  0  0  0  0  0  0  0  0  0  0  0
    0.7431    0.5959   -1.6999 H   0  0  0  0  0  0  0  0  0  0  0  0
    1.3284    2.2313   -1.2276 H   0  0  0  0  0  0  0  0  0  0  0  0
    0.2388   -0.8931    0.6772 H   0  0  0  0  0  0  0  0  0  0  0  0
    1.7335   -1.3865    1.5135 H   0  0  0  0  0  0  0  0  0  0  0  0
    1.2149   -1.6802   -1.4930 H   0  0  0  0  0  0  0  0  0  0  0  0
    1.1938   -2.9918   -0.3166 H   0  0  0  0  0  0  0  0  0  0  0  0
    2.7043   -2.1394   -0.6620 H   0  0  0  0  0  0  0  0  0  0  0  0
  1  2  1  0
  1  5  1  0
  1  6  1  0
  1 13  1  0
  2  3  1  0
  3  4  2  3
  4  7  1  0
  4  8  1  0
  9 10  1  0
  9 14  1  0
  9 15  1  0
 10 11  1  0
 11 12  1  0
 11 16  1  0
 11 17  1  0
 12 18  1  0
 12 19  1  0
 12 20  1  0
M  RAD  1   9   2
M  END
>  <reaction>  (5) 
rmg_rxn_15589

>  <mol_properties>  (5) 
{"0": {"label": "*3", "atom_type": "Cs"}, "1": {"label": "*4", "atom_type": "O2s"}, "8": {"label": "*1", "atom_type": "Cs"}, "9": {"label": "*0", "atom_type": "S2s"}, "12": {"label": "*2", "atom_type": "H0"}}

>  <type>  (5) 
unop_1

>  <geom_source>  (5) 
crest_best.xyz

$$$$

     RDKit          3D

 20 18  0  0  0  0  0  0  0  0999 V2000
    0.5385    0.2187   -1.0310 C   0  0  0  0  0  0  0  0  0  0  0  0
    0.8577    1.5852   -1.2049 O   0  0  0  0  0  0  0  0  0  0  0  0
    1.7606    1.7228   -2.2319 N   0  0  0  0  0  0  0  0  0  0  0  0
    2.0775    2.9305   -2.4260 C   0  0  0  0  0  0  0  0  0  0  0  0
    0.0828   -0.1941   -1.9338 H   0  0  0  0  0  0  0  0  0  0  0  0
    1.4281   -0.3606   -0.7735 H   0  0  0  0  0  0  0  0  0  0  0  0
    2.7863    3.1242   -3.2200 H   0  0  0  0  0  0  0  0  0  0  0  0
    1.6681    3.7464   -1.8342 H   0  0  0  0  0  0  0  0  0  0  0  0
    0.3089   -0.1325    1.5489 C   0  0  0  0  0  3  0  0  0  0  0  0
   -1.3342   -0.7113    2.0067 S   0  0  0  0  0  0  0  0  0  0  0  0
   -1.3342   -2.3514    1.2430 C   0  0  0  0  0  0  0  0  0  0  0  0
   -1.3342   -2.3514   -0.2774 C   0  0  0  0  0  0  0  0  0  0  0  0
    0.4238    0.0432    0.2585 H   0  0  0  0  0  0  0  0  0  0  0  0
    1.0759   -0.8255    1.8970 H   0  0  0  0  0  0  0  0  0  0  0  0
    0.4554    0.8269    2.0432 H   0  0  0  0  0  0  0  0  0  0  0  0
   -2.2382   -2.8294    1.6239 H   0  0  0  0  0  0  0  0  0  0  0  0
   -0.4850   -2.9163    1.6343 H   0  0  0  0  0  0  0  0  0  0  0  0
   -0.4272   -1.8953   -0.6767 H   0  0  0  0  0  0  0  0  0  0  0  0
   -2.1902   -1.7982   -0.6651 H   0  0  0  0  0  0  0  0  0  0  0  0
   -1.3826   -3.3747   -0.6569 H   0  0  0  0  0  0  0  0  0  0  0  0
  1  2  1  0
  1  5  1  0
  1  6  1  0
  1 13  1  0
  2  3  1  0
  3  4  2  3
  4  7  1  0
  4  8  1  0
  9 10  1  0
  9 14  1  0
  9 15  1  0
 10 11  1  0
 11 12  1  0
 11 16  1  0
 11 17  1  0
 12 18  1  0
 12 19  1  0
 12 20  1  0
M  RAD  1   9   2
M  END
>  <reaction>  (6) 
rmg_rxn_15589

>  <mol_properties>  (6) 
{"0": {"label": "*3", "atom_type": "Cs"}, "1": {"label": "*4", "atom_type": "O2s"}, "8": {"label": "*1", "atom_type": "Cs"}, "9": {"label": "*0", "atom_type": "S2s"}, "12": {"label": "*2", "atom_type": "H0"}}

>  <type>  (6) 
unop_2

>  <geom_source>  (6) 
Heuristics

$$$$

     RDKit          3D

 20 18  0  0  0  0  0  0  0  0999 V2000
   -1.1330   -1.5268   -0.4796 C   0  0  0  0  0  0  0  0  0  0  0  0
   -1.6174   -0.2531   -0.0677 O   0  0  0  0  0  0  0  0  0  0  0  0
   -3.0114   -0.2825    0.0082 N   0  0  0  0  0  0  0  0  0  0  0  0
   -3.5727    0.7955    0.3229 C   0  0  0  0  0  0  0  0  0  0  0  0
   -1.1991   -1.6274   -1.5650 H   0  0  0  0  0  0  0  0  0  0  0  0
   -0.0814   -1.5710   -0.1546 H   0  0  0  0  0  0  0  0  0  0  0  0
   -4.6467    0.7746    0.3908 H   0  0  0  0  0  0  0  0  0  0  0  0
   -3.0544    1.7284    0.5286 H   0  0  0  0  0  0  0  0  0  0  0  0
    1.7668   -1.2513    0.7859 C   0  0  0  0  0  3  0  0  0  0  0  0
    2.5819   -0.1338   -0.2148 S   0  0  0  0  0  0  0  0  0  0  0  0
    1.7109    1.4173    0.2095 C   0  0  0  0  0  0  0  0  0  0  0  0
    0.2806    1.4296   -0.3008 C   0  0  0  0  0  0  0  0  0  0  0  0
   -1.7052   -2.3213   -0.0012 H   0  0  0  0  0  0  0  0  0  0  0  0
    1.4063   -0.8995    1.7353 H   0  0  0  0  0  0  0  0  0  0  0  0
    2.1269   -2.2603    0.7173 H   0  0  0  0  0  0  0  0  0  0  0  0
    2.3101    2.2044   -0.2486 H   0  0  0  0  0  0  0  0  0  0  0  0
    1.7510    1.5231    1.2938 H   0  0  0  0  0  0  0  0  0  0  0  0
   -0.3355    0.6681    0.1643 H   0  0  0  0  0  0  0  0  0  0  0  0
    0.2696    1.2747   -1.3780 H   0  0  0  0  0  0  0  0  0  0  0  0
   -0.1548    2.4083   -0.0983 H   0  0  0  0  0  0  0  0  0  0  0  0
  1  2  1  0
  1  5  1  0
  1  6  1  0
  1 13  1  0
  2  3  1  0
  3  4  2  3
  4  7  1  0
  4  8  1  0
  9 10  1  0
  9 14  1  0
  9 15  1  0
 10 11  1  0
 11 12  1  0
 11 16  1  0
 11 17  1  0
 12 18  1  0
 12 19  1  0
 12 20  1  0
M  RAD  1   9   2
M  END
>  <reaction>  (7) 
rmg_rxn_15589

>  <mol_properties>  (7) 
{"0": {"label": "*3", "atom_type": "Cs"}, "1": {"label": "*4", "atom_type": "O2s"}, "8": {"label": "*1", "atom_type": "Cs"}, "9": {"label": "*0", "atom_type": "S2s"}, "12": {"label": "*2", "atom_type": "H0"}}

>  <type>  (7) 
unop_3

>  <geom_source>  (7) 
Heuristics

$$$$

     RDKit          3D

 20 18  0  0  0  0  0  0  0  0999 V2000
   -1.3978   -1.6985   -0.2613 C   0  0  0  0  0  0  0  0  0  0  0  0
   -2.2658   -0.7128    0.2016 O   0  0  0  0  0  0  0  0  0  0  0  0
   -1.9637    0.5305   -0.3124 N   0  0  0  0  0  0  0  0  0  0  0  0
   -2.7075    1.4822    0.0571 C   0  0  0  0  0  0  0  0  0  0  0  0
   -1.7931   -2.6535    0.0649 H   0  0  0  0  0  0  0  0  0  0  0  0
   -1.2223   -1.6463   -1.3345 H   0  0  0  0  0  0  0  0  0  0  0  0
   -2.4762    2.4542   -0.3407 H   0  0  0  0  0  0  0  0  0  0  0  0
   -3.5485    1.3729    0.7345 H   0  0  0  0  0  0  0  0  0  0  0  0
    0.9527   -1.2748    0.8844 C   0  0  0  0  0  3  0  0  0  0  0  0
    2.0703   -0.6000   -0.2916 S   0  0  0  0  0  0  0  0  0  0  0  0
    1.3147    1.0421   -0.5700 C   0  0  0  0  0  0  0  0  0  0  0  0
    1.6287    2.0229    0.5436 C   0  0  0  0  0  0  0  0  0  0  0  0
   -0.2173   -1.5265    0.3023 H   0  0  0  0  0  0  0  0  0  0  0  0
    0.7417   -0.5934    1.7003 H   0  0  0  0  0  0  0  0  0  0  0  0
    1.3281   -2.2294    1.2310 H   0  0  0  0  0  0  0  0  0  0  0  0
    0.2390    0.8917   -0.6781 H   0  0  0  0  0  0  0  0  0  0  0  0
    1.7334    1.3841   -1.5156 H   0  0  0  0  0  0  0  0  0  0  0  0
    1.1917    2.9922    0.3124 H   0  0  0  0  0  0  0  0  0  0  0  0
    2.7039    2.1426    0.6576 H   0  0  0  0  0  0  0  0  0  0  0  0
    1.2161    1.6824    1.4909 H   0  0  0  0  0  0  0  0  0  0  0  0
  1  2  1  0
  1  5  1  0
  1  6  1  0
  1 13  1  0
  2  3  1  0
  3  4  2  3
  4  7  1  0
  4  8  1  0
  9 10  1  0
  9 14  1  0
  9 15  1  0
 10 11  1  0
 11 12  1  0
 11 16  1  0
 11 17  1  0
 12 18  1  0
 12 19  1  0
 12 20  1  0
M  RAD  1   9   2
M  END
>  <reaction>  (8) 
rmg_rxn_15589

>  <mol_properties>  (8) 
{"0": {"label": "*3", "atom_type": "Cs"}, "1": {"label": "*4", "atom_type": "O2s"}, "8": {"label": "*1", "atom_type": "Cs"}, "9": {"label": "*0", "atom_type": "S2s"}, "12": {"label": "*2", "atom_type": "H0"}}

>  <type>  (8) 
unop_4

>  <geom_source>  (8) 
Heuristics

$$$$

     RDKit          3D

 20 18  0  0  0  0  0  0  0  0999 V2000
   -1.7286   -1.6691    0.3124 C   0  0  0  0  0  0  0  0  0  0  0  0
   -2.5553   -0.5795   -0.0151 O   0  0  0  0  0  0  0  0  0  0  0  0
   -1.8786    0.6152    0.1002 N   0  0  0  0  0  0  0  0  0  0  0  0
   -2.5286    1.6570   -0.1773 C   0  0  0  0  0  0  0  0  0  0  0  0
   -1.2781   -1.6063    1.2838 H   0  0  0  0  0  0  0  0  0  0  0  0
   -2.3065   -2.5703    0.1598 H   0  0  0  0  0  0  0  0  0  0  0  0
   -2.0033    2.5920   -0.0883 H   0  0  0  0  0  0  0  0  0  0  0  0
   -3.5671    1.6642   -0.4934 H   0  0  0  0  0  0  0  0  0  0  0  0
    1.0619   -1.2018   -1.0712 C   0  0  0  0  0  3  0  0  0  0  0  0
    2.0323   -0.7497    0.2625 S   0  0  0  0  0  0  0  0  0  0  0  0
    1.3802    0.9216    0.6223 C   0  0  0  0  0  0  0  0  0  0  0  0
    1.9550    1.9685   -0.3132 C   0  0  0  0  0  0  0  0  0  0  0  0
   -0.7597   -1.6709   -0.2276 H   0  0  0  0  0  0  0  0  0  0  0  0
    0.7126   -0.4224   -1.7225 H   0  0  0  0  0  0  0  0  0  0  0  0
    1.3115   -2.1531   -1.5021 H   0  0  0  0  0  0  0  0  0  0  0  0
    1.6682    1.1228    1.6535 H   0  0  0  0  0  0  0  0  0  0  0  0
    0.2932    0.8656    0.5427 H   0  0  0  0  0  0  0  0  0  0  0  0
    3.0397    2.0015   -0.2353 H   0  0  0  0  0  0  0  0  0  0  0  0
    1.5575    2.9485   -0.0568 H   0  0  0  0  0  0  0  0  0  0  0  0
    1.6899    1.7513   -1.3456 H   0  0  0  0  0  0  0  0  0  0  0  0
  1  2  1  0
  1  5  1  0
  1  6  1  0
  1 13  1  0
  2  3  1  0
  3  4  2  3
  4  7  1  0
  4  8  1  0
  9 10  1  0
  9 14  1  0
  9 15  1  0
 10 11  1  0
 11 12  1  0
 11 16  1  0
 11 17  1  0
 12 18  1  0
 12 19  1  0
 12 20  1  0
M  RAD  1   9   2
M  END
>  <reaction>  (9) 
rmg_rxn_15589

>  <mol_properties>  (9) 
{"0": {"label": "*3", "atom_type": "Cs"}, "1": {"label": "*4", "atom_type": "O2s"}, "8": {"label": "*1", "atom_type": "Cs"}, "9": {"label": "*0", "atom_type": "S2s"}, "12": {"label": "*2", "atom_type": "H0"}}

>  <type>  (9) 
unop_5

>  <geom_source>  (9) 
Heuristics

$$$$

     RDKit          3D

 20 18  0  0  0  0  0  0  0  0999 V2000
    1.3929    0.5439   -0.8673 C   0  0  0  0  0  0  0  0  0  0  0  0
    0.1012    0.8952   -1.3228 O   0  0  0  0  0  0  0  0  0  0  0  0
    0.1920    1.4928   -2.5571 N   0  0  0  0  0  0  0  0  0  0  0  0
   -0.9408    1.8258   -3.0072 C   0  0  0  0  0  0  0  0  0  0  0  0
    1.8676   -0.1663   -1.5481 H   0  0  0  0  0  0  0  0  0  0  0  0
    2.0249    1.4288   -0.7642 H   0  0  0  0  0  0  0  0  0  0  0  0
   -0.9555    2.3041   -3.9774 H   0  0  0  0  0  0  0  0  0  0  0  0
   -1.8643    1.6481   -2.4602 H   0  0  0  0  0  0  0  0  0  0  0  0
    1.1633    0.1927    1.7125 C   0  0  0  0  0  3  0  0  0  0  0  0
   -0.4798   -0.3862    2.1703 S   0  0  0  0  0  0  0  0  0  0  0  0
   -0.4798   -2.0263    1.4067 C   0  0  0  0  0  0  0  0  0  0  0  0
   -0.4798   -2.0263   -0.1137 C   0  0  0  0  0  0  0  0  0  0  0  0
    1.2782    0.3683    0.4221 H   0  0  0  0  0  0  0  0  0  0  0  0
    1.9303   -0.5004    2.0606 H   0  0  0  0  0  0  0  0  0  0  0  0
    1.3098    1.1520    2.2069 H   0  0  0  0  0  0  0  0  0  0  0  0
   -1.3838   -2.5043    1.7876 H   0  0  0  0  0  0  0  0  0  0  0  0
    0.3694   -2.5912    1.7979 H   0  0  0  0  0  0  0  0  0  0  0  0
    0.4272   -1.5701   -0.5130 H   0  0  0  0  0  0  0  0  0  0  0  0
   -1.3358   -1.4731   -0.5014 H   0  0  0  0  0  0  0  0  0  0  0  0
   -0.5282   -3.0495   -0.4932 H   0  0  0  0  0  0  0  0  0  0  0  0
  1  2  1  0
  1  5  1  0
  1  6  1  0
  1 13  1  0
  2  3  1  0
  3  4  2  3
  4  7  1  0
  4  8  1  0
  9 10  1  0
  9 14  1  0
  9 15  1  0
 10 11  1  0
 11 12  1  0
 11 16  1  0
 11 17  1  0
 12 18  1  0
 12 19  1  0
 12 20  1  0
M  RAD  1   9   2
M  END
>  <reaction>  (10) 
rmg_rxn_15589

>  <mol_properties>  (10) 
{"0": {"label": "*3", "atom_type": "Cs"}, "1": {"label": "*4", "atom_type": "O2s"}, "8": {"label": "*1", "atom_type": "Cs"}, "9": {"label": "*0", "atom_type": "S2s"}, "12": {"label": "*2", "atom_type": "H0"}}

>  <type>  (10) 
unop_6

>  <geom_source>  (10) 
Heuristics

$$$$

     RDKit          3D

 20 18  0  0  0  0  0  0  0  0999 V2000
   -1.3982   -1.6998   -0.2594 C   0  0  0  0  0  0  0  0  0  0  0  0
   -2.2646   -0.7127    0.2034 O   0  0  0  0  0  0  0  0  0  0  0  0
   -1.9633    0.5292   -0.3143 N   0  0  0  0  0  0  0  0  0  0  0  0
   -2.7053    1.4824    0.0551 C   0  0  0  0  0  0  0  0  0  0  0  0
   -1.7934   -2.6540    0.0697 H   0  0  0  0  0  0  0  0  0  0  0  0
   -1.2251   -1.6499   -1.3330 H   0  0  0  0  0  0  0  0  0  0  0  0
   -2.4743    2.4532   -0.3458 H   0  0  0  0  0  0  0  0  0  0  0  0
   -3.5442    1.3754    0.7354 H   0  0  0  0  0  0  0  0  0  0  0  0
    0.9538   -1.2755    0.8829 C   0  0  0  0  0  3  0  0  0  0  0  0
    2.0706   -0.5987   -0.2927 S   0  0  0  0  0  0  0  0  0  0  0  0
    1.3142    1.0432   -0.5696 C   0  0  0  0  0  0  0  0  0  0  0  0
    1.6240    2.0221    0.5468 C   0  0  0  0  0  0  0  0  0  0  0  0
   -0.2167   -1.5274    0.3016 H   0  0  0  0  0  0  0  0  0  0  0  0
    0.7428   -0.5952    1.6997 H   0  0  0  0  0  0  0  0  0  0  0  0
    1.3299   -2.2303    1.2282 H   0  0  0  0  0  0  0  0  0  0  0  0
    0.2390    0.8920   -0.6811 H   0  0  0  0  0  0  0  0  0  0  0  0
    1.7354    1.3875   -1.5132 H   0  0  0  0  0  0  0  0  0  0  0  0
    2.6989    2.1404    0.6661 H   0  0  0  0  0  0  0  0  0  0  0  0
    1.2065    1.6808    1.4916 H   0  0  0  0  0  0  0  0  0  0  0  0
    1.1893    2.9922    0.3149 H   0  0  0  0  0  0  0  0  0  0  0  0
  1  2  1  0
  1  5  1  0
  1  6  1  0
  1 13  1  0
  2  3  1  0
  3  4  2  3
  4  7  1  0
  4  8  1  0
  9 10  1  0
  9 14  1  0
  9 15  1  0
 10 11  1  0
 11 12  1  0
 11 16  1  0
 11 17  1  0
 12 18  1  0
 12 19  1  0
 12 20  1  0
M  RAD  1   9   2
M  END
>  <reaction>  (11) 
rmg_rxn_15589

>  <mol_properties>  (11) 
{"0": {"label": "*3", "atom_type": "Cs"}, "1": {"label": "*4", "atom_type": "O2s"}, "8": {"label": "*1", "atom_type": "Cs"}, "9": {"label": "*0", "atom_type": "S2s"}, "12": {"label": "*2", "atom_type": "H0"}}

>  <type>  (11) 
unop_7

>  <geom_source>  (11) 
Heuristics

$$$$

     RDKit          3D

 20 18  0  0  0  0  0  0  0  0999 V2000
    0.3393    0.4123   -0.9928 C   0  0  0  0  0  0  0  0  0  0  0  0
    1.2830    1.4527   -1.1555 O   0  0  0  0  0  0  0  0  0  0  0  0
    1.8993    1.3319   -2.3780 N   0  0  0  0  0  0  0  0  0  0  0  0
    2.7542    2.2424   -2.5701 C   0  0  0  0  0  0  0  0  0  0  0  0
   -0.4337    0.4619   -1.7629 H   0  0  0  0  0  0  0  0  0  0  0  0
    0.8257   -0.5652   -1.0264 H   0  0  0  0  0  0  0  0  0  0  0  0
    3.2852    2.2179   -3.5123 H   0  0  0  0  0  0  0  0  0  0  0  0
    2.9583    3.0190   -1.8361 H   0  0  0  0  0  0  0  0  0  0  0  0
    0.1097    0.0611    1.5871 C   0  0  0  0  0  3  0  0  0  0  0  0
   -1.5334   -0.5177    2.0449 S   0  0  0  0  0  0  0  0  0  0  0  0
   -1.5334   -2.1579    1.2812 C   0  0  0  0  0  0  0  0  0  0  0  0
   -1.5334   -2.1579   -0.2392 C   0  0  0  0  0  0  0  0  0  0  0  0
    0.2245    0.2368    0.2967 H   0  0  0  0  0  0  0  0  0  0  0  0
    0.8767   -0.6319    1.9352 H   0  0  0  0  0  0  0  0  0  0  0  0
    0.2561    1.0205    2.0814 H   0  0  0  0  0  0  0  0  0  0  0  0
   -2.4375   -2.6358    1.6621 H   0  0  0  0  0  0  0  0  0  0  0  0
   -0.6842   -2.7227    1.6725 H   0  0  0  0  0  0  0  0  0  0  0  0
   -0.6264   -1.7017   -0.6385 H   0  0  0  0  0  0  0  0  0  0  0  0
   -2.3894   -1.6046   -0.6269 H   0  0  0  0  0  0  0  0  0  0  0  0
   -1.5819   -3.1811   -0.6187 H   0  0  0  0  0  0  0  0  0  0  0  0
  1  2  1  0
  1  5  1  0
  1  6  1  0
  1 13  1  0
  2  3  1  0
  3  4  2  3
  4  7  1  0
  4  8  1  0
  9 10  1  0
  9 14  1  0
  9 15  1  0
 10 11  1  0
 11 12  1  0
 11 16  1  0
 11 17  1  0
 12 18  1  0
 12 19  1  0
 12 20  1  0
M  RAD  1   9   2
M  END
>  <reaction>  (12) 
rmg_rxn_15589

>  <mol_properties>  (12) 
{"0": {"label": "*3", "atom_type": "Cs"}, "1": {"label": "*4", "atom_type": "O2s"}, "8": {"label": "*1", "atom_type": "Cs"}, "9": {"label": "*0", "atom_type": "S2s"}, "12": {"label": "*2", "atom_type": "H0"}}

>  <type>  (12) 
unop_8

>  <geom_source>  (12) 
Heuristics

$$$$

     RDKit          3D

 20 18  0  0  0  0  0  0  0  0999 V2000
    0.8143    1.3823   -0.8320 C   0  0  0  0  0  0  0  0  0  0  0  0
    0.5625    0.1188   -1.4149 O   0  0  0  0  0  0  0  0  0  0  0  0
    1.3007   -0.0156   -2.5663 N   0  0  0  0  0  0  0  0  0  0  0  0
    1.1086   -1.1325   -3.1251 C   0  0  0  0  0  0  0  0  0  0  0  0
    1.8688    1.4871   -0.5669 H   0  0  0  0  0  0  0  0  0  0  0  0
    0.5265    2.1894   -1.5094 H   0  0  0  0  0  0  0  0  0  0  0  0
    1.6548   -1.3170   -4.0404 H   0  0  0  0  0  0  0  0  0  0  0  0
    0.4320   -1.8819   -2.7200 H   0  0  0  0  0  0  0  0  0  0  0  0
    0.5848    1.0311    1.7478 C   0  0  0  0  0  3  0  0  0  0  0  0
   -1.0584    0.4523    2.2056 S   0  0  0  0  0  0  0  0  0  0  0  0
   -1.0584   -1.1878    1.4419 C   0  0  0  0  0  0  0  0  0  0  0  0
   -1.0584   -1.1878   -0.0784 C   0  0  0  0  0  0  0  0  0  0  0  0
    0.6996    1.2068    0.4574 H   0  0  0  0  0  0  0  0  0  0  0  0
    1.3518    0.3381    2.0959 H   0  0  0  0  0  0  0  0  0  0  0  0
    0.7312    1.9905    2.2421 H   0  0  0  0  0  0  0  0  0  0  0  0
   -1.9624   -1.6658    1.8229 H   0  0  0  0  0  0  0  0  0  0  0  0
   -0.2091   -1.7527    1.8332 H   0  0  0  0  0  0  0  0  0  0  0  0
   -0.1514   -0.7317   -0.4777 H   0  0  0  0  0  0  0  0  0  0  0  0
   -1.9143   -0.6346   -0.4662 H   0  0  0  0  0  0  0  0  0  0  0  0
   -1.1068   -2.2111   -0.4580 H   0  0  0  0  0  0  0  0  0  0  0  0
  1  2  1  0
  1  5  1  0
  1  6  1  0
  1 13  1  0
  2  3  1  0
  3  4  2  3
  4  7  1  0
  4  8  1  0
  9 10  1  0
  9 14  1  0
  9 15  1  0
 10 11  1  0
 11 12  1  0
 11 16  1  0
 11 17  1  0
 12 18  1  0
 12 19  1  0
 12 20  1  0
M  RAD  1   9   2
M  END
>  <reaction>  (13) 
rmg_rxn_15589

>  <mol_properties>  (13) 
{"0": {"label": "*3", "atom_type": "Cs"}, "1": {"label": "*4", "atom_type": "O2s"}, "8": {"label": "*1", "atom_type": "Cs"}, "9": {"label": "*0", "atom_type": "S2s"}, "12": {"label": "*2", "atom_type": "H0"}}

>  <type>  (13) 
unop_9

>  <geom_source>  (13) 
Heuristics

$$$$

     RDKit          3D

 20 18  0  0  0  0  0  0  0  0999 V2000
   -1.7377    1.6695    0.3097 C   0  0  0  0  0  0  0  0  0  0  0  0
   -2.5567    0.5745   -0.0200 O   0  0  0  0  0  0  0  0  0  0  0  0
   -1.8744   -0.6162    0.1037 N   0  0  0  0  0  0  0  0  0  0  0  0
   -2.5171   -1.6627   -0.1731 C   0  0  0  0  0  0  0  0  0  0  0  0
   -2.3187    2.5668    0.1453 H   0  0  0  0  0  0  0  0  0  0  0  0
   -1.3013    1.6147    1.2887 H   0  0  0  0  0  0  0  0  0  0  0  0
   -1.9869   -2.5942   -0.0776 H   0  0  0  0  0  0  0  0  0  0  0  0
   -3.5539   -1.6771   -0.4945 H   0  0  0  0  0  0  0  0  0  0  0  0
    1.0584    1.2057   -1.0669 C   0  0  0  0  0  3  0  0  0  0  0  0
    2.0314    0.7516    0.2641 S   0  0  0  0  0  0  0  0  0  0  0  0
    1.3819   -0.9213    0.6211 C   0  0  0  0  0  0  0  0  0  0  0  0
    1.9550   -1.9653   -0.3188 C   0  0  0  0  0  0  0  0  0  0  0  0
   -0.7651    1.6728   -0.2253 H   0  0  0  0  0  0  0  0  0  0  0  0
    0.7085    0.4272   -1.7193 H   0  0  0  0  0  0  0  0  0  0  0  0
    1.3065    2.1579   -1.4964 H   0  0  0  0  0  0  0  0  0  0  0  0
    0.2946   -0.8658    0.5446 H   0  0  0  0  0  0  0  0  0  0  0  0
    1.6729   -1.1251    1.6509 H   0  0  0  0  0  0  0  0  0  0  0  0
    3.0400   -1.9978   -0.2438 H   0  0  0  0  0  0  0  0  0  0  0  0
    1.6872   -1.7454   -1.3500 H   0  0  0  0  0  0  0  0  0  0  0  0
    1.5589   -2.9462   -0.0641 H   0  0  0  0  0  0  0  0  0  0  0  0
  1  2  1  0
  1  5  1  0
  1  6  1  0
  1 13  1  0
  2  3  1  0
  3  4  2  3
  4  7  1  0
  4  8  1  0
  9 10  1  0
  9 14  1  0
  9 15  1  0
 10 11  1  0
 11 12  1  0
 11 16  1  0
 11 17  1  0
 12 18  1  0
 12 19  1  0
 12 20  1  0
M  RAD  1   9   2
M  END
>  <reaction>  (14) 
rmg_rxn_15589

>  <mol_properties>  (14) 
{"0": {"label": "*3", "atom_type": "Cs"}, "1": {"label": "*4", "atom_type": "O2s"}, "8": {"label": "*1", "atom_type": "Cs"}, "9": {"label": "*0", "atom_type": "S2s"}, "12": {"label": "*2", "atom_type": "H0"}}

>  <type>  (14) 
unop_10

>  <geom_source>  (14) 
Heuristics

$$$$

     RDKit          3D

 20 18  0  0  0  0  0  0  0  0999 V2000
    0.2686    0.5873   -0.9471 C   0  0  0  0  0  0  0  0  0  0  0  0
    1.5929    1.0367   -1.1565 O   0  0  0  0  0  0  0  0  0  0  0  0
    1.8034    1.2487   -2.4979 N   0  0  0  0  0  0  0  0  0  0  0  0
    2.9769    1.6525   -2.7358 C   0  0  0  0  0  0  0  0  0  0  0  0
   -0.4549    1.3327   -1.2850 H   0  0  0  0  0  0  0  0  0  0  0  0
    0.0896   -0.3568   -1.4665 H   0  0  0  0  0  0  0  0  0  0  0  0
    3.2233    1.8433   -3.7717 H   0  0  0  0  0  0  0  0  0  0  0  0
    3.7144    1.8059   -1.9508 H   0  0  0  0  0  0  0  0  0  0  0  0
    0.0390    0.2361    1.6328 C   0  0  0  0  0  3  0  0  0  0  0  0
   -1.6041   -0.3427    2.0905 S   0  0  0  0  0  0  0  0  0  0  0  0
   -1.6041   -1.9828    1.3269 C   0  0  0  0  0  0  0  0  0  0  0  0
   -1.6041   -1.9828   -0.1935 C   0  0  0  0  0  0  0  0  0  0  0  0
    0.1538    0.4118    0.3423 H   0  0  0  0  0  0  0  0  0  0  0  0
    0.8060   -0.4569    1.9809 H   0  0  0  0  0  0  0  0  0  0  0  0
    0.1855    1.1955    2.1271 H   0  0  0  0  0  0  0  0  0  0  0  0
   -2.5082   -2.4608    1.7078 H   0  0  0  0  0  0  0  0  0  0  0  0
   -0.7549   -2.5477    1.7181 H   0  0  0  0  0  0  0  0  0  0  0  0
   -0.6971   -1.5266   -0.5928 H   0  0  0  0  0  0  0  0  0  0  0  0
   -2.4601   -1.4296   -0.5812 H   0  0  0  0  0  0  0  0  0  0  0  0
   -1.6526   -3.0061   -0.5730 H   0  0  0  0  0  0  0  0  0  0  0  0
  1  2  1  0
  1  5  1  0
  1  6  1  0
  1 13  1  0
  2  3  1  0
  3  4  2  3
  4  7  1  0
  4  8  1  0
  9 10  1  0
  9 14  1  0
  9 15  1  0
 10 11  1  0
 11 12  1  0
 11 16  1  0
 11 17  1  0
 12 18  1  0
 12 19  1  0
 12 20  1  0
M  RAD  1   9   2
M  END
>  <reaction>  (15) 
rmg_rxn_15589

>  <mol_properties>  (15) 
{"0": {"label": "*3", "atom_type": "Cs"}, "1": {"label": "*4", "atom_type": "O2s"}, "8": {"label": "*1", "atom_type": "Cs"}, "9": {"label": "*0", "atom_type": "S2s"}, "12": {"label": "*2", "atom_type": "H0"}}

>  <type>  (15) 
unop_11

>  <geom_source>  (15) 
Heuristics

$$$$

     RDKit          3D

 20 18  0  0  0  0  0  0  0  0999 V2000
   -1.7242   -1.6720    0.3907 C   0  0  0  0  0  0  0  0  0  0  0  0
   -2.5244   -0.6077   -0.0564 O   0  0  0  0  0  0  0  0  0  0  0  0
   -1.8897    0.6042    0.1369 N   0  0  0  0  0  0  0  0  0  0  0  0
   -2.5273    1.6311   -0.2118 C   0  0  0  0  0  0  0  0  0  0  0  0
   -1.6665   -1.7395    1.4740 H   0  0  0  0  0  0  0  0  0  0  0  0
   -2.0553   -2.5753   -0.0760 H   0  0  0  0  0  0  0  0  0  0  0  0
   -2.0353    2.5772   -0.0667 H   0  0  0  0  0  0  0  0  0  0  0  0
   -3.5242    1.6166   -0.6420 H   0  0  0  0  0  0  0  0  0  0  0  0
    1.0559   -1.1999   -1.0583 C   0  0  0  0  0  3  0  0  0  0  0  0
    2.0842   -0.7219    0.2203 S   0  0  0  0  0  0  0  0  0  0  0  0
    1.3746    0.9077    0.6537 C   0  0  0  0  0  0  0  0  0  0  0  0
    1.8406    1.9998   -0.2906 C   0  0  0  0  0  0  0  0  0  0  0  0
   -0.7253   -1.6903   -0.0883 H   0  0  0  0  0  0  0  0  0  0  0  0
    0.6366   -0.4300   -1.6791 H   0  0  0  0  0  0  0  0  0  0  0  0
    1.3130   -2.1385   -1.5118 H   0  0  0  0  0  0  0  0  0  0  0  0
    1.7134    1.1032    1.6703 H   0  0  0  0  0  0  0  0  0  0  0  0
    0.2888    0.7999    0.6357 H   0  0  0  0  0  0  0  0  0  0  0  0
    2.9252    2.0845   -0.2774 H   0  0  0  0  0  0  0  0  0  0  0  0
    1.4130    2.9537    0.0114 H   0  0  0  0  0  0  0  0  0  0  0  0
    1.5233    1.7901   -1.3098 H   0  0  0  0  0  0  0  0  0  0  0  0
  1  2  1  0
  1  5  1  0
  1  6  1  0
  1 13  1  0
  2  3  1  0
  3  4  2  3
  4  7  1  0
  4  8  1  0
  9 10  1  0
  9 14  1  0
  9 15  1  0
 10 11  1  0
 11 12  1  0
 11 16  1  0
 11 17  1  0
 12 18  1  0
 12 19  1  0
 12 20  1  0
M  RAD  1   9   2
M  END
>  <reaction>  (16) 
rmg_rxn_15589

>  <mol_properties>  (16) 
{"0": {"label": "*3", "atom_type": "Cs"}, "1": {"label": "*4", "atom_type": "O2s"}, "8": {"label": "*1", "atom_type": "Cs"}, "9": {"label": "*0", "atom_type": "S2s"}, "12": {"label": "*2", "atom_type": "H0"}}

>  <type>  (16) 
unop_12

>  <geom_source>  (16) 
Heuristics

$$$$

     RDKit          3D

 20 18  0  0  0  0  0  0  0  0999 V2000
    0.4818    1.2933   -0.8922 C   0  0  0  0  0  0  0  0  0  0  0  0
    0.9309    0.0560   -1.4091 O   0  0  0  0  0  0  0  0  0  0  0  0
    1.8436    0.2772   -2.4125 N   0  0  0  0  0  0  0  0  0  0  0  0
    2.2751   -0.8024   -2.9074 C   0  0  0  0  0  0  0  0  0  0  0  0
    1.3115    1.8643   -0.4693 H   0  0  0  0  0  0  0  0  0  0  0  0
   -0.0107    1.8848   -1.6672 H   0  0  0  0  0  0  0  0  0  0  0  0
    2.9998   -0.7143   -3.7057 H   0  0  0  0  0  0  0  0  0  0  0  0
    1.9455   -1.7794   -2.5603 H   0  0  0  0  0  0  0  0  0  0  0  0
    0.2523    0.9421    1.6876 C   0  0  0  0  0  3  0  0  0  0  0  0
   -1.3909    0.3632    2.1454 S   0  0  0  0  0  0  0  0  0  0  0  0
   -1.3909   -1.2769    1.3818 C   0  0  0  0  0  0  0  0  0  0  0  0
   -1.3909   -1.2769   -0.1386 C   0  0  0  0  0  0  0  0  0  0  0  0
    0.3671    1.1177    0.3972 H   0  0  0  0  0  0  0  0  0  0  0  0
    1.0193    0.2490    2.0357 H   0  0  0  0  0  0  0  0  0  0  0  0
    0.3987    1.9014    2.1820 H   0  0  0  0  0  0  0  0  0  0  0  0
   -2.2949   -1.7549    1.7627 H   0  0  0  0  0  0  0  0  0  0  0  0
   -0.5416   -1.8418    1.7730 H   0  0  0  0  0  0  0  0  0  0  0  0
   -0.4839   -0.8207   -0.5379 H   0  0  0  0  0  0  0  0  0  0  0  0
   -2.2468   -0.7237   -0.5263 H   0  0  0  0  0  0  0  0  0  0  0  0
   -1.4393   -2.3001   -0.5181 H   0  0  0  0  0  0  0  0  0  0  0  0
  1  2  1  0
  1  5  1  0
  1  6  1  0
  1 13  1  0
  2  3  1  0
  3  4  2  3
  4  7  1  0
  4  8  1  0
  9 10  1  0
  9 14  1  0
  9 15  1  0
 10 11  1  0
 11 12  1  0
 11 16  1  0
 11 17  1  0
 12 18  1  0
 12 19  1  0
 12 20  1  0
M  RAD  1   9   2
M  END
>  <reaction>  (17) 
rmg_rxn_15589

>  <mol_properties>  (17) 
{"0": {"label": "*3", "atom_type": "Cs"}, "1": {"label": "*4", "atom_type": "O2s"}, "8": {"label": "*1", "atom_type": "Cs"}, "9": {"label": "*0", "atom_type": "S2s"}, "12": {"label": "*2", "atom_type": "H0"}}

>  <type>  (17) 
unop_13

>  <geom_source>  (17) 
Heuristics

$$$$

     RDKit          3D

 20 18  0  0  0  0  0  0  0  0999 V2000
   -1.3934    1.7011   -0.2607 C   0  0  0  0  0  0  0  0  0  0  0  0
   -2.2618    0.7163    0.2033 O   0  0  0  0  0  0  0  0  0  0  0  0
   -1.9649   -0.5265   -0.3149 N   0  0  0  0  0  0  0  0  0  0  0  0
   -2.7089   -1.4774    0.0561 C   0  0  0  0  0  0  0  0  0  0  0  0
   -1.2203    1.6495   -1.3343 H   0  0  0  0  0  0  0  0  0  0  0  0
   -1.7867    2.6565    0.0673 H   0  0  0  0  0  0  0  0  0  0  0  0
   -2.4820   -2.4489   -0.3455 H   0  0  0  0  0  0  0  0  0  0  0  0
   -3.5465   -1.3677    0.7376 H   0  0  0  0  0  0  0  0  0  0  0  0
    0.9577    1.2748    0.8826 C   0  0  0  0  0  3  0  0  0  0  0  0
    2.0739    0.5946   -0.2916 S   0  0  0  0  0  0  0  0  0  0  0  0
    1.3117   -1.0443   -0.5708 C   0  0  0  0  0  0  0  0  0  0  0  0
    1.6130   -2.0243    0.5469 C   0  0  0  0  0  0  0  0  0  0  0  0
   -0.2121    1.5275    0.3005 H   0  0  0  0  0  0  0  0  0  0  0  0
    1.3353    2.2295    1.2266 H   0  0  0  0  0  0  0  0  0  0  0  0
    0.7454    0.5962    1.7004 H   0  0  0  0  0  0  0  0  0  0  0  0
    1.7351   -1.3904   -1.5128 H   0  0  0  0  0  0  0  0  0  0  0  0
    0.2376   -0.8888   -0.6864 H   0  0  0  0  0  0  0  0  0  0  0  0
    1.1752   -2.9927    0.3132 H   0  0  0  0  0  0  0  0  0  0  0  0
    1.1930   -1.6812    1.4900 H   0  0  0  0  0  0  0  0  0  0  0  0
    2.6869   -2.1471    0.6707 H   0  0  0  0  0  0  0  0  0  0  0  0
  1  2  1  0
  1  5  1  0
  1  6  1  0
  1 13  1  0
  2  3  1  0
  3  4  2  3
  4  7  1  0
  4  8  1  0
  9 10  1  0
  9 14  1  0
  9 15  1  0
 10 11  1  0
 11 12  1  0
 11 16  1  0
 11 17  1  0
 12 18  1  0
 12 19  1  0
 12 20  1  0
M  RAD  1   9   2
M  END
>  <reaction>  (18) 
rmg_rxn_15589

>  <mol_properties>  (18) 
{"0": {"label": "*3", "atom_type": "Cs"}, "1": {"label": "*4", "atom_type": "O2s"}, "8": {"label": "*1", "atom_type": "Cs"}, "9": {"label": "*0", "atom_type": "S2s"}, "12": {"label": "*2", "atom_type": "H0"}}

>  <type>  (18) 
unop_14

>  <geom_source>  (18) 
Heuristics

$$$$

     RDKit          3D

 20 18  0  0  0  0  0  0  0  0999 V2000
    0.2699    1.0518   -0.9414 C   0  0  0  0  0  0  0  0  0  0  0  0
    1.3087    0.1862   -1.3552 O   0  0  0  0  0  0  0  0  0  0  0  0
    2.0591    0.7967   -2.3314 N   0  0  0  0  0  0  0  0  0  0  0  0
    3.0030    0.0596   -2.7345 C   0  0  0  0  0  0  0  0  0  0  0  0
    0.6749    1.9758   -0.5225 H   0  0  0  0  0  0  0  0  0  0  0  0
   -0.3955    1.2897   -1.7744 H   0  0  0  0  0  0  0  0  0  0  0  0
    3.6423    0.4687   -3.5053 H   0  0  0  0  0  0  0  0  0  0  0  0
    3.1781   -0.9380   -2.3376 H   0  0  0  0  0  0  0  0  0  0  0  0
    0.0404    0.7006    1.6384 C   0  0  0  0  0  3  0  0  0  0  0  0
   -1.6028    0.1218    2.0962 S   0  0  0  0  0  0  0  0  0  0  0  0
   -1.6028   -1.5183    1.3325 C   0  0  0  0  0  0  0  0  0  0  0  0
   -1.6028   -1.5183   -0.1878 C   0  0  0  0  0  0  0  0  0  0  0  0
    0.1552    0.8763    0.3480 H   0  0  0  0  0  0  0  0  0  0  0  0
    0.8074    0.0076    1.9865 H   0  0  0  0  0  0  0  0  0  0  0  0
    0.1868    1.6600    2.1327 H   0  0  0  0  0  0  0  0  0  0  0  0
   -2.5068   -1.9963    1.7134 H   0  0  0  0  0  0  0  0  0  0  0  0
   -0.7535   -2.0832    1.7238 H   0  0  0  0  0  0  0  0  0  0  0  0
   -0.6958   -1.0622   -0.5871 H   0  0  0  0  0  0  0  0  0  0  0  0
   -2.4587   -0.9651   -0.5756 H   0  0  0  0  0  0  0  0  0  0  0  0
   -1.6512   -2.5416   -0.5674 H   0  0  0  0  0  0  0  0  0  0  0  0
  1  2  1  0
  1  5  1  0
  1  6  1  0
  1 13  1  0
  2  3  1  0
  3  4  2  3
  4  7  1  0
  4  8  1  0
  9 10  1  0
  9 14  1  0
  9 15  1  0
 10 11  1  0
 11 12  1  0
 11 16  1  0
 11 17  1  0
 12 18  1  0
 12 19  1  0
 12 20  1  0
M  RAD  1   9   2
M  END
>  <reaction>  (19) 
rmg_rxn_15589

>  <mol_properties>  (19) 
{"0": {"label": "*3", "atom_type": "Cs"}, "1": {"label": "*4", "atom_type": "O2s"}, "8": {"label": "*1", "atom_type": "Cs"}, "9": {"label": "*0", "atom_type": "S2s"}, "12": {"label": "*2", "atom_type": "H0"}}

>  <type>  (19) 
unop_15

>  <geom_source>  (19) 
Heuristics

$$$$

     RDKit          3D

 20 18  0  0  0  0  0  0  0  0999 V2000
   -1.7243    1.6770    0.3744 C   0  0  0  0  0  0  0  0  0  0  0  0
   -2.5236    0.6088   -0.0659 O   0  0  0  0  0  0  0  0  0  0  0  0
   -1.8916   -0.6017    0.1431 N   0  0  0  0  0  0  0  0  0  0  0  0
   -2.5304   -1.6315   -0.1949 C   0  0  0  0  0  0  0  0  0  0  0  0
   -2.0596    2.5766   -0.0977 H   0  0  0  0  0  0  0  0  0  0  0  0
   -1.6696    1.7521    1.4575 H   0  0  0  0  0  0  0  0  0  0  0  0
   -2.0404   -2.5767   -0.0378 H   0  0  0  0  0  0  0  0  0  0  0  0
   -3.5265   -1.6203   -0.6270 H   0  0  0  0  0  0  0  0  0  0  0  0
    1.0668    1.2082   -1.0493 C   0  0  0  0  0  3  0  0  0  0  0  0
    2.0849    0.7172    0.2326 S   0  0  0  0  0  0  0  0  0  0  0  0
    1.3715   -0.9162    0.6451 C   0  0  0  0  0  0  0  0  0  0  0  0
    1.8352   -1.9977   -0.3124 C   0  0  0  0  0  0  0  0  0  0  0  0
   -0.7220    1.6884   -0.1001 H   0  0  0  0  0  0  0  0  0  0  0  0
    0.6548    0.4446   -1.6827 H   0  0  0  0  0  0  0  0  0  0  0  0
    1.3279    2.1515   -1.4905 H   0  0  0  0  0  0  0  0  0  0  0  0
    0.2860   -0.8058    0.6285 H   0  0  0  0  0  0  0  0  0  0  0  0
    1.7097   -1.1249    1.6592 H   0  0  0  0  0  0  0  0  0  0  0  0
    2.9198   -2.0843   -0.3010 H   0  0  0  0  0  0  0  0  0  0  0  0
    1.5176   -1.7758   -1.3289 H   0  0  0  0  0  0  0  0  0  0  0  0
    1.4063   -2.9544   -0.0215 H   0  0  0  0  0  0  0  0  0  0  0  0
  1  2  1  0
  1  5  1  0
  1  6  1  0
  1 13  1  0
  2  3  1  0
  3  4  2  3
  4  7  1  0
  4  8  1  0
  9 10  1  0
  9 14  1  0
  9 15  1  0
 10 11  1  0
 11 12  1  0
 11 16  1  0
 11 17  1  0
 12 18  1  0
 12 19  1  0
 12 20  1  0
M  RAD  1   9   2
M  END
>  <reaction>  (20) 
rmg_rxn_15589

>  <mol_properties>  (20) 
{"0": {"label": "*3", "atom_type": "Cs"}, "1": {"label": "*4", "atom_type": "O2s"}, "8": {"label": "*1", "atom_type": "Cs"}, "9": {"label": "*0", "atom_type": "S2s"}, "12": {"label": "*2", "atom_type": "H0"}}

>  <type>  (20) 
unop_16

>  <geom_source>  (20) 
Heuristics

$$$$

     RDKit          3D

 20 18  0  0  0  0  0  0  0  0999 V2000
    0.8535    0.1402   -1.0161 C   0  0  0  0  0  0  0  0  0  0  0  0
    0.4718    1.4805   -1.2560 O   0  0  0  0  0  0  0  0  0  0  0  0
    1.2798    2.0259   -2.2247 N   0  0  0  0  0  0  0  0  0  0  0  0
    0.9763    3.2268   -2.4745 C   0  0  0  0  0  0  0  0  0  0  0  0
    0.7465   -0.4642   -1.9196 H   0  0  0  0  0  0  0  0  0  0  0  0
    1.8849    0.0854   -0.6604 H   0  0  0  0  0  0  0  0  0  0  0  0
    1.5674    3.7295   -3.2283 H   0  0  0  0  0  0  0  0  0  0  0  0
    0.1651    3.7441   -1.9668 H   0  0  0  0  0  0  0  0  0  0  0  0
    0.6239   -0.2110    1.5638 C   0  0  0  0  0  3  0  0  0  0  0  0
   -1.0192   -0.7898    2.0215 S   0  0  0  0  0  0  0  0  0  0  0  0
   -1.0192   -2.4299    1.2579 C   0  0  0  0  0  0  0  0  0  0  0  0
   -1.0192   -2.4299   -0.2625 C   0  0  0  0  0  0  0  0  0  0  0  0
    0.7388   -0.0353    0.2734 H   0  0  0  0  0  0  0  0  0  0  0  0
    1.3909   -0.9040    1.9119 H   0  0  0  0  0  0  0  0  0  0  0  0
    0.7704    0.7484    2.0581 H   0  0  0  0  0  0  0  0  0  0  0  0
   -1.9232   -2.9079    1.6388 H   0  0  0  0  0  0  0  0  0  0  0  0
   -0.1699   -2.9948    1.6492 H   0  0  0  0  0  0  0  0  0  0  0  0
   -0.1122   -1.9737   -0.6618 H   0  0  0  0  0  0  0  0  0  0  0  0
   -1.8752   -1.8767   -0.6502 H   0  0  0  0  0  0  0  0  0  0  0  0
   -1.0676   -3.4532   -0.6420 H   0  0  0  0  0  0  0  0  0  0  0  0
  1  2  1  0
  1  5  1  0
  1  6  1  0
  1 13  1  0
  2  3  1  0
  3  4  2  3
  4  7  1  0
  4  8  1  0
  9 10  1  0
  9 14  1  0
  9 15  1  0
 10 11  1  0
 11 12  1  0
 11 16  1  0
 11 17  1  0
 12 18  1  0
 12 19  1  0
 12 20  1  0
M  RAD  1   9   2
M  END
>  <reaction>  (21) 
rmg_rxn_15589

>  <mol_properties>  (21) 
{"0": {"label": "*3", "atom_type": "Cs"}, "1": {"label": "*4", "atom_type": "O2s"}, "8": {"label": "*1", "atom_type": "Cs"}, "9": {"label": "*0", "atom_type": "S2s"}, "12": {"label": "*2", "atom_type": "H0"}}

>  <type>  (21) 
unop_17

>  <geom_source>  (21) 
Heuristics

$$$$

     RDKit          3D

 20 18  0  0  0  0  0  0  0  0999 V2000
   -1.3997    1.6992    0.2587 C   0  0  0  0  0  0  0  0  0  0  0  0
   -2.2659    0.7115   -0.2032 O   0  0  0  0  0  0  0  0  0  0  0  0
   -1.9624   -0.5304    0.3132 N   0  0  0  0  0  0  0  0  0  0  0  0
   -2.7049   -1.4839   -0.0545 C   0  0  0  0  0  0  0  0  0  0  0  0
   -1.7955    2.6530   -0.0708 H   0  0  0  0  0  0  0  0  0  0  0  0
   -1.2261    1.6501    1.3323 H   0  0  0  0  0  0  0  0  0  0  0  0
   -2.4732   -2.4545    0.3464 H   0  0  0  0  0  0  0  0  0  0  0  0
   -3.5457   -1.3769   -0.7325 H   0  0  0  0  0  0  0  0  0  0  0  0
    0.9529    1.2761   -0.8828 C   0  0  0  0  0  3  0  0  0  0  0  0
    2.0694    0.6000    0.2934 S   0  0  0  0  0  0  0  0  0  0  0  0
    1.3145   -1.0429    0.5686 C   0  0  0  0  0  0  0  0  0  0  0  0
    1.6290   -2.0215   -0.5467 C   0  0  0  0  0  0  0  0  0  0  0  0
   -0.2181    1.5272   -0.3023 H   0  0  0  0  0  0  0  0  0  0  0  0
    0.7431    0.5959   -1.6999 H   0  0  0  0  0  0  0  0  0  0  0  0
    1.3284    2.2313   -1.2276 H   0  0  0  0  0  0  0  0  0  0  0  0
    0.2388   -0.8931    0.6772 H   0  0  0  0  0  0  0  0  0  0  0  0
    1.7335   -1.3865    1.5135 H   0  0  0  0  0  0  0  0  0  0  0  0
    1.2149   -1.6802   -1.4930 H   0  0  0  0  0  0  0  0  0  0  0  0
    1.1938   -2.9918   -0.3166 H   0  0  0  0  0  0  0  0  0  0  0  0
    2.7043   -2.1394   -0.6620 H   0  0  0  0  0  0  0  0  0  0  0  0
  1  2  1  0
  1  5  1  0
  1  6  1  0
  1 13  1  0
  2  3  1  0
  3  4  2  3
  4  7  1  0
  4  8  1  0
  9 10  1  0
  9 14  1  0
  9 15  1  0
 10 11  1  0
 11 12  1  0
 11 16  1  0
 11 17  1  0
 12 18  1  0
 12 19  1  0
 12 20  1  0
M  RAD  1   9   2
M  END
>  <reaction>  (22) 
rmg_rxn_15589

>  <mol_properties>  (22) 
{"0": {"label": "*3", "atom_type": "Cs"}, "1": {"label": "*4", "atom_type": "O2s"}, "8": {"label": "*1", "atom_type": "Cs"}, "9": {"label": "*0", "atom_type": "S2s"}, "12": {"label": "*2", "atom_type": "H0"}}

>  <type>  (22) 
unop_18

>  <geom_source>  (22) 
Heuristics

$$$$

     RDKit          3D

 20 18  0  0  0  0  0  0  0  0999 V2000
    1.1633    1.2563   -0.7907 C   0  0  0  0  0  0  0  0  0  0  0  0
    0.2869    0.3188   -1.3848 O   0  0  0  0  0  0  0  0  0  0  0  0
    0.6296    0.1351   -2.7029 N   0  0  0  0  0  0  0  0  0  0  0  0
   -0.1277   -0.6969   -3.2782 C   0  0  0  0  0  0  0  0  0  0  0  0
    2.1954    0.8999   -0.8210 H   0  0  0  0  0  0  0  0  0  0  0  0
    1.0968    2.2249   -1.2912 H   0  0  0  0  0  0  0  0  0  0  0  0
    0.0766   -0.8978   -4.3214 H   0  0  0  0  0  0  0  0  0  0  0  0
   -0.9478   -1.1950   -2.7657 H   0  0  0  0  0  0  0  0  0  0  0  0
    0.9337    0.9051    1.7891 C   0  0  0  0  0  3  0  0  0  0  0  0
   -0.7094    0.3262    2.2469 S   0  0  0  0  0  0  0  0  0  0  0  0
   -0.7094   -1.3139    1.4832 C   0  0  0  0  0  0  0  0  0  0  0  0
   -0.7094   -1.3139   -0.0371 C   0  0  0  0  0  0  0  0  0  0  0  0
    1.0485    1.0807    0.4987 H   0  0  0  0  0  0  0  0  0  0  0  0
    1.7007    0.2120    2.1372 H   0  0  0  0  0  0  0  0  0  0  0  0
    1.0801    1.8645    2.2834 H   0  0  0  0  0  0  0  0  0  0  0  0
   -1.6135   -1.7919    1.8642 H   0  0  0  0  0  0  0  0  0  0  0  0
    0.1398   -1.8788    1.8745 H   0  0  0  0  0  0  0  0  0  0  0  0
    0.1976   -0.8577   -0.4364 H   0  0  0  0  0  0  0  0  0  0  0  0
   -1.5654   -0.7607   -0.4249 H   0  0  0  0  0  0  0  0  0  0  0  0
   -0.7579   -2.3371   -0.4167 H   0  0  0  0  0  0  0  0  0  0  0  0
  1  2  1  0
  1  5  1  0
  1  6  1  0
  1 13  1  0
  2  3  1  0
  3  4  2  3
  4  7  1  0
  4  8  1  0
  9 10  1  0
  9 14  1  0
  9 15  1  0
 10 11  1  0
 11 12  1  0
 11 16  1  0
 11 17  1  0
 12 18  1  0
 12 19  1  0
 12 20  1  0
M  RAD  1   9   2
M  END
>  <reaction>  (23) 
rmg_rxn_15589

>  <mol_properties>  (23) 
{"0": {"label": "*3", "atom_type": "Cs"}, "1": {"label": "*4", "atom_type": "O2s"}, "8": {"label": "*1", "atom_type": "Cs"}, "9": {"label": "*0", "atom_type": "S2s"}, "12": {"label": "*2", "atom_type": "H0"}}

>  <type>  (23) 
unop_19

>  <geom_source>  (23) 
Heuristics

$$$$

     RDKit          3D

 20 18  0  0  0  0  0  0  0  0999 V2000
    1.1793    0.2502   -0.9537 C   0  0  0  0  0  0  0  0  0  0  0  0
    0.2079    1.2189   -1.2967 O   0  0  0  0  0  0  0  0  0  0  0  0
    0.6594    1.9738   -2.3526 N   0  0  0  0  0  0  0  0  0  0  0  0
   -0.1772    2.8562   -2.6965 C   0  0  0  0  0  0  0  0  0  0  0  0
    1.3694   -0.4257   -1.7904 H   0  0  0  0  0  0  0  0  0  0  0  0
    2.1143    0.7255   -0.6487 H   0  0  0  0  0  0  0  0  0  0  0  0
    0.1038    3.4945   -3.5235 H   0  0  0  0  0  0  0  0  0  0  0  0
   -1.1357    2.9815   -2.1974 H   0  0  0  0  0  0  0  0  0  0  0  0
    0.9497   -0.1010    1.6262 C   0  0  0  0  0  3  0  0  0  0  0  0
   -0.6934   -0.6798    2.0839 S   0  0  0  0  0  0  0  0  0  0  0  0
   -0.6934   -2.3199    1.3203 C   0  0  0  0  0  0  0  0  0  0  0  0
   -0.6934   -2.3199   -0.2001 C   0  0  0  0  0  0  0  0  0  0  0  0
    1.0645    0.0747    0.3358 H   0  0  0  0  0  0  0  0  0  0  0  0
    1.7167   -0.7940    1.9743 H   0  0  0  0  0  0  0  0  0  0  0  0
    1.0962    0.8584    2.1205 H   0  0  0  0  0  0  0  0  0  0  0  0
   -1.5975   -2.7979    1.7012 H   0  0  0  0  0  0  0  0  0  0  0  0
    0.1558   -2.8848    1.7116 H   0  0  0  0  0  0  0  0  0  0  0  0
    0.2136   -1.8638   -0.5994 H   0  0  0  0  0  0  0  0  0  0  0  0
   -1.5494   -1.7667   -0.5878 H   0  0  0  0  0  0  0  0  0  0  0  0
   -0.7419   -3.3432   -0.5796 H   0  0  0  0  0  0  0  0  0  0  0  0
  1  2  1  0
  1  5  1  0
  1  6  1  0
  1 13  1  0
  2  3  1  0
  3  4  2  3
  4  7  1  0
  4  8  1  0
  9 10  1  0
  9 14  1  0
  9 15  1  0
 10 11  1  0
 11 12  1  0
 11 16  1  0
 11 17  1  0
 12 18  1  0
 12 19  1  0
 12 20  1  0
M  RAD  1   9   2
M  END
>  <reaction>  (24) 
rmg_rxn_15589

>  <mol_properties>  (24) 
{"0": {"label": "*3", "atom_type": "Cs"}, "1": {"label": "*4", "atom_type": "O2s"}, "8": {"label": "*1", "atom_type": "Cs"}, "9": {"label": "*0", "atom_type": "S2s"}, "12": {"label": "*2", "atom_type": "H0"}}

>  <type>  (24) 
unop_20

>  <geom_source>  (24) 
Heuristics

$$$$

     RDKit          3D

 20 18  0  0  0  0  0  0  0  0999 V2000
    0.2221    0.7758   -0.9537 C   0  0  0  0  0  0  0  0  0  0  0  0
    1.5812    0.5275   -1.2550 O   0  0  0  0  0  0  0  0  0  0  0  0
    1.9370    1.2151   -2.3905 N   0  0  0  0  0  0  0  0  0  0  0  0
    3.1469    1.0241   -2.7010 C   0  0  0  0  0  0  0  0  0  0  0  0
    0.0509    1.8385   -0.7681 H   0  0  0  0  0  0  0  0  0  0  0  0
   -0.4261    0.4380   -1.7655 H   0  0  0  0  0  0  0  0  0  0  0  0
    3.5063    1.5320   -3.5859 H   0  0  0  0  0  0  0  0  0  0  0  0
    3.8074    0.3848   -2.1192 H   0  0  0  0  0  0  0  0  0  0  0  0
   -0.0075    0.4246    1.6261 C   0  0  0  0  0  3  0  0  0  0  0  0
   -1.6506   -0.1542    2.0839 S   0  0  0  0  0  0  0  0  0  0  0  0
   -1.6506   -1.7943    1.3203 C   0  0  0  0  0  0  0  0  0  0  0  0
   -1.6506   -1.7943   -0.2001 C   0  0  0  0  0  0  0  0  0  0  0  0
    0.1073    0.6003    0.3357 H   0  0  0  0  0  0  0  0  0  0  0  0
    0.7595   -0.2684    1.9742 H   0  0  0  0  0  0  0  0  0  0  0  0
    0.1390    1.3840    2.1205 H   0  0  0  0  0  0  0  0  0  0  0  0
   -2.5547   -2.2723    1.7012 H   0  0  0  0  0  0  0  0  0  0  0  0
   -0.8014   -2.3592    1.7115 H   0  0  0  0  0  0  0  0  0  0  0  0
   -0.7436   -1.3382   -0.5994 H   0  0  0  0  0  0  0  0  0  0  0  0
   -2.5066   -1.2411   -0.5878 H   0  0  0  0  0  0  0  0  0  0  0  0
   -1.6990   -2.8176   -0.5796 H   0  0  0  0  0  0  0  0  0  0  0  0
  1  2  1  0
  1  5  1  0
  1  6  1  0
  1 13  1  0
  2  3  1  0
  3  4  2  3
  4  7  1  0
  4  8  1  0
  9 10  1  0
  9 14  1  0
  9 15  1  0
 10 11  1  0
 11 12  1  0
 11 16  1  0
 11 17  1  0
 12 18  1  0
 12 19  1  0
 12 20  1  0
M  RAD  1   9   2
M  END
>  <reaction>  (25) 
rmg_rxn_15589

>  <mol_properties>  (25) 
{"0": {"label": "*3", "atom_type": "Cs"}, "1": {"label": "*4", "atom_type": "O2s"}, "8": {"label": "*1", "atom_type": "Cs"}, "9": {"label": "*0", "atom_type": "S2s"}, "12": {"label": "*2", "atom_type": "H0"}}

>  <type>  (25) 
unop_21

>  <geom_source>  (25) 
Heuristics

$$$$

     RDKit          3D

 20 18  0  0  0  0  0  0  0  0999 V2000
    1.3916    0.9335   -0.8000 C   0  0  0  0  0  0  0  0  0  0  0  0
    0.1346    0.5872   -1.3474 O   0  0  0  0  0  0  0  0  0  0  0  0
    0.1650    0.7436   -2.7125 N   0  0  0  0  0  0  0  0  0  0  0  0
   -0.9396    0.4452   -3.2487 C   0  0  0  0  0  0  0  0  0  0  0  0
    2.1801    0.2877   -1.1928 H   0  0  0  0  0  0  0  0  0  0  0  0
    1.6355    1.9771   -1.0112 H   0  0  0  0  0  0  0  0  0  0  0  0
   -0.9981    0.5419   -4.3245 H   0  0  0  0  0  0  0  0  0  0  0  0
   -1.7982    0.1065   -2.6728 H   0  0  0  0  0  0  0  0  0  0  0  0
    1.1620    0.5823    1.7798 C   0  0  0  0  0  3  0  0  0  0  0  0
   -0.4811    0.0035    2.2376 S   0  0  0  0  0  0  0  0  0  0  0  0
   -0.4811   -1.6366    1.4740 C   0  0  0  0  0  0  0  0  0  0  0  0
   -0.4811   -1.6366   -0.0464 C   0  0  0  0  0  0  0  0  0  0  0  0
    1.2768    0.7580    0.4894 H   0  0  0  0  0  0  0  0  0  0  0  0
    1.9290   -0.1107    2.1279 H   0  0  0  0  0  0  0  0  0  0  0  0
    1.3084    1.5417    2.2742 H   0  0  0  0  0  0  0  0  0  0  0  0
   -1.3852   -2.1146    1.8549 H   0  0  0  0  0  0  0  0  0  0  0  0
    0.3681   -2.2015    1.8652 H   0  0  0  0  0  0  0  0  0  0  0  0
    0.4259   -1.1804   -0.4457 H   0  0  0  0  0  0  0  0  0  0  0  0
   -1.3371   -1.0834   -0.4341 H   0  0  0  0  0  0  0  0  0  0  0  0
   -0.5296   -2.6599   -0.4259 H   0  0  0  0  0  0  0  0  0  0  0  0
  1  2  1  0
  1  5  1  0
  1  6  1  0
  1 13  1  0
  2  3  1  0
  3  4  2  3
  4  7  1  0
  4  8  1  0
  9 10  1  0
  9 14  1  0
  9 15  1  0
 10 11  1  0
 11 12  1  0
 11 16  1  0
 11 17  1  0
 12 18  1  0
 12 19  1  0
 12 20  1  0
M  RAD  1   9   2
M  END
>  <reaction>  (26) 
rmg_rxn_15589

>  <mol_properties>  (26) 
{"0": {"label": "*3", "atom_type": "Cs"}, "1": {"label": "*4", "atom_type": "O2s"}, "8": {"label": "*1", "atom_type": "Cs"}, "9": {"label": "*0", "atom_type": "S2s"}, "12": {"label": "*2", "atom_type": "H0"}}

>  <type>  (26) 
unop_22

>  <geom_source>  (26) 
Heuristics

$$$$

     RDKit          3D

 20 18  0  0  0  0  0  0  0  0999 V2000
   -2.8527   -1.2320   -0.1150 C   0  0  0  0  0  0  0  0  0  0  0  0
   -1.7852   -0.3034   -0.0018 O   0  0  0  0  0  0  0  0  0  0  0  0
   -2.3032    1.0018   -0.0408 N   0  0  0  0  0  0  0  0  0  0  0  0
   -1.4609    1.9283    0.0388 C   0  0  0  0  0  0  0  0  0  0  0  0
   -3.5254   -1.1513    0.7413 H   0  0  0  0  0  0  0  0  0  0  0  0
   -3.4131   -1.0604   -1.0355 H   0  0  0  0  0  0  0  0  0  0  0  0
   -1.8525    2.9308    0.0067 H   0  0  0  0  0  0  0  0  0  0  0  0
   -0.3736    1.7829    0.1392 H   0  0  0  0  0  0  0  0  0  0  0  0
    1.6119    1.4892    0.4647 C   0  0  0  0  0  3  0  0  0  0  0  0
    2.2601    0.1866   -0.4363 S   0  0  0  0  0  0  0  0  0  0  0  0
    1.6938   -1.2603    0.5333 C   0  0  0  0  0  0  0  0  0  0  0  0
    0.3633   -1.7966    0.0352 C   0  0  0  0  0  0  0  0  0  0  0  0
   -2.3915   -2.2163   -0.1374 H   0  0  0  0  0  0  0  0  0  0  0  0
    1.5658    1.3720    1.5338 H   0  0  0  0  0  0  0  0  0  0  0  0
    1.8789    2.4567    0.0792 H   0  0  0  0  0  0  0  0  0  0  0  0
    1.6334   -0.9429    1.5735 H   0  0  0  0  0  0  0  0  0  0  0  0
    2.4876   -2.0014    0.4297 H   0  0  0  0  0  0  0  0  0  0  0  0
   -0.4221   -1.0418    0.0838 H   0  0  0  0  0  0  0  0  0  0  0  0
    0.0820   -2.6526    0.6490 H   0  0  0  0  0  0  0  0  0  0  0  0
    0.4668   -2.1356   -0.9945 H   0  0  0  0  0  0  0  0  0  0  0  0
  1  2  1  0
  1  5  1  0
  1  6  1  0
  1 13  1  0
  2  3  1  0
  3  4  2  3
  4  7  1  0
  4  8  1  0
  9 10  1  0
  9 14  1  0
  9 15  1  0
 10 11  1  0
 11 12  1  0
 11 16  1  0
 11 17  1  0
 12 18  1  0
 12 19  1  0
 12 20  1  0
M  RAD  1   9   2
M  END
>  <reaction>  (27) 
rmg_rxn_15589

>  <mol_properties>  (27) 
{"0": {"label": "*3", "atom_type": "Cs"}, "1": {"label": "*4", "atom_type": "O2s"}, "8": {"label": "*1", "atom_type": "Cs"}, "9": {"label": "*0", "atom_type": "S2s"}, "12": {"label": "*2", "atom_type": "H0"}}

>  <type>  (27) 
unop_23

>  <geom_source>  (27) 
Heuristics

$$$$

     RDKit          3D

 20 18  0  0  0  0  0  0  0  0999 V2000
   -1.3937   -1.3734    0.6547 S   0  0  0  0  0  0  0  0  0  0  0  0
    3.3673   -0.7023   -0.9083 O   0  0  0  0  0  0  0  0  0  0  0  0
    3.7931    0.6078   -0.7557 N   0  0  0  0  0  0  0  0  0  0  0  0
   -2.8856   -0.4972    0.0641 C   0  0  0  0  0  0  0  0  0  0  0  0
   -3.0677    0.8210    0.8052 C   0  0  0  0  0  0  0  0  0  0  0  0
    2.2383   -1.2482   -0.2324 C   0  0  0  0  0  3  0  0  0  0  0  0
   -0.2274   -0.5407   -0.4710 C   0  0  0  0  0  0  0  0  0  0  0  0
    3.2251    1.4831    0.0158 C   0  0  0  0  0  0  0  0  0  0  0  0
   -2.8370   -0.3167   -1.0308 H   0  0  0  0  0  0  0  0  0  0  0  0
   -3.7665   -1.1429    0.2637 H   0  0  0  0  0  0  0  0  0  0  0  0
   -2.2218    1.5072    0.5945 H   0  0  0  0  0  0  0  0  0  0  0  0
   -3.1284    0.6393    1.8992 H   0  0  0  0  0  0  0  0  0  0  0  0
   -4.0086    1.3074    0.4719 H   0  0  0  0  0  0  0  0  0  0  0  0
    2.1084   -2.3066   -0.5380 H   0  0  0  0  0  0  0  0  0  0  0  0
    2.3975   -1.2107    0.8658 H   0  0  0  0  0  0  0  0  0  0  0  0
    1.1177   -0.5551   -0.5674 H   0  0  0  0  0  0  0  0  0  0  0  0
    2.3551    1.2408    0.6102 H   0  0  0  0  0  0  0  0  0  0  0  0
    3.6282    2.4849    0.0714 H   0  0  0  0  0  0  0  0  0  0  0  0
   -0.2061    0.5521   -0.2835 H   0  0  0  0  0  0  0  0  0  0  0  0
   -0.4878   -0.7499   -1.5293 H   0  0  0  0  0  0  0  0  0  0  0  0
  1  7  1  0
  1  4  1  0
  2  6  1  0
  2  3  1  0
  3  8  2  3
  4  5  1  0
  4  9  1  0
  4 10  1  0
  5 11  1  0
  5 12  1  0
  5 13  1  0
  6 14  1  0
  6 15  1  0
  7 16  1  0
  7 19  1  0
  7 20  1  0
  8 17  1  0
  8 18  1  0
M  RAD  1   6   2
M  END
>  <reaction>  (28) 
rmg_rxn_15589

>  <mol_properties>  (28) 
{"0": {"label": "*3", "atom_type": "Cs"}, "1": {"label": "*4", "atom_type": "O2s"}, "8": {"label": "*1", "atom_type": "Cs"}, "9": {"label": "*0", "atom_type": "S2s"}, "12": {"label": "*2", "atom_type": "H0"}}

>  <type>  (28) 
unop_24

>  <geom_source>  (28) 
AutoTST

$$$$

     RDKit          3D

 20 18  0  0  0  0  0  0  0  0999 V2000
    1.3929    0.5439   -0.8673 C   0  0  0  0  0  0  0  0  0  0  0  0
    0.1012    0.8952   -1.3228 O   0  0  0  0  0  0  0  0  0  0  0  0
    0.1920    1.4928   -2.5571 N   0  0  0  0  0  0  0  0  0  0  0  0
   -0.9408    1.8258   -3.0072 C   0  0  0  0  0  0  0  0  0  0  0  0
    1.8676   -0.1663   -1.5481 H   0  0  0  0  0  0  0  0  0  0  0  0
    2.0249    1.4288   -0.7642 H   0  0  0  0  0  0  0  0  0  0  0  0
   -0.9555    2.3041   -3.9774 H   0  0  0  0  0  0  0  0  0  0  0  0
   -1.8643    1.6481   -2.4602 H   0  0  0  0  0  0  0  0  0  0  0  0
    1.1633    0.1927    1.7126 C   0  0  0  0  0  3  0  0  0  0  0  0
   -0.4798   -0.3862    2.1703 S   0  0  0  0  0  0  0  0  0  0  0  0
   -0.4798   -2.0263    1.4067 C   0  0  0  0  0  0  0  0  0  0  0  0
   -0.4798   -2.0263   -0.1137 C   0  0  0  0  0  0  0  0  0  0  0  0
    1.2782    0.3683    0.4221 H   0  0  0  0  0  0  0  0  0  0  0  0
    1.9303   -0.5004    2.0606 H   0  0  0  0  0  0  0  0  0  0  0  0
    1.3098    1.1521    2.2069 H   0  0  0  0  0  0  0  0  0  0  0  0
   -1.3838   -2.5043    1.7876 H   0  0  0  0  0  0  0  0  0  0  0  0
    0.3695   -2.5912    1.7979 H   0  0  0  0  0  0  0  0  0  0  0  0
    0.4272   -1.5701   -0.5130 H   0  0  0  0  0  0  0  0  0  0  0  0
   -1.3358   -1.4731   -0.5014 H   0  0  0  0  0  0  0  0  0  0  0  0
   -0.5282   -3.0495   -0.4932 H   0  0  0  0  0  0  0  0  0  0  0  0
  1  2  1  0
  1  5  1  0
  1  6  1  0
  1 13  1  0
  2  3  1  0
  3  4  2  3
  4  7  1  0
  4  8  1  0
  9 10  1  0
  9 14  1  0
  9 15  1  0
 10 11  1  0
 11 12  1  0
 11 16  1  0
 11 17  1  0
 12 18  1  0
 12 19  1  0
 12 20  1  0
M  RAD  1   9   2
M  END
>  <reaction>  (29) 
rmg_rxn_15589

>  <mol_properties>  (29) 
{"0": {"label": "*3", "atom_type": "Cs"}, "1": {"label": "*4", "atom_type": "O2s"}, "8": {"label": "*1", "atom_type": "Cs"}, "9": {"label": "*0", "atom_type": "S2s"}, "12": {"label": "*2", "atom_type": "H0"}}

>  <type>  (29) 
unop_25

>  <geom_source>  (29) 
gaussian_log

$$$$
