
     RDKit          3D

  3  2  0  0  0  0  0  0  0  0999 V2000
   -0.0007    0.6157    0.0000 S   0  0  0  0  0  0  0  0  0  0  0  0
   -0.9686   -0.3090    0.0000 H   0  0  0  0  0  0  0  0  0  0  0  0
    0.9693   -0.3067    0.0000 H   0  0  0  0  0  0  0  0  0  0  0  0
  1  2  1  0
  1  3  1  0
M  END
>  <reaction>  (1) 
rmg_rxn_306

>  <mol_properties>  (1) 
{"0": {"label": "donator", "atom_type": "S2s"}, "1": {"label": "d_hydrogen", "atom_type": "H0"}}

>  <type>  (1) 
r1h

$$$$

     RDKit          3D

 11 10  0  0  0  0  0  0  0  0999 V2000
   -1.2230    0.3768   -0.0849 C   0  0  0  0  0  0  0  0  0  0  0  0
   -0.0734   -0.5533    0.2746 C   0  0  0  0  0  0  0  0  0  0  0  0
   -0.0853   -1.8426   -0.5372 C   0  0  0  0  0  0  0  0  0  0  0  0
    0.0319   -1.6944   -1.8815 O   0  0  0  0  0  1  0  0  0  0  0  0
   -2.1874   -0.0885    0.1341 H   0  0  0  0  0  0  0  0  0  0  0  0
   -1.1670    1.3099    0.4765 H   0  0  0  0  0  0  0  0  0  0  0  0
   -1.2014    0.6189   -1.1483 H   0  0  0  0  0  0  0  0  0  0  0  0
    0.8834   -0.0518    0.1071 H   0  0  0  0  0  0  0  0  0  0  0  0
   -0.1104   -0.8149    1.3362 H   0  0  0  0  0  0  0  0  0  0  0  0
    0.6767   -2.5604   -0.1861 H   0  0  0  0  0  0  0  0  0  0  0  0
   -1.0401   -2.3871   -0.3877 H   0  0  0  0  0  0  0  0  0  0  0  0
  1  2  1  0
  1  5  1  0
  1  6  1  0
  1  7  1  0
  2  3  1  0
  2  8  1  0
  2  9  1  0
  3  4  1  0
  3 10  1  0
  3 11  1  0
M  RAD  1   4   2
M  END
>  <reaction>  (2) 
rmg_rxn_306

>  <mol_properties>  (2) 
{"3": {"label": "acceptor", "atom_type": "O2s"}}

>  <type>  (2) 
r2

$$$$

     RDKit          3D

 12 11  0  0  0  0  0  0  0  0999 V2000
   -1.4643   -0.2505   -0.5284 C   0  0  0  0  0  0  0  0  0  0  0  0
   -0.3946    0.4302    0.3143 C   0  0  0  0  0  0  0  0  0  0  0  0
   -0.5959    0.2382    1.8102 C   0  0  0  0  0  0  0  0  0  0  0  0
   -0.5633   -1.1190    2.2092 O   0  0  0  0  0  0  0  0  0  0  0  0
   -2.4511    0.1644   -0.3109 H   0  0  0  0  0  0  0  0  0  0  0  0
   -1.5019   -1.3198   -0.3181 H   0  0  0  0  0  0  0  0  0  0  0  0
   -1.2720   -0.1182   -1.5941 H   0  0  0  0  0  0  0  0  0  0  0  0
    0.5965    0.0515    0.0385 H   0  0  0  0  0  0  0  0  0  0  0  0
   -0.3776    1.5047    0.1078 H   0  0  0  0  0  0  0  0  0  0  0  0
   -1.5821    0.6048    2.1034 H   0  0  0  0  0  0  0  0  0  0  0  0
    0.1495    0.8220    2.3649 H   0  0  0  0  0  0  0  0  0  0  0  0
    0.3017   -1.4750    1.9997 H   0  0  0  0  0  0  0  0  0  0  0  0
  1  2  1  0
  1  5  1  0
  1  6  1  0
  1  7  1  0
  2  3  1  0
  2  8  1  0
  2  9  1  0
  3  4  1  0
  3 10  1  0
  3 11  1  0
  4 12  1  0
M  END
>  <reaction>  (3) 
rmg_rxn_306

>  <mol_properties>  (3) 
{"0": {"label": "a_hydrogen", "atom_type": "H0"}, "4": {"label": "acceptor", "atom_type": "O2s"}}

>  <type>  (3) 
r2h

$$$$

     RDKit          3D

 14 12  0  0  0  0  0  0  0  0999 V2000
    0.9964   -1.9403    0.2672 S   0  0  0  0  0  1  0  0  0  0  0  0
    0.9293   -0.5415    0.6878 H   0  0  0  0  0  0  0  0  0  0  0  0
   -0.3029   -2.1424    0.5218 H   0  0  0  0  0  0  0  0  0  0  0  0
   -1.9374    1.3155   -0.7418 C   0  0  0  0  0  0  0  0  0  0  0  0
   -0.5927    1.0282   -1.3920 C   0  0  0  0  0  0  0  0  0  0  0  0
    0.5948    1.3626   -0.4992 C   0  0  0  0  0  0  0  0  0  0  0  0
    0.5817    0.7396    0.7360 O   0  0  0  0  0  0  0  0  0  0  0  0
   -2.0424    2.3773   -0.5064 H   0  0  0  0  0  0  0  0  0  0  0  0
   -2.7579    1.0370   -1.4039 H   0  0  0  0  0  0  0  0  0  0  0  0
   -2.0465    0.7566    0.1881 H   0  0  0  0  0  0  0  0  0  0  0  0
   -0.5178   -0.0292   -1.6617 H   0  0  0  0  0  0  0  0  0  0  0  0
   -0.4849    1.5995   -2.3182 H   0  0  0  0  0  0  0  0  0  0  0  0
    1.5470    1.1984   -1.0185 H   0  0  0  0  0  0  0  0  0  0  0  0
    0.5636    2.4338   -0.2328 H   0  0  0  0  0  0  0  0  0  0  0  0
  1  3  1  0
  2  7  1  0
  4  5  1  0
  4  8  1  0
  4  9  1  0
  4 10  1  0
  5  6  1  0
  5 11  1  0
  5 12  1  0
  6  7  1  0
  6 13  1  0
  6 14  1  0
M  RAD  1   1   2
M  END
>  <reaction>  (4) 
rmg_rxn_306

>  <mol_properties>  (4) 
{"0": {"label": "*3", "atom_type": "S2s"}, "1": {"label": "*2", "atom_type": "H0"}, "2": {"label": "*4", "atom_type": "H0"}, "5": {"label": "*0", "atom_type": "Cs"}, "6": {"label": "*1", "atom_type": "O2s"}}

>  <type>  (4) 
ts

$$$$

     RDKit          3D

 14 12  0  0  0  0  0  0  0  0999 V2000
    0.5945   -1.5286   -0.8318 S   0  0  0  0  0  1  0  0  0  0  0  0
    0.5945    0.0759   -0.7547 H   0  0  0  0  0  0  0  0  0  0  0  0
    0.5945   -1.5286   -2.1704 H   0  0  0  0  0  0  0  0  0  0  0  0
   -0.2692   -0.0055    1.9083 C   0  0  0  0  0  0  0  0  0  0  0  0
   -1.1966    0.5323    0.8273 C   0  0  0  0  0  0  0  0  0  0  0  0
   -0.5683    1.6384   -0.0075 C   0  0  0  0  0  0  0  0  0  0  0  0
    0.5945    1.2248   -0.6995 O   0  0  0  0  0  0  0  0  0  0  0  0
   -0.0042    0.7814    2.6182 H   0  0  0  0  0  0  0  0  0  0  0  0
   -0.7402   -0.8161    2.4663 H   0  0  0  0  0  0  0  0  0  0  0  0
    0.6565   -0.3830    1.4730 H   0  0  0  0  0  0  0  0  0  0  0  0
   -1.5071   -0.2814    0.1616 H   0  0  0  0  0  0  0  0  0  0  0  0
   -2.1141    0.9239    1.2770 H   0  0  0  0  0  0  0  0  0  0  0  0
   -1.3099    2.0452   -0.7065 H   0  0  0  0  0  0  0  0  0  0  0  0
   -0.2466    2.4569    0.6403 H   0  0  0  0  0  0  0  0  0  0  0  0
  1  3  1  0
  2  7  1  0
  4  5  1  0
  4  8  1  0
  4  9  1  0
  4 10  1  0
  5  6  1  0
  5 11  1  0
  5 12  1  0
  6  7  1  0
  6 13  1  0
  6 14  1  0
M  RAD  1   1   2
M  END
>  <reaction>  (5) 
rmg_rxn_306

>  <mol_properties>  (5) 
{"0": {"label": "*3", "atom_type": "S2s"}, "1": {"label": "*2", "atom_type": "H0"}, "2": {"label": "*4", "atom_type": "H0"}, "5": {"label": "*0", "atom_type": "Cs"}, "6": {"label": "*1", "atom_type": "O2s"}}

>  <type>  (5) 
unop_1

>  <geom_source>  (5) 
Heuristics

$$$$

     RDKit          3D

 14 12  0  0  0  0  0  0  0  0999 V2000
    0.8770   -1.7589    0.3989 S   0  0  0  0  0  1  0  0  0  0  0  0
    0.8770   -0.1544    0.4759 H   0  0  0  0  0  0  0  0  0  0  0  0
    0.8770   -1.7589   -0.9398 H   0  0  0  0  0  0  0  0  0  0  0  0
   -2.0956    0.7217    0.1440 C   0  0  0  0  0  0  0  0  0  0  0  0
   -1.0492    0.7111   -0.9618 C   0  0  0  0  0  0  0  0  0  0  0  0
    0.2056    1.4962   -0.6090 C   0  0  0  0  0  0  0  0  0  0  0  0
    0.8770    0.9946    0.5311 O   0  0  0  0  0  0  0  0  0  0  0  0
   -2.4355    1.7401    0.3461 H   0  0  0  0  0  0  0  0  0  0  0  0
   -2.9670    0.1254   -0.1303 H   0  0  0  0  0  0  0  0  0  0  0  0
   -1.6849    0.3205    1.0710 H   0  0  0  0  0  0  0  0  0  0  0  0
   -0.7664   -0.3209   -1.1998 H   0  0  0  0  0  0  0  0  0  0  0  0
   -1.4669    1.1316   -1.8816 H   0  0  0  0  0  0  0  0  0  0  0  0
    0.8814    1.5272   -1.4729 H   0  0  0  0  0  0  0  0  0  0  0  0
   -0.0572    2.5273   -0.3625 H   0  0  0  0  0  0  0  0  0  0  0  0
  1  3  1  0
  2  7  1  0
  4  5  1  0
  4  8  1  0
  4  9  1  0
  4 10  1  0
  5  6  1  0
  5 11  1  0
  5 12  1  0
  6  7  1  0
  6 13  1  0
  6 14  1  0
M  RAD  1   1   2
M  END
>  <reaction>  (6) 
rmg_rxn_306

>  <mol_properties>  (6) 
{"0": {"label": "*3", "atom_type": "S2s"}, "1": {"label": "*2", "atom_type": "H0"}, "2": {"label": "*4", "atom_type": "H0"}, "5": {"label": "*0", "atom_type": "Cs"}, "6": {"label": "*1", "atom_type": "O2s"}}

>  <type>  (6) 
unop_2

>  <geom_source>  (6) 
Heuristics

$$$$

     RDKit          3D

 14 12  0  0  0  0  0  0  0  0999 V2000
    0.0410   -1.5969   -1.0497 S   0  0  0  0  0  1  0  0  0  0  0  0
    0.0410    0.0076   -0.9726 H   0  0  0  0  0  0  0  0  0  0  0  0
    0.0410   -1.5969   -2.3883 H   0  0  0  0  0  0  0  0  0  0  0  0
    0.9487    0.3046    1.8231 C   0  0  0  0  0  0  0  0  0  0  0  0
   -0.4939    0.5365    1.3953 C   0  0  0  0  0  0  0  0  0  0  0  0
   -0.6304    1.5465    0.2655 C   0  0  0  0  0  0  0  0  0  0  0  0
    0.0410    1.1566   -0.9174 O   0  0  0  0  0  0  0  0  0  0  0  0
    1.3939    1.2277    2.2013 H   0  0  0  0  0  0  0  0  0  0  0  0
    1.0115   -0.4461    2.6122 H   0  0  0  0  0  0  0  0  0  0  0  0
    1.5538   -0.0331    0.9812 H   0  0  0  0  0  0  0  0  0  0  0  0
   -0.9480   -0.4104    1.0810 H   0  0  0  0  0  0  0  0  0  0  0  0
   -1.0872    0.8914    2.2434 H   0  0  0  0  0  0  0  0  0  0  0  0
   -1.6916    1.7378    0.0624 H   0  0  0  0  0  0  0  0  0  0  0  0
   -0.1774    2.4964    0.5583 H   0  0  0  0  0  0  0  0  0  0  0  0
  1  3  1  0
  2  7  1  0
  4  5  1  0
  4  8  1  0
  4  9  1  0
  4 10  1  0
  5  6  1  0
  5 11  1  0
  5 12  1  0
  6  7  1  0
  6 13  1  0
  6 14  1  0
M  RAD  1   1   2
M  END
>  <reaction>  (7) 
rmg_rxn_306

>  <mol_properties>  (7) 
{"0": {"label": "*3", "atom_type": "S2s"}, "1": {"label": "*2", "atom_type": "H0"}, "2": {"label": "*4", "atom_type": "H0"}, "5": {"label": "*0", "atom_type": "Cs"}, "6": {"label": "*1", "atom_type": "O2s"}}

>  <type>  (7) 
unop_3

>  <geom_source>  (7) 
Heuristics

$$$$

     RDKit          3D

 14 12  0  0  0  0  0  0  0  0999 V2000
   -0.3085   -2.3001    0.7092 S   0  0  0  0  0  1  0  0  0  0  0  0
   -0.3085   -0.6956    0.7863 H   0  0  0  0  0  0  0  0  0  0  0  0
   -0.3085   -2.3001   -0.6294 H   0  0  0  0  0  0  0  0  0  0  0  0
   -0.4061    2.4655   -1.3951 C   0  0  0  0  0  0  0  0  0  0  0  0
    0.6109    1.3415   -1.2526 C   0  0  0  0  0  0  0  0  0  0  0  0
    0.8544    0.9313    0.1923 C   0  0  0  0  0  0  0  0  0  0  0  0
   -0.3085    0.4533    0.8415 O   0  0  0  0  0  0  0  0  0  0  0  0
   -0.0581    3.3693   -0.8896 H   0  0  0  0  0  0  0  0  0  0  0  0
   -0.5783    2.7126   -2.4436 H   0  0  0  0  0  0  0  0  0  0  0  0
   -1.3605    2.1843   -0.9490 H   0  0  0  0  0  0  0  0  0  0  0  0
    0.2803    0.4634   -1.8194 H   0  0  0  0  0  0  0  0  0  0  0  0
    1.5690    1.6412   -1.6879 H   0  0  0  0  0  0  0  0  0  0  0  0
    1.6570    0.1845    0.2379 H   0  0  0  0  0  0  0  0  0  0  0  0
    1.1793    1.7960    0.7753 H   0  0  0  0  0  0  0  0  0  0  0  0
  1  3  1  0
  2  7  1  0
  4  5  1  0
  4  8  1  0
  4  9  1  0
  4 10  1  0
  5  6  1  0
  5 11  1  0
  5 12  1  0
  6  7  1  0
  6 13  1  0
  6 14  1  0
M  RAD  1   1   2
M  END
>  <reaction>  (8) 
rmg_rxn_306

>  <mol_properties>  (8) 
{"0": {"label": "*3", "atom_type": "S2s"}, "1": {"label": "*2", "atom_type": "H0"}, "2": {"label": "*4", "atom_type": "H0"}, "5": {"label": "*0", "atom_type": "Cs"}, "6": {"label": "*1", "atom_type": "O2s"}}

>  <type>  (8) 
unop_4

>  <geom_source>  (8) 
Heuristics

$$$$

     RDKit          3D

 14 12  0  0  0  0  0  0  0  0999 V2000
   -0.5942   -1.8872   -0.8585 S   0  0  0  0  0  1  0  0  0  0  0  0
   -0.5942   -0.2827   -0.7814 H   0  0  0  0  0  0  0  0  0  0  0  0
   -0.5942   -1.8872   -2.1971 H   0  0  0  0  0  0  0  0  0  0  0  0
    1.9390    1.3294    0.8323 C   0  0  0  0  0  0  0  0  0  0  0  0
    0.6375    0.7735    1.3936 C   0  0  0  0  0  0  0  0  0  0  0  0
   -0.5942    1.2476    0.6364 C   0  0  0  0  0  0  0  0  0  0  0  0
   -0.5942    0.8663   -0.7262 O   0  0  0  0  0  0  0  0  0  0  0  0
    1.9561    2.4196    0.9004 H   0  0  0  0  0  0  0  0  0  0  0  0
    2.8015    0.9455    1.3790 H   0  0  0  0  0  0  0  0  0  0  0  0
    2.0540    1.0623   -0.2186 H   0  0  0  0  0  0  0  0  0  0  0  0
    0.6618   -0.3223    1.3802 H   0  0  0  0  0  0  0  0  0  0  0  0
    0.5247    1.0622    2.4430 H   0  0  0  0  0  0  0  0  0  0  0  0
   -1.5016    0.8886    1.1382 H   0  0  0  0  0  0  0  0  0  0  0  0
   -0.6325    2.3392    0.6338 H   0  0  0  0  0  0  0  0  0  0  0  0
  1  3  1  0
  2  7  1  0
  4  5  1  0
  4  8  1  0
  4  9  1  0
  4 10  1  0
  5  6  1  0
  5 11  1  0
  5 12  1  0
  6  7  1  0
  6 13  1  0
  6 14  1  0
M  RAD  1   1   2
M  END
>  <reaction>  (9) 
rmg_rxn_306

>  <mol_properties>  (9) 
{"0": {"label": "*3", "atom_type": "S2s"}, "1": {"label": "*2", "atom_type": "H0"}, "2": {"label": "*4", "atom_type": "H0"}, "5": {"label": "*0", "atom_type": "Cs"}, "6": {"label": "*1", "atom_type": "O2s"}}

>  <type>  (9) 
unop_5

>  <geom_source>  (9) 
Heuristics

$$$$

     RDKit          3D

 14 12  0  0  0  0  0  0  0  0999 V2000
   -0.6470   -2.3528    0.4042 S   0  0  0  0  0  1  0  0  0  0  0  0
   -0.6470   -0.7483    0.4813 H   0  0  0  0  0  0  0  0  0  0  0  0
   -0.6470   -2.3528   -0.9345 H   0  0  0  0  0  0  0  0  0  0  0  0
    0.3500    2.6417   -1.2084 C   0  0  0  0  0  0  0  0  0  0  0  0
    1.1577    1.4278   -0.7702 C   0  0  0  0  0  0  0  0  0  0  0  0
    0.6958    0.8465    0.5579 C   0  0  0  0  0  0  0  0  0  0  0  0
   -0.6470    0.4007    0.5364 O   0  0  0  0  0  0  0  0  0  0  0  0
    0.4475    3.4539   -0.4844 H   0  0  0  0  0  0  0  0  0  0  0  0
    0.6879    3.0131   -2.1769 H   0  0  0  0  0  0  0  0  0  0  0  0
   -0.7093    2.3952   -1.2875 H   0  0  0  0  0  0  0  0  0  0  0  0
    1.1046    0.6462   -1.5369 H   0  0  0  0  0  0  0  0  0  0  0  0
    2.2157    1.6912   -0.6775 H   0  0  0  0  0  0  0  0  0  0  0  0
    1.3677    0.0345    0.8635 H   0  0  0  0  0  0  0  0  0  0  0  0
    0.7361    1.6135    1.3344 H   0  0  0  0  0  0  0  0  0  0  0  0
  1  3  1  0
  2  7  1  0
  4  5  1  0
  4  8  1  0
  4  9  1  0
  4 10  1  0
  5  6  1  0
  5 11  1  0
  5 12  1  0
  6  7  1  0
  6 13  1  0
  6 14  1  0
M  RAD  1   1   2
M  END
>  <reaction>  (10) 
rmg_rxn_306

>  <mol_properties>  (10) 
{"0": {"label": "*3", "atom_type": "S2s"}, "1": {"label": "*2", "atom_type": "H0"}, "2": {"label": "*4", "atom_type": "H0"}, "5": {"label": "*0", "atom_type": "Cs"}, "6": {"label": "*1", "atom_type": "O2s"}}

>  <type>  (10) 
unop_6

>  <geom_source>  (10) 
Heuristics

$$$$

     RDKit          3D

 14 12  0  0  0  0  0  0  0  0999 V2000
   -0.8095   -2.3369    0.0125 S   0  0  0  0  0  1  0  0  0  0  0  0
   -0.8095   -0.7324    0.0895 H   0  0  0  0  0  0  0  0  0  0  0  0
   -0.8095   -2.3369   -1.3262 H   0  0  0  0  0  0  0  0  0  0  0  0
    0.9707    2.6321   -0.8467 C   0  0  0  0  0  0  0  0  0  0  0  0
    1.4273    1.3995   -0.0785 C   0  0  0  0  0  0  0  0  0  0  0  0
    0.3534    0.8302    0.8368 C   0  0  0  0  0  0  0  0  0  0  0  0
   -0.8095    0.4166    0.1447 O   0  0  0  0  0  0  0  0  0  0  0  0
    0.7119    3.4422   -0.1611 H   0  0  0  0  0  0  0  0  0  0  0  0
    1.7537    2.9947   -1.5142 H   0  0  0  0  0  0  0  0  0  0  0  0
    0.0866    2.4109   -1.4454 H   0  0  0  0  0  0  0  0  0  0  0  0
    1.7465    0.6189   -0.7787 H   0  0  0  0  0  0  0  0  0  0  0  0
    2.3039    1.6376    0.5315 H   0  0  0  0  0  0  0  0  0  0  0  0
    0.7666    0.0026    1.4270 H   0  0  0  0  0  0  0  0  0  0  0  0
    0.0178    1.5965    1.5390 H   0  0  0  0  0  0  0  0  0  0  0  0
  1  3  1  0
  2  7  1  0
  4  5  1  0
  4  8  1  0
  4  9  1  0
  4 10  1  0
  5  6  1  0
  5 11  1  0
  5 12  1  0
  6  7  1  0
  6 13  1  0
  6 14  1  0
M  RAD  1   1   2
M  END
>  <reaction>  (11) 
rmg_rxn_306

>  <mol_properties>  (11) 
{"0": {"label": "*3", "atom_type": "S2s"}, "1": {"label": "*2", "atom_type": "H0"}, "2": {"label": "*4", "atom_type": "H0"}, "5": {"label": "*0", "atom_type": "Cs"}, "6": {"label": "*1", "atom_type": "O2s"}}

>  <type>  (11) 
unop_7

>  <geom_source>  (11) 
Heuristics

$$$$

     RDKit          3D

 14 12  0  0  0  0  0  0  0  0999 V2000
    0.9002   -1.5499   -0.4345 S   0  0  0  0  0  1  0  0  0  0  0  0
    0.9002    0.0546   -0.3574 H   0  0  0  0  0  0  0  0  0  0  0  0
    0.9002   -1.5499   -1.7731 H   0  0  0  0  0  0  0  0  0  0  0  0
   -1.1762    0.0214    1.5286 C   0  0  0  0  0  0  0  0  0  0  0  0
   -1.4293    0.5663    0.1297 C   0  0  0  0  0  0  0  0  0  0  0  0
   -0.4426    1.6494   -0.2808 C   0  0  0  0  0  0  0  0  0  0  0  0
    0.9002    1.2036   -0.3022 O   0  0  0  0  0  0  0  0  0  0  0  0
   -1.2810    0.8106    2.2766 H   0  0  0  0  0  0  0  0  0  0  0  0
   -1.8816   -0.7726    1.7775 H   0  0  0  0  0  0  0  0  0  0  0  0
   -0.1660   -0.3804    1.6117 H   0  0  0  0  0  0  0  0  0  0  0  0
   -1.3866   -0.2482   -0.6028 H   0  0  0  0  0  0  0  0  0  0  0  0
   -2.4392    0.9822    0.0630 H   0  0  0  0  0  0  0  0  0  0  0  0
   -0.7278    2.0637   -1.2560 H   0  0  0  0  0  0  0  0  0  0  0  0
   -0.4665    2.4683    0.4416 H   0  0  0  0  0  0  0  0  0  0  0  0
  1  3  1  0
  2  7  1  0
  4  5  1  0
  4  8  1  0
  4  9  1  0
  4 10  1  0
  5  6  1  0
  5 11  1  0
  5 12  1  0
  6  7  1  0
  6 13  1  0
  6 14  1  0
M  RAD  1   1   2
M  END
>  <reaction>  (12) 
rmg_rxn_306

>  <mol_properties>  (12) 
{"0": {"label": "*3", "atom_type": "S2s"}, "1": {"label": "*2", "atom_type": "H0"}, "2": {"label": "*4", "atom_type": "H0"}, "5": {"label": "*0", "atom_type": "Cs"}, "6": {"label": "*1", "atom_type": "O2s"}}

>  <type>  (12) 
unop_8

>  <geom_source>  (12) 
Heuristics

$$$$

     RDKit          3D

 14 12  0  0  0  0  0  0  0  0999 V2000
    0.1538   -2.1678    0.8260 S   0  0  0  0  0  1  0  0  0  0  0  0
    0.1538   -0.5633    0.9031 H   0  0  0  0  0  0  0  0  0  0  0  0
    0.1538   -2.1678   -0.5126 H   0  0  0  0  0  0  0  0  0  0  0  0
   -1.2683    2.0561   -1.2499 C   0  0  0  0  0  0  0  0  0  0  0  0
   -0.0568    1.1499   -1.4201 C   0  0  0  0  0  0  0  0  0  0  0  0
    0.8252    1.0873   -0.1819 C   0  0  0  0  0  0  0  0  0  0  0  0
    0.1538    0.5857    0.9583 O   0  0  0  0  0  0  0  0  0  0  0  0
   -0.9580    3.0862   -1.0600 H   0  0  0  0  0  0  0  0  0  0  0  0
   -1.8932    2.0534   -2.1441 H   0  0  0  0  0  0  0  0  0  0  0  0
   -1.8785    1.7340   -0.4055 H   0  0  0  0  0  0  0  0  0  0  0  0
   -0.3818    0.1346   -1.6755 H   0  0  0  0  0  0  0  0  0  0  0  0
    0.5567    1.4926   -2.2588 H   0  0  0  0  0  0  0  0  0  0  0  0
    1.7236    0.4938   -0.3935 H   0  0  0  0  0  0  0  0  0  0  0  0
    1.1545    2.0920    0.0921 H   0  0  0  0  0  0  0  0  0  0  0  0
  1  3  1  0
  2  7  1  0
  4  5  1  0
  4  8  1  0
  4  9  1  0
  4 10  1  0
  5  6  1  0
  5 11  1  0
  5 12  1  0
  6  7  1  0
  6 13  1  0
  6 14  1  0
M  RAD  1   1   2
M  END
>  <reaction>  (13) 
rmg_rxn_306

>  <mol_properties>  (13) 
{"0": {"label": "*3", "atom_type": "S2s"}, "1": {"label": "*2", "atom_type": "H0"}, "2": {"label": "*4", "atom_type": "H0"}, "5": {"label": "*0", "atom_type": "Cs"}, "6": {"label": "*1", "atom_type": "O2s"}}

>  <type>  (13) 
unop_9

>  <geom_source>  (13) 
Heuristics

$$$$

     RDKit          3D

 14 12  0  0  0  0  0  0  0  0999 V2000
    0.9817   -1.6229    0.0019 S   0  0  0  0  0  1  0  0  0  0  0  0
    0.9817   -0.0184    0.0790 H   0  0  0  0  0  0  0  0  0  0  0  0
    0.9817   -1.6229   -1.3367 H   0  0  0  0  0  0  0  0  0  0  0  0
   -1.7910    0.2555    0.9133 C   0  0  0  0  0  0  0  0  0  0  0  0
   -1.3333    0.6149   -0.4936 C   0  0  0  0  0  0  0  0  0  0  0  0
   -0.1811    1.6085   -0.5150 C   0  0  0  0  0  0  0  0  0  0  0  0
    0.9817    1.1305    0.1342 O   0  0  0  0  0  0  0  0  0  0  0  0
   -2.1582    1.1399    1.4390 H   0  0  0  0  0  0  0  0  0  0  0  0
   -2.5960   -0.4803    0.8915 H   0  0  0  0  0  0  0  0  0  0  0  0
   -0.9668   -0.1567    1.4962 H   0  0  0  0  0  0  0  0  0  0  0  0
   -1.0302   -0.2909   -1.0315 H   0  0  0  0  0  0  0  0  0  0  0  0
   -2.1635    1.0433   -1.0633 H   0  0  0  0  0  0  0  0  0  0  0  0
    0.0444    1.8959   -1.5497 H   0  0  0  0  0  0  0  0  0  0  0  0
   -0.4626    2.5169    0.0223 H   0  0  0  0  0  0  0  0  0  0  0  0
  1  3  1  0
  2  7  1  0
  4  5  1  0
  4  8  1  0
  4  9  1  0
  4 10  1  0
  5  6  1  0
  5 11  1  0
  5 12  1  0
  6  7  1  0
  6 13  1  0
  6 14  1  0
M  RAD  1   1   2
M  END
>  <reaction>  (14) 
rmg_rxn_306

>  <mol_properties>  (14) 
{"0": {"label": "*3", "atom_type": "S2s"}, "1": {"label": "*2", "atom_type": "H0"}, "2": {"label": "*4", "atom_type": "H0"}, "5": {"label": "*0", "atom_type": "Cs"}, "6": {"label": "*1", "atom_type": "O2s"}}

>  <type>  (14) 
unop_10

>  <geom_source>  (14) 
Heuristics

$$$$

     RDKit          3D

 14 12  0  0  0  0  0  0  0  0999 V2000
   -0.8216   -2.2166   -0.4024 S   0  0  0  0  0  1  0  0  0  0  0  0
   -0.8216   -0.6121   -0.3254 H   0  0  0  0  0  0  0  0  0  0  0  0
   -0.8216   -2.2166   -1.7411 H   0  0  0  0  0  0  0  0  0  0  0  0
    1.5984    2.3268   -0.2892 C   0  0  0  0  0  0  0  0  0  0  0  0
    1.3313    1.2014    0.7008 C   0  0  0  0  0  0  0  0  0  0  0  0
   -0.1502    0.9269    0.9128 C   0  0  0  0  0  0  0  0  0  0  0  0
   -0.8216    0.5369   -0.2702 O   0  0  0  0  0  0  0  0  0  0  0  0
    1.1756    3.2677    0.0705 H   0  0  0  0  0  0  0  0  0  0  0  0
    2.6686    2.4757   -0.4396 H   0  0  0  0  0  0  0  0  0  0  0  0
    1.1444    2.1090   -1.2563 H   0  0  0  0  0  0  0  0  0  0  0  0
    1.8174    0.2799    0.3600 H   0  0  0  0  0  0  0  0  0  0  0  0
    1.7765    1.4386    1.6718 H   0  0  0  0  0  0  0  0  0  0  0  0
   -0.2810    0.1718    1.6982 H   0  0  0  0  0  0  0  0  0  0  0  0
   -0.6535    1.8367    1.2473 H   0  0  0  0  0  0  0  0  0  0  0  0
  1  3  1  0
  2  7  1  0
  4  5  1  0
  4  8  1  0
  4  9  1  0
  4 10  1  0
  5  6  1  0
  5 11  1  0
  5 12  1  0
  6  7  1  0
  6 13  1  0
  6 14  1  0
M  RAD  1   1   2
M  END
>  <reaction>  (15) 
rmg_rxn_306

>  <mol_properties>  (15) 
{"0": {"label": "*3", "atom_type": "S2s"}, "1": {"label": "*2", "atom_type": "H0"}, "2": {"label": "*4", "atom_type": "H0"}, "5": {"label": "*0", "atom_type": "Cs"}, "6": {"label": "*1", "atom_type": "O2s"}}

>  <type>  (15) 
unop_11

>  <geom_source>  (15) 
Heuristics

$$$$

     RDKit          3D

 14 12  0  0  0  0  0  0  0  0999 V2000
    0.5942   -1.9622    0.7025 S   0  0  0  0  0  1  0  0  0  0  0  0
    0.5942   -0.3577    0.7796 H   0  0  0  0  0  0  0  0  0  0  0  0
    0.5942   -1.9622   -0.6361 H   0  0  0  0  0  0  0  0  0  0  0  0
   -1.9390    1.4017   -0.6721 C   0  0  0  0  0  0  0  0  0  0  0  0
   -0.6375    0.9022   -1.2841 C   0  0  0  0  0  0  0  0  0  0  0  0
    0.5942    1.3015   -0.4850 C   0  0  0  0  0  0  0  0  0  0  0  0
    0.5942    0.7913    0.8348 O   0  0  0  0  0  0  0  0  0  0  0  0
   -1.9561    2.4933   -0.6354 H   0  0  0  0  0  0  0  0  0  0  0  0
   -2.8015    1.0720   -1.2531 H   0  0  0  0  0  0  0  0  0  0  0  0
   -2.0540    1.0350    0.3483 H   0  0  0  0  0  0  0  0  0  0  0  0
   -0.6618   -0.1899   -1.3758 H   0  0  0  0  0  0  0  0  0  0  0  0
   -0.5247    1.2901   -2.3010 H   0  0  0  0  0  0  0  0  0  0  0  0
    1.5016    0.9923   -1.0188 H   0  0  0  0  0  0  0  0  0  0  0  0
    0.6325    2.3878   -0.3777 H   0  0  0  0  0  0  0  0  0  0  0  0
  1  3  1  0
  2  7  1  0
  4  5  1  0
  4  8  1  0
  4  9  1  0
  4 10  1  0
  5  6  1  0
  5 11  1  0
  5 12  1  0
  6  7  1  0
  6 13  1  0
  6 14  1  0
M  RAD  1   1   2
M  END
>  <reaction>  (16) 
rmg_rxn_306

>  <mol_properties>  (16) 
{"0": {"label": "*3", "atom_type": "S2s"}, "1": {"label": "*2", "atom_type": "H0"}, "2": {"label": "*4", "atom_type": "H0"}, "5": {"label": "*0", "atom_type": "Cs"}, "6": {"label": "*1", "atom_type": "O2s"}}

>  <type>  (16) 
unop_12

>  <geom_source>  (16) 
Heuristics

$$$$

     RDKit          3D

 14 12  0  0  0  0  0  0  0  0999 V2000
    0.8770   -1.7589    0.3989 S   0  0  0  0  0  1  0  0  0  0  0  0
    0.8770   -0.1544    0.4759 H   0  0  0  0  0  0  0  0  0  0  0  0
    0.8770   -1.7589   -0.9398 H   0  0  0  0  0  0  0  0  0  0  0  0
   -2.0956    0.7217    0.1440 C   0  0  0  0  0  0  0  0  0  0  0  0
   -1.0492    0.7111   -0.9618 C   0  0  0  0  0  0  0  0  0  0  0  0
    0.2056    1.4962   -0.6090 C   0  0  0  0  0  0  0  0  0  0  0  0
    0.8770    0.9946    0.5311 O   0  0  0  0  0  0  0  0  0  0  0  0
   -2.4354    1.7401    0.3461 H   0  0  0  0  0  0  0  0  0  0  0  0
   -2.9670    0.1254   -0.1303 H   0  0  0  0  0  0  0  0  0  0  0  0
   -1.6849    0.3205    1.0710 H   0  0  0  0  0  0  0  0  0  0  0  0
   -0.7664   -0.3209   -1.1998 H   0  0  0  0  0  0  0  0  0  0  0  0
   -1.4669    1.1316   -1.8816 H   0  0  0  0  0  0  0  0  0  0  0  0
    0.8814    1.5272   -1.4729 H   0  0  0  0  0  0  0  0  0  0  0  0
   -0.0572    2.5273   -0.3625 H   0  0  0  0  0  0  0  0  0  0  0  0
  1  3  1  0
  2  7  1  0
  4  5  1  0
  4  8  1  0
  4  9  1  0
  4 10  1  0
  5  6  1  0
  5 11  1  0
  5 12  1  0
  6  7  1  0
  6 13  1  0
  6 14  1  0
M  RAD  1   1   2
M  END
>  <reaction>  (17) 
rmg_rxn_306

>  <mol_properties>  (17) 
{"0": {"label": "*3", "atom_type": "S2s"}, "1": {"label": "*2", "atom_type": "H0"}, "2": {"label": "*4", "atom_type": "H0"}, "5": {"label": "*0", "atom_type": "Cs"}, "6": {"label": "*1", "atom_type": "O2s"}}

>  <type>  (17) 
unop_13

>  <geom_source>  (17) 
gaussian_log

$$$$
