
     RDKit          3D

 18 17  0  0  0  0  0  0  0  0999 V2000
    2.2026   -0.7213   -0.2612 C   0  0  0  0  0  0  0  0  0  0  0  0
    1.5384    0.2638    0.6915 C   0  0  0  0  0  0  0  0  0  0  0  0
    2.2584    1.5946    0.7694 C   0  0  0  0  0  0  0  0  0  0  0  0
    2.2212    2.2185   -0.4893 O   0  0  0  0  0  0  0  0  0  0  0  0
    2.8988    3.4488   -0.5204 C   0  0  0  0  0  0  0  0  0  0  0  0
    2.7981    4.0296   -1.9118 C   0  0  0  0  0  0  0  0  0  0  0  0
    3.2294   -0.9309    0.0486 H   0  0  0  0  0  0  0  0  0  0  0  0
    2.2338   -0.3181   -1.2734 H   0  0  0  0  0  0  0  0  0  0  0  0
    1.6610   -1.6680   -0.2875 H   0  0  0  0  0  0  0  0  0  0  0  0
    1.4990   -0.1566    1.7002 H   0  0  0  0  0  0  0  0  0  0  0  0
    0.5055    0.4455    0.3835 H   0  0  0  0  0  0  0  0  0  0  0  0
    3.3038    1.4410    1.0808 H   0  0  0  0  0  0  0  0  0  0  0  0
    1.7844    2.2410    1.5226 H   0  0  0  0  0  0  0  0  0  0  0  0
    2.4596    4.1376    0.2164 H   0  0  0  0  0  0  0  0  0  0  0  0
    3.9524    3.3035   -0.2397 H   0  0  0  0  0  0  0  0  0  0  0  0
    1.7543    4.1869   -2.1856 H   0  0  0  0  0  0  0  0  0  0  0  0
    3.2472    3.3545   -2.6411 H   0  0  0  0  0  0  0  0  0  0  0  0
    3.3178    4.9878   -1.9600 H   0  0  0  0  0  0  0  0  0  0  0  0
  1  2  1  0
  1  7  1  0
  1  8  1  0
  1  9  1  0
  2  3  1  0
  2 10  1  0
  2 11  1  0
  3  4  1  0
  3 12  1  0
  3 13  1  0
  4  5  1  0
  5  6  1  0
  5 14  1  0
  5 15  1  0
  6 16  1  0
  6 17  1  0
  6 18  1  0
M  END
>  <reaction>  (1) 
rmg_rxn_338

>  <mol_properties>  (1) 
{"2": {"label": "donator", "atom_type": "Cs"}, "11": {"label": "d_hydrogen", "atom_type": "H0"}}

>  <type>  (1) 
r1h

$$$$

     RDKit          3D

 17 16  0  0  0  0  0  0  0  0999 V2000
    2.3993   -0.7259   -0.8796 C   0  0  0  0  0  0  0  0  0  0  0  0
    1.8173   -0.7170    0.4851 C   0  0  0  0  0  3  0  0  0  0  0  0
    2.6779   -0.5182    1.6852 C   0  0  0  0  0  0  0  0  0  0  0  0
    3.8710   -1.2723    1.6674 O   0  0  0  0  0  0  0  0  0  0  0  0
    3.6589   -2.6587    1.8015 C   0  0  0  0  0  0  0  0  0  0  0  0
    4.9969   -3.3586    1.7556 C   0  0  0  0  0  0  0  0  0  0  0  0
    3.3755   -1.2152   -0.8894 H   0  0  0  0  0  0  0  0  0  0  0  0
    1.7457   -1.2284   -1.5943 H   0  0  0  0  0  0  0  0  0  0  0  0
    2.5578    0.2962   -1.2545 H   0  0  0  0  0  0  0  0  0  0  0  0
    0.7445   -0.6275    0.6059 H   0  0  0  0  0  0  0  0  0  0  0  0
    2.1057   -0.7316    2.5992 H   0  0  0  0  0  0  0  0  0  0  0  0
    3.0103    0.5272    1.7516 H   0  0  0  0  0  0  0  0  0  0  0  0
    3.0050   -3.0235    0.9977 H   0  0  0  0  0  0  0  0  0  0  0  0
    3.1469   -2.8645    2.7531 H   0  0  0  0  0  0  0  0  0  0  0  0
    5.6430   -3.0039    2.5594 H   0  0  0  0  0  0  0  0  0  0  0  0
    4.8641   -4.4360    1.8660 H   0  0  0  0  0  0  0  0  0  0  0  0
    5.4957   -3.1672    0.8046 H   0  0  0  0  0  0  0  0  0  0  0  0
  1  2  1  0
  1  7  1  0
  1  8  1  0
  1  9  1  0
  2  3  1  0
  2 10  1  0
  3  4  1  0
  3 11  1  0
  3 12  1  0
  4  5  1  0
  5  6  1  0
  5 13  1  0
  5 14  1  0
  6 15  1  0
  6 16  1  0
  6 17  1  0
M  RAD  1   2   2
M  END
>  <reaction>  (2) 
rmg_rxn_338

>  <mol_properties>  (2) 
{"1": {"label": "acceptor", "atom_type": "Cs"}}

>  <type>  (2) 
r2

$$$$

     RDKit          3D

 18 17  0  0  0  0  0  0  0  0999 V2000
    2.2026   -0.7213   -0.2612 C   0  0  0  0  0  0  0  0  0  0  0  0
    1.5384    0.2638    0.6915 C   0  0  0  0  0  0  0  0  0  0  0  0
    2.2584    1.5946    0.7694 C   0  0  0  0  0  0  0  0  0  0  0  0
    2.2212    2.2185   -0.4893 O   0  0  0  0  0  0  0  0  0  0  0  0
    2.8988    3.4488   -0.5204 C   0  0  0  0  0  0  0  0  0  0  0  0
    2.7981    4.0296   -1.9118 C   0  0  0  0  0  0  0  0  0  0  0  0
    3.2294   -0.9309    0.0486 H   0  0  0  0  0  0  0  0  0  0  0  0
    2.2338   -0.3181   -1.2734 H   0  0  0  0  0  0  0  0  0  0  0  0
    1.6610   -1.6680   -0.2875 H   0  0  0  0  0  0  0  0  0  0  0  0
    1.4990   -0.1566    1.7002 H   0  0  0  0  0  0  0  0  0  0  0  0
    0.5055    0.4455    0.3835 H   0  0  0  0  0  0  0  0  0  0  0  0
    3.3038    1.4410    1.0808 H   0  0  0  0  0  0  0  0  0  0  0  0
    1.7844    2.2410    1.5226 H   0  0  0  0  0  0  0  0  0  0  0  0
    2.4596    4.1376    0.2164 H   0  0  0  0  0  0  0  0  0  0  0  0
    3.9524    3.3035   -0.2397 H   0  0  0  0  0  0  0  0  0  0  0  0
    1.7543    4.1869   -2.1856 H   0  0  0  0  0  0  0  0  0  0  0  0
    3.2472    3.3545   -2.6411 H   0  0  0  0  0  0  0  0  0  0  0  0
    3.3178    4.9878   -1.9600 H   0  0  0  0  0  0  0  0  0  0  0  0
  1  2  1  0
  1  7  1  0
  1  8  1  0
  1  9  1  0
  2  3  1  0
  2 10  1  0
  2 11  1  0
  3  4  1  0
  3 12  1  0
  3 13  1  0
  4  5  1  0
  5  6  1  0
  5 14  1  0
  5 15  1  0
  6 16  1  0
  6 17  1  0
  6 18  1  0
M  END
>  <reaction>  (3) 
rmg_rxn_338

>  <mol_properties>  (3) 
{"1": {"label": "acceptor", "atom_type": "Cs"}, "17": {"label": "a_hydrogen", "atom_type": "H0"}}

>  <type>  (3) 
r2h

$$$$

     RDKit          3D

 35 33  0  0  0  0  0  0  0  0999 V2000
    2.0287    0.7645    1.4414 C   0  0  0  0  0  0  0  0  0  0  0  0
    1.4224   -0.0773    0.3522 C   0  0  0  0  0  3  0  0  0  0  0  0
    0.6106    0.6467   -0.6777 C   0  0  0  0  0  0  0  0  0  0  0  0
    1.4497    1.4736   -1.4589 O   0  0  0  0  0  0  0  0  0  0  0  0
    0.7482    2.1959   -2.4391 C   0  0  0  0  0  0  0  0  0  0  0  0
    1.7265    3.0457   -3.2168 C   0  0  0  0  0  0  0  0  0  0  0  0
    1.2674    1.3734    1.9374 H   0  0  0  0  0  0  0  0  0  0  0  0
    2.5117    0.1465    2.2008 H   0  0  0  0  0  0  0  0  0  0  0  0
    2.7814    1.4490    1.0389 H   0  0  0  0  0  0  0  0  0  0  0  0
    2.1197   -0.7879   -0.0924 H   0  0  0  0  0  0  0  0  0  0  0  0
   -0.1588    1.2653   -0.1888 H   0  0  0  0  0  0  0  0  0  0  0  0
    0.0845   -0.0687   -1.3252 H   0  0  0  0  0  0  0  0  0  0  0  0
   -0.0167    2.8283   -1.9638 H   0  0  0  0  0  0  0  0  0  0  0  0
    0.2214    1.5027   -3.1116 H   0  0  0  0  0  0  0  0  0  0  0  0
    2.4764    2.4187   -3.7005 H   0  0  0  0  0  0  0  0  0  0  0  0
    1.2040    3.6175   -3.9855 H   0  0  0  0  0  0  0  0  0  0  0  0
    2.2382    3.7435   -2.5530 H   0  0  0  0  0  0  0  0  0  0  0  0
   -0.3887   -3.0433   -0.6675 C   0  0  0  0  0  0  0  0  0  0  0  0
   -0.2948   -3.0531    0.8541 C   0  0  0  0  0  0  0  0  0  0  0  0
   -0.4500   -1.6925    1.4776 C   0  0  0  0  0  0  0  0  0  0  0  0
   -1.6651   -1.1163    1.1526 O   0  0  0  0  0  0  0  0  0  0  0  0
   -1.9619    0.0519    1.8855 C   0  0  0  0  0  0  0  0  0  0  0  0
   -3.1998    0.6911    1.3037 C   0  0  0  0  0  0  0  0  0  0  0  0
    0.4122   -2.4439   -1.1045 H   0  0  0  0  0  0  0  0  0  0  0  0
   -1.3405   -2.6240   -0.9941 H   0  0  0  0  0  0  0  0  0  0  0  0
   -0.3068   -4.0547   -1.0677 H   0  0  0  0  0  0  0  0  0  0  0  0
    0.6737   -3.4524    1.1672 H   0  0  0  0  0  0  0  0  0  0  0  0
   -1.0587   -3.7222    1.2660 H   0  0  0  0  0  0  0  0  0  0  0  0
    0.4962   -0.9241    0.9704 H   0  0  0  0  0  0  0  0  0  0  0  0
   -0.2611   -1.6827    2.5588 H   0  0  0  0  0  0  0  0  0  0  0  0
   -2.1138   -0.2076    2.9422 H   0  0  0  0  0  0  0  0  0  0  0  0
   -1.1127    0.7451    1.8389 H   0  0  0  0  0  0  0  0  0  0  0  0
   -4.0414   -0.0014    1.3384 H   0  0  0  0  0  0  0  0  0  0  0  0
   -3.0296    0.9748    0.2643 H   0  0  0  0  0  0  0  0  0  0  0  0
   -3.4632    1.5860    1.8694 H   0  0  0  0  0  0  0  0  0  0  0  0
  1  2  1  0
  1  7  1  0
  1  8  1  0
  1  9  1  0
  2  3  1  0
  2 10  1  0
  3  4  1  0
  3 11  1  0
  3 12  1  0
  4  5  1  0
  5  6  1  0
  5 13  1  0
  5 14  1  0
  6 15  1  0
  6 16  1  0
  6 17  1  0
 18 19  1  0
 18 24  1  0
 18 25  1  0
 18 26  1  0
 19 20  1  0
 19 27  1  0
 19 28  1  0
 20 21  1  0
 20 29  1  0
 20 30  1  0
 21 22  1  0
 22 23  1  0
 22 31  1  0
 22 32  1  0
 23 33  1  0
 23 34  1  0
 23 35  1  0
M  RAD  1   2   2
M  END
>  <reaction>  (4) 
rmg_rxn_338

>  <mol_properties>  (4) 
{"1": {"label": "*3", "atom_type": "Cs"}, "2": {"label": "*4", "atom_type": "Cs"}, "19": {"label": "*1", "atom_type": "Cs"}, "20": {"label": "*0", "atom_type": "O2s"}, "28": {"label": "*2", "atom_type": "H0"}}

>  <type>  (4) 
ts

$$$$

     RDKit          3D

 35 33  0  0  0  0  0  0  0  0999 V2000
    0.0495    1.4309   -0.8190 C   0  0  0  0  0  0  0  0  0  0  0  0
    0.5033    0.1849   -0.0702 C   0  0  0  0  0  0  0  0  0  0  0  0
    1.9231   -0.2259   -0.4030 C   0  0  0  0  0  0  0  0  0  0  0  0
    2.8080    0.7884    0.0008 O   0  0  0  0  0  0  0  0  0  0  0  0
    4.1509    0.5078   -0.3019 C   0  0  0  0  0  0  0  0  0  0  0  0
    5.0111    1.6566    0.1713 C   0  0  0  0  0  0  0  0  0  0  0  0
    0.0918    1.2730   -1.8996 H   0  0  0  0  0  0  0  0  0  0  0  0
   -0.9772    1.6931   -0.5591 H   0  0  0  0  0  0  0  0  0  0  0  0
    0.6894    2.2800   -0.5792 H   0  0  0  0  0  0  0  0  0  0  0  0
    0.4330    0.3487    1.0082 H   0  0  0  0  0  0  0  0  0  0  0  0
    2.0220   -0.4003   -1.4861 H   0  0  0  0  0  0  0  0  0  0  0  0
    2.1762   -1.1684    0.1044 H   0  0  0  0  0  0  0  0  0  0  0  0
    4.2678    0.3609   -1.3857 H   0  0  0  0  0  0  0  0  0  0  0  0
    4.4578   -0.4289    0.1866 H   0  0  0  0  0  0  0  0  0  0  0  0
    4.9064    1.7942    1.2481 H   0  0  0  0  0  0  0  0  0  0  0  0
    6.0608    1.4603   -0.0530 H   0  0  0  0  0  0  0  0  0  0  0  0
    4.7179    2.5829   -0.3240 H   0  0  0  0  0  0  0  0  0  0  0  0
   -1.5872   -2.5595   -1.3268 C   0  0  0  0  0  0  0  0  0  0  0  0
   -1.5872   -2.5595    0.1961 C   0  0  0  0  0  0  0  0  0  0  0  0
   -1.5872   -1.1664    0.7916 C   0  0  0  0  0  3  0  0  0  0  0  0
   -2.7702   -0.5028    0.4240 O   0  0  0  0  0  0  0  0  0  0  0  0
   -2.8409    0.8153    0.9049 C   0  0  0  0  0  0  0  0  0  0  0  0
   -4.1442    1.4330    0.4541 C   0  0  0  0  0  0  0  0  0  0  0  0
   -0.7051   -2.0451   -1.7164 H   0  0  0  0  0  0  0  0  0  0  0  0
   -2.4699   -2.0498   -1.7129 H   0  0  0  0  0  0  0  0  0  0  0  0
   -1.5817   -3.5773   -1.7195 H   0  0  0  0  0  0  0  0  0  0  0  0
   -0.7056   -3.0859    0.5724 H   0  0  0  0  0  0  0  0  0  0  0  0
   -2.4615   -3.0974    0.5714 H   0  0  0  0  0  0  0  0  0  0  0  0
   -0.5381   -0.4883    0.3591 H   0  0  0  0  0  0  0  0  0  0  0  0
   -1.5124   -1.2203    1.8877 H   0  0  0  0  0  0  0  0  0  0  0  0
   -2.7736    0.8181    2.0030 H   0  0  0  0  0  0  0  0  0  0  0  0
   -1.9880    1.3982    0.5270 H   0  0  0  0  0  0  0  0  0  0  0  0
   -4.9906    0.8636    0.8398 H   0  0  0  0  0  0  0  0  0  0  0  0
   -4.2050    1.4449   -0.6347 H   0  0  0  0  0  0  0  0  0  0  0  0
   -4.2218    2.4591    0.8171 H   0  0  0  0  0  0  0  0  0  0  0  0
  1  2  1  0
  1  7  1  0
  1  8  1  0
  1  9  1  0
  2  3  1  0
  2 10  1  0
  2 29  1  0
  3  4  1  0
  3 11  1  0
  3 12  1  0
  4  5  1  0
  5  6  1  0
  5 13  1  0
  5 14  1  0
  6 15  1  0
  6 16  1  0
  6 17  1  0
 18 19  1  0
 18 24  1  0
 18 25  1  0
 18 26  1  0
 19 20  1  0
 19 27  1  0
 19 28  1  0
 20 21  1  0
 20 30  1  0
 21 22  1  0
 22 23  1  0
 22 31  1  0
 22 32  1  0
 23 33  1  0
 23 34  1  0
 23 35  1  0
M  RAD  1  20   2
M  END
>  <reaction>  (5) 
rmg_rxn_338

>  <mol_properties>  (5) 
{"1": {"label": "*3", "atom_type": "Cs"}, "2": {"label": "*4", "atom_type": "Cs"}, "19": {"label": "*1", "atom_type": "Cs"}, "20": {"label": "*0", "atom_type": "O2s"}, "28": {"label": "*2", "atom_type": "H0"}}

>  <type>  (5) 
unop_1

>  <geom_source>  (5) 
Heuristics

$$$$

     RDKit          3D

 35 33  0  0  0  0  0  0  0  0999 V2000
    0.9690   -0.4658   -1.6646 C   0  0  0  0  0  0  0  0  0  0  0  0
    0.5766    0.0082   -0.2715 C   0  0  0  0  0  0  0  0  0  0  0  0
    1.7684    0.2619    0.6288 C   0  0  0  0  0  0  0  0  0  0  0  0
    2.5447    1.3029    0.0915 O   0  0  0  0  0  0  0  0  0  0  0  0
    3.6960    1.5844    0.8457 C   0  0  0  0  0  0  0  0  0  0  0  0
    4.4537    2.7114    0.1828 C   0  0  0  0  0  0  0  0  0  0  0  0
    1.5356   -1.3989   -1.6135 H   0  0  0  0  0  0  0  0  0  0  0  0
    0.0871   -0.6432   -2.2819 H   0  0  0  0  0  0  0  0  0  0  0  0
    1.5911    0.2769   -2.1641 H   0  0  0  0  0  0  0  0  0  0  0  0
   -0.0094    0.9284   -0.3394 H   0  0  0  0  0  0  0  0  0  0  0  0
    2.3767   -0.6521    0.7172 H   0  0  0  0  0  0  0  0  0  0  0  0
    1.4313    0.5294    1.6411 H   0  0  0  0  0  0  0  0  0  0  0  0
    4.3269    0.6860    0.9159 H   0  0  0  0  0  0  0  0  0  0  0  0
    3.4135    1.8624    1.8720 H   0  0  0  0  0  0  0  0  0  0  0  0
    3.8337    3.6067    0.1252 H   0  0  0  0  0  0  0  0  0  0  0  0
    5.3536    2.9484    0.7525 H   0  0  0  0  0  0  0  0  0  0  0  0
    4.7477    2.4308   -0.8292 H   0  0  0  0  0  0  0  0  0  0  0  0
   -1.5138   -2.7362   -1.5281 C   0  0  0  0  0  0  0  0  0  0  0  0
   -1.5138   -2.7362   -0.0052 C   0  0  0  0  0  0  0  0  0  0  0  0
   -1.5138   -1.3431    0.5903 C   0  0  0  0  0  3  0  0  0  0  0  0
   -2.6968   -0.6795    0.2227 O   0  0  0  0  0  0  0  0  0  0  0  0
   -2.7675    0.6386    0.7036 C   0  0  0  0  0  0  0  0  0  0  0  0
   -4.0708    1.2563    0.2528 C   0  0  0  0  0  0  0  0  0  0  0  0
   -0.6317   -2.2218   -1.9178 H   0  0  0  0  0  0  0  0  0  0  0  0
   -2.3965   -2.2265   -1.9142 H   0  0  0  0  0  0  0  0  0  0  0  0
   -1.5083   -3.7540   -1.9208 H   0  0  0  0  0  0  0  0  0  0  0  0
   -0.6323   -3.2626    0.3711 H   0  0  0  0  0  0  0  0  0  0  0  0
   -2.3882   -3.2741    0.3700 H   0  0  0  0  0  0  0  0  0  0  0  0
   -0.4648   -0.6650    0.1578 H   0  0  0  0  0  0  0  0  0  0  0  0
   -1.4390   -1.3970    1.6863 H   0  0  0  0  0  0  0  0  0  0  0  0
   -2.7003    0.6414    1.8017 H   0  0  0  0  0  0  0  0  0  0  0  0
   -1.9147    1.2215    0.3257 H   0  0  0  0  0  0  0  0  0  0  0  0
   -4.9172    0.6869    0.6384 H   0  0  0  0  0  0  0  0  0  0  0  0
   -4.1316    1.2682   -0.8361 H   0  0  0  0  0  0  0  0  0  0  0  0
   -4.1484    2.2824    0.6158 H   0  0  0  0  0  0  0  0  0  0  0  0
  1  2  1  0
  1  7  1  0
  1  8  1  0
  1  9  1  0
  2  3  1  0
  2 10  1  0
  2 29  1  0
  3  4  1  0
  3 11  1  0
  3 12  1  0
  4  5  1  0
  5  6  1  0
  5 13  1  0
  5 14  1  0
  6 15  1  0
  6 16  1  0
  6 17  1  0
 18 19  1  0
 18 24  1  0
 18 25  1  0
 18 26  1  0
 19 20  1  0
 19 27  1  0
 19 28  1  0
 20 21  1  0
 20 30  1  0
 21 22  1  0
 22 23  1  0
 22 31  1  0
 22 32  1  0
 23 33  1  0
 23 34  1  0
 23 35  1  0
M  RAD  1  20   2
M  END
>  <reaction>  (6) 
rmg_rxn_338

>  <mol_properties>  (6) 
{"1": {"label": "*3", "atom_type": "Cs"}, "2": {"label": "*4", "atom_type": "Cs"}, "19": {"label": "*1", "atom_type": "Cs"}, "20": {"label": "*0", "atom_type": "O2s"}, "28": {"label": "*2", "atom_type": "H0"}}

>  <type>  (6) 
unop_2

>  <geom_source>  (6) 
Heuristics

$$$$

     RDKit          3D

 35 33  0  0  0  0  0  0  0  0999 V2000
    0.2471    1.7909    0.2204 C   0  0  0  0  0  0  0  0  0  0  0  0
    0.5727    0.3044    0.2810 C   0  0  0  0  0  0  0  0  0  0  0  0
    1.5745   -0.1291   -0.7695 C   0  0  0  0  0  0  0  0  0  0  0  0
    2.7979    0.5246   -0.5442 O   0  0  0  0  0  0  0  0  0  0  0  0
    3.7811    0.2084   -1.4966 C   0  0  0  0  0  0  0  0  0  0  0  0
    5.0480    0.9614   -1.1628 C   0  0  0  0  0  0  0  0  0  0  0  0
   -0.1735    2.0583   -0.7522 H   0  0  0  0  0  0  0  0  0  0  0  0
   -0.4799    2.0652    0.9862 H   0  0  0  0  0  0  0  0  0  0  0  0
    1.1453    2.3894    0.3728 H   0  0  0  0  0  0  0  0  0  0  0  0
    0.9697    0.0471    1.2664 H   0  0  0  0  0  0  0  0  0  0  0  0
    1.1978    0.1166   -1.7751 H   0  0  0  0  0  0  0  0  0  0  0  0
    1.7190   -1.2189   -0.7318 H   0  0  0  0  0  0  0  0  0  0  0  0
    3.4279    0.4771   -2.5031 H   0  0  0  0  0  0  0  0  0  0  0  0
    3.9673   -0.8759   -1.4978 H   0  0  0  0  0  0  0  0  0  0  0  0
    5.4065    0.6852   -0.1706 H   0  0  0  0  0  0  0  0  0  0  0  0
    5.8278    0.7305   -1.8903 H   0  0  0  0  0  0  0  0  0  0  0  0
    4.8682    2.0369   -1.1767 H   0  0  0  0  0  0  0  0  0  0  0  0
   -1.5178   -2.4399   -0.9756 C   0  0  0  0  0  0  0  0  0  0  0  0
   -1.5178   -2.4399    0.5473 C   0  0  0  0  0  0  0  0  0  0  0  0
   -1.5178   -1.0468    1.1428 C   0  0  0  0  0  3  0  0  0  0  0  0
   -2.7008   -0.3832    0.7752 O   0  0  0  0  0  0  0  0  0  0  0  0
   -2.7715    0.9348    1.2561 C   0  0  0  0  0  0  0  0  0  0  0  0
   -4.0748    1.5526    0.8053 C   0  0  0  0  0  0  0  0  0  0  0  0
   -0.6357   -1.9256   -1.3652 H   0  0  0  0  0  0  0  0  0  0  0  0
   -2.4005   -1.9302   -1.3617 H   0  0  0  0  0  0  0  0  0  0  0  0
   -1.5123   -3.4577   -1.3683 H   0  0  0  0  0  0  0  0  0  0  0  0
   -0.6362   -2.9664    0.9236 H   0  0  0  0  0  0  0  0  0  0  0  0
   -2.3921   -2.9779    0.9226 H   0  0  0  0  0  0  0  0  0  0  0  0
   -0.4687   -0.3687    0.7104 H   0  0  0  0  0  0  0  0  0  0  0  0
   -1.4430   -1.1007    2.2389 H   0  0  0  0  0  0  0  0  0  0  0  0
   -2.7042    0.9377    2.3542 H   0  0  0  0  0  0  0  0  0  0  0  0
   -1.9186    1.5178    0.8783 H   0  0  0  0  0  0  0  0  0  0  0  0
   -4.9212    0.9832    1.1910 H   0  0  0  0  0  0  0  0  0  0  0  0
   -4.1356    1.5645   -0.2835 H   0  0  0  0  0  0  0  0  0  0  0  0
   -4.1524    2.5786    1.1684 H   0  0  0  0  0  0  0  0  0  0  0  0
  1  2  1  0
  1  7  1  0
  1  8  1  0
  1  9  1  0
  2  3  1  0
  2 10  1  0
  2 29  1  0
  3  4  1  0
  3 11  1  0
  3 12  1  0
  4  5  1  0
  5  6  1  0
  5 13  1  0
  5 14  1  0
  6 15  1  0
  6 16  1  0
  6 17  1  0
 18 19  1  0
 18 24  1  0
 18 25  1  0
 18 26  1  0
 19 20  1  0
 19 27  1  0
 19 28  1  0
 20 21  1  0
 20 30  1  0
 21 22  1  0
 22 23  1  0
 22 31  1  0
 22 32  1  0
 23 33  1  0
 23 34  1  0
 23 35  1  0
M  RAD  1  20   2
M  END
>  <reaction>  (7) 
rmg_rxn_338

>  <mol_properties>  (7) 
{"1": {"label": "*3", "atom_type": "Cs"}, "2": {"label": "*4", "atom_type": "Cs"}, "19": {"label": "*1", "atom_type": "Cs"}, "20": {"label": "*0", "atom_type": "O2s"}, "28": {"label": "*2", "atom_type": "H0"}}

>  <type>  (7) 
unop_3

>  <geom_source>  (7) 
Heuristics

$$$$

     RDKit          3D

 35 33  0  0  0  0  0  0  0  0999 V2000
    2.5367   -1.0290   -0.3475 C   0  0  0  0  0  0  0  0  0  0  0  0
    1.2511   -0.3207   -0.7535 C   0  0  0  0  0  0  0  0  0  0  0  0
    0.7606    0.6656    0.2867 C   0  0  0  0  0  0  0  0  0  0  0  0
    1.7109    1.6892    0.4425 O   0  0  0  0  0  0  0  0  0  0  0  0
    1.3545    2.6352    1.4180 C   0  0  0  0  0  0  0  0  0  0  0  0
    2.4391    3.6839    1.5043 C   0  0  0  0  0  0  0  0  0  0  0  0
    2.3973   -1.5871    0.5817 H   0  0  0  0  0  0  0  0  0  0  0  0
    2.8563   -1.7339   -1.1165 H   0  0  0  0  0  0  0  0  0  0  0  0
    3.3402   -0.3099   -0.1890 H   0  0  0  0  0  0  0  0  0  0  0  0
    1.3983    0.2132   -1.6959 H   0  0  0  0  0  0  0  0  0  0  0  0
    0.6012    0.1527    1.2484 H   0  0  0  0  0  0  0  0  0  0  0  0
   -0.2051    1.0938   -0.0194 H   0  0  0  0  0  0  0  0  0  0  0  0
    1.2214    2.1387    2.3905 H   0  0  0  0  0  0  0  0  0  0  0  0
    0.3915    3.0987    1.1569 H   0  0  0  0  0  0  0  0  0  0  0  0
    2.5622    4.1862    0.5442 H   0  0  0  0  0  0  0  0  0  0  0  0
    2.1832    4.4313    2.2569 H   0  0  0  0  0  0  0  0  0  0  0  0
    3.3909    3.2275    1.7784 H   0  0  0  0  0  0  0  0  0  0  0  0
   -0.8393   -3.0650   -2.0101 C   0  0  0  0  0  0  0  0  0  0  0  0
   -0.8393   -3.0650   -0.4872 C   0  0  0  0  0  0  0  0  0  0  0  0
   -0.8393   -1.6719    0.1083 C   0  0  0  0  0  3  0  0  0  0  0  0
   -2.0223   -1.0083   -0.2593 O   0  0  0  0  0  0  0  0  0  0  0  0
   -2.0930    0.3097    0.2216 C   0  0  0  0  0  0  0  0  0  0  0  0
   -3.3964    0.9275   -0.2292 C   0  0  0  0  0  0  0  0  0  0  0  0
    0.0427   -2.5507   -2.3997 H   0  0  0  0  0  0  0  0  0  0  0  0
   -1.7220   -2.5553   -2.3962 H   0  0  0  0  0  0  0  0  0  0  0  0
   -0.8338   -4.0829   -2.4028 H   0  0  0  0  0  0  0  0  0  0  0  0
    0.0422   -3.5915   -0.1109 H   0  0  0  0  0  0  0  0  0  0  0  0
   -1.7137   -3.6030   -0.1119 H   0  0  0  0  0  0  0  0  0  0  0  0
    0.2097   -0.9938   -0.3242 H   0  0  0  0  0  0  0  0  0  0  0  0
   -0.7645   -1.7259    1.2044 H   0  0  0  0  0  0  0  0  0  0  0  0
   -2.0258    0.3126    1.3197 H   0  0  0  0  0  0  0  0  0  0  0  0
   -1.2402    0.8927   -0.1563 H   0  0  0  0  0  0  0  0  0  0  0  0
   -4.2427    0.3581    0.1565 H   0  0  0  0  0  0  0  0  0  0  0  0
   -3.4572    0.9394   -1.3180 H   0  0  0  0  0  0  0  0  0  0  0  0
   -3.4740    1.9535    0.1338 H   0  0  0  0  0  0  0  0  0  0  0  0
  1  2  1  0
  1  7  1  0
  1  8  1  0
  1  9  1  0
  2  3  1  0
  2 10  1  0
  2 29  1  0
  3  4  1  0
  3 11  1  0
  3 12  1  0
  4  5  1  0
  5  6  1  0
  5 13  1  0
  5 14  1  0
  6 15  1  0
  6 16  1  0
  6 17  1  0
 18 19  1  0
 18 24  1  0
 18 25  1  0
 18 26  1  0
 19 20  1  0
 19 27  1  0
 19 28  1  0
 20 21  1  0
 20 30  1  0
 21 22  1  0
 22 23  1  0
 22 31  1  0
 22 32  1  0
 23 33  1  0
 23 34  1  0
 23 35  1  0
M  RAD  1  20   2
M  END
>  <reaction>  (8) 
rmg_rxn_338

>  <mol_properties>  (8) 
{"1": {"label": "*3", "atom_type": "Cs"}, "2": {"label": "*4", "atom_type": "Cs"}, "19": {"label": "*1", "atom_type": "Cs"}, "20": {"label": "*0", "atom_type": "O2s"}, "28": {"label": "*2", "atom_type": "H0"}}

>  <type>  (8) 
unop_4

>  <geom_source>  (8) 
Heuristics

$$$$

     RDKit          3D

 35 33  0  0  0  0  0  0  0  0999 V2000
    1.0706    1.5184    1.3050 C   0  0  0  0  0  0  0  0  0  0  0  0
    1.0692    0.1177    0.7072 C   0  0  0  0  0  0  0  0  0  0  0  0
    1.0324    0.1167   -0.8074 C   0  0  0  0  0  0  0  0  0  0  0  0
    2.1980    0.7263   -1.3020 O   0  0  0  0  0  0  0  0  0  0  0  0
    2.2339    0.8020   -2.7043 C   0  0  0  0  0  0  0  0  0  0  0  0
    3.5211    1.4713   -3.1271 C   0  0  0  0  0  0  0  0  0  0  0  0
    0.1758    2.0703    1.0065 H   0  0  0  0  0  0  0  0  0  0  0  0
    1.0920    1.4800    2.3951 H   0  0  0  0  0  0  0  0  0  0  0  0
    1.9401    2.0818    0.9665 H   0  0  0  0  0  0  0  0  0  0  0  0
    1.9570   -0.4303    1.0332 H   0  0  0  0  0  0  0  0  0  0  0  0
    0.1441    0.6617   -1.1642 H   0  0  0  0  0  0  0  0  0  0  0  0
    0.9580   -0.9132   -1.1863 H   0  0  0  0  0  0  0  0  0  0  0  0
    1.3665    1.3703   -3.0712 H   0  0  0  0  0  0  0  0  0  0  0  0
    2.1656   -0.2075   -3.1364 H   0  0  0  0  0  0  0  0  0  0  0  0
    4.3817    0.9011   -2.7755 H   0  0  0  0  0  0  0  0  0  0  0  0
    3.5716    1.5408   -4.2148 H   0  0  0  0  0  0  0  0  0  0  0  0
    3.5826    2.4780   -2.7120 H   0  0  0  0  0  0  0  0  0  0  0  0
   -1.0212   -2.6266   -0.5495 C   0  0  0  0  0  0  0  0  0  0  0  0
   -1.0212   -2.6266    0.9734 C   0  0  0  0  0  0  0  0  0  0  0  0
   -1.0212   -1.2336    1.5690 C   0  0  0  0  0  3  0  0  0  0  0  0
   -2.2042   -0.5700    1.2014 O   0  0  0  0  0  0  0  0  0  0  0  0
   -2.2749    0.7481    1.6823 C   0  0  0  0  0  0  0  0  0  0  0  0
   -3.5782    1.3659    1.2314 C   0  0  0  0  0  0  0  0  0  0  0  0
   -0.1391   -2.1123   -0.9391 H   0  0  0  0  0  0  0  0  0  0  0  0
   -1.9039   -2.1169   -0.9355 H   0  0  0  0  0  0  0  0  0  0  0  0
   -1.0157   -3.6445   -0.9421 H   0  0  0  0  0  0  0  0  0  0  0  0
   -0.1397   -3.1531    1.3497 H   0  0  0  0  0  0  0  0  0  0  0  0
   -1.8956   -3.1646    1.3487 H   0  0  0  0  0  0  0  0  0  0  0  0
    0.0278   -0.5555    1.1365 H   0  0  0  0  0  0  0  0  0  0  0  0
   -0.9464   -1.2875    2.6650 H   0  0  0  0  0  0  0  0  0  0  0  0
   -2.2077    0.7510    2.7803 H   0  0  0  0  0  0  0  0  0  0  0  0
   -1.4221    1.3311    1.3044 H   0  0  0  0  0  0  0  0  0  0  0  0
   -4.4246    0.7965    1.6171 H   0  0  0  0  0  0  0  0  0  0  0  0
   -3.6390    1.3777    0.1426 H   0  0  0  0  0  0  0  0  0  0  0  0
   -3.6558    2.3919    1.5945 H   0  0  0  0  0  0  0  0  0  0  0  0
  1  2  1  0
  1  7  1  0
  1  8  1  0
  1  9  1  0
  2  3  1  0
  2 10  1  0
  2 29  1  0
  3  4  1  0
  3 11  1  0
  3 12  1  0
  4  5  1  0
  5  6  1  0
  5 13  1  0
  5 14  1  0
  6 15  1  0
  6 16  1  0
  6 17  1  0
 18 19  1  0
 18 24  1  0
 18 25  1  0
 18 26  1  0
 19 20  1  0
 19 27  1  0
 19 28  1  0
 20 21  1  0
 20 30  1  0
 21 22  1  0
 22 23  1  0
 22 31  1  0
 22 32  1  0
 23 33  1  0
 23 34  1  0
 23 35  1  0
M  RAD  1  20   2
M  END
>  <reaction>  (9) 
rmg_rxn_338

>  <mol_properties>  (9) 
{"1": {"label": "*3", "atom_type": "Cs"}, "2": {"label": "*4", "atom_type": "Cs"}, "19": {"label": "*1", "atom_type": "Cs"}, "20": {"label": "*0", "atom_type": "O2s"}, "28": {"label": "*2", "atom_type": "H0"}}

>  <type>  (9) 
unop_5

>  <geom_source>  (9) 
Heuristics

$$$$

     RDKit          3D

 35 33  0  0  0  0  0  0  0  0999 V2000
    2.7850   -0.6851    0.4429 C   0  0  0  0  0  0  0  0  0  0  0  0
    1.6042   -0.4790   -0.4965 C   0  0  0  0  0  0  0  0  0  0  0  0
    0.6311    0.5743   -0.0077 C   0  0  0  0  0  0  0  0  0  0  0  0
    1.2805    1.8195    0.0452 O   0  0  0  0  0  0  0  0  0  0  0  0
    0.4601    2.8546    0.5238 C   0  0  0  0  0  0  0  0  0  0  0  0
    1.2526    4.1411    0.5407 C   0  0  0  0  0  0  0  0  0  0  0  0
    2.4450   -0.9987    1.4331 H   0  0  0  0  0  0  0  0  0  0  0  0
    3.4603   -1.4528    0.0623 H   0  0  0  0  0  0  0  0  0  0  0  0
    3.3509    0.2391    0.5603 H   0  0  0  0  0  0  0  0  0  0  0  0
    1.9601   -0.1892   -1.4885 H   0  0  0  0  0  0  0  0  0  0  0  0
    0.2539    0.3056    0.9918 H   0  0  0  0  0  0  0  0  0  0  0  0
   -0.2374    0.6324   -0.6802 H   0  0  0  0  0  0  0  0  0  0  0  0
    0.1008    2.6110    1.5346 H   0  0  0  0  0  0  0  0  0  0  0  0
   -0.4269    2.9579   -0.1187 H   0  0  0  0  0  0  0  0  0  0  0  0
    1.5975    4.3907   -0.4633 H   0  0  0  0  0  0  0  0  0  0  0  0
    0.6344    4.9613    0.9091 H   0  0  0  0  0  0  0  0  0  0  0  0
    2.1237    4.0448    1.1897 H   0  0  0  0  0  0  0  0  0  0  0  0
   -0.4862   -3.2233   -1.7531 C   0  0  0  0  0  0  0  0  0  0  0  0
   -0.4862   -3.2233   -0.2302 C   0  0  0  0  0  0  0  0  0  0  0  0
   -0.4862   -1.8303    0.3653 C   0  0  0  0  0  3  0  0  0  0  0  0
   -1.6692   -1.1667   -0.0023 O   0  0  0  0  0  0  0  0  0  0  0  0
   -1.7399    0.1514    0.4786 C   0  0  0  0  0  0  0  0  0  0  0  0
   -3.0432    0.7692    0.0278 C   0  0  0  0  0  0  0  0  0  0  0  0
    0.3959   -2.7090   -2.1427 H   0  0  0  0  0  0  0  0  0  0  0  0
   -1.3689   -2.7136   -2.1392 H   0  0  0  0  0  0  0  0  0  0  0  0
   -0.4807   -4.2412   -2.1458 H   0  0  0  0  0  0  0  0  0  0  0  0
    0.3953   -3.7498    0.1461 H   0  0  0  0  0  0  0  0  0  0  0  0
   -1.3606   -3.7613    0.1451 H   0  0  0  0  0  0  0  0  0  0  0  0
    0.5628   -1.1522   -0.0671 H   0  0  0  0  0  0  0  0  0  0  0  0
   -0.4114   -1.8842    1.4614 H   0  0  0  0  0  0  0  0  0  0  0  0
   -1.6727    0.1542    1.5767 H   0  0  0  0  0  0  0  0  0  0  0  0
   -0.8871    0.7344    0.1007 H   0  0  0  0  0  0  0  0  0  0  0  0
   -3.8896    0.1998    0.4135 H   0  0  0  0  0  0  0  0  0  0  0  0
   -3.1041    0.7810   -1.0610 H   0  0  0  0  0  0  0  0  0  0  0  0
   -3.1209    1.7952    0.3908 H   0  0  0  0  0  0  0  0  0  0  0  0
  1  2  1  0
  1  7  1  0
  1  8  1  0
  1  9  1  0
  2  3  1  0
  2 10  1  0
  2 29  1  0
  3  4  1  0
  3 11  1  0
  3 12  1  0
  4  5  1  0
  5  6  1  0
  5 13  1  0
  5 14  1  0
  6 15  1  0
  6 16  1  0
  6 17  1  0
 18 19  1  0
 18 24  1  0
 18 25  1  0
 18 26  1  0
 19 20  1  0
 19 27  1  0
 19 28  1  0
 20 21  1  0
 20 30  1  0
 21 22  1  0
 22 23  1  0
 22 31  1  0
 22 32  1  0
 23 33  1  0
 23 34  1  0
 23 35  1  0
M  RAD  1  20   2
M  END
>  <reaction>  (10) 
rmg_rxn_338

>  <mol_properties>  (10) 
{"1": {"label": "*3", "atom_type": "Cs"}, "2": {"label": "*4", "atom_type": "Cs"}, "19": {"label": "*1", "atom_type": "Cs"}, "20": {"label": "*0", "atom_type": "O2s"}, "28": {"label": "*2", "atom_type": "H0"}}

>  <type>  (10) 
unop_6

>  <geom_source>  (10) 
Heuristics

$$$$

     RDKit          3D

 35 33  0  0  0  0  0  0  0  0999 V2000
    2.6738   -0.0612    1.1425 C   0  0  0  0  0  0  0  0  0  0  0  0
    1.8028   -0.4847   -0.0327 C   0  0  0  0  0  0  0  0  0  0  0  0
    0.6182    0.4328   -0.2570 C   0  0  0  0  0  0  0  0  0  0  0  0
    1.0807    1.7183   -0.5867 O   0  0  0  0  0  0  0  0  0  0  0  0
    0.0463    2.6492   -0.7785 C   0  0  0  0  0  0  0  0  0  0  0  0
    0.6506    3.9901   -1.1255 C   0  0  0  0  0  0  0  0  0  0  0  0
    2.0973   -0.0505    2.0709 H   0  0  0  0  0  0  0  0  0  0  0  0
    3.5120   -0.7465    1.2770 H   0  0  0  0  0  0  0  0  0  0  0  0
    3.0741    0.9404    0.9853 H   0  0  0  0  0  0  0  0  0  0  0  0
    2.3976   -0.5141   -0.9493 H   0  0  0  0  0  0  0  0  0  0  0  0
   -0.0014    0.4793    0.6525 H   0  0  0  0  0  0  0  0  0  0  0  0
   -0.0174    0.0439   -1.0661 H   0  0  0  0  0  0  0  0  0  0  0  0
   -0.5624    2.7265    0.1345 H   0  0  0  0  0  0  0  0  0  0  0  0
   -0.6207    2.3082   -1.5842 H   0  0  0  0  0  0  0  0  0  0  0  0
    1.2431    3.9176   -2.0382 H   0  0  0  0  0  0  0  0  0  0  0  0
   -0.1357    4.7306   -1.2800 H   0  0  0  0  0  0  0  0  0  0  0  0
    1.2999    4.3364   -0.3205 H   0  0  0  0  0  0  0  0  0  0  0  0
   -0.2877   -3.2290   -1.2893 C   0  0  0  0  0  0  0  0  0  0  0  0
   -0.2877   -3.2290    0.2336 C   0  0  0  0  0  0  0  0  0  0  0  0
   -0.2877   -1.8359    0.8291 C   0  0  0  0  0  3  0  0  0  0  0  0
   -1.4707   -1.1723    0.4615 O   0  0  0  0  0  0  0  0  0  0  0  0
   -1.5414    0.1457    0.9424 C   0  0  0  0  0  0  0  0  0  0  0  0
   -2.8447    0.7635    0.4916 C   0  0  0  0  0  0  0  0  0  0  0  0
    0.5944   -2.7147   -1.6789 H   0  0  0  0  0  0  0  0  0  0  0  0
   -1.1704   -2.7193   -1.6754 H   0  0  0  0  0  0  0  0  0  0  0  0
   -0.2822   -4.2469   -1.6820 H   0  0  0  0  0  0  0  0  0  0  0  0
    0.5939   -3.7555    0.6099 H   0  0  0  0  0  0  0  0  0  0  0  0
   -1.1620   -3.7670    0.6089 H   0  0  0  0  0  0  0  0  0  0  0  0
    0.7614   -1.1578    0.3966 H   0  0  0  0  0  0  0  0  0  0  0  0
   -0.2129   -1.8899    1.9252 H   0  0  0  0  0  0  0  0  0  0  0  0
   -1.4741    0.1486    2.0405 H   0  0  0  0  0  0  0  0  0  0  0  0
   -0.6885    0.7287    0.5645 H   0  0  0  0  0  0  0  0  0  0  0  0
   -3.6911    0.1941    0.8773 H   0  0  0  0  0  0  0  0  0  0  0  0
   -2.9055    0.7754   -0.5972 H   0  0  0  0  0  0  0  0  0  0  0  0
   -2.9223    1.7895    0.8546 H   0  0  0  0  0  0  0  0  0  0  0  0
  1  2  1  0
  1  7  1  0
  1  8  1  0
  1  9  1  0
  2  3  1  0
  2 10  1  0
  2 29  1  0
  3  4  1  0
  3 11  1  0
  3 12  1  0
  4  5  1  0
  5  6  1  0
  5 13  1  0
  5 14  1  0
  6 15  1  0
  6 16  1  0
  6 17  1  0
 18 19  1  0
 18 24  1  0
 18 25  1  0
 18 26  1  0
 19 20  1  0
 19 27  1  0
 19 28  1  0
 20 21  1  0
 20 30  1  0
 21 22  1  0
 22 23  1  0
 22 31  1  0
 22 32  1  0
 23 33  1  0
 23 34  1  0
 23 35  1  0
M  RAD  1  20   2
M  END
>  <reaction>  (11) 
rmg_rxn_338

>  <mol_properties>  (11) 
{"1": {"label": "*3", "atom_type": "Cs"}, "2": {"label": "*4", "atom_type": "Cs"}, "19": {"label": "*1", "atom_type": "Cs"}, "20": {"label": "*0", "atom_type": "O2s"}, "28": {"label": "*2", "atom_type": "H0"}}

>  <type>  (11) 
unop_7

>  <geom_source>  (11) 
Heuristics

$$$$

     RDKit          3D

 35 33  0  0  0  0  0  0  0  0999 V2000
    0.2072    0.7787   -1.4583 C   0  0  0  0  0  0  0  0  0  0  0  0
    0.5562    0.0350   -0.1760 C   0  0  0  0  0  0  0  0  0  0  0  0
    2.0471   -0.1540    0.0158 C   0  0  0  0  0  0  0  0  0  0  0  0
    2.6636    1.1028    0.1403 O   0  0  0  0  0  0  0  0  0  0  0  0
    4.0586    1.0258    0.2871 C   0  0  0  0  0  0  0  0  0  0  0  0
    4.6171    2.4245    0.4108 C   0  0  0  0  0  0  0  0  0  0  0  0
    0.5765    0.2395   -2.3343 H   0  0  0  0  0  0  0  0  0  0  0  0
   -0.8727    0.8912   -1.5655 H   0  0  0  0  0  0  0  0  0  0  0  0
    0.6557    1.7721   -1.4628 H   0  0  0  0  0  0  0  0  0  0  0  0
    0.1602    0.5727    0.6893 H   0  0  0  0  0  0  0  0  0  0  0  0
    2.4729   -0.6968   -0.8430 H   0  0  0  0  0  0  0  0  0  0  0  0
    2.2424   -0.7582    0.9139 H   0  0  0  0  0  0  0  0  0  0  0  0
    4.4987    0.5114   -0.5799 H   0  0  0  0  0  0  0  0  0  0  0  0
    4.3099    0.4313    1.1780 H   0  0  0  0  0  0  0  0  0  0  0  0
    4.1916    2.9305    1.2781 H   0  0  0  0  0  0  0  0  0  0  0  0
    5.7015    2.3898    0.5266 H   0  0  0  0  0  0  0  0  0  0  0  0
    4.3819    3.0100   -0.4787 H   0  0  0  0  0  0  0  0  0  0  0  0
   -1.5342   -2.7094   -1.4327 C   0  0  0  0  0  0  0  0  0  0  0  0
   -1.5342   -2.7094    0.0902 C   0  0  0  0  0  0  0  0  0  0  0  0
   -1.5342   -1.3163    0.6858 C   0  0  0  0  0  3  0  0  0  0  0  0
   -2.7172   -0.6527    0.3182 O   0  0  0  0  0  0  0  0  0  0  0  0
   -2.7879    0.6653    0.7990 C   0  0  0  0  0  0  0  0  0  0  0  0
   -4.0913    1.2831    0.3482 C   0  0  0  0  0  0  0  0  0  0  0  0
   -0.6522   -2.1951   -1.8223 H   0  0  0  0  0  0  0  0  0  0  0  0
   -2.4169   -2.1997   -1.8187 H   0  0  0  0  0  0  0  0  0  0  0  0
   -1.5287   -3.7272   -1.8253 H   0  0  0  0  0  0  0  0  0  0  0  0
   -0.6527   -3.2358    0.4665 H   0  0  0  0  0  0  0  0  0  0  0  0
   -2.4086   -3.2473    0.4655 H   0  0  0  0  0  0  0  0  0  0  0  0
   -0.4852   -0.6382    0.2533 H   0  0  0  0  0  0  0  0  0  0  0  0
   -1.4594   -1.3702    1.7818 H   0  0  0  0  0  0  0  0  0  0  0  0
   -2.7207    0.6682    1.8971 H   0  0  0  0  0  0  0  0  0  0  0  0
   -1.9351    1.2483    0.4212 H   0  0  0  0  0  0  0  0  0  0  0  0
   -4.9376    0.7137    0.7339 H   0  0  0  0  0  0  0  0  0  0  0  0
   -4.1521    1.2950   -0.7406 H   0  0  0  0  0  0  0  0  0  0  0  0
   -4.1689    2.3091    0.7113 H   0  0  0  0  0  0  0  0  0  0  0  0
  1  2  1  0
  1  7  1  0
  1  8  1  0
  1  9  1  0
  2  3  1  0
  2 10  1  0
  2 29  1  0
  3  4  1  0
  3 11  1  0
  3 12  1  0
  4  5  1  0
  5  6  1  0
  5 13  1  0
  5 14  1  0
  6 15  1  0
  6 16  1  0
  6 17  1  0
 18 19  1  0
 18 24  1  0
 18 25  1  0
 18 26  1  0
 19 20  1  0
 19 27  1  0
 19 28  1  0
 20 21  1  0
 20 30  1  0
 21 22  1  0
 22 23  1  0
 22 31  1  0
 22 32  1  0
 23 33  1  0
 23 34  1  0
 23 35  1  0
M  RAD  1  20   2
M  END
>  <reaction>  (12) 
rmg_rxn_338

>  <mol_properties>  (12) 
{"1": {"label": "*3", "atom_type": "Cs"}, "2": {"label": "*4", "atom_type": "Cs"}, "19": {"label": "*1", "atom_type": "Cs"}, "20": {"label": "*0", "atom_type": "O2s"}, "28": {"label": "*2", "atom_type": "H0"}}

>  <type>  (12) 
unop_8

>  <geom_source>  (12) 
Heuristics

$$$$

     RDKit          3D

 35 33  0  0  0  0  0  0  0  0999 V2000
    2.0381   -1.0621   -1.0201 C   0  0  0  0  0  0  0  0  0  0  0  0
    0.8808   -0.1133   -0.7379 C   0  0  0  0  0  0  0  0  0  0  0  0
    1.0350    0.6429    0.5658 C   0  0  0  0  0  0  0  0  0  0  0  0
    2.1742    1.4629    0.4966 O   0  0  0  0  0  0  0  0  0  0  0  0
    2.4170    2.1787    1.6808 C   0  0  0  0  0  0  0  0  0  0  0  0
    3.6575    3.0222    1.4990 C   0  0  0  0  0  0  0  0  0  0  0  0
    2.1326   -1.8081   -0.2270 H   0  0  0  0  0  0  0  0  0  0  0  0
    1.8905   -1.5922   -1.9622 H   0  0  0  0  0  0  0  0  0  0  0  0
    2.9794   -0.5158   -1.0800 H   0  0  0  0  0  0  0  0  0  0  0  0
    0.7832    0.6116   -1.5502 H   0  0  0  0  0  0  0  0  0  0  0  0
    1.1333   -0.0651    1.4040 H   0  0  0  0  0  0  0  0  0  0  0  0
    0.1426    1.2561    0.7588 H   0  0  0  0  0  0  0  0  0  0  0  0
    2.5466    1.4804    2.5208 H   0  0  0  0  0  0  0  0  0  0  0  0
    1.5513    2.8144    1.9191 H   0  0  0  0  0  0  0  0  0  0  0  0
    3.5248    3.7244    0.6751 H   0  0  0  0  0  0  0  0  0  0  0  0
    3.8660    3.5889    2.4078 H   0  0  0  0  0  0  0  0  0  0  0  0
    4.5194    2.3916    1.2781 H   0  0  0  0  0  0  0  0  0  0  0  0
   -1.2096   -2.8576   -1.9945 C   0  0  0  0  0  0  0  0  0  0  0  0
   -1.2096   -2.8576   -0.4716 C   0  0  0  0  0  0  0  0  0  0  0  0
   -1.2096   -1.4646    0.1239 C   0  0  0  0  0  3  0  0  0  0  0  0
   -2.3926   -0.8010   -0.2437 O   0  0  0  0  0  0  0  0  0  0  0  0
   -2.4633    0.5171    0.2372 C   0  0  0  0  0  0  0  0  0  0  0  0
   -3.7667    1.1349   -0.2136 C   0  0  0  0  0  0  0  0  0  0  0  0
   -0.3276   -2.3433   -2.3841 H   0  0  0  0  0  0  0  0  0  0  0  0
   -2.0923   -2.3479   -2.3806 H   0  0  0  0  0  0  0  0  0  0  0  0
   -1.2041   -3.8755   -2.3872 H   0  0  0  0  0  0  0  0  0  0  0  0
   -0.3281   -3.3841   -0.0953 H   0  0  0  0  0  0  0  0  0  0  0  0
   -2.0840   -3.3956   -0.0963 H   0  0  0  0  0  0  0  0  0  0  0  0
   -0.1606   -0.7865   -0.3085 H   0  0  0  0  0  0  0  0  0  0  0  0
   -1.1348   -1.5185    1.2200 H   0  0  0  0  0  0  0  0  0  0  0  0
   -2.3961    0.5200    1.3353 H   0  0  0  0  0  0  0  0  0  0  0  0
   -1.6105    1.1001   -0.1407 H   0  0  0  0  0  0  0  0  0  0  0  0
   -4.6130    0.5655    0.1721 H   0  0  0  0  0  0  0  0  0  0  0  0
   -3.8275    1.1467   -1.3024 H   0  0  0  0  0  0  0  0  0  0  0  0
   -3.8443    2.1609    0.1494 H   0  0  0  0  0  0  0  0  0  0  0  0
  1  2  1  0
  1  7  1  0
  1  8  1  0
  1  9  1  0
  2  3  1  0
  2 10  1  0
  2 29  1  0
  3  4  1  0
  3 11  1  0
  3 12  1  0
  4  5  1  0
  5  6  1  0
  5 13  1  0
  5 14  1  0
  6 15  1  0
  6 16  1  0
  6 17  1  0
 18 19  1  0
 18 24  1  0
 18 25  1  0
 18 26  1  0
 19 20  1  0
 19 27  1  0
 19 28  1  0
 20 21  1  0
 20 30  1  0
 21 22  1  0
 22 23  1  0
 22 31  1  0
 22 32  1  0
 23 33  1  0
 23 34  1  0
 23 35  1  0
M  RAD  1  20   2
M  END
>  <reaction>  (13) 
rmg_rxn_338

>  <mol_properties>  (13) 
{"1": {"label": "*3", "atom_type": "Cs"}, "2": {"label": "*4", "atom_type": "Cs"}, "19": {"label": "*1", "atom_type": "Cs"}, "20": {"label": "*0", "atom_type": "O2s"}, "28": {"label": "*2", "atom_type": "H0"}}

>  <type>  (13) 
unop_9

>  <geom_source>  (13) 
Heuristics

$$$$

     RDKit          3D

 35 33  0  0  0  0  0  0  0  0999 V2000
    0.5455    0.0933   -1.7044 C   0  0  0  0  0  0  0  0  0  0  0  0
    0.5849   -0.0209   -0.1863 C   0  0  0  0  0  0  0  0  0  0  0  0
    1.9898    0.0281    0.3784 C   0  0  0  0  0  0  0  0  0  0  0  0
    2.5648    1.2773    0.0886 O   0  0  0  0  0  0  0  0  0  0  0  0
    3.8874    1.4002    0.5460 C   0  0  0  0  0  0  0  0  0  0  0  0
    4.4067    2.7723    0.1835 C   0  0  0  0  0  0  0  0  0  0  0  0
    1.1063   -0.7205   -2.1710 H   0  0  0  0  0  0  0  0  0  0  0  0
   -0.4796    0.0488   -2.0751 H   0  0  0  0  0  0  0  0  0  0  0  0
    0.9862    1.0347   -2.0323 H   0  0  0  0  0  0  0  0  0  0  0  0
    0.0007    0.7847    0.2659 H   0  0  0  0  0  0  0  0  0  0  0  0
    2.6015   -0.7766   -0.0595 H   0  0  0  0  0  0  0  0  0  0  0  0
    1.9693   -0.1321    1.4664 H   0  0  0  0  0  0  0  0  0  0  0  0
    4.5150    0.6192    0.0920 H   0  0  0  0  0  0  0  0  0  0  0  0
    3.9230    1.2512    1.6354 H   0  0  0  0  0  0  0  0  0  0  0  0
    3.7933    3.5471    0.6446 H   0  0  0  0  0  0  0  0  0  0  0  0
    5.4345    2.8913    0.5300 H   0  0  0  0  0  0  0  0  0  0  0  0
    4.3864    2.9152   -0.8975 H   0  0  0  0  0  0  0  0  0  0  0  0
   -1.5056   -2.7652   -1.4430 C   0  0  0  0  0  0  0  0  0  0  0  0
   -1.5056   -2.7652    0.0800 C   0  0  0  0  0  0  0  0  0  0  0  0
   -1.5056   -1.3722    0.6755 C   0  0  0  0  0  3  0  0  0  0  0  0
   -2.6886   -0.7086    0.3079 O   0  0  0  0  0  0  0  0  0  0  0  0
   -2.7593    0.6095    0.7888 C   0  0  0  0  0  0  0  0  0  0  0  0
   -4.0626    1.2273    0.3379 C   0  0  0  0  0  0  0  0  0  0  0  0
   -0.6235   -2.2509   -1.8326 H   0  0  0  0  0  0  0  0  0  0  0  0
   -2.3883   -2.2555   -1.8290 H   0  0  0  0  0  0  0  0  0  0  0  0
   -1.5001   -3.7831   -1.8356 H   0  0  0  0  0  0  0  0  0  0  0  0
   -0.6241   -3.2917    0.4562 H   0  0  0  0  0  0  0  0  0  0  0  0
   -2.3800   -3.3032    0.4552 H   0  0  0  0  0  0  0  0  0  0  0  0
   -0.4565   -0.6941    0.2430 H   0  0  0  0  0  0  0  0  0  0  0  0
   -1.4308   -1.4261    1.7715 H   0  0  0  0  0  0  0  0  0  0  0  0
   -2.6920    0.6124    1.8868 H   0  0  0  0  0  0  0  0  0  0  0  0
   -1.9064    1.1925    0.4109 H   0  0  0  0  0  0  0  0  0  0  0  0
   -4.9090    0.6579    0.7236 H   0  0  0  0  0  0  0  0  0  0  0  0
   -4.1234    1.2391   -0.7509 H   0  0  0  0  0  0  0  0  0  0  0  0
   -4.1402    2.2533    0.7010 H   0  0  0  0  0  0  0  0  0  0  0  0
  1  2  1  0
  1  7  1  0
  1  8  1  0
  1  9  1  0
  2  3  1  0
  2 10  1  0
  2 29  1  0
  3  4  1  0
  3 11  1  0
  3 12  1  0
  4  5  1  0
  5  6  1  0
  5 13  1  0
  5 14  1  0
  6 15  1  0
  6 16  1  0
  6 17  1  0
 18 19  1  0
 18 24  1  0
 18 25  1  0
 18 26  1  0
 19 20  1  0
 19 27  1  0
 19 28  1  0
 20 21  1  0
 20 30  1  0
 21 22  1  0
 22 23  1  0
 22 31  1  0
 22 32  1  0
 23 33  1  0
 23 34  1  0
 23 35  1  0
M  RAD  1  20   2
M  END
>  <reaction>  (14) 
rmg_rxn_338

>  <mol_properties>  (14) 
{"1": {"label": "*3", "atom_type": "Cs"}, "2": {"label": "*4", "atom_type": "Cs"}, "19": {"label": "*1", "atom_type": "Cs"}, "20": {"label": "*0", "atom_type": "O2s"}, "28": {"label": "*2", "atom_type": "H0"}}

>  <type>  (14) 
unop_10

>  <geom_source>  (14) 
Heuristics

$$$$

     RDKit          3D

 35 33  0  0  0  0  0  0  0  0999 V2000
    2.1151    0.7336    1.5534 C   0  0  0  0  0  0  0  0  0  0  0  0
    1.6757   -0.2780    0.5032 C   0  0  0  0  0  0  0  0  0  0  0  0
    0.7059    0.2972   -0.5086 C   0  0  0  0  0  0  0  0  0  0  0  0
    1.3394    1.3238   -1.2295 O   0  0  0  0  0  0  0  0  0  0  0  0
    0.4998    1.9420   -2.1710 C   0  0  0  0  0  0  0  0  0  0  0  0
    1.2759    3.0246   -2.8847 C   0  0  0  0  0  0  0  0  0  0  0  0
    1.2561    1.1122    2.1131 H   0  0  0  0  0  0  0  0  0  0  0  0
    2.8073    0.2836    2.2667 H   0  0  0  0  0  0  0  0  0  0  0  0
    2.6117    1.5840    1.0864 H   0  0  0  0  0  0  0  0  0  0  0  0
    2.5465   -0.6656   -0.0319 H   0  0  0  0  0  0  0  0  0  0  0  0
   -0.1845    0.6938    0.0045 H   0  0  0  0  0  0  0  0  0  0  0  0
    0.3632   -0.4887   -1.1977 H   0  0  0  0  0  0  0  0  0  0  0  0
   -0.3795    2.3685   -1.6660 H   0  0  0  0  0  0  0  0  0  0  0  0
    0.1298    1.1964   -2.8904 H   0  0  0  0  0  0  0  0  0  0  0  0
    2.1401    2.6006   -3.3972 H   0  0  0  0  0  0  0  0  0  0  0  0
    0.6429    3.5194   -3.6230 H   0  0  0  0  0  0  0  0  0  0  0  0
    1.6299    3.7725   -2.1743 H   0  0  0  0  0  0  0  0  0  0  0  0
   -0.4147   -3.0223   -0.7534 C   0  0  0  0  0  0  0  0  0  0  0  0
   -0.4147   -3.0223    0.7695 C   0  0  0  0  0  0  0  0  0  0  0  0
   -0.4147   -1.6293    1.3650 C   0  0  0  0  0  3  0  0  0  0  0  0
   -1.5977   -0.9657    0.9974 O   0  0  0  0  0  0  0  0  0  0  0  0
   -1.6684    0.3524    1.4783 C   0  0  0  0  0  0  0  0  0  0  0  0
   -2.9717    0.9702    1.0275 C   0  0  0  0  0  0  0  0  0  0  0  0
    0.4674   -2.5080   -1.1430 H   0  0  0  0  0  0  0  0  0  0  0  0
   -1.2974   -2.5126   -1.1395 H   0  0  0  0  0  0  0  0  0  0  0  0
   -0.4092   -4.0402   -1.1460 H   0  0  0  0  0  0  0  0  0  0  0  0
    0.4668   -3.5488    1.1458 H   0  0  0  0  0  0  0  0  0  0  0  0
   -1.2891   -3.5603    1.1448 H   0  0  0  0  0  0  0  0  0  0  0  0
    0.6343   -0.9512    0.9326 H   0  0  0  0  0  0  0  0  0  0  0  0
   -0.3399   -1.6832    2.4611 H   0  0  0  0  0  0  0  0  0  0  0  0
   -1.6012    0.3552    2.5764 H   0  0  0  0  0  0  0  0  0  0  0  0
   -0.8156    0.9354    1.1005 H   0  0  0  0  0  0  0  0  0  0  0  0
   -3.8181    0.4008    1.4132 H   0  0  0  0  0  0  0  0  0  0  0  0
   -3.0326    0.9820   -0.0613 H   0  0  0  0  0  0  0  0  0  0  0  0
   -3.0494    1.9962    1.3906 H   0  0  0  0  0  0  0  0  0  0  0  0
  1  2  1  0
  1  7  1  0
  1  8  1  0
  1  9  1  0
  2  3  1  0
  2 10  1  0
  2 29  1  0
  3  4  1  0
  3 11  1  0
  3 12  1  0
  4  5  1  0
  5  6  1  0
  5 13  1  0
  5 14  1  0
  6 15  1  0
  6 16  1  0
  6 17  1  0
 18 19  1  0
 18 24  1  0
 18 25  1  0
 18 26  1  0
 19 20  1  0
 19 27  1  0
 19 28  1  0
 20 21  1  0
 20 30  1  0
 21 22  1  0
 22 23  1  0
 22 31  1  0
 22 32  1  0
 23 33  1  0
 23 34  1  0
 23 35  1  0
M  RAD  1  20   2
M  END
>  <reaction>  (15) 
rmg_rxn_338

>  <mol_properties>  (15) 
{"1": {"label": "*3", "atom_type": "Cs"}, "2": {"label": "*4", "atom_type": "Cs"}, "19": {"label": "*1", "atom_type": "Cs"}, "20": {"label": "*0", "atom_type": "O2s"}, "28": {"label": "*2", "atom_type": "H0"}}

>  <type>  (15) 
unop_11

>  <geom_source>  (15) 
Heuristics

$$$$

     RDKit          3D

 35 33  0  0  0  0  0  0  0  0999 V2000
    1.4684   -0.8515   -1.4459 C   0  0  0  0  0  0  0  0  0  0  0  0
    0.6381    0.0116   -0.5051 C   0  0  0  0  0  0  0  0  0  0  0  0
    1.4142    0.4904    0.7047 C   0  0  0  0  0  0  0  0  0  0  0  0
    2.4700    1.3168    0.2835 O   0  0  0  0  0  0  0  0  0  0  0  0
    3.2691    1.7809    1.3415 C   0  0  0  0  0  0  0  0  0  0  0  0
    4.3677    2.6538    0.7807 C   0  0  0  0  0  0  0  0  0  0  0  0
    1.8405   -1.7413   -0.9319 H   0  0  0  0  0  0  0  0  0  0  0  0
    0.8767   -1.1818   -2.3008 H   0  0  0  0  0  0  0  0  0  0  0  0
    2.3287   -0.2967   -1.8204 H   0  0  0  0  0  0  0  0  0  0  0  0
    0.2530    0.8846   -1.0384 H   0  0  0  0  0  0  0  0  0  0  0  0
    1.8126   -0.3712    1.2634 H   0  0  0  0  0  0  0  0  0  0  0  0
    0.7530    1.0449    1.3867 H   0  0  0  0  0  0  0  0  0  0  0  0
    3.6972    0.9285    1.8896 H   0  0  0  0  0  0  0  0  0  0  0  0
    2.6538    2.3484    2.0554 H   0  0  0  0  0  0  0  0  0  0  0  0
    3.9443    3.5066    0.2490 H   0  0  0  0  0  0  0  0  0  0  0  0
    5.0023    3.0271    1.5860 H   0  0  0  0  0  0  0  0  0  0  0  0
    4.9878    2.0876    0.0847 H   0  0  0  0  0  0  0  0  0  0  0  0
   -1.4524   -2.7328   -1.7618 C   0  0  0  0  0  0  0  0  0  0  0  0
   -1.4524   -2.7328   -0.2389 C   0  0  0  0  0  0  0  0  0  0  0  0
   -1.4524   -1.3397    0.3566 C   0  0  0  0  0  3  0  0  0  0  0  0
   -2.6354   -0.6761   -0.0109 O   0  0  0  0  0  0  0  0  0  0  0  0
   -2.7061    0.6420    0.4699 C   0  0  0  0  0  0  0  0  0  0  0  0
   -4.0094    1.2597    0.0191 C   0  0  0  0  0  0  0  0  0  0  0  0
   -0.5703   -2.2184   -2.1514 H   0  0  0  0  0  0  0  0  0  0  0  0
   -2.3351   -2.2231   -2.1478 H   0  0  0  0  0  0  0  0  0  0  0  0
   -1.4469   -3.7506   -2.1544 H   0  0  0  0  0  0  0  0  0  0  0  0
   -0.5708   -3.2592    0.1374 H   0  0  0  0  0  0  0  0  0  0  0  0
   -2.3267   -3.2707    0.1364 H   0  0  0  0  0  0  0  0  0  0  0  0
   -0.4033   -0.6616   -0.0758 H   0  0  0  0  0  0  0  0  0  0  0  0
   -1.3776   -1.3936    1.4527 H   0  0  0  0  0  0  0  0  0  0  0  0
   -2.6388    0.6448    1.5680 H   0  0  0  0  0  0  0  0  0  0  0  0
   -1.8532    1.2249    0.0921 H   0  0  0  0  0  0  0  0  0  0  0  0
   -4.8558    0.6903    0.4048 H   0  0  0  0  0  0  0  0  0  0  0  0
   -4.0702    1.2716   -1.0697 H   0  0  0  0  0  0  0  0  0  0  0  0
   -4.0870    2.2858    0.3822 H   0  0  0  0  0  0  0  0  0  0  0  0
  1  2  1  0
  1  7  1  0
  1  8  1  0
  1  9  1  0
  2  3  1  0
  2 10  1  0
  2 29  1  0
  3  4  1  0
  3 11  1  0
  3 12  1  0
  4  5  1  0
  5  6  1  0
  5 13  1  0
  5 14  1  0
  6 15  1  0
  6 16  1  0
  6 17  1  0
 18 19  1  0
 18 24  1  0
 18 25  1  0
 18 26  1  0
 19 20  1  0
 19 27  1  0
 19 28  1  0
 20 21  1  0
 20 30  1  0
 21 22  1  0
 22 23  1  0
 22 31  1  0
 22 32  1  0
 23 33  1  0
 23 34  1  0
 23 35  1  0
M  RAD  1  20   2
M  END
>  <reaction>  (16) 
rmg_rxn_338

>  <mol_properties>  (16) 
{"1": {"label": "*3", "atom_type": "Cs"}, "2": {"label": "*4", "atom_type": "Cs"}, "19": {"label": "*1", "atom_type": "Cs"}, "20": {"label": "*0", "atom_type": "O2s"}, "28": {"label": "*2", "atom_type": "H0"}}

>  <type>  (16) 
unop_12

>  <geom_source>  (16) 
Heuristics

$$$$

     RDKit          3D

 35 33  0  0  0  0  0  0  0  0999 V2000
    2.1637    0.5882   -0.7663 O   0  0  0  0  0  0  0  0  0  0  0  0
   -2.4057    0.1986   -0.3393 O   0  0  0  0  0  0  0  0  0  0  0  0
    0.6926   -0.2443    0.9426 C   0  0  0  0  0  0  0  0  0  0  0  0
   -2.2560   -2.2048   -0.2133 C   0  0  0  0  0  0  0  0  0  0  0  0
    1.6009    0.8987    0.4922 C   0  0  0  0  0  0  0  0  0  0  0  0
    3.1400    1.5478   -1.1241 C   0  0  0  0  0  0  0  0  0  0  0  0
   -2.1300    1.0558    0.7416 C   0  0  0  0  0  0  0  0  0  0  0  0
    1.4791   -1.5269    1.2005 C   0  0  0  0  0  0  0  0  0  0  0  0
   -3.0116   -2.4759   -1.5119 C   0  0  0  0  0  0  0  0  0  0  0  0
    4.5324    1.0439   -0.7610 C   0  0  0  0  0  0  0  0  0  0  0  0
   -3.0903    2.2347    0.7016 C   0  0  0  0  0  0  0  0  0  0  0  0
   -1.5057   -0.8758   -0.2598 C   0  0  0  0  0  3  0  0  0  0  0  0
    0.1697    0.0527    1.8774 H   0  0  0  0  0  0  0  0  0  0  0  0
   -0.2133   -0.4705    0.0180 H   0  0  0  0  0  0  0  0  0  0  0  0
   -2.9702   -2.1952    0.6380 H   0  0  0  0  0  0  0  0  0  0  0  0
   -1.5234   -3.0217   -0.0413 H   0  0  0  0  0  0  0  0  0  0  0  0
    2.9681    2.5546   -0.6737 H   0  0  0  0  0  0  0  0  0  0  0  0
    3.0984    1.6847   -2.2253 H   0  0  0  0  0  0  0  0  0  0  0  0
    0.9798    1.8186    0.4098 H   0  0  0  0  0  0  0  0  0  0  0  0
    2.3864    1.0610    1.2660 H   0  0  0  0  0  0  0  0  0  0  0  0
   -2.2691    0.5255    1.7127 H   0  0  0  0  0  0  0  0  0  0  0  0
   -1.0891    1.4503    0.6776 H   0  0  0  0  0  0  0  0  0  0  0  0
    4.6278    0.9304    0.3390 H   0  0  0  0  0  0  0  0  0  0  0  0
    5.2962    1.7691   -1.1123 H   0  0  0  0  0  0  0  0  0  0  0  0
    4.7190    0.0619   -1.2452 H   0  0  0  0  0  0  0  0  0  0  0  0
    0.7844   -2.3228    1.5413 H   0  0  0  0  0  0  0  0  0  0  0  0
    1.9780   -1.8690    0.2693 H   0  0  0  0  0  0  0  0  0  0  0  0
    2.2442   -1.3600    1.9883 H   0  0  0  0  0  0  0  0  0  0  0  0
   -4.1381    1.8741    0.7782 H   0  0  0  0  0  0  0  0  0  0  0  0
   -2.9658    2.7943   -0.2497 H   0  0  0  0  0  0  0  0  0  0  0  0
   -2.8816    2.9183    1.5515 H   0  0  0  0  0  0  0  0  0  0  0  0
   -3.5228   -3.4593   -1.4448 H   0  0  0  0  0  0  0  0  0  0  0  0
   -2.3073   -2.4998   -2.3706 H   0  0  0  0  0  0  0  0  0  0  0  0
   -3.7776   -1.6907   -1.6866 H   0  0  0  0  0  0  0  0  0  0  0  0
   -0.8030   -0.8465   -1.1203 H   0  0  0  0  0  0  0  0  0  0  0  0
  1  6  1  0
  1  5  1  0
  2  7  1  0
  2 12  1  0
  3  8  1  0
  3  5  1  0
  3 13  1  0
  3 14  1  0
  4  9  1  0
  4 12  1  0
  4 15  1  0
  4 16  1  0
  5 19  1  0
  5 20  1  0
  6 10  1  0
  6 17  1  0
  6 18  1  0
  7 11  1  0
  7 21  1  0
  7 22  1  0
  8 26  1  0
  8 27  1  0
  8 28  1  0
  9 32  1  0
  9 33  1  0
  9 34  1  0
 10 23  1  0
 10 24  1  0
 10 25  1  0
 11 29  1  0
 11 30  1  0
 11 31  1  0
 12 35  1  0
M  RAD  1  12   2
M  END
>  <reaction>  (17) 
rmg_rxn_338

>  <mol_properties>  (17) 
{"1": {"label": "*3", "atom_type": "Cs"}, "2": {"label": "*4", "atom_type": "Cs"}, "19": {"label": "*1", "atom_type": "Cs"}, "20": {"label": "*0", "atom_type": "O2s"}, "28": {"label": "*2", "atom_type": "H0"}}

>  <type>  (17) 
unop_13

>  <geom_source>  (17) 
AutoTST

$$$$

     RDKit          3D

 35 33  0  0  0  0  0  0  0  0999 V2000
    0.9690   -0.4658   -1.6646 C   0  0  0  0  0  0  0  0  0  0  0  0
    0.5766    0.0082   -0.2715 C   0  0  0  0  0  0  0  0  0  0  0  0
    1.7684    0.2619    0.6288 C   0  0  0  0  0  0  0  0  0  0  0  0
    2.5447    1.3029    0.0915 O   0  0  0  0  0  0  0  0  0  0  0  0
    3.6960    1.5844    0.8457 C   0  0  0  0  0  0  0  0  0  0  0  0
    4.4537    2.7114    0.1828 C   0  0  0  0  0  0  0  0  0  0  0  0
    1.5356   -1.3989   -1.6135 H   0  0  0  0  0  0  0  0  0  0  0  0
    0.0871   -0.6432   -2.2819 H   0  0  0  0  0  0  0  0  0  0  0  0
    1.5911    0.2769   -2.1641 H   0  0  0  0  0  0  0  0  0  0  0  0
   -0.0094    0.9284   -0.3394 H   0  0  0  0  0  0  0  0  0  0  0  0
    2.3767   -0.6521    0.7172 H   0  0  0  0  0  0  0  0  0  0  0  0
    1.4313    0.5294    1.6411 H   0  0  0  0  0  0  0  0  0  0  0  0
    4.3269    0.6860    0.9159 H   0  0  0  0  0  0  0  0  0  0  0  0
    3.4135    1.8624    1.8720 H   0  0  0  0  0  0  0  0  0  0  0  0
    3.8337    3.6067    0.1252 H   0  0  0  0  0  0  0  0  0  0  0  0
    5.3536    2.9484    0.7525 H   0  0  0  0  0  0  0  0  0  0  0  0
    4.7477    2.4308   -0.8292 H   0  0  0  0  0  0  0  0  0  0  0  0
   -1.5138   -2.7362   -1.5281 C   0  0  0  0  0  0  0  0  0  0  0  0
   -1.5138   -2.7362   -0.0052 C   0  0  0  0  0  0  0  0  0  0  0  0
   -1.5138   -1.3431    0.5903 C   0  0  0  0  0  3  0  0  0  0  0  0
   -2.6968   -0.6795    0.2227 O   0  0  0  0  0  0  0  0  0  0  0  0
   -2.7675    0.6386    0.7036 C   0  0  0  0  0  0  0  0  0  0  0  0
   -4.0708    1.2564    0.2528 C   0  0  0  0  0  0  0  0  0  0  0  0
   -0.6317   -2.2218   -1.9178 H   0  0  0  0  0  0  0  0  0  0  0  0
   -2.3965   -2.2265   -1.9142 H   0  0  0  0  0  0  0  0  0  0  0  0
   -1.5083   -3.7540   -1.9208 H   0  0  0  0  0  0  0  0  0  0  0  0
   -0.6323   -3.2626    0.3710 H   0  0  0  0  0  0  0  0  0  0  0  0
   -2.3882   -3.2741    0.3700 H   0  0  0  0  0  0  0  0  0  0  0  0
   -0.4648   -0.6650    0.1578 H   0  0  0  0  0  0  0  0  0  0  0  0
   -1.4390   -1.3970    1.6863 H   0  0  0  0  0  0  0  0  0  0  0  0
   -2.7003    0.6414    1.8017 H   0  0  0  0  0  0  0  0  0  0  0  0
   -1.9146    1.2215    0.3257 H   0  0  0  0  0  0  0  0  0  0  0  0
   -4.9172    0.6869    0.6384 H   0  0  0  0  0  0  0  0  0  0  0  0
   -4.1316    1.2682   -0.8361 H   0  0  0  0  0  0  0  0  0  0  0  0
   -4.1485    2.2824    0.6158 H   0  0  0  0  0  0  0  0  0  0  0  0
  1  2  1  0
  1  7  1  0
  1  8  1  0
  1  9  1  0
  2  3  1  0
  2 10  1  0
  2 29  1  0
  3  4  1  0
  3 11  1  0
  3 12  1  0
  4  5  1  0
  5  6  1  0
  5 13  1  0
  5 14  1  0
  6 15  1  0
  6 16  1  0
  6 17  1  0
 18 19  1  0
 18 24  1  0
 18 25  1  0
 18 26  1  0
 19 20  1  0
 19 27  1  0
 19 28  1  0
 20 21  1  0
 20 30  1  0
 21 22  1  0
 22 23  1  0
 22 31  1  0
 22 32  1  0
 23 33  1  0
 23 34  1  0
 23 35  1  0
M  RAD  1  20   2
M  END
>  <reaction>  (18) 
rmg_rxn_338

>  <mol_properties>  (18) 
{"1": {"label": "*3", "atom_type": "Cs"}, "2": {"label": "*4", "atom_type": "Cs"}, "19": {"label": "*1", "atom_type": "Cs"}, "20": {"label": "*0", "atom_type": "O2s"}, "28": {"label": "*2", "atom_type": "H0"}}

>  <type>  (18) 
unop_14

>  <geom_source>  (18) 
gaussian_log

$$$$
