
     RDKit          3D

  5  4  0  0  0  0  0  0  0  0999 V2000
   -0.4583    0.0384    0.1517 N   0  0  0  0  0  0  0  0  0  0  0  0
    0.7454   -0.3487    0.5322 N   0  0  0  0  0  0  0  0  0  0  0  0
    0.7566   -1.0388    1.5193 O   0  0  0  0  0  0  0  0  0  0  0  0
   -1.2688   -0.2521    0.6850 H   0  0  0  0  0  0  0  0  0  0  0  0
   -0.5137    0.6154   -0.6670 H   0  0  0  0  0  0  0  0  0  0  0  0
  1  2  1  0
  1  4  1  0
  1  5  1  0
  2  3  2  0
M  END
>  <reaction>  (1) 
rmg_rxn_1544

>  <mol_properties>  (1) 
{"0": {"label": "donator", "atom_type": "N3s"}, "3": {"label": "d_hydrogen", "atom_type": "H0"}}

>  <type>  (1) 
r1h

$$$$

     RDKit          3D

 14 13  0  0  0  0  0  0  0  0999 V2000
    2.7687   -0.0362   -0.0732 C   0  0  0  0  0  3  0  0  0  0  0  0
    1.6543    0.2105    0.6386 O   0  0  0  0  0  0  0  0  0  0  0  0
    1.8652    0.6968    1.9544 C   0  0  0  0  0  0  0  0  0  0  0  0
    0.5252    0.9355    2.6156 C   0  0  0  0  0  0  0  0  0  0  0  0
   -0.2992    2.0181    1.9317 C   0  0  0  0  0  0  0  0  0  0  0  0
    2.5851   -0.4757   -1.0422 H   0  0  0  0  0  0  0  0  0  0  0  0
    3.6974   -0.2083    0.4611 H   0  0  0  0  0  0  0  0  0  0  0  0
    2.4441    1.6271    1.9039 H   0  0  0  0  0  0  0  0  0  0  0  0
    2.4506   -0.0397    2.5179 H   0  0  0  0  0  0  0  0  0  0  0  0
    0.7150    1.2089    3.6572 H   0  0  0  0  0  0  0  0  0  0  0  0
   -0.0287   -0.0066    2.6327 H   0  0  0  0  0  0  0  0  0  0  0  0
   -0.5056    1.7522    0.8949 H   0  0  0  0  0  0  0  0  0  0  0  0
   -1.2524    2.1635    2.4416 H   0  0  0  0  0  0  0  0  0  0  0  0
    0.2319    2.9729    1.9340 H   0  0  0  0  0  0  0  0  0  0  0  0
  1  2  1  0
  1  6  1  0
  1  7  1  0
  2  3  1  0
  3  4  1  0
  3  8  1  0
  3  9  1  0
  4  5  1  0
  4 10  1  0
  4 11  1  0
  5 12  1  0
  5 13  1  0
  5 14  1  0
M  RAD  1   1   2
M  END
>  <reaction>  (2) 
rmg_rxn_1544

>  <mol_properties>  (2) 
{"0": {"label": "acceptor", "atom_type": "Cs"}}

>  <type>  (2) 
r2

$$$$

     RDKit          3D

 15 14  0  0  0  0  0  0  0  0999 V2000
   -1.2811   -0.4129    1.0228 C   0  0  0  0  0  0  0  0  0  0  0  0
   -1.0023   -0.5809   -0.4650 C   0  0  0  0  0  0  0  0  0  0  0  0
   -2.0576    0.0568   -1.3449 C   0  0  0  0  0  0  0  0  0  0  0  0
   -2.0663    1.4464   -1.1307 O   0  0  0  0  0  0  0  0  0  0  0  0
   -3.0424    2.1072   -1.8849 C   0  0  0  0  0  0  0  0  0  0  0  0
   -2.2382   -0.8657    1.2935 H   0  0  0  0  0  0  0  0  0  0  0  0
   -1.3219    0.6426    1.2914 H   0  0  0  0  0  0  0  0  0  0  0  0
   -0.5042   -0.8881    1.6236 H   0  0  0  0  0  0  0  0  0  0  0  0
   -0.0316   -0.1460   -0.7167 H   0  0  0  0  0  0  0  0  0  0  0  0
   -0.9494   -1.6429   -0.7203 H   0  0  0  0  0  0  0  0  0  0  0  0
   -1.8518   -0.1570   -2.4041 H   0  0  0  0  0  0  0  0  0  0  0  0
   -3.0491   -0.3636   -1.1124 H   0  0  0  0  0  0  0  0  0  0  0  0
   -4.0521    1.7545   -1.6343 H   0  0  0  0  0  0  0  0  0  0  0  0
   -2.8850    1.9634   -2.9626 H   0  0  0  0  0  0  0  0  0  0  0  0
   -2.9730    3.1700   -1.6570 H   0  0  0  0  0  0  0  0  0  0  0  0
  1  2  1  0
  1  6  1  0
  1  7  1  0
  1  8  1  0
  2  3  1  0
  2  9  1  0
  2 10  1  0
  3  4  1  0
  3 11  1  0
  3 12  1  0
  4  5  1  0
  5 13  1  0
  5 14  1  0
  5 15  1  0
M  END
>  <reaction>  (3) 
rmg_rxn_1544

>  <mol_properties>  (3) 
{"0": {"label": "a_hydrogen", "atom_type": "H0"}, "1": {"label": "acceptor", "atom_type": "Cs"}}

>  <type>  (3) 
r2h

$$$$

     RDKit          3D

 19 17  0  0  0  0  0  0  0  0999 V2000
   -1.0160   -0.7342    2.3278 N   0  0  0  0  0  0  0  0  0  0  0  0
   -0.1533   -1.6639    2.5055 N   0  0  0  0  0  0  0  0  0  0  0  0
    0.8215   -1.7160    1.7887 O   0  0  0  0  0  1  0  0  0  0  0  0
   -0.6241    0.3357    1.6497 H   0  0  0  0  0  0  0  0  0  0  0  0
   -1.6989   -0.7004    3.0763 H   0  0  0  0  0  0  0  0  0  0  0  0
   -0.1699    1.3914    0.9916 C   0  0  0  0  0  0  0  0  0  0  0  0
   -0.2459    1.1463   -0.3392 O   0  0  0  0  0  0  0  0  0  0  0  0
    0.7855    0.3143   -0.8571 C   0  0  0  0  0  0  0  0  0  0  0  0
    0.5499    0.0973   -2.3345 C   0  0  0  0  0  0  0  0  0  0  0  0
    0.6281    1.3769   -3.1568 C   0  0  0  0  0  0  0  0  0  0  0  0
   -0.8591    2.1868    1.2719 H   0  0  0  0  0  0  0  0  0  0  0  0
    0.8446    1.5229    1.3801 H   0  0  0  0  0  0  0  0  0  0  0  0
    0.7842   -0.6300   -0.3014 H   0  0  0  0  0  0  0  0  0  0  0  0
    1.7529    0.8035   -0.6827 H   0  0  0  0  0  0  0  0  0  0  0  0
   -0.4250   -0.3787   -2.4661 H   0  0  0  0  0  0  0  0  0  0  0  0
    1.2982   -0.6198   -2.6817 H   0  0  0  0  0  0  0  0  0  0  0  0
    0.4652    1.1720   -4.2156 H   0  0  0  0  0  0  0  0  0  0  0  0
   -0.1248    2.0958   -2.8323 H   0  0  0  0  0  0  0  0  0  0  0  0
    1.6088    1.8477   -3.0538 H   0  0  0  0  0  0  0  0  0  0  0  0
  1  2  2  3
  1  5  1  0
  2  3  1  0
  4  6  1  0
  6  7  1  0
  6 11  1  0
  6 12  1  0
  7  8  1  0
  8  9  1  0
  8 13  1  0
  8 14  1  0
  9 10  1  0
  9 15  1  0
  9 16  1  0
 10 17  1  0
 10 18  1  0
 10 19  1  0
M  RAD  1   3   2
M  END
>  <reaction>  (4) 
rmg_rxn_1544

>  <mol_properties>  (4) 
{"0": {"label": "*3", "atom_type": "N3d"}, "1": {"label": "*4", "atom_type": "N3d"}, "3": {"label": "*2", "atom_type": "H0"}, "5": {"label": "*1", "atom_type": "Cs"}, "6": {"label": "*0", "atom_type": "O2s"}}

>  <type>  (4) 
ts

$$$$

     RDKit          3D

 19 17  0  0  0  0  0  0  0  0999 V2000
    2.5137    0.1676    0.0855 N   0  0  0  0  0  0  0  0  0  0  0  0
    2.3008   -1.0680    0.2192 N   0  0  0  0  0  0  0  0  0  0  0  0
    1.2933   -1.6213   -0.1833 O   0  0  0  0  0  0  0  0  0  0  0  0
    1.6545    1.0169   -0.1427 H   0  0  0  0  0  0  0  0  0  0  0  0
    3.3668    0.4809    0.5380 H   0  0  0  0  0  0  0  0  0  0  0  0
    0.6866    1.8848   -0.3307 C   0  0  0  0  0  3  0  0  0  0  0  0
   -0.4567    1.4375    0.2972 O   0  0  0  0  0  0  0  0  0  0  0  0
   -1.1066    0.3539   -0.3281 C   0  0  0  0  0  0  0  0  0  0  0  0
   -2.3804    0.0253    0.4401 C   0  0  0  0  0  0  0  0  0  0  0  0
   -3.0813   -1.1886   -0.1541 C   0  0  0  0  0  0  0  0  0  0  0  0
    0.9950    2.8158    0.1366 H   0  0  0  0  0  0  0  0  0  0  0  0
    0.5871    1.9713   -1.4158 H   0  0  0  0  0  0  0  0  0  0  0  0
   -0.4359   -0.5254   -0.3356 H   0  0  0  0  0  0  0  0  0  0  0  0
   -1.3383    0.6058   -1.3739 H   0  0  0  0  0  0  0  0  0  0  0  0
   -3.0434    0.8924    0.4199 H   0  0  0  0  0  0  0  0  0  0  0  0
   -2.1152   -0.1680    1.4805 H   0  0  0  0  0  0  0  0  0  0  0  0
   -2.4218   -2.0528   -0.1336 H   0  0  0  0  0  0  0  0  0  0  0  0
   -3.9783   -1.4228    0.4133 H   0  0  0  0  0  0  0  0  0  0  0  0
   -3.3663   -0.9994   -1.1867 H   0  0  0  0  0  0  0  0  0  0  0  0
  1  2  1  0
  1  4  1  0
  1  5  1  0
  2  3  2  0
  6  7  1  0
  6 11  1  0
  6 12  1  0
  7  8  1  0
  8  9  1  0
  8 13  1  0
  8 14  1  0
  9 10  1  0
  9 15  1  0
  9 16  1  0
 10 17  1  0
 10 18  1  0
 10 19  1  0
M  RAD  1   6   2
M  END
>  <reaction>  (5) 
rmg_rxn_1544

>  <mol_properties>  (5) 
{"0": {"label": "*3", "atom_type": "N3d"}, "1": {"label": "*4", "atom_type": "N3d"}, "3": {"label": "*2", "atom_type": "H0"}, "5": {"label": "*1", "atom_type": "Cs"}, "6": {"label": "*0", "atom_type": "O2s"}}

>  <type>  (5) 
unop_1

>  <geom_source>  (5) 
crest_best.xyz

$$$$

     RDKit          3D

 19 17  0  0  0  0  0  0  0  0999 V2000
    1.1563   -1.7036    1.3978 N   0  0  0  0  0  0  0  0  0  0  0  0
    1.1563   -2.9064    0.8531 N   0  0  0  0  0  0  0  0  0  0  0  0
    1.1563   -2.9064   -0.3514 O   0  0  0  0  0  0  0  0  0  0  0  0
    1.1563   -0.7210    0.6826 H   0  0  0  0  0  0  0  0  0  0  0  0
    1.1563   -1.6573    2.3999 H   0  0  0  0  0  0  0  0  0  0  0  0
    1.1563    0.3449   -0.0932 C   0  0  0  0  0  3  0  0  0  0  0  0
    0.0290    1.1431    0.1308 O   0  0  0  0  0  0  0  0  0  0  0  0
   -0.9763    0.9526   -0.8336 C   0  0  0  0  0  0  0  0  0  0  0  0
   -2.1381    1.8788   -0.5384 C   0  0  0  0  0  0  0  0  0  0  0  0
   -1.7696    3.3531   -0.6387 C   0  0  0  0  0  0  0  0  0  0  0  0
    1.8743    0.5572    0.6979 H   0  0  0  0  0  0  0  0  0  0  0  0
    1.6201    0.5665   -1.0639 H   0  0  0  0  0  0  0  0  0  0  0  0
   -1.3110   -0.0952   -0.8229 H   0  0  0  0  0  0  0  0  0  0  0  0
   -0.5741    1.1579   -1.8385 H   0  0  0  0  0  0  0  0  0  0  0  0
   -2.5160    1.6533    0.4621 H   0  0  0  0  0  0  0  0  0  0  0  0
   -2.9420    1.6433   -1.2413 H   0  0  0  0  0  0  0  0  0  0  0  0
   -2.6305    3.9881   -0.4249 H   0  0  0  0  0  0  0  0  0  0  0  0
   -0.9782    3.6025    0.0681 H   0  0  0  0  0  0  0  0  0  0  0  0
   -1.4132    3.5983   -1.6423 H   0  0  0  0  0  0  0  0  0  0  0  0
  1  2  1  0
  1  4  1  0
  1  5  1  0
  2  3  2  0
  6  7  1  0
  6 11  1  0
  6 12  1  0
  7  8  1  0
  8  9  1  0
  8 13  1  0
  8 14  1  0
  9 10  1  0
  9 15  1  0
  9 16  1  0
 10 17  1  0
 10 18  1  0
 10 19  1  0
M  RAD  1   6   2
M  END
>  <reaction>  (6) 
rmg_rxn_1544

>  <mol_properties>  (6) 
{"0": {"label": "*3", "atom_type": "N3d"}, "1": {"label": "*4", "atom_type": "N3d"}, "3": {"label": "*2", "atom_type": "H0"}, "5": {"label": "*1", "atom_type": "Cs"}, "6": {"label": "*0", "atom_type": "O2s"}}

>  <type>  (6) 
unop_2

>  <geom_source>  (6) 
Heuristics

$$$$

     RDKit          3D

 19 17  0  0  0  0  0  0  0  0999 V2000
    2.5136   -0.1676    0.0856 N   0  0  0  0  0  0  0  0  0  0  0  0
    2.3007    1.0680    0.2192 N   0  0  0  0  0  0  0  0  0  0  0  0
    1.2932    1.6213   -0.1834 O   0  0  0  0  0  0  0  0  0  0  0  0
    1.6545   -1.0169   -0.1426 H   0  0  0  0  0  0  0  0  0  0  0  0
    3.3667   -0.4808    0.5380 H   0  0  0  0  0  0  0  0  0  0  0  0
    0.6867   -1.8849   -0.3305 C   0  0  0  0  0  3  0  0  0  0  0  0
   -0.4568   -1.4377    0.2971 O   0  0  0  0  0  0  0  0  0  0  0  0
   -1.1065   -0.3540   -0.3282 C   0  0  0  0  0  0  0  0  0  0  0  0
   -2.3807   -0.0256    0.4397 C   0  0  0  0  0  0  0  0  0  0  0  0
   -3.0808    1.1891   -0.1537 C   0  0  0  0  0  0  0  0  0  0  0  0
    0.5873   -1.9715   -1.4157 H   0  0  0  0  0  0  0  0  0  0  0  0
    0.9950   -2.8159    0.1368 H   0  0  0  0  0  0  0  0  0  0  0  0
   -1.3379   -0.6057   -1.3741 H   0  0  0  0  0  0  0  0  0  0  0  0
   -0.4359    0.5253   -0.3353 H   0  0  0  0  0  0  0  0  0  0  0  0
   -2.1158    0.1667    1.4804 H   0  0  0  0  0  0  0  0  0  0  0  0
   -3.0440   -0.8924    0.4184 H   0  0  0  0  0  0  0  0  0  0  0  0
   -3.9781    1.4231    0.4132 H   0  0  0  0  0  0  0  0  0  0  0  0
   -2.4210    2.0531   -0.1319 H   0  0  0  0  0  0  0  0  0  0  0  0
   -3.3651    1.0011   -1.1867 H   0  0  0  0  0  0  0  0  0  0  0  0
  1  2  1  0
  1  4  1  0
  1  5  1  0
  2  3  2  0
  6  7  1  0
  6 11  1  0
  6 12  1  0
  7  8  1  0
  8  9  1  0
  8 13  1  0
  8 14  1  0
  9 10  1  0
  9 15  1  0
  9 16  1  0
 10 17  1  0
 10 18  1  0
 10 19  1  0
M  RAD  1   6   2
M  END
>  <reaction>  (7) 
rmg_rxn_1544

>  <mol_properties>  (7) 
{"0": {"label": "*3", "atom_type": "N3d"}, "1": {"label": "*4", "atom_type": "N3d"}, "3": {"label": "*2", "atom_type": "H0"}, "5": {"label": "*1", "atom_type": "Cs"}, "6": {"label": "*0", "atom_type": "O2s"}}

>  <type>  (7) 
unop_3

>  <geom_source>  (7) 
Heuristics

$$$$

     RDKit          3D

 19 17  0  0  0  0  0  0  0  0999 V2000
    0.2545   -0.7047    2.5492 N   0  0  0  0  0  0  0  0  0  0  0  0
    0.2545   -1.9075    2.0044 N   0  0  0  0  0  0  0  0  0  0  0  0
    0.2545   -1.9075    0.7999 O   0  0  0  0  0  0  0  0  0  0  0  0
    0.2545    0.2779    1.8339 H   0  0  0  0  0  0  0  0  0  0  0  0
    0.2545   -0.6584    3.5512 H   0  0  0  0  0  0  0  0  0  0  0  0
    0.2545    1.3438    1.0581 C   0  0  0  0  0  3  0  0  0  0  0  0
   -0.3963    1.0956   -0.1555 O   0  0  0  0  0  0  0  0  0  0  0  0
    0.4005    0.3808   -1.0671 C   0  0  0  0  0  0  0  0  0  0  0  0
   -0.3637    0.1903   -2.3611 C   0  0  0  0  0  0  0  0  0  0  0  0
   -0.6877    1.5016   -3.0643 C   0  0  0  0  0  0  0  0  0  0  0  0
   -0.4346    1.8955    1.6962 H   0  0  0  0  0  0  0  0  0  0  0  0
    1.1630    1.9439    0.9126 H   0  0  0  0  0  0  0  0  0  0  0  0
    0.6755   -0.5945   -0.6389 H   0  0  0  0  0  0  0  0  0  0  0  0
    1.3361    0.9306   -1.2572 H   0  0  0  0  0  0  0  0  0  0  0  0
   -1.2846   -0.3565   -2.1428 H   0  0  0  0  0  0  0  0  0  0  0  0
    0.2368   -0.4487   -3.0145 H   0  0  0  0  0  0  0  0  0  0  0  0
   -1.2329    1.3247   -3.9926 H   0  0  0  0  0  0  0  0  0  0  0  0
   -1.2984    2.1412   -2.4270 H   0  0  0  0  0  0  0  0  0  0  0  0
    0.2262    2.0477   -3.3111 H   0  0  0  0  0  0  0  0  0  0  0  0
  1  2  1  0
  1  4  1  0
  1  5  1  0
  2  3  2  0
  6  7  1  0
  6 11  1  0
  6 12  1  0
  7  8  1  0
  8  9  1  0
  8 13  1  0
  8 14  1  0
  9 10  1  0
  9 15  1  0
  9 16  1  0
 10 17  1  0
 10 18  1  0
 10 19  1  0
M  RAD  1   6   2
M  END
>  <reaction>  (8) 
rmg_rxn_1544

>  <mol_properties>  (8) 
{"0": {"label": "*3", "atom_type": "N3d"}, "1": {"label": "*4", "atom_type": "N3d"}, "3": {"label": "*2", "atom_type": "H0"}, "5": {"label": "*1", "atom_type": "Cs"}, "6": {"label": "*0", "atom_type": "O2s"}}

>  <type>  (8) 
unop_4

>  <geom_source>  (8) 
Heuristics

$$$$

     RDKit          3D

 19 17  0  0  0  0  0  0  0  0999 V2000
   -2.5135    0.1675   -0.0861 N   0  0  0  0  0  0  0  0  0  0  0  0
   -2.3005   -1.0681   -0.2193 N   0  0  0  0  0  0  0  0  0  0  0  0
   -1.2933   -1.6213    0.1839 O   0  0  0  0  0  0  0  0  0  0  0  0
   -1.6545    1.0168    0.1426 H   0  0  0  0  0  0  0  0  0  0  0  0
   -3.3664    0.4807   -0.5390 H   0  0  0  0  0  0  0  0  0  0  0  0
   -0.6867    1.8849    0.3307 C   0  0  0  0  0  3  0  0  0  0  0  0
    0.4567    1.4377   -0.2970 O   0  0  0  0  0  0  0  0  0  0  0  0
    1.1066    0.3541    0.3282 C   0  0  0  0  0  0  0  0  0  0  0  0
    2.3805    0.0255   -0.4399 C   0  0  0  0  0  0  0  0  0  0  0  0
    3.0810   -1.1890    0.1536 C   0  0  0  0  0  0  0  0  0  0  0  0
   -0.9951    2.8160   -0.1364 H   0  0  0  0  0  0  0  0  0  0  0  0
   -0.5874    1.9711    1.4159 H   0  0  0  0  0  0  0  0  0  0  0  0
    0.4359   -0.5252    0.3357 H   0  0  0  0  0  0  0  0  0  0  0  0
    1.3383    0.6059    1.3740 H   0  0  0  0  0  0  0  0  0  0  0  0
    3.0438    0.8923   -0.4191 H   0  0  0  0  0  0  0  0  0  0  0  0
    2.1153   -0.1671   -1.4804 H   0  0  0  0  0  0  0  0  0  0  0  0
    3.9780   -1.4231   -0.4137 H   0  0  0  0  0  0  0  0  0  0  0  0
    3.3658   -1.0006    1.1864 H   0  0  0  0  0  0  0  0  0  0  0  0
    2.4212   -2.0530    0.1324 H   0  0  0  0  0  0  0  0  0  0  0  0
  1  2  1  0
  1  4  1  0
  1  5  1  0
  2  3  2  0
  6  7  1  0
  6 11  1  0
  6 12  1  0
  7  8  1  0
  8  9  1  0
  8 13  1  0
  8 14  1  0
  9 10  1  0
  9 15  1  0
  9 16  1  0
 10 17  1  0
 10 18  1  0
 10 19  1  0
M  RAD  1   6   2
M  END
>  <reaction>  (9) 
rmg_rxn_1544

>  <mol_properties>  (9) 
{"0": {"label": "*3", "atom_type": "N3d"}, "1": {"label": "*4", "atom_type": "N3d"}, "3": {"label": "*2", "atom_type": "H0"}, "5": {"label": "*1", "atom_type": "Cs"}, "6": {"label": "*0", "atom_type": "O2s"}}

>  <type>  (9) 
unop_5

>  <geom_source>  (9) 
Heuristics

$$$$

     RDKit          3D

 19 17  0  0  0  0  0  0  0  0999 V2000
    0.9050   -1.9720    0.9234 N   0  0  0  0  0  0  0  0  0  0  0  0
    0.9050   -3.1748    0.3787 N   0  0  0  0  0  0  0  0  0  0  0  0
    0.9050   -3.1748   -0.8258 O   0  0  0  0  0  0  0  0  0  0  0  0
    0.9050   -0.9894    0.2082 H   0  0  0  0  0  0  0  0  0  0  0  0
    0.9050   -1.9257    1.9255 H   0  0  0  0  0  0  0  0  0  0  0  0
    0.9050    0.0765   -0.5676 C   0  0  0  0  0  3  0  0  0  0  0  0
    0.2541    1.1551    0.0417 O   0  0  0  0  0  0  0  0  0  0  0  0
   -1.1249    1.1864   -0.2310 C   0  0  0  0  0  0  0  0  0  0  0  0
   -1.7410    2.4011    0.4320 C   0  0  0  0  0  0  0  0  0  0  0  0
   -1.2016    3.7180   -0.1105 C   0  0  0  0  0  0  0  0  0  0  0  0
    1.9594    0.1329   -0.3006 H   0  0  0  0  0  0  0  0  0  0  0  0
    0.8120    0.1158   -1.6614 H   0  0  0  0  0  0  0  0  0  0  0  0
   -1.6005    0.2664    0.1400 H   0  0  0  0  0  0  0  0  0  0  0  0
   -1.2900    1.2245   -1.3196 H   0  0  0  0  0  0  0  0  0  0  0  0
   -1.5622    2.3369    1.5084 H   0  0  0  0  0  0  0  0  0  0  0  0
   -2.8236    2.3497    0.2870 H   0  0  0  0  0  0  0  0  0  0  0  0
   -1.6709    4.5684    0.3862 H   0  0  0  0  0  0  0  0  0  0  0  0
   -0.1245    3.7863    0.0416 H   0  0  0  0  0  0  0  0  0  0  0  0
   -1.3959    3.8067   -1.1822 H   0  0  0  0  0  0  0  0  0  0  0  0
  1  2  1  0
  1  4  1  0
  1  5  1  0
  2  3  2  0
  6  7  1  0
  6 11  1  0
  6 12  1  0
  7  8  1  0
  8  9  1  0
  8 13  1  0
  8 14  1  0
  9 10  1  0
  9 15  1  0
  9 16  1  0
 10 17  1  0
 10 18  1  0
 10 19  1  0
M  RAD  1   6   2
M  END
>  <reaction>  (10) 
rmg_rxn_1544

>  <mol_properties>  (10) 
{"0": {"label": "*3", "atom_type": "N3d"}, "1": {"label": "*4", "atom_type": "N3d"}, "3": {"label": "*2", "atom_type": "H0"}, "5": {"label": "*1", "atom_type": "Cs"}, "6": {"label": "*0", "atom_type": "O2s"}}

>  <type>  (10) 
unop_6

>  <geom_source>  (10) 
Heuristics

$$$$

     RDKit          3D

 19 17  0  0  0  0  0  0  0  0999 V2000
   -1.3086   -0.9593    1.6678 N   0  0  0  0  0  0  0  0  0  0  0  0
   -1.3086   -2.1622    1.1231 N   0  0  0  0  0  0  0  0  0  0  0  0
   -1.3086   -2.1622   -0.0814 O   0  0  0  0  0  0  0  0  0  0  0  0
   -1.3086    0.0233    0.9526 H   0  0  0  0  0  0  0  0  0  0  0  0
   -1.3086   -0.9130    2.6699 H   0  0  0  0  0  0  0  0  0  0  0  0
   -1.3086    1.0891    0.1768 C   0  0  0  0  0  3  0  0  0  0  0  0
   -0.1813    1.1213   -0.6516 O   0  0  0  0  0  0  0  0  0  0  0  0
    0.9327    0.4777   -0.0844 C   0  0  0  0  0  0  0  0  0  0  0  0
    2.1133    0.5928   -1.0264 C   0  0  0  0  0  0  0  0  0  0  0  0
    2.5615    2.0306   -1.2527 C   0  0  0  0  0  0  0  0  0  0  0  0
   -2.1152    1.6054   -0.3421 H   0  0  0  0  0  0  0  0  0  0  0  0
   -1.1198    1.5946    1.1336 H   0  0  0  0  0  0  0  0  0  0  0  0
    0.6970   -0.5800    0.1051 H   0  0  0  0  0  0  0  0  0  0  0  0
    1.1764    0.9381    0.8863 H   0  0  0  0  0  0  0  0  0  0  0  0
    1.8438    0.1291   -1.9788 H   0  0  0  0  0  0  0  0  0  0  0  0
    2.9347    0.0040   -0.6087 H   0  0  0  0  0  0  0  0  0  0  0  0
    3.4148    2.0734   -1.9310 H   0  0  0  0  0  0  0  0  0  0  0  0
    1.7544    2.6238   -1.6824 H   0  0  0  0  0  0  0  0  0  0  0  0
    2.8580    2.4991   -0.3109 H   0  0  0  0  0  0  0  0  0  0  0  0
  1  2  1  0
  1  4  1  0
  1  5  1  0
  2  3  2  0
  6  7  1  0
  6 11  1  0
  6 12  1  0
  7  8  1  0
  8  9  1  0
  8 13  1  0
  8 14  1  0
  9 10  1  0
  9 15  1  0
  9 16  1  0
 10 17  1  0
 10 18  1  0
 10 19  1  0
M  RAD  1   6   2
M  END
>  <reaction>  (11) 
rmg_rxn_1544

>  <mol_properties>  (11) 
{"0": {"label": "*3", "atom_type": "N3d"}, "1": {"label": "*4", "atom_type": "N3d"}, "3": {"label": "*2", "atom_type": "H0"}, "5": {"label": "*1", "atom_type": "Cs"}, "6": {"label": "*0", "atom_type": "O2s"}}

>  <type>  (11) 
unop_7

>  <geom_source>  (11) 
Heuristics

$$$$

     RDKit          3D

 19 17  0  0  0  0  0  0  0  0999 V2000
    2.5138    0.1677   -0.0853 N   0  0  0  0  0  0  0  0  0  0  0  0
    2.3010   -1.0679   -0.2192 N   0  0  0  0  0  0  0  0  0  0  0  0
    1.2935   -1.6213    0.1831 O   0  0  0  0  0  0  0  0  0  0  0  0
    1.6545    1.0169    0.1429 H   0  0  0  0  0  0  0  0  0  0  0  0
    3.3670    0.4811   -0.5375 H   0  0  0  0  0  0  0  0  0  0  0  0
    0.6865    1.8848    0.3307 C   0  0  0  0  0  3  0  0  0  0  0  0
   -0.4566    1.4373   -0.2973 O   0  0  0  0  0  0  0  0  0  0  0  0
   -1.1066    0.3537    0.3279 C   0  0  0  0  0  0  0  0  0  0  0  0
   -2.3805    0.0252   -0.4402 C   0  0  0  0  0  0  0  0  0  0  0  0
   -3.0818   -1.1883    0.1543 C   0  0  0  0  0  0  0  0  0  0  0  0
    0.5869    1.9712    1.4159 H   0  0  0  0  0  0  0  0  0  0  0  0
    0.9950    2.8157   -0.1365 H   0  0  0  0  0  0  0  0  0  0  0  0
   -1.3383    0.6056    1.3737 H   0  0  0  0  0  0  0  0  0  0  0  0
   -0.4359   -0.5256    0.3354 H   0  0  0  0  0  0  0  0  0  0  0  0
   -2.1152   -0.1686   -1.4805 H   0  0  0  0  0  0  0  0  0  0  0  0
   -3.0432    0.8925   -0.4204 H   0  0  0  0  0  0  0  0  0  0  0  0
   -3.3669   -0.9986    1.1868 H   0  0  0  0  0  0  0  0  0  0  0  0
   -3.9788   -1.4225   -0.4130 H   0  0  0  0  0  0  0  0  0  0  0  0
   -2.4226   -2.0528    0.1343 H   0  0  0  0  0  0  0  0  0  0  0  0
  1  2  1  0
  1  4  1  0
  1  5  1  0
  2  3  2  0
  6  7  1  0
  6 11  1  0
  6 12  1  0
  7  8  1  0
  8  9  1  0
  8 13  1  0
  8 14  1  0
  9 10  1  0
  9 15  1  0
  9 16  1  0
 10 17  1  0
 10 18  1  0
 10 19  1  0
M  RAD  1   6   2
M  END
>  <reaction>  (12) 
rmg_rxn_1544

>  <mol_properties>  (12) 
{"0": {"label": "*3", "atom_type": "N3d"}, "1": {"label": "*4", "atom_type": "N3d"}, "3": {"label": "*2", "atom_type": "H0"}, "5": {"label": "*1", "atom_type": "Cs"}, "6": {"label": "*0", "atom_type": "O2s"}}

>  <type>  (12) 
unop_8

>  <geom_source>  (12) 
Heuristics

$$$$

     RDKit          3D

 19 17  0  0  0  0  0  0  0  0999 V2000
    0.4077   -2.0659    0.4784 N   0  0  0  0  0  0  0  0  0  0  0  0
    0.4077   -3.2687   -0.0663 N   0  0  0  0  0  0  0  0  0  0  0  0
    0.4077   -3.2687   -1.2708 O   0  0  0  0  0  0  0  0  0  0  0  0
    0.4077   -1.0833   -0.2368 H   0  0  0  0  0  0  0  0  0  0  0  0
    0.4077   -2.0196    1.4805 H   0  0  0  0  0  0  0  0  0  0  0  0
    0.4077   -0.0174   -1.0126 C   0  0  0  0  0  3  0  0  0  0  0  0
    0.4077    1.1638   -0.2624 O   0  0  0  0  0  0  0  0  0  0  0  0
   -0.7194    1.2830    0.5698 C   0  0  0  0  0  0  0  0  0  0  0  0
   -0.6582    2.6015    1.3131 C   0  0  0  0  0  0  0  0  0  0  0  0
   -0.7185    3.8124    0.3915 C   0  0  0  0  0  0  0  0  0  0  0  0
    1.3117   -0.0233   -1.6201 H   0  0  0  0  0  0  0  0  0  0  0  0
   -0.4668   -0.0738   -1.6749 H   0  0  0  0  0  0  0  0  0  0  0  0
   -0.7493    0.4445    1.2813 H   0  0  0  0  0  0  0  0  0  0  0  0
   -1.6384    1.2319   -0.0357 H   0  0  0  0  0  0  0  0  0  0  0  0
    0.2613    2.6244    1.9038 H   0  0  0  0  0  0  0  0  0  0  0  0
   -1.4906    2.6262    2.0218 H   0  0  0  0  0  0  0  0  0  0  0  0
   -0.6770    4.7417    0.9615 H   0  0  0  0  0  0  0  0  0  0  0  0
    0.1152    3.8056   -0.3105 H   0  0  0  0  0  0  0  0  0  0  0  0
   -1.6453    3.8155   -0.1876 H   0  0  0  0  0  0  0  0  0  0  0  0
  1  2  1  0
  1  4  1  0
  1  5  1  0
  2  3  2  0
  6  7  1  0
  6 11  1  0
  6 12  1  0
  7  8  1  0
  8  9  1  0
  8 13  1  0
  8 14  1  0
  9 10  1  0
  9 15  1  0
  9 16  1  0
 10 17  1  0
 10 18  1  0
 10 19  1  0
M  RAD  1   6   2
M  END
>  <reaction>  (13) 
rmg_rxn_1544

>  <mol_properties>  (13) 
{"0": {"label": "*3", "atom_type": "N3d"}, "1": {"label": "*4", "atom_type": "N3d"}, "3": {"label": "*2", "atom_type": "H0"}, "5": {"label": "*1", "atom_type": "Cs"}, "6": {"label": "*0", "atom_type": "O2s"}}

>  <type>  (13) 
unop_9

>  <geom_source>  (13) 
Heuristics

$$$$

     RDKit          3D

 19 17  0  0  0  0  0  0  0  0999 V2000
    2.5138   -0.1679   -0.0852 N   0  0  0  0  0  0  0  0  0  0  0  0
    2.3012    1.0677   -0.2192 N   0  0  0  0  0  0  0  0  0  0  0  0
    1.2938    1.6215    0.1831 O   0  0  0  0  0  0  0  0  0  0  0  0
    1.6543   -1.0169    0.1431 H   0  0  0  0  0  0  0  0  0  0  0  0
    3.3669   -0.4816   -0.5375 H   0  0  0  0  0  0  0  0  0  0  0  0
    0.6863   -1.8848    0.3307 C   0  0  0  0  0  3  0  0  0  0  0  0
   -0.4567   -1.4373   -0.2973 O   0  0  0  0  0  0  0  0  0  0  0  0
   -1.1066   -0.3536    0.3278 C   0  0  0  0  0  0  0  0  0  0  0  0
   -2.3806   -0.0252   -0.4401 C   0  0  0  0  0  0  0  0  0  0  0  0
   -3.0819    1.1884    0.1543 C   0  0  0  0  0  0  0  0  0  0  0  0
    0.9949   -2.8158   -0.1365 H   0  0  0  0  0  0  0  0  0  0  0  0
    0.5866   -1.9714    1.4159 H   0  0  0  0  0  0  0  0  0  0  0  0
   -0.4359    0.5257    0.3352 H   0  0  0  0  0  0  0  0  0  0  0  0
   -1.3381   -0.6053    1.3737 H   0  0  0  0  0  0  0  0  0  0  0  0
   -3.0434   -0.8924   -0.4200 H   0  0  0  0  0  0  0  0  0  0  0  0
   -2.1155    0.1684   -1.4805 H   0  0  0  0  0  0  0  0  0  0  0  0
   -3.3667    0.9989    1.1869 H   0  0  0  0  0  0  0  0  0  0  0  0
   -2.4227    2.0529    0.1340 H   0  0  0  0  0  0  0  0  0  0  0  0
   -3.9790    1.4224   -0.4129 H   0  0  0  0  0  0  0  0  0  0  0  0
  1  2  1  0
  1  4  1  0
  1  5  1  0
  2  3  2  0
  6  7  1  0
  6 11  1  0
  6 12  1  0
  7  8  1  0
  8  9  1  0
  8 13  1  0
  8 14  1  0
  9 10  1  0
  9 15  1  0
  9 16  1  0
 10 17  1  0
 10 18  1  0
 10 19  1  0
M  RAD  1   6   2
M  END
>  <reaction>  (14) 
rmg_rxn_1544

>  <mol_properties>  (14) 
{"0": {"label": "*3", "atom_type": "N3d"}, "1": {"label": "*4", "atom_type": "N3d"}, "3": {"label": "*2", "atom_type": "H0"}, "5": {"label": "*1", "atom_type": "Cs"}, "6": {"label": "*0", "atom_type": "O2s"}}

>  <type>  (14) 
unop_10

>  <geom_source>  (14) 
Heuristics

$$$$

     RDKit          3D

 19 17  0  0  0  0  0  0  0  0999 V2000
   -1.3342   -1.3217    1.1033 N   0  0  0  0  0  0  0  0  0  0  0  0
   -1.3342   -2.5245    0.5586 N   0  0  0  0  0  0  0  0  0  0  0  0
   -1.3342   -2.5245   -0.6459 O   0  0  0  0  0  0  0  0  0  0  0  0
   -1.3342   -0.3391    0.3881 H   0  0  0  0  0  0  0  0  0  0  0  0
   -1.3342   -1.2754    2.1054 H   0  0  0  0  0  0  0  0  0  0  0  0
   -1.3342    0.7268   -0.3877 C   0  0  0  0  0  3  0  0  0  0  0  0
   -0.0326    1.1420   -0.6899 O   0  0  0  0  0  0  0  0  0  0  0  0
    0.9191    0.6729    0.2328 C   0  0  0  0  0  0  0  0  0  0  0  0
    2.2884    1.1984   -0.1463 C   0  0  0  0  0  0  0  0  0  0  0  0
    2.3876    2.7165   -0.0779 C   0  0  0  0  0  0  0  0  0  0  0  0
   -1.9965    1.1327   -1.1513 H   0  0  0  0  0  0  0  0  0  0  0  0
   -1.6564    1.0954    0.5956 H   0  0  0  0  0  0  0  0  0  0  0  0
    0.9211   -0.4271    0.2413 H   0  0  0  0  0  0  0  0  0  0  0  0
    0.6526    1.0079    1.2479 H   0  0  0  0  0  0  0  0  0  0  0  0
    2.5260    0.8515   -1.1552 H   0  0  0  0  0  0  0  0  0  0  0  0
    3.0207    0.7428    0.5260 H   0  0  0  0  0  0  0  0  0  0  0  0
    3.3871    3.0570   -0.3522 H   0  0  0  0  0  0  0  0  0  0  0  0
    1.6713    3.1815   -0.7552 H   0  0  0  0  0  0  0  0  0  0  0  0
    2.1767    3.0757    0.9324 H   0  0  0  0  0  0  0  0  0  0  0  0
  1  2  1  0
  1  4  1  0
  1  5  1  0
  2  3  2  0
  6  7  1  0
  6 11  1  0
  6 12  1  0
  7  8  1  0
  8  9  1  0
  8 13  1  0
  8 14  1  0
  9 10  1  0
  9 15  1  0
  9 16  1  0
 10 17  1  0
 10 18  1  0
 10 19  1  0
M  RAD  1   6   2
M  END
>  <reaction>  (15) 
rmg_rxn_1544

>  <mol_properties>  (15) 
{"0": {"label": "*3", "atom_type": "N3d"}, "1": {"label": "*4", "atom_type": "N3d"}, "3": {"label": "*2", "atom_type": "H0"}, "5": {"label": "*1", "atom_type": "Cs"}, "6": {"label": "*0", "atom_type": "O2s"}}

>  <type>  (15) 
unop_11

>  <geom_source>  (15) 
Heuristics

$$$$

     RDKit          3D

 19 17  0  0  0  0  0  0  0  0999 V2000
    2.5140   -0.1678    0.0846 N   0  0  0  0  0  0  0  0  0  0  0  0
    2.3012    1.0677    0.2190 N   0  0  0  0  0  0  0  0  0  0  0  0
    1.2934    1.6213   -0.1825 O   0  0  0  0  0  0  0  0  0  0  0  0
    1.6546   -1.0169   -0.1431 H   0  0  0  0  0  0  0  0  0  0  0  0
    3.3673   -0.4813    0.5365 H   0  0  0  0  0  0  0  0  0  0  0  0
    0.6864   -1.8847   -0.3305 C   0  0  0  0  0  3  0  0  0  0  0  0
   -0.4566   -1.4371    0.2975 O   0  0  0  0  0  0  0  0  0  0  0  0
   -1.1065   -0.3535   -0.3277 C   0  0  0  0  0  0  0  0  0  0  0  0
   -2.3808   -0.0254    0.4399 C   0  0  0  0  0  0  0  0  0  0  0  0
   -3.0819    1.1882   -0.1546 C   0  0  0  0  0  0  0  0  0  0  0  0
    0.5867   -1.9715   -1.4157 H   0  0  0  0  0  0  0  0  0  0  0  0
    0.9949   -2.8156    0.1369 H   0  0  0  0  0  0  0  0  0  0  0  0
   -1.3377   -0.6051   -1.3737 H   0  0  0  0  0  0  0  0  0  0  0  0
   -0.4360    0.5260   -0.3347 H   0  0  0  0  0  0  0  0  0  0  0  0
   -2.1160    0.1680    1.4804 H   0  0  0  0  0  0  0  0  0  0  0  0
   -3.0433   -0.8927    0.4194 H   0  0  0  0  0  0  0  0  0  0  0  0
   -2.4228    2.0528   -0.1338 H   0  0  0  0  0  0  0  0  0  0  0  0
   -3.3663    0.9989   -1.1873 H   0  0  0  0  0  0  0  0  0  0  0  0
   -3.9792    1.4219    0.4124 H   0  0  0  0  0  0  0  0  0  0  0  0
  1  2  1  0
  1  4  1  0
  1  5  1  0
  2  3  2  0
  6  7  1  0
  6 11  1  0
  6 12  1  0
  7  8  1  0
  8  9  1  0
  8 13  1  0
  8 14  1  0
  9 10  1  0
  9 15  1  0
  9 16  1  0
 10 17  1  0
 10 18  1  0
 10 19  1  0
M  RAD  1   6   2
M  END
>  <reaction>  (16) 
rmg_rxn_1544

>  <mol_properties>  (16) 
{"0": {"label": "*3", "atom_type": "N3d"}, "1": {"label": "*4", "atom_type": "N3d"}, "3": {"label": "*2", "atom_type": "H0"}, "5": {"label": "*1", "atom_type": "Cs"}, "6": {"label": "*0", "atom_type": "O2s"}}

>  <type>  (16) 
unop_12

>  <geom_source>  (16) 
Heuristics

$$$$

     RDKit          3D

 19 17  0  0  0  0  0  0  0  0999 V2000
   -1.0082   -1.6877    0.5962 N   0  0  0  0  0  0  0  0  0  0  0  0
   -1.0082   -2.8906    0.0515 N   0  0  0  0  0  0  0  0  0  0  0  0
   -1.0082   -2.8906   -1.1530 O   0  0  0  0  0  0  0  0  0  0  0  0
   -1.0082   -0.7051   -0.1190 H   0  0  0  0  0  0  0  0  0  0  0  0
   -1.0082   -1.6414    1.5983 H   0  0  0  0  0  0  0  0  0  0  0  0
   -1.0082    0.3608   -0.8948 C   0  0  0  0  0  3  0  0  0  0  0  0
    0.1191    1.1590   -0.6708 O   0  0  0  0  0  0  0  0  0  0  0  0
    0.7150    0.9246    0.5810 C   0  0  0  0  0  0  0  0  0  0  0  0
    1.8990    1.8532    0.7558 C   0  0  0  0  0  0  0  0  0  0  0  0
    1.5086    3.3251    0.7742 C   0  0  0  0  0  0  0  0  0  0  0  0
   -1.3979    0.6082   -1.8814 H   0  0  0  0  0  0  0  0  0  0  0  0
   -1.7897    0.5483   -0.1460 H   0  0  0  0  0  0  0  0  0  0  0  0
    1.0389   -0.1244    0.6505 H   0  0  0  0  0  0  0  0  0  0  0  0
   -0.0209    1.0942    1.3831 H   0  0  0  0  0  0  0  0  0  0  0  0
    2.6109    1.6635   -0.0516 H   0  0  0  0  0  0  0  0  0  0  0  0
    2.4006    1.5853    1.6899 H   0  0  0  0  0  0  0  0  0  0  0  0
    2.3847    3.9617    0.9063 H   0  0  0  0  0  0  0  0  0  0  0  0
    1.0200    3.6070   -0.1585 H   0  0  0  0  0  0  0  0  0  0  0  0
    0.8157    3.5343    1.5930 H   0  0  0  0  0  0  0  0  0  0  0  0
  1  2  1  0
  1  4  1  0
  1  5  1  0
  2  3  2  0
  6  7  1  0
  6 11  1  0
  6 12  1  0
  7  8  1  0
  8  9  1  0
  8 13  1  0
  8 14  1  0
  9 10  1  0
  9 15  1  0
  9 16  1  0
 10 17  1  0
 10 18  1  0
 10 19  1  0
M  RAD  1   6   2
M  END
>  <reaction>  (17) 
rmg_rxn_1544

>  <mol_properties>  (17) 
{"0": {"label": "*3", "atom_type": "N3d"}, "1": {"label": "*4", "atom_type": "N3d"}, "3": {"label": "*2", "atom_type": "H0"}, "5": {"label": "*1", "atom_type": "Cs"}, "6": {"label": "*0", "atom_type": "O2s"}}

>  <type>  (17) 
unop_13

>  <geom_source>  (17) 
Heuristics

$$$$

     RDKit          3D

 19 17  0  0  0  0  0  0  0  0999 V2000
    1.1451   -1.3374    1.8963 N   0  0  0  0  0  0  0  0  0  0  0  0
    1.1451   -2.5402    1.3515 N   0  0  0  0  0  0  0  0  0  0  0  0
    1.1451   -2.5402    0.1470 O   0  0  0  0  0  0  0  0  0  0  0  0
    1.1451   -0.3548    1.1811 H   0  0  0  0  0  0  0  0  0  0  0  0
    1.1451   -1.2910    2.8984 H   0  0  0  0  0  0  0  0  0  0  0  0
    1.1451    0.7111    0.4053 C   0  0  0  0  0  3  0  0  0  0  0  0
   -0.1565    1.1263    0.1031 O   0  0  0  0  0  0  0  0  0  0  0  0
   -0.5854    0.7006   -1.1665 C   0  0  0  0  0  0  0  0  0  0  0  0
   -1.9831    1.2237   -1.4265 C   0  0  0  0  0  0  0  0  0  0  0  0
   -2.0544    2.7441   -1.4755 C   0  0  0  0  0  0  0  0  0  0  0  0
    1.3880    1.0822    1.4001 H   0  0  0  0  0  0  0  0  0  0  0  0
    1.8730    1.1134   -0.3124 H   0  0  0  0  0  0  0  0  0  0  0  0
   -0.5736   -0.3983   -1.2162 H   0  0  0  0  0  0  0  0  0  0  0  0
    0.1074    1.0710   -1.9389 H   0  0  0  0  0  0  0  0  0  0  0  0
   -2.6472    0.8414   -0.6471 H   0  0  0  0  0  0  0  0  0  0  0  0
   -2.3292    0.8001   -2.3734 H   0  0  0  0  0  0  0  0  0  0  0  0
   -3.0731    3.0831   -1.6690 H   0  0  0  0  0  0  0  0  0  0  0  0
   -1.7248    3.1770   -0.5311 H   0  0  0  0  0  0  0  0  0  0  0  0
   -1.4135    3.1390   -2.2678 H   0  0  0  0  0  0  0  0  0  0  0  0
  1  2  1  0
  1  4  1  0
  1  5  1  0
  2  3  2  0
  6  7  1  0
  6 11  1  0
  6 12  1  0
  7  8  1  0
  8  9  1  0
  8 13  1  0
  8 14  1  0
  9 10  1  0
  9 15  1  0
  9 16  1  0
 10 17  1  0
 10 18  1  0
 10 19  1  0
M  RAD  1   6   2
M  END
>  <reaction>  (18) 
rmg_rxn_1544

>  <mol_properties>  (18) 
{"0": {"label": "*3", "atom_type": "N3d"}, "1": {"label": "*4", "atom_type": "N3d"}, "3": {"label": "*2", "atom_type": "H0"}, "5": {"label": "*1", "atom_type": "Cs"}, "6": {"label": "*0", "atom_type": "O2s"}}

>  <type>  (18) 
unop_14

>  <geom_source>  (18) 
Heuristics

$$$$

     RDKit          3D

 19 17  0  0  0  0  0  0  0  0999 V2000
    2.5137    0.1676    0.0855 N   0  0  0  0  0  0  0  0  0  0  0  0
    2.3008   -1.0680    0.2192 N   0  0  0  0  0  0  0  0  0  0  0  0
    1.2933   -1.6213   -0.1833 O   0  0  0  0  0  0  0  0  0  0  0  0
    1.6545    1.0169   -0.1427 H   0  0  0  0  0  0  0  0  0  0  0  0
    3.3668    0.4809    0.5380 H   0  0  0  0  0  0  0  0  0  0  0  0
    0.6866    1.8848   -0.3307 C   0  0  0  0  0  3  0  0  0  0  0  0
   -0.4567    1.4375    0.2972 O   0  0  0  0  0  0  0  0  0  0  0  0
   -1.1066    0.3539   -0.3281 C   0  0  0  0  0  0  0  0  0  0  0  0
   -2.3804    0.0253    0.4401 C   0  0  0  0  0  0  0  0  0  0  0  0
   -3.0813   -1.1886   -0.1541 C   0  0  0  0  0  0  0  0  0  0  0  0
    0.9950    2.8158    0.1366 H   0  0  0  0  0  0  0  0  0  0  0  0
    0.5871    1.9713   -1.4158 H   0  0  0  0  0  0  0  0  0  0  0  0
   -0.4359   -0.5254   -0.3356 H   0  0  0  0  0  0  0  0  0  0  0  0
   -1.3383    0.6058   -1.3739 H   0  0  0  0  0  0  0  0  0  0  0  0
   -3.0434    0.8924    0.4199 H   0  0  0  0  0  0  0  0  0  0  0  0
   -2.1152   -0.1680    1.4805 H   0  0  0  0  0  0  0  0  0  0  0  0
   -2.4218   -2.0528   -0.1336 H   0  0  0  0  0  0  0  0  0  0  0  0
   -3.9783   -1.4228    0.4133 H   0  0  0  0  0  0  0  0  0  0  0  0
   -3.3663   -0.9994   -1.1867 H   0  0  0  0  0  0  0  0  0  0  0  0
  1  2  1  0
  1  4  1  0
  1  5  1  0
  2  3  2  0
  6  7  1  0
  6 11  1  0
  6 12  1  0
  7  8  1  0
  8  9  1  0
  8 13  1  0
  8 14  1  0
  9 10  1  0
  9 15  1  0
  9 16  1  0
 10 17  1  0
 10 18  1  0
 10 19  1  0
M  RAD  1   6   2
M  END
>  <reaction>  (19) 
rmg_rxn_1544

>  <mol_properties>  (19) 
{"0": {"label": "*3", "atom_type": "N3d"}, "1": {"label": "*4", "atom_type": "N3d"}, "3": {"label": "*2", "atom_type": "H0"}, "5": {"label": "*1", "atom_type": "Cs"}, "6": {"label": "*0", "atom_type": "O2s"}}

>  <type>  (19) 
unop_15

>  <geom_source>  (19) 
Heuristics

$$$$

     RDKit          3D

 19 17  0  0  0  0  0  0  0  0999 V2000
   -0.9724   -0.6971    2.1626 N   0  0  0  0  0  0  0  0  0  0  0  0
   -0.9724   -1.8999    1.6179 N   0  0  0  0  0  0  0  0  0  0  0  0
   -0.9724   -1.8999    0.4134 O   0  0  0  0  0  0  0  0  0  0  0  0
   -0.9724    0.2855    1.4474 H   0  0  0  0  0  0  0  0  0  0  0  0
   -0.9724   -0.6507    3.1647 H   0  0  0  0  0  0  0  0  0  0  0  0
   -0.9724    1.3514    0.6716 C   0  0  0  0  0  3  0  0  0  0  0  0
   -0.3215    1.1032   -0.5420 O   0  0  0  0  0  0  0  0  0  0  0  0
    0.8662    0.3673   -0.3850 C   0  0  0  0  0  0  0  0  0  0  0  0
    1.5227    0.1779   -1.7370 C   0  0  0  0  0  0  0  0  0  0  0  0
    1.9530    1.4882   -2.3830 C   0  0  0  0  0  0  0  0  0  0  0  0
   -1.8751    1.9201    0.4525 H   0  0  0  0  0  0  0  0  0  0  0  0
   -0.3410    1.9351    1.3552 H   0  0  0  0  0  0  0  0  0  0  0  0
    0.6439   -0.6085    0.0716 H   0  0  0  0  0  0  0  0  0  0  0  0
    1.5489    0.8999    0.2962 H   0  0  0  0  0  0  0  0  0  0  0  0
    0.8246   -0.3516   -2.3905 H   0  0  0  0  0  0  0  0  0  0  0  0
    2.3881   -0.4767   -1.6012 H   0  0  0  0  0  0  0  0  0  0  0  0
    2.4250    1.3120   -3.3507 H   0  0  0  0  0  0  0  0  0  0  0  0
    1.0955    2.1433   -2.5362 H   0  0  0  0  0  0  0  0  0  0  0  0
    2.6710    2.0168   -1.7511 H   0  0  0  0  0  0  0  0  0  0  0  0
  1  2  1  0
  1  4  1  0
  1  5  1  0
  2  3  2  0
  6  7  1  0
  6 11  1  0
  6 12  1  0
  7  8  1  0
  8  9  1  0
  8 13  1  0
  8 14  1  0
  9 10  1  0
  9 15  1  0
  9 16  1  0
 10 17  1  0
 10 18  1  0
 10 19  1  0
M  RAD  1   6   2
M  END
>  <reaction>  (20) 
rmg_rxn_1544

>  <mol_properties>  (20) 
{"0": {"label": "*3", "atom_type": "N3d"}, "1": {"label": "*4", "atom_type": "N3d"}, "3": {"label": "*2", "atom_type": "H0"}, "5": {"label": "*1", "atom_type": "Cs"}, "6": {"label": "*0", "atom_type": "O2s"}}

>  <type>  (20) 
unop_16

>  <geom_source>  (20) 
Heuristics

$$$$

     RDKit          3D

 19 17  0  0  0  0  0  0  0  0999 V2000
    0.8256   -0.9723    2.3245 N   0  0  0  0  0  0  0  0  0  0  0  0
    0.8256   -2.1751    1.7798 N   0  0  0  0  0  0  0  0  0  0  0  0
    0.8256   -2.1751    0.5753 O   0  0  0  0  0  0  0  0  0  0  0  0
    0.8256    0.0103    1.6093 H   0  0  0  0  0  0  0  0  0  0  0  0
    0.8256   -0.9260    3.3266 H   0  0  0  0  0  0  0  0  0  0  0  0
    0.8256    1.0762    0.8335 C   0  0  0  0  0  3  0  0  0  0  0  0
   -0.3016    1.1084    0.0051 O   0  0  0  0  0  0  0  0  0  0  0  0
   -0.0803    0.5006   -1.2434 C   0  0  0  0  0  0  0  0  0  0  0  0
   -1.3335    0.6138   -2.0868 C   0  0  0  0  0  0  0  0  0  0  0  0
   -1.7102    2.0535   -2.4102 C   0  0  0  0  0  0  0  0  0  0  0  0
    0.5611    1.5636    1.7710 H   0  0  0  0  0  0  0  0  0  0  0  0
    1.6729    1.6095    0.3815 H   0  0  0  0  0  0  0  0  0  0  0  0
    0.1908   -0.5561   -1.1020 H   0  0  0  0  0  0  0  0  0  0  0  0
    0.7648    0.9903   -1.7530 H   0  0  0  0  0  0  0  0  0  0  0  0
   -2.1533    0.1208   -1.5579 H   0  0  0  0  0  0  0  0  0  0  0  0
   -1.1686    0.0515   -3.0101 H   0  0  0  0  0  0  0  0  0  0  0  0
   -2.6128    2.0950   -3.0216 H   0  0  0  0  0  0  0  0  0  0  0  0
   -1.8909    2.6201   -1.4968 H   0  0  0  0  0  0  0  0  0  0  0  0
   -0.9087    2.5515   -2.9615 H   0  0  0  0  0  0  0  0  0  0  0  0
  1  2  1  0
  1  4  1  0
  1  5  1  0
  2  3  2  0
  6  7  1  0
  6 11  1  0
  6 12  1  0
  7  8  1  0
  8  9  1  0
  8 13  1  0
  8 14  1  0
  9 10  1  0
  9 15  1  0
  9 16  1  0
 10 17  1  0
 10 18  1  0
 10 19  1  0
M  RAD  1   6   2
M  END
>  <reaction>  (21) 
rmg_rxn_1544

>  <mol_properties>  (21) 
{"0": {"label": "*3", "atom_type": "N3d"}, "1": {"label": "*4", "atom_type": "N3d"}, "3": {"label": "*2", "atom_type": "H0"}, "5": {"label": "*1", "atom_type": "Cs"}, "6": {"label": "*0", "atom_type": "O2s"}}

>  <type>  (21) 
unop_17

>  <geom_source>  (21) 
Heuristics

$$$$

     RDKit          3D

 19 17  0  0  0  0  0  0  0  0999 V2000
   -0.3585   -1.9601    0.3185 N   0  0  0  0  0  0  0  0  0  0  0  0
   -0.3585   -3.1629   -0.2263 N   0  0  0  0  0  0  0  0  0  0  0  0
   -0.3585   -3.1629   -1.4308 O   0  0  0  0  0  0  0  0  0  0  0  0
   -0.3585   -0.9774   -0.3967 H   0  0  0  0  0  0  0  0  0  0  0  0
   -0.3585   -1.9137    1.3206 H   0  0  0  0  0  0  0  0  0  0  0  0
   -0.3585    0.0884   -1.1725 C   0  0  0  0  0  3  0  0  0  0  0  0
    0.2923    1.1670   -0.5633 O   0  0  0  0  0  0  0  0  0  0  0  0
    0.1606    1.1653    0.8366 C   0  0  0  0  0  0  0  0  0  0  0  0
    0.8587    2.3818    1.4087 C   0  0  0  0  0  0  0  0  0  0  0  0
    0.2385    3.6969    0.9558 C   0  0  0  0  0  0  0  0  0  0  0  0
   -0.2011    0.1714   -2.2471 H   0  0  0  0  0  0  0  0  0  0  0  0
   -1.4378    0.1021   -0.9686 H   0  0  0  0  0  0  0  0  0  0  0  0
    0.5960    0.2444    1.2520 H   0  0  0  0  0  0  0  0  0  0  0  0
   -0.9062    1.1764    1.1117 H   0  0  0  0  0  0  0  0  0  0  0  0
    1.9124    2.3446    1.1207 H   0  0  0  0  0  0  0  0  0  0  0  0
    0.8255    2.3059    2.4991 H   0  0  0  0  0  0  0  0  0  0  0  0
    0.7635    4.5486    1.3909 H   0  0  0  0  0  0  0  0  0  0  0  0
    0.2789    3.7897   -0.1294 H   0  0  0  0  0  0  0  0  0  0  0  0
   -0.8096    3.7585    1.2594 H   0  0  0  0  0  0  0  0  0  0  0  0
  1  2  1  0
  1  4  1  0
  1  5  1  0
  2  3  2  0
  6  7  1  0
  6 11  1  0
  6 12  1  0
  7  8  1  0
  8  9  1  0
  8 13  1  0
  8 14  1  0
  9 10  1  0
  9 15  1  0
  9 16  1  0
 10 17  1  0
 10 18  1  0
 10 19  1  0
M  RAD  1   6   2
M  END
>  <reaction>  (22) 
rmg_rxn_1544

>  <mol_properties>  (22) 
{"0": {"label": "*3", "atom_type": "N3d"}, "1": {"label": "*4", "atom_type": "N3d"}, "3": {"label": "*2", "atom_type": "H0"}, "5": {"label": "*1", "atom_type": "Cs"}, "6": {"label": "*0", "atom_type": "O2s"}}

>  <type>  (22) 
unop_18

>  <geom_source>  (22) 
Heuristics

$$$$

     RDKit          3D

 19 17  0  0  0  0  0  0  0  0999 V2000
   -0.4077   -0.6042    2.4866 N   0  0  0  0  0  0  0  0  0  0  0  0
   -0.4077   -1.8070    1.9419 N   0  0  0  0  0  0  0  0  0  0  0  0
   -0.4077   -1.8070    0.7374 O   0  0  0  0  0  0  0  0  0  0  0  0
   -0.4077    0.3784    1.7714 H   0  0  0  0  0  0  0  0  0  0  0  0
   -0.4077   -0.5579    3.4887 H   0  0  0  0  0  0  0  0  0  0  0  0
   -0.4077    1.4443    0.9956 C   0  0  0  0  0  3  0  0  0  0  0  0
   -0.4077    1.0935   -0.3590 O   0  0  0  0  0  0  0  0  0  0  0  0
    0.7194    0.3382   -0.7283 C   0  0  0  0  0  0  0  0  0  0  0  0
    0.6582    0.0362   -2.2114 C   0  0  0  0  0  0  0  0  0  0  0  0
    0.7185    1.2854   -3.0803 C   0  0  0  0  0  0  0  0  0  0  0  0
   -1.3117    2.0206    1.1880 H   0  0  0  0  0  0  0  0  0  0  0  0
    0.4668    2.0572    1.2529 H   0  0  0  0  0  0  0  0  0  0  0  0
    0.7493   -0.5965   -0.1491 H   0  0  0  0  0  0  0  0  0  0  0  0
    1.6384    0.8987   -0.4935 H   0  0  0  0  0  0  0  0  0  0  0  0
   -0.2613   -0.5188   -2.4148 H   0  0  0  0  0  0  0  0  0  0  0  0
    1.4906   -0.6306   -2.4527 H   0  0  0  0  0  0  0  0  0  0  0  0
    0.6770    1.0286   -4.1399 H   0  0  0  0  0  0  0  0  0  0  0  0
   -0.1152    1.9513   -2.8581 H   0  0  0  0  0  0  0  0  0  0  0  0
    1.6453    1.8374   -2.9053 H   0  0  0  0  0  0  0  0  0  0  0  0
  1  2  1  0
  1  4  1  0
  1  5  1  0
  2  3  2  0
  6  7  1  0
  6 11  1  0
  6 12  1  0
  7  8  1  0
  8  9  1  0
  8 13  1  0
  8 14  1  0
  9 10  1  0
  9 15  1  0
  9 16  1  0
 10 17  1  0
 10 18  1  0
 10 19  1  0
M  RAD  1   6   2
M  END
>  <reaction>  (23) 
rmg_rxn_1544

>  <mol_properties>  (23) 
{"0": {"label": "*3", "atom_type": "N3d"}, "1": {"label": "*4", "atom_type": "N3d"}, "3": {"label": "*2", "atom_type": "H0"}, "5": {"label": "*1", "atom_type": "Cs"}, "6": {"label": "*0", "atom_type": "O2s"}}

>  <type>  (23) 
unop_19

>  <geom_source>  (23) 
Heuristics

$$$$

     RDKit          3D

 19 17  0  0  0  0  0  0  0  0999 V2000
    0.2545   -0.7047    2.5492 N   0  0  0  0  0  0  0  0  0  0  0  0
    0.2545   -1.9075    2.0044 N   0  0  0  0  0  0  0  0  0  0  0  0
    0.2545   -1.9075    0.7999 O   0  0  0  0  0  0  0  0  0  0  0  0
    0.2545    0.2779    1.8339 H   0  0  0  0  0  0  0  0  0  0  0  0
    0.2545   -0.6584    3.5513 H   0  0  0  0  0  0  0  0  0  0  0  0
    0.2545    1.3438    1.0581 C   0  0  0  0  0  3  0  0  0  0  0  0
   -0.3963    1.0956   -0.1555 O   0  0  0  0  0  0  0  0  0  0  0  0
    0.4005    0.3808   -1.0671 C   0  0  0  0  0  0  0  0  0  0  0  0
   -0.3637    0.1903   -2.3611 C   0  0  0  0  0  0  0  0  0  0  0  0
   -0.6877    1.5016   -3.0643 C   0  0  0  0  0  0  0  0  0  0  0  0
   -0.4346    1.8955    1.6962 H   0  0  0  0  0  0  0  0  0  0  0  0
    1.1630    1.9439    0.9125 H   0  0  0  0  0  0  0  0  0  0  0  0
    0.6755   -0.5945   -0.6389 H   0  0  0  0  0  0  0  0  0  0  0  0
    1.3361    0.9306   -1.2572 H   0  0  0  0  0  0  0  0  0  0  0  0
   -1.2846   -0.3565   -2.1428 H   0  0  0  0  0  0  0  0  0  0  0  0
    0.2368   -0.4487   -3.0145 H   0  0  0  0  0  0  0  0  0  0  0  0
   -1.2329    1.3247   -3.9926 H   0  0  0  0  0  0  0  0  0  0  0  0
   -1.2984    2.1412   -2.4270 H   0  0  0  0  0  0  0  0  0  0  0  0
    0.2262    2.0477   -3.3111 H   0  0  0  0  0  0  0  0  0  0  0  0
  1  2  1  0
  1  4  1  0
  1  5  1  0
  2  3  2  0
  6  7  1  0
  6 11  1  0
  6 12  1  0
  7  8  1  0
  8  9  1  0
  8 13  1  0
  8 14  1  0
  9 10  1  0
  9 15  1  0
  9 16  1  0
 10 17  1  0
 10 18  1  0
 10 19  1  0
M  RAD  1   6   2
M  END
>  <reaction>  (24) 
rmg_rxn_1544

>  <mol_properties>  (24) 
{"0": {"label": "*3", "atom_type": "N3d"}, "1": {"label": "*4", "atom_type": "N3d"}, "3": {"label": "*2", "atom_type": "H0"}, "5": {"label": "*1", "atom_type": "Cs"}, "6": {"label": "*0", "atom_type": "O2s"}}

>  <type>  (24) 
unop_20

>  <geom_source>  (24) 
gaussian_log

$$$$
