
     RDKit          3D

  9  8  0  0  0  0  0  0  0  0999 V2000
   -1.5470   -0.0755   -0.1976 C   0  0  0  0  0  0  0  0  0  0  0  0
   -0.2885    0.4507    0.1749 O   0  0  0  0  0  0  0  0  0  0  0  0
   -0.1502    1.7216   -0.3294 N   0  0  0  0  0  0  0  0  0  0  0  0
    0.9626    2.2353   -0.0219 C   0  0  0  0  0  0  0  0  0  0  0  0
   -1.6392   -0.1356   -1.2844 H   0  0  0  0  0  0  0  0  0  0  0  0
   -2.3597    0.5337    0.2044 H   0  0  0  0  0  0  0  0  0  0  0  0
   -1.5879   -1.0750    0.2318 H   0  0  0  0  0  0  0  0  0  0  0  0
    1.1497    3.2381   -0.3820 H   0  0  0  0  0  0  0  0  0  0  0  0
    1.7060    1.7101    0.5739 H   0  0  0  0  0  0  0  0  0  0  0  0
  1  2  1  0
  1  5  1  0
  1  6  1  0
  1  7  1  0
  2  3  1  0
  3  4  2  3
  4  8  1  0
  4  9  1  0
M  END
>  <reaction>  (1) 
rmg_rxn_15702

>  <mol_properties>  (1) 
{"0": {"label": "donator", "atom_type": "Cs"}, "4": {"label": "d_hydrogen", "atom_type": "H0"}}

>  <type>  (1) 
r1h

$$$$

     RDKit          3D

  8  7  0  0  0  0  0  0  0  0999 V2000
    0.9383    0.2996   -0.2216 C   0  0  0  0  0  3  0  0  0  0  0  0
   -0.2599   -0.3612    0.3424 C   0  0  0  0  0  0  0  0  0  0  0  0
   -1.4623    0.3337    0.0690 O   0  0  0  0  0  0  0  0  0  0  0  0
    1.8278   -0.2698   -0.4548 H   0  0  0  0  0  0  0  0  0  0  0  0
    0.9841    1.3806   -0.2544 H   0  0  0  0  0  0  0  0  0  0  0  0
   -0.3172   -1.4027   -0.0032 H   0  0  0  0  0  0  0  0  0  0  0  0
   -0.1994   -0.4050    1.4381 H   0  0  0  0  0  0  0  0  0  0  0  0
   -1.5169    0.4672   -0.8790 H   0  0  0  0  0  0  0  0  0  0  0  0
  1  2  1  0
  1  4  1  0
  1  5  1  0
  2  3  1  0
  2  6  1  0
  2  7  1  0
  3  8  1  0
M  RAD  1   1   2
M  END
>  <reaction>  (2) 
rmg_rxn_15702

>  <mol_properties>  (2) 
{"0": {"label": "acceptor", "atom_type": "Cs"}}

>  <type>  (2) 
r2

$$$$

     RDKit          3D

  9  8  0  0  0  0  0  0  0  0999 V2000
   -0.9895    0.3048    0.1041 C   0  0  0  0  0  0  0  0  0  0  0  0
    0.3761   -0.3562    0.0721 C   0  0  0  0  0  0  0  0  0  0  0  0
    0.3441   -1.6564   -0.4834 O   0  0  0  0  0  0  0  0  0  0  0  0
   -1.6997   -0.3114    0.6572 H   0  0  0  0  0  0  0  0  0  0  0  0
   -0.9320    1.2848    0.5822 H   0  0  0  0  0  0  0  0  0  0  0  0
   -1.3774    0.4507   -0.9077 H   0  0  0  0  0  0  0  0  0  0  0  0
    0.7581   -0.4813    1.0862 H   0  0  0  0  0  0  0  0  0  0  0  0
    1.0900    0.2787   -0.4681 H   0  0  0  0  0  0  0  0  0  0  0  0
    0.0089   -1.5959   -1.3792 H   0  0  0  0  0  0  0  0  0  0  0  0
  1  2  1  0
  1  4  1  0
  1  5  1  0
  1  6  1  0
  2  3  1  0
  2  7  1  0
  2  8  1  0
  3  9  1  0
M  END
>  <reaction>  (3) 
rmg_rxn_15702

>  <mol_properties>  (3) 
{"0": {"label": "acceptor", "atom_type": "Cs"}, "8": {"label": "a_hydrogen", "atom_type": "H0"}}

>  <type>  (3) 
r2h

$$$$

     RDKit          3D

 17 15  0  0  0  0  0  0  0  0999 V2000
    1.9825    0.9437    0.2697 C   0  0  0  0  0  3  0  0  0  0  0  0
    1.9350   -0.5508    0.4386 C   0  0  0  0  0  0  0  0  0  0  0  0
    1.5030   -1.2217   -0.7228 O   0  0  0  0  0  0  0  0  0  0  0  0
    2.5784    1.2745   -0.5797 H   0  0  0  0  0  0  0  0  0  0  0  0
    2.2046    1.4983    1.1807 H   0  0  0  0  0  0  0  0  0  0  0  0
    2.9378   -0.9335    0.6573 H   0  0  0  0  0  0  0  0  0  0  0  0
    1.3040   -0.8085    1.3001 H   0  0  0  0  0  0  0  0  0  0  0  0
    0.5596   -1.0386   -0.8214 H   0  0  0  0  0  0  0  0  0  0  0  0
   -0.5248    1.6624   -0.4384 C   0  0  0  0  0  0  0  0  0  0  0  0
   -1.4371    0.8514    0.2356 O   0  0  0  0  0  0  0  0  0  0  0  0
   -1.3232   -0.4546   -0.1749 N   0  0  0  0  0  0  0  0  0  0  0  0
   -2.1859   -1.2070    0.3600 C   0  0  0  0  0  0  0  0  0  0  0  0
    0.7221    1.3461   -0.0693 H   0  0  0  0  0  0  0  0  0  0  0  0
   -0.6975    2.6863   -0.1193 H   0  0  0  0  0  0  0  0  0  0  0  0
   -0.5519    1.5260   -1.5198 H   0  0  0  0  0  0  0  0  0  0  0  0
   -2.1476   -2.2540    0.0915 H   0  0  0  0  0  0  0  0  0  0  0  0
   -2.9323   -0.8339    1.0566 H   0  0  0  0  0  0  0  0  0  0  0  0
  1  2  1  0
  1  4  1  0
  1  5  1  0
  2  3  1  0
  2  6  1  0
  2  7  1  0
  3  8  1  0
  9 10  1  0
  9 13  1  0
  9 14  1  0
  9 15  1  0
 10 11  1  0
 11 12  2  3
 12 16  1  0
 12 17  1  0
M  RAD  1   1   2
M  END
>  <reaction>  (4) 
rmg_rxn_15702

>  <mol_properties>  (4) 
{"0": {"label": "*3", "atom_type": "Cs"}, "1": {"label": "*4", "atom_type": "Cs"}, "8": {"label": "*1", "atom_type": "Cs"}, "9": {"label": "*0", "atom_type": "O2s"}, "12": {"label": "*2", "atom_type": "H0"}}

>  <type>  (4) 
ts

$$$$

     RDKit          3D

 17 15  0  0  0  0  0  0  0  0999 V2000
    1.9634    0.9449    0.1989 C   0  0  0  0  0  0  0  0  0  0  0  0
    1.8954   -0.5312    0.5128 C   0  0  0  0  0  0  0  0  0  0  0  0
    1.4200   -1.3067   -0.5575 O   0  0  0  0  0  0  0  0  0  0  0  0
    2.5339    1.1522   -0.6996 H   0  0  0  0  0  0  0  0  0  0  0  0
    2.3065    1.5348    1.0405 H   0  0  0  0  0  0  0  0  0  0  0  0
    2.9027   -0.9147    0.7223 H   0  0  0  0  0  0  0  0  0  0  0  0
    1.2818   -0.6941    1.4129 H   0  0  0  0  0  0  0  0  0  0  0  0
    0.4969   -1.0579   -0.7319 H   0  0  0  0  0  0  0  0  0  0  0  0
   -0.5022    1.7049   -0.3983 C   0  0  0  0  0  3  0  0  0  0  0  0
   -1.3824    0.8641    0.2586 O   0  0  0  0  0  0  0  0  0  0  0  0
   -1.3501   -0.4253   -0.2373 N   0  0  0  0  0  0  0  0  0  0  0  0
   -2.1725   -1.2408    0.2694 C   0  0  0  0  0  0  0  0  0  0  0  0
    0.7613    1.3588   -0.0727 H   0  0  0  0  0  0  0  0  0  0  0  0
   -0.6650    2.7094   -0.0276 H   0  0  0  0  0  0  0  0  0  0  0  0
   -0.5352    1.6180   -1.4819 H   0  0  0  0  0  0  0  0  0  0  0  0
   -2.1411   -2.2471   -0.1080 H   0  0  0  0  0  0  0  0  0  0  0  0
   -2.8869   -0.9832    1.0438 H   0  0  0  0  0  0  0  0  0  0  0  0
  1  2  1  0
  1  4  1  0
  1  5  1  0
  1 13  1  0
  2  3  1  0
  2  6  1  0
  2  7  1  0
  3  8  1  0
  9 10  1  0
  9 14  1  0
  9 15  1  0
 10 11  1  0
 11 12  2  3
 12 16  1  0
 12 17  1  0
M  RAD  1   9   2
M  END
>  <reaction>  (5) 
rmg_rxn_15702

>  <mol_properties>  (5) 
{"0": {"label": "*3", "atom_type": "Cs"}, "1": {"label": "*4", "atom_type": "Cs"}, "8": {"label": "*1", "atom_type": "Cs"}, "9": {"label": "*0", "atom_type": "O2s"}, "12": {"label": "*2", "atom_type": "H0"}}

>  <type>  (5) 
unop_1

>  <geom_source>  (5) 
crest_best.xyz

$$$$

     RDKit          3D

 17 15  0  0  0  0  0  0  0  0999 V2000
    0.7910   -0.7289    1.2430 C   0  0  0  0  0  3  0  0  0  0  0  0
    1.6078    0.1857    2.1371 C   0  0  0  0  0  0  0  0  0  0  0  0
    2.7491    0.7119    1.4885 O   0  0  0  0  0  0  0  0  0  0  0  0
   -0.0525   -1.1518    1.7925 H   0  0  0  0  0  0  0  0  0  0  0  0
    1.4074   -1.5468    0.8676 H   0  0  0  0  0  0  0  0  0  0  0  0
    0.9764    0.9942    2.5273 H   0  0  0  0  0  0  0  0  0  0  0  0
    1.9895   -0.3690    2.9954 H   0  0  0  0  0  0  0  0  0  0  0  0
    2.4607    1.2074    0.7205 H   0  0  0  0  0  0  0  0  0  0  0  0
   -1.3512    0.4961    0.3544 C   0  0  0  0  0  0  0  0  0  0  0  0
   -1.3512    0.5540   -1.0585 O   0  0  0  0  0  0  0  0  0  0  0  0
   -1.3512   -0.7199   -1.5742 N   0  0  0  0  0  0  0  0  0  0  0  0
   -1.3512   -0.7199   -2.8379 C   0  0  0  0  0  0  0  0  0  0  0  0
   -0.2806   -0.1161    0.7985 H   0  0  0  0  0  0  0  0  0  0  0  0
   -2.2433   -0.0141    0.7245 H   0  0  0  0  0  0  0  0  0  0  0  0
   -1.3512    1.5310    0.6922 H   0  0  0  0  0  0  0  0  0  0  0  0
   -1.3512   -1.6869   -3.3227 H   0  0  0  0  0  0  0  0  0  0  0  0
   -1.3512    0.1966   -3.4240 H   0  0  0  0  0  0  0  0  0  0  0  0
  1  2  1  0
  1  4  1  0
  1  5  1  0
  2  3  1  0
  2  6  1  0
  2  7  1  0
  3  8  1  0
  9 10  1  0
  9 13  1  0
  9 14  1  0
  9 15  1  0
 10 11  1  0
 11 12  2  3
 12 16  1  0
 12 17  1  0
M  RAD  1   1   2
M  END
>  <reaction>  (6) 
rmg_rxn_15702

>  <mol_properties>  (6) 
{"0": {"label": "*3", "atom_type": "Cs"}, "1": {"label": "*4", "atom_type": "Cs"}, "8": {"label": "*1", "atom_type": "Cs"}, "9": {"label": "*0", "atom_type": "O2s"}, "12": {"label": "*2", "atom_type": "H0"}}

>  <type>  (6) 
unop_2

>  <geom_source>  (6) 
Heuristics

$$$$

     RDKit          3D

 17 15  0  0  0  0  0  0  0  0999 V2000
    2.1232   -0.2015   -1.2235 C   0  0  0  0  0  0  0  0  0  0  0  0
    2.4610   -0.1398    0.2563 C   0  0  0  0  0  0  0  0  0  0  0  0
    1.4574    0.4778    1.0200 O   0  0  0  0  0  0  0  0  0  0  0  0
    2.9082   -0.6613   -1.8084 H   0  0  0  0  0  0  0  0  0  0  0  0
    1.8290    0.7423   -1.6291 H   0  0  0  0  0  0  0  0  0  0  0  0
    2.6557   -1.1572    0.6298 H   0  0  0  0  0  0  0  0  0  0  0  0
    3.3638    0.4584    0.4089 H   0  0  0  0  0  0  0  0  0  0  0  0
    0.6239   -0.0016    0.8691 H   0  0  0  0  0  0  0  0  0  0  0  0
   -1.4812    1.6702   -0.1680 C   0  0  0  0  0  3  0  0  0  0  0  0
   -1.9770    0.4333   -0.2378 O   0  0  0  0  0  0  0  0  0  0  0  0
   -1.1381   -0.5680    0.1837 N   0  0  0  0  0  0  0  0  0  0  0  0
   -1.6128   -1.7511    0.1295 C   0  0  0  0  0  0  0  0  0  0  0  0
    1.1575   -0.6739   -1.4189 H   0  0  0  0  0  0  0  0  0  0  0  0
   -0.5011    1.8530    0.2282 H   0  0  0  0  0  0  0  0  0  0  0  0
   -2.1571    2.4296   -0.5011 H   0  0  0  0  0  0  0  0  0  0  0  0
   -0.9622   -2.5415    0.4550 H   0  0  0  0  0  0  0  0  0  0  0  0
   -2.6109   -1.9880   -0.2185 H   0  0  0  0  0  0  0  0  0  0  0  0
  1  2  1  0
  1  4  1  0
  1  5  1  0
  1 13  1  0
  2  3  1  0
  2  6  1  0
  2  7  1  0
  3  8  1  0
  9 10  1  0
  9 14  1  0
  9 15  1  0
 10 11  1  0
 11 12  2  3
 12 16  1  0
 12 17  1  0
M  RAD  1   9   2
M  END
>  <reaction>  (7) 
rmg_rxn_15702

>  <mol_properties>  (7) 
{"0": {"label": "*3", "atom_type": "Cs"}, "1": {"label": "*4", "atom_type": "Cs"}, "8": {"label": "*1", "atom_type": "Cs"}, "9": {"label": "*0", "atom_type": "O2s"}, "12": {"label": "*2", "atom_type": "H0"}}

>  <type>  (7) 
unop_3

>  <geom_source>  (7) 
Heuristics

$$$$

     RDKit          3D

 17 15  0  0  0  0  0  0  0  0999 V2000
    0.8674   -0.2968    1.8633 C   0  0  0  0  0  3  0  0  0  0  0  0
    2.0383   -0.0969    0.9189 C   0  0  0  0  0  0  0  0  0  0  0  0
    2.0080   -0.9771   -0.1876 O   0  0  0  0  0  0  0  0  0  0  0  0
    0.9516    0.3661    2.7270 H   0  0  0  0  0  0  0  0  0  0  0  0
    0.8338   -1.3279    2.2177 H   0  0  0  0  0  0  0  0  0  0  0  0
    2.0778    0.9472    0.5827 H   0  0  0  0  0  0  0  0  0  0  0  0
    2.9772   -0.3065    1.4331 H   0  0  0  0  0  0  0  0  0  0  0  0
    1.1930   -0.8305   -0.6703 H   0  0  0  0  0  0  0  0  0  0  0  0
   -1.2748    0.9282    0.9746 C   0  0  0  0  0  0  0  0  0  0  0  0
   -1.2748    0.9861   -0.4382 O   0  0  0  0  0  0  0  0  0  0  0  0
   -1.2748   -0.2878   -0.9540 N   0  0  0  0  0  0  0  0  0  0  0  0
   -1.2748   -0.2878   -2.2176 C   0  0  0  0  0  0  0  0  0  0  0  0
   -0.2042    0.3160    1.4188 H   0  0  0  0  0  0  0  0  0  0  0  0
   -2.1669    0.4180    1.3448 H   0  0  0  0  0  0  0  0  0  0  0  0
   -1.2748    1.9631    1.3125 H   0  0  0  0  0  0  0  0  0  0  0  0
   -1.2748   -1.2549   -2.7024 H   0  0  0  0  0  0  0  0  0  0  0  0
   -1.2748    0.6287   -2.8037 H   0  0  0  0  0  0  0  0  0  0  0  0
  1  2  1  0
  1  4  1  0
  1  5  1  0
  2  3  1  0
  2  6  1  0
  2  7  1  0
  3  8  1  0
  9 10  1  0
  9 13  1  0
  9 14  1  0
  9 15  1  0
 10 11  1  0
 11 12  2  3
 12 16  1  0
 12 17  1  0
M  RAD  1   1   2
M  END
>  <reaction>  (8) 
rmg_rxn_15702

>  <mol_properties>  (8) 
{"0": {"label": "*3", "atom_type": "Cs"}, "1": {"label": "*4", "atom_type": "Cs"}, "8": {"label": "*1", "atom_type": "Cs"}, "9": {"label": "*0", "atom_type": "O2s"}, "12": {"label": "*2", "atom_type": "H0"}}

>  <type>  (8) 
unop_4

>  <geom_source>  (8) 
Heuristics

$$$$

     RDKit          3D

 17 15  0  0  0  0  0  0  0  0999 V2000
    0.9473   -0.6981    1.0146 C   0  0  0  0  0  3  0  0  0  0  0  0
    1.3503   -0.1668    2.3777 C   0  0  0  0  0  0  0  0  0  0  0  0
    2.2795    0.8966    2.3000 O   0  0  0  0  0  0  0  0  0  0  0  0
    0.2681   -1.5469    1.1174 H   0  0  0  0  0  0  0  0  0  0  0  0
    1.8261   -1.0211    0.4550 H   0  0  0  0  0  0  0  0  0  0  0  0
    0.4598    0.1371    2.9426 H   0  0  0  0  0  0  0  0  0  0  0  0
    1.8479   -0.9477    2.9545 H   0  0  0  0  0  0  0  0  0  0  0  0
    1.8844    1.6090    1.7951 H   0  0  0  0  0  0  0  0  0  0  0  0
   -1.1949    0.5269    0.1259 C   0  0  0  0  0  0  0  0  0  0  0  0
   -1.1950    0.5848   -1.2870 O   0  0  0  0  0  0  0  0  0  0  0  0
   -1.1950   -0.6891   -1.8027 N   0  0  0  0  0  0  0  0  0  0  0  0
   -1.1950   -0.6891   -3.0663 C   0  0  0  0  0  0  0  0  0  0  0  0
   -0.1244   -0.0853    0.5700 H   0  0  0  0  0  0  0  0  0  0  0  0
   -2.0871    0.0167    0.4960 H   0  0  0  0  0  0  0  0  0  0  0  0
   -1.1950    1.5618    0.4637 H   0  0  0  0  0  0  0  0  0  0  0  0
   -1.1950   -1.6562   -3.5512 H   0  0  0  0  0  0  0  0  0  0  0  0
   -1.1950    0.2274   -3.6525 H   0  0  0  0  0  0  0  0  0  0  0  0
  1  2  1  0
  1  4  1  0
  1  5  1  0
  2  3  1  0
  2  6  1  0
  2  7  1  0
  3  8  1  0
  9 10  1  0
  9 13  1  0
  9 14  1  0
  9 15  1  0
 10 11  1  0
 11 12  2  3
 12 16  1  0
 12 17  1  0
M  RAD  1   1   2
M  END
>  <reaction>  (9) 
rmg_rxn_15702

>  <mol_properties>  (9) 
{"0": {"label": "*3", "atom_type": "Cs"}, "1": {"label": "*4", "atom_type": "Cs"}, "8": {"label": "*1", "atom_type": "Cs"}, "9": {"label": "*0", "atom_type": "O2s"}, "12": {"label": "*2", "atom_type": "H0"}}

>  <type>  (9) 
unop_5

>  <geom_source>  (9) 
Heuristics

$$$$

     RDKit          3D

 17 15  0  0  0  0  0  0  0  0999 V2000
    1.3910    0.1399    1.5963 C   0  0  0  0  0  3  0  0  0  0  0  0
    1.4611   -1.2817    1.0702 C   0  0  0  0  0  0  0  0  0  0  0  0
    0.1848   -1.8577    0.8722 O   0  0  0  0  0  0  0  0  0  0  0  0
    2.3932    0.5321    1.7813 H   0  0  0  0  0  0  0  0  0  0  0  0
    0.8258    0.1752    2.5286 H   0  0  0  0  0  0  0  0  0  0  0  0
    2.0483   -1.3125    0.1434 H   0  0  0  0  0  0  0  0  0  0  0  0
    1.9635   -1.9265    1.7925 H   0  0  0  0  0  0  0  0  0  0  0  0
   -0.2975   -1.3188    0.2432 H   0  0  0  0  0  0  0  0  0  0  0  0
   -0.7512    1.3649    0.7076 C   0  0  0  0  0  0  0  0  0  0  0  0
   -0.7512    1.4228   -0.7052 O   0  0  0  0  0  0  0  0  0  0  0  0
   -0.7512    0.1489   -1.2210 N   0  0  0  0  0  0  0  0  0  0  0  0
   -0.7512    0.1489   -2.4846 C   0  0  0  0  0  0  0  0  0  0  0  0
    0.3194    0.7527    1.1518 H   0  0  0  0  0  0  0  0  0  0  0  0
   -1.6433    0.8547    1.0778 H   0  0  0  0  0  0  0  0  0  0  0  0
   -0.7512    2.3998    1.0455 H   0  0  0  0  0  0  0  0  0  0  0  0
   -0.7512   -0.8182   -2.9694 H   0  0  0  0  0  0  0  0  0  0  0  0
   -0.7512    1.0654   -3.0707 H   0  0  0  0  0  0  0  0  0  0  0  0
  1  2  1  0
  1  4  1  0
  1  5  1  0
  2  3  1  0
  2  6  1  0
  2  7  1  0
  3  8  1  0
  9 10  1  0
  9 13  1  0
  9 14  1  0
  9 15  1  0
 10 11  1  0
 11 12  2  3
 12 16  1  0
 12 17  1  0
M  RAD  1   1   2
M  END
>  <reaction>  (10) 
rmg_rxn_15702

>  <mol_properties>  (10) 
{"0": {"label": "*3", "atom_type": "Cs"}, "1": {"label": "*4", "atom_type": "Cs"}, "8": {"label": "*1", "atom_type": "Cs"}, "9": {"label": "*0", "atom_type": "O2s"}, "12": {"label": "*2", "atom_type": "H0"}}

>  <type>  (10) 
unop_6

>  <geom_source>  (10) 
Heuristics

$$$$

     RDKit          3D

 17 15  0  0  0  0  0  0  0  0999 V2000
    2.1195    0.1879   -1.2268 C   0  0  0  0  0  0  0  0  0  0  0  0
    2.4607    0.1475    0.2527 C   0  0  0  0  0  0  0  0  0  0  0  0
    1.4587   -0.4583    1.0280 O   0  0  0  0  0  0  0  0  0  0  0  0
    1.8214   -0.7604   -1.6186 H   0  0  0  0  0  0  0  0  0  0  0  0
    2.9021    0.6395   -1.8209 H   0  0  0  0  0  0  0  0  0  0  0  0
    3.3635   -0.4490    0.4118 H   0  0  0  0  0  0  0  0  0  0  0  0
    2.6569    1.1701    0.6108 H   0  0  0  0  0  0  0  0  0  0  0  0
    0.6249    0.0190    0.8723 H   0  0  0  0  0  0  0  0  0  0  0  0
   -1.4683   -1.6742   -0.1577 C   0  0  0  0  0  3  0  0  0  0  0  0
   -1.9725   -0.4412   -0.2363 O   0  0  0  0  0  0  0  0  0  0  0  0
   -1.1415    0.5685    0.1810 N   0  0  0  0  0  0  0  0  0  0  0  0
   -1.6242    1.7478    0.1186 C   0  0  0  0  0  0  0  0  0  0  0  0
    1.1521    0.6529   -1.4277 H   0  0  0  0  0  0  0  0  0  0  0  0
   -0.4884   -1.8479    0.2432 H   0  0  0  0  0  0  0  0  0  0  0  0
   -2.1388   -2.4403   -0.4864 H   0  0  0  0  0  0  0  0  0  0  0  0
   -0.9799    2.5447    0.4409 H   0  0  0  0  0  0  0  0  0  0  0  0
   -2.6232    1.9757   -0.2329 H   0  0  0  0  0  0  0  0  0  0  0  0
  1  2  1  0
  1  4  1  0
  1  5  1  0
  1 13  1  0
  2  3  1  0
  2  6  1  0
  2  7  1  0
  3  8  1  0
  9 10  1  0
  9 14  1  0
  9 15  1  0
 10 11  1  0
 11 12  2  3
 12 16  1  0
 12 17  1  0
M  RAD  1   9   2
M  END
>  <reaction>  (11) 
rmg_rxn_15702

>  <mol_properties>  (11) 
{"0": {"label": "*3", "atom_type": "Cs"}, "1": {"label": "*4", "atom_type": "Cs"}, "8": {"label": "*1", "atom_type": "Cs"}, "9": {"label": "*0", "atom_type": "O2s"}, "12": {"label": "*2", "atom_type": "H0"}}

>  <type>  (11) 
unop_7

>  <geom_source>  (11) 
Heuristics

$$$$

     RDKit          3D

 17 15  0  0  0  0  0  0  0  0999 V2000
    1.2039   -0.5553    0.8631 C   0  0  0  0  0  3  0  0  0  0  0  0
    1.2041   -0.6175    2.3794 C   0  0  0  0  0  0  0  0  0  0  0  0
    1.2545    0.6611    2.9816 O   0  0  0  0  0  0  0  0  0  0  0  0
    1.2129   -1.5603    0.4363 H   0  0  0  0  0  0  0  0  0  0  0  0
    2.0808   -0.0159    0.5025 H   0  0  0  0  0  0  0  0  0  0  0  0
    0.3302   -1.1789    2.7340 H   0  0  0  0  0  0  0  0  0  0  0  0
    2.0916   -1.1429    2.7349 H   0  0  0  0  0  0  0  0  0  0  0  0
    0.4908    1.1632    2.6930 H   0  0  0  0  0  0  0  0  0  0  0  0
   -0.9383    0.6697   -0.0255 C   0  0  0  0  0  0  0  0  0  0  0  0
   -0.9383    0.7276   -1.4384 O   0  0  0  0  0  0  0  0  0  0  0  0
   -0.9383   -0.5463   -1.9542 N   0  0  0  0  0  0  0  0  0  0  0  0
   -0.9383   -0.5463   -3.2178 C   0  0  0  0  0  0  0  0  0  0  0  0
    0.1323    0.0575    0.4186 H   0  0  0  0  0  0  0  0  0  0  0  0
   -1.8304    0.1595    0.3446 H   0  0  0  0  0  0  0  0  0  0  0  0
   -0.9383    1.7046    0.3123 H   0  0  0  0  0  0  0  0  0  0  0  0
   -0.9383   -1.5133   -3.7026 H   0  0  0  0  0  0  0  0  0  0  0  0
   -0.9383    0.3702   -3.8039 H   0  0  0  0  0  0  0  0  0  0  0  0
  1  2  1  0
  1  4  1  0
  1  5  1  0
  2  3  1  0
  2  6  1  0
  2  7  1  0
  3  8  1  0
  9 10  1  0
  9 13  1  0
  9 14  1  0
  9 15  1  0
 10 11  1  0
 11 12  2  3
 12 16  1  0
 12 17  1  0
M  RAD  1   1   2
M  END
>  <reaction>  (12) 
rmg_rxn_15702

>  <mol_properties>  (12) 
{"0": {"label": "*3", "atom_type": "Cs"}, "1": {"label": "*4", "atom_type": "Cs"}, "8": {"label": "*1", "atom_type": "Cs"}, "9": {"label": "*0", "atom_type": "O2s"}, "12": {"label": "*2", "atom_type": "H0"}}

>  <type>  (12) 
unop_8

>  <geom_source>  (12) 
Heuristics

$$$$

     RDKit          3D

 17 15  0  0  0  0  0  0  0  0999 V2000
    2.0848    0.1457    1.2396 C   0  0  0  0  0  0  0  0  0  0  0  0
    2.4516    0.1739   -0.2342 C   0  0  0  0  0  0  0  0  0  0  0  0
    1.4669   -0.4014   -1.0536 O   0  0  0  0  0  0  0  0  0  0  0  0
    1.1309    0.5828    1.4460 H   0  0  0  0  0  0  0  0  0  0  0  0
    2.8604    0.5628    1.8674 H   0  0  0  0  0  0  0  0  0  0  0  0
    2.6460    1.2136   -0.5407 H   0  0  0  0  0  0  0  0  0  0  0  0
    3.3612   -0.4083   -0.4058 H   0  0  0  0  0  0  0  0  0  0  0  0
    0.6275    0.0635   -0.8909 H   0  0  0  0  0  0  0  0  0  0  0  0
   -1.4276   -1.6849    0.1222 C   0  0  0  0  0  3  0  0  0  0  0  0
   -1.9524   -0.4629    0.2316 O   0  0  0  0  0  0  0  0  0  0  0  0
   -1.1449    0.5695   -0.1764 N   0  0  0  0  0  0  0  0  0  0  0  0
   -1.6484    1.7383   -0.0865 C   0  0  0  0  0  0  0  0  0  0  0  0
    1.7881   -0.8463    1.5853 H   0  0  0  0  0  0  0  0  0  0  0  0
   -0.4506   -1.8333   -0.2956 H   0  0  0  0  0  0  0  0  0  0  0  0
   -2.0791   -2.4690    0.4467 H   0  0  0  0  0  0  0  0  0  0  0  0
   -1.0230    2.5529   -0.4012 H   0  0  0  0  0  0  0  0  0  0  0  0
   -2.6474    1.9408    0.2806 H   0  0  0  0  0  0  0  0  0  0  0  0
  1  2  1  0
  1  4  1  0
  1  5  1  0
  1 13  1  0
  2  3  1  0
  2  6  1  0
  2  7  1  0
  3  8  1  0
  9 10  1  0
  9 14  1  0
  9 15  1  0
 10 11  1  0
 11 12  2  3
 12 16  1  0
 12 17  1  0
M  RAD  1   9   2
M  END
>  <reaction>  (13) 
rmg_rxn_15702

>  <mol_properties>  (13) 
{"0": {"label": "*3", "atom_type": "Cs"}, "1": {"label": "*4", "atom_type": "Cs"}, "8": {"label": "*1", "atom_type": "Cs"}, "9": {"label": "*0", "atom_type": "O2s"}, "12": {"label": "*2", "atom_type": "H0"}}

>  <type>  (13) 
unop_9

>  <geom_source>  (13) 
Heuristics

$$$$

     RDKit          3D

 17 15  0  0  0  0  0  0  0  0999 V2000
    1.4990    0.1206    1.3444 C   0  0  0  0  0  3  0  0  0  0  0  0
    1.2554   -1.3713    1.4776 C   0  0  0  0  0  0  0  0  0  0  0  0
   -0.1132   -1.6928    1.6320 O   0  0  0  0  0  0  0  0  0  0  0  0
    2.5681    0.3318    1.2755 H   0  0  0  0  0  0  0  0  0  0  0  0
    1.0937    0.6526    2.2061 H   0  0  0  0  0  0  0  0  0  0  0  0
    1.6835   -1.9017    0.6174 H   0  0  0  0  0  0  0  0  0  0  0  0
    1.7482   -1.7552    2.3719 H   0  0  0  0  0  0  0  0  0  0  0  0
   -0.5896   -1.3690    0.8660 H   0  0  0  0  0  0  0  0  0  0  0  0
   -0.6433    1.3456    0.4557 C   0  0  0  0  0  0  0  0  0  0  0  0
   -0.6433    1.4035   -0.9572 O   0  0  0  0  0  0  0  0  0  0  0  0
   -0.6433    0.1296   -1.4729 N   0  0  0  0  0  0  0  0  0  0  0  0
   -0.6433    0.1296   -2.7365 C   0  0  0  0  0  0  0  0  0  0  0  0
    0.4273    0.7334    0.8998 H   0  0  0  0  0  0  0  0  0  0  0  0
   -1.5354    0.8354    0.8258 H   0  0  0  0  0  0  0  0  0  0  0  0
   -0.6433    2.3805    0.7935 H   0  0  0  0  0  0  0  0  0  0  0  0
   -0.6433   -0.8375   -3.2214 H   0  0  0  0  0  0  0  0  0  0  0  0
   -0.6433    1.0461   -3.3227 H   0  0  0  0  0  0  0  0  0  0  0  0
  1  2  1  0
  1  4  1  0
  1  5  1  0
  2  3  1  0
  2  6  1  0
  2  7  1  0
  3  8  1  0
  9 10  1  0
  9 13  1  0
  9 14  1  0
  9 15  1  0
 10 11  1  0
 11 12  2  3
 12 16  1  0
 12 17  1  0
M  RAD  1   1   2
M  END
>  <reaction>  (14) 
rmg_rxn_15702

>  <mol_properties>  (14) 
{"0": {"label": "*3", "atom_type": "Cs"}, "1": {"label": "*4", "atom_type": "Cs"}, "8": {"label": "*1", "atom_type": "Cs"}, "9": {"label": "*0", "atom_type": "O2s"}, "12": {"label": "*2", "atom_type": "H0"}}

>  <type>  (14) 
unop_10

>  <geom_source>  (14) 
Heuristics

$$$$

     RDKit          3D

 17 15  0  0  0  0  0  0  0  0999 V2000
    1.9631    0.9450   -0.1995 C   0  0  0  0  0  0  0  0  0  0  0  0
    1.8949   -0.5313   -0.5129 C   0  0  0  0  0  0  0  0  0  0  0  0
    1.4201   -1.3064    0.5580 O   0  0  0  0  0  0  0  0  0  0  0  0
    2.3059    1.5345   -1.0415 H   0  0  0  0  0  0  0  0  0  0  0  0
    2.5342    1.1525    0.6986 H   0  0  0  0  0  0  0  0  0  0  0  0
    1.2807   -0.6944   -1.4125 H   0  0  0  0  0  0  0  0  0  0  0  0
    2.9020   -0.9148   -0.7229 H   0  0  0  0  0  0  0  0  0  0  0  0
    0.4971   -1.0575    0.7328 H   0  0  0  0  0  0  0  0  0  0  0  0
   -0.5023    1.7048    0.3985 C   0  0  0  0  0  3  0  0  0  0  0  0
   -1.3823    0.8640   -0.2584 O   0  0  0  0  0  0  0  0  0  0  0  0
   -1.3501   -0.4253    0.2375 N   0  0  0  0  0  0  0  0  0  0  0  0
   -2.1719   -1.2410   -0.2698 C   0  0  0  0  0  0  0  0  0  0  0  0
    0.7612    1.3591    0.0725 H   0  0  0  0  0  0  0  0  0  0  0  0
   -0.5350    1.6177    1.4821 H   0  0  0  0  0  0  0  0  0  0  0  0
   -0.6653    2.7095    0.0281 H   0  0  0  0  0  0  0  0  0  0  0  0
   -2.1406   -2.2473    0.1076 H   0  0  0  0  0  0  0  0  0  0  0  0
   -2.8857   -0.9835   -1.0449 H   0  0  0  0  0  0  0  0  0  0  0  0
  1  2  1  0
  1  4  1  0
  1  5  1  0
  1 13  1  0
  2  3  1  0
  2  6  1  0
  2  7  1  0
  3  8  1  0
  9 10  1  0
  9 14  1  0
  9 15  1  0
 10 11  1  0
 11 12  2  3
 12 16  1  0
 12 17  1  0
M  RAD  1   9   2
M  END
>  <reaction>  (15) 
rmg_rxn_15702

>  <mol_properties>  (15) 
{"0": {"label": "*3", "atom_type": "Cs"}, "1": {"label": "*4", "atom_type": "Cs"}, "8": {"label": "*1", "atom_type": "Cs"}, "9": {"label": "*0", "atom_type": "O2s"}, "12": {"label": "*2", "atom_type": "H0"}}

>  <type>  (15) 
unop_11

>  <geom_source>  (15) 
Heuristics

$$$$

     RDKit          3D

 17 15  0  0  0  0  0  0  0  0999 V2000
    1.5277   -0.0190    1.0843 C   0  0  0  0  0  3  0  0  0  0  0  0
    1.1545   -1.2493    1.8904 C   0  0  0  0  0  0  0  0  0  0  0  0
   -0.1525   -1.1794    2.4261 O   0  0  0  0  0  0  0  0  0  0  0  0
    2.5577   -0.0893    0.7287 H   0  0  0  0  0  0  0  0  0  0  0  0
    1.4300    0.8810    1.6929 H   0  0  0  0  0  0  0  0  0  0  0  0
    1.2747   -2.1523    1.2782 H   0  0  0  0  0  0  0  0  0  0  0  0
    1.8175   -1.3516    2.7506 H   0  0  0  0  0  0  0  0  0  0  0  0
   -0.7730   -1.0846    1.7018 H   0  0  0  0  0  0  0  0  0  0  0  0
   -0.6146    1.2059    0.1956 C   0  0  0  0  0  0  0  0  0  0  0  0
   -0.6146    1.2638   -1.2173 O   0  0  0  0  0  0  0  0  0  0  0  0
   -0.6146   -0.0100   -1.7330 N   0  0  0  0  0  0  0  0  0  0  0  0
   -0.6146   -0.0100   -2.9966 C   0  0  0  0  0  0  0  0  0  0  0  0
    0.4560    0.5938    0.6397 H   0  0  0  0  0  0  0  0  0  0  0  0
   -1.5067    0.6957    0.5657 H   0  0  0  0  0  0  0  0  0  0  0  0
   -0.6146    2.2408    0.5334 H   0  0  0  0  0  0  0  0  0  0  0  0
   -0.6146   -0.9771   -3.4815 H   0  0  0  0  0  0  0  0  0  0  0  0
   -0.6146    0.9065   -3.5828 H   0  0  0  0  0  0  0  0  0  0  0  0
  1  2  1  0
  1  4  1  0
  1  5  1  0
  2  3  1  0
  2  6  1  0
  2  7  1  0
  3  8  1  0
  9 10  1  0
  9 13  1  0
  9 14  1  0
  9 15  1  0
 10 11  1  0
 11 12  2  3
 12 16  1  0
 12 17  1  0
M  RAD  1   1   2
M  END
>  <reaction>  (16) 
rmg_rxn_15702

>  <mol_properties>  (16) 
{"0": {"label": "*3", "atom_type": "Cs"}, "1": {"label": "*4", "atom_type": "Cs"}, "8": {"label": "*1", "atom_type": "Cs"}, "9": {"label": "*0", "atom_type": "O2s"}, "12": {"label": "*2", "atom_type": "H0"}}

>  <type>  (16) 
unop_12

>  <geom_source>  (16) 
Heuristics

$$$$

     RDKit          3D

 17 15  0  0  0  0  0  0  0  0999 V2000
    0.7236   -0.6642    1.4985 C   0  0  0  0  0  3  0  0  0  0  0  0
    1.8540    0.3206    1.7332 C   0  0  0  0  0  0  0  0  0  0  0  0
    2.8267    0.2951    0.7069 O   0  0  0  0  0  0  0  0  0  0  0  0
    0.0199   -0.6491    2.3334 H   0  0  0  0  0  0  0  0  0  0  0  0
    1.1147   -1.6768    1.3910 H   0  0  0  0  0  0  0  0  0  0  0  0
    1.4515    1.3336    1.8608 H   0  0  0  0  0  0  0  0  0  0  0  0
    2.3897    0.0680    2.6494 H   0  0  0  0  0  0  0  0  0  0  0  0
    2.3980    0.5088   -0.1233 H   0  0  0  0  0  0  0  0  0  0  0  0
   -1.4187    0.5607    0.6098 C   0  0  0  0  0  0  0  0  0  0  0  0
   -1.4187    0.6187   -0.8030 O   0  0  0  0  0  0  0  0  0  0  0  0
   -1.4187   -0.6552   -1.3188 N   0  0  0  0  0  0  0  0  0  0  0  0
   -1.4187   -0.6552   -2.5824 C   0  0  0  0  0  0  0  0  0  0  0  0
   -0.3481   -0.0514    1.0540 H   0  0  0  0  0  0  0  0  0  0  0  0
   -2.3108    0.0505    0.9800 H   0  0  0  0  0  0  0  0  0  0  0  0
   -1.4187    1.5956    0.9476 H   0  0  0  0  0  0  0  0  0  0  0  0
   -1.4187   -1.6223   -3.0672 H   0  0  0  0  0  0  0  0  0  0  0  0
   -1.4187    0.2613   -3.1685 H   0  0  0  0  0  0  0  0  0  0  0  0
  1  2  1  0
  1  4  1  0
  1  5  1  0
  2  3  1  0
  2  6  1  0
  2  7  1  0
  3  8  1  0
  9 10  1  0
  9 13  1  0
  9 14  1  0
  9 15  1  0
 10 11  1  0
 11 12  2  3
 12 16  1  0
 12 17  1  0
M  RAD  1   1   2
M  END
>  <reaction>  (17) 
rmg_rxn_15702

>  <mol_properties>  (17) 
{"0": {"label": "*3", "atom_type": "Cs"}, "1": {"label": "*4", "atom_type": "Cs"}, "8": {"label": "*1", "atom_type": "Cs"}, "9": {"label": "*0", "atom_type": "O2s"}, "12": {"label": "*2", "atom_type": "H0"}}

>  <type>  (17) 
unop_13

>  <geom_source>  (17) 
Heuristics

$$$$

     RDKit          3D

 17 15  0  0  0  0  0  0  0  0999 V2000
    1.9634    0.9449    0.1989 C   0  0  0  0  0  0  0  0  0  0  0  0
    1.8954   -0.5312    0.5128 C   0  0  0  0  0  0  0  0  0  0  0  0
    1.4200   -1.3067   -0.5575 O   0  0  0  0  0  0  0  0  0  0  0  0
    2.5339    1.1522   -0.6996 H   0  0  0  0  0  0  0  0  0  0  0  0
    2.3065    1.5348    1.0405 H   0  0  0  0  0  0  0  0  0  0  0  0
    2.9027   -0.9147    0.7223 H   0  0  0  0  0  0  0  0  0  0  0  0
    1.2818   -0.6941    1.4129 H   0  0  0  0  0  0  0  0  0  0  0  0
    0.4969   -1.0579   -0.7319 H   0  0  0  0  0  0  0  0  0  0  0  0
   -0.5022    1.7049   -0.3983 C   0  0  0  0  0  3  0  0  0  0  0  0
   -1.3824    0.8641    0.2586 O   0  0  0  0  0  0  0  0  0  0  0  0
   -1.3501   -0.4253   -0.2373 N   0  0  0  0  0  0  0  0  0  0  0  0
   -2.1725   -1.2408    0.2694 C   0  0  0  0  0  0  0  0  0  0  0  0
    0.7613    1.3588   -0.0727 H   0  0  0  0  0  0  0  0  0  0  0  0
   -0.6650    2.7094   -0.0276 H   0  0  0  0  0  0  0  0  0  0  0  0
   -0.5352    1.6180   -1.4819 H   0  0  0  0  0  0  0  0  0  0  0  0
   -2.1411   -2.2471   -0.1080 H   0  0  0  0  0  0  0  0  0  0  0  0
   -2.8869   -0.9832    1.0438 H   0  0  0  0  0  0  0  0  0  0  0  0
  1  2  1  0
  1  4  1  0
  1  5  1  0
  1 13  1  0
  2  3  1  0
  2  6  1  0
  2  7  1  0
  3  8  1  0
  9 10  1  0
  9 14  1  0
  9 15  1  0
 10 11  1  0
 11 12  2  3
 12 16  1  0
 12 17  1  0
M  RAD  1   9   2
M  END
>  <reaction>  (18) 
rmg_rxn_15702

>  <mol_properties>  (18) 
{"0": {"label": "*3", "atom_type": "Cs"}, "1": {"label": "*4", "atom_type": "Cs"}, "8": {"label": "*1", "atom_type": "Cs"}, "9": {"label": "*0", "atom_type": "O2s"}, "12": {"label": "*2", "atom_type": "H0"}}

>  <type>  (18) 
unop_14

>  <geom_source>  (18) 
Heuristics

$$$$

     RDKit          3D

 17 15  0  0  0  0  0  0  0  0999 V2000
    1.2318    0.0599    1.7867 C   0  0  0  0  0  3  0  0  0  0  0  0
    1.7156   -0.9785    0.7915 C   0  0  0  0  0  0  0  0  0  0  0  0
    0.6668   -1.7729    0.2728 O   0  0  0  0  0  0  0  0  0  0  0  0
    2.0737    0.6195    2.1995 H   0  0  0  0  0  0  0  0  0  0  0  0
    0.6953   -0.4180    2.6075 H   0  0  0  0  0  0  0  0  0  0  0  0
    2.2718   -0.4926   -0.0204 H   0  0  0  0  0  0  0  0  0  0  0  0
    2.3980   -1.6772    1.2776 H   0  0  0  0  0  0  0  0  0  0  0  0
    0.0366   -1.1971   -0.1630 H   0  0  0  0  0  0  0  0  0  0  0  0
   -0.9104    1.2848    0.8980 C   0  0  0  0  0  0  0  0  0  0  0  0
   -0.9104    1.3428   -0.5149 O   0  0  0  0  0  0  0  0  0  0  0  0
   -0.9104    0.0689   -1.0306 N   0  0  0  0  0  0  0  0  0  0  0  0
   -0.9104    0.0689   -2.2942 C   0  0  0  0  0  0  0  0  0  0  0  0
    0.1602    0.6727    1.3421 H   0  0  0  0  0  0  0  0  0  0  0  0
   -1.8025    0.7746    1.2681 H   0  0  0  0  0  0  0  0  0  0  0  0
   -0.9104    2.3197    1.2358 H   0  0  0  0  0  0  0  0  0  0  0  0
   -0.9104   -0.8982   -2.7790 H   0  0  0  0  0  0  0  0  0  0  0  0
   -0.9104    0.9854   -2.8804 H   0  0  0  0  0  0  0  0  0  0  0  0
  1  2  1  0
  1  4  1  0
  1  5  1  0
  2  3  1  0
  2  6  1  0
  2  7  1  0
  3  8  1  0
  9 10  1  0
  9 13  1  0
  9 14  1  0
  9 15  1  0
 10 11  1  0
 11 12  2  3
 12 16  1  0
 12 17  1  0
M  RAD  1   1   2
M  END
>  <reaction>  (19) 
rmg_rxn_15702

>  <mol_properties>  (19) 
{"0": {"label": "*3", "atom_type": "Cs"}, "1": {"label": "*4", "atom_type": "Cs"}, "8": {"label": "*1", "atom_type": "Cs"}, "9": {"label": "*0", "atom_type": "O2s"}, "12": {"label": "*2", "atom_type": "H0"}}

>  <type>  (19) 
unop_15

>  <geom_source>  (19) 
Heuristics

$$$$

     RDKit          3D

 17 15  0  0  0  0  0  0  0  0999 V2000
    0.7497   -0.5072    1.7245 C   0  0  0  0  0  3  0  0  0  0  0  0
    2.0098    0.2160    1.2862 C   0  0  0  0  0  0  0  0  0  0  0  0
    2.5646   -0.3171    0.0996 O   0  0  0  0  0  0  0  0  0  0  0  0
    0.3793   -0.0990    2.6671 H   0  0  0  0  0  0  0  0  0  0  0  0
    0.9471   -1.5715    1.8595 H   0  0  0  0  0  0  0  0  0  0  0  0
    1.8087    1.2889    1.1723 H   0  0  0  0  0  0  0  0  0  0  0  0
    2.7872    0.1117    2.0444 H   0  0  0  0  0  0  0  0  0  0  0  0
    1.9111   -0.2498   -0.5982 H   0  0  0  0  0  0  0  0  0  0  0  0
   -1.3925    0.7177    0.8358 C   0  0  0  0  0  0  0  0  0  0  0  0
   -1.3925    0.7756   -0.5771 O   0  0  0  0  0  0  0  0  0  0  0  0
   -1.3925   -0.4982   -1.0928 N   0  0  0  0  0  0  0  0  0  0  0  0
   -1.3925   -0.4982   -2.3564 C   0  0  0  0  0  0  0  0  0  0  0  0
   -0.3219    0.1056    1.2799 H   0  0  0  0  0  0  0  0  0  0  0  0
   -2.2846    0.2075    1.2059 H   0  0  0  0  0  0  0  0  0  0  0  0
   -1.3925    1.7526    1.1736 H   0  0  0  0  0  0  0  0  0  0  0  0
   -1.3925   -1.4653   -2.8413 H   0  0  0  0  0  0  0  0  0  0  0  0
   -1.3925    0.4182   -2.9426 H   0  0  0  0  0  0  0  0  0  0  0  0
  1  2  1  0
  1  4  1  0
  1  5  1  0
  2  3  1  0
  2  6  1  0
  2  7  1  0
  3  8  1  0
  9 10  1  0
  9 13  1  0
  9 14  1  0
  9 15  1  0
 10 11  1  0
 11 12  2  3
 12 16  1  0
 12 17  1  0
M  RAD  1   1   2
M  END
>  <reaction>  (20) 
rmg_rxn_15702

>  <mol_properties>  (20) 
{"0": {"label": "*3", "atom_type": "Cs"}, "1": {"label": "*4", "atom_type": "Cs"}, "8": {"label": "*1", "atom_type": "Cs"}, "9": {"label": "*0", "atom_type": "O2s"}, "12": {"label": "*2", "atom_type": "H0"}}

>  <type>  (20) 
unop_16

>  <geom_source>  (20) 
Heuristics

$$$$

     RDKit          3D

 17 15  0  0  0  0  0  0  0  0999 V2000
    1.4407   -0.2733    0.8907 C   0  0  0  0  0  3  0  0  0  0  0  0
    1.1567   -0.9803    2.2031 C   0  0  0  0  0  0  0  0  0  0  0  0
    0.2332   -0.2816    3.0149 O   0  0  0  0  0  0  0  0  0  0  0  0
    2.1921   -0.8174    0.3147 H   0  0  0  0  0  0  0  0  0  0  0  0
    1.8065    0.7381    1.0727 H   0  0  0  0  0  0  0  0  0  0  0  0
    0.8088   -2.0037    2.0127 H   0  0  0  0  0  0  0  0  0  0  0  0
    2.0692   -1.0545    2.7963 H   0  0  0  0  0  0  0  0  0  0  0  0
   -0.5882   -0.1888    2.5298 H   0  0  0  0  0  0  0  0  0  0  0  0
   -0.7015    0.9517    0.0021 C   0  0  0  0  0  0  0  0  0  0  0  0
   -0.7015    1.0096   -1.4108 O   0  0  0  0  0  0  0  0  0  0  0  0
   -0.7015   -0.2643   -1.9266 N   0  0  0  0  0  0  0  0  0  0  0  0
   -0.7015   -0.2643   -3.1902 C   0  0  0  0  0  0  0  0  0  0  0  0
    0.3691    0.3395    0.4462 H   0  0  0  0  0  0  0  0  0  0  0  0
   -1.5936    0.4415    0.3722 H   0  0  0  0  0  0  0  0  0  0  0  0
   -0.7015    1.9866    0.3399 H   0  0  0  0  0  0  0  0  0  0  0  0
   -0.7015   -1.2314   -3.6750 H   0  0  0  0  0  0  0  0  0  0  0  0
   -0.7015    0.6522   -3.7763 H   0  0  0  0  0  0  0  0  0  0  0  0
  1  2  1  0
  1  4  1  0
  1  5  1  0
  2  3  1  0
  2  6  1  0
  2  7  1  0
  3  8  1  0
  9 10  1  0
  9 13  1  0
  9 14  1  0
  9 15  1  0
 10 11  1  0
 11 12  2  3
 12 16  1  0
 12 17  1  0
M  RAD  1   1   2
M  END
>  <reaction>  (21) 
rmg_rxn_15702

>  <mol_properties>  (21) 
{"0": {"label": "*3", "atom_type": "Cs"}, "1": {"label": "*4", "atom_type": "Cs"}, "8": {"label": "*1", "atom_type": "Cs"}, "9": {"label": "*0", "atom_type": "O2s"}, "12": {"label": "*2", "atom_type": "H0"}}

>  <type>  (21) 
unop_17

>  <geom_source>  (21) 
Heuristics

$$$$

     RDKit          3D

 17 15  0  0  0  0  0  0  0  0999 V2000
    1.0451   -0.0931    1.8828 C   0  0  0  0  0  3  0  0  0  0  0  0
    1.9319   -0.5380    0.7345 C   0  0  0  0  0  0  0  0  0  0  0  0
    1.3066   -1.4879   -0.1062 O   0  0  0  0  0  0  0  0  0  0  0  0
    1.5786    0.6017    2.5347 H   0  0  0  0  0  0  0  0  0  0  0  0
    0.7271   -0.9521    2.4753 H   0  0  0  0  0  0  0  0  0  0  0  0
    2.2644    0.3329    0.1553 H   0  0  0  0  0  0  0  0  0  0  0  0
    2.8260   -1.0314    1.1181 H   0  0  0  0  0  0  0  0  0  0  0  0
    0.5086   -1.0971   -0.4654 H   0  0  0  0  0  0  0  0  0  0  0  0
   -1.0971    1.1318    0.9942 C   0  0  0  0  0  0  0  0  0  0  0  0
   -1.0971    1.1897   -0.4187 O   0  0  0  0  0  0  0  0  0  0  0  0
   -1.0971   -0.0842   -0.9345 N   0  0  0  0  0  0  0  0  0  0  0  0
   -1.0971   -0.0842   -2.1981 C   0  0  0  0  0  0  0  0  0  0  0  0
   -0.0265    0.5196    1.4383 H   0  0  0  0  0  0  0  0  0  0  0  0
   -1.9892    0.6216    1.3643 H   0  0  0  0  0  0  0  0  0  0  0  0
   -1.0971    2.1667    1.3320 H   0  0  0  0  0  0  0  0  0  0  0  0
   -1.0971   -1.0512   -2.6829 H   0  0  0  0  0  0  0  0  0  0  0  0
   -1.0971    0.8323   -2.7842 H   0  0  0  0  0  0  0  0  0  0  0  0
  1  2  1  0
  1  4  1  0
  1  5  1  0
  2  3  1  0
  2  6  1  0
  2  7  1  0
  3  8  1  0
  9 10  1  0
  9 13  1  0
  9 14  1  0
  9 15  1  0
 10 11  1  0
 11 12  2  3
 12 16  1  0
 12 17  1  0
M  RAD  1   1   2
M  END
>  <reaction>  (22) 
rmg_rxn_15702

>  <mol_properties>  (22) 
{"0": {"label": "*3", "atom_type": "Cs"}, "1": {"label": "*4", "atom_type": "Cs"}, "8": {"label": "*1", "atom_type": "Cs"}, "9": {"label": "*0", "atom_type": "O2s"}, "12": {"label": "*2", "atom_type": "H0"}}

>  <type>  (22) 
unop_18

>  <geom_source>  (22) 
Heuristics

$$$$

     RDKit          3D

 17 15  0  0  0  0  0  0  0  0999 V2000
   -2.1786    0.0355    1.7369 O   0  0  0  0  0  0  0  0  0  0  0  0
    1.7380   -0.0757   -1.4120 O   0  0  0  0  0  0  0  0  0  0  0  0
    3.1080   -0.1077   -1.2031 N   0  0  0  0  0  0  0  0  0  0  0  0
   -2.3955   -0.4002    0.4230 C   0  0  0  0  0  0  0  0  0  0  0  0
   -1.7003    0.5292   -0.5628 C   0  0  0  0  0  0  0  0  0  0  0  0
    0.7773   -0.1421   -0.3617 C   0  0  0  0  0  3  0  0  0  0  0  0
    3.6751   -0.2010   -0.0396 C   0  0  0  0  0  0  0  0  0  0  0  0
   -1.9765   -1.4223    0.3122 H   0  0  0  0  0  0  0  0  0  0  0  0
   -3.4856   -0.4463    0.2000 H   0  0  0  0  0  0  0  0  0  0  0  0
   -2.1229    1.5533   -0.4856 H   0  0  0  0  0  0  0  0  0  0  0  0
   -1.8479    0.1559   -1.5981 H   0  0  0  0  0  0  0  0  0  0  0  0
   -0.4317    0.5703   -0.3060 H   0  0  0  0  0  0  0  0  0  0  0  0
    4.7542   -0.2189    0.0267 H   0  0  0  0  0  0  0  0  0  0  0  0
    3.0987   -0.2618    0.8731 H   0  0  0  0  0  0  0  0  0  0  0  0
    0.8958    0.7220    0.3252 H   0  0  0  0  0  0  0  0  0  0  0  0
    0.8739   -1.1008    0.1898 H   0  0  0  0  0  0  0  0  0  0  0  0
   -2.7819    0.8107    1.8822 H   0  0  0  0  0  0  0  0  0  0  0  0
  1  4  1  0
  1 17  1  0
  2  6  1  0
  2  3  1  0
  3  7  2  3
  4  5  1  0
  4  8  1  0
  4  9  1  0
  5 10  1  0
  5 11  1  0
  5 12  1  0
  6 15  1  0
  6 16  1  0
  7 13  1  0
  7 14  1  0
M  RAD  1   6   2
M  END
>  <reaction>  (23) 
rmg_rxn_15702

>  <mol_properties>  (23) 
{"0": {"label": "*3", "atom_type": "Cs"}, "1": {"label": "*4", "atom_type": "Cs"}, "8": {"label": "*1", "atom_type": "Cs"}, "9": {"label": "*0", "atom_type": "O2s"}, "12": {"label": "*2", "atom_type": "H0"}}

>  <type>  (23) 
unop_19

>  <geom_source>  (23) 
AutoTST

$$$$

     RDKit          3D

 17 15  0  0  0  0  0  0  0  0999 V2000
    0.8674   -0.2968    1.8633 C   0  0  0  0  0  3  0  0  0  0  0  0
    2.0383   -0.0969    0.9189 C   0  0  0  0  0  0  0  0  0  0  0  0
    2.0080   -0.9771   -0.1876 O   0  0  0  0  0  0  0  0  0  0  0  0
    0.9516    0.3661    2.7270 H   0  0  0  0  0  0  0  0  0  0  0  0
    0.8337   -1.3279    2.2177 H   0  0  0  0  0  0  0  0  0  0  0  0
    2.0778    0.9472    0.5827 H   0  0  0  0  0  0  0  0  0  0  0  0
    2.9772   -0.3065    1.4331 H   0  0  0  0  0  0  0  0  0  0  0  0
    1.1930   -0.8305   -0.6703 H   0  0  0  0  0  0  0  0  0  0  0  0
   -1.2748    0.9282    0.9747 C   0  0  0  0  0  0  0  0  0  0  0  0
   -1.2748    0.9861   -0.4382 O   0  0  0  0  0  0  0  0  0  0  0  0
   -1.2748   -0.2878   -0.9540 N   0  0  0  0  0  0  0  0  0  0  0  0
   -1.2748   -0.2878   -2.2176 C   0  0  0  0  0  0  0  0  0  0  0  0
   -0.2042    0.3160    1.4188 H   0  0  0  0  0  0  0  0  0  0  0  0
   -2.1669    0.4180    1.3448 H   0  0  0  0  0  0  0  0  0  0  0  0
   -1.2748    1.9631    1.3124 H   0  0  0  0  0  0  0  0  0  0  0  0
   -1.2748   -1.2549   -2.7024 H   0  0  0  0  0  0  0  0  0  0  0  0
   -1.2748    0.6287   -2.8037 H   0  0  0  0  0  0  0  0  0  0  0  0
  1  2  1  0
  1  4  1  0
  1  5  1  0
  2  3  1  0
  2  6  1  0
  2  7  1  0
  3  8  1  0
  9 10  1  0
  9 13  1  0
  9 14  1  0
  9 15  1  0
 10 11  1  0
 11 12  2  3
 12 16  1  0
 12 17  1  0
M  RAD  1   1   2
M  END
>  <reaction>  (24) 
rmg_rxn_15702

>  <mol_properties>  (24) 
{"0": {"label": "*3", "atom_type": "Cs"}, "1": {"label": "*4", "atom_type": "Cs"}, "8": {"label": "*1", "atom_type": "Cs"}, "9": {"label": "*0", "atom_type": "O2s"}, "12": {"label": "*2", "atom_type": "H0"}}

>  <type>  (24) 
unop_20

>  <geom_source>  (24) 
gaussian_log

$$$$
