
     RDKit          3D

 21 21  0  0  0  0  0  0  0  0999 V2000
    3.6784    0.0079   -0.5979 C   0  0  0  0  0  0  0  0  0  0  0  0
    2.4753    0.0210    0.2878 C   0  0  0  0  0  0  0  0  0  0  0  0
    1.2116   -0.0071   -0.1659 C   0  0  0  0  0  0  0  0  0  0  0  0
   -0.0159    0.0070    0.7205 C   0  0  1  0  0  0  0  0  0  0  0  0
   -0.8042    1.2711    0.4638 C   0  0  0  0  0  0  0  0  0  0  0  0
   -1.9876    1.2745   -0.1672 C   0  0  0  0  0  0  0  0  0  0  0  0
   -2.5805    0.0557   -0.6569 C   0  0  0  0  0  0  0  0  0  0  0  0
   -2.0719   -1.1425   -0.3384 C   0  0  0  0  0  0  0  0  0  0  0  0
   -0.8487   -1.2916    0.5284 C   0  0  0  0  0  0  0  0  0  0  0  0
    3.4116   -0.0282   -1.6588 H   0  0  0  0  0  0  0  0  0  0  0  0
    4.2765    0.9081   -0.4267 H   0  0  0  0  0  0  0  0  0  0  0  0
    4.2978   -0.8653   -0.3717 H   0  0  0  0  0  0  0  0  0  0  0  0
    2.6666    0.0582    1.3579 H   0  0  0  0  0  0  0  0  0  0  0  0
    1.0252   -0.0423   -1.2386 H   0  0  0  0  0  0  0  0  0  0  0  0
    0.3057    0.0287    1.7709 H   0  0  0  0  0  0  0  0  0  0  0  0
   -0.3713    2.2085    0.8020 H   0  0  0  0  0  0  0  0  0  0  0  0
   -2.5206    2.2043   -0.3430 H   0  0  0  0  0  0  0  0  0  0  0  0
   -3.4694    0.1368   -1.2756 H   0  0  0  0  0  0  0  0  0  0  0  0
   -2.5521   -2.0487   -0.6952 H   0  0  0  0  0  0  0  0  0  0  0  0
   -0.2213   -2.0946    0.1212 H   0  0  0  0  0  0  0  0  0  0  0  0
   -1.1884   -1.6420    1.5122 H   0  0  0  0  0  0  0  0  0  0  0  0
  1  2  1  0
  1 10  1  0
  1 11  1  0
  1 12  1  0
  2  3  2  3
  2 13  1  0
  3  4  1  0
  3 14  1  0
  4  5  1  0
  4  9  1  0
  4 15  1  1
  5  6  2  0
  5 16  1  0
  6  7  1  0
  6 17  1  0
  7  8  2  0
  7 18  1  0
  8  9  1  0
  8 19  1  0
  9 20  1  0
  9 21  1  0
M  END
>  <reaction>  (1) 
rmg_rxn_16799

>  <mol_properties>  (1) 
{"8": {"label": "donator", "atom_type": "Cs"}, "19": {"label": "d_hydrogen", "atom_type": "H0"}}

>  <type>  (1) 
r1h

$$$$

     RDKit          3D

  7  6  0  0  0  0  0  0  0  0999 V2000
    1.1443   -0.1870   -0.0026 C   0  0  0  0  0  0  0  0  0  0  0  0
   -0.1897    0.4747   -0.0008 C   0  0  0  0  0  0  0  0  0  0  0  0
   -1.4128   -0.3182   -0.0012 N   0  0  0  0  0  2  0  0  0  0  0  0
    1.7295    0.1072   -0.8768 H   0  0  0  0  0  0  0  0  0  0  0  0
    1.0018   -1.2707   -0.0040 H   0  0  0  0  0  0  0  0  0  0  0  0
    1.6793    0.0928    0.9085 H   0  0  0  0  0  0  0  0  0  0  0  0
   -0.2483    1.5721    0.0008 H   0  0  0  0  0  0  0  0  0  0  0  0
  1  2  1  0
  1  4  1  0
  1  5  1  0
  1  6  1  0
  2  3  2  0
  2  7  1  0
M  RAD  1   3   2
M  END
>  <reaction>  (2) 
rmg_rxn_16799

>  <mol_properties>  (2) 
{"2": {"label": "acceptor", "atom_type": "N3d"}}

>  <type>  (2) 
r2

$$$$

     RDKit          3D

  8  7  0  0  0  0  0  0  0  0999 V2000
    1.2099   -0.1388    0.0025 C   0  0  0  0  0  0  0  0  0  0  0  0
   -0.1788    0.4141    0.0007 C   0  0  0  0  0  0  0  0  0  0  0  0
   -1.2100   -0.3603    0.0013 N   0  0  0  0  0  0  0  0  0  0  0  0
    1.7355    0.2223   -0.8851 H   0  0  0  0  0  0  0  0  0  0  0  0
    1.7521    0.1663    0.9007 H   0  0  0  0  0  0  0  0  0  0  0  0
    1.1564   -1.2296   -0.0424 H   0  0  0  0  0  0  0  0  0  0  0  0
   -0.2911    1.5112   -0.0010 H   0  0  0  0  0  0  0  0  0  0  0  0
   -2.0699    0.2005   -0.0002 H   0  0  0  0  0  0  0  0  0  0  0  0
  1  2  1  0
  1  4  1  0
  1  5  1  0
  1  6  1  0
  2  3  2  3
  2  7  1  0
  3  8  1  0
M  END
>  <reaction>  (3) 
rmg_rxn_16799

>  <mol_properties>  (3) 
{"2": {"label": "acceptor", "atom_type": "N3d"}, "7": {"label": "a_hydrogen", "atom_type": "H0"}}

>  <type>  (3) 
r2h

$$$$

     RDKit          3D

 28 27  0  0  0  0  0  0  0  0999 V2000
    3.2555   -1.7009   -0.6629 C   0  0  0  0  0  0  0  0  0  0  0  0
    2.0172   -1.1302   -0.0506 C   0  0  0  0  0  0  0  0  0  0  0  0
    1.2945   -1.8170    0.7674 N   0  0  0  0  0  0  0  0  0  0  0  0
    3.1502   -1.6886   -1.7507 H   0  0  0  0  0  0  0  0  0  0  0  0
    3.3675   -2.7372   -0.3341 H   0  0  0  0  0  0  0  0  0  0  0  0
    4.1376   -1.1253   -0.3722 H   0  0  0  0  0  0  0  0  0  0  0  0
    1.7421   -0.0977   -0.3237 H   0  0  0  0  0  0  0  0  0  0  0  0
    2.4602    2.2855   -0.3654 C   0  0  0  0  0  0  0  0  0  0  0  0
    1.2329    1.9172    0.4029 C   0  0  0  0  0  0  0  0  0  0  0  0
    0.2666    1.1136   -0.0705 C   0  0  0  0  0  0  0  0  0  0  0  0
   -0.9822    0.7337    0.6968 C   0  0  1  0  0  0  0  0  0  0  0  0
   -2.1961    1.2767   -0.0222 C   0  0  0  0  0  3  0  0  0  0  0  0
   -3.0699    0.4912   -0.6688 C   0  0  0  0  0  0  0  0  0  0  0  0
   -2.8931   -0.9378   -0.7283 C   0  0  0  0  0  0  0  0  0  0  0  0
   -1.9626   -1.5554    0.0124 C   0  0  0  0  0  0  0  0  0  0  0  0
   -1.0377   -0.8019    0.9325 C   0  0  0  0  0  0  0  0  0  0  0  0
    2.4818    1.8245   -1.3579 H   0  0  0  0  0  0  0  0  0  0  0  0
    2.5081    3.3713   -0.4922 H   0  0  0  0  0  0  0  0  0  0  0  0
    3.3519    1.9628    0.1804 H   0  0  0  0  0  0  0  0  0  0  0  0
    1.1444    2.3425    1.4001 H   0  0  0  0  0  0  0  0  0  0  0  0
    0.3589    0.6918   -1.0707 H   0  0  0  0  0  0  0  0  0  0  0  0
   -0.9478    1.2086    1.6870 H   0  0  0  0  0  0  0  0  0  0  0  0
   -2.3433    2.3531   -0.0133 H   0  0  0  0  0  0  0  0  0  0  0  0
   -3.9257    0.9184   -1.1832 H   0  0  0  0  0  0  0  0  0  0  0  0
   -3.5549   -1.5043   -1.3769 H   0  0  0  0  0  0  0  0  0  0  0  0
   -1.8665   -2.6362   -0.0269 H   0  0  0  0  0  0  0  0  0  0  0  0
    0.1673   -1.3264    0.8472 H   0  0  0  0  0  0  0  0  0  0  0  0
   -1.3777   -0.9895    1.9597 H   0  0  0  0  0  0  0  0  0  0  0  0
  1  2  1  0
  1  4  1  0
  1  5  1  0
  1  6  1  0
  2  3  2  3
  2  7  1  0
  3 27  1  0
  8  9  1  0
  8 17  1  0
  8 18  1  0
  8 19  1  0
  9 10  2  3
  9 20  1  0
 10 11  1  0
 10 21  1  0
 11 12  1  0
 11 16  1  0
 11 22  1  1
 12 13  1  0
 12 23  1  0
 13 14  2  0
 13 24  1  0
 14 15  1  0
 14 25  1  0
 15 16  2  0
 15 26  1  0
 16 28  1  0
M  RAD  1  12   2
M  END
>  <reaction>  (4) 
rmg_rxn_16799

>  <mol_properties>  (4) 
{"1": {"label": "*0", "atom_type": "Cd"}, "2": {"label": "*1", "atom_type": "N3d"}, "10": {"label": "*4", "atom_type": "Cs"}, "15": {"label": "*3", "atom_type": "Cd"}, "26": {"label": "*2", "atom_type": "H0"}}

>  <type>  (4) 
ts

$$$$

     RDKit          3D

 28 27  0  0  0  0  0  0  0  0999 V2000
   -3.0495   -2.5693   -0.5706 C   0  0  0  0  0  0  0  0  0  0  0  0
   -2.2188   -1.4672    0.0007 C   0  0  0  0  0  0  0  0  0  0  0  0
   -1.0378   -1.6261    0.3554 N   0  0  0  0  0  0  0  0  0  0  0  0
   -3.3781   -2.2930   -1.5715 H   0  0  0  0  0  0  0  0  0  0  0  0
   -3.9343   -2.7165    0.0469 H   0  0  0  0  0  0  0  0  0  0  0  0
   -2.4757   -3.4906   -0.6146 H   0  0  0  0  0  0  0  0  0  0  0  0
   -2.7414   -0.4975    0.0812 H   0  0  0  0  0  0  0  0  0  0  0  0
    4.0012   -1.4898   -0.1775 C   0  0  0  0  0  0  0  0  0  0  0  0
    3.1394   -0.3050    0.1061 C   0  0  0  0  0  0  0  0  0  0  0  0
    1.8291   -0.2755   -0.0649 C   0  0  0  0  0  0  0  0  0  0  0  0
    0.9610    0.9239    0.2107 C   0  0  0  0  0  0  0  0  0  0  0  0
    0.3961    1.4840   -1.0634 C   0  0  0  0  0  3  0  0  0  0  0  0
   -0.8308    2.0336   -1.1221 C   0  0  0  0  0  0  0  0  0  0  0  0
   -1.6875    2.0540    0.0117 C   0  0  0  0  0  0  0  0  0  0  0  0
   -1.3236    1.3737    1.1510 C   0  0  0  0  0  0  0  0  0  0  0  0
   -0.1423    0.6107    1.2014 C   0  0  0  0  0  0  0  0  0  0  0  0
    4.5325   -1.7937    0.7242 H   0  0  0  0  0  0  0  0  0  0  0  0
    3.4049   -2.3259   -0.5332 H   0  0  0  0  0  0  0  0  0  0  0  0
    4.7483   -1.2418   -0.9316 H   0  0  0  0  0  0  0  0  0  0  0  0
    3.6612    0.5703    0.4761 H   0  0  0  0  0  0  0  0  0  0  0  0
    1.3028   -1.1454   -0.4324 H   0  0  0  0  0  0  0  0  0  0  0  0
    1.6117    1.7016    0.6559 H   0  0  0  0  0  0  0  0  0  0  0  0
    1.0504    1.4781   -1.9223 H   0  0  0  0  0  0  0  0  0  0  0  0
   -1.1867    2.4723   -2.0438 H   0  0  0  0  0  0  0  0  0  0  0  0
   -2.6236    2.5879   -0.0377 H   0  0  0  0  0  0  0  0  0  0  0  0
   -1.9990    1.3392    1.9958 H   0  0  0  0  0  0  0  0  0  0  0  0
   -0.5614   -0.6196    0.7695 H   0  0  0  0  0  0  0  0  0  0  0  0
    0.2100    0.2918    2.1775 H   0  0  0  0  0  0  0  0  0  0  0  0
  1  2  1  0
  1  4  1  0
  1  5  1  0
  1  6  1  0
  2  3  2  3
  2  7  1  0
  3 27  1  0
  8  9  1  0
  8 17  1  0
  8 18  1  0
  8 19  1  0
  9 10  2  3
  9 20  1  0
 10 11  1  0
 10 21  1  0
 11 12  1  0
 11 16  1  0
 11 22  1  0
 12 13  1  0
 12 23  1  0
 13 14  2  0
 13 24  1  0
 14 15  1  0
 14 25  1  0
 15 16  2  0
 15 26  1  0
 16 28  1  0
M  RAD  1  12   2
M  END
>  <reaction>  (5) 
rmg_rxn_16799

>  <mol_properties>  (5) 
{"1": {"label": "*0", "atom_type": "Cd"}, "2": {"label": "*1", "atom_type": "N3d"}, "10": {"label": "*4", "atom_type": "Cs"}, "15": {"label": "*3", "atom_type": "Cd"}, "26": {"label": "*2", "atom_type": "H0"}}

>  <type>  (5) 
unop_1

>  <geom_source>  (5) 
crest_best.xyz

$$$$

     RDKit          3D

 28 27  0  0  0  0  0  0  0  0999 V2000
   -4.4435   -0.0448   -0.4361 C   0  0  0  0  0  0  0  0  0  0  0  0
   -3.0512   -0.5331   -0.1971 C   0  0  0  0  0  0  0  0  0  0  0  0
   -2.0279    0.1048   -0.6545 N   0  0  0  0  0  0  0  0  0  0  0  0
   -5.0030   -0.8180   -0.9687 H   0  0  0  0  0  0  0  0  0  0  0  0
   -4.4019    0.8504   -1.0618 H   0  0  0  0  0  0  0  0  0  0  0  0
   -4.9443    0.1883    0.5066 H   0  0  0  0  0  0  0  0  0  0  0  0
   -2.9290   -1.4612    0.3860 H   0  0  0  0  0  0  0  0  0  0  0  0
    1.1056   -1.6681   -3.2060 C   0  0  0  0  0  0  0  0  0  0  0  0
    1.1056   -1.6681   -1.7120 C   0  0  0  0  0  0  0  0  0  0  0  0
    1.1056   -0.5530   -0.9636 C   0  0  0  0  0  0  0  0  0  0  0  0
    1.1070   -0.5392    0.5505 C   0  0  0  0  0  0  0  0  0  0  0  0
    2.3872    0.0955    1.0441 C   0  0  0  0  0  3  0  0  0  0  0  0
    2.4231    1.3047    1.6230 C   0  0  0  0  0  0  0  0  0  0  0  0
    1.2265    2.0881    1.7996 C   0  0  0  0  0  0  0  0  0  0  0  0
    0.0134    1.5675    1.5683 C   0  0  0  0  0  0  0  0  0  0  0  0
   -0.1757    0.1494    1.0959 C   0  0  0  0  0  0  0  0  0  0  0  0
    1.1046   -0.6550   -3.6205 H   0  0  0  0  0  0  0  0  0  0  0  0
    1.9933   -2.1883   -3.5784 H   0  0  0  0  0  0  0  0  0  0  0  0
    0.2189   -2.1901   -3.5783 H   0  0  0  0  0  0  0  0  0  0  0  0
    1.1083   -2.6438   -1.2314 H   0  0  0  0  0  0  0  0  0  0  0  0
    1.1050    0.4219   -1.4497 H   0  0  0  0  0  0  0  0  0  0  0  0
    1.0933   -1.5758    0.9144 H   0  0  0  0  0  0  0  0  0  0  0  0
    3.3089   -0.4624    0.9042 H   0  0  0  0  0  0  0  0  0  0  0  0
    3.3637    1.7333    1.9561 H   0  0  0  0  0  0  0  0  0  0  0  0
    1.3363    3.1104    2.1493 H   0  0  0  0  0  0  0  0  0  0  0  0
   -0.8760    2.1674    1.7357 H   0  0  0  0  0  0  0  0  0  0  0  0
   -1.1326    0.1264    0.1916 H   0  0  0  0  0  0  0  0  0  0  0  0
   -0.5517   -0.4300    1.9497 H   0  0  0  0  0  0  0  0  0  0  0  0
  1  2  1  0
  1  4  1  0
  1  5  1  0
  1  6  1  0
  2  3  2  3
  2  7  1  0
  3 27  1  0
  8  9  1  0
  8 17  1  0
  8 18  1  0
  8 19  1  0
  9 10  2  3
  9 20  1  0
 10 11  1  0
 10 21  1  0
 11 12  1  0
 11 16  1  0
 11 22  1  0
 12 13  1  0
 12 23  1  0
 13 14  2  0
 13 24  1  0
 14 15  1  0
 14 25  1  0
 15 16  2  0
 15 26  1  0
 16 28  1  0
M  RAD  1  12   2
M  END
>  <reaction>  (6) 
rmg_rxn_16799

>  <mol_properties>  (6) 
{"1": {"label": "*0", "atom_type": "Cd"}, "2": {"label": "*1", "atom_type": "N3d"}, "10": {"label": "*4", "atom_type": "Cs"}, "15": {"label": "*3", "atom_type": "Cd"}, "26": {"label": "*2", "atom_type": "H0"}}

>  <type>  (6) 
unop_2

>  <geom_source>  (6) 
Heuristics

$$$$

     RDKit          3D

 28 27  0  0  0  0  0  0  0  0999 V2000
   -3.2710   -1.2861   -1.9527 C   0  0  0  0  0  0  0  0  0  0  0  0
   -2.1304   -0.7732   -1.1341 C   0  0  0  0  0  0  0  0  0  0  0  0
   -2.2562    0.2696   -0.3858 N   0  0  0  0  0  0  0  0  0  0  0  0
   -2.9797   -1.2835   -3.0061 H   0  0  0  0  0  0  0  0  0  0  0  0
   -4.1266   -0.6182   -1.8248 H   0  0  0  0  0  0  0  0  0  0  0  0
   -3.5465   -2.2991   -1.6497 H   0  0  0  0  0  0  0  0  0  0  0  0
   -1.1741   -1.3194   -1.1926 H   0  0  0  0  0  0  0  0  0  0  0  0
    0.8773   -1.5034   -2.9374 C   0  0  0  0  0  0  0  0  0  0  0  0
    0.8773   -1.5034   -1.4434 C   0  0  0  0  0  0  0  0  0  0  0  0
    0.8773   -0.3883   -0.6949 C   0  0  0  0  0  0  0  0  0  0  0  0
    0.8787   -0.3744    0.8192 C   0  0  0  0  0  0  0  0  0  0  0  0
    2.1589    0.2603    1.3128 C   0  0  0  0  0  3  0  0  0  0  0  0
    2.1948    1.4694    1.8917 C   0  0  0  0  0  0  0  0  0  0  0  0
    0.9982    2.2528    2.0682 C   0  0  0  0  0  0  0  0  0  0  0  0
   -0.2149    1.7322    1.8370 C   0  0  0  0  0  0  0  0  0  0  0  0
   -0.4040    0.3142    1.3646 C   0  0  0  0  0  0  0  0  0  0  0  0
    0.8763   -0.4903   -3.3518 H   0  0  0  0  0  0  0  0  0  0  0  0
    1.7651   -2.0236   -3.3097 H   0  0  0  0  0  0  0  0  0  0  0  0
   -0.0094   -2.0254   -3.3096 H   0  0  0  0  0  0  0  0  0  0  0  0
    0.8800   -2.4791   -0.9627 H   0  0  0  0  0  0  0  0  0  0  0  0
    0.8767    0.5866   -1.1810 H   0  0  0  0  0  0  0  0  0  0  0  0
    0.8650   -1.4110    1.1830 H   0  0  0  0  0  0  0  0  0  0  0  0
    3.0806   -0.2977    1.1729 H   0  0  0  0  0  0  0  0  0  0  0  0
    3.1354    1.8980    2.2248 H   0  0  0  0  0  0  0  0  0  0  0  0
    1.1080    3.2752    2.4180 H   0  0  0  0  0  0  0  0  0  0  0  0
   -1.1043    2.3322    2.0044 H   0  0  0  0  0  0  0  0  0  0  0  0
   -1.3609    0.2911    0.4602 H   0  0  0  0  0  0  0  0  0  0  0  0
   -0.7800   -0.2652    2.2183 H   0  0  0  0  0  0  0  0  0  0  0  0
  1  2  1  0
  1  4  1  0
  1  5  1  0
  1  6  1  0
  2  3  2  3
  2  7  1  0
  3 27  1  0
  8  9  1  0
  8 17  1  0
  8 18  1  0
  8 19  1  0
  9 10  2  3
  9 20  1  0
 10 11  1  0
 10 21  1  0
 11 12  1  0
 11 16  1  0
 11 22  1  0
 12 13  1  0
 12 23  1  0
 13 14  2  0
 13 24  1  0
 14 15  1  0
 14 25  1  0
 15 16  2  0
 15 26  1  0
 16 28  1  0
M  RAD  1  12   2
M  END
>  <reaction>  (7) 
rmg_rxn_16799

>  <mol_properties>  (7) 
{"1": {"label": "*0", "atom_type": "Cd"}, "2": {"label": "*1", "atom_type": "N3d"}, "10": {"label": "*4", "atom_type": "Cs"}, "15": {"label": "*3", "atom_type": "Cd"}, "26": {"label": "*2", "atom_type": "H0"}}

>  <type>  (7) 
unop_3

>  <geom_source>  (7) 
Heuristics

$$$$

     RDKit          3D

 28 27  0  0  0  0  0  0  0  0999 V2000
   -4.3828    0.5594   -0.6954 C   0  0  0  0  0  0  0  0  0  0  0  0
   -3.1740   -0.0496   -0.0611 C   0  0  0  0  0  0  0  0  0  0  0  0
   -2.0219   -0.0136   -0.6395 N   0  0  0  0  0  0  0  0  0  0  0  0
   -5.1402   -0.2169   -0.8308 H   0  0  0  0  0  0  0  0  0  0  0  0
   -4.1067    0.9536   -1.6766 H   0  0  0  0  0  0  0  0  0  0  0  0
   -4.7870    1.3638   -0.0762 H   0  0  0  0  0  0  0  0  0  0  0  0
   -3.3022   -0.5324    0.9221 H   0  0  0  0  0  0  0  0  0  0  0  0
    1.1116   -1.7865   -3.1911 C   0  0  0  0  0  0  0  0  0  0  0  0
    1.1116   -1.7865   -1.6971 C   0  0  0  0  0  0  0  0  0  0  0  0
    1.1116   -0.6714   -0.9486 C   0  0  0  0  0  0  0  0  0  0  0  0
    1.1130   -0.6576    0.5655 C   0  0  0  0  0  0  0  0  0  0  0  0
    2.3932   -0.0229    1.0591 C   0  0  0  0  0  3  0  0  0  0  0  0
    2.4291    1.1863    1.6380 C   0  0  0  0  0  0  0  0  0  0  0  0
    1.2325    1.9696    1.8145 C   0  0  0  0  0  0  0  0  0  0  0  0
    0.0194    1.4491    1.5833 C   0  0  0  0  0  0  0  0  0  0  0  0
   -0.1697    0.0310    1.1109 C   0  0  0  0  0  0  0  0  0  0  0  0
    1.1105   -0.7735   -3.6055 H   0  0  0  0  0  0  0  0  0  0  0  0
    1.9993   -2.3068   -3.5634 H   0  0  0  0  0  0  0  0  0  0  0  0
    0.2249   -2.3086   -3.5634 H   0  0  0  0  0  0  0  0  0  0  0  0
    1.1143   -2.7623   -1.2164 H   0  0  0  0  0  0  0  0  0  0  0  0
    1.1110    0.3034   -1.4347 H   0  0  0  0  0  0  0  0  0  0  0  0
    1.0993   -1.6942    0.9293 H   0  0  0  0  0  0  0  0  0  0  0  0
    3.3149   -0.5808    0.9191 H   0  0  0  0  0  0  0  0  0  0  0  0
    3.3697    1.6148    1.9711 H   0  0  0  0  0  0  0  0  0  0  0  0
    1.3423    2.9920    2.1643 H   0  0  0  0  0  0  0  0  0  0  0  0
   -0.8700    2.0490    1.7507 H   0  0  0  0  0  0  0  0  0  0  0  0
   -1.1267    0.0080    0.2065 H   0  0  0  0  0  0  0  0  0  0  0  0
   -0.5457   -0.5484    1.9646 H   0  0  0  0  0  0  0  0  0  0  0  0
  1  2  1  0
  1  4  1  0
  1  5  1  0
  1  6  1  0
  2  3  2  3
  2  7  1  0
  3 27  1  0
  8  9  1  0
  8 17  1  0
  8 18  1  0
  8 19  1  0
  9 10  2  3
  9 20  1  0
 10 11  1  0
 10 21  1  0
 11 12  1  0
 11 16  1  0
 11 22  1  0
 12 13  1  0
 12 23  1  0
 13 14  2  0
 13 24  1  0
 14 15  1  0
 14 25  1  0
 15 16  2  0
 15 26  1  0
 16 28  1  0
M  RAD  1  12   2
M  END
>  <reaction>  (8) 
rmg_rxn_16799

>  <mol_properties>  (8) 
{"1": {"label": "*0", "atom_type": "Cd"}, "2": {"label": "*1", "atom_type": "N3d"}, "10": {"label": "*4", "atom_type": "Cs"}, "15": {"label": "*3", "atom_type": "Cd"}, "26": {"label": "*2", "atom_type": "H0"}}

>  <type>  (8) 
unop_4

>  <geom_source>  (8) 
Heuristics

$$$$

     RDKit          3D

 28 27  0  0  0  0  0  0  0  0999 V2000
   -2.9027    1.2401   -2.2361 C   0  0  0  0  0  0  0  0  0  0  0  0
   -1.9353    0.4768   -1.3901 C   0  0  0  0  0  0  0  0  0  0  0  0
   -2.3181   -0.1457   -0.3275 N   0  0  0  0  0  0  0  0  0  0  0  0
   -2.5840    2.2845   -2.2832 H   0  0  0  0  0  0  0  0  0  0  0  0
   -3.8907    1.1965   -1.7706 H   0  0  0  0  0  0  0  0  0  0  0  0
   -2.9530    0.8249   -3.2455 H   0  0  0  0  0  0  0  0  0  0  0  0
   -0.8791    0.4646   -1.7074 H   0  0  0  0  0  0  0  0  0  0  0  0
    0.8155   -1.9186   -2.8791 C   0  0  0  0  0  0  0  0  0  0  0  0
    0.8155   -1.9186   -1.3851 C   0  0  0  0  0  0  0  0  0  0  0  0
    0.8155   -0.8035   -0.6366 C   0  0  0  0  0  0  0  0  0  0  0  0
    0.8169   -0.7897    0.8775 C   0  0  0  0  0  0  0  0  0  0  0  0
    2.0971   -0.1550    1.3711 C   0  0  0  0  0  3  0  0  0  0  0  0
    2.1330    1.0542    1.9500 C   0  0  0  0  0  0  0  0  0  0  0  0
    0.9363    1.8375    2.1265 C   0  0  0  0  0  0  0  0  0  0  0  0
   -0.2767    1.3170    1.8953 C   0  0  0  0  0  0  0  0  0  0  0  0
   -0.4658   -0.1011    1.4229 C   0  0  0  0  0  0  0  0  0  0  0  0
    0.8144   -0.9056   -3.2935 H   0  0  0  0  0  0  0  0  0  0  0  0
    1.7032   -2.4389   -3.2514 H   0  0  0  0  0  0  0  0  0  0  0  0
   -0.0712   -2.4407   -3.2514 H   0  0  0  0  0  0  0  0  0  0  0  0
    0.8182   -2.8944   -0.9044 H   0  0  0  0  0  0  0  0  0  0  0  0
    0.8148    0.1713   -1.1227 H   0  0  0  0  0  0  0  0  0  0  0  0
    0.8032   -1.8263    1.2413 H   0  0  0  0  0  0  0  0  0  0  0  0
    3.0188   -0.7129    1.2312 H   0  0  0  0  0  0  0  0  0  0  0  0
    3.0736    1.4827    2.2831 H   0  0  0  0  0  0  0  0  0  0  0  0
    1.0462    2.8599    2.4763 H   0  0  0  0  0  0  0  0  0  0  0  0
   -1.1661    1.9169    2.0627 H   0  0  0  0  0  0  0  0  0  0  0  0
   -1.4228   -0.1241    0.5185 H   0  0  0  0  0  0  0  0  0  0  0  0
   -0.8418   -0.6805    2.2766 H   0  0  0  0  0  0  0  0  0  0  0  0
  1  2  1  0
  1  4  1  0
  1  5  1  0
  1  6  1  0
  2  3  2  3
  2  7  1  0
  3 27  1  0
  8  9  1  0
  8 17  1  0
  8 18  1  0
  8 19  1  0
  9 10  2  3
  9 20  1  0
 10 11  1  0
 10 21  1  0
 11 12  1  0
 11 16  1  0
 11 22  1  0
 12 13  1  0
 12 23  1  0
 13 14  2  0
 13 24  1  0
 14 15  1  0
 14 25  1  0
 15 16  2  0
 15 26  1  0
 16 28  1  0
M  RAD  1  12   2
M  END
>  <reaction>  (9) 
rmg_rxn_16799

>  <mol_properties>  (9) 
{"1": {"label": "*0", "atom_type": "Cd"}, "2": {"label": "*1", "atom_type": "N3d"}, "10": {"label": "*4", "atom_type": "Cs"}, "15": {"label": "*3", "atom_type": "Cd"}, "26": {"label": "*2", "atom_type": "H0"}}

>  <type>  (9) 
unop_5

>  <geom_source>  (9) 
Heuristics

$$$$

     RDKit          3D

 28 27  0  0  0  0  0  0  0  0999 V2000
   -4.3381    0.6130   -0.9581 C   0  0  0  0  0  0  0  0  0  0  0  0
   -3.0934    0.4969   -0.1387 C   0  0  0  0  0  0  0  0  0  0  0  0
   -2.0353   -0.0766   -0.6020 N   0  0  0  0  0  0  0  0  0  0  0  0
   -5.1557    0.1135   -0.4322 H   0  0  0  0  0  0  0  0  0  0  0  0
   -4.1793    0.1105   -1.9156 H   0  0  0  0  0  0  0  0  0  0  0  0
   -4.5973    1.6603   -1.1309 H   0  0  0  0  0  0  0  0  0  0  0  0
   -3.1115    0.9203    0.8795 H   0  0  0  0  0  0  0  0  0  0  0  0
    1.0982   -1.8495   -3.1536 C   0  0  0  0  0  0  0  0  0  0  0  0
    1.0982   -1.8495   -1.6596 C   0  0  0  0  0  0  0  0  0  0  0  0
    1.0982   -0.7344   -0.9111 C   0  0  0  0  0  0  0  0  0  0  0  0
    1.0996   -0.7206    0.6030 C   0  0  0  0  0  0  0  0  0  0  0  0
    2.3798   -0.0859    1.0966 C   0  0  0  0  0  3  0  0  0  0  0  0
    2.4157    1.1233    1.6755 C   0  0  0  0  0  0  0  0  0  0  0  0
    1.2190    1.9066    1.8520 C   0  0  0  0  0  0  0  0  0  0  0  0
    0.0060    1.3861    1.6208 C   0  0  0  0  0  0  0  0  0  0  0  0
   -0.1831   -0.0320    1.1484 C   0  0  0  0  0  0  0  0  0  0  0  0
    1.0971   -0.8365   -3.5680 H   0  0  0  0  0  0  0  0  0  0  0  0
    1.9859   -2.3698   -3.5259 H   0  0  0  0  0  0  0  0  0  0  0  0
    0.2115   -2.3716   -3.5259 H   0  0  0  0  0  0  0  0  0  0  0  0
    1.1009   -2.8253   -1.1789 H   0  0  0  0  0  0  0  0  0  0  0  0
    1.0975    0.2404   -1.3972 H   0  0  0  0  0  0  0  0  0  0  0  0
    1.0859   -1.7572    0.9668 H   0  0  0  0  0  0  0  0  0  0  0  0
    3.3015   -0.6438    0.9566 H   0  0  0  0  0  0  0  0  0  0  0  0
    3.3563    1.5518    2.0086 H   0  0  0  0  0  0  0  0  0  0  0  0
    1.3289    2.9290    2.2018 H   0  0  0  0  0  0  0  0  0  0  0  0
   -0.8834    1.9860    1.7882 H   0  0  0  0  0  0  0  0  0  0  0  0
   -1.1401   -0.0550    0.2440 H   0  0  0  0  0  0  0  0  0  0  0  0
   -0.5591   -0.6114    2.0021 H   0  0  0  0  0  0  0  0  0  0  0  0
  1  2  1  0
  1  4  1  0
  1  5  1  0
  1  6  1  0
  2  3  2  3
  2  7  1  0
  3 27  1  0
  8  9  1  0
  8 17  1  0
  8 18  1  0
  8 19  1  0
  9 10  2  3
  9 20  1  0
 10 11  1  0
 10 21  1  0
 11 12  1  0
 11 16  1  0
 11 22  1  0
 12 13  1  0
 12 23  1  0
 13 14  2  0
 13 24  1  0
 14 15  1  0
 14 25  1  0
 15 16  2  0
 15 26  1  0
 16 28  1  0
M  RAD  1  12   2
M  END
>  <reaction>  (10) 
rmg_rxn_16799

>  <mol_properties>  (10) 
{"1": {"label": "*0", "atom_type": "Cd"}, "2": {"label": "*1", "atom_type": "N3d"}, "10": {"label": "*4", "atom_type": "Cs"}, "15": {"label": "*3", "atom_type": "Cd"}, "26": {"label": "*2", "atom_type": "H0"}}

>  <type>  (10) 
unop_6

>  <geom_source>  (10) 
Heuristics

$$$$

     RDKit          3D

 28 27  0  0  0  0  0  0  0  0999 V2000
   -3.4041    1.5674   -1.5856 C   0  0  0  0  0  0  0  0  0  0  0  0
   -2.1714    0.8357   -1.1626 C   0  0  0  0  0  0  0  0  0  0  0  0
   -2.2369   -0.2199   -0.4247 N   0  0  0  0  0  0  0  0  0  0  0  0
   -3.3467    2.5967   -1.2224 H   0  0  0  0  0  0  0  0  0  0  0  0
   -4.2745    1.0850   -1.1335 H   0  0  0  0  0  0  0  0  0  0  0  0
   -3.5067    1.5664   -2.6734 H   0  0  0  0  0  0  0  0  0  0  0  0
   -1.2004    1.2313   -1.5047 H   0  0  0  0  0  0  0  0  0  0  0  0
    0.8967   -1.9929   -2.9762 C   0  0  0  0  0  0  0  0  0  0  0  0
    0.8967   -1.9929   -1.4822 C   0  0  0  0  0  0  0  0  0  0  0  0
    0.8967   -0.8778   -0.7337 C   0  0  0  0  0  0  0  0  0  0  0  0
    0.8981   -0.8639    0.7803 C   0  0  0  0  0  0  0  0  0  0  0  0
    2.1783   -0.2293    1.2739 C   0  0  0  0  0  3  0  0  0  0  0  0
    2.2142    0.9799    1.8528 C   0  0  0  0  0  0  0  0  0  0  0  0
    1.0175    1.7633    2.0294 C   0  0  0  0  0  0  0  0  0  0  0  0
   -0.1955    1.2427    1.7981 C   0  0  0  0  0  0  0  0  0  0  0  0
   -0.3846   -0.1753    1.3257 C   0  0  0  0  0  0  0  0  0  0  0  0
    0.8956   -0.9798   -3.3907 H   0  0  0  0  0  0  0  0  0  0  0  0
    1.7844   -2.5131   -3.3486 H   0  0  0  0  0  0  0  0  0  0  0  0
    0.0100   -2.5149   -3.3485 H   0  0  0  0  0  0  0  0  0  0  0  0
    0.8994   -2.9686   -1.0016 H   0  0  0  0  0  0  0  0  0  0  0  0
    0.8960    0.0971   -1.2199 H   0  0  0  0  0  0  0  0  0  0  0  0
    0.8844   -1.9005    1.1442 H   0  0  0  0  0  0  0  0  0  0  0  0
    3.1000   -0.7872    1.1340 H   0  0  0  0  0  0  0  0  0  0  0  0
    3.1548    1.4085    2.1860 H   0  0  0  0  0  0  0  0  0  0  0  0
    1.1273    2.7856    2.3791 H   0  0  0  0  0  0  0  0  0  0  0  0
   -1.0849    1.8427    1.9655 H   0  0  0  0  0  0  0  0  0  0  0  0
   -1.3416   -0.1984    0.4214 H   0  0  0  0  0  0  0  0  0  0  0  0
   -0.7606   -0.7547    2.1795 H   0  0  0  0  0  0  0  0  0  0  0  0
  1  2  1  0
  1  4  1  0
  1  5  1  0
  1  6  1  0
  2  3  2  3
  2  7  1  0
  3 27  1  0
  8  9  1  0
  8 17  1  0
  8 18  1  0
  8 19  1  0
  9 10  2  3
  9 20  1  0
 10 11  1  0
 10 21  1  0
 11 12  1  0
 11 16  1  0
 11 22  1  0
 12 13  1  0
 12 23  1  0
 13 14  2  0
 13 24  1  0
 14 15  1  0
 14 25  1  0
 15 16  2  0
 15 26  1  0
 16 28  1  0
M  RAD  1  12   2
M  END
>  <reaction>  (11) 
rmg_rxn_16799

>  <mol_properties>  (11) 
{"1": {"label": "*0", "atom_type": "Cd"}, "2": {"label": "*1", "atom_type": "N3d"}, "10": {"label": "*4", "atom_type": "Cs"}, "15": {"label": "*3", "atom_type": "Cd"}, "26": {"label": "*2", "atom_type": "H0"}}

>  <type>  (11) 
unop_7

>  <geom_source>  (11) 
Heuristics

$$$$

     RDKit          3D

 28 27  0  0  0  0  0  0  0  0999 V2000
   -3.9355    1.3552   -1.0097 C   0  0  0  0  0  0  0  0  0  0  0  0
   -2.4980    0.9916   -0.8218 C   0  0  0  0  0  0  0  0  0  0  0  0
   -2.1429   -0.2122   -0.5252 N   0  0  0  0  0  0  0  0  0  0  0  0
   -4.1993    2.1370   -0.2930 H   0  0  0  0  0  0  0  0  0  0  0  0
   -4.5520    0.4751   -0.8098 H   0  0  0  0  0  0  0  0  0  0  0  0
   -4.1203    1.7105   -2.0263 H   0  0  0  0  0  0  0  0  0  0  0  0
   -1.7489    1.7915   -0.9461 H   0  0  0  0  0  0  0  0  0  0  0  0
    0.9907   -1.9851   -3.0767 C   0  0  0  0  0  0  0  0  0  0  0  0
    0.9907   -1.9851   -1.5827 C   0  0  0  0  0  0  0  0  0  0  0  0
    0.9907   -0.8700   -0.8343 C   0  0  0  0  0  0  0  0  0  0  0  0
    0.9921   -0.8562    0.6798 C   0  0  0  0  0  0  0  0  0  0  0  0
    2.2723   -0.2215    1.1734 C   0  0  0  0  0  3  0  0  0  0  0  0
    2.3082    0.9877    1.7523 C   0  0  0  0  0  0  0  0  0  0  0  0
    1.1115    1.7711    1.9289 C   0  0  0  0  0  0  0  0  0  0  0  0
   -0.1015    1.2505    1.6976 C   0  0  0  0  0  0  0  0  0  0  0  0
   -0.2906   -0.1675    1.2252 C   0  0  0  0  0  0  0  0  0  0  0  0
    0.9896   -0.9720   -3.4912 H   0  0  0  0  0  0  0  0  0  0  0  0
    1.8784   -2.5053   -3.4491 H   0  0  0  0  0  0  0  0  0  0  0  0
    0.1040   -2.5071   -3.4490 H   0  0  0  0  0  0  0  0  0  0  0  0
    0.9934   -2.9608   -1.1021 H   0  0  0  0  0  0  0  0  0  0  0  0
    0.9900    0.1049   -1.3204 H   0  0  0  0  0  0  0  0  0  0  0  0
    0.9784   -1.8928    1.0437 H   0  0  0  0  0  0  0  0  0  0  0  0
    3.1940   -0.7794    1.0335 H   0  0  0  0  0  0  0  0  0  0  0  0
    3.2488    1.4163    2.0855 H   0  0  0  0  0  0  0  0  0  0  0  0
    1.2213    2.7934    2.2786 H   0  0  0  0  0  0  0  0  0  0  0  0
   -0.9909    1.8504    1.8650 H   0  0  0  0  0  0  0  0  0  0  0  0
   -1.2476   -0.1906    0.3209 H   0  0  0  0  0  0  0  0  0  0  0  0
   -0.6666   -0.7470    2.0790 H   0  0  0  0  0  0  0  0  0  0  0  0
  1  2  1  0
  1  4  1  0
  1  5  1  0
  1  6  1  0
  2  3  2  3
  2  7  1  0
  3 27  1  0
  8  9  1  0
  8 17  1  0
  8 18  1  0
  8 19  1  0
  9 10  2  3
  9 20  1  0
 10 11  1  0
 10 21  1  0
 11 12  1  0
 11 16  1  0
 11 22  1  0
 12 13  1  0
 12 23  1  0
 13 14  2  0
 13 24  1  0
 14 15  1  0
 14 25  1  0
 15 16  2  0
 15 26  1  0
 16 28  1  0
M  RAD  1  12   2
M  END
>  <reaction>  (12) 
rmg_rxn_16799

>  <mol_properties>  (12) 
{"1": {"label": "*0", "atom_type": "Cd"}, "2": {"label": "*1", "atom_type": "N3d"}, "10": {"label": "*4", "atom_type": "Cs"}, "15": {"label": "*3", "atom_type": "Cd"}, "26": {"label": "*2", "atom_type": "H0"}}

>  <type>  (12) 
unop_8

>  <geom_source>  (12) 
Heuristics

$$$$

     RDKit          3D

 28 27  0  0  0  0  0  0  0  0999 V2000
   -4.2700   -0.8191   -0.6081 C   0  0  0  0  0  0  0  0  0  0  0  0
   -2.7816   -0.8463   -0.4736 C   0  0  0  0  0  0  0  0  0  0  0  0
   -2.0756    0.2247   -0.6062 N   0  0  0  0  0  0  0  0  0  0  0  0
   -4.5644   -1.4929   -1.4168 H   0  0  0  0  0  0  0  0  0  0  0  0
   -4.5833    0.1955   -0.8668 H   0  0  0  0  0  0  0  0  0  0  0  0
   -4.7533   -1.1275    0.3220 H   0  0  0  0  0  0  0  0  0  0  0  0
   -2.3066   -1.8176   -0.2561 H   0  0  0  0  0  0  0  0  0  0  0  0
    1.0579   -1.5482   -3.1578 C   0  0  0  0  0  0  0  0  0  0  0  0
    1.0579   -1.5482   -1.6638 C   0  0  0  0  0  0  0  0  0  0  0  0
    1.0579   -0.4331   -0.9153 C   0  0  0  0  0  0  0  0  0  0  0  0
    1.0593   -0.4193    0.5987 C   0  0  0  0  0  0  0  0  0  0  0  0
    2.3395    0.2154    1.0923 C   0  0  0  0  0  3  0  0  0  0  0  0
    2.3754    1.4246    1.6712 C   0  0  0  0  0  0  0  0  0  0  0  0
    1.1788    2.2079    1.8478 C   0  0  0  0  0  0  0  0  0  0  0  0
   -0.0343    1.6874    1.6166 C   0  0  0  0  0  0  0  0  0  0  0  0
   -0.2234    0.2693    1.1441 C   0  0  0  0  0  0  0  0  0  0  0  0
    1.0569   -0.5351   -3.5722 H   0  0  0  0  0  0  0  0  0  0  0  0
    1.9457   -2.0685   -3.5301 H   0  0  0  0  0  0  0  0  0  0  0  0
    0.1712   -2.0703   -3.5301 H   0  0  0  0  0  0  0  0  0  0  0  0
    1.0606   -2.5240   -1.1832 H   0  0  0  0  0  0  0  0  0  0  0  0
    1.0573    0.5417   -1.4014 H   0  0  0  0  0  0  0  0  0  0  0  0
    1.0456   -1.4559    0.9626 H   0  0  0  0  0  0  0  0  0  0  0  0
    3.2612   -0.3425    0.9524 H   0  0  0  0  0  0  0  0  0  0  0  0
    3.3160    1.8532    2.0044 H   0  0  0  0  0  0  0  0  0  0  0  0
    1.2886    3.2303    2.1976 H   0  0  0  0  0  0  0  0  0  0  0  0
   -0.9237    2.2873    1.7839 H   0  0  0  0  0  0  0  0  0  0  0  0
   -1.1803    0.2463    0.2398 H   0  0  0  0  0  0  0  0  0  0  0  0
   -0.5994   -0.3101    1.9979 H   0  0  0  0  0  0  0  0  0  0  0  0
  1  2  1  0
  1  4  1  0
  1  5  1  0
  1  6  1  0
  2  3  2  3
  2  7  1  0
  3 27  1  0
  8  9  1  0
  8 17  1  0
  8 18  1  0
  8 19  1  0
  9 10  2  3
  9 20  1  0
 10 11  1  0
 10 21  1  0
 11 12  1  0
 11 16  1  0
 11 22  1  0
 12 13  1  0
 12 23  1  0
 13 14  2  0
 13 24  1  0
 14 15  1  0
 14 25  1  0
 15 16  2  0
 15 26  1  0
 16 28  1  0
M  RAD  1  12   2
M  END
>  <reaction>  (13) 
rmg_rxn_16799

>  <mol_properties>  (13) 
{"1": {"label": "*0", "atom_type": "Cd"}, "2": {"label": "*1", "atom_type": "N3d"}, "10": {"label": "*4", "atom_type": "Cs"}, "15": {"label": "*3", "atom_type": "Cd"}, "26": {"label": "*2", "atom_type": "H0"}}

>  <type>  (13) 
unop_9

>  <geom_source>  (13) 
Heuristics

$$$$

     RDKit          3D

 28 27  0  0  0  0  0  0  0  0999 V2000
   -3.0495   -2.5693   -0.5706 C   0  0  0  0  0  0  0  0  0  0  0  0
   -2.2188   -1.4672    0.0007 C   0  0  0  0  0  0  0  0  0  0  0  0
   -1.0378   -1.6261    0.3554 N   0  0  0  0  0  0  0  0  0  0  0  0
   -3.3781   -2.2930   -1.5715 H   0  0  0  0  0  0  0  0  0  0  0  0
   -3.9343   -2.7165    0.0469 H   0  0  0  0  0  0  0  0  0  0  0  0
   -2.4757   -3.4906   -0.6146 H   0  0  0  0  0  0  0  0  0  0  0  0
   -2.7414   -0.4975    0.0812 H   0  0  0  0  0  0  0  0  0  0  0  0
    4.0012   -1.4898   -0.1775 C   0  0  0  0  0  0  0  0  0  0  0  0
    3.1394   -0.3050    0.1061 C   0  0  0  0  0  0  0  0  0  0  0  0
    1.8291   -0.2755   -0.0649 C   0  0  0  0  0  0  0  0  0  0  0  0
    0.9610    0.9239    0.2107 C   0  0  0  0  0  0  0  0  0  0  0  0
    0.3961    1.4840   -1.0634 C   0  0  0  0  0  3  0  0  0  0  0  0
   -0.8308    2.0336   -1.1221 C   0  0  0  0  0  0  0  0  0  0  0  0
   -1.6875    2.0540    0.0117 C   0  0  0  0  0  0  0  0  0  0  0  0
   -1.3236    1.3737    1.1510 C   0  0  0  0  0  0  0  0  0  0  0  0
   -0.1423    0.6107    1.2014 C   0  0  0  0  0  0  0  0  0  0  0  0
    4.5325   -1.7937    0.7242 H   0  0  0  0  0  0  0  0  0  0  0  0
    3.4049   -2.3259   -0.5332 H   0  0  0  0  0  0  0  0  0  0  0  0
    4.7483   -1.2418   -0.9316 H   0  0  0  0  0  0  0  0  0  0  0  0
    3.6612    0.5703    0.4761 H   0  0  0  0  0  0  0  0  0  0  0  0
    1.3028   -1.1454   -0.4324 H   0  0  0  0  0  0  0  0  0  0  0  0
    1.6117    1.7016    0.6559 H   0  0  0  0  0  0  0  0  0  0  0  0
    1.0504    1.4781   -1.9223 H   0  0  0  0  0  0  0  0  0  0  0  0
   -1.1867    2.4723   -2.0438 H   0  0  0  0  0  0  0  0  0  0  0  0
   -2.6236    2.5879   -0.0377 H   0  0  0  0  0  0  0  0  0  0  0  0
   -1.9990    1.3392    1.9958 H   0  0  0  0  0  0  0  0  0  0  0  0
   -0.5614   -0.6196    0.7695 H   0  0  0  0  0  0  0  0  0  0  0  0
    0.2100    0.2918    2.1775 H   0  0  0  0  0  0  0  0  0  0  0  0
  1  2  1  0
  1  4  1  0
  1  5  1  0
  1  6  1  0
  2  3  2  3
  2  7  1  0
  3 27  1  0
  8  9  1  0
  8 17  1  0
  8 18  1  0
  8 19  1  0
  9 10  2  3
  9 20  1  0
 10 11  1  0
 10 21  1  0
 11 12  1  0
 11 16  1  0
 11 22  1  0
 12 13  1  0
 12 23  1  0
 13 14  2  0
 13 24  1  0
 14 15  1  0
 14 25  1  0
 15 16  2  0
 15 26  1  0
 16 28  1  0
M  RAD  1  12   2
M  END
>  <reaction>  (14) 
rmg_rxn_16799

>  <mol_properties>  (14) 
{"1": {"label": "*0", "atom_type": "Cd"}, "2": {"label": "*1", "atom_type": "N3d"}, "10": {"label": "*4", "atom_type": "Cs"}, "15": {"label": "*3", "atom_type": "Cd"}, "26": {"label": "*2", "atom_type": "H0"}}

>  <type>  (14) 
unop_10

>  <geom_source>  (14) 
Heuristics

$$$$

     RDKit          3D

 28 27  0  0  0  0  0  0  0  0999 V2000
   -2.6543    0.4138   -2.6489 C   0  0  0  0  0  0  0  0  0  0  0  0
   -1.8440    0.0161   -1.4574 C   0  0  0  0  0  0  0  0  0  0  0  0
   -2.3556   -0.0045   -0.2738 N   0  0  0  0  0  0  0  0  0  0  0  0
   -2.1829    1.2775   -3.1248 H   0  0  0  0  0  0  0  0  0  0  0  0
   -3.6551    0.7007   -2.3162 H   0  0  0  0  0  0  0  0  0  0  0  0
   -2.7262   -0.4075   -3.3658 H   0  0  0  0  0  0  0  0  0  0  0  0
   -0.7898   -0.2602   -1.6265 H   0  0  0  0  0  0  0  0  0  0  0  0
    0.7779   -1.7774   -2.8254 C   0  0  0  0  0  0  0  0  0  0  0  0
    0.7779   -1.7774   -1.3314 C   0  0  0  0  0  0  0  0  0  0  0  0
    0.7779   -0.6624   -0.5829 C   0  0  0  0  0  0  0  0  0  0  0  0
    0.7793   -0.6485    0.9312 C   0  0  0  0  0  0  0  0  0  0  0  0
    2.0595   -0.0138    1.4247 C   0  0  0  0  0  3  0  0  0  0  0  0
    2.0954    1.1953    2.0037 C   0  0  0  0  0  0  0  0  0  0  0  0
    0.8988    1.9787    2.1802 C   0  0  0  0  0  0  0  0  0  0  0  0
   -0.3143    1.4582    1.9490 C   0  0  0  0  0  0  0  0  0  0  0  0
   -0.5034    0.0401    1.4765 C   0  0  0  0  0  0  0  0  0  0  0  0
    0.7769   -0.7644   -3.2398 H   0  0  0  0  0  0  0  0  0  0  0  0
    1.6657   -2.2977   -3.1977 H   0  0  0  0  0  0  0  0  0  0  0  0
   -0.1088   -2.2995   -3.1977 H   0  0  0  0  0  0  0  0  0  0  0  0
    0.7806   -2.7532   -0.8507 H   0  0  0  0  0  0  0  0  0  0  0  0
    0.7773    0.3125   -1.0690 H   0  0  0  0  0  0  0  0  0  0  0  0
    0.7656   -1.6851    1.2950 H   0  0  0  0  0  0  0  0  0  0  0  0
    2.9812   -0.5718    1.2848 H   0  0  0  0  0  0  0  0  0  0  0  0
    3.0360    1.6239    2.3368 H   0  0  0  0  0  0  0  0  0  0  0  0
    1.0086    3.0011    2.5300 H   0  0  0  0  0  0  0  0  0  0  0  0
   -1.2037    2.0581    2.1163 H   0  0  0  0  0  0  0  0  0  0  0  0
   -1.4603    0.0170    0.5722 H   0  0  0  0  0  0  0  0  0  0  0  0
   -0.8794   -0.5393    2.3303 H   0  0  0  0  0  0  0  0  0  0  0  0
  1  2  1  0
  1  4  1  0
  1  5  1  0
  1  6  1  0
  2  3  2  3
  2  7  1  0
  3 27  1  0
  8  9  1  0
  8 17  1  0
  8 18  1  0
  8 19  1  0
  9 10  2  3
  9 20  1  0
 10 11  1  0
 10 21  1  0
 11 12  1  0
 11 16  1  0
 11 22  1  0
 12 13  1  0
 12 23  1  0
 13 14  2  0
 13 24  1  0
 14 15  1  0
 14 25  1  0
 15 16  2  0
 15 26  1  0
 16 28  1  0
M  RAD  1  12   2
M  END
>  <reaction>  (15) 
rmg_rxn_16799

>  <mol_properties>  (15) 
{"1": {"label": "*0", "atom_type": "Cd"}, "2": {"label": "*1", "atom_type": "N3d"}, "10": {"label": "*4", "atom_type": "Cs"}, "15": {"label": "*3", "atom_type": "Cd"}, "26": {"label": "*2", "atom_type": "H0"}}

>  <type>  (15) 
unop_11

>  <geom_source>  (15) 
Heuristics

$$$$

     RDKit          3D

 28 27  0  0  0  0  0  0  0  0999 V2000
   -3.8361   -1.3327   -1.1825 C   0  0  0  0  0  0  0  0  0  0  0  0
   -2.4451   -0.9281   -0.8146 C   0  0  0  0  0  0  0  0  0  0  0  0
   -2.1597    0.2911   -0.5059 N   0  0  0  0  0  0  0  0  0  0  0  0
   -3.8270   -1.7540   -2.1909 H   0  0  0  0  0  0  0  0  0  0  0  0
   -4.4749   -0.4458   -1.1797 H   0  0  0  0  0  0  0  0  0  0  0  0
   -4.2286   -2.0709   -0.4790 H   0  0  0  0  0  0  0  0  0  0  0  0
   -1.6686   -1.7113   -0.8162 H   0  0  0  0  0  0  0  0  0  0  0  0
    0.9739   -1.4818   -3.0575 C   0  0  0  0  0  0  0  0  0  0  0  0
    0.9739   -1.4818   -1.5635 C   0  0  0  0  0  0  0  0  0  0  0  0
    0.9739   -0.3668   -0.8150 C   0  0  0  0  0  0  0  0  0  0  0  0
    0.9753   -0.3529    0.6991 C   0  0  0  0  0  0  0  0  0  0  0  0
    2.2555    0.2818    1.1926 C   0  0  0  0  0  3  0  0  0  0  0  0
    2.2914    1.4909    1.7716 C   0  0  0  0  0  0  0  0  0  0  0  0
    1.0947    2.2743    1.9481 C   0  0  0  0  0  0  0  0  0  0  0  0
   -0.1183    1.7538    1.7169 C   0  0  0  0  0  0  0  0  0  0  0  0
   -0.3074    0.3357    1.2444 C   0  0  0  0  0  0  0  0  0  0  0  0
    0.9728   -0.4688   -3.4719 H   0  0  0  0  0  0  0  0  0  0  0  0
    1.8616   -2.0021   -3.4298 H   0  0  0  0  0  0  0  0  0  0  0  0
    0.0872   -2.0039   -3.4298 H   0  0  0  0  0  0  0  0  0  0  0  0
    0.9766   -2.4576   -1.0828 H   0  0  0  0  0  0  0  0  0  0  0  0
    0.9732    0.6081   -1.3011 H   0  0  0  0  0  0  0  0  0  0  0  0
    0.9616   -1.3895    1.0629 H   0  0  0  0  0  0  0  0  0  0  0  0
    3.1772   -0.2762    1.0527 H   0  0  0  0  0  0  0  0  0  0  0  0
    3.2320    1.9195    2.1047 H   0  0  0  0  0  0  0  0  0  0  0  0
    1.2046    3.2967    2.2979 H   0  0  0  0  0  0  0  0  0  0  0  0
   -1.0077    2.3537    1.8842 H   0  0  0  0  0  0  0  0  0  0  0  0
   -1.2644    0.3126    0.3401 H   0  0  0  0  0  0  0  0  0  0  0  0
   -0.6834   -0.2437    2.0982 H   0  0  0  0  0  0  0  0  0  0  0  0
  1  2  1  0
  1  4  1  0
  1  5  1  0
  1  6  1  0
  2  3  2  3
  2  7  1  0
  3 27  1  0
  8  9  1  0
  8 17  1  0
  8 18  1  0
  8 19  1  0
  9 10  2  3
  9 20  1  0
 10 11  1  0
 10 21  1  0
 11 12  1  0
 11 16  1  0
 11 22  1  0
 12 13  1  0
 12 23  1  0
 13 14  2  0
 13 24  1  0
 14 15  1  0
 14 25  1  0
 15 16  2  0
 15 26  1  0
 16 28  1  0
M  RAD  1  12   2
M  END
>  <reaction>  (16) 
rmg_rxn_16799

>  <mol_properties>  (16) 
{"1": {"label": "*0", "atom_type": "Cd"}, "2": {"label": "*1", "atom_type": "N3d"}, "10": {"label": "*4", "atom_type": "Cs"}, "15": {"label": "*3", "atom_type": "Cd"}, "26": {"label": "*2", "atom_type": "H0"}}

>  <type>  (16) 
unop_12

>  <geom_source>  (16) 
Heuristics

$$$$

     RDKit          3D

 28 27  0  0  0  0  0  0  0  0999 V2000
   -4.2837    0.8322   -0.8074 C   0  0  0  0  0  0  0  0  0  0  0  0
   -2.8348    0.8854   -0.4443 C   0  0  0  0  0  0  0  0  0  0  0  0
   -2.0685   -0.1420   -0.5873 N   0  0  0  0  0  0  0  0  0  0  0  0
   -4.8793    1.0649    0.0790 H   0  0  0  0  0  0  0  0  0  0  0  0
   -4.5287   -0.1805   -1.1376 H   0  0  0  0  0  0  0  0  0  0  0  0
   -4.5147    1.5445   -1.6032 H   0  0  0  0  0  0  0  0  0  0  0  0
   -2.4426    1.8370   -0.0483 H   0  0  0  0  0  0  0  0  0  0  0  0
    1.0651   -1.9149   -3.1389 C   0  0  0  0  0  0  0  0  0  0  0  0
    1.0651   -1.9149   -1.6449 C   0  0  0  0  0  0  0  0  0  0  0  0
    1.0651   -0.7998   -0.8964 C   0  0  0  0  0  0  0  0  0  0  0  0
    1.0665   -0.7860    0.6177 C   0  0  0  0  0  0  0  0  0  0  0  0
    2.3467   -0.1513    1.1113 C   0  0  0  0  0  3  0  0  0  0  0  0
    2.3826    1.0579    1.6902 C   0  0  0  0  0  0  0  0  0  0  0  0
    1.1859    1.8413    1.8667 C   0  0  0  0  0  0  0  0  0  0  0  0
   -0.0271    1.3207    1.6355 C   0  0  0  0  0  0  0  0  0  0  0  0
   -0.2162   -0.0974    1.1630 C   0  0  0  0  0  0  0  0  0  0  0  0
    1.0640   -0.9018   -3.5533 H   0  0  0  0  0  0  0  0  0  0  0  0
    1.9528   -2.4351   -3.5112 H   0  0  0  0  0  0  0  0  0  0  0  0
    0.1784   -2.4369   -3.5112 H   0  0  0  0  0  0  0  0  0  0  0  0
    1.0678   -2.8906   -1.1642 H   0  0  0  0  0  0  0  0  0  0  0  0
    1.0644    0.1751   -1.3825 H   0  0  0  0  0  0  0  0  0  0  0  0
    1.0528   -1.8226    0.9815 H   0  0  0  0  0  0  0  0  0  0  0  0
    3.2684   -0.7092    0.9713 H   0  0  0  0  0  0  0  0  0  0  0  0
    3.3232    1.4865    2.0233 H   0  0  0  0  0  0  0  0  0  0  0  0
    1.2958    2.8636    2.2165 H   0  0  0  0  0  0  0  0  0  0  0  0
   -0.9165    1.9206    1.8029 H   0  0  0  0  0  0  0  0  0  0  0  0
   -1.1732   -0.1204    0.2587 H   0  0  0  0  0  0  0  0  0  0  0  0
   -0.5922   -0.6768    2.0168 H   0  0  0  0  0  0  0  0  0  0  0  0
  1  2  1  0
  1  4  1  0
  1  5  1  0
  1  6  1  0
  2  3  2  3
  2  7  1  0
  3 27  1  0
  8  9  1  0
  8 17  1  0
  8 18  1  0
  8 19  1  0
  9 10  2  3
  9 20  1  0
 10 11  1  0
 10 21  1  0
 11 12  1  0
 11 16  1  0
 11 22  1  0
 12 13  1  0
 12 23  1  0
 13 14  2  0
 13 24  1  0
 14 15  1  0
 14 25  1  0
 15 16  2  0
 15 26  1  0
 16 28  1  0
M  RAD  1  12   2
M  END
>  <reaction>  (17) 
rmg_rxn_16799

>  <mol_properties>  (17) 
{"1": {"label": "*0", "atom_type": "Cd"}, "2": {"label": "*1", "atom_type": "N3d"}, "10": {"label": "*4", "atom_type": "Cs"}, "15": {"label": "*3", "atom_type": "Cd"}, "26": {"label": "*2", "atom_type": "H0"}}

>  <type>  (17) 
unop_13

>  <geom_source>  (17) 
Heuristics

$$$$

     RDKit          3D

 28 27  0  0  0  0  0  0  0  0999 V2000
   -2.7993   -0.5998   -2.5556 C   0  0  0  0  0  0  0  0  0  0  0  0
   -1.9144   -0.4324   -1.3627 C   0  0  0  0  0  0  0  0  0  0  0  0
   -2.3320    0.1566   -0.2941 N   0  0  0  0  0  0  0  0  0  0  0  0
   -2.3330   -0.1087   -3.4135 H   0  0  0  0  0  0  0  0  0  0  0  0
   -3.7588   -0.1165   -2.3549 H   0  0  0  0  0  0  0  0  0  0  0  0
   -2.9596   -1.6571   -2.7794 H   0  0  0  0  0  0  0  0  0  0  0  0
   -0.8884   -0.8315   -1.4284 H   0  0  0  0  0  0  0  0  0  0  0  0
    0.8016   -1.6164   -2.8457 C   0  0  0  0  0  0  0  0  0  0  0  0
    0.8016   -1.6164   -1.3516 C   0  0  0  0  0  0  0  0  0  0  0  0
    0.8016   -0.5013   -0.6032 C   0  0  0  0  0  0  0  0  0  0  0  0
    0.8030   -0.4874    0.9109 C   0  0  0  0  0  0  0  0  0  0  0  0
    2.0832    0.1472    1.4045 C   0  0  0  0  0  3  0  0  0  0  0  0
    2.1191    1.3564    1.9834 C   0  0  0  0  0  0  0  0  0  0  0  0
    0.9224    2.1398    2.1600 C   0  0  0  0  0  0  0  0  0  0  0  0
   -0.2906    1.6192    1.9287 C   0  0  0  0  0  0  0  0  0  0  0  0
   -0.4797    0.2012    1.4563 C   0  0  0  0  0  0  0  0  0  0  0  0
    0.8005   -0.6033   -3.2601 H   0  0  0  0  0  0  0  0  0  0  0  0
    1.6893   -2.1366   -3.2180 H   0  0  0  0  0  0  0  0  0  0  0  0
   -0.0851   -2.1384   -3.2179 H   0  0  0  0  0  0  0  0  0  0  0  0
    0.8043   -2.5921   -0.8710 H   0  0  0  0  0  0  0  0  0  0  0  0
    0.8009    0.4736   -1.0893 H   0  0  0  0  0  0  0  0  0  0  0  0
    0.7893   -1.5240    1.2748 H   0  0  0  0  0  0  0  0  0  0  0  0
    3.0049   -0.4107    1.2646 H   0  0  0  0  0  0  0  0  0  0  0  0
    3.0597    1.7850    2.3165 H   0  0  0  0  0  0  0  0  0  0  0  0
    1.0323    3.1622    2.5097 H   0  0  0  0  0  0  0  0  0  0  0  0
   -1.1800    2.2192    2.0961 H   0  0  0  0  0  0  0  0  0  0  0  0
   -1.4367    0.1781    0.5520 H   0  0  0  0  0  0  0  0  0  0  0  0
   -0.8557   -0.3782    2.3101 H   0  0  0  0  0  0  0  0  0  0  0  0
  1  2  1  0
  1  4  1  0
  1  5  1  0
  1  6  1  0
  2  3  2  3
  2  7  1  0
  3 27  1  0
  8  9  1  0
  8 17  1  0
  8 18  1  0
  8 19  1  0
  9 10  2  3
  9 20  1  0
 10 11  1  0
 10 21  1  0
 11 12  1  0
 11 16  1  0
 11 22  1  0
 12 13  1  0
 12 23  1  0
 13 14  2  0
 13 24  1  0
 14 15  1  0
 14 25  1  0
 15 16  2  0
 15 26  1  0
 16 28  1  0
M  RAD  1  12   2
M  END
>  <reaction>  (18) 
rmg_rxn_16799

>  <mol_properties>  (18) 
{"1": {"label": "*0", "atom_type": "Cd"}, "2": {"label": "*1", "atom_type": "N3d"}, "10": {"label": "*4", "atom_type": "Cs"}, "15": {"label": "*3", "atom_type": "Cd"}, "26": {"label": "*2", "atom_type": "H0"}}

>  <type>  (18) 
unop_14

>  <geom_source>  (18) 
Heuristics

$$$$

     RDKit          3D

 28 27  0  0  0  0  0  0  0  0999 V2000
   -3.2710   -1.2861   -1.9527 C   0  0  0  0  0  0  0  0  0  0  0  0
   -2.1304   -0.7732   -1.1341 C   0  0  0  0  0  0  0  0  0  0  0  0
   -2.2562    0.2696   -0.3858 N   0  0  0  0  0  0  0  0  0  0  0  0
   -2.9797   -1.2834   -3.0061 H   0  0  0  0  0  0  0  0  0  0  0  0
   -4.1266   -0.6182   -1.8248 H   0  0  0  0  0  0  0  0  0  0  0  0
   -3.5465   -2.2991   -1.6497 H   0  0  0  0  0  0  0  0  0  0  0  0
   -1.1741   -1.3195   -1.1926 H   0  0  0  0  0  0  0  0  0  0  0  0
    0.8773   -1.5034   -2.9374 C   0  0  0  0  0  0  0  0  0  0  0  0
    0.8773   -1.5034   -1.4434 C   0  0  0  0  0  0  0  0  0  0  0  0
    0.8773   -0.3883   -0.6949 C   0  0  0  0  0  0  0  0  0  0  0  0
    0.8787   -0.3744    0.8192 C   0  0  0  0  0  0  0  0  0  0  0  0
    2.1589    0.2602    1.3128 C   0  0  0  0  0  3  0  0  0  0  0  0
    2.1948    1.4694    1.8917 C   0  0  0  0  0  0  0  0  0  0  0  0
    0.9982    2.2528    2.0682 C   0  0  0  0  0  0  0  0  0  0  0  0
   -0.2149    1.7322    1.8370 C   0  0  0  0  0  0  0  0  0  0  0  0
   -0.4040    0.3142    1.3646 C   0  0  0  0  0  0  0  0  0  0  0  0
    0.8763   -0.4903   -3.3518 H   0  0  0  0  0  0  0  0  0  0  0  0
    1.7651   -2.0236   -3.3097 H   0  0  0  0  0  0  0  0  0  0  0  0
   -0.0094   -2.0254   -3.3096 H   0  0  0  0  0  0  0  0  0  0  0  0
    0.8800   -2.4791   -0.9627 H   0  0  0  0  0  0  0  0  0  0  0  0
    0.8767    0.5866   -1.1810 H   0  0  0  0  0  0  0  0  0  0  0  0
    0.8650   -1.4110    1.1830 H   0  0  0  0  0  0  0  0  0  0  0  0
    3.0806   -0.2977    1.1729 H   0  0  0  0  0  0  0  0  0  0  0  0
    3.1354    1.8980    2.2248 H   0  0  0  0  0  0  0  0  0  0  0  0
    1.1080    3.2752    2.4180 H   0  0  0  0  0  0  0  0  0  0  0  0
   -1.1043    2.3322    2.0044 H   0  0  0  0  0  0  0  0  0  0  0  0
   -1.3609    0.2911    0.4602 H   0  0  0  0  0  0  0  0  0  0  0  0
   -0.7800   -0.2652    2.2184 H   0  0  0  0  0  0  0  0  0  0  0  0
  1  2  1  0
  1  4  1  0
  1  5  1  0
  1  6  1  0
  2  3  2  3
  2  7  1  0
  3 27  1  0
  8  9  1  0
  8 17  1  0
  8 18  1  0
  8 19  1  0
  9 10  2  3
  9 20  1  0
 10 11  1  0
 10 21  1  0
 11 12  1  0
 11 16  1  0
 11 22  1  0
 12 13  1  0
 12 23  1  0
 13 14  2  0
 13 24  1  0
 14 15  1  0
 14 25  1  0
 15 16  2  0
 15 26  1  0
 16 28  1  0
M  RAD  1  12   2
M  END
>  <reaction>  (19) 
rmg_rxn_16799

>  <mol_properties>  (19) 
{"1": {"label": "*0", "atom_type": "Cd"}, "2": {"label": "*1", "atom_type": "N3d"}, "10": {"label": "*4", "atom_type": "Cs"}, "15": {"label": "*3", "atom_type": "Cd"}, "26": {"label": "*2", "atom_type": "H0"}}

>  <type>  (19) 
unop_15

>  <geom_source>  (19) 
gaussian_log

$$$$
