
     RDKit          3D

  8  7  0  0  0  0  0  0  0  0999 V2000
    0.9548    0.1194   -0.0790 C   0  0  0  0  0  0  0  0  0  0  0  0
   -0.4838   -0.2649    0.0193 C   0  0  0  0  0  0  0  0  0  0  0  0
   -0.8933   -1.1081    0.8664 N   0  0  0  0  0  0  0  0  0  0  0  0
    1.3360   -0.0983   -1.0800 H   0  0  0  0  0  0  0  0  0  0  0  0
    1.0698    1.1948    0.0786 H   0  0  0  0  0  0  0  0  0  0  0  0
    1.5426   -0.4219    0.6602 H   0  0  0  0  0  0  0  0  0  0  0  0
   -1.1575    0.2324   -0.6905 H   0  0  0  0  0  0  0  0  0  0  0  0
   -1.8989   -1.2455    0.7886 H   0  0  0  0  0  0  0  0  0  0  0  0
  1  2  1  0
  1  4  1  0
  1  5  1  0
  1  6  1  0
  2  3  2  3
  2  7  1  0
  3  8  1  0
M  END
>  <reaction>  (1) 
rmg_rxn_16514

>  <mol_properties>  (1) 
{"2": {"label": "donator", "atom_type": "N3d"}, "7": {"label": "d_hydrogen", "atom_type": "H0"}}

>  <type>  (1) 
r1h

$$$$

     RDKit          3D

  8  7  0  0  0  0  0  0  0  0999 V2000
   -0.9179    0.2391    0.1982 C   0  0  0  0  0  0  0  0  0  0  0  0
    0.4678   -0.2407    0.0057 C   0  0  0  0  0  3  0  0  0  0  0  0
    0.5690   -1.5483   -0.3772 O   0  0  0  0  0  0  0  0  0  0  0  0
   -1.4185   -0.2635    1.0380 H   0  0  0  0  0  0  0  0  0  0  0  0
   -0.9217    1.3106    0.3990 H   0  0  0  0  0  0  0  0  0  0  0  0
   -1.5211    0.0525   -0.6941 H   0  0  0  0  0  0  0  0  0  0  0  0
    1.2867    0.1607    0.5960 H   0  0  0  0  0  0  0  0  0  0  0  0
    1.4925   -1.7959   -0.4346 H   0  0  0  0  0  0  0  0  0  0  0  0
  1  2  1  0
  1  4  1  0
  1  5  1  0
  1  6  1  0
  2  3  1  0
  2  7  1  0
  3  8  1  0
M  RAD  1   2   2
M  END
>  <reaction>  (2) 
rmg_rxn_16514

>  <mol_properties>  (2) 
{"1": {"label": "acceptor", "atom_type": "Cs"}}

>  <type>  (2) 
r2

$$$$

     RDKit          3D

  9  8  0  0  0  0  0  0  0  0999 V2000
   -0.9895    0.3048    0.1041 C   0  0  0  0  0  0  0  0  0  0  0  0
    0.3761   -0.3562    0.0721 C   0  0  0  0  0  0  0  0  0  0  0  0
    0.3441   -1.6564   -0.4834 O   0  0  0  0  0  0  0  0  0  0  0  0
   -1.6997   -0.3114    0.6572 H   0  0  0  0  0  0  0  0  0  0  0  0
   -0.9320    1.2848    0.5822 H   0  0  0  0  0  0  0  0  0  0  0  0
   -1.3774    0.4507   -0.9077 H   0  0  0  0  0  0  0  0  0  0  0  0
    0.7581   -0.4813    1.0862 H   0  0  0  0  0  0  0  0  0  0  0  0
    1.0900    0.2787   -0.4681 H   0  0  0  0  0  0  0  0  0  0  0  0
    0.0089   -1.5959   -1.3792 H   0  0  0  0  0  0  0  0  0  0  0  0
  1  2  1  0
  1  4  1  0
  1  5  1  0
  1  6  1  0
  2  3  1  0
  2  7  1  0
  2  8  1  0
  3  9  1  0
M  END
>  <reaction>  (3) 
rmg_rxn_16514

>  <mol_properties>  (3) 
{"1": {"label": "acceptor", "atom_type": "Cs"}, "8": {"label": "a_hydrogen", "atom_type": "H0"}}

>  <type>  (3) 
r2h

$$$$

     RDKit          3D

 16 14  0  0  0  0  0  0  0  0999 V2000
    0.6415   -1.0622    2.2133 C   0  0  0  0  0  0  0  0  0  0  0  0
   -0.4897   -0.5527    1.3648 C   0  0  0  0  0  3  0  0  0  0  0  0
   -0.6596    0.8250    1.3550 O   0  0  0  0  0  0  0  0  0  0  0  0
    0.5032   -0.7925    3.2648 H   0  0  0  0  0  0  0  0  0  0  0  0
    0.7070   -2.1479    2.1388 H   0  0  0  0  0  0  0  0  0  0  0  0
    1.5973   -0.6514    1.8748 H   0  0  0  0  0  0  0  0  0  0  0  0
   -1.4565   -1.0120    1.5657 H   0  0  0  0  0  0  0  0  0  0  0  0
    0.2044    1.2422    1.3202 H   0  0  0  0  0  0  0  0  0  0  0  0
   -0.2431    0.0349   -3.1976 C   0  0  0  0  0  0  0  0  0  0  0  0
   -0.3776   -0.1376   -1.7134 C   0  0  0  0  0  0  0  0  0  0  0  0
    0.0918   -1.1278   -1.1002 N   0  0  0  0  0  0  0  0  0  0  0  0
   -1.2333    0.0964   -3.6554 H   0  0  0  0  0  0  0  0  0  0  0  0
    0.2744    0.9712   -3.4198 H   0  0  0  0  0  0  0  0  0  0  0  0
    0.3070   -0.7968   -3.6339 H   0  0  0  0  0  0  0  0  0  0  0  0
   -0.9165    0.6596   -1.1799 H   0  0  0  0  0  0  0  0  0  0  0  0
   -0.1900   -0.9546    0.1221 H   0  0  0  0  0  0  0  0  0  0  0  0
  1  2  1  0
  1  4  1  0
  1  5  1  0
  1  6  1  0
  2  3  1  0
  2  7  1  0
  3  8  1  0
  9 10  1  0
  9 12  1  0
  9 13  1  0
  9 14  1  0
 10 11  2  3
 10 15  1  0
 11 16  1  0
M  RAD  1   2   2
M  END
>  <reaction>  (4) 
rmg_rxn_16514

>  <mol_properties>  (4) 
{"1": {"label": "*3", "atom_type": "Cs"}, "2": {"label": "*4", "atom_type": "O2s"}, "9": {"label": "*0", "atom_type": "Cd"}, "10": {"label": "*1", "atom_type": "N3d"}, "15": {"label": "*2", "atom_type": "H0"}}

>  <type>  (4) 
ts

$$$$

     RDKit          3D

 16 14  0  0  0  0  0  0  0  0999 V2000
    2.4451   -0.9101   -0.2931 C   0  0  0  0  0  0  0  0  0  0  0  0
    1.4978    0.0147    0.4286 C   0  0  0  0  0  3  0  0  0  0  0  0
    1.4233    1.3132   -0.0736 O   0  0  0  0  0  0  0  0  0  0  0  0
    3.4742   -0.5482   -0.2257 H   0  0  0  0  0  0  0  0  0  0  0  0
    2.3977   -1.9014    0.1481 H   0  0  0  0  0  0  0  0  0  0  0  0
    2.1774   -0.9883   -1.3468 H   0  0  0  0  0  0  0  0  0  0  0  0
    1.6737    0.0856    1.5004 H   0  0  0  0  0  0  0  0  0  0  0  0
    1.4865    1.2797   -1.0356 H   0  0  0  0  0  0  0  0  0  0  0  0
   -3.1251    0.0467   -0.1551 C   0  0  0  0  0  0  0  0  0  0  0  0
   -1.6458    0.1652    0.0474 C   0  0  0  0  0  0  0  0  0  0  0  0
   -0.8976   -0.8209    0.1434 N   0  0  0  0  0  0  0  0  0  0  0  0
   -3.4079    0.5544   -1.0761 H   0  0  0  0  0  0  0  0  0  0  0  0
   -3.4166   -0.9985   -0.2072 H   0  0  0  0  0  0  0  0  0  0  0  0
   -3.6415    0.5312    0.6721 H   0  0  0  0  0  0  0  0  0  0  0  0
   -1.2845    1.2044    0.1032 H   0  0  0  0  0  0  0  0  0  0  0  0
    0.2879   -0.5109    0.3118 H   0  0  0  0  0  0  0  0  0  0  0  0
  1  2  1  0
  1  4  1  0
  1  5  1  0
  1  6  1  0
  2  3  1  0
  2  7  1  0
  3  8  1  0
  9 10  1  0
  9 12  1  0
  9 13  1  0
  9 14  1  0
 10 11  2  3
 10 15  1  0
 11 16  1  0
M  RAD  1   2   2
M  END
>  <reaction>  (5) 
rmg_rxn_16514

>  <mol_properties>  (5) 
{"1": {"label": "*3", "atom_type": "Cs"}, "2": {"label": "*4", "atom_type": "O2s"}, "9": {"label": "*0", "atom_type": "Cd"}, "10": {"label": "*1", "atom_type": "N3d"}, "15": {"label": "*2", "atom_type": "H0"}}

>  <type>  (5) 
unop_1

>  <geom_source>  (5) 
crest_best.xyz

$$$$

     RDKit          3D

 16 14  0  0  0  0  0  0  0  0999 V2000
    1.2190    0.4379    2.2323 C   0  0  0  0  0  0  0  0  0  0  0  0
   -0.0151   -0.1635    1.5858 C   0  0  0  0  0  3  0  0  0  0  0  0
   -1.0780    0.7615    1.4647 O   0  0  0  0  0  0  0  0  0  0  0  0
    0.9759    0.8456    3.2145 H   0  0  0  0  0  0  0  0  0  0  0  0
    1.9984   -0.3175    2.3516 H   0  0  0  0  0  0  0  0  0  0  0  0
    1.6288    1.2444    1.6181 H   0  0  0  0  0  0  0  0  0  0  0  0
   -0.4042   -0.9766    2.2003 H   0  0  0  0  0  0  0  0  0  0  0  0
   -0.7788    1.5000    0.9321 H   0  0  0  0  0  0  0  0  0  0  0  0
   -0.0151   -0.7578   -3.0673 C   0  0  0  0  0  0  0  0  0  0  0  0
   -0.0151   -0.7578   -1.5750 C   0  0  0  0  0  0  0  0  0  0  0  0
   -0.0151    0.3148   -0.9073 N   0  0  0  0  0  0  0  0  0  0  0  0
    0.8631   -1.2878   -3.4447 H   0  0  0  0  0  0  0  0  0  0  0  0
   -0.8934   -1.2878   -3.4447 H   0  0  0  0  0  0  0  0  0  0  0  0
   -0.0151    0.2628   -3.4459 H   0  0  0  0  0  0  0  0  0  0  0  0
   -0.0151   -1.7475   -1.1003 H   0  0  0  0  0  0  0  0  0  0  0  0
   -0.0151    0.0846    0.2923 H   0  0  0  0  0  0  0  0  0  0  0  0
  1  2  1  0
  1  4  1  0
  1  5  1  0
  1  6  1  0
  2  3  1  0
  2  7  1  0
  3  8  1  0
  9 10  1  0
  9 12  1  0
  9 13  1  0
  9 14  1  0
 10 11  2  3
 10 15  1  0
 11 16  1  0
M  RAD  1   2   2
M  END
>  <reaction>  (6) 
rmg_rxn_16514

>  <mol_properties>  (6) 
{"1": {"label": "*3", "atom_type": "Cs"}, "2": {"label": "*4", "atom_type": "O2s"}, "9": {"label": "*0", "atom_type": "Cd"}, "10": {"label": "*1", "atom_type": "N3d"}, "15": {"label": "*2", "atom_type": "H0"}}

>  <type>  (6) 
unop_2

>  <geom_source>  (6) 
Heuristics

$$$$

     RDKit          3D

 16 14  0  0  0  0  0  0  0  0999 V2000
    0.4384   -1.1722    1.8360 C   0  0  0  0  0  0  0  0  0  0  0  0
   -0.2741    0.1381    1.5562 C   0  0  0  0  0  3  0  0  0  0  0  0
    0.4895    1.2689    1.9281 O   0  0  0  0  0  0  0  0  0  0  0  0
    0.7071   -1.2437    2.8908 H   0  0  0  0  0  0  0  0  0  0  0  0
   -0.2003   -2.0202    1.5807 H   0  0  0  0  0  0  0  0  0  0  0  0
    1.3532   -1.2544    1.2427 H   0  0  0  0  0  0  0  0  0  0  0  0
   -1.1923    0.2003    2.1420 H   0  0  0  0  0  0  0  0  0  0  0  0
    1.3129    1.2541    1.4380 H   0  0  0  0  0  0  0  0  0  0  0  0
   -0.2741   -0.4561   -3.0968 C   0  0  0  0  0  0  0  0  0  0  0  0
   -0.2741   -0.4561   -1.6045 C   0  0  0  0  0  0  0  0  0  0  0  0
   -0.2741    0.6165   -0.9368 N   0  0  0  0  0  0  0  0  0  0  0  0
    0.6042   -0.9861   -3.4742 H   0  0  0  0  0  0  0  0  0  0  0  0
   -1.1524   -0.9861   -3.4742 H   0  0  0  0  0  0  0  0  0  0  0  0
   -0.2741    0.5645   -3.4754 H   0  0  0  0  0  0  0  0  0  0  0  0
   -0.2741   -1.4458   -1.1299 H   0  0  0  0  0  0  0  0  0  0  0  0
   -0.2741    0.3863    0.2628 H   0  0  0  0  0  0  0  0  0  0  0  0
  1  2  1  0
  1  4  1  0
  1  5  1  0
  1  6  1  0
  2  3  1  0
  2  7  1  0
  3  8  1  0
  9 10  1  0
  9 12  1  0
  9 13  1  0
  9 14  1  0
 10 11  2  3
 10 15  1  0
 11 16  1  0
M  RAD  1   2   2
M  END
>  <reaction>  (7) 
rmg_rxn_16514

>  <mol_properties>  (7) 
{"1": {"label": "*3", "atom_type": "Cs"}, "2": {"label": "*4", "atom_type": "O2s"}, "9": {"label": "*0", "atom_type": "Cd"}, "10": {"label": "*1", "atom_type": "N3d"}, "15": {"label": "*2", "atom_type": "H0"}}

>  <type>  (7) 
unop_3

>  <geom_source>  (7) 
Heuristics

$$$$

     RDKit          3D

 16 14  0  0  0  0  0  0  0  0999 V2000
    0.8561    1.0052    2.2947 C   0  0  0  0  0  0  0  0  0  0  0  0
    0.1436   -0.1086    1.5499 C   0  0  0  0  0  3  0  0  0  0  0  0
   -1.2605    0.0585    1.5241 O   0  0  0  0  0  0  0  0  0  0  0  0
    0.4790    1.0849    3.3152 H   0  0  0  0  0  0  0  0  0  0  0  0
    1.9309    0.8162    2.3340 H   0  0  0  0  0  0  0  0  0  0  0  0
    0.7056    1.9671    1.7973 H   0  0  0  0  0  0  0  0  0  0  0  0
    0.3149   -1.0642    2.0473 H   0  0  0  0  0  0  0  0  0  0  0  0
   -1.4594    0.8928    1.0966 H   0  0  0  0  0  0  0  0  0  0  0  0
    0.1436   -0.7028   -3.1032 C   0  0  0  0  0  0  0  0  0  0  0  0
    0.1436   -0.7028   -1.6109 C   0  0  0  0  0  0  0  0  0  0  0  0
    0.1436    0.3698   -0.9432 N   0  0  0  0  0  0  0  0  0  0  0  0
    1.0218   -1.2328   -3.4806 H   0  0  0  0  0  0  0  0  0  0  0  0
   -0.7347   -1.2328   -3.4806 H   0  0  0  0  0  0  0  0  0  0  0  0
    0.1436    0.3178   -3.4818 H   0  0  0  0  0  0  0  0  0  0  0  0
    0.1436   -1.6925   -1.1362 H   0  0  0  0  0  0  0  0  0  0  0  0
    0.1436    0.1396    0.2564 H   0  0  0  0  0  0  0  0  0  0  0  0
  1  2  1  0
  1  4  1  0
  1  5  1  0
  1  6  1  0
  2  3  1  0
  2  7  1  0
  3  8  1  0
  9 10  1  0
  9 12  1  0
  9 13  1  0
  9 14  1  0
 10 11  2  3
 10 15  1  0
 11 16  1  0
M  RAD  1   2   2
M  END
>  <reaction>  (8) 
rmg_rxn_16514

>  <mol_properties>  (8) 
{"1": {"label": "*3", "atom_type": "Cs"}, "2": {"label": "*4", "atom_type": "O2s"}, "9": {"label": "*0", "atom_type": "Cd"}, "10": {"label": "*1", "atom_type": "N3d"}, "15": {"label": "*2", "atom_type": "H0"}}

>  <type>  (8) 
unop_4

>  <geom_source>  (8) 
Heuristics

$$$$

     RDKit          3D

 16 14  0  0  0  0  0  0  0  0999 V2000
   -1.2190   -0.5007    1.8132 C   0  0  0  0  0  0  0  0  0  0  0  0
    0.0151    0.2974    1.4352 C   0  0  0  0  0  3  0  0  0  0  0  0
    1.0827    0.1224    2.3461 O   0  0  0  0  0  0  0  0  0  0  0  0
   -1.5503   -0.2389    2.8190 H   0  0  0  0  0  0  0  0  0  0  0  0
   -2.0347   -0.3026    1.1149 H   0  0  0  0  0  0  0  0  0  0  0  0
   -1.0134   -1.5743    1.7884 H   0  0  0  0  0  0  0  0  0  0  0  0
   -0.2079    1.3651    1.4485 H   0  0  0  0  0  0  0  0  0  0  0  0
    1.3118   -0.8080    2.3706 H   0  0  0  0  0  0  0  0  0  0  0  0
    0.0151   -0.2969   -3.2179 C   0  0  0  0  0  0  0  0  0  0  0  0
    0.0151   -0.2969   -1.7255 C   0  0  0  0  0  0  0  0  0  0  0  0
    0.0151    0.7757   -1.0578 N   0  0  0  0  0  0  0  0  0  0  0  0
    0.8934   -0.8269   -3.5953 H   0  0  0  0  0  0  0  0  0  0  0  0
   -0.8631   -0.8269   -3.5953 H   0  0  0  0  0  0  0  0  0  0  0  0
    0.0151    0.7237   -3.5964 H   0  0  0  0  0  0  0  0  0  0  0  0
    0.0151   -1.2866   -1.2509 H   0  0  0  0  0  0  0  0  0  0  0  0
    0.0151    0.5456    0.1418 H   0  0  0  0  0  0  0  0  0  0  0  0
  1  2  1  0
  1  4  1  0
  1  5  1  0
  1  6  1  0
  2  3  1  0
  2  7  1  0
  3  8  1  0
  9 10  1  0
  9 12  1  0
  9 13  1  0
  9 14  1  0
 10 11  2  3
 10 15  1  0
 11 16  1  0
M  RAD  1   2   2
M  END
>  <reaction>  (9) 
rmg_rxn_16514

>  <mol_properties>  (9) 
{"1": {"label": "*3", "atom_type": "Cs"}, "2": {"label": "*4", "atom_type": "O2s"}, "9": {"label": "*0", "atom_type": "Cd"}, "10": {"label": "*1", "atom_type": "N3d"}, "15": {"label": "*2", "atom_type": "H0"}}

>  <type>  (9) 
unop_5

>  <geom_source>  (9) 
Heuristics

$$$$

     RDKit          3D

 16 14  0  0  0  0  0  0  0  0999 V2000
    0.2071    1.3548    2.2528 C   0  0  0  0  0  0  0  0  0  0  0  0
    0.2071    0.0536    1.4720 C   0  0  0  0  0  3  0  0  0  0  0  0
   -0.8704   -0.7946    1.8179 O   0  0  0  0  0  0  0  0  0  0  0  0
    0.2276    1.1571    3.3253 H   0  0  0  0  0  0  0  0  0  0  0  0
    1.0782    1.9599    1.9931 H   0  0  0  0  0  0  0  0  0  0  0  0
   -0.6861    1.9448    2.0298 H   0  0  0  0  0  0  0  0  0  0  0  0
    1.1103   -0.5175    1.6913 H   0  0  0  0  0  0  0  0  0  0  0  0
   -1.6906   -0.3300    1.6444 H   0  0  0  0  0  0  0  0  0  0  0  0
    0.2071   -0.5407   -3.1811 C   0  0  0  0  0  0  0  0  0  0  0  0
    0.2071   -0.5407   -1.6888 C   0  0  0  0  0  0  0  0  0  0  0  0
    0.2071    0.5320   -1.0211 N   0  0  0  0  0  0  0  0  0  0  0  0
    1.0853   -1.0707   -3.5585 H   0  0  0  0  0  0  0  0  0  0  0  0
   -0.6712   -1.0707   -3.5585 H   0  0  0  0  0  0  0  0  0  0  0  0
    0.2071    0.4799   -3.5597 H   0  0  0  0  0  0  0  0  0  0  0  0
    0.2071   -1.5304   -1.2141 H   0  0  0  0  0  0  0  0  0  0  0  0
    0.2071    0.3018    0.1785 H   0  0  0  0  0  0  0  0  0  0  0  0
  1  2  1  0
  1  4  1  0
  1  5  1  0
  1  6  1  0
  2  3  1  0
  2  7  1  0
  3  8  1  0
  9 10  1  0
  9 12  1  0
  9 13  1  0
  9 14  1  0
 10 11  2  3
 10 15  1  0
 11 16  1  0
M  RAD  1   2   2
M  END
>  <reaction>  (10) 
rmg_rxn_16514

>  <mol_properties>  (10) 
{"1": {"label": "*3", "atom_type": "Cs"}, "2": {"label": "*4", "atom_type": "O2s"}, "9": {"label": "*0", "atom_type": "Cd"}, "10": {"label": "*1", "atom_type": "N3d"}, "15": {"label": "*2", "atom_type": "H0"}}

>  <type>  (10) 
unop_6

>  <geom_source>  (10) 
Heuristics

$$$$

     RDKit          3D

 16 14  0  0  0  0  0  0  0  0999 V2000
   -1.3527    0.1472    1.9269 C   0  0  0  0  0  0  0  0  0  0  0  0
    0.0724    0.2455    1.4146 C   0  0  0  0  0  3  0  0  0  0  0  0
    1.0170   -0.3099    2.3086 O   0  0  0  0  0  0  0  0  0  0  0  0
   -1.4431    0.6305    2.9006 H   0  0  0  0  0  0  0  0  0  0  0  0
   -2.0454    0.6282    1.2333 H   0  0  0  0  0  0  0  0  0  0  0  0
   -1.6592   -0.8970    2.0325 H   0  0  0  0  0  0  0  0  0  0  0  0
    0.3599    1.2914    1.2987 H   0  0  0  0  0  0  0  0  0  0  0  0
    0.8004   -1.2336    2.4442 H   0  0  0  0  0  0  0  0  0  0  0  0
    0.0724   -0.3487   -3.2385 C   0  0  0  0  0  0  0  0  0  0  0  0
    0.0724   -0.3487   -1.7461 C   0  0  0  0  0  0  0  0  0  0  0  0
    0.0724    0.7239   -1.0785 N   0  0  0  0  0  0  0  0  0  0  0  0
    0.9506   -0.8787   -3.6159 H   0  0  0  0  0  0  0  0  0  0  0  0
   -0.8059   -0.8787   -3.6159 H   0  0  0  0  0  0  0  0  0  0  0  0
    0.0724    0.6719   -3.6171 H   0  0  0  0  0  0  0  0  0  0  0  0
    0.0724   -1.3384   -1.2715 H   0  0  0  0  0  0  0  0  0  0  0  0
    0.0724    0.4937    0.1211 H   0  0  0  0  0  0  0  0  0  0  0  0
  1  2  1  0
  1  4  1  0
  1  5  1  0
  1  6  1  0
  2  3  1  0
  2  7  1  0
  3  8  1  0
  9 10  1  0
  9 12  1  0
  9 13  1  0
  9 14  1  0
 10 11  2  3
 10 15  1  0
 11 16  1  0
M  RAD  1   2   2
M  END
>  <reaction>  (11) 
rmg_rxn_16514

>  <mol_properties>  (11) 
{"1": {"label": "*3", "atom_type": "Cs"}, "2": {"label": "*4", "atom_type": "O2s"}, "9": {"label": "*0", "atom_type": "Cd"}, "10": {"label": "*1", "atom_type": "N3d"}, "15": {"label": "*2", "atom_type": "H0"}}

>  <type>  (11) 
unop_7

>  <geom_source>  (11) 
Heuristics

$$$$

     RDKit          3D

 16 14  0  0  0  0  0  0  0  0999 V2000
   -1.1361    0.8015    2.0522 C   0  0  0  0  0  0  0  0  0  0  0  0
    0.0980    0.2001    1.4057 C   0  0  0  0  0  3  0  0  0  0  0  0
    0.7296   -0.7670    2.2217 O   0  0  0  0  0  0  0  0  0  0  0  0
   -0.8848    1.2452    3.0166 H   0  0  0  0  0  0  0  0  0  0  0  0
   -1.5669    1.5757    1.4140 H   0  0  0  0  0  0  0  0  0  0  0  0
   -1.9033    0.0396    2.2147 H   0  0  0  0  0  0  0  0  0  0  0  0
    0.8485    0.9731    1.2348 H   0  0  0  0  0  0  0  0  0  0  0  0
    0.1023   -1.4686    2.4023 H   0  0  0  0  0  0  0  0  0  0  0  0
    0.0980   -0.3942   -3.2474 C   0  0  0  0  0  0  0  0  0  0  0  0
    0.0980   -0.3942   -1.7551 C   0  0  0  0  0  0  0  0  0  0  0  0
    0.0980    0.6784   -1.0874 N   0  0  0  0  0  0  0  0  0  0  0  0
    0.9763   -0.9242   -3.6248 H   0  0  0  0  0  0  0  0  0  0  0  0
   -0.7803   -0.9242   -3.6248 H   0  0  0  0  0  0  0  0  0  0  0  0
    0.0980    0.6264   -3.6260 H   0  0  0  0  0  0  0  0  0  0  0  0
    0.0980   -1.3839   -1.2804 H   0  0  0  0  0  0  0  0  0  0  0  0
    0.0980    0.4483    0.1122 H   0  0  0  0  0  0  0  0  0  0  0  0
  1  2  1  0
  1  4  1  0
  1  5  1  0
  1  6  1  0
  2  3  1  0
  2  7  1  0
  3  8  1  0
  9 10  1  0
  9 12  1  0
  9 13  1  0
  9 14  1  0
 10 11  2  3
 10 15  1  0
 11 16  1  0
M  RAD  1   2   2
M  END
>  <reaction>  (12) 
rmg_rxn_16514

>  <mol_properties>  (12) 
{"1": {"label": "*3", "atom_type": "Cs"}, "2": {"label": "*4", "atom_type": "O2s"}, "9": {"label": "*0", "atom_type": "Cd"}, "10": {"label": "*1", "atom_type": "N3d"}, "15": {"label": "*2", "atom_type": "H0"}}

>  <type>  (12) 
unop_8

>  <geom_source>  (12) 
Heuristics

$$$$

     RDKit          3D

 16 14  0  0  0  0  0  0  0  0999 V2000
    1.2632   -0.2151    2.1063 C   0  0  0  0  0  0  0  0  0  0  0  0
   -0.1619   -0.1168    1.5941 C   0  0  0  0  0  3  0  0  0  0  0  0
   -0.6408    1.2132    1.5542 O   0  0  0  0  0  0  0  0  0  0  0  0
    1.3447    0.2323    3.0978 H   0  0  0  0  0  0  0  0  0  0  0  0
    1.5794   -1.2585    2.1676 H   0  0  0  0  0  0  0  0  0  0  0  0
    1.9558    0.3036    1.4380 H   0  0  0  0  0  0  0  0  0  0  0  0
   -0.8398   -0.6514    2.2609 H   0  0  0  0  0  0  0  0  0  0  0  0
   -0.0696    1.7247    0.9791 H   0  0  0  0  0  0  0  0  0  0  0  0
   -0.1619   -0.7111   -3.0590 C   0  0  0  0  0  0  0  0  0  0  0  0
   -0.1619   -0.7111   -1.5667 C   0  0  0  0  0  0  0  0  0  0  0  0
   -0.1619    0.3615   -0.8990 N   0  0  0  0  0  0  0  0  0  0  0  0
    0.7164   -1.2411   -3.4364 H   0  0  0  0  0  0  0  0  0  0  0  0
   -1.0401   -1.2411   -3.4364 H   0  0  0  0  0  0  0  0  0  0  0  0
   -0.1619    0.3095   -3.4376 H   0  0  0  0  0  0  0  0  0  0  0  0
   -0.1619   -1.7008   -1.0920 H   0  0  0  0  0  0  0  0  0  0  0  0
   -0.1619    0.1313    0.3006 H   0  0  0  0  0  0  0  0  0  0  0  0
  1  2  1  0
  1  4  1  0
  1  5  1  0
  1  6  1  0
  2  3  1  0
  2  7  1  0
  3  8  1  0
  9 10  1  0
  9 12  1  0
  9 13  1  0
  9 14  1  0
 10 11  2  3
 10 15  1  0
 11 16  1  0
M  RAD  1   2   2
M  END
>  <reaction>  (13) 
rmg_rxn_16514

>  <mol_properties>  (13) 
{"1": {"label": "*3", "atom_type": "Cs"}, "2": {"label": "*4", "atom_type": "O2s"}, "9": {"label": "*0", "atom_type": "Cd"}, "10": {"label": "*1", "atom_type": "N3d"}, "15": {"label": "*2", "atom_type": "H0"}}

>  <type>  (13) 
unop_9

>  <geom_source>  (13) 
Heuristics

$$$$

     RDKit          3D

 16 14  0  0  0  0  0  0  0  0999 V2000
    2.4451   -0.9101   -0.2931 C   0  0  0  0  0  0  0  0  0  0  0  0
    1.4978    0.0147    0.4286 C   0  0  0  0  0  3  0  0  0  0  0  0
    1.4233    1.3132   -0.0736 O   0  0  0  0  0  0  0  0  0  0  0  0
    3.4742   -0.5482   -0.2257 H   0  0  0  0  0  0  0  0  0  0  0  0
    2.3977   -1.9014    0.1481 H   0  0  0  0  0  0  0  0  0  0  0  0
    2.1774   -0.9883   -1.3468 H   0  0  0  0  0  0  0  0  0  0  0  0
    1.6737    0.0856    1.5004 H   0  0  0  0  0  0  0  0  0  0  0  0
    1.4865    1.2797   -1.0356 H   0  0  0  0  0  0  0  0  0  0  0  0
   -3.1251    0.0467   -0.1551 C   0  0  0  0  0  0  0  0  0  0  0  0
   -1.6458    0.1652    0.0474 C   0  0  0  0  0  0  0  0  0  0  0  0
   -0.8976   -0.8209    0.1434 N   0  0  0  0  0  0  0  0  0  0  0  0
   -3.4079    0.5544   -1.0761 H   0  0  0  0  0  0  0  0  0  0  0  0
   -3.4166   -0.9985   -0.2072 H   0  0  0  0  0  0  0  0  0  0  0  0
   -3.6415    0.5312    0.6721 H   0  0  0  0  0  0  0  0  0  0  0  0
   -1.2845    1.2044    0.1032 H   0  0  0  0  0  0  0  0  0  0  0  0
    0.2879   -0.5109    0.3118 H   0  0  0  0  0  0  0  0  0  0  0  0
  1  2  1  0
  1  4  1  0
  1  5  1  0
  1  6  1  0
  2  3  1  0
  2  7  1  0
  3  8  1  0
  9 10  1  0
  9 12  1  0
  9 13  1  0
  9 14  1  0
 10 11  2  3
 10 15  1  0
 11 16  1  0
M  RAD  1   2   2
M  END
>  <reaction>  (14) 
rmg_rxn_16514

>  <mol_properties>  (14) 
{"1": {"label": "*3", "atom_type": "Cs"}, "2": {"label": "*4", "atom_type": "O2s"}, "9": {"label": "*0", "atom_type": "Cd"}, "10": {"label": "*1", "atom_type": "N3d"}, "15": {"label": "*2", "atom_type": "H0"}}

>  <type>  (14) 
unop_10

>  <geom_source>  (14) 
Heuristics

$$$$

     RDKit          3D

 16 14  0  0  0  0  0  0  0  0999 V2000
   -0.8015   -0.9936    1.7475 C   0  0  0  0  0  0  0  0  0  0  0  0
   -0.0890    0.3167    1.4678 C   0  0  0  0  0  3  0  0  0  0  0  0
    1.0367    0.5184    2.2998 O   0  0  0  0  0  0  0  0  0  0  0  0
   -1.1061   -1.0474    2.7936 H   0  0  0  0  0  0  0  0  0  0  0  0
   -1.6900   -1.0905    1.1203 H   0  0  0  0  0  0  0  0  0  0  0  0
   -0.1503   -1.8460    1.5357 H   0  0  0  0  0  0  0  0  0  0  0  0
   -0.7544    1.1577    1.6679 H   0  0  0  0  0  0  0  0  0  0  0  0
    1.6512   -0.2036    2.1599 H   0  0  0  0  0  0  0  0  0  0  0  0
   -0.0890   -0.2776   -3.1853 C   0  0  0  0  0  0  0  0  0  0  0  0
   -0.0890   -0.2776   -1.6929 C   0  0  0  0  0  0  0  0  0  0  0  0
   -0.0890    0.7951   -1.0252 N   0  0  0  0  0  0  0  0  0  0  0  0
    0.7893   -0.8076   -3.5627 H   0  0  0  0  0  0  0  0  0  0  0  0
   -0.9672   -0.8076   -3.5627 H   0  0  0  0  0  0  0  0  0  0  0  0
   -0.0890    0.7430   -3.5639 H   0  0  0  0  0  0  0  0  0  0  0  0
   -0.0890   -1.2673   -1.2183 H   0  0  0  0  0  0  0  0  0  0  0  0
   -0.0890    0.5649    0.1743 H   0  0  0  0  0  0  0  0  0  0  0  0
  1  2  1  0
  1  4  1  0
  1  5  1  0
  1  6  1  0
  2  3  1  0
  2  7  1  0
  3  8  1  0
  9 10  1  0
  9 12  1  0
  9 13  1  0
  9 14  1  0
 10 11  2  3
 10 15  1  0
 11 16  1  0
M  RAD  1   2   2
M  END
>  <reaction>  (15) 
rmg_rxn_16514

>  <mol_properties>  (15) 
{"1": {"label": "*3", "atom_type": "Cs"}, "2": {"label": "*4", "atom_type": "O2s"}, "9": {"label": "*0", "atom_type": "Cd"}, "10": {"label": "*1", "atom_type": "N3d"}, "15": {"label": "*2", "atom_type": "H0"}}

>  <type>  (15) 
unop_11

>  <geom_source>  (15) 
Heuristics

$$$$

     RDKit          3D

 16 14  0  0  0  0  0  0  0  0999 V2000
    0.9780   -0.8025    1.9627 C   0  0  0  0  0  0  0  0  0  0  0  0
   -0.2561   -0.0045    1.5847 C   0  0  0  0  0  3  0  0  0  0  0  0
   -0.0698    1.3911    1.7177 O   0  0  0  0  0  0  0  0  0  0  0  0
    1.2855   -0.5706    2.9833 H   0  0  0  0  0  0  0  0  0  0  0  0
    0.7801   -1.8741    1.8932 H   0  0  0  0  0  0  0  0  0  0  0  0
    1.8117   -0.5742    1.2932 H   0  0  0  0  0  0  0  0  0  0  0  0
   -1.0841   -0.2532    2.2500 H   0  0  0  0  0  0  0  0  0  0  0  0
    0.6555    1.6563    1.1502 H   0  0  0  0  0  0  0  0  0  0  0  0
   -0.2561   -0.5987   -3.0684 C   0  0  0  0  0  0  0  0  0  0  0  0
   -0.2561   -0.5987   -1.5760 C   0  0  0  0  0  0  0  0  0  0  0  0
   -0.2561    0.4739   -0.9084 N   0  0  0  0  0  0  0  0  0  0  0  0
    0.6222   -1.1287   -3.4458 H   0  0  0  0  0  0  0  0  0  0  0  0
   -1.1343   -1.1287   -3.4458 H   0  0  0  0  0  0  0  0  0  0  0  0
   -0.2561    0.4219   -3.4470 H   0  0  0  0  0  0  0  0  0  0  0  0
   -0.2561   -1.5884   -1.1014 H   0  0  0  0  0  0  0  0  0  0  0  0
   -0.2561    0.2437    0.2912 H   0  0  0  0  0  0  0  0  0  0  0  0
  1  2  1  0
  1  4  1  0
  1  5  1  0
  1  6  1  0
  2  3  1  0
  2  7  1  0
  3  8  1  0
  9 10  1  0
  9 12  1  0
  9 13  1  0
  9 14  1  0
 10 11  2  3
 10 15  1  0
 11 16  1  0
M  RAD  1   2   2
M  END
>  <reaction>  (16) 
rmg_rxn_16514

>  <mol_properties>  (16) 
{"1": {"label": "*3", "atom_type": "Cs"}, "2": {"label": "*4", "atom_type": "O2s"}, "9": {"label": "*0", "atom_type": "Cd"}, "10": {"label": "*1", "atom_type": "N3d"}, "15": {"label": "*2", "atom_type": "H0"}}

>  <type>  (16) 
unop_12

>  <geom_source>  (16) 
Heuristics

$$$$

     RDKit          3D

 16 14  0  0  0  0  0  0  0  0999 V2000
   -0.5730    1.2760    2.1606 C   0  0  0  0  0  0  0  0  0  0  0  0
    0.1396    0.1623    1.4158 C   0  0  0  0  0  3  0  0  0  0  0  0
    0.0704   -1.0800    2.0880 O   0  0  0  0  0  0  0  0  0  0  0  0
   -0.1678    1.3826    3.1677 H   0  0  0  0  0  0  0  0  0  0  0  0
   -0.4567    2.2264    1.6356 H   0  0  0  0  0  0  0  0  0  0  0  0
   -1.6436    1.0698    2.2417 H   0  0  0  0  0  0  0  0  0  0  0  0
    1.2032    0.3880    1.3281 H   0  0  0  0  0  0  0  0  0  0  0  0
   -0.8521   -1.3184    2.1917 H   0  0  0  0  0  0  0  0  0  0  0  0
    0.1396   -0.4320   -3.2373 C   0  0  0  0  0  0  0  0  0  0  0  0
    0.1396   -0.4320   -1.7450 C   0  0  0  0  0  0  0  0  0  0  0  0
    0.1396    0.6406   -1.0773 N   0  0  0  0  0  0  0  0  0  0  0  0
    1.0178   -0.9620   -3.6147 H   0  0  0  0  0  0  0  0  0  0  0  0
   -0.7387   -0.9620   -3.6147 H   0  0  0  0  0  0  0  0  0  0  0  0
    0.1396    0.5886   -3.6159 H   0  0  0  0  0  0  0  0  0  0  0  0
    0.1396   -1.4217   -1.2703 H   0  0  0  0  0  0  0  0  0  0  0  0
    0.1396    0.4105    0.1223 H   0  0  0  0  0  0  0  0  0  0  0  0
  1  2  1  0
  1  4  1  0
  1  5  1  0
  1  6  1  0
  2  3  1  0
  2  7  1  0
  3  8  1  0
  9 10  1  0
  9 12  1  0
  9 13  1  0
  9 14  1  0
 10 11  2  3
 10 15  1  0
 11 16  1  0
M  RAD  1   2   2
M  END
>  <reaction>  (17) 
rmg_rxn_16514

>  <mol_properties>  (17) 
{"1": {"label": "*3", "atom_type": "Cs"}, "2": {"label": "*4", "atom_type": "O2s"}, "9": {"label": "*0", "atom_type": "Cd"}, "10": {"label": "*1", "atom_type": "N3d"}, "15": {"label": "*2", "atom_type": "H0"}}

>  <type>  (17) 
unop_13

>  <geom_source>  (17) 
Heuristics

$$$$

     RDKit          3D

 16 14  0  0  0  0  0  0  0  0999 V2000
   -0.2071   -1.2355    1.7558 C   0  0  0  0  0  0  0  0  0  0  0  0
   -0.2071    0.2623    1.5120 C   0  0  0  0  0  3  0  0  0  0  0  0
    0.8704    0.9222    2.1473 O   0  0  0  0  0  0  0  0  0  0  0  0
   -0.2276   -1.4488    2.8253 H   0  0  0  0  0  0  0  0  0  0  0  0
   -1.0782   -1.7016    1.2906 H   0  0  0  0  0  0  0  0  0  0  0  0
    0.6860   -1.7011    1.3303 H   0  0  0  0  0  0  0  0  0  0  0  0
   -1.1103    0.7116    1.9272 H   0  0  0  0  0  0  0  0  0  0  0  0
    1.6906    0.5548    1.8141 H   0  0  0  0  0  0  0  0  0  0  0  0
   -0.2071   -0.3320   -3.1411 C   0  0  0  0  0  0  0  0  0  0  0  0
   -0.2071   -0.3320   -1.6487 C   0  0  0  0  0  0  0  0  0  0  0  0
   -0.2071    0.7406   -0.9811 N   0  0  0  0  0  0  0  0  0  0  0  0
    0.6712   -0.8620   -3.5185 H   0  0  0  0  0  0  0  0  0  0  0  0
   -1.0853   -0.8620   -3.5185 H   0  0  0  0  0  0  0  0  0  0  0  0
   -0.2071    0.6886   -3.5197 H   0  0  0  0  0  0  0  0  0  0  0  0
   -0.2071   -1.3217   -1.1741 H   0  0  0  0  0  0  0  0  0  0  0  0
   -0.2071    0.5105    0.2185 H   0  0  0  0  0  0  0  0  0  0  0  0
  1  2  1  0
  1  4  1  0
  1  5  1  0
  1  6  1  0
  2  3  1  0
  2  7  1  0
  3  8  1  0
  9 10  1  0
  9 12  1  0
  9 13  1  0
  9 14  1  0
 10 11  2  3
 10 15  1  0
 11 16  1  0
M  RAD  1   2   2
M  END
>  <reaction>  (18) 
rmg_rxn_16514

>  <mol_properties>  (18) 
{"1": {"label": "*3", "atom_type": "Cs"}, "2": {"label": "*4", "atom_type": "O2s"}, "9": {"label": "*0", "atom_type": "Cd"}, "10": {"label": "*1", "atom_type": "N3d"}, "15": {"label": "*2", "atom_type": "H0"}}

>  <type>  (18) 
unop_14

>  <geom_source>  (18) 
Heuristics

$$$$

     RDKit          3D

 16 14  0  0  0  0  0  0  0  0999 V2000
    0.4384   -1.1722    1.8360 C   0  0  0  0  0  0  0  0  0  0  0  0
   -0.2741    0.1381    1.5562 C   0  0  0  0  0  3  0  0  0  0  0  0
    0.4895    1.2689    1.9282 O   0  0  0  0  0  0  0  0  0  0  0  0
    0.7071   -1.2437    2.8908 H   0  0  0  0  0  0  0  0  0  0  0  0
   -0.2003   -2.0202    1.5807 H   0  0  0  0  0  0  0  0  0  0  0  0
    1.3532   -1.2544    1.2427 H   0  0  0  0  0  0  0  0  0  0  0  0
   -1.1923    0.2003    2.1420 H   0  0  0  0  0  0  0  0  0  0  0  0
    1.3129    1.2541    1.4380 H   0  0  0  0  0  0  0  0  0  0  0  0
   -0.2741   -0.4561   -3.0968 C   0  0  0  0  0  0  0  0  0  0  0  0
   -0.2741   -0.4561   -1.6045 C   0  0  0  0  0  0  0  0  0  0  0  0
   -0.2741    0.6165   -0.9368 N   0  0  0  0  0  0  0  0  0  0  0  0
    0.6042   -0.9861   -3.4743 H   0  0  0  0  0  0  0  0  0  0  0  0
   -1.1523   -0.9861   -3.4743 H   0  0  0  0  0  0  0  0  0  0  0  0
   -0.2741    0.5645   -3.4754 H   0  0  0  0  0  0  0  0  0  0  0  0
   -0.2741   -1.4458   -1.1299 H   0  0  0  0  0  0  0  0  0  0  0  0
   -0.2741    0.3863    0.2628 H   0  0  0  0  0  0  0  0  0  0  0  0
  1  2  1  0
  1  4  1  0
  1  5  1  0
  1  6  1  0
  2  3  1  0
  2  7  1  0
  3  8  1  0
  9 10  1  0
  9 12  1  0
  9 13  1  0
  9 14  1  0
 10 11  2  3
 10 15  1  0
 11 16  1  0
M  RAD  1   2   2
M  END
>  <reaction>  (19) 
rmg_rxn_16514

>  <mol_properties>  (19) 
{"1": {"label": "*3", "atom_type": "Cs"}, "2": {"label": "*4", "atom_type": "O2s"}, "9": {"label": "*0", "atom_type": "Cd"}, "10": {"label": "*1", "atom_type": "N3d"}, "15": {"label": "*2", "atom_type": "H0"}}

>  <type>  (19) 
unop_15

>  <geom_source>  (19) 
gaussian_log

$$$$
