
     RDKit          3D

  9  8  0  0  0  0  0  0  0  0999 V2000
   -1.5470   -0.0755   -0.1976 C   0  0  0  0  0  0  0  0  0  0  0  0
   -0.2885    0.4507    0.1749 O   0  0  0  0  0  0  0  0  0  0  0  0
   -0.1502    1.7216   -0.3294 N   0  0  0  0  0  0  0  0  0  0  0  0
    0.9626    2.2353   -0.0219 C   0  0  0  0  0  0  0  0  0  0  0  0
   -1.6392   -0.1356   -1.2844 H   0  0  0  0  0  0  0  0  0  0  0  0
   -2.3597    0.5337    0.2044 H   0  0  0  0  0  0  0  0  0  0  0  0
   -1.5879   -1.0750    0.2318 H   0  0  0  0  0  0  0  0  0  0  0  0
    1.1497    3.2381   -0.3820 H   0  0  0  0  0  0  0  0  0  0  0  0
    1.7060    1.7101    0.5739 H   0  0  0  0  0  0  0  0  0  0  0  0
  1  2  1  0
  1  5  1  0
  1  6  1  0
  1  7  1  0
  2  3  1  0
  3  4  2  3
  4  8  1  0
  4  9  1  0
M  END
>  <reaction>  (1) 
rmg_rxn_15602

>  <mol_properties>  (1) 
{"0": {"label": "donator", "atom_type": "Cs"}, "4": {"label": "d_hydrogen", "atom_type": "H0"}}

>  <type>  (1) 
r1h

$$$$

     RDKit          3D

 13 12  0  0  0  0  0  0  0  0999 V2000
    2.0654   -0.2739   -0.0844 C   0  0  0  0  0  3  0  0  0  0  0  0
    0.6326   -0.4110   -0.4406 C   0  0  0  0  0  0  0  0  0  0  0  0
   -0.3055    0.4151    0.4359 C   0  0  0  0  0  0  0  0  0  0  0  0
   -1.7714    0.2357    0.0671 C   0  0  0  0  0  0  0  0  0  0  0  0
    2.3610    0.0676    0.8995 H   0  0  0  0  0  0  0  0  0  0  0  0
    2.8408   -0.6127   -0.7582 H   0  0  0  0  0  0  0  0  0  0  0  0
    0.3313   -1.4695   -0.3768 H   0  0  0  0  0  0  0  0  0  0  0  0
    0.4826   -0.1432   -1.4940 H   0  0  0  0  0  0  0  0  0  0  0  0
   -0.1518    0.1351    1.4826 H   0  0  0  0  0  0  0  0  0  0  0  0
   -0.0303    1.4705    0.3565 H   0  0  0  0  0  0  0  0  0  0  0  0
   -2.0768   -0.8084    0.1692 H   0  0  0  0  0  0  0  0  0  0  0  0
   -1.9546    0.5339   -0.9679 H   0  0  0  0  0  0  0  0  0  0  0  0
   -2.4194    0.8370    0.7066 H   0  0  0  0  0  0  0  0  0  0  0  0
  1  2  1  0
  1  5  1  0
  1  6  1  0
  2  3  1  0
  2  7  1  0
  2  8  1  0
  3  4  1  0
  3  9  1  0
  3 10  1  0
  4 11  1  0
  4 12  1  0
  4 13  1  0
M  RAD  1   1   2
M  END
>  <reaction>  (2) 
rmg_rxn_15602

>  <mol_properties>  (2) 
{"0": {"label": "acceptor", "atom_type": "Cs"}}

>  <type>  (2) 
r2

$$$$

     RDKit          3D

 14 13  0  0  0  0  0  0  0  0999 V2000
    1.8106   -0.5953    0.5577 C   0  0  0  0  0  0  0  0  0  0  0  0
    0.5197    0.2064    0.6554 C   0  0  0  0  0  0  0  0  0  0  0  0
   -0.5206   -0.2080   -0.3788 C   0  0  0  0  0  0  0  0  0  0  0  0
   -1.8114    0.5937   -0.2812 C   0  0  0  0  0  0  0  0  0  0  0  0
    2.2725   -0.4752   -0.4251 H   0  0  0  0  0  0  0  0  0  0  0  0
    1.6214   -1.6612    0.7052 H   0  0  0  0  0  0  0  0  0  0  0  0
    2.5364   -0.2784    1.3084 H   0  0  0  0  0  0  0  0  0  0  0  0
    0.0930    0.0950    1.6574 H   0  0  0  0  0  0  0  0  0  0  0  0
    0.7393    1.2723    0.5354 H   0  0  0  0  0  0  0  0  0  0  0  0
   -0.7402   -1.2739   -0.2588 H   0  0  0  0  0  0  0  0  0  0  0  0
   -0.0938   -0.0965   -1.3808 H   0  0  0  0  0  0  0  0  0  0  0  0
   -1.6222    1.6596   -0.4287 H   0  0  0  0  0  0  0  0  0  0  0  0
   -2.2734    0.4736    0.7017 H   0  0  0  0  0  0  0  0  0  0  0  0
   -2.5373    0.2768   -1.0318 H   0  0  0  0  0  0  0  0  0  0  0  0
  1  2  1  0
  1  5  1  0
  1  6  1  0
  1  7  1  0
  2  3  1  0
  2  8  1  0
  2  9  1  0
  3  4  1  0
  3 10  1  0
  3 11  1  0
  4 12  1  0
  4 13  1  0
  4 14  1  0
M  END
>  <reaction>  (3) 
rmg_rxn_15602

>  <mol_properties>  (3) 
{"0": {"label": "a_hydrogen", "atom_type": "H0"}, "1": {"label": "acceptor", "atom_type": "Cs"}}

>  <type>  (3) 
r2h

$$$$

     RDKit          3D

 22 20  0  0  0  0  0  0  0  0999 V2000
   -1.4681    1.4277   -0.6162 C   0  0  0  0  0  0  0  0  0  0  0  0
   -1.9059    0.4070    0.2238 O   0  0  0  0  0  0  0  0  0  0  0  0
   -1.4960   -0.8223   -0.2386 N   0  0  0  0  0  0  0  0  0  0  0  0
   -1.7595   -1.7468    0.5819 C   0  0  0  0  0  0  0  0  0  0  0  0
   -0.2130    1.7440   -0.2902 H   0  0  0  0  0  0  0  0  0  0  0  0
   -2.0610    2.3147   -0.4064 H   0  0  0  0  0  0  0  0  0  0  0  0
   -1.4606    1.1346   -1.6651 H   0  0  0  0  0  0  0  0  0  0  0  0
   -1.4822   -2.7490    0.2839 H   0  0  0  0  0  0  0  0  0  0  0  0
   -2.2421   -1.5625    1.5389 H   0  0  0  0  0  0  0  0  0  0  0  0
    1.0483    1.9747    0.1920 C   0  0  0  0  0  3  0  0  0  0  0  0
    1.5945    0.6328    0.6012 C   0  0  0  0  0  0  0  0  0  0  0  0
    1.8732   -0.2900   -0.5801 C   0  0  0  0  0  0  0  0  0  0  0  0
    2.3379   -1.6736   -0.1494 C   0  0  0  0  0  0  0  0  0  0  0  0
    1.5706    2.4512   -0.6377 H   0  0  0  0  0  0  0  0  0  0  0  0
    0.8666    2.6698    1.0100 H   0  0  0  0  0  0  0  0  0  0  0  0
    0.8867    0.1453    1.2811 H   0  0  0  0  0  0  0  0  0  0  0  0
    2.5190    0.7654    1.1791 H   0  0  0  0  0  0  0  0  0  0  0  0
    0.9639   -0.3843   -1.1792 H   0  0  0  0  0  0  0  0  0  0  0  0
    2.6284    0.1721   -1.2240 H   0  0  0  0  0  0  0  0  0  0  0  0
    2.5439   -2.3123   -1.0097 H   0  0  0  0  0  0  0  0  0  0  0  0
    1.5721   -2.1651    0.4561 H   0  0  0  0  0  0  0  0  0  0  0  0
    3.2490   -1.6165    0.4515 H   0  0  0  0  0  0  0  0  0  0  0  0
  1  2  1  0
  1  5  1  0
  1  6  1  0
  1  7  1  0
  2  3  1  0
  3  4  2  3
  4  8  1  0
  4  9  1  0
 10 11  1  0
 10 14  1  0
 10 15  1  0
 11 12  1  0
 11 16  1  0
 11 17  1  0
 12 13  1  0
 12 18  1  0
 12 19  1  0
 13 20  1  0
 13 21  1  0
 13 22  1  0
M  RAD  1  10   2
M  END
>  <reaction>  (4) 
rmg_rxn_15602

>  <mol_properties>  (4) 
{"0": {"label": "*1", "atom_type": "Cs"}, "1": {"label": "*0", "atom_type": "O2s"}, "4": {"label": "*2", "atom_type": "H0"}, "9": {"label": "*3", "atom_type": "Cs"}, "10": {"label": "*4", "atom_type": "Cs"}}

>  <type>  (4) 
ts

$$$$

     RDKit          3D

 22 20  0  0  0  0  0  0  0  0999 V2000
   -1.4441   -1.5124   -0.4513 C   0  0  0  0  0  3  0  0  0  0  0  0
   -1.8764   -0.4259    0.2850 O   0  0  0  0  0  0  0  0  0  0  0  0
   -1.5998    0.7784   -0.3277 N   0  0  0  0  0  0  0  0  0  0  0  0
   -1.8983    1.8154    0.3311 C   0  0  0  0  0  0  0  0  0  0  0  0
   -0.1485   -1.7597   -0.1557 H   0  0  0  0  0  0  0  0  0  0  0  0
   -1.4598   -1.3432   -1.5247 H   0  0  0  0  0  0  0  0  0  0  0  0
   -1.9988   -2.3863   -0.1289 H   0  0  0  0  0  0  0  0  0  0  0  0
   -1.6891    2.7584   -0.1409 H   0  0  0  0  0  0  0  0  0  0  0  0
   -2.3456    1.8044    1.3202 H   0  0  0  0  0  0  0  0  0  0  0  0
    1.0930   -1.9727    0.1500 C   0  0  0  0  0  0  0  0  0  0  0  0
    1.7053   -0.6675    0.5900 C   0  0  0  0  0  0  0  0  0  0  0  0
    1.7474    0.3668   -0.5333 C   0  0  0  0  0  0  0  0  0  0  0  0
    2.3681    1.6785   -0.0693 C   0  0  0  0  0  0  0  0  0  0  0  0
    1.0671   -2.7174    0.9383 H   0  0  0  0  0  0  0  0  0  0  0  0
    1.5440   -2.3728   -0.7521 H   0  0  0  0  0  0  0  0  0  0  0  0
    2.7274   -0.8448    0.9477 H   0  0  0  0  0  0  0  0  0  0  0  0
    1.1367   -0.2643    1.4325 H   0  0  0  0  0  0  0  0  0  0  0  0
    2.3246   -0.0337   -1.3700 H   0  0  0  0  0  0  0  0  0  0  0  0
    0.7315    0.5572   -0.8854 H   0  0  0  0  0  0  0  0  0  0  0  0
    3.3872    1.5212    0.2793 H   0  0  0  0  0  0  0  0  0  0  0  0
    1.7891    2.1035    0.7481 H   0  0  0  0  0  0  0  0  0  0  0  0
    2.3912    2.3995   -0.8830 H   0  0  0  0  0  0  0  0  0  0  0  0
  1  2  1  0
  1  6  1  0
  1  7  1  0
  2  3  1  0
  3  4  2  3
  4  8  1  0
  4  9  1  0
  5 10  1  0
 10 11  1  0
 10 14  1  0
 10 15  1  0
 11 12  1  0
 11 16  1  0
 11 17  1  0
 12 13  1  0
 12 18  1  0
 12 19  1  0
 13 20  1  0
 13 21  1  0
 13 22  1  0
M  RAD  1   1   2
M  END
>  <reaction>  (5) 
rmg_rxn_15602

>  <mol_properties>  (5) 
{"0": {"label": "*1", "atom_type": "Cs"}, "1": {"label": "*0", "atom_type": "O2s"}, "4": {"label": "*2", "atom_type": "H0"}, "9": {"label": "*3", "atom_type": "Cs"}, "10": {"label": "*4", "atom_type": "Cs"}}

>  <type>  (5) 
unop_1

>  <geom_source>  (5) 
crest_best.xyz

$$$$

     RDKit          3D

 22 20  0  0  0  0  0  0  0  0999 V2000
   -1.6161    0.6206   -0.3845 C   0  0  0  0  0  3  0  0  0  0  0  0
   -1.6161    0.6785   -1.7974 O   0  0  0  0  0  0  0  0  0  0  0  0
   -1.6161   -0.5954   -2.3131 N   0  0  0  0  0  0  0  0  0  0  0  0
   -1.6161   -0.5954   -3.5767 C   0  0  0  0  0  0  0  0  0  0  0  0
   -0.5455    0.0084    0.0596 H   0  0  0  0  0  0  0  0  0  0  0  0
   -2.5082    0.1104   -0.0144 H   0  0  0  0  0  0  0  0  0  0  0  0
   -1.6161    1.6555   -0.0467 H   0  0  0  0  0  0  0  0  0  0  0  0
   -1.6161   -1.5624   -4.0616 H   0  0  0  0  0  0  0  0  0  0  0  0
   -1.6161    0.3211   -4.1629 H   0  0  0  0  0  0  0  0  0  0  0  0
    0.5240   -0.6031    0.5033 C   0  0  0  0  0  0  0  0  0  0  0  0
    1.3536    0.3036    1.4024 C   0  0  0  0  0  0  0  0  0  0  0  0
    1.9301   -0.4212    2.6131 C   0  0  0  0  0  0  0  0  0  0  0  0
    2.7596    0.4855    3.5122 C   0  0  0  0  0  0  0  0  0  0  0  0
   -0.3195   -1.0311    1.0503 H   0  0  0  0  0  0  0  0  0  0  0  0
    1.1249   -1.4323    0.1223 H   0  0  0  0  0  0  0  0  0  0  0  0
    0.7390    1.1420    1.7459 H   0  0  0  0  0  0  0  0  0  0  0  0
    2.1728    0.7437    0.8247 H   0  0  0  0  0  0  0  0  0  0  0  0
    1.1108   -0.8614    3.1908 H   0  0  0  0  0  0  0  0  0  0  0  0
    2.5446   -1.2597    2.2697 H   0  0  0  0  0  0  0  0  0  0  0  0
    2.1587    1.3147    3.8932 H   0  0  0  0  0  0  0  0  0  0  0  0
    3.6031    0.9134    2.9653 H   0  0  0  0  0  0  0  0  0  0  0  0
    3.1594   -0.0582    4.3697 H   0  0  0  0  0  0  0  0  0  0  0  0
  1  2  1  0
  1  6  1  0
  1  7  1  0
  2  3  1  0
  3  4  2  3
  4  8  1  0
  4  9  1  0
  5 10  1  0
 10 11  1  0
 10 14  1  0
 10 15  1  0
 11 12  1  0
 11 16  1  0
 11 17  1  0
 12 13  1  0
 12 18  1  0
 12 19  1  0
 13 20  1  0
 13 21  1  0
 13 22  1  0
M  RAD  1   1   2
M  END
>  <reaction>  (6) 
rmg_rxn_15602

>  <mol_properties>  (6) 
{"0": {"label": "*1", "atom_type": "Cs"}, "1": {"label": "*0", "atom_type": "O2s"}, "4": {"label": "*2", "atom_type": "H0"}, "9": {"label": "*3", "atom_type": "Cs"}, "10": {"label": "*4", "atom_type": "Cs"}}

>  <type>  (6) 
unop_2

>  <geom_source>  (6) 
Heuristics

$$$$

     RDKit          3D

 22 20  0  0  0  0  0  0  0  0999 V2000
   -0.8975   -1.5755    0.8909 C   0  0  0  0  0  3  0  0  0  0  0  0
   -1.5538   -1.0086   -0.1321 O   0  0  0  0  0  0  0  0  0  0  0  0
   -2.0937    0.2250    0.1441 N   0  0  0  0  0  0  0  0  0  0  0  0
   -2.6646    0.8037   -0.8334 C   0  0  0  0  0  0  0  0  0  0  0  0
    0.4497    2.8575    0.2973 H   0  0  0  0  0  0  0  0  0  0  0  0
   -0.9751   -1.1459    1.8724 H   0  0  0  0  0  0  0  0  0  0  0  0
   -0.6329   -2.5993    0.7173 H   0  0  0  0  0  0  0  0  0  0  0  0
   -3.0915    1.7689   -0.6325 H   0  0  0  0  0  0  0  0  0  0  0  0
   -2.7421    0.3831   -1.8306 H   0  0  0  0  0  0  0  0  0  0  0  0
    0.8581    1.9347    0.7134 C   0  0  0  0  0  0  0  0  0  0  0  0
    1.5957    1.0872   -0.3041 C   0  0  0  0  0  0  0  0  0  0  0  0
    2.0109   -0.2603    0.2807 C   0  0  0  0  0  0  0  0  0  0  0  0
    2.7420   -1.1255   -0.7368 C   0  0  0  0  0  0  0  0  0  0  0  0
    1.4515    2.1433    1.5949 H   0  0  0  0  0  0  0  0  0  0  0  0
   -0.1046    1.5501    0.9749 H   0  0  0  0  0  0  0  0  0  0  0  0
    2.4850    1.6212   -0.6492 H   0  0  0  0  0  0  0  0  0  0  0  0
    0.9535    0.9188   -1.1718 H   0  0  0  0  0  0  0  0  0  0  0  0
    2.6508   -0.0962    1.1508 H   0  0  0  0  0  0  0  0  0  0  0  0
    1.1090   -0.7898    0.6242 H   0  0  0  0  0  0  0  0  0  0  0  0
    3.0279   -2.0780   -0.2960 H   0  0  0  0  0  0  0  0  0  0  0  0
    3.6429   -0.6260   -1.0884 H   0  0  0  0  0  0  0  0  0  0  0  0
    2.1042   -1.3226   -1.5959 H   0  0  0  0  0  0  0  0  0  0  0  0
  1  2  1  0
  1  6  1  0
  1  7  1  0
  2  3  1  0
  3  4  2  3
  4  8  1  0
  4  9  1  0
  5 10  1  0
 10 11  1  0
 10 14  1  0
 10 15  1  0
 11 12  1  0
 11 16  1  0
 11 17  1  0
 12 13  1  0
 12 18  1  0
 12 19  1  0
 13 20  1  0
 13 21  1  0
 13 22  1  0
M  RAD  1   1   2
M  END
>  <reaction>  (7) 
rmg_rxn_15602

>  <mol_properties>  (7) 
{"0": {"label": "*1", "atom_type": "Cs"}, "1": {"label": "*0", "atom_type": "O2s"}, "4": {"label": "*2", "atom_type": "H0"}, "9": {"label": "*3", "atom_type": "Cs"}, "10": {"label": "*4", "atom_type": "Cs"}}

>  <type>  (7) 
unop_3

>  <geom_source>  (7) 
Heuristics

$$$$

     RDKit          3D

 22 20  0  0  0  0  0  0  0  0999 V2000
   -1.4448   -1.5106    0.4544 C   0  0  0  0  0  3  0  0  0  0  0  0
   -1.8793   -0.4253   -0.2822 O   0  0  0  0  0  0  0  0  0  0  0  0
   -1.5978    0.7801    0.3264 N   0  0  0  0  0  0  0  0  0  0  0  0
   -1.8982    1.8159   -0.3333 C   0  0  0  0  0  0  0  0  0  0  0  0
   -0.1503   -1.7586    0.1551 H   0  0  0  0  0  0  0  0  0  0  0  0
   -2.0008   -2.3849    0.1352 H   0  0  0  0  0  0  0  0  0  0  0  0
   -1.4572   -1.3398    1.5276 H   0  0  0  0  0  0  0  0  0  0  0  0
   -1.6855    2.7596    0.1357 H   0  0  0  0  0  0  0  0  0  0  0  0
   -2.3510    1.8034   -1.3199 H   0  0  0  0  0  0  0  0  0  0  0  0
    1.0904   -1.9727   -0.1536 C   0  0  0  0  0  0  0  0  0  0  0  0
    1.7038   -0.6674   -0.5918 C   0  0  0  0  0  0  0  0  0  0  0  0
    1.7507    0.3641    0.5339 C   0  0  0  0  0  0  0  0  0  0  0  0
    2.3709    1.6765    0.0712 C   0  0  0  0  0  0  0  0  0  0  0  0
    1.5425   -2.3755    0.7467 H   0  0  0  0  0  0  0  0  0  0  0  0
    1.0617   -2.7155   -0.9436 H   0  0  0  0  0  0  0  0  0  0  0  0
    1.1337   -0.2610   -1.4317 H   0  0  0  0  0  0  0  0  0  0  0  0
    2.7246   -0.8456   -0.9527 H   0  0  0  0  0  0  0  0  0  0  0  0
    0.7363    0.5543    0.8902 H   0  0  0  0  0  0  0  0  0  0  0  0
    2.3306   -0.0391    1.3674 H   0  0  0  0  0  0  0  0  0  0  0  0
    1.7885    2.1046   -0.7422 H   0  0  0  0  0  0  0  0  0  0  0  0
    3.3881    1.5191   -0.2825 H   0  0  0  0  0  0  0  0  0  0  0  0
    2.3984    2.3950    0.8870 H   0  0  0  0  0  0  0  0  0  0  0  0
  1  2  1  0
  1  6  1  0
  1  7  1  0
  2  3  1  0
  3  4  2  3
  4  8  1  0
  4  9  1  0
  5 10  1  0
 10 11  1  0
 10 14  1  0
 10 15  1  0
 11 12  1  0
 11 16  1  0
 11 17  1  0
 12 13  1  0
 12 18  1  0
 12 19  1  0
 13 20  1  0
 13 21  1  0
 13 22  1  0
M  RAD  1   1   2
M  END
>  <reaction>  (8) 
rmg_rxn_15602

>  <mol_properties>  (8) 
{"0": {"label": "*1", "atom_type": "Cs"}, "1": {"label": "*0", "atom_type": "O2s"}, "4": {"label": "*2", "atom_type": "H0"}, "9": {"label": "*3", "atom_type": "Cs"}, "10": {"label": "*4", "atom_type": "Cs"}}

>  <type>  (8) 
unop_4

>  <geom_source>  (8) 
Heuristics

$$$$

     RDKit          3D

 22 20  0  0  0  0  0  0  0  0999 V2000
   -1.9889    0.8696    0.6759 C   0  0  0  0  0  3  0  0  0  0  0  0
   -1.9890    0.9275   -0.7370 O   0  0  0  0  0  0  0  0  0  0  0  0
   -1.9890   -0.3464   -1.2528 N   0  0  0  0  0  0  0  0  0  0  0  0
   -1.9890   -0.3464   -2.5164 C   0  0  0  0  0  0  0  0  0  0  0  0
   -0.9183    0.2574    1.1200 H   0  0  0  0  0  0  0  0  0  0  0  0
   -2.8811    0.3594    1.0460 H   0  0  0  0  0  0  0  0  0  0  0  0
   -1.9890    1.9045    1.0137 H   0  0  0  0  0  0  0  0  0  0  0  0
   -1.9890   -1.3135   -3.0012 H   0  0  0  0  0  0  0  0  0  0  0  0
   -1.9890    0.5701   -3.1025 H   0  0  0  0  0  0  0  0  0  0  0  0
    0.1511   -0.3542    1.5636 C   0  0  0  0  0  0  0  0  0  0  0  0
    1.3346   -0.1618    0.6250 C   0  0  0  0  0  0  0  0  0  0  0  0
    2.6752   -0.4644    1.2842 C   0  0  0  0  0  0  0  0  0  0  0  0
    3.8587   -0.2721    0.3455 C   0  0  0  0  0  0  0  0  0  0  0  0
    0.2327    0.2995    2.4353 H   0  0  0  0  0  0  0  0  0  0  0  0
    0.1029   -1.3836    1.9267 H   0  0  0  0  0  0  0  0  0  0  0  0
    1.3433    0.8671    0.2510 H   0  0  0  0  0  0  0  0  0  0  0  0
    1.2145   -0.8036   -0.2538 H   0  0  0  0  0  0  0  0  0  0  0  0
    2.7954    0.1774    2.1630 H   0  0  0  0  0  0  0  0  0  0  0  0
    2.6665   -1.4934    1.6581 H   0  0  0  0  0  0  0  0  0  0  0  0
    3.9069    0.7573   -0.0176 H   0  0  0  0  0  0  0  0  0  0  0  0
    3.7771   -0.9258   -0.5262 H   0  0  0  0  0  0  0  0  0  0  0  0
    4.8042   -0.4952    0.8424 H   0  0  0  0  0  0  0  0  0  0  0  0
  1  2  1  0
  1  6  1  0
  1  7  1  0
  2  3  1  0
  3  4  2  3
  4  8  1  0
  4  9  1  0
  5 10  1  0
 10 11  1  0
 10 14  1  0
 10 15  1  0
 11 12  1  0
 11 16  1  0
 11 17  1  0
 12 13  1  0
 12 18  1  0
 12 19  1  0
 13 20  1  0
 13 21  1  0
 13 22  1  0
M  RAD  1   1   2
M  END
>  <reaction>  (9) 
rmg_rxn_15602

>  <mol_properties>  (9) 
{"0": {"label": "*1", "atom_type": "Cs"}, "1": {"label": "*0", "atom_type": "O2s"}, "4": {"label": "*2", "atom_type": "H0"}, "9": {"label": "*3", "atom_type": "Cs"}, "10": {"label": "*4", "atom_type": "Cs"}}

>  <type>  (9) 
unop_5

>  <geom_source>  (9) 
Heuristics

$$$$

     RDKit          3D

 22 20  0  0  0  0  0  0  0  0999 V2000
   -0.8933    1.5944    0.8627 C   0  0  0  0  0  3  0  0  0  0  0  0
   -1.5506    1.0070   -0.1478 O   0  0  0  0  0  0  0  0  0  0  0  0
   -2.1027   -0.2142    0.1579 N   0  0  0  0  0  0  0  0  0  0  0  0
   -2.6786   -0.8110   -0.8058 C   0  0  0  0  0  0  0  0  0  0  0  0
   -0.1194   -1.5439    0.9705 H   0  0  0  0  0  0  0  0  0  0  0  0
   -0.9788    1.1919    1.8550 H   0  0  0  0  0  0  0  0  0  0  0  0
   -0.6159    2.6099    0.6626 H   0  0  0  0  0  0  0  0  0  0  0  0
   -3.1147   -1.7669   -0.5820 H   0  0  0  0  0  0  0  0  0  0  0  0
   -2.7513   -0.4139   -1.8128 H   0  0  0  0  0  0  0  0  0  0  0  0
    0.8566   -1.9481    0.6937 C   0  0  0  0  0  0  0  0  0  0  0  0
    1.5973   -1.0879   -0.3111 C   0  0  0  0  0  0  0  0  0  0  0  0
    2.0132    0.2524    0.2890 C   0  0  0  0  0  0  0  0  0  0  0  0
    2.7550    1.1243   -0.7152 C   0  0  0  0  0  0  0  0  0  0  0  0
    1.4465   -2.1631    1.5760 H   0  0  0  0  0  0  0  0  0  0  0  0
    0.4470   -2.8435    0.2764 H   0  0  0  0  0  0  0  0  0  0  0  0
    0.9579   -0.9093   -1.1789 H   0  0  0  0  0  0  0  0  0  0  0  0
    2.4866   -1.6199   -0.6595 H   0  0  0  0  0  0  0  0  0  0  0  0
    1.1109    0.7821    0.6305 H   0  0  0  0  0  0  0  0  0  0  0  0
    2.6462    0.0778    1.1621 H   0  0  0  0  0  0  0  0  0  0  0  0
    2.1247    1.3304   -1.5778 H   0  0  0  0  0  0  0  0  0  0  0  0
    3.6574    0.6255   -1.0637 H   0  0  0  0  0  0  0  0  0  0  0  0
    3.0398    2.0721   -0.2640 H   0  0  0  0  0  0  0  0  0  0  0  0
  1  2  1  0
  1  6  1  0
  1  7  1  0
  2  3  1  0
  3  4  2  3
  4  8  1  0
  4  9  1  0
  5 10  1  0
 10 11  1  0
 10 14  1  0
 10 15  1  0
 11 12  1  0
 11 16  1  0
 11 17  1  0
 12 13  1  0
 12 18  1  0
 12 19  1  0
 13 20  1  0
 13 21  1  0
 13 22  1  0
M  RAD  1   1   2
M  END
>  <reaction>  (10) 
rmg_rxn_15602

>  <mol_properties>  (10) 
{"0": {"label": "*1", "atom_type": "Cs"}, "1": {"label": "*0", "atom_type": "O2s"}, "4": {"label": "*2", "atom_type": "H0"}, "9": {"label": "*3", "atom_type": "Cs"}, "10": {"label": "*4", "atom_type": "Cs"}}

>  <type>  (10) 
unop_6

>  <geom_source>  (10) 
Heuristics

$$$$

     RDKit          3D

 22 20  0  0  0  0  0  0  0  0999 V2000
   -1.4448    0.8944   -0.5259 C   0  0  0  0  0  3  0  0  0  0  0  0
   -1.4448    0.9523   -1.9388 O   0  0  0  0  0  0  0  0  0  0  0  0
   -1.4448   -0.3215   -2.4545 N   0  0  0  0  0  0  0  0  0  0  0  0
   -1.4448   -0.3215   -3.7181 C   0  0  0  0  0  0  0  0  0  0  0  0
   -0.3742    0.2822   -0.0818 H   0  0  0  0  0  0  0  0  0  0  0  0
   -2.3369    0.3842   -0.1558 H   0  0  0  0  0  0  0  0  0  0  0  0
   -1.4448    1.9293   -0.1881 H   0  0  0  0  0  0  0  0  0  0  0  0
   -1.4448   -1.2886   -4.2029 H   0  0  0  0  0  0  0  0  0  0  0  0
   -1.4448    0.5949   -4.3043 H   0  0  0  0  0  0  0  0  0  0  0  0
    0.6953   -0.3293    0.3619 C   0  0  0  0  0  0  0  0  0  0  0  0
    1.1112    0.1943    1.7299 C   0  0  0  0  0  0  0  0  0  0  0  0
    1.8264   -0.8513    2.5776 C   0  0  0  0  0  0  0  0  0  0  0  0
    2.2424   -0.3277    3.9456 C   0  0  0  0  0  0  0  0  0  0  0  0
    0.0167   -1.1802    0.4583 H   0  0  0  0  0  0  0  0  0  0  0  0
    1.5642   -0.6636   -0.2100 H   0  0  0  0  0  0  0  0  0  0  0  0
    0.2286    0.5512    2.2705 H   0  0  0  0  0  0  0  0  0  0  0  0
    1.7648    1.0640    1.6071 H   0  0  0  0  0  0  0  0  0  0  0  0
    1.1728   -1.7211    2.7004 H   0  0  0  0  0  0  0  0  0  0  0  0
    2.7090   -1.2083    2.0370 H   0  0  0  0  0  0  0  0  0  0  0  0
    1.3734    0.0065    4.5175 H   0  0  0  0  0  0  0  0  0  0  0  0
    2.9210    0.5231    3.8492 H   0  0  0  0  0  0  0  0  0  0  0  0
    2.7513   -1.0956    4.5305 H   0  0  0  0  0  0  0  0  0  0  0  0
  1  2  1  0
  1  6  1  0
  1  7  1  0
  2  3  1  0
  3  4  2  3
  4  8  1  0
  4  9  1  0
  5 10  1  0
 10 11  1  0
 10 14  1  0
 10 15  1  0
 11 12  1  0
 11 16  1  0
 11 17  1  0
 12 13  1  0
 12 18  1  0
 12 19  1  0
 13 20  1  0
 13 21  1  0
 13 22  1  0
M  RAD  1   1   2
M  END
>  <reaction>  (11) 
rmg_rxn_15602

>  <mol_properties>  (11) 
{"0": {"label": "*1", "atom_type": "Cs"}, "1": {"label": "*0", "atom_type": "O2s"}, "4": {"label": "*2", "atom_type": "H0"}, "9": {"label": "*3", "atom_type": "Cs"}, "10": {"label": "*4", "atom_type": "Cs"}}

>  <type>  (11) 
unop_7

>  <geom_source>  (11) 
Heuristics

$$$$

     RDKit          3D

 22 20  0  0  0  0  0  0  0  0999 V2000
   -1.2683    1.8470    0.3850 C   0  0  0  0  0  3  0  0  0  0  0  0
   -1.2683    1.9049   -1.0279 O   0  0  0  0  0  0  0  0  0  0  0  0
   -1.2683    0.6311   -1.5436 N   0  0  0  0  0  0  0  0  0  0  0  0
   -1.2683    0.6311   -2.8072 C   0  0  0  0  0  0  0  0  0  0  0  0
   -0.1977    1.2348    0.8291 H   0  0  0  0  0  0  0  0  0  0  0  0
   -2.1604    1.3368    0.7551 H   0  0  0  0  0  0  0  0  0  0  0  0
   -1.2683    2.8819    0.7228 H   0  0  0  0  0  0  0  0  0  0  0  0
   -1.2683   -0.3360   -3.2921 H   0  0  0  0  0  0  0  0  0  0  0  0
   -1.2683    1.5475   -3.3934 H   0  0  0  0  0  0  0  0  0  0  0  0
    0.8718    0.6233    1.2728 C   0  0  0  0  0  0  0  0  0  0  0  0
    0.9549   -0.8053    0.7523 C   0  0  0  0  0  0  0  0  0  0  0  0
    1.6308   -1.7591    1.7304 C   0  0  0  0  0  0  0  0  0  0  0  0
    1.7139   -3.1876    1.2099 C   0  0  0  0  0  0  0  0  0  0  0  0
    1.8677    1.0253    1.4735 H   0  0  0  0  0  0  0  0  0  0  0  0
    0.3041    0.6677    2.2053 H   0  0  0  0  0  0  0  0  0  0  0  0
    1.5005   -0.8192   -0.1968 H   0  0  0  0  0  0  0  0  0  0  0  0
   -0.0516   -1.1742    0.5297 H   0  0  0  0  0  0  0  0  0  0  0  0
    2.6373   -1.3901    1.9530 H   0  0  0  0  0  0  0  0  0  0  0  0
    1.0852   -1.7451    2.6794 H   0  0  0  0  0  0  0  0  0  0  0  0
    2.2816   -3.2320    0.2774 H   0  0  0  0  0  0  0  0  0  0  0  0
    0.7180   -3.5896    1.0092 H   0  0  0  0  0  0  0  0  0  0  0  0
    2.2015   -3.8480    1.9289 H   0  0  0  0  0  0  0  0  0  0  0  0
  1  2  1  0
  1  6  1  0
  1  7  1  0
  2  3  1  0
  3  4  2  3
  4  8  1  0
  4  9  1  0
  5 10  1  0
 10 11  1  0
 10 14  1  0
 10 15  1  0
 11 12  1  0
 11 16  1  0
 11 17  1  0
 12 13  1  0
 12 18  1  0
 12 19  1  0
 13 20  1  0
 13 21  1  0
 13 22  1  0
M  RAD  1   1   2
M  END
>  <reaction>  (12) 
rmg_rxn_15602

>  <mol_properties>  (12) 
{"0": {"label": "*1", "atom_type": "Cs"}, "1": {"label": "*0", "atom_type": "O2s"}, "4": {"label": "*2", "atom_type": "H0"}, "9": {"label": "*3", "atom_type": "Cs"}, "10": {"label": "*4", "atom_type": "Cs"}}

>  <type>  (12) 
unop_8

>  <geom_source>  (12) 
Heuristics

$$$$

     RDKit          3D

 22 20  0  0  0  0  0  0  0  0999 V2000
   -1.4487    1.5087    0.4543 C   0  0  0  0  0  3  0  0  0  0  0  0
   -1.8804    0.4219   -0.2817 O   0  0  0  0  0  0  0  0  0  0  0  0
   -1.5932   -0.7825    0.3261 N   0  0  0  0  0  0  0  0  0  0  0  0
   -1.8890   -1.8194   -0.3340 C   0  0  0  0  0  0  0  0  0  0  0  0
   -0.1546    1.7591    0.1549 H   0  0  0  0  0  0  0  0  0  0  0  0
   -1.4609    1.3388    1.5277 H   0  0  0  0  0  0  0  0  0  0  0  0
   -2.0067    2.3814    0.1342 H   0  0  0  0  0  0  0  0  0  0  0  0
   -1.6717   -2.7623    0.1345 H   0  0  0  0  0  0  0  0  0  0  0  0
   -2.3427   -1.8084   -1.3201 H   0  0  0  0  0  0  0  0  0  0  0  0
    1.0857    1.9747   -0.1539 C   0  0  0  0  0  0  0  0  0  0  0  0
    1.7009    0.6701   -0.5917 C   0  0  0  0  0  0  0  0  0  0  0  0
    1.7482   -0.3616    0.5338 C   0  0  0  0  0  0  0  0  0  0  0  0
    2.3724   -1.6724    0.0720 C   0  0  0  0  0  0  0  0  0  0  0  0
    1.0561    2.7173   -0.9441 H   0  0  0  0  0  0  0  0  0  0  0  0
    1.5375    2.3784    0.7462 H   0  0  0  0  0  0  0  0  0  0  0  0
    2.7217    0.8494   -0.9519 H   0  0  0  0  0  0  0  0  0  0  0  0
    1.1319    0.2631   -1.4321 H   0  0  0  0  0  0  0  0  0  0  0  0
    2.3255    0.0428    1.3686 H   0  0  0  0  0  0  0  0  0  0  0  0
    0.7335   -0.5543    0.8880 H   0  0  0  0  0  0  0  0  0  0  0  0
    1.7944   -2.1002   -0.7448 H   0  0  0  0  0  0  0  0  0  0  0  0
    2.3972   -2.3922    0.8868 H   0  0  0  0  0  0  0  0  0  0  0  0
    3.3911   -1.5131   -0.2768 H   0  0  0  0  0  0  0  0  0  0  0  0
  1  2  1  0
  1  6  1  0
  1  7  1  0
  2  3  1  0
  3  4  2  3
  4  8  1  0
  4  9  1  0
  5 10  1  0
 10 11  1  0
 10 14  1  0
 10 15  1  0
 11 12  1  0
 11 16  1  0
 11 17  1  0
 12 13  1  0
 12 18  1  0
 12 19  1  0
 13 20  1  0
 13 21  1  0
 13 22  1  0
M  RAD  1   1   2
M  END
>  <reaction>  (13) 
rmg_rxn_15602

>  <mol_properties>  (13) 
{"0": {"label": "*1", "atom_type": "Cs"}, "1": {"label": "*0", "atom_type": "O2s"}, "4": {"label": "*2", "atom_type": "H0"}, "9": {"label": "*3", "atom_type": "Cs"}, "10": {"label": "*4", "atom_type": "Cs"}}

>  <type>  (13) 
unop_9

>  <geom_source>  (13) 
Heuristics

$$$$

     RDKit          3D

 22 20  0  0  0  0  0  0  0  0999 V2000
   -1.3758    1.1040   -0.5274 C   0  0  0  0  0  3  0  0  0  0  0  0
   -1.3759    1.1619   -1.9402 O   0  0  0  0  0  0  0  0  0  0  0  0
   -1.3759   -0.1119   -2.4560 N   0  0  0  0  0  0  0  0  0  0  0  0
   -1.3759   -0.1119   -3.7196 C   0  0  0  0  0  0  0  0  0  0  0  0
   -0.3053    0.4918   -0.0832 H   0  0  0  0  0  0  0  0  0  0  0  0
   -2.2680    0.5938   -0.1572 H   0  0  0  0  0  0  0  0  0  0  0  0
   -1.3759    2.1389   -0.1895 H   0  0  0  0  0  0  0  0  0  0  0  0
   -1.3759   -1.0790   -4.2044 H   0  0  0  0  0  0  0  0  0  0  0  0
   -1.3759    0.8045   -4.3057 H   0  0  0  0  0  0  0  0  0  0  0  0
    0.7642   -0.1197    0.3604 C   0  0  0  0  0  0  0  0  0  0  0  0
    0.7774   -0.1894    1.8815 C   0  0  0  0  0  0  0  0  0  0  0  0
    2.0091   -0.8955    2.4365 C   0  0  0  0  0  0  0  0  0  0  0  0
    2.0223   -0.9651    3.9575 C   0  0  0  0  0  0  0  0  0  0  0  0
    0.7824   -1.1206   -0.0774 H   0  0  0  0  0  0  0  0  0  0  0  0
    1.6372    0.4201   -0.0142 H   0  0  0  0  0  0  0  0  0  0  0  0
   -0.1210   -0.7066    2.2333 H   0  0  0  0  0  0  0  0  0  0  0  0
    0.7275    0.8227    2.2960 H   0  0  0  0  0  0  0  0  0  0  0  0
    2.0591   -1.9075    2.0220 H   0  0  0  0  0  0  0  0  0  0  0  0
    2.9076   -0.3782    2.0846 H   0  0  0  0  0  0  0  0  0  0  0  0
    1.1493   -1.5049    4.3322 H   0  0  0  0  0  0  0  0  0  0  0  0
    2.0041    0.0358    4.3953 H   0  0  0  0  0  0  0  0  0  0  0  0
    2.9135   -1.4747    4.3272 H   0  0  0  0  0  0  0  0  0  0  0  0
  1  2  1  0
  1  6  1  0
  1  7  1  0
  2  3  1  0
  3  4  2  3
  4  8  1  0
  4  9  1  0
  5 10  1  0
 10 11  1  0
 10 14  1  0
 10 15  1  0
 11 12  1  0
 11 16  1  0
 11 17  1  0
 12 13  1  0
 12 18  1  0
 12 19  1  0
 13 20  1  0
 13 21  1  0
 13 22  1  0
M  RAD  1   1   2
M  END
>  <reaction>  (14) 
rmg_rxn_15602

>  <mol_properties>  (14) 
{"0": {"label": "*1", "atom_type": "Cs"}, "1": {"label": "*0", "atom_type": "O2s"}, "4": {"label": "*2", "atom_type": "H0"}, "9": {"label": "*3", "atom_type": "Cs"}, "10": {"label": "*4", "atom_type": "Cs"}}

>  <type>  (14) 
unop_10

>  <geom_source>  (14) 
Heuristics

$$$$

     RDKit          3D

 22 20  0  0  0  0  0  0  0  0999 V2000
   -1.4419    1.5104   -0.4575 C   0  0  0  0  0  3  0  0  0  0  0  0
   -1.8805    0.4274    0.2801 O   0  0  0  0  0  0  0  0  0  0  0  0
   -1.5995   -0.7798   -0.3251 N   0  0  0  0  0  0  0  0  0  0  0  0
   -1.9042   -1.8136    0.3358 C   0  0  0  0  0  0  0  0  0  0  0  0
   -0.1480    1.7575   -0.1545 H   0  0  0  0  0  0  0  0  0  0  0  0
   -1.9976    2.3863   -0.1421 H   0  0  0  0  0  0  0  0  0  0  0  0
   -1.4508    1.3372   -1.5303 H   0  0  0  0  0  0  0  0  0  0  0  0
   -1.6919   -2.7588   -0.1304 H   0  0  0  0  0  0  0  0  0  0  0  0
   -2.3604   -1.7980    1.3208 H   0  0  0  0  0  0  0  0  0  0  0  0
    1.0921    1.9715    0.1564 C   0  0  0  0  0  0  0  0  0  0  0  0
    1.7058    0.6657    0.5928 C   0  0  0  0  0  0  0  0  0  0  0  0
    1.7498   -0.3655   -0.5334 C   0  0  0  0  0  0  0  0  0  0  0  0
    2.3738   -1.6770   -0.0736 C   0  0  0  0  0  0  0  0  0  0  0  0
    1.5451    2.3762   -0.7426 H   0  0  0  0  0  0  0  0  0  0  0  0
    1.0622    2.7128    0.9477 H   0  0  0  0  0  0  0  0  0  0  0  0
    1.1375    0.2593    1.4339 H   0  0  0  0  0  0  0  0  0  0  0  0
    2.7275    0.8434    0.9514 H   0  0  0  0  0  0  0  0  0  0  0  0
    0.7341   -0.5572   -0.8855 H   0  0  0  0  0  0  0  0  0  0  0  0
    2.3256    0.0388   -1.3692 H   0  0  0  0  0  0  0  0  0  0  0  0
    2.3976   -2.3959   -0.8893 H   0  0  0  0  0  0  0  0  0  0  0  0
    1.7965   -2.1054    0.7432 H   0  0  0  0  0  0  0  0  0  0  0  0
    3.3929   -1.5184    0.2743 H   0  0  0  0  0  0  0  0  0  0  0  0
  1  2  1  0
  1  6  1  0
  1  7  1  0
  2  3  1  0
  3  4  2  3
  4  8  1  0
  4  9  1  0
  5 10  1  0
 10 11  1  0
 10 14  1  0
 10 15  1  0
 11 12  1  0
 11 16  1  0
 11 17  1  0
 12 13  1  0
 12 18  1  0
 12 19  1  0
 13 20  1  0
 13 21  1  0
 13 22  1  0
M  RAD  1   1   2
M  END
>  <reaction>  (15) 
rmg_rxn_15602

>  <mol_properties>  (15) 
{"0": {"label": "*1", "atom_type": "Cs"}, "1": {"label": "*0", "atom_type": "O2s"}, "4": {"label": "*2", "atom_type": "H0"}, "9": {"label": "*3", "atom_type": "Cs"}, "10": {"label": "*4", "atom_type": "Cs"}}

>  <type>  (15) 
unop_11

>  <geom_source>  (15) 
Heuristics

$$$$

     RDKit          3D

 22 20  0  0  0  0  0  0  0  0999 V2000
   -1.1043    1.7892   -0.0135 C   0  0  0  0  0  3  0  0  0  0  0  0
   -1.1043    1.8471   -1.4263 O   0  0  0  0  0  0  0  0  0  0  0  0
   -1.1043    0.5732   -1.9421 N   0  0  0  0  0  0  0  0  0  0  0  0
   -1.1043    0.5732   -3.2057 C   0  0  0  0  0  0  0  0  0  0  0  0
   -0.0337    1.1770    0.4307 H   0  0  0  0  0  0  0  0  0  0  0  0
   -1.9964    1.2790    0.3567 H   0  0  0  0  0  0  0  0  0  0  0  0
   -1.1043    2.8241    0.3243 H   0  0  0  0  0  0  0  0  0  0  0  0
   -1.1043   -0.3939   -3.6905 H   0  0  0  0  0  0  0  0  0  0  0  0
   -1.1043    1.4897   -3.7918 H   0  0  0  0  0  0  0  0  0  0  0  0
    1.0358    0.5654    0.8743 C   0  0  0  0  0  0  0  0  0  0  0  0
    0.8054   -0.9333    1.0129 C   0  0  0  0  0  0  0  0  0  0  0  0
    1.4530   -1.5246    2.2597 C   0  0  0  0  0  0  0  0  0  0  0  0
    1.2225   -3.0233    2.3983 C   0  0  0  0  0  0  0  0  0  0  0  0
    2.1028    0.7938    0.8183 H   0  0  0  0  0  0  0  0  0  0  0  0
    0.6276    1.1051    1.7322 H   0  0  0  0  0  0  0  0  0  0  0  0
    1.1947   -1.4481    0.1286 H   0  0  0  0  0  0  0  0  0  0  0  0
   -0.2697   -1.1391    1.0357 H   0  0  0  0  0  0  0  0  0  0  0  0
    2.5280   -1.3188    2.2369 H   0  0  0  0  0  0  0  0  0  0  0  0
    1.0637   -1.0098    3.1440 H   0  0  0  0  0  0  0  0  0  0  0  0
    1.6307   -3.5630    1.5405 H   0  0  0  0  0  0  0  0  0  0  0  0
    0.1555   -3.2517    2.4543 H   0  0  0  0  0  0  0  0  0  0  0  0
    1.6961   -3.4197    3.2979 H   0  0  0  0  0  0  0  0  0  0  0  0
  1  2  1  0
  1  6  1  0
  1  7  1  0
  2  3  1  0
  3  4  2  3
  4  8  1  0
  4  9  1  0
  5 10  1  0
 10 11  1  0
 10 14  1  0
 10 15  1  0
 11 12  1  0
 11 16  1  0
 11 17  1  0
 12 13  1  0
 12 18  1  0
 12 19  1  0
 13 20  1  0
 13 21  1  0
 13 22  1  0
M  RAD  1   1   2
M  END
>  <reaction>  (16) 
rmg_rxn_15602

>  <mol_properties>  (16) 
{"0": {"label": "*1", "atom_type": "Cs"}, "1": {"label": "*0", "atom_type": "O2s"}, "4": {"label": "*2", "atom_type": "H0"}, "9": {"label": "*3", "atom_type": "Cs"}, "10": {"label": "*4", "atom_type": "Cs"}}

>  <type>  (16) 
unop_12

>  <geom_source>  (16) 
Heuristics

$$$$

     RDKit          3D

 22 20  0  0  0  0  0  0  0  0999 V2000
   -0.8988   -1.5806   -0.8884 C   0  0  0  0  0  3  0  0  0  0  0  0
   -1.5497   -1.0076    0.1344 O   0  0  0  0  0  0  0  0  0  0  0  0
   -2.0918    0.2241   -0.1463 N   0  0  0  0  0  0  0  0  0  0  0  0
   -2.6591    0.8073    0.8306 C   0  0  0  0  0  0  0  0  0  0  0  0
    0.4511    2.8605   -0.2933 H   0  0  0  0  0  0  0  0  0  0  0  0
   -0.9814   -1.1577   -1.8724 H   0  0  0  0  0  0  0  0  0  0  0  0
   -0.6295   -2.6020   -0.7087 H   0  0  0  0  0  0  0  0  0  0  0  0
   -3.0872    1.7714    0.6269 H   0  0  0  0  0  0  0  0  0  0  0  0
   -2.7312    0.3919    1.8303 H   0  0  0  0  0  0  0  0  0  0  0  0
    0.8597    1.9385   -0.7120 C   0  0  0  0  0  0  0  0  0  0  0  0
    1.5908    1.0859    0.3062 C   0  0  0  0  0  0  0  0  0  0  0  0
    2.0104   -0.2583   -0.2828 C   0  0  0  0  0  0  0  0  0  0  0  0
    2.7347   -1.1287    0.7352 C   0  0  0  0  0  0  0  0  0  0  0  0
   -0.1000    1.5521   -0.9834 H   0  0  0  0  0  0  0  0  0  0  0  0
    1.4597    2.1512   -1.5881 H   0  0  0  0  0  0  0  0  0  0  0  0
    0.9428    0.9128    1.1686 H   0  0  0  0  0  0  0  0  0  0  0  0
    2.4774    1.6185    0.6601 H   0  0  0  0  0  0  0  0  0  0  0  0
    1.1113   -0.7864   -0.6352 H   0  0  0  0  0  0  0  0  0  0  0  0
    2.6564   -0.0894   -1.1475 H   0  0  0  0  0  0  0  0  0  0  0  0
    2.0907   -1.3310    1.5885 H   0  0  0  0  0  0  0  0  0  0  0  0
    3.6326   -0.6306    1.0962 H   0  0  0  0  0  0  0  0  0  0  0  0
    3.0246   -2.0785    0.2913 H   0  0  0  0  0  0  0  0  0  0  0  0
  1  2  1  0
  1  6  1  0
  1  7  1  0
  2  3  1  0
  3  4  2  3
  4  8  1  0
  4  9  1  0
  5 10  1  0
 10 11  1  0
 10 14  1  0
 10 15  1  0
 11 12  1  0
 11 16  1  0
 11 17  1  0
 12 13  1  0
 12 18  1  0
 12 19  1  0
 13 20  1  0
 13 21  1  0
 13 22  1  0
M  RAD  1   1   2
M  END
>  <reaction>  (17) 
rmg_rxn_15602

>  <mol_properties>  (17) 
{"0": {"label": "*1", "atom_type": "Cs"}, "1": {"label": "*0", "atom_type": "O2s"}, "4": {"label": "*2", "atom_type": "H0"}, "9": {"label": "*3", "atom_type": "Cs"}, "10": {"label": "*4", "atom_type": "Cs"}}

>  <type>  (17) 
unop_13

>  <geom_source>  (17) 
Heuristics

$$$$

     RDKit          3D

 22 20  0  0  0  0  0  0  0  0999 V2000
   -1.0984    1.5535   -0.3463 C   0  0  0  0  0  3  0  0  0  0  0  0
   -1.0985    1.6114   -1.7591 O   0  0  0  0  0  0  0  0  0  0  0  0
   -1.0985    0.3376   -2.2749 N   0  0  0  0  0  0  0  0  0  0  0  0
   -1.0985    0.3376   -3.5385 C   0  0  0  0  0  0  0  0  0  0  0  0
   -0.0279    0.9413    0.0979 H   0  0  0  0  0  0  0  0  0  0  0  0
   -1.9906    1.0433    0.0239 H   0  0  0  0  0  0  0  0  0  0  0  0
   -1.0985    2.5884   -0.0085 H   0  0  0  0  0  0  0  0  0  0  0  0
   -1.0985   -0.6295   -4.0233 H   0  0  0  0  0  0  0  0  0  0  0  0
   -1.0985    1.2540   -4.1246 H   0  0  0  0  0  0  0  0  0  0  0  0
    1.0416    0.3298    0.5415 C   0  0  0  0  0  0  0  0  0  0  0  0
    0.6816   -0.9075    1.3528 C   0  0  0  0  0  0  0  0  0  0  0  0
    1.5592   -1.0896    2.5857 C   0  0  0  0  0  0  0  0  0  0  0  0
    1.1992   -2.3269    3.3970 C   0  0  0  0  0  0  0  0  0  0  0  0
    2.0759    0.2817    0.1926 H   0  0  0  0  0  0  0  0  0  0  0  0
    0.9383    1.2360    1.1432 H   0  0  0  0  0  0  0  0  0  0  0  0
    0.7628   -1.7976    0.7206 H   0  0  0  0  0  0  0  0  0  0  0  0
   -0.3664   -0.8504    1.6642 H   0  0  0  0  0  0  0  0  0  0  0  0
    2.6072   -1.1467    2.2743 H   0  0  0  0  0  0  0  0  0  0  0  0
    1.4780   -0.1995    3.2179 H   0  0  0  0  0  0  0  0  0  0  0  0
    1.3025   -3.2331    2.7953 H   0  0  0  0  0  0  0  0  0  0  0  0
    0.1650   -2.2788    3.7459 H   0  0  0  0  0  0  0  0  0  0  0  0
    1.8420   -2.4327    4.2724 H   0  0  0  0  0  0  0  0  0  0  0  0
  1  2  1  0
  1  6  1  0
  1  7  1  0
  2  3  1  0
  3  4  2  3
  4  8  1  0
  4  9  1  0
  5 10  1  0
 10 11  1  0
 10 14  1  0
 10 15  1  0
 11 12  1  0
 11 16  1  0
 11 17  1  0
 12 13  1  0
 12 18  1  0
 12 19  1  0
 13 20  1  0
 13 21  1  0
 13 22  1  0
M  RAD  1   1   2
M  END
>  <reaction>  (18) 
rmg_rxn_15602

>  <mol_properties>  (18) 
{"0": {"label": "*1", "atom_type": "Cs"}, "1": {"label": "*0", "atom_type": "O2s"}, "4": {"label": "*2", "atom_type": "H0"}, "9": {"label": "*3", "atom_type": "Cs"}, "10": {"label": "*4", "atom_type": "Cs"}}

>  <type>  (18) 
unop_14

>  <geom_source>  (18) 
Heuristics

$$$$

     RDKit          3D

 22 20  0  0  0  0  0  0  0  0999 V2000
   -1.4476   -1.5121    0.4487 C   0  0  0  0  0  3  0  0  0  0  0  0
   -1.8736   -0.4229   -0.2870 O   0  0  0  0  0  0  0  0  0  0  0  0
   -1.5962    0.7794    0.3295 N   0  0  0  0  0  0  0  0  0  0  0  0
   -1.8859    1.8186   -0.3297 C   0  0  0  0  0  0  0  0  0  0  0  0
   -0.1518   -1.7621    0.1568 H   0  0  0  0  0  0  0  0  0  0  0  0
   -2.0038   -2.3837    0.1226 H   0  0  0  0  0  0  0  0  0  0  0  0
   -1.4668   -1.3450    1.5224 H   0  0  0  0  0  0  0  0  0  0  0  0
   -1.6761    2.7599    0.1453 H   0  0  0  0  0  0  0  0  0  0  0  0
   -2.3271    1.8110   -1.3216 H   0  0  0  0  0  0  0  0  0  0  0  0
    1.0900   -1.9752   -0.1479 C   0  0  0  0  0  0  0  0  0  0  0  0
    1.7009   -0.6697   -0.5893 C   0  0  0  0  0  0  0  0  0  0  0  0
    1.7473    0.3640    0.5344 C   0  0  0  0  0  0  0  0  0  0  0  0
    2.3608    1.6780    0.0675 C   0  0  0  0  0  0  0  0  0  0  0  0
    1.5413   -2.3738    0.7546 H   0  0  0  0  0  0  0  0  0  0  0  0
    1.0647   -2.7207   -0.9355 H   0  0  0  0  0  0  0  0  0  0  0  0
    1.1289   -0.2659   -1.4293 H   0  0  0  0  0  0  0  0  0  0  0  0
    2.7215   -0.8466   -0.9514 H   0  0  0  0  0  0  0  0  0  0  0  0
    0.7333    0.5510    0.8935 H   0  0  0  0  0  0  0  0  0  0  0  0
    2.3312   -0.0355    1.3669 H   0  0  0  0  0  0  0  0  0  0  0  0
    2.3870    2.3985    0.8816 H   0  0  0  0  0  0  0  0  0  0  0  0
    1.7748    2.1018   -0.7456 H   0  0  0  0  0  0  0  0  0  0  0  0
    3.3779    1.5242   -0.2881 H   0  0  0  0  0  0  0  0  0  0  0  0
  1  2  1  0
  1  6  1  0
  1  7  1  0
  2  3  1  0
  3  4  2  3
  4  8  1  0
  4  9  1  0
  5 10  1  0
 10 11  1  0
 10 14  1  0
 10 15  1  0
 11 12  1  0
 11 16  1  0
 11 17  1  0
 12 13  1  0
 12 18  1  0
 12 19  1  0
 13 20  1  0
 13 21  1  0
 13 22  1  0
M  RAD  1   1   2
M  END
>  <reaction>  (19) 
rmg_rxn_15602

>  <mol_properties>  (19) 
{"0": {"label": "*1", "atom_type": "Cs"}, "1": {"label": "*0", "atom_type": "O2s"}, "4": {"label": "*2", "atom_type": "H0"}, "9": {"label": "*3", "atom_type": "Cs"}, "10": {"label": "*4", "atom_type": "Cs"}}

>  <type>  (19) 
unop_15

>  <geom_source>  (19) 
Heuristics

$$$$

     RDKit          3D

 22 20  0  0  0  0  0  0  0  0999 V2000
   -1.8304    0.4804   -0.0671 C   0  0  0  0  0  3  0  0  0  0  0  0
   -1.8304    0.5384   -1.4800 O   0  0  0  0  0  0  0  0  0  0  0  0
   -1.8304   -0.7355   -1.9957 N   0  0  0  0  0  0  0  0  0  0  0  0
   -1.8304   -0.7355   -3.2593 C   0  0  0  0  0  0  0  0  0  0  0  0
   -0.7598   -0.1317    0.3770 H   0  0  0  0  0  0  0  0  0  0  0  0
   -2.7225   -0.0297    0.3030 H   0  0  0  0  0  0  0  0  0  0  0  0
   -1.8304    1.5153    0.2707 H   0  0  0  0  0  0  0  0  0  0  0  0
   -1.8304   -1.7026   -3.7442 H   0  0  0  0  0  0  0  0  0  0  0  0
   -1.8304    0.1810   -3.8455 H   0  0  0  0  0  0  0  0  0  0  0  0
    0.3097   -0.7433    0.8207 C   0  0  0  0  0  0  0  0  0  0  0  0
    1.4528    0.2336    1.0607 C   0  0  0  0  0  0  0  0  0  0  0  0
    2.2536   -0.0814    2.3189 C   0  0  0  0  0  0  0  0  0  0  0  0
    3.3967    0.8955    2.5589 C   0  0  0  0  0  0  0  0  0  0  0  0
   -0.3937   -0.7357    1.6567 H   0  0  0  0  0  0  0  0  0  0  0  0
    0.6835   -1.7643    0.7135 H   0  0  0  0  0  0  0  0  0  0  0  0
    1.0567    1.2517    1.1337 H   0  0  0  0  0  0  0  0  0  0  0  0
    2.1260    0.2305    0.1974 H   0  0  0  0  0  0  0  0  0  0  0  0
    1.5804   -0.0783    3.1822 H   0  0  0  0  0  0  0  0  0  0  0  0
    2.6497   -1.0995    2.2459 H   0  0  0  0  0  0  0  0  0  0  0  0
    3.0229    1.9165    2.6661 H   0  0  0  0  0  0  0  0  0  0  0  0
    4.1001    0.8879    1.7229 H   0  0  0  0  0  0  0  0  0  0  0  0
    3.9523    0.6469    3.4645 H   0  0  0  0  0  0  0  0  0  0  0  0
  1  2  1  0
  1  6  1  0
  1  7  1  0
  2  3  1  0
  3  4  2  3
  4  8  1  0
  4  9  1  0
  5 10  1  0
 10 11  1  0
 10 14  1  0
 10 15  1  0
 11 12  1  0
 11 16  1  0
 11 17  1  0
 12 13  1  0
 12 18  1  0
 12 19  1  0
 13 20  1  0
 13 21  1  0
 13 22  1  0
M  RAD  1   1   2
M  END
>  <reaction>  (20) 
rmg_rxn_15602

>  <mol_properties>  (20) 
{"0": {"label": "*1", "atom_type": "Cs"}, "1": {"label": "*0", "atom_type": "O2s"}, "4": {"label": "*2", "atom_type": "H0"}, "9": {"label": "*3", "atom_type": "Cs"}, "10": {"label": "*4", "atom_type": "Cs"}}

>  <type>  (20) 
unop_16

>  <geom_source>  (20) 
Heuristics

$$$$

     RDKit          3D

 22 20  0  0  0  0  0  0  0  0999 V2000
   -1.4441   -1.5124   -0.4513 C   0  0  0  0  0  3  0  0  0  0  0  0
   -1.8764   -0.4259    0.2850 O   0  0  0  0  0  0  0  0  0  0  0  0
   -1.5998    0.7784   -0.3277 N   0  0  0  0  0  0  0  0  0  0  0  0
   -1.8983    1.8154    0.3311 C   0  0  0  0  0  0  0  0  0  0  0  0
   -0.1485   -1.7597   -0.1557 H   0  0  0  0  0  0  0  0  0  0  0  0
   -1.4598   -1.3432   -1.5247 H   0  0  0  0  0  0  0  0  0  0  0  0
   -1.9988   -2.3863   -0.1289 H   0  0  0  0  0  0  0  0  0  0  0  0
   -1.6891    2.7584   -0.1409 H   0  0  0  0  0  0  0  0  0  0  0  0
   -2.3456    1.8044    1.3202 H   0  0  0  0  0  0  0  0  0  0  0  0
    1.0930   -1.9727    0.1500 C   0  0  0  0  0  0  0  0  0  0  0  0
    1.7053   -0.6675    0.5900 C   0  0  0  0  0  0  0  0  0  0  0  0
    1.7474    0.3668   -0.5333 C   0  0  0  0  0  0  0  0  0  0  0  0
    2.3681    1.6785   -0.0693 C   0  0  0  0  0  0  0  0  0  0  0  0
    1.0671   -2.7174    0.9383 H   0  0  0  0  0  0  0  0  0  0  0  0
    1.5440   -2.3728   -0.7521 H   0  0  0  0  0  0  0  0  0  0  0  0
    2.7274   -0.8448    0.9477 H   0  0  0  0  0  0  0  0  0  0  0  0
    1.1367   -0.2643    1.4325 H   0  0  0  0  0  0  0  0  0  0  0  0
    2.3246   -0.0337   -1.3700 H   0  0  0  0  0  0  0  0  0  0  0  0
    0.7315    0.5572   -0.8854 H   0  0  0  0  0  0  0  0  0  0  0  0
    3.3872    1.5212    0.2793 H   0  0  0  0  0  0  0  0  0  0  0  0
    1.7891    2.1035    0.7481 H   0  0  0  0  0  0  0  0  0  0  0  0
    2.3912    2.3995   -0.8830 H   0  0  0  0  0  0  0  0  0  0  0  0
  1  2  1  0
  1  6  1  0
  1  7  1  0
  2  3  1  0
  3  4  2  3
  4  8  1  0
  4  9  1  0
  5 10  1  0
 10 11  1  0
 10 14  1  0
 10 15  1  0
 11 12  1  0
 11 16  1  0
 11 17  1  0
 12 13  1  0
 12 18  1  0
 12 19  1  0
 13 20  1  0
 13 21  1  0
 13 22  1  0
M  RAD  1   1   2
M  END
>  <reaction>  (21) 
rmg_rxn_15602

>  <mol_properties>  (21) 
{"0": {"label": "*1", "atom_type": "Cs"}, "1": {"label": "*0", "atom_type": "O2s"}, "4": {"label": "*2", "atom_type": "H0"}, "9": {"label": "*3", "atom_type": "Cs"}, "10": {"label": "*4", "atom_type": "Cs"}}

>  <type>  (21) 
unop_17

>  <geom_source>  (21) 
Heuristics

$$$$

     RDKit          3D

 22 20  0  0  0  0  0  0  0  0999 V2000
   -1.5438    1.6719    0.7087 C   0  0  0  0  0  3  0  0  0  0  0  0
   -1.5438    1.7298   -0.7041 O   0  0  0  0  0  0  0  0  0  0  0  0
   -1.5438    0.4559   -1.2199 N   0  0  0  0  0  0  0  0  0  0  0  0
   -1.5438    0.4559   -2.4835 C   0  0  0  0  0  0  0  0  0  0  0  0
   -0.4732    1.0597    1.1529 H   0  0  0  0  0  0  0  0  0  0  0  0
   -2.4359    1.1617    1.0789 H   0  0  0  0  0  0  0  0  0  0  0  0
   -1.5438    2.7068    1.0465 H   0  0  0  0  0  0  0  0  0  0  0  0
   -1.5438   -0.5112   -2.9683 H   0  0  0  0  0  0  0  0  0  0  0  0
   -1.5438    1.3724   -3.0696 H   0  0  0  0  0  0  0  0  0  0  0  0
    0.5963    0.4481    1.5965 C   0  0  0  0  0  0  0  0  0  0  0  0
    1.0929   -0.5974    0.6071 C   0  0  0  0  0  0  0  0  0  0  0  0
    2.0368   -1.6151    1.2370 C   0  0  0  0  0  0  0  0  0  0  0  0
    2.5335   -2.6606    0.2476 C   0  0  0  0  0  0  0  0  0  0  0  0
    1.4304    1.0091    2.0248 H   0  0  0  0  0  0  0  0  0  0  0  0
    0.0553   -0.0202    2.4222 H   0  0  0  0  0  0  0  0  0  0  0  0
    1.6036   -0.1022   -0.2251 H   0  0  0  0  0  0  0  0  0  0  0  0
    0.2387   -1.1239    0.1694 H   0  0  0  0  0  0  0  0  0  0  0  0
    2.8911   -1.0885    1.6747 H   0  0  0  0  0  0  0  0  0  0  0  0
    1.5261   -2.1103    2.0692 H   0  0  0  0  0  0  0  0  0  0  0  0
    3.0745   -2.1922   -0.5781 H   0  0  0  0  0  0  0  0  0  0  0  0
    1.6994   -3.2215   -0.1806 H   0  0  0  0  0  0  0  0  0  0  0  0
    3.2063   -3.3753    0.7244 H   0  0  0  0  0  0  0  0  0  0  0  0
  1  2  1  0
  1  6  1  0
  1  7  1  0
  2  3  1  0
  3  4  2  3
  4  8  1  0
  4  9  1  0
  5 10  1  0
 10 11  1  0
 10 14  1  0
 10 15  1  0
 11 12  1  0
 11 16  1  0
 11 17  1  0
 12 13  1  0
 12 18  1  0
 12 19  1  0
 13 20  1  0
 13 21  1  0
 13 22  1  0
M  RAD  1   1   2
M  END
>  <reaction>  (22) 
rmg_rxn_15602

>  <mol_properties>  (22) 
{"0": {"label": "*1", "atom_type": "Cs"}, "1": {"label": "*0", "atom_type": "O2s"}, "4": {"label": "*2", "atom_type": "H0"}, "9": {"label": "*3", "atom_type": "Cs"}, "10": {"label": "*4", "atom_type": "Cs"}}

>  <type>  (22) 
unop_18

>  <geom_source>  (22) 
Heuristics

$$$$

     RDKit          3D

 22 20  0  0  0  0  0  0  0  0999 V2000
   -1.9802    0.5640    0.3324 C   0  0  0  0  0  3  0  0  0  0  0  0
   -1.9802    0.6219   -1.0805 O   0  0  0  0  0  0  0  0  0  0  0  0
   -1.9802   -0.6520   -1.5962 N   0  0  0  0  0  0  0  0  0  0  0  0
   -1.9802   -0.6520   -2.8598 C   0  0  0  0  0  0  0  0  0  0  0  0
   -0.9096   -0.0482    0.7765 H   0  0  0  0  0  0  0  0  0  0  0  0
   -2.8723    0.0538    0.7025 H   0  0  0  0  0  0  0  0  0  0  0  0
   -1.9802    1.5989    0.6702 H   0  0  0  0  0  0  0  0  0  0  0  0
   -1.9802   -1.6190   -3.3447 H   0  0  0  0  0  0  0  0  0  0  0  0
   -1.9802    0.2645   -3.4460 H   0  0  0  0  0  0  0  0  0  0  0  0
    0.1599   -0.6597    1.2202 C   0  0  0  0  0  0  0  0  0  0  0  0
    1.4326    0.0557    0.7875 C   0  0  0  0  0  0  0  0  0  0  0  0
    2.5650   -0.0753    1.7994 C   0  0  0  0  0  0  0  0  0  0  0  0
    3.8376    0.6401    1.3668 C   0  0  0  0  0  0  0  0  0  0  0  0
   -0.2108   -0.2605    2.1673 H   0  0  0  0  0  0  0  0  0  0  0  0
    0.3401   -1.7282    1.3606 H   0  0  0  0  0  0  0  0  0  0  0  0
    1.2196    1.1170    0.6236 H   0  0  0  0  0  0  0  0  0  0  0  0
    1.7665   -0.3399   -0.1771 H   0  0  0  0  0  0  0  0  0  0  0  0
    2.2311    0.3203    2.7641 H   0  0  0  0  0  0  0  0  0  0  0  0
    2.7779   -1.1367    1.9634 H   0  0  0  0  0  0  0  0  0  0  0  0
    3.6575    1.7086    1.2264 H   0  0  0  0  0  0  0  0  0  0  0  0
    4.2084    0.2409    0.4197 H   0  0  0  0  0  0  0  0  0  0  0  0
    4.6306    0.5302    2.1083 H   0  0  0  0  0  0  0  0  0  0  0  0
  1  2  1  0
  1  6  1  0
  1  7  1  0
  2  3  1  0
  3  4  2  3
  4  8  1  0
  4  9  1  0
  5 10  1  0
 10 11  1  0
 10 14  1  0
 10 15  1  0
 11 12  1  0
 11 16  1  0
 11 17  1  0
 12 13  1  0
 12 18  1  0
 12 19  1  0
 13 20  1  0
 13 21  1  0
 13 22  1  0
M  RAD  1   1   2
M  END
>  <reaction>  (23) 
rmg_rxn_15602

>  <mol_properties>  (23) 
{"0": {"label": "*1", "atom_type": "Cs"}, "1": {"label": "*0", "atom_type": "O2s"}, "4": {"label": "*2", "atom_type": "H0"}, "9": {"label": "*3", "atom_type": "Cs"}, "10": {"label": "*4", "atom_type": "Cs"}}

>  <type>  (23) 
unop_19

>  <geom_source>  (23) 
Heuristics

$$$$

     RDKit          3D

 22 20  0  0  0  0  0  0  0  0999 V2000
   -1.2348    1.2729   -0.5104 C   0  0  0  0  0  3  0  0  0  0  0  0
   -1.2348    1.3308   -1.9232 O   0  0  0  0  0  0  0  0  0  0  0  0
   -1.2348    0.0569   -2.4390 N   0  0  0  0  0  0  0  0  0  0  0  0
   -1.2348    0.0569   -3.7026 C   0  0  0  0  0  0  0  0  0  0  0  0
   -0.1642    0.6607   -0.0662 H   0  0  0  0  0  0  0  0  0  0  0  0
   -2.1270    0.7627   -0.1402 H   0  0  0  0  0  0  0  0  0  0  0  0
   -1.2349    2.3078   -0.1726 H   0  0  0  0  0  0  0  0  0  0  0  0
   -1.2349   -0.9101   -4.1874 H   0  0  0  0  0  0  0  0  0  0  0  0
   -1.2348    0.9734   -4.2888 H   0  0  0  0  0  0  0  0  0  0  0  0
    0.9053    0.0492    0.3774 C   0  0  0  0  0  0  0  0  0  0  0  0
    0.6344   -0.6651    1.6947 C   0  0  0  0  0  0  0  0  0  0  0  0
    1.8700   -0.7727    2.5808 C   0  0  0  0  0  0  0  0  0  0  0  0
    1.5992   -1.4869    3.8981 C   0  0  0  0  0  0  0  0  0  0  0  0
    1.6688   -0.4751   -0.2023 H   0  0  0  0  0  0  0  0  0  0  0  0
    1.2633    1.0668    0.5504 H   0  0  0  0  0  0  0  0  0  0  0  0
    0.2480   -1.6698    1.4951 H   0  0  0  0  0  0  0  0  0  0  0  0
   -0.1544   -0.1392    2.2422 H   0  0  0  0  0  0  0  0  0  0  0  0
    2.6589   -1.2986    2.0333 H   0  0  0  0  0  0  0  0  0  0  0  0
    2.2564    0.2320    2.7804 H   0  0  0  0  0  0  0  0  0  0  0  0
    1.2411   -2.5046    3.7251 H   0  0  0  0  0  0  0  0  0  0  0  0
    0.8357   -0.9627    4.4778 H   0  0  0  0  0  0  0  0  0  0  0  0
    2.4992   -1.5499    4.5118 H   0  0  0  0  0  0  0  0  0  0  0  0
  1  2  1  0
  1  6  1  0
  1  7  1  0
  2  3  1  0
  3  4  2  3
  4  8  1  0
  4  9  1  0
  5 10  1  0
 10 11  1  0
 10 14  1  0
 10 15  1  0
 11 12  1  0
 11 16  1  0
 11 17  1  0
 12 13  1  0
 12 18  1  0
 12 19  1  0
 13 20  1  0
 13 21  1  0
 13 22  1  0
M  RAD  1   1   2
M  END
>  <reaction>  (24) 
rmg_rxn_15602

>  <mol_properties>  (24) 
{"0": {"label": "*1", "atom_type": "Cs"}, "1": {"label": "*0", "atom_type": "O2s"}, "4": {"label": "*2", "atom_type": "H0"}, "9": {"label": "*3", "atom_type": "Cs"}, "10": {"label": "*4", "atom_type": "Cs"}}

>  <type>  (24) 
unop_20

>  <geom_source>  (24) 
Heuristics

$$$$

     RDKit          3D

 22 20  0  0  0  0  0  0  0  0999 V2000
   -1.8256    1.2981    0.8243 C   0  0  0  0  0  3  0  0  0  0  0  0
   -1.8256    1.3561   -0.5886 O   0  0  0  0  0  0  0  0  0  0  0  0
   -1.8256    0.0822   -1.1043 N   0  0  0  0  0  0  0  0  0  0  0  0
   -1.8256    0.0822   -2.3679 C   0  0  0  0  0  0  0  0  0  0  0  0
   -0.7550    0.6860    1.2684 H   0  0  0  0  0  0  0  0  0  0  0  0
   -2.7177    0.7879    1.1944 H   0  0  0  0  0  0  0  0  0  0  0  0
   -1.8256    2.3330    1.1621 H   0  0  0  0  0  0  0  0  0  0  0  0
   -1.8256   -0.8849   -2.8527 H   0  0  0  0  0  0  0  0  0  0  0  0
   -1.8256    0.9987   -2.9541 H   0  0  0  0  0  0  0  0  0  0  0  0
    0.3145    0.0744    1.7121 C   0  0  0  0  0  0  0  0  0  0  0  0
    1.2139   -0.3778    0.5696 C   0  0  0  0  0  0  0  0  0  0  0  0
    2.4713   -1.0950    1.0472 C   0  0  0  0  0  0  0  0  0  0  0  0
    3.3707   -1.5472   -0.0952 C   0  0  0  0  0  0  0  0  0  0  0  0
    0.8419    0.7634    2.3762 H   0  0  0  0  0  0  0  0  0  0  0  0
   -0.0129   -0.7773    2.3131 H   0  0  0  0  0  0  0  0  0  0  0  0
    1.5030    0.4879   -0.0350 H   0  0  0  0  0  0  0  0  0  0  0  0
    0.6545   -1.0414   -0.0976 H   0  0  0  0  0  0  0  0  0  0  0  0
    3.0307   -0.4313    1.7145 H   0  0  0  0  0  0  0  0  0  0  0  0
    2.1822   -1.9607    1.6518 H   0  0  0  0  0  0  0  0  0  0  0  0
    3.6982   -0.6954   -0.6962 H   0  0  0  0  0  0  0  0  0  0  0  0
    2.8434   -2.2361   -0.7593 H   0  0  0  0  0  0  0  0  0  0  0  0
    4.2620   -2.0568    0.2745 H   0  0  0  0  0  0  0  0  0  0  0  0
  1  2  1  0
  1  6  1  0
  1  7  1  0
  2  3  1  0
  3  4  2  3
  4  8  1  0
  4  9  1  0
  5 10  1  0
 10 11  1  0
 10 14  1  0
 10 15  1  0
 11 12  1  0
 11 16  1  0
 11 17  1  0
 12 13  1  0
 12 18  1  0
 12 19  1  0
 13 20  1  0
 13 21  1  0
 13 22  1  0
M  RAD  1   1   2
M  END
>  <reaction>  (25) 
rmg_rxn_15602

>  <mol_properties>  (25) 
{"0": {"label": "*1", "atom_type": "Cs"}, "1": {"label": "*0", "atom_type": "O2s"}, "4": {"label": "*2", "atom_type": "H0"}, "9": {"label": "*3", "atom_type": "Cs"}, "10": {"label": "*4", "atom_type": "Cs"}}

>  <type>  (25) 
unop_21

>  <geom_source>  (25) 
Heuristics

$$$$

     RDKit          3D

 22 20  0  0  0  0  0  0  0  0999 V2000
    2.6068   -1.2132   -0.5271 O   0  0  0  0  0  0  0  0  0  0  0  0
    3.3624   -0.2094   -1.1107 N   0  0  0  0  0  0  0  0  0  0  0  0
   -1.6892   -0.6558   -0.1541 C   0  0  0  0  0  0  0  0  0  0  0  0
   -1.3293    0.7738    0.2630 C   0  0  0  0  0  0  0  0  0  0  0  0
   -0.4790   -1.3768   -0.7377 C   0  0  0  0  0  0  0  0  0  0  0  0
   -2.5384    1.4973    0.8486 C   0  0  0  0  0  0  0  0  0  0  0  0
    1.7121   -0.9866    0.5567 C   0  0  0  0  0  3  0  0  0  0  0  0
    3.3038    1.0422   -0.7732 C   0  0  0  0  0  0  0  0  0  0  0  0
   -2.4980   -0.6331   -0.9168 H   0  0  0  0  0  0  0  0  0  0  0  0
   -2.0521   -1.2240    0.7298 H   0  0  0  0  0  0  0  0  0  0  0  0
   -0.9638    1.3416   -0.6204 H   0  0  0  0  0  0  0  0  0  0  0  0
   -0.5206    0.7499    1.0258 H   0  0  0  0  0  0  0  0  0  0  0  0
   -0.1112   -0.8453   -1.6412 H   0  0  0  0  0  0  0  0  0  0  0  0
   -0.7641   -2.4110   -1.0245 H   0  0  0  0  0  0  0  0  0  0  0  0
    0.4701   -1.4359    0.1412 H   0  0  0  0  0  0  0  0  0  0  0  0
   -2.2488    2.5285    1.1413 H   0  0  0  0  0  0  0  0  0  0  0  0
   -3.3537    1.5574    0.0963 H   0  0  0  0  0  0  0  0  0  0  0  0
   -2.9088    0.9631    1.7495 H   0  0  0  0  0  0  0  0  0  0  0  0
    1.1478   -1.9178    0.7686 H   0  0  0  0  0  0  0  0  0  0  0  0
    2.2855   -0.6967    1.4621 H   0  0  0  0  0  0  0  0  0  0  0  0
    2.6375    1.3907    0.0043 H   0  0  0  0  0  0  0  0  0  0  0  0
    3.9310    1.7613   -1.2817 H   0  0  0  0  0  0  0  0  0  0  0  0
  1  7  1  0
  1  2  1  0
  2  8  2  3
  3  5  1  0
  3  4  1  0
  3  9  1  0
  3 10  1  0
  4  6  1  0
  4 11  1  0
  4 12  1  0
  5 13  1  0
  5 14  1  0
  5 15  1  0
  6 16  1  0
  6 17  1  0
  6 18  1  0
  7 19  1  0
  7 20  1  0
  8 21  1  0
  8 22  1  0
M  RAD  1   7   2
M  END
>  <reaction>  (26) 
rmg_rxn_15602

>  <mol_properties>  (26) 
{"0": {"label": "*1", "atom_type": "Cs"}, "1": {"label": "*0", "atom_type": "O2s"}, "4": {"label": "*2", "atom_type": "H0"}, "9": {"label": "*3", "atom_type": "Cs"}, "10": {"label": "*4", "atom_type": "Cs"}}

>  <type>  (26) 
unop_22

>  <geom_source>  (26) 
AutoTST

$$$$

     RDKit          3D

 22 20  0  0  0  0  0  0  0  0999 V2000
   -1.9889    0.8696    0.6758 C   0  0  0  0  0  3  0  0  0  0  0  0
   -1.9890    0.9275   -0.7370 O   0  0  0  0  0  0  0  0  0  0  0  0
   -1.9890   -0.3464   -1.2528 N   0  0  0  0  0  0  0  0  0  0  0  0
   -1.9890   -0.3464   -2.5164 C   0  0  0  0  0  0  0  0  0  0  0  0
   -0.9183    0.2574    1.1200 H   0  0  0  0  0  0  0  0  0  0  0  0
   -2.8811    0.3594    1.0460 H   0  0  0  0  0  0  0  0  0  0  0  0
   -1.9890    1.9044    1.0137 H   0  0  0  0  0  0  0  0  0  0  0  0
   -1.9890   -1.3135   -3.0012 H   0  0  0  0  0  0  0  0  0  0  0  0
   -1.9889    0.5701   -3.1025 H   0  0  0  0  0  0  0  0  0  0  0  0
    0.1511   -0.3542    1.5636 C   0  0  0  0  0  0  0  0  0  0  0  0
    1.3346   -0.1618    0.6250 C   0  0  0  0  0  0  0  0  0  0  0  0
    2.6753   -0.4644    1.2842 C   0  0  0  0  0  0  0  0  0  0  0  0
    3.8587   -0.2721    0.3455 C   0  0  0  0  0  0  0  0  0  0  0  0
    0.2327    0.2995    2.4353 H   0  0  0  0  0  0  0  0  0  0  0  0
    0.1029   -1.3836    1.9267 H   0  0  0  0  0  0  0  0  0  0  0  0
    1.3433    0.8671    0.2510 H   0  0  0  0  0  0  0  0  0  0  0  0
    1.2145   -0.8036   -0.2538 H   0  0  0  0  0  0  0  0  0  0  0  0
    2.7954    0.1774    2.1630 H   0  0  0  0  0  0  0  0  0  0  0  0
    2.6665   -1.4933    1.6581 H   0  0  0  0  0  0  0  0  0  0  0  0
    3.9069    0.7573   -0.0176 H   0  0  0  0  0  0  0  0  0  0  0  0
    3.7771   -0.9258   -0.5262 H   0  0  0  0  0  0  0  0  0  0  0  0
    4.8042   -0.4951    0.8424 H   0  0  0  0  0  0  0  0  0  0  0  0
  1  2  1  0
  1  6  1  0
  1  7  1  0
  2  3  1  0
  3  4  2  3
  4  8  1  0
  4  9  1  0
  5 10  1  0
 10 11  1  0
 10 14  1  0
 10 15  1  0
 11 12  1  0
 11 16  1  0
 11 17  1  0
 12 13  1  0
 12 18  1  0
 12 19  1  0
 13 20  1  0
 13 21  1  0
 13 22  1  0
M  RAD  1   1   2
M  END
>  <reaction>  (27) 
rmg_rxn_15602

>  <mol_properties>  (27) 
{"0": {"label": "*1", "atom_type": "Cs"}, "1": {"label": "*0", "atom_type": "O2s"}, "4": {"label": "*2", "atom_type": "H0"}, "9": {"label": "*3", "atom_type": "Cs"}, "10": {"label": "*4", "atom_type": "Cs"}}

>  <type>  (27) 
unop_23

>  <geom_source>  (27) 
gaussian_log

$$$$
