
     RDKit          3D

 10  9  0  0  0  0  0  0  0  0999 V2000
    2.0403   -0.0577    0.0121 C   0  0  0  0  0  0  0  0  0  0  0  0
    0.5945   -0.0168    0.1898 C   0  0  0  0  0  0  0  0  0  0  0  0
   -0.5945    0.0168    0.3360 C   0  0  0  0  0  0  0  0  0  0  0  0
   -2.0403    0.0577    0.5137 C   0  0  0  0  0  0  0  0  0  0  0  0
    2.4764    0.9347    0.1388 H   0  0  0  0  0  0  0  0  0  0  0  0
    2.3000   -0.4153   -0.9858 H   0  0  0  0  0  0  0  0  0  0  0  0
    2.5035   -0.7252    0.7407 H   0  0  0  0  0  0  0  0  0  0  0  0
   -2.3768    1.0719    0.7353 H   0  0  0  0  0  0  0  0  0  0  0  0
   -2.3498   -0.5879    1.3374 H   0  0  0  0  0  0  0  0  0  0  0  0
   -2.5532   -0.2782   -0.3891 H   0  0  0  0  0  0  0  0  0  0  0  0
  1  2  1  0
  1  5  1  0
  1  6  1  0
  1  7  1  0
  2  3  3  0
  3  4  1  0
  4  8  1  0
  4  9  1  0
  4 10  1  0
M  END
>  <reaction>  (1) 
rmg_rxn_251

>  <mol_properties>  (1) 
{"3": {"label": "donator", "atom_type": "Cs"}, "9": {"label": "d_hydrogen", "atom_type": "H0"}}

>  <type>  (1) 
r1h

$$$$

     RDKit          3D

 13 13  0  0  0  0  0  0  0  0999 V2000
   -0.9087    1.0135    0.2744 C   0  0  0  0  0  3  0  0  0  0  0  0
   -1.1528   -0.4306   -0.0132 C   0  0  0  0  0  0  0  0  0  0  0  0
    0.1597   -1.1985    0.0580 C   0  0  0  0  0  0  0  0  0  0  0  0
    1.1497   -0.5125   -0.6902 O   0  0  0  0  0  0  0  0  0  0  0  0
    1.3593    0.7608   -0.1866 C   0  0  0  0  0  0  0  0  0  0  0  0
    0.2092    1.5798   -0.2538 O   0  0  0  0  0  0  0  0  0  0  0  0
   -1.7260    1.7182    0.3534 H   0  0  0  0  0  0  0  0  0  0  0  0
   -1.8796   -0.8393    0.6913 H   0  0  0  0  0  0  0  0  0  0  0  0
   -1.5725   -0.5507   -1.0227 H   0  0  0  0  0  0  0  0  0  0  0  0
    0.4914   -1.2968    1.1007 H   0  0  0  0  0  0  0  0  0  0  0  0
    0.0732   -2.1931   -0.3758 H   0  0  0  0  0  0  0  0  0  0  0  0
    1.6805    0.7077    0.8652 H   0  0  0  0  0  0  0  0  0  0  0  0
    2.1167    1.2415   -0.8007 H   0  0  0  0  0  0  0  0  0  0  0  0
  1  2  1  0
  1  6  1  0
  1  7  1  0
  2  3  1  0
  2  8  1  0
  2  9  1  0
  3  4  1  0
  3 10  1  0
  3 11  1  0
  4  5  1  0
  5  6  1  0
  5 12  1  0
  5 13  1  0
M  RAD  1   1   2
M  END
>  <reaction>  (2) 
rmg_rxn_251

>  <mol_properties>  (2) 
{"0": {"label": "acceptor", "atom_type": "Cs"}}

>  <type>  (2) 
r2

$$$$

     RDKit          3D

 14 14  0  0  0  0  0  0  0  0999 V2000
   -1.1778    0.2241    0.1818 C   0  0  0  0  0  0  0  0  0  0  0  0
   -0.5633   -1.1636    0.0678 C   0  0  0  0  0  0  0  0  0  0  0  0
    0.6943   -1.1996    0.7146 O   0  0  0  0  0  0  0  0  0  0  0  0
    1.5547   -0.2288    0.2011 C   0  0  0  0  0  0  0  0  0  0  0  0
    1.0729    1.0696    0.3698 O   0  0  0  0  0  0  0  0  0  0  0  0
   -0.1607    1.2493   -0.2989 C   0  0  0  0  0  0  0  0  0  0  0  0
   -2.0927    0.2866   -0.4117 H   0  0  0  0  0  0  0  0  0  0  0  0
   -1.4303    0.4248    1.2248 H   0  0  0  0  0  0  0  0  0  0  0  0
   -1.1822   -1.9235    0.5431 H   0  0  0  0  0  0  0  0  0  0  0  0
   -0.4389   -1.4347   -0.9919 H   0  0  0  0  0  0  0  0  0  0  0  0
    1.7250   -0.4207   -0.8742 H   0  0  0  0  0  0  0  0  0  0  0  0
    2.4896   -0.3010    0.7524 H   0  0  0  0  0  0  0  0  0  0  0  0
   -0.0080    1.1481   -1.3844 H   0  0  0  0  0  0  0  0  0  0  0  0
   -0.4826    2.2695   -0.0942 H   0  0  0  0  0  0  0  0  0  0  0  0
  1  2  1  0
  1  6  1  0
  1  7  1  0
  1  8  1  0
  2  3  1  0
  2  9  1  0
  2 10  1  0
  3  4  1  0
  4  5  1  0
  4 11  1  0
  4 12  1  0
  5  6  1  0
  6 13  1  0
  6 14  1  0
M  END
>  <reaction>  (3) 
rmg_rxn_251

>  <mol_properties>  (3) 
{"0": {"label": "a_hydrogen", "atom_type": "H0"}, "1": {"label": "acceptor", "atom_type": "Cs"}}

>  <type>  (3) 
r2h

$$$$

     RDKit          3D

 23 22  0  0  0  0  0  0  0  0999 V2000
   -1.3836    2.2175   -3.5056 C   0  0  0  0  0  0  0  0  0  0  0  0
   -1.4983    1.0356   -2.6633 C   0  0  0  0  0  0  0  0  0  0  0  0
   -1.6101    0.0561   -1.9724 C   0  0  0  0  0  0  0  0  0  0  0  0
   -1.6739   -1.0845   -1.1180 C   0  0  0  0  0  0  0  0  0  0  0  0
   -0.5523    2.8483   -3.1835 H   0  0  0  0  0  0  0  0  0  0  0  0
   -2.2950    2.8166   -3.4627 H   0  0  0  0  0  0  0  0  0  0  0  0
   -1.2107    1.9392   -4.5467 H   0  0  0  0  0  0  0  0  0  0  0  0
   -1.6330   -2.0414   -1.6348 H   0  0  0  0  0  0  0  0  0  0  0  0
   -2.4689   -1.0537   -0.3758 H   0  0  0  0  0  0  0  0  0  0  0  0
   -0.5975   -1.0848   -0.3778 H   0  0  0  0  0  0  0  0  0  0  0  0
    0.4733   -0.9603    0.4901 C   0  0  0  0  0  3  0  0  0  0  0  0
    1.0073    0.4311    0.2900 C   0  0  0  0  0  0  0  0  0  0  0  0
    1.8872    0.7961    1.4849 C   0  0  0  0  0  0  0  0  0  0  0  0
    1.1909    0.5487    2.6917 O   0  0  0  0  0  0  0  0  0  0  0  0
    0.7848   -0.7773    2.7806 C   0  0  0  0  0  0  0  0  0  0  0  0
   -0.0937   -1.1462    1.7452 O   0  0  0  0  0  0  0  0  0  0  0  0
    1.1519   -1.7746    0.2104 H   0  0  0  0  0  0  0  0  0  0  0  0
    1.5705    0.4953   -0.6421 H   0  0  0  0  0  0  0  0  0  0  0  0
    0.1731    1.1348    0.2310 H   0  0  0  0  0  0  0  0  0  0  0  0
    2.8160    0.2073    1.4679 H   0  0  0  0  0  0  0  0  0  0  0  0
    2.1491    1.8534    1.4856 H   0  0  0  0  0  0  0  0  0  0  0  0
    1.6658   -1.4418    2.7580 H   0  0  0  0  0  0  0  0  0  0  0  0
    0.2405   -0.8931    3.7150 H   0  0  0  0  0  0  0  0  0  0  0  0
  1  2  1  0
  1  5  1  0
  1  6  1  0
  1  7  1  0
  2  3  3  0
  3  4  1  0
  4  8  1  0
  4  9  1  0
  4 10  1  0
 11 12  1  0
 11 16  1  0
 11 17  1  0
 12 13  1  0
 12 18  1  0
 12 19  1  0
 13 14  1  0
 13 20  1  0
 13 21  1  0
 14 15  1  0
 15 16  1  0
 15 22  1  0
 15 23  1  0
M  RAD  1  11   2
M  END
>  <reaction>  (4) 
rmg_rxn_251

>  <mol_properties>  (4) 
{"2": {"label": "*0", "atom_type": "Ct"}, "3": {"label": "*1", "atom_type": "Cs"}, "9": {"label": "*2", "atom_type": "H0"}, "10": {"label": "*3", "atom_type": "Cs"}, "15": {"label": "*4", "atom_type": "O2s"}}

>  <type>  (4) 
ts

$$$$

     RDKit          3D

 23 22  0  0  0  0  0  0  0  0999 V2000
   -1.5419    0.2767   -4.7905 C   0  0  0  0  0  0  0  0  0  0  0  0
   -1.5419    0.2767   -3.3332 C   0  0  0  0  0  3  0  0  0  0  0  0
   -1.5419    0.2767   -2.1347 C   0  0  0  0  0  0  0  0  0  0  0  0
   -1.5419    0.2767   -0.6775 C   0  0  0  0  0  0  0  0  0  0  0  0
   -2.1643   -0.5308   -5.1798 H   0  0  0  0  0  0  0  0  0  0  0  0
   -0.5314    0.1415   -5.1798 H   0  0  0  0  0  0  0  0  0  0  0  0
   -1.9301    1.2195   -5.1798 H   0  0  0  0  0  0  0  0  0  0  0  0
   -2.1643   -0.5308   -0.2881 H   0  0  0  0  0  0  0  0  0  0  0  0
   -1.9301    1.2195   -0.2881 H   0  0  0  0  0  0  0  0  0  0  0  0
   -0.3293    0.1145   -0.2103 H   0  0  0  0  0  0  0  0  0  0  0  0
    0.8809   -0.0474    0.2560 C   0  0  0  0  0  0  0  0  0  0  0  0
    1.3205    1.1271    1.1184 C   0  0  0  0  0  0  0  0  0  0  0  0
    1.8847    0.5887    2.4255 C   0  0  0  0  0  0  0  0  0  0  0  0
    0.9660   -0.3027    3.0279 O   0  0  0  0  0  0  0  0  0  0  0  0
    0.6305   -1.3441    2.1623 C   0  0  0  0  0  0  0  0  0  0  0  0
    0.0220   -0.9009    0.9877 O   0  0  0  0  0  0  0  0  0  0  0  0
    1.7605   -0.6155   -0.0837 H   0  0  0  0  0  0  0  0  0  0  0  0
    2.0709    1.7247    0.5960 H   0  0  0  0  0  0  0  0  0  0  0  0
    0.4597    1.7645    1.3298 H   0  0  0  0  0  0  0  0  0  0  0  0
    2.8350    0.0654    2.2384 H   0  0  0  0  0  0  0  0  0  0  0  0
    2.0698    1.3832    3.1471 H   0  0  0  0  0  0  0  0  0  0  0  0
    1.5402   -1.9196    1.9101 H   0  0  0  0  0  0  0  0  0  0  0  0
   -0.0874   -1.9763    2.6799 H   0  0  0  0  0  0  0  0  0  0  0  0
  1  2  1  0
  1  5  1  0
  1  6  1  0
  1  7  1  0
  2  3  2  0
  3  4  2  0
  4  8  1  0
  4  9  1  0
 10 11  1  0
 11 12  1  0
 11 16  1  0
 11 17  1  0
 12 13  1  0
 12 18  1  0
 12 19  1  0
 13 14  1  0
 13 20  1  0
 13 21  1  0
 14 15  1  0
 15 16  1  0
 15 22  1  0
 15 23  1  0
M  RAD  1   2   2
M  END
>  <reaction>  (5) 
rmg_rxn_251

>  <mol_properties>  (5) 
{"2": {"label": "*0", "atom_type": "Ct"}, "3": {"label": "*1", "atom_type": "Cs"}, "9": {"label": "*2", "atom_type": "H0"}, "10": {"label": "*3", "atom_type": "Cs"}, "15": {"label": "*4", "atom_type": "O2s"}}

>  <type>  (5) 
unop_1

>  <geom_source>  (5) 
Heuristics

$$$$

     RDKit          3D

 23 22  0  0  0  0  0  0  0  0999 V2000
   -2.1176   -0.3671   -4.2016 C   0  0  0  0  0  0  0  0  0  0  0  0
   -2.1176   -0.3671   -2.7443 C   0  0  0  0  0  3  0  0  0  0  0  0
   -2.1176   -0.3671   -1.5458 C   0  0  0  0  0  0  0  0  0  0  0  0
   -2.1176   -0.3671   -0.0886 C   0  0  0  0  0  0  0  0  0  0  0  0
   -2.7400   -1.1746   -4.5909 H   0  0  0  0  0  0  0  0  0  0  0  0
   -1.1071   -0.5024   -4.5909 H   0  0  0  0  0  0  0  0  0  0  0  0
   -2.5057    0.5756   -4.5909 H   0  0  0  0  0  0  0  0  0  0  0  0
   -2.7399   -1.1746    0.3007 H   0  0  0  0  0  0  0  0  0  0  0  0
   -2.5058    0.5756    0.3008 H   0  0  0  0  0  0  0  0  0  0  0  0
   -0.9050   -0.5294    0.3786 H   0  0  0  0  0  0  0  0  0  0  0  0
    0.3052   -0.6913    0.8449 C   0  0  0  0  0  0  0  0  0  0  0  0
    1.3582   -0.1201   -0.0941 C   0  0  0  0  0  0  0  0  0  0  0  0
    2.5786    0.2763    0.7245 C   0  0  0  0  0  0  0  0  0  0  0  0
    2.1991    1.1134    1.7999 O   0  0  0  0  0  0  0  0  0  0  0  0
    1.2372    0.4999    2.6029 C   0  0  0  0  0  0  0  0  0  0  0  0
    0.0612    0.2035    1.9132 O   0  0  0  0  0  0  0  0  0  0  0  0
    0.6436   -1.6588    1.2464 H   0  0  0  0  0  0  0  0  0  0  0  0
    1.6308   -0.8553   -0.8546 H   0  0  0  0  0  0  0  0  0  0  0  0
    0.9562    0.7617   -0.5968 H   0  0  0  0  0  0  0  0  0  0  0  0
    3.0769   -0.6231    1.1175 H   0  0  0  0  0  0  0  0  0  0  0  0
    3.3022    0.8351    0.1325 H   0  0  0  0  0  0  0  0  0  0  0  0
    1.6553   -0.4291    3.0322 H   0  0  0  0  0  0  0  0  0  0  0  0
    0.9804    1.2015    3.3934 H   0  0  0  0  0  0  0  0  0  0  0  0
  1  2  1  0
  1  5  1  0
  1  6  1  0
  1  7  1  0
  2  3  2  0
  3  4  2  0
  4  8  1  0
  4  9  1  0
 10 11  1  0
 11 12  1  0
 11 16  1  0
 11 17  1  0
 12 13  1  0
 12 18  1  0
 12 19  1  0
 13 14  1  0
 13 20  1  0
 13 21  1  0
 14 15  1  0
 15 16  1  0
 15 22  1  0
 15 23  1  0
M  RAD  1   2   2
M  END
>  <reaction>  (6) 
rmg_rxn_251

>  <mol_properties>  (6) 
{"2": {"label": "*0", "atom_type": "Ct"}, "3": {"label": "*1", "atom_type": "Cs"}, "9": {"label": "*2", "atom_type": "H0"}, "10": {"label": "*3", "atom_type": "Cs"}, "15": {"label": "*4", "atom_type": "O2s"}}

>  <type>  (6) 
unop_2

>  <geom_source>  (6) 
Heuristics

$$$$

     RDKit          3D

 23 22  0  0  0  0  0  0  0  0999 V2000
   -1.6832    0.6740   -4.6354 C   0  0  0  0  0  0  0  0  0  0  0  0
   -1.6832    0.6740   -3.1782 C   0  0  0  0  0  3  0  0  0  0  0  0
   -1.6832    0.6740   -1.9797 C   0  0  0  0  0  0  0  0  0  0  0  0
   -1.6832    0.6740   -0.5224 C   0  0  0  0  0  0  0  0  0  0  0  0
   -2.3056   -0.1335   -5.0248 H   0  0  0  0  0  0  0  0  0  0  0  0
   -0.6727    0.5388   -5.0248 H   0  0  0  0  0  0  0  0  0  0  0  0
   -2.0713    1.6168   -5.0248 H   0  0  0  0  0  0  0  0  0  0  0  0
   -2.3055   -0.1335   -0.1331 H   0  0  0  0  0  0  0  0  0  0  0  0
   -2.0714    1.6168   -0.1331 H   0  0  0  0  0  0  0  0  0  0  0  0
   -0.4706    0.5118   -0.0552 H   0  0  0  0  0  0  0  0  0  0  0  0
    0.7396    0.3499    0.4110 C   0  0  0  0  0  0  0  0  0  0  0  0
    0.9280    1.0367    1.7561 C   0  0  0  0  0  0  0  0  0  0  0  0
    1.7983    0.1527    2.6380 C   0  0  0  0  0  0  0  0  0  0  0  0
    1.2733   -1.1600    2.6895 O   0  0  0  0  0  0  0  0  0  0  0  0
    1.1438   -1.7031    1.4109 C   0  0  0  0  0  0  0  0  0  0  0  0
    0.2777   -0.9746    0.5952 O   0  0  0  0  0  0  0  0  0  0  0  0
    1.6924    0.3330   -0.1401 H   0  0  0  0  0  0  0  0  0  0  0  0
    1.3911    2.0170    1.6228 H   0  0  0  0  0  0  0  0  0  0  0  0
   -0.0448    1.1779    2.2311 H   0  0  0  0  0  0  0  0  0  0  0  0
    2.8256    0.1219    2.2436 H   0  0  0  0  0  0  0  0  0  0  0  0
    1.8384    0.5148    3.6644 H   0  0  0  0  0  0  0  0  0  0  0  0
    2.1391   -1.7584    0.9329 H   0  0  0  0  0  0  0  0  0  0  0  0
    0.7210   -2.6989    1.5238 H   0  0  0  0  0  0  0  0  0  0  0  0
  1  2  1  0
  1  5  1  0
  1  6  1  0
  1  7  1  0
  2  3  2  0
  3  4  2  0
  4  8  1  0
  4  9  1  0
 10 11  1  0
 11 12  1  0
 11 16  1  0
 11 17  1  0
 12 13  1  0
 12 18  1  0
 12 19  1  0
 13 14  1  0
 13 20  1  0
 13 21  1  0
 14 15  1  0
 15 16  1  0
 15 22  1  0
 15 23  1  0
M  RAD  1   2   2
M  END
>  <reaction>  (7) 
rmg_rxn_251

>  <mol_properties>  (7) 
{"2": {"label": "*0", "atom_type": "Ct"}, "3": {"label": "*1", "atom_type": "Cs"}, "9": {"label": "*2", "atom_type": "H0"}, "10": {"label": "*3", "atom_type": "Cs"}, "15": {"label": "*4", "atom_type": "O2s"}}

>  <type>  (7) 
unop_3

>  <geom_source>  (7) 
Heuristics

$$$$

     RDKit          3D

 23 22  0  0  0  0  0  0  0  0999 V2000
   -2.3311    0.4194   -4.1313 C   0  0  0  0  0  0  0  0  0  0  0  0
   -2.3311    0.4194   -2.6741 C   0  0  0  0  0  3  0  0  0  0  0  0
   -2.3311    0.4194   -1.4756 C   0  0  0  0  0  0  0  0  0  0  0  0
   -2.3311    0.4194   -0.0183 C   0  0  0  0  0  0  0  0  0  0  0  0
   -2.9535   -0.3881   -4.5206 H   0  0  0  0  0  0  0  0  0  0  0  0
   -1.3206    0.2841   -4.5206 H   0  0  0  0  0  0  0  0  0  0  0  0
   -2.7192    1.3622   -4.5207 H   0  0  0  0  0  0  0  0  0  0  0  0
   -2.9534   -0.3881    0.3710 H   0  0  0  0  0  0  0  0  0  0  0  0
   -2.7193    1.3621    0.3710 H   0  0  0  0  0  0  0  0  0  0  0  0
   -1.1185    0.2572    0.4489 H   0  0  0  0  0  0  0  0  0  0  0  0
    0.0917    0.0952    0.9152 C   0  0  0  0  0  0  0  0  0  0  0  0
    0.7062   -1.2203    0.4589 C   0  0  0  0  0  0  0  0  0  0  0  0
    1.8073   -1.6093    1.4351 C   0  0  0  0  0  0  0  0  0  0  0  0
    2.7143   -0.5372    1.6065 O   0  0  0  0  0  0  0  0  0  0  0  0
    2.0568    0.6182    2.0299 C   0  0  0  0  0  0  0  0  0  0  0  0
    1.1009    1.0658    1.1176 O   0  0  0  0  0  0  0  0  0  0  0  0
   -0.4666   -0.0546    1.8520 H   0  0  0  0  0  0  0  0  0  0  0  0
   -0.0557   -2.0016    0.4116 H   0  0  0  0  0  0  0  0  0  0  0  0
    1.1327   -1.0953   -0.5383 H   0  0  0  0  0  0  0  0  0  0  0  0
    1.3697   -1.8791    2.4085 H   0  0  0  0  0  0  0  0  0  0  0  0
    2.3888   -2.4575    1.0764 H   0  0  0  0  0  0  0  0  0  0  0  0
    1.5730    0.4289    3.0057 H   0  0  0  0  0  0  0  0  0  0  0  0
    2.8063    1.4010    2.1232 H   0  0  0  0  0  0  0  0  0  0  0  0
  1  2  1  0
  1  5  1  0
  1  6  1  0
  1  7  1  0
  2  3  2  0
  3  4  2  0
  4  8  1  0
  4  9  1  0
 10 11  1  0
 11 12  1  0
 11 16  1  0
 11 17  1  0
 12 13  1  0
 12 18  1  0
 12 19  1  0
 13 14  1  0
 13 20  1  0
 13 21  1  0
 14 15  1  0
 15 16  1  0
 15 22  1  0
 15 23  1  0
M  RAD  1   2   2
M  END
>  <reaction>  (8) 
rmg_rxn_251

>  <mol_properties>  (8) 
{"2": {"label": "*0", "atom_type": "Ct"}, "3": {"label": "*1", "atom_type": "Cs"}, "9": {"label": "*2", "atom_type": "H0"}, "10": {"label": "*3", "atom_type": "Cs"}, "15": {"label": "*4", "atom_type": "O2s"}}

>  <type>  (8) 
unop_4

>  <geom_source>  (8) 
Heuristics

$$$$

     RDKit          3D

 23 22  0  0  0  0  0  0  0  0999 V2000
   -2.0808    0.7074   -4.3475 C   0  0  0  0  0  0  0  0  0  0  0  0
   -2.0808    0.7074   -2.8903 C   0  0  0  0  0  3  0  0  0  0  0  0
   -2.0808    0.7074   -1.6918 C   0  0  0  0  0  0  0  0  0  0  0  0
   -2.0808    0.7074   -0.2345 C   0  0  0  0  0  0  0  0  0  0  0  0
   -2.7032   -0.1000   -4.7369 H   0  0  0  0  0  0  0  0  0  0  0  0
   -1.0703    0.5722   -4.7369 H   0  0  0  0  0  0  0  0  0  0  0  0
   -2.4689    1.6502   -4.7369 H   0  0  0  0  0  0  0  0  0  0  0  0
   -2.7031   -0.1001    0.1548 H   0  0  0  0  0  0  0  0  0  0  0  0
   -2.4690    1.6502    0.1548 H   0  0  0  0  0  0  0  0  0  0  0  0
   -0.8682    0.5452    0.2327 H   0  0  0  0  0  0  0  0  0  0  0  0
    0.3420    0.3833    0.6989 C   0  0  0  0  0  0  0  0  0  0  0  0
    0.3699    0.3795    2.2207 C   0  0  0  0  0  0  0  0  0  0  0  0
    1.7597   -0.0353    2.6823 C   0  0  0  0  0  0  0  0  0  0  0  0
    2.1437   -1.2465    2.0603 O   0  0  0  0  0  0  0  0  0  0  0  0
    2.0904   -1.1399    0.6703 C   0  0  0  0  0  0  0  0  0  0  0  0
    0.8105   -0.8529    0.1951 O   0  0  0  0  0  0  0  0  0  0  0  0
    0.9716    1.1994    0.3126 H   0  0  0  0  0  0  0  0  0  0  0  0
    0.1177    1.3686    2.6097 H   0  0  0  0  0  0  0  0  0  0  0  0
   -0.3654   -0.3350    2.5955 H   0  0  0  0  0  0  0  0  0  0  0  0
    2.4891    0.7514    2.4355 H   0  0  0  0  0  0  0  0  0  0  0  0
    1.7970   -0.2091    3.7569 H   0  0  0  0  0  0  0  0  0  0  0  0
    2.7916   -0.3536    0.3351 H   0  0  0  0  0  0  0  0  0  0  0  0
    2.3786   -2.1054    0.2606 H   0  0  0  0  0  0  0  0  0  0  0  0
  1  2  1  0
  1  5  1  0
  1  6  1  0
  1  7  1  0
  2  3  2  0
  3  4  2  0
  4  8  1  0
  4  9  1  0
 10 11  1  0
 11 12  1  0
 11 16  1  0
 11 17  1  0
 12 13  1  0
 12 18  1  0
 12 19  1  0
 13 14  1  0
 13 20  1  0
 13 21  1  0
 14 15  1  0
 15 16  1  0
 15 22  1  0
 15 23  1  0
M  RAD  1   2   2
M  END
>  <reaction>  (9) 
rmg_rxn_251

>  <mol_properties>  (9) 
{"2": {"label": "*0", "atom_type": "Ct"}, "3": {"label": "*1", "atom_type": "Cs"}, "9": {"label": "*2", "atom_type": "H0"}, "10": {"label": "*3", "atom_type": "Cs"}, "15": {"label": "*4", "atom_type": "O2s"}}

>  <type>  (9) 
unop_5

>  <geom_source>  (9) 
Heuristics

$$$$

     RDKit          3D

 23 22  0  0  0  0  0  0  0  0999 V2000
   -2.2638    0.4433   -4.2883 C   0  0  0  0  0  0  0  0  0  0  0  0
   -2.2638    0.4433   -2.8310 C   0  0  0  0  0  3  0  0  0  0  0  0
   -2.2638    0.4433   -1.6325 C   0  0  0  0  0  0  0  0  0  0  0  0
   -2.2638    0.4433   -0.1753 C   0  0  0  0  0  0  0  0  0  0  0  0
   -2.8862   -0.3642   -4.6776 H   0  0  0  0  0  0  0  0  0  0  0  0
   -1.2533    0.3080   -4.6776 H   0  0  0  0  0  0  0  0  0  0  0  0
   -2.6520    1.3861   -4.6776 H   0  0  0  0  0  0  0  0  0  0  0  0
   -2.8862   -0.3642    0.2140 H   0  0  0  0  0  0  0  0  0  0  0  0
   -2.6520    1.3860    0.2140 H   0  0  0  0  0  0  0  0  0  0  0  0
   -1.0512    0.2811    0.2919 H   0  0  0  0  0  0  0  0  0  0  0  0
    0.1590    0.1191    0.7582 C   0  0  0  0  0  0  0  0  0  0  0  0
    0.4988   -1.3505    0.9612 C   0  0  0  0  0  0  0  0  0  0  0  0
    1.4780   -1.4694    2.1204 C   0  0  0  0  0  0  0  0  0  0  0  0
    2.5824   -0.6077    1.9220 O   0  0  0  0  0  0  0  0  0  0  0  0
    2.1682    0.7136    1.7518 C   0  0  0  0  0  0  0  0  0  0  0  0
    1.3419    0.8862    0.6410 O   0  0  0  0  0  0  0  0  0  0  0  0
   -0.4358    0.4891    1.6074 H   0  0  0  0  0  0  0  0  0  0  0  0
   -0.4062   -1.9271    1.1652 H   0  0  0  0  0  0  0  0  0  0  0  0
    0.9606   -1.7450    0.0541 H   0  0  0  0  0  0  0  0  0  0  0  0
    0.9761   -1.2112    3.0655 H   0  0  0  0  0  0  0  0  0  0  0  0
    1.8796   -2.4776    2.2126 H   0  0  0  0  0  0  0  0  0  0  0  0
    1.6375    1.0523    2.6605 H   0  0  0  0  0  0  0  0  0  0  0  0
    3.0605    1.3136    1.5874 H   0  0  0  0  0  0  0  0  0  0  0  0
  1  2  1  0
  1  5  1  0
  1  6  1  0
  1  7  1  0
  2  3  2  0
  3  4  2  0
  4  8  1  0
  4  9  1  0
 10 11  1  0
 11 12  1  0
 11 16  1  0
 11 17  1  0
 12 13  1  0
 12 18  1  0
 12 19  1  0
 13 14  1  0
 13 20  1  0
 13 21  1  0
 14 15  1  0
 15 16  1  0
 15 22  1  0
 15 23  1  0
M  RAD  1   2   2
M  END
>  <reaction>  (10) 
rmg_rxn_251

>  <mol_properties>  (10) 
{"2": {"label": "*0", "atom_type": "Ct"}, "3": {"label": "*1", "atom_type": "Cs"}, "9": {"label": "*2", "atom_type": "H0"}, "10": {"label": "*3", "atom_type": "Cs"}, "15": {"label": "*4", "atom_type": "O2s"}}

>  <type>  (10) 
unop_6

>  <geom_source>  (10) 
Heuristics

$$$$

     RDKit          3D

 23 22  0  0  0  0  0  0  0  0999 V2000
   -2.2475    0.3787   -4.3506 C   0  0  0  0  0  0  0  0  0  0  0  0
   -2.2475    0.3787   -2.8933 C   0  0  0  0  0  3  0  0  0  0  0  0
   -2.2475    0.3787   -1.6948 C   0  0  0  0  0  0  0  0  0  0  0  0
   -2.2475    0.3787   -0.2376 C   0  0  0  0  0  0  0  0  0  0  0  0
   -2.8699   -0.4288   -4.7399 H   0  0  0  0  0  0  0  0  0  0  0  0
   -1.2370    0.2434   -4.7399 H   0  0  0  0  0  0  0  0  0  0  0  0
   -2.6357    1.3214   -4.7399 H   0  0  0  0  0  0  0  0  0  0  0  0
   -2.8699   -0.4289    0.1518 H   0  0  0  0  0  0  0  0  0  0  0  0
   -2.6357    1.3214    0.1518 H   0  0  0  0  0  0  0  0  0  0  0  0
   -1.0349    0.2164    0.2296 H   0  0  0  0  0  0  0  0  0  0  0  0
    0.1753    0.0545    0.6959 C   0  0  0  0  0  0  0  0  0  0  0  0
    0.2907   -1.1943    1.5583 C   0  0  0  0  0  0  0  0  0  0  0  0
    1.3431   -0.9513    2.6307 C   0  0  0  0  0  0  0  0  0  0  0  0
    2.5484   -0.4995    2.0439 O   0  0  0  0  0  0  0  0  0  0  0  0
    2.3392    0.6493    1.2803 C   0  0  0  0  0  0  0  0  0  0  0  0
    1.4502    0.4465    0.2244 O   0  0  0  0  0  0  0  0  0  0  0  0
   -0.2686    0.8756    1.2795 H   0  0  0  0  0  0  0  0  0  0  0  0
   -0.6723   -1.4330    2.0154 H   0  0  0  0  0  0  0  0  0  0  0  0
    0.5945   -2.0383    0.9361 H   0  0  0  0  0  0  0  0  0  0  0  0
    0.9813   -0.2010    3.3504 H   0  0  0  0  0  0  0  0  0  0  0  0
    1.5832   -1.8611    3.1793 H   0  0  0  0  0  0  0  0  0  0  0  0
    1.9587    1.4583    1.9305 H   0  0  0  0  0  0  0  0  0  0  0  0
    3.2971    0.9288    0.8474 H   0  0  0  0  0  0  0  0  0  0  0  0
  1  2  1  0
  1  5  1  0
  1  6  1  0
  1  7  1  0
  2  3  2  0
  3  4  2  0
  4  8  1  0
  4  9  1  0
 10 11  1  0
 11 12  1  0
 11 16  1  0
 11 17  1  0
 12 13  1  0
 12 18  1  0
 12 19  1  0
 13 14  1  0
 13 20  1  0
 13 21  1  0
 14 15  1  0
 15 16  1  0
 15 22  1  0
 15 23  1  0
M  RAD  1   2   2
M  END
>  <reaction>  (11) 
rmg_rxn_251

>  <mol_properties>  (11) 
{"2": {"label": "*0", "atom_type": "Ct"}, "3": {"label": "*1", "atom_type": "Cs"}, "9": {"label": "*2", "atom_type": "H0"}, "10": {"label": "*3", "atom_type": "Cs"}, "15": {"label": "*4", "atom_type": "O2s"}}

>  <type>  (11) 
unop_7

>  <geom_source>  (11) 
Heuristics

$$$$

     RDKit          3D

 23 22  0  0  0  0  0  0  0  0999 V2000
   -1.6308   -0.1264   -4.7221 C   0  0  0  0  0  0  0  0  0  0  0  0
   -1.6308   -0.1264   -3.2649 C   0  0  0  0  0  3  0  0  0  0  0  0
   -1.6308   -0.1264   -2.0664 C   0  0  0  0  0  0  0  0  0  0  0  0
   -1.6308   -0.1264   -0.6091 C   0  0  0  0  0  0  0  0  0  0  0  0
   -2.2532   -0.9339   -5.1114 H   0  0  0  0  0  0  0  0  0  0  0  0
   -0.6203   -0.2617   -5.1114 H   0  0  0  0  0  0  0  0  0  0  0  0
   -2.0189    0.8163   -5.1115 H   0  0  0  0  0  0  0  0  0  0  0  0
   -2.2532   -0.9340   -0.2198 H   0  0  0  0  0  0  0  0  0  0  0  0
   -2.0190    0.8163   -0.2198 H   0  0  0  0  0  0  0  0  0  0  0  0
   -0.4182   -0.2887   -0.1419 H   0  0  0  0  0  0  0  0  0  0  0  0
    0.7920   -0.4506    0.3244 C   0  0  0  0  0  0  0  0  0  0  0  0
    1.5063    0.8780    0.5274 C   0  0  0  0  0  0  0  0  0  0  0  0
    2.1249    0.8920    1.9180 C   0  0  0  0  0  0  0  0  0  0  0  0
    1.1528    0.5647    2.8924 O   0  0  0  0  0  0  0  0  0  0  0  0
    0.5613   -0.6694    2.6215 C   0  0  0  0  0  0  0  0  0  0  0  0
   -0.1007   -0.6979    1.3937 O   0  0  0  0  0  0  0  0  0  0  0  0
    1.5269   -1.2679    0.2632 H   0  0  0  0  0  0  0  0  0  0  0  0
    2.2763    1.0179   -0.2345 H   0  0  0  0  0  0  0  0  0  0  0  0
    0.7861    1.6941    0.4422 H   0  0  0  0  0  0  0  0  0  0  0  0
    2.9536    0.1692    1.9690 H   0  0  0  0  0  0  0  0  0  0  0  0
    2.5138    1.8748    2.1809 H   0  0  0  0  0  0  0  0  0  0  0  0
    1.3344   -1.4594    2.6404 H   0  0  0  0  0  0  0  0  0  0  0  0
   -0.1830   -0.8479    3.3944 H   0  0  0  0  0  0  0  0  0  0  0  0
  1  2  1  0
  1  5  1  0
  1  6  1  0
  1  7  1  0
  2  3  2  0
  3  4  2  0
  4  8  1  0
  4  9  1  0
 10 11  1  0
 11 12  1  0
 11 16  1  0
 11 17  1  0
 12 13  1  0
 12 18  1  0
 12 19  1  0
 13 14  1  0
 13 20  1  0
 13 21  1  0
 14 15  1  0
 15 16  1  0
 15 22  1  0
 15 23  1  0
M  RAD  1   2   2
M  END
>  <reaction>  (12) 
rmg_rxn_251

>  <mol_properties>  (12) 
{"2": {"label": "*0", "atom_type": "Ct"}, "3": {"label": "*1", "atom_type": "Cs"}, "9": {"label": "*2", "atom_type": "H0"}, "10": {"label": "*3", "atom_type": "Cs"}, "15": {"label": "*4", "atom_type": "O2s"}}

>  <type>  (12) 
unop_8

>  <geom_source>  (12) 
Heuristics

$$$$

     RDKit          3D

 23 22  0  0  0  0  0  0  0  0999 V2000
   -2.3849    0.2132   -3.9906 C   0  0  0  0  0  0  0  0  0  0  0  0
   -2.3849    0.2132   -2.5333 C   0  0  0  0  0  3  0  0  0  0  0  0
   -2.3849    0.2132   -1.3348 C   0  0  0  0  0  0  0  0  0  0  0  0
   -2.3849    0.2132    0.1224 C   0  0  0  0  0  0  0  0  0  0  0  0
   -3.0073   -0.5943   -4.3799 H   0  0  0  0  0  0  0  0  0  0  0  0
   -1.3744    0.0780   -4.3799 H   0  0  0  0  0  0  0  0  0  0  0  0
   -2.7730    1.1560   -4.3799 H   0  0  0  0  0  0  0  0  0  0  0  0
   -3.0072   -0.5943    0.5117 H   0  0  0  0  0  0  0  0  0  0  0  0
   -2.7731    1.1560    0.5118 H   0  0  0  0  0  0  0  0  0  0  0  0
   -1.1723    0.0510    0.5896 H   0  0  0  0  0  0  0  0  0  0  0  0
    0.0379   -0.1109    1.0559 C   0  0  0  0  0  0  0  0  0  0  0  0
    0.9037   -0.9388    0.1169 C   0  0  0  0  0  0  0  0  0  0  0  0
    2.2108   -1.2700    0.8229 C   0  0  0  0  0  0  0  0  0  0  0  0
    2.8094   -0.0919    1.3280 O   0  0  0  0  0  0  0  0  0  0  0  0
    1.9410    0.5911    2.1798 C   0  0  0  0  0  0  0  0  0  0  0  0
    0.7661    0.9981    1.5471 O   0  0  0  0  0  0  0  0  0  0  0  0
   -0.3011   -0.7305    1.9003 H   0  0  0  0  0  0  0  0  0  0  0  0
    0.3840   -1.8546   -0.1738 H   0  0  0  0  0  0  0  0  0  0  0  0
    1.1146   -0.3620   -0.7857 H   0  0  0  0  0  0  0  0  0  0  0  0
    2.0246   -1.9711    1.6509 H   0  0  0  0  0  0  0  0  0  0  0  0
    2.9344   -1.7248    0.1479 H   0  0  0  0  0  0  0  0  0  0  0  0
    1.6895   -0.0536    3.0420 H   0  0  0  0  0  0  0  0  0  0  0  0
    2.4558    1.4890    2.5145 H   0  0  0  0  0  0  0  0  0  0  0  0
  1  2  1  0
  1  5  1  0
  1  6  1  0
  1  7  1  0
  2  3  2  0
  3  4  2  0
  4  8  1  0
  4  9  1  0
 10 11  1  0
 11 12  1  0
 11 16  1  0
 11 17  1  0
 12 13  1  0
 12 18  1  0
 12 19  1  0
 13 14  1  0
 13 20  1  0
 13 21  1  0
 14 15  1  0
 15 16  1  0
 15 22  1  0
 15 23  1  0
M  RAD  1   2   2
M  END
>  <reaction>  (13) 
rmg_rxn_251

>  <mol_properties>  (13) 
{"2": {"label": "*0", "atom_type": "Ct"}, "3": {"label": "*1", "atom_type": "Cs"}, "9": {"label": "*2", "atom_type": "H0"}, "10": {"label": "*3", "atom_type": "Cs"}, "15": {"label": "*4", "atom_type": "O2s"}}

>  <type>  (13) 
unop_9

>  <geom_source>  (13) 
Heuristics

$$$$

     RDKit          3D

 23 22  0  0  0  0  0  0  0  0999 V2000
   -1.8503   -0.3710   -4.4901 C   0  0  0  0  0  0  0  0  0  0  0  0
   -1.8503   -0.3710   -3.0328 C   0  0  0  0  0  3  0  0  0  0  0  0
   -1.8503   -0.3710   -1.8343 C   0  0  0  0  0  0  0  0  0  0  0  0
   -1.8503   -0.3710   -0.3771 C   0  0  0  0  0  0  0  0  0  0  0  0
   -2.4727   -1.1785   -4.8794 H   0  0  0  0  0  0  0  0  0  0  0  0
   -0.8398   -0.5063   -4.8794 H   0  0  0  0  0  0  0  0  0  0  0  0
   -2.2384    0.5717   -4.8794 H   0  0  0  0  0  0  0  0  0  0  0  0
   -2.4726   -1.1786    0.0122 H   0  0  0  0  0  0  0  0  0  0  0  0
   -2.2385    0.5717    0.0123 H   0  0  0  0  0  0  0  0  0  0  0  0
   -0.6377   -0.5333    0.0901 H   0  0  0  0  0  0  0  0  0  0  0  0
    0.5725   -0.6952    0.5564 C   0  0  0  0  0  0  0  0  0  0  0  0
    1.5113    0.4126    0.1001 C   0  0  0  0  0  0  0  0  0  0  0  0
    2.4043    0.8073    1.2677 C   0  0  0  0  0  0  0  0  0  0  0  0
    1.6213    1.1002    2.4090 O   0  0  0  0  0  0  0  0  0  0  0  0
    0.8013    0.0240    2.7492 C   0  0  0  0  0  0  0  0  0  0  0  0
   -0.1013   -0.3128    1.7401 O   0  0  0  0  0  0  0  0  0  0  0  0
    1.1416   -1.6194    0.7403 H   0  0  0  0  0  0  0  0  0  0  0  0
    2.1151    0.0770   -0.7461 H   0  0  0  0  0  0  0  0  0  0  0  0
    0.9253    1.2772   -0.2172 H   0  0  0  0  0  0  0  0  0  0  0  0
    3.1023   -0.0111    1.5016 H   0  0  0  0  0  0  0  0  0  0  0  0
    2.9880    1.7008    1.0502 H   0  0  0  0  0  0  0  0  0  0  0  0
    1.4285   -0.8542    2.9890 H   0  0  0  0  0  0  0  0  0  0  0  0
    0.2187    0.3231    3.6176 H   0  0  0  0  0  0  0  0  0  0  0  0
  1  2  1  0
  1  5  1  0
  1  6  1  0
  1  7  1  0
  2  3  2  0
  3  4  2  0
  4  8  1  0
  4  9  1  0
 10 11  1  0
 11 12  1  0
 11 16  1  0
 11 17  1  0
 12 13  1  0
 12 18  1  0
 12 19  1  0
 13 14  1  0
 13 20  1  0
 13 21  1  0
 14 15  1  0
 15 16  1  0
 15 22  1  0
 15 23  1  0
M  RAD  1   2   2
M  END
>  <reaction>  (14) 
rmg_rxn_251

>  <mol_properties>  (14) 
{"2": {"label": "*0", "atom_type": "Ct"}, "3": {"label": "*1", "atom_type": "Cs"}, "9": {"label": "*2", "atom_type": "H0"}, "10": {"label": "*3", "atom_type": "Cs"}, "15": {"label": "*4", "atom_type": "O2s"}}

>  <type>  (14) 
unop_10

>  <geom_source>  (14) 
Heuristics

$$$$

     RDKit          3D

 23 22  0  0  0  0  0  0  0  0999 V2000
   -2.2635    0.4229   -4.3010 C   0  0  0  0  0  0  0  0  0  0  0  0
   -2.2635    0.4229   -2.8438 C   0  0  0  0  0  3  0  0  0  0  0  0
   -2.2635    0.4229   -1.6453 C   0  0  0  0  0  0  0  0  0  0  0  0
   -2.2635    0.4229   -0.1880 C   0  0  0  0  0  0  0  0  0  0  0  0
   -2.8859   -0.3846   -4.6904 H   0  0  0  0  0  0  0  0  0  0  0  0
   -1.2530    0.2876   -4.6904 H   0  0  0  0  0  0  0  0  0  0  0  0
   -2.6516    1.3656   -4.6904 H   0  0  0  0  0  0  0  0  0  0  0  0
   -2.8859   -0.3847    0.2013 H   0  0  0  0  0  0  0  0  0  0  0  0
   -2.6517    1.3656    0.2013 H   0  0  0  0  0  0  0  0  0  0  0  0
   -1.0509    0.2606    0.2792 H   0  0  0  0  0  0  0  0  0  0  0  0
    0.1593    0.0987    0.7454 C   0  0  0  0  0  0  0  0  0  0  0  0
    0.1605   -0.6135    2.0905 C   0  0  0  0  0  0  0  0  0  0  0  0
    1.4792   -0.3258    2.7940 C   0  0  0  0  0  0  0  0  0  0  0  0
    2.5675   -0.6263    1.9415 O   0  0  0  0  0  0  0  0  0  0  0  0
    2.4782    0.0780    0.7405 C   0  0  0  0  0  0  0  0  0  0  0  0
    1.3262   -0.2271    0.0150 O   0  0  0  0  0  0  0  0  0  0  0  0
    0.1128    1.1882    0.8961 H   0  0  0  0  0  0  0  0  0  0  0  0
   -0.6798   -0.2767    2.7018 H   0  0  0  0  0  0  0  0  0  0  0  0
    0.0608   -1.6890    1.9319 H   0  0  0  0  0  0  0  0  0  0  0  0
    1.5255    0.7338    3.0888 H   0  0  0  0  0  0  0  0  0  0  0  0
    1.6047   -0.9339    3.6888 H   0  0  0  0  0  0  0  0  0  0  0  0
    2.5047    1.1635    0.9484 H   0  0  0  0  0  0  0  0  0  0  0  0
    3.3308   -0.2128    0.1309 H   0  0  0  0  0  0  0  0  0  0  0  0
  1  2  1  0
  1  5  1  0
  1  6  1  0
  1  7  1  0
  2  3  2  0
  3  4  2  0
  4  8  1  0
  4  9  1  0
 10 11  1  0
 11 12  1  0
 11 16  1  0
 11 17  1  0
 12 13  1  0
 12 18  1  0
 12 19  1  0
 13 14  1  0
 13 20  1  0
 13 21  1  0
 14 15  1  0
 15 16  1  0
 15 22  1  0
 15 23  1  0
M  RAD  1   2   2
M  END
>  <reaction>  (15) 
rmg_rxn_251

>  <mol_properties>  (15) 
{"2": {"label": "*0", "atom_type": "Ct"}, "3": {"label": "*1", "atom_type": "Cs"}, "9": {"label": "*2", "atom_type": "H0"}, "10": {"label": "*3", "atom_type": "Cs"}, "15": {"label": "*4", "atom_type": "O2s"}}

>  <type>  (15) 
unop_11

>  <geom_source>  (15) 
Heuristics

$$$$

     RDKit          3D

 23 22  0  0  0  0  0  0  0  0999 V2000
   -2.3250   -0.1180   -4.0004 C   0  0  0  0  0  0  0  0  0  0  0  0
   -2.3250   -0.1180   -2.5432 C   0  0  0  0  0  3  0  0  0  0  0  0
   -2.3250   -0.1180   -1.3447 C   0  0  0  0  0  0  0  0  0  0  0  0
   -2.3250   -0.1180    0.1126 C   0  0  0  0  0  0  0  0  0  0  0  0
   -2.9474   -0.9255   -4.3897 H   0  0  0  0  0  0  0  0  0  0  0  0
   -1.3145   -0.2532   -4.3897 H   0  0  0  0  0  0  0  0  0  0  0  0
   -2.7131    0.8248   -4.3898 H   0  0  0  0  0  0  0  0  0  0  0  0
   -2.9473   -0.9255    0.5019 H   0  0  0  0  0  0  0  0  0  0  0  0
   -2.7132    0.8248    0.5019 H   0  0  0  0  0  0  0  0  0  0  0  0
   -1.1124   -0.2802    0.5798 H   0  0  0  0  0  0  0  0  0  0  0  0
    0.0978   -0.4421    1.0461 C   0  0  0  0  0  0  0  0  0  0  0  0
    1.1240   -0.5794   -0.0696 C   0  0  0  0  0  0  0  0  0  0  0  0
    2.5175   -0.5370    0.5411 C   0  0  0  0  0  0  0  0  0  0  0  0
    2.6590    0.6039    1.3656 O   0  0  0  0  0  0  0  0  0  0  0  0
    1.6781    0.6356    2.3572 C   0  0  0  0  0  0  0  0  0  0  0  0
    0.3834    0.6931    1.8404 O   0  0  0  0  0  0  0  0  0  0  0  0
    0.1054   -1.3435    1.6779 H   0  0  0  0  0  0  0  0  0  0  0  0
    0.9738   -1.5147   -0.6136 H   0  0  0  0  0  0  0  0  0  0  0  0
    1.0100    0.2488   -0.7716 H   0  0  0  0  0  0  0  0  0  0  0  0
    2.6953   -1.4451    1.1374 H   0  0  0  0  0  0  0  0  0  0  0  0
    3.2940   -0.4721   -0.2199 H   0  0  0  0  0  0  0  0  0  0  0  0
    1.7774   -0.2577    3.0008 H   0  0  0  0  0  0  0  0  0  0  0  0
    1.8349    1.5416    2.9383 H   0  0  0  0  0  0  0  0  0  0  0  0
  1  2  1  0
  1  5  1  0
  1  6  1  0
  1  7  1  0
  2  3  2  0
  3  4  2  0
  4  8  1  0
  4  9  1  0
 10 11  1  0
 11 12  1  0
 11 16  1  0
 11 17  1  0
 12 13  1  0
 12 18  1  0
 12 19  1  0
 13 14  1  0
 13 20  1  0
 13 21  1  0
 14 15  1  0
 15 16  1  0
 15 22  1  0
 15 23  1  0
M  RAD  1   2   2
M  END
>  <reaction>  (16) 
rmg_rxn_251

>  <mol_properties>  (16) 
{"2": {"label": "*0", "atom_type": "Ct"}, "3": {"label": "*1", "atom_type": "Cs"}, "9": {"label": "*2", "atom_type": "H0"}, "10": {"label": "*3", "atom_type": "Cs"}, "15": {"label": "*4", "atom_type": "O2s"}}

>  <type>  (16) 
unop_12

>  <geom_source>  (16) 
Heuristics

$$$$

     RDKit          3D

 23 22  0  0  0  0  0  0  0  0999 V2000
    1.4619    1.3283   -0.0321 O   0  0  0  0  0  0  0  0  0  0  0  0
    3.5316    0.5224    0.6760 O   0  0  0  0  0  0  0  0  0  0  0  0
    1.9490   -1.0273   -0.3014 C   0  0  0  0  0  0  0  0  0  0  0  0
    0.8838    0.0390   -0.0551 C   0  0  0  0  0  3  0  0  0  0  0  0
    3.0860   -0.8185    0.6983 C   0  0  0  0  0  0  0  0  0  0  0  0
    2.4491    1.3822    0.9811 C   0  0  0  0  0  0  0  0  0  0  0  0
   -4.7030    0.6159    0.2800 C   0  0  0  0  0  0  0  0  0  0  0  0
   -1.1789   -0.5491   -1.5344 C   0  0  0  0  0  0  0  0  0  0  0  0
   -3.4550    0.2034   -0.3625 C   0  0  0  0  0  0  0  0  0  0  0  0
   -2.4268   -0.1366   -0.8920 C   0  0  0  0  0  0  0  0  0  0  0  0
    1.5109   -2.0410   -0.1807 H   0  0  0  0  0  0  0  0  0  0  0  0
    2.3397   -0.9234   -1.3367 H   0  0  0  0  0  0  0  0  0  0  0  0
    0.3374   -0.1641    0.8943 H   0  0  0  0  0  0  0  0  0  0  0  0
   -0.0270   -0.0145   -1.0685 H   0  0  0  0  0  0  0  0  0  0  0  0
    2.7627   -1.1080    1.7244 H   0  0  0  0  0  0  0  0  0  0  0  0
    3.9335   -1.4801    0.4210 H   0  0  0  0  0  0  0  0  0  0  0  0
    2.0206    1.1678    1.9894 H   0  0  0  0  0  0  0  0  0  0  0  0
    2.8384    2.4201    1.0243 H   0  0  0  0  0  0  0  0  0  0  0  0
   -5.2311   -0.2781    0.6709 H   0  0  0  0  0  0  0  0  0  0  0  0
   -5.3479    1.1315   -0.4611 H   0  0  0  0  0  0  0  0  0  0  0  0
   -4.4770    1.3074    1.1176 H   0  0  0  0  0  0  0  0  0  0  0  0
   -1.0221    0.0481   -2.4562 H   0  0  0  0  0  0  0  0  0  0  0  0
   -1.2358   -1.6257   -1.7965 H   0  0  0  0  0  0  0  0  0  0  0  0
  1  4  1  0
  1  6  1  0
  2  5  1  0
  2  6  1  0
  3  4  1  0
  3  5  1  0
  3 11  1  0
  3 12  1  0
  4 13  1  0
  5 15  1  0
  5 16  1  0
  6 17  1  0
  6 18  1  0
  7  9  1  0
  7 19  1  0
  7 20  1  0
  7 21  1  0
  8 10  1  0
  8 14  1  0
  8 22  1  0
  8 23  1  0
  9 10  3  0
M  RAD  1   4   2
M  END
>  <reaction>  (17) 
rmg_rxn_251

>  <mol_properties>  (17) 
{"2": {"label": "*0", "atom_type": "Ct"}, "3": {"label": "*1", "atom_type": "Cs"}, "9": {"label": "*2", "atom_type": "H0"}, "10": {"label": "*3", "atom_type": "Cs"}, "15": {"label": "*4", "atom_type": "O2s"}}

>  <type>  (17) 
unop_13

>  <geom_source>  (17) 
AutoTST

$$$$

     RDKit          3D

 23 22  0  0  0  0  0  0  0  0999 V2000
   -2.1176   -0.3671   -4.2016 C   0  0  0  0  0  0  0  0  0  0  0  0
   -2.1176   -0.3671   -2.7443 C   0  0  0  0  0  3  0  0  0  0  0  0
   -2.1176   -0.3671   -1.5458 C   0  0  0  0  0  0  0  0  0  0  0  0
   -2.1176   -0.3671   -0.0886 C   0  0  0  0  0  0  0  0  0  0  0  0
   -2.7400   -1.1746   -4.5909 H   0  0  0  0  0  0  0  0  0  0  0  0
   -1.1071   -0.5024   -4.5909 H   0  0  0  0  0  0  0  0  0  0  0  0
   -2.5057    0.5756   -4.5909 H   0  0  0  0  0  0  0  0  0  0  0  0
   -2.7399   -1.1746    0.3007 H   0  0  0  0  0  0  0  0  0  0  0  0
   -2.5058    0.5756    0.3008 H   0  0  0  0  0  0  0  0  0  0  0  0
   -0.9050   -0.5293    0.3786 H   0  0  0  0  0  0  0  0  0  0  0  0
    0.3052   -0.6913    0.8449 C   0  0  0  0  0  0  0  0  0  0  0  0
    1.3582   -0.1201   -0.0941 C   0  0  0  0  0  0  0  0  0  0  0  0
    2.5786    0.2763    0.7245 C   0  0  0  0  0  0  0  0  0  0  0  0
    2.1991    1.1134    1.7999 O   0  0  0  0  0  0  0  0  0  0  0  0
    1.2372    0.4999    2.6029 C   0  0  0  0  0  0  0  0  0  0  0  0
    0.0612    0.2035    1.9132 O   0  0  0  0  0  0  0  0  0  0  0  0
    0.6436   -1.6588    1.2464 H   0  0  0  0  0  0  0  0  0  0  0  0
    1.6308   -0.8552   -0.8546 H   0  0  0  0  0  0  0  0  0  0  0  0
    0.9562    0.7617   -0.5968 H   0  0  0  0  0  0  0  0  0  0  0  0
    3.0769   -0.6231    1.1175 H   0  0  0  0  0  0  0  0  0  0  0  0
    3.3022    0.8351    0.1325 H   0  0  0  0  0  0  0  0  0  0  0  0
    1.6553   -0.4291    3.0322 H   0  0  0  0  0  0  0  0  0  0  0  0
    0.9804    1.2015    3.3934 H   0  0  0  0  0  0  0  0  0  0  0  0
  1  2  1  0
  1  5  1  0
  1  6  1  0
  1  7  1  0
  2  3  2  0
  3  4  2  0
  4  8  1  0
  4  9  1  0
 10 11  1  0
 11 12  1  0
 11 16  1  0
 11 17  1  0
 12 13  1  0
 12 18  1  0
 12 19  1  0
 13 14  1  0
 13 20  1  0
 13 21  1  0
 14 15  1  0
 15 16  1  0
 15 22  1  0
 15 23  1  0
M  RAD  1   2   2
M  END
>  <reaction>  (18) 
rmg_rxn_251

>  <mol_properties>  (18) 
{"2": {"label": "*0", "atom_type": "Ct"}, "3": {"label": "*1", "atom_type": "Cs"}, "9": {"label": "*2", "atom_type": "H0"}, "10": {"label": "*3", "atom_type": "Cs"}, "15": {"label": "*4", "atom_type": "O2s"}}

>  <type>  (18) 
unop_14

>  <geom_source>  (18) 
gaussian_log

$$$$
