
     RDKit          3D

  9  8  0  0  0  0  0  0  0  0999 V2000
   -0.9895    0.3048    0.1041 C   0  0  0  0  0  0  0  0  0  0  0  0
    0.3761   -0.3562    0.0721 C   0  0  0  0  0  0  0  0  0  0  0  0
    0.3441   -1.6564   -0.4834 O   0  0  0  0  0  0  0  0  0  0  0  0
   -1.6997   -0.3114    0.6572 H   0  0  0  0  0  0  0  0  0  0  0  0
   -0.9320    1.2848    0.5822 H   0  0  0  0  0  0  0  0  0  0  0  0
   -1.3774    0.4507   -0.9077 H   0  0  0  0  0  0  0  0  0  0  0  0
    0.7581   -0.4813    1.0862 H   0  0  0  0  0  0  0  0  0  0  0  0
    1.0900    0.2787   -0.4681 H   0  0  0  0  0  0  0  0  0  0  0  0
    0.0089   -1.5959   -1.3792 H   0  0  0  0  0  0  0  0  0  0  0  0
  1  2  1  0
  1  4  1  0
  1  5  1  0
  1  6  1  0
  2  3  1  0
  2  7  1  0
  2  8  1  0
  3  9  1  0
M  END
>  <reaction>  (1) 
rmg_rxn_15690

>  <mol_properties>  (1) 
{"1": {"label": "donator", "atom_type": "Cs"}, "6": {"label": "d_hydrogen", "atom_type": "H0"}}

>  <type>  (1) 
r1h

$$$$

     RDKit          3D

  8  7  0  0  0  0  0  0  0  0999 V2000
    1.7077   -0.1964   -0.0607 C   0  0  0  0  0  3  0  0  0  0  0  0
    0.4209   -0.4565    0.2808 O   0  0  0  0  0  0  0  0  0  0  0  0
   -0.4607    0.4385   -0.2968 N   0  0  0  0  0  0  0  0  0  0  0  0
   -1.6584    0.1416   -0.0244 C   0  0  0  0  0  0  0  0  0  0  0  0
    2.4163   -0.7685    0.5170 H   0  0  0  0  0  0  0  0  0  0  0  0
    1.9214    0.7645   -0.5045 H   0  0  0  0  0  0  0  0  0  0  0  0
   -2.4185    0.7953   -0.4307 H   0  0  0  0  0  0  0  0  0  0  0  0
   -1.9286   -0.7185    0.5831 H   0  0  0  0  0  0  0  0  0  0  0  0
  1  2  1  0
  1  5  1  0
  1  6  1  0
  2  3  1  0
  3  4  2  3
  4  7  1  0
  4  8  1  0
M  RAD  1   1   2
M  END
>  <reaction>  (2) 
rmg_rxn_15690

>  <mol_properties>  (2) 
{"0": {"label": "acceptor", "atom_type": "Cs"}}

>  <type>  (2) 
r2

$$$$

     RDKit          3D

  9  8  0  0  0  0  0  0  0  0999 V2000
   -1.5470   -0.0755   -0.1976 C   0  0  0  0  0  0  0  0  0  0  0  0
   -0.2885    0.4507    0.1749 O   0  0  0  0  0  0  0  0  0  0  0  0
   -0.1502    1.7216   -0.3294 N   0  0  0  0  0  0  0  0  0  0  0  0
    0.9626    2.2353   -0.0219 C   0  0  0  0  0  0  0  0  0  0  0  0
   -1.6392   -0.1356   -1.2844 H   0  0  0  0  0  0  0  0  0  0  0  0
   -2.3597    0.5337    0.2044 H   0  0  0  0  0  0  0  0  0  0  0  0
   -1.5879   -1.0750    0.2318 H   0  0  0  0  0  0  0  0  0  0  0  0
    1.1497    3.2381   -0.3820 H   0  0  0  0  0  0  0  0  0  0  0  0
    1.7060    1.7101    0.5739 H   0  0  0  0  0  0  0  0  0  0  0  0
  1  2  1  0
  1  5  1  0
  1  6  1  0
  1  7  1  0
  2  3  1  0
  3  4  2  3
  4  8  1  0
  4  9  1  0
M  END
>  <reaction>  (3) 
rmg_rxn_15690

>  <mol_properties>  (3) 
{"0": {"label": "acceptor", "atom_type": "Cs"}, "8": {"label": "a_hydrogen", "atom_type": "H0"}}

>  <type>  (3) 
r2h

$$$$

     RDKit          3D

 17 15  0  0  0  0  0  0  0  0999 V2000
    0.4524    1.6386   -0.2721 C   0  0  0  0  0  3  0  0  0  0  0  0
    1.3877    0.7607    0.2779 O   0  0  0  0  0  0  0  0  0  0  0  0
    1.3022   -0.4828   -0.3018 N   0  0  0  0  0  0  0  0  0  0  0  0
    2.2258   -1.2550    0.0847 C   0  0  0  0  0  0  0  0  0  0  0  0
    0.5186    2.5754    0.2721 H   0  0  0  0  0  0  0  0  0  0  0  0
    0.5369    1.7338   -1.3547 H   0  0  0  0  0  0  0  0  0  0  0  0
    2.2198   -2.2591   -0.3173 H   0  0  0  0  0  0  0  0  0  0  0  0
    2.9941   -0.9382    0.7855 H   0  0  0  0  0  0  0  0  0  0  0  0
   -1.7788   -0.3871    1.3501 C   0  0  0  0  0  0  0  0  0  0  0  0
   -1.8218    0.2272   -0.0258 C   0  0  0  0  0  0  0  0  0  0  0  0
   -1.6230   -0.6492   -1.0813 O   0  0  0  0  0  0  0  0  0  0  0  0
   -2.5601   -1.1447    1.4598 H   0  0  0  0  0  0  0  0  0  0  0  0
   -0.8143   -0.8658    1.5332 H   0  0  0  0  0  0  0  0  0  0  0  0
   -1.9291    0.3781    2.1141 H   0  0  0  0  0  0  0  0  0  0  0  0
   -0.8213    1.0789   -0.0778 H   0  0  0  0  0  0  0  0  0  0  0  0
   -2.7218    0.8115   -0.2186 H   0  0  0  0  0  0  0  0  0  0  0  0
   -0.7057   -0.9485   -1.0339 H   0  0  0  0  0  0  0  0  0  0  0  0
  1  2  1  0
  1  5  1  0
  1  6  1  0
  2  3  1  0
  3  4  2  3
  4  7  1  0
  4  8  1  0
  9 10  1  0
  9 12  1  0
  9 13  1  0
  9 14  1  0
 10 11  1  0
 10 15  1  0
 10 16  1  0
 11 17  1  0
M  RAD  1   1   2
M  END
>  <reaction>  (4) 
rmg_rxn_15690

>  <mol_properties>  (4) 
{"0": {"label": "*3", "atom_type": "Cs"}, "1": {"label": "*4", "atom_type": "O2s"}, "9": {"label": "*1", "atom_type": "Cs"}, "10": {"label": "*0", "atom_type": "O2s"}, "14": {"label": "*2", "atom_type": "H0"}}

>  <type>  (4) 
ts

$$$$

     RDKit          3D

 17 15  0  0  0  0  0  0  0  0999 V2000
    0.6672   -1.0558    0.9636 C   0  0  0  0  0  0  0  0  0  0  0  0
    1.4400   -0.9654   -0.1916 O   0  0  0  0  0  0  0  0  0  0  0  0
    1.9415    0.2154   -0.6095 N   0  0  0  0  0  0  0  0  0  0  0  0
    1.6912    1.3092   -0.0272 C   0  0  0  0  0  0  0  0  0  0  0  0
    0.5319   -2.1135    1.1601 H   0  0  0  0  0  0  0  0  0  0  0  0
    1.0823   -0.5217    1.8181 H   0  0  0  0  0  0  0  0  0  0  0  0
    2.1630    2.1782   -0.4517 H   0  0  0  0  0  0  0  0  0  0  0  0
    1.0477    1.4560    0.8361 H   0  0  0  0  0  0  0  0  0  0  0  0
   -2.1516   -0.7990   -0.8463 C   0  0  0  0  0  0  0  0  0  0  0  0
   -1.7337   -0.0648    0.4037 C   0  0  0  0  0  3  0  0  0  0  0  0
   -1.6095    1.3144    0.2736 O   0  0  0  0  0  0  0  0  0  0  0  0
   -1.4200   -0.6478   -1.6405 H   0  0  0  0  0  0  0  0  0  0  0  0
   -2.2240   -1.8637   -0.6438 H   0  0  0  0  0  0  0  0  0  0  0  0
   -3.1224   -0.4458   -1.2006 H   0  0  0  0  0  0  0  0  0  0  0  0
   -0.5391   -0.5610    0.7357 H   0  0  0  0  0  0  0  0  0  0  0  0
   -2.3660   -0.2593    1.2686 H   0  0  0  0  0  0  0  0  0  0  0  0
   -1.2495    1.5190   -0.5982 H   0  0  0  0  0  0  0  0  0  0  0  0
  1  2  1  0
  1  5  1  0
  1  6  1  0
  1 15  1  0
  2  3  1  0
  3  4  2  3
  4  7  1  0
  4  8  1  0
  9 10  1  0
  9 12  1  0
  9 13  1  0
  9 14  1  0
 10 11  1  0
 10 16  1  0
 11 17  1  0
M  RAD  1  10   2
M  END
>  <reaction>  (5) 
rmg_rxn_15690

>  <mol_properties>  (5) 
{"0": {"label": "*3", "atom_type": "Cs"}, "1": {"label": "*4", "atom_type": "O2s"}, "9": {"label": "*1", "atom_type": "Cs"}, "10": {"label": "*0", "atom_type": "O2s"}, "14": {"label": "*2", "atom_type": "H0"}}

>  <type>  (5) 
unop_1

>  <geom_source>  (5) 
crest_best.xyz

$$$$

     RDKit          3D

 17 15  0  0  0  0  0  0  0  0999 V2000
    0.4492   -1.0791   -0.1942 C   0  0  0  0  0  0  0  0  0  0  0  0
    1.1073   -0.0933    0.5768 O   0  0  0  0  0  0  0  0  0  0  0  0
    1.6797   -0.6757    1.6822 N   0  0  0  0  0  0  0  0  0  0  0  0
    2.2816    0.1682    2.4048 C   0  0  0  0  0  0  0  0  0  0  0  0
    1.1540   -1.8371   -0.5433 H   0  0  0  0  0  0  0  0  0  0  0  0
   -0.3466   -1.5580    0.3807 H   0  0  0  0  0  0  0  0  0  0  0  0
    2.7606   -0.2116    3.2974 H   0  0  0  0  0  0  0  0  0  0  0  0
    2.3257    1.2266    2.1569 H   0  0  0  0  0  0  0  0  0  0  0  0
   -1.7242    0.0614   -2.6152 C   0  0  0  0  0  0  0  0  0  0  0  0
   -1.7242    0.0614   -1.0977 C   0  0  0  0  0  3  0  0  0  0  0  0
   -1.7242    1.3646   -0.5484 O   0  0  0  0  0  0  0  0  0  0  0  0
   -0.8681    0.6189   -2.9976 H   0  0  0  0  0  0  0  0  0  0  0  0
   -1.6757   -0.9592   -3.0005 H   0  0  0  0  0  0  0  0  0  0  0  0
   -2.6356    0.5215   -3.0064 H   0  0  0  0  0  0  0  0  0  0  0  0
   -0.6364   -0.5095   -0.6455 H   0  0  0  0  0  0  0  0  0  0  0  0
   -2.5763   -0.5183   -0.7205 H   0  0  0  0  0  0  0  0  0  0  0  0
   -2.5061    1.8246   -0.8575 H   0  0  0  0  0  0  0  0  0  0  0  0
  1  2  1  0
  1  5  1  0
  1  6  1  0
  1 15  1  0
  2  3  1  0
  3  4  2  3
  4  7  1  0
  4  8  1  0
  9 10  1  0
  9 12  1  0
  9 13  1  0
  9 14  1  0
 10 11  1  0
 10 16  1  0
 11 17  1  0
M  RAD  1  10   2
M  END
>  <reaction>  (6) 
rmg_rxn_15690

>  <mol_properties>  (6) 
{"0": {"label": "*3", "atom_type": "Cs"}, "1": {"label": "*4", "atom_type": "O2s"}, "9": {"label": "*1", "atom_type": "Cs"}, "10": {"label": "*0", "atom_type": "O2s"}, "14": {"label": "*2", "atom_type": "H0"}}

>  <type>  (6) 
unop_2

>  <geom_source>  (6) 
Heuristics

$$$$

     RDKit          3D

 17 15  0  0  0  0  0  0  0  0999 V2000
    0.4129   -1.6790    0.2582 C   0  0  0  0  0  0  0  0  0  0  0  0
    1.3777   -0.8277   -0.2815 O   0  0  0  0  0  0  0  0  0  0  0  0
    1.2811    0.4522    0.2346 N   0  0  0  0  0  0  0  0  0  0  0  0
    2.1875    1.2616   -0.1109 C   0  0  0  0  0  0  0  0  0  0  0  0
    0.4395   -2.5992   -0.3130 H   0  0  0  0  0  0  0  0  0  0  0  0
    0.5277   -1.8312    1.3302 H   0  0  0  0  0  0  0  0  0  0  0  0
    2.1185    2.2604    0.2827 H   0  0  0  0  0  0  0  0  0  0  0  0
    3.0121    1.0099   -0.7697 H   0  0  0  0  0  0  0  0  0  0  0  0
   -1.7273    0.3992   -1.3229 C   0  0  0  0  0  0  0  0  0  0  0  0
   -1.7850   -0.2290    0.0503 C   0  0  0  0  0  3  0  0  0  0  0  0
   -1.6087    0.6344    1.1189 O   0  0  0  0  0  0  0  0  0  0  0  0
   -0.7816    0.9196   -1.4663 H   0  0  0  0  0  0  0  0  0  0  0  0
   -1.8250   -0.3670   -2.0874 H   0  0  0  0  0  0  0  0  0  0  0  0
   -2.5363    1.1216   -1.4502 H   0  0  0  0  0  0  0  0  0  0  0  0
   -0.7600   -1.0880    0.1118 H   0  0  0  0  0  0  0  0  0  0  0  0
   -2.6887   -0.8097    0.2292 H   0  0  0  0  0  0  0  0  0  0  0  0
   -0.7755    1.1118    0.9883 H   0  0  0  0  0  0  0  0  0  0  0  0
  1  2  1  0
  1  5  1  0
  1  6  1  0
  1 15  1  0
  2  3  1  0
  3  4  2  3
  4  7  1  0
  4  8  1  0
  9 10  1  0
  9 12  1  0
  9 13  1  0
  9 14  1  0
 10 11  1  0
 10 16  1  0
 11 17  1  0
M  RAD  1  10   2
M  END
>  <reaction>  (7) 
rmg_rxn_15690

>  <mol_properties>  (7) 
{"0": {"label": "*3", "atom_type": "Cs"}, "1": {"label": "*4", "atom_type": "O2s"}, "9": {"label": "*1", "atom_type": "Cs"}, "10": {"label": "*0", "atom_type": "O2s"}, "14": {"label": "*2", "atom_type": "H0"}}

>  <type>  (7) 
unop_3

>  <geom_source>  (7) 
Heuristics

$$$$

     RDKit          3D

 17 15  0  0  0  0  0  0  0  0999 V2000
    1.3787   -1.6542    0.3027 C   0  0  0  0  0  0  0  0  0  0  0  0
    1.9619   -0.3763    0.2700 O   0  0  0  0  0  0  0  0  0  0  0  0
    1.0615    0.5683   -0.1941 N   0  0  0  0  0  0  0  0  0  0  0  0
    1.4822    1.7552   -0.2711 C   0  0  0  0  0  0  0  0  0  0  0  0
    1.0412   -1.9963   -0.6718 H   0  0  0  0  0  0  0  0  0  0  0  0
    2.0688   -2.3256    0.7688 H   0  0  0  0  0  0  0  0  0  0  0  0
    0.7853    2.4900   -0.6341 H   0  0  0  0  0  0  0  0  0  0  0  0
    2.4846    2.0639    0.0030 H   0  0  0  0  0  0  0  0  0  0  0  0
   -2.1314    0.6190    1.0551 C   0  0  0  0  0  0  0  0  0  0  0  0
   -2.3591   -0.3258   -0.0625 C   0  0  0  0  0  3  0  0  0  0  0  0
   -1.4661   -0.4417   -1.0858 O   0  0  0  0  0  0  0  0  0  0  0  0
   -2.7437    0.3414    1.9108 H   0  0  0  0  0  0  0  0  0  0  0  0
   -1.0815    0.6153    1.3507 H   0  0  0  0  0  0  0  0  0  0  0  0
   -2.3901    1.6538    0.7881 H   0  0  0  0  0  0  0  0  0  0  0  0
    0.5975   -1.7566    1.0666 H   0  0  0  0  0  0  0  0  0  0  0  0
   -3.3499   -0.6498   -0.3267 H   0  0  0  0  0  0  0  0  0  0  0  0
   -0.6133   -0.0475   -0.8134 H   0  0  0  0  0  0  0  0  0  0  0  0
  1  2  1  0
  1  5  1  0
  1  6  1  0
  1 15  1  0
  2  3  1  0
  3  4  2  3
  4  7  1  0
  4  8  1  0
  9 10  1  0
  9 12  1  0
  9 13  1  0
  9 14  1  0
 10 11  1  0
 10 16  1  0
 11 17  1  0
M  RAD  1  10   2
M  END
>  <reaction>  (8) 
rmg_rxn_15690

>  <mol_properties>  (8) 
{"0": {"label": "*3", "atom_type": "Cs"}, "1": {"label": "*4", "atom_type": "O2s"}, "9": {"label": "*1", "atom_type": "Cs"}, "10": {"label": "*0", "atom_type": "O2s"}, "14": {"label": "*2", "atom_type": "H0"}}

>  <type>  (8) 
unop_4

>  <geom_source>  (8) 
Heuristics

$$$$

     RDKit          3D

 17 15  0  0  0  0  0  0  0  0999 V2000
    1.3705   -1.6581   -0.2943 C   0  0  0  0  0  0  0  0  0  0  0  0
    1.9592   -0.3825   -0.2704 O   0  0  0  0  0  0  0  0  0  0  0  0
    1.0643    0.5683    0.1917 N   0  0  0  0  0  0  0  0  0  0  0  0
    1.4905    1.7535    0.2627 C   0  0  0  0  0  0  0  0  0  0  0  0
    2.0559   -2.3348   -0.7598 H   0  0  0  0  0  0  0  0  0  0  0  0
    1.0356   -1.9939    0.6832 H   0  0  0  0  0  0  0  0  0  0  0  0
    0.7979    2.4929    0.6244 H   0  0  0  0  0  0  0  0  0  0  0  0
    2.4940    2.0565   -0.0143 H   0  0  0  0  0  0  0  0  0  0  0  0
   -2.1301    0.6054   -1.0652 C   0  0  0  0  0  0  0  0  0  0  0  0
   -2.3590   -0.3210    0.0676 C   0  0  0  0  0  3  0  0  0  0  0  0
   -1.4669   -0.4216    1.0933 O   0  0  0  0  0  0  0  0  0  0  0  0
   -2.3953    1.6435   -0.8177 H   0  0  0  0  0  0  0  0  0  0  0  0
   -1.0786    0.6015   -1.3554 H   0  0  0  0  0  0  0  0  0  0  0  0
   -2.7367    0.3099   -1.9190 H   0  0  0  0  0  0  0  0  0  0  0  0
    0.5858   -1.7611   -1.0545 H   0  0  0  0  0  0  0  0  0  0  0  0
   -3.3502   -0.6401    0.3363 H   0  0  0  0  0  0  0  0  0  0  0  0
   -0.6128   -0.0336    0.8155 H   0  0  0  0  0  0  0  0  0  0  0  0
  1  2  1  0
  1  5  1  0
  1  6  1  0
  1 15  1  0
  2  3  1  0
  3  4  2  3
  4  7  1  0
  4  8  1  0
  9 10  1  0
  9 12  1  0
  9 13  1  0
  9 14  1  0
 10 11  1  0
 10 16  1  0
 11 17  1  0
M  RAD  1  10   2
M  END
>  <reaction>  (9) 
rmg_rxn_15690

>  <mol_properties>  (9) 
{"0": {"label": "*3", "atom_type": "Cs"}, "1": {"label": "*4", "atom_type": "O2s"}, "9": {"label": "*1", "atom_type": "Cs"}, "10": {"label": "*0", "atom_type": "O2s"}, "14": {"label": "*2", "atom_type": "H0"}}

>  <type>  (9) 
unop_5

>  <geom_source>  (9) 
Heuristics

$$$$

     RDKit          3D

 17 15  0  0  0  0  0  0  0  0999 V2000
    0.0768   -0.7910    0.9056 C   0  0  0  0  0  0  0  0  0  0  0  0
    1.0722   -0.5448   -0.0682 O   0  0  0  0  0  0  0  0  0  0  0  0
    2.3167   -0.7319    0.4841 N   0  0  0  0  0  0  0  0  0  0  0  0
    3.2421   -0.5228   -0.3505 C   0  0  0  0  0  0  0  0  0  0  0  0
    0.1303   -1.8203    1.2674 H   0  0  0  0  0  0  0  0  0  0  0  0
    0.1754   -0.1025    1.7478 H   0  0  0  0  0  0  0  0  0  0  0  0
    4.2552   -0.6494    0.0071 H   0  0  0  0  0  0  0  0  0  0  0  0
    3.0478   -0.2297   -1.3800 H   0  0  0  0  0  0  0  0  0  0  0  0
   -2.0965    0.3495   -1.5154 C   0  0  0  0  0  0  0  0  0  0  0  0
   -2.0965    0.3495    0.0021 C   0  0  0  0  0  3  0  0  0  0  0  0
   -2.0965    1.6527    0.5514 O   0  0  0  0  0  0  0  0  0  0  0  0
   -1.2405    0.9071   -1.8977 H   0  0  0  0  0  0  0  0  0  0  0  0
   -2.0481   -0.6711   -1.9007 H   0  0  0  0  0  0  0  0  0  0  0  0
   -3.0079    0.8097   -1.9066 H   0  0  0  0  0  0  0  0  0  0  0  0
   -1.0087   -0.2213    0.4543 H   0  0  0  0  0  0  0  0  0  0  0  0
   -2.9487   -0.2302    0.3794 H   0  0  0  0  0  0  0  0  0  0  0  0
   -2.8785    2.1127    0.2423 H   0  0  0  0  0  0  0  0  0  0  0  0
  1  2  1  0
  1  5  1  0
  1  6  1  0
  1 15  1  0
  2  3  1  0
  3  4  2  3
  4  7  1  0
  4  8  1  0
  9 10  1  0
  9 12  1  0
  9 13  1  0
  9 14  1  0
 10 11  1  0
 10 16  1  0
 11 17  1  0
M  RAD  1  10   2
M  END
>  <reaction>  (10) 
rmg_rxn_15690

>  <mol_properties>  (10) 
{"0": {"label": "*3", "atom_type": "Cs"}, "1": {"label": "*4", "atom_type": "O2s"}, "9": {"label": "*1", "atom_type": "Cs"}, "10": {"label": "*0", "atom_type": "O2s"}, "14": {"label": "*2", "atom_type": "H0"}}

>  <type>  (10) 
unop_6

>  <geom_source>  (10) 
Heuristics

$$$$

     RDKit          3D

 17 15  0  0  0  0  0  0  0  0999 V2000
    0.6698   -1.0515    0.9689 C   0  0  0  0  0  0  0  0  0  0  0  0
    1.4420   -0.9634   -0.1870 O   0  0  0  0  0  0  0  0  0  0  0  0
    1.9382    0.2175   -0.6108 N   0  0  0  0  0  0  0  0  0  0  0  0
    1.6843    1.3129   -0.0330 C   0  0  0  0  0  0  0  0  0  0  0  0
    0.5385   -2.1089    1.1702 H   0  0  0  0  0  0  0  0  0  0  0  0
    1.0828   -0.5120    1.8209 H   0  0  0  0  0  0  0  0  0  0  0  0
    2.1524    2.1818   -0.4618 H   0  0  0  0  0  0  0  0  0  0  0  0
    1.0418    1.4610    0.8309 H   0  0  0  0  0  0  0  0  0  0  0  0
   -2.1387   -0.7999   -0.8558 C   0  0  0  0  0  0  0  0  0  0  0  0
   -1.7336   -0.0713    0.4016 C   0  0  0  0  0  3  0  0  0  0  0  0
   -1.6171    1.3095    0.2812 O   0  0  0  0  0  0  0  0  0  0  0  0
   -1.4023   -0.6399   -1.6438 H   0  0  0  0  0  0  0  0  0  0  0  0
   -2.2066   -1.8663   -0.6604 H   0  0  0  0  0  0  0  0  0  0  0  0
   -3.1088   -0.4499   -1.2149 H   0  0  0  0  0  0  0  0  0  0  0  0
   -0.5382   -0.5621    0.7381 H   0  0  0  0  0  0  0  0  0  0  0  0
   -2.3704   -0.2751    1.2611 H   0  0  0  0  0  0  0  0  0  0  0  0
   -1.2532    1.5218   -0.5873 H   0  0  0  0  0  0  0  0  0  0  0  0
  1  2  1  0
  1  5  1  0
  1  6  1  0
  1 15  1  0
  2  3  1  0
  3  4  2  3
  4  7  1  0
  4  8  1  0
  9 10  1  0
  9 12  1  0
  9 13  1  0
  9 14  1  0
 10 11  1  0
 10 16  1  0
 11 17  1  0
M  RAD  1  10   2
M  END
>  <reaction>  (11) 
rmg_rxn_15690

>  <mol_properties>  (11) 
{"0": {"label": "*3", "atom_type": "Cs"}, "1": {"label": "*4", "atom_type": "O2s"}, "9": {"label": "*1", "atom_type": "Cs"}, "10": {"label": "*0", "atom_type": "O2s"}, "14": {"label": "*2", "atom_type": "H0"}}

>  <type>  (11) 
unop_7

>  <geom_source>  (11) 
Heuristics

$$$$

     RDKit          3D

 17 15  0  0  0  0  0  0  0  0999 V2000
    0.6166   -0.8063   -0.3615 C   0  0  0  0  0  0  0  0  0  0  0  0
    0.8909   -0.1816    0.8771 O   0  0  0  0  0  0  0  0  0  0  0  0
    1.6051   -1.0385    1.6799 N   0  0  0  0  0  0  0  0  0  0  0  0
    1.8749   -0.5232    2.8017 C   0  0  0  0  0  0  0  0  0  0  0  0
    1.5415   -1.0606   -0.8840 H   0  0  0  0  0  0  0  0  0  0  0  0
    0.0175   -1.7086   -0.2198 H   0  0  0  0  0  0  0  0  0  0  0  0
    2.4371   -1.1357    3.4939 H   0  0  0  0  0  0  0  0  0  0  0  0
    1.5655    0.4836    3.0739 H   0  0  0  0  0  0  0  0  0  0  0  0
   -1.5567    0.3343   -2.7825 C   0  0  0  0  0  0  0  0  0  0  0  0
   -1.5567    0.3343   -1.2650 C   0  0  0  0  0  3  0  0  0  0  0  0
   -1.5567    1.6374   -0.7156 O   0  0  0  0  0  0  0  0  0  0  0  0
   -0.7006    0.8918   -3.1648 H   0  0  0  0  0  0  0  0  0  0  0  0
   -1.5082   -0.6863   -3.1677 H   0  0  0  0  0  0  0  0  0  0  0  0
   -2.4681    0.7944   -3.1737 H   0  0  0  0  0  0  0  0  0  0  0  0
   -0.4689   -0.2366   -0.8127 H   0  0  0  0  0  0  0  0  0  0  0  0
   -2.4089   -0.2455   -0.8877 H   0  0  0  0  0  0  0  0  0  0  0  0
   -2.3386    2.0974   -1.0247 H   0  0  0  0  0  0  0  0  0  0  0  0
  1  2  1  0
  1  5  1  0
  1  6  1  0
  1 15  1  0
  2  3  1  0
  3  4  2  3
  4  7  1  0
  4  8  1  0
  9 10  1  0
  9 12  1  0
  9 13  1  0
  9 14  1  0
 10 11  1  0
 10 16  1  0
 11 17  1  0
M  RAD  1  10   2
M  END
>  <reaction>  (12) 
rmg_rxn_15690

>  <mol_properties>  (12) 
{"0": {"label": "*3", "atom_type": "Cs"}, "1": {"label": "*4", "atom_type": "O2s"}, "9": {"label": "*1", "atom_type": "Cs"}, "10": {"label": "*0", "atom_type": "O2s"}, "14": {"label": "*2", "atom_type": "H0"}}

>  <type>  (12) 
unop_8

>  <geom_source>  (12) 
Heuristics

$$$$

     RDKit          3D

 17 15  0  0  0  0  0  0  0  0999 V2000
    0.8067    0.2430    0.5560 C   0  0  0  0  0  0  0  0  0  0  0  0
    0.7857   -1.0772    0.0498 O   0  0  0  0  0  0  0  0  0  0  0  0
    1.3923   -1.9259    0.9444 N   0  0  0  0  0  0  0  0  0  0  0  0
    1.3981   -3.1213    0.5348 C   0  0  0  0  0  0  0  0  0  0  0  0
    0.2617    0.3080    1.5004 H   0  0  0  0  0  0  0  0  0  0  0  0
    1.8324    0.5892    0.7020 H   0  0  0  0  0  0  0  0  0  0  0  0
    1.8591   -3.8539    1.1837 H   0  0  0  0  0  0  0  0  0  0  0  0
    0.9661   -3.4162   -0.4191 H   0  0  0  0  0  0  0  0  0  0  0  0
   -1.3666    1.3835   -1.8650 C   0  0  0  0  0  0  0  0  0  0  0  0
   -1.3666    1.3835   -0.3475 C   0  0  0  0  0  3  0  0  0  0  0  0
   -1.3666    2.6867    0.2018 O   0  0  0  0  0  0  0  0  0  0  0  0
   -0.5106    1.9411   -2.2473 H   0  0  0  0  0  0  0  0  0  0  0  0
   -1.3182    0.3630   -2.2502 H   0  0  0  0  0  0  0  0  0  0  0  0
   -2.2781    1.8437   -2.2562 H   0  0  0  0  0  0  0  0  0  0  0  0
   -0.2788    0.8127    0.1047 H   0  0  0  0  0  0  0  0  0  0  0  0
   -2.2188    0.8038    0.0298 H   0  0  0  0  0  0  0  0  0  0  0  0
   -2.1486    3.1467   -0.1072 H   0  0  0  0  0  0  0  0  0  0  0  0
  1  2  1  0
  1  5  1  0
  1  6  1  0
  1 15  1  0
  2  3  1  0
  3  4  2  3
  4  7  1  0
  4  8  1  0
  9 10  1  0
  9 12  1  0
  9 13  1  0
  9 14  1  0
 10 11  1  0
 10 16  1  0
 11 17  1  0
M  RAD  1  10   2
M  END
>  <reaction>  (13) 
rmg_rxn_15690

>  <mol_properties>  (13) 
{"0": {"label": "*3", "atom_type": "Cs"}, "1": {"label": "*4", "atom_type": "O2s"}, "9": {"label": "*1", "atom_type": "Cs"}, "10": {"label": "*0", "atom_type": "O2s"}, "14": {"label": "*2", "atom_type": "H0"}}

>  <type>  (13) 
unop_9

>  <geom_source>  (13) 
Heuristics

$$$$

     RDKit          3D

 17 15  0  0  0  0  0  0  0  0999 V2000
    1.3825   -1.6534    0.3012 C   0  0  0  0  0  0  0  0  0  0  0  0
    1.9624   -0.3742    0.2720 O   0  0  0  0  0  0  0  0  0  0  0  0
    1.0611    0.5684   -0.1947 N   0  0  0  0  0  0  0  0  0  0  0  0
    1.4795    1.7560   -0.2720 C   0  0  0  0  0  0  0  0  0  0  0  0
    1.0553   -1.9993   -0.6753 H   0  0  0  0  0  0  0  0  0  0  0  0
    2.0662   -2.3223    0.7789 H   0  0  0  0  0  0  0  0  0  0  0  0
    0.7816    2.4893   -0.6361 H   0  0  0  0  0  0  0  0  0  0  0  0
    2.4808    2.0672    0.0041 H   0  0  0  0  0  0  0  0  0  0  0  0
   -2.1333    0.6173    1.0555 C   0  0  0  0  0  0  0  0  0  0  0  0
   -2.3599   -0.3260   -0.0636 C   0  0  0  0  0  3  0  0  0  0  0  0
   -1.4651   -0.4431   -1.0850 O   0  0  0  0  0  0  0  0  0  0  0  0
   -2.3916    1.6525    0.7897 H   0  0  0  0  0  0  0  0  0  0  0  0
   -2.7465    0.3386    1.9102 H   0  0  0  0  0  0  0  0  0  0  0  0
   -1.0837    0.6130    1.3521 H   0  0  0  0  0  0  0  0  0  0  0  0
    0.5978   -1.7596    1.0598 H   0  0  0  0  0  0  0  0  0  0  0  0
   -3.3505   -0.6494   -0.3295 H   0  0  0  0  0  0  0  0  0  0  0  0
   -0.6120   -0.0497   -0.8115 H   0  0  0  0  0  0  0  0  0  0  0  0
  1  2  1  0
  1  5  1  0
  1  6  1  0
  1 15  1  0
  2  3  1  0
  3  4  2  3
  4  7  1  0
  4  8  1  0
  9 10  1  0
  9 12  1  0
  9 13  1  0
  9 14  1  0
 10 11  1  0
 10 16  1  0
 11 17  1  0
M  RAD  1  10   2
M  END
>  <reaction>  (14) 
rmg_rxn_15690

>  <mol_properties>  (14) 
{"0": {"label": "*3", "atom_type": "Cs"}, "1": {"label": "*4", "atom_type": "O2s"}, "9": {"label": "*1", "atom_type": "Cs"}, "10": {"label": "*0", "atom_type": "O2s"}, "14": {"label": "*2", "atom_type": "H0"}}

>  <type>  (14) 
unop_10

>  <geom_source>  (14) 
Heuristics

$$$$

     RDKit          3D

 17 15  0  0  0  0  0  0  0  0999 V2000
    0.7058   -0.5738   -0.3862 C   0  0  0  0  0  0  0  0  0  0  0  0
    0.6081   -0.5225    1.0236 O   0  0  0  0  0  0  0  0  0  0  0  0
    1.7183   -1.1051    1.5864 N   0  0  0  0  0  0  0  0  0  0  0  0
    1.6767   -1.0833    2.8491 C   0  0  0  0  0  0  0  0  0  0  0  0
    1.5840   -0.0271   -0.7370 H   0  0  0  0  0  0  0  0  0  0  0  0
    0.7549   -1.6071   -0.7370 H   0  0  0  0  0  0  0  0  0  0  0  0
    2.5164   -1.5239    3.3696 H   0  0  0  0  0  0  0  0  0  0  0  0
    0.8464   -0.6476    3.4008 H   0  0  0  0  0  0  0  0  0  0  0  0
   -1.4675    0.5667   -2.8071 C   0  0  0  0  0  0  0  0  0  0  0  0
   -1.4675    0.5667   -1.2896 C   0  0  0  0  0  3  0  0  0  0  0  0
   -1.4675    1.8699   -0.7403 O   0  0  0  0  0  0  0  0  0  0  0  0
   -0.6114    1.1243   -3.1895 H   0  0  0  0  0  0  0  0  0  0  0  0
   -1.4191   -0.4539   -3.1924 H   0  0  0  0  0  0  0  0  0  0  0  0
   -2.3789    1.0269   -3.1983 H   0  0  0  0  0  0  0  0  0  0  0  0
   -0.3797   -0.0041   -0.8374 H   0  0  0  0  0  0  0  0  0  0  0  0
   -2.3197   -0.0130   -0.9124 H   0  0  0  0  0  0  0  0  0  0  0  0
   -2.2494    2.3299   -1.0494 H   0  0  0  0  0  0  0  0  0  0  0  0
  1  2  1  0
  1  5  1  0
  1  6  1  0
  1 15  1  0
  2  3  1  0
  3  4  2  3
  4  7  1  0
  4  8  1  0
  9 10  1  0
  9 12  1  0
  9 13  1  0
  9 14  1  0
 10 11  1  0
 10 16  1  0
 11 17  1  0
M  RAD  1  10   2
M  END
>  <reaction>  (15) 
rmg_rxn_15690

>  <mol_properties>  (15) 
{"0": {"label": "*3", "atom_type": "Cs"}, "1": {"label": "*4", "atom_type": "O2s"}, "9": {"label": "*1", "atom_type": "Cs"}, "10": {"label": "*0", "atom_type": "O2s"}, "14": {"label": "*2", "atom_type": "H0"}}

>  <type>  (15) 
unop_11

>  <geom_source>  (15) 
Heuristics

$$$$

     RDKit          3D

 17 15  0  0  0  0  0  0  0  0999 V2000
    0.4128    1.6777   -0.2650 C   0  0  0  0  0  0  0  0  0  0  0  0
    1.3773    0.8291    0.2794 O   0  0  0  0  0  0  0  0  0  0  0  0
    1.2819   -0.4531   -0.2312 N   0  0  0  0  0  0  0  0  0  0  0  0
    2.1892   -1.2601    0.1175 C   0  0  0  0  0  0  0  0  0  0  0  0
    0.4375    2.5998    0.3032 H   0  0  0  0  0  0  0  0  0  0  0  0
    0.5296    1.8264   -1.3373 H   0  0  0  0  0  0  0  0  0  0  0  0
    2.1209   -2.2607   -0.2721 H   0  0  0  0  0  0  0  0  0  0  0  0
    3.0138   -1.0050    0.7750 H   0  0  0  0  0  0  0  0  0  0  0  0
   -1.7340   -0.3888    1.3234 C   0  0  0  0  0  0  0  0  0  0  0  0
   -1.7852    0.2280   -0.0553 C   0  0  0  0  0  3  0  0  0  0  0  0
   -1.6040   -0.6442   -1.1159 O   0  0  0  0  0  0  0  0  0  0  0  0
   -1.8361    0.3838    2.0809 H   0  0  0  0  0  0  0  0  0  0  0  0
   -2.5431   -1.1105    1.4526 H   0  0  0  0  0  0  0  0  0  0  0  0
   -0.7886   -0.9073    1.4760 H   0  0  0  0  0  0  0  0  0  0  0  0
   -0.7601    1.0866   -0.1189 H   0  0  0  0  0  0  0  0  0  0  0  0
   -2.6882    0.8071   -0.2432 H   0  0  0  0  0  0  0  0  0  0  0  0
   -0.7706   -1.1193   -0.9786 H   0  0  0  0  0  0  0  0  0  0  0  0
  1  2  1  0
  1  5  1  0
  1  6  1  0
  1 15  1  0
  2  3  1  0
  3  4  2  3
  4  7  1  0
  4  8  1  0
  9 10  1  0
  9 12  1  0
  9 13  1  0
  9 14  1  0
 10 11  1  0
 10 16  1  0
 11 17  1  0
M  RAD  1  10   2
M  END
>  <reaction>  (16) 
rmg_rxn_15690

>  <mol_properties>  (16) 
{"0": {"label": "*3", "atom_type": "Cs"}, "1": {"label": "*4", "atom_type": "O2s"}, "9": {"label": "*1", "atom_type": "Cs"}, "10": {"label": "*0", "atom_type": "O2s"}, "14": {"label": "*2", "atom_type": "H0"}}

>  <type>  (16) 
unop_12

>  <geom_source>  (16) 
Heuristics

$$$$

     RDKit          3D

 17 15  0  0  0  0  0  0  0  0999 V2000
    0.6664   -1.0581    0.9623 C   0  0  0  0  0  0  0  0  0  0  0  0
    1.4378   -0.9661   -0.1938 O   0  0  0  0  0  0  0  0  0  0  0  0
    1.9402    0.2151   -0.6098 N   0  0  0  0  0  0  0  0  0  0  0  0
    1.6924    1.3078   -0.0245 C   0  0  0  0  0  0  0  0  0  0  0  0
    0.5300   -2.1161    1.1565 H   0  0  0  0  0  0  0  0  0  0  0  0
    1.0831   -0.5264    1.8175 H   0  0  0  0  0  0  0  0  0  0  0  0
    2.1647    2.1772   -0.4476 H   0  0  0  0  0  0  0  0  0  0  0  0
    1.0507    1.4535    0.8404 H   0  0  0  0  0  0  0  0  0  0  0  0
   -2.1540   -0.7984   -0.8431 C   0  0  0  0  0  0  0  0  0  0  0  0
   -1.7330   -0.0624    0.4047 C   0  0  0  0  0  3  0  0  0  0  0  0
   -1.6049    1.3162    0.2710 O   0  0  0  0  0  0  0  0  0  0  0  0
   -2.2305   -1.8623   -0.6377 H   0  0  0  0  0  0  0  0  0  0  0  0
   -3.1235   -0.4425   -1.1983 H   0  0  0  0  0  0  0  0  0  0  0  0
   -1.4221   -0.6522   -1.6379 H   0  0  0  0  0  0  0  0  0  0  0  0
   -0.5395   -0.5613    0.7365 H   0  0  0  0  0  0  0  0  0  0  0  0
   -2.3653   -0.2528    1.2706 H   0  0  0  0  0  0  0  0  0  0  0  0
   -1.2446    1.5173   -0.6015 H   0  0  0  0  0  0  0  0  0  0  0  0
  1  2  1  0
  1  5  1  0
  1  6  1  0
  1 15  1  0
  2  3  1  0
  3  4  2  3
  4  7  1  0
  4  8  1  0
  9 10  1  0
  9 12  1  0
  9 13  1  0
  9 14  1  0
 10 11  1  0
 10 16  1  0
 11 17  1  0
M  RAD  1  10   2
M  END
>  <reaction>  (17) 
rmg_rxn_15690

>  <mol_properties>  (17) 
{"0": {"label": "*3", "atom_type": "Cs"}, "1": {"label": "*4", "atom_type": "O2s"}, "9": {"label": "*1", "atom_type": "Cs"}, "10": {"label": "*0", "atom_type": "O2s"}, "14": {"label": "*2", "atom_type": "H0"}}

>  <type>  (17) 
unop_13

>  <geom_source>  (17) 
Heuristics

$$$$

     RDKit          3D

 17 15  0  0  0  0  0  0  0  0999 V2000
    0.9702    0.1733    0.1424 C   0  0  0  0  0  0  0  0  0  0  0  0
    0.6563   -1.1991    0.2749 O   0  0  0  0  0  0  0  0  0  0  0  0
    1.2447   -1.7013    1.4108 N   0  0  0  0  0  0  0  0  0  0  0  0
    0.9921   -2.9288    1.5728 C   0  0  0  0  0  0  0  0  0  0  0  0
    0.5935    0.7442    0.9941 H   0  0  0  0  0  0  0  0  0  0  0  0
    2.0489    0.3205    0.0528 H   0  0  0  0  0  0  0  0  0  0  0  0
    1.4202   -3.4006    2.4471 H   0  0  0  0  0  0  0  0  0  0  0  0
    0.3774   -3.4973    0.8782 H   0  0  0  0  0  0  0  0  0  0  0  0
   -1.2031    1.3138   -2.2785 C   0  0  0  0  0  0  0  0  0  0  0  0
   -1.2031    1.3138   -0.7610 C   0  0  0  0  0  3  0  0  0  0  0  0
   -1.2031    2.6170   -0.2117 O   0  0  0  0  0  0  0  0  0  0  0  0
   -0.3470    1.8714   -2.6609 H   0  0  0  0  0  0  0  0  0  0  0  0
   -1.1547    0.2932   -2.6638 H   0  0  0  0  0  0  0  0  0  0  0  0
   -2.1145    1.7740   -2.6697 H   0  0  0  0  0  0  0  0  0  0  0  0
   -0.1153    0.7429   -0.3088 H   0  0  0  0  0  0  0  0  0  0  0  0
   -2.0553    0.7341   -0.3838 H   0  0  0  0  0  0  0  0  0  0  0  0
   -1.9850    3.0770   -0.5208 H   0  0  0  0  0  0  0  0  0  0  0  0
  1  2  1  0
  1  5  1  0
  1  6  1  0
  1 15  1  0
  2  3  1  0
  3  4  2  3
  4  7  1  0
  4  8  1  0
  9 10  1  0
  9 12  1  0
  9 13  1  0
  9 14  1  0
 10 11  1  0
 10 16  1  0
 11 17  1  0
M  RAD  1  10   2
M  END
>  <reaction>  (18) 
rmg_rxn_15690

>  <mol_properties>  (18) 
{"0": {"label": "*3", "atom_type": "Cs"}, "1": {"label": "*4", "atom_type": "O2s"}, "9": {"label": "*1", "atom_type": "Cs"}, "10": {"label": "*0", "atom_type": "O2s"}, "14": {"label": "*2", "atom_type": "H0"}}

>  <type>  (18) 
unop_14

>  <geom_source>  (18) 
Heuristics

$$$$

     RDKit          3D

 17 15  0  0  0  0  0  0  0  0999 V2000
    0.4127    1.6778   -0.2619 C   0  0  0  0  0  0  0  0  0  0  0  0
    1.3774    0.8283    0.2807 O   0  0  0  0  0  0  0  0  0  0  0  0
    1.2828   -0.4525   -0.2335 N   0  0  0  0  0  0  0  0  0  0  0  0
    2.1899   -1.2602    0.1141 C   0  0  0  0  0  0  0  0  0  0  0  0
    0.4381    2.5993    0.3073 H   0  0  0  0  0  0  0  0  0  0  0  0
    0.5287    1.8277   -1.3342 H   0  0  0  0  0  0  0  0  0  0  0  0
    2.1222   -2.2598   -0.2779 H   0  0  0  0  0  0  0  0  0  0  0  0
    3.0138   -1.0067    0.7732 H   0  0  0  0  0  0  0  0  0  0  0  0
   -1.7308   -0.3941    1.3234 C   0  0  0  0  0  0  0  0  0  0  0  0
   -1.7856    0.2285   -0.0525 C   0  0  0  0  0  3  0  0  0  0  0  0
   -1.6081   -0.6394   -1.1173 O   0  0  0  0  0  0  0  0  0  0  0  0
   -2.5419   -1.1135    1.4532 H   0  0  0  0  0  0  0  0  0  0  0  0
   -0.7866   -0.9165    1.4697 H   0  0  0  0  0  0  0  0  0  0  0  0
   -1.8268    0.3757    2.0846 H   0  0  0  0  0  0  0  0  0  0  0  0
   -0.7601    1.0868   -0.1157 H   0  0  0  0  0  0  0  0  0  0  0  0
   -2.6886    0.8091   -0.2354 H   0  0  0  0  0  0  0  0  0  0  0  0
   -0.7755   -1.1168   -0.9835 H   0  0  0  0  0  0  0  0  0  0  0  0
  1  2  1  0
  1  5  1  0
  1  6  1  0
  1 15  1  0
  2  3  1  0
  3  4  2  3
  4  7  1  0
  4  8  1  0
  9 10  1  0
  9 12  1  0
  9 13  1  0
  9 14  1  0
 10 11  1  0
 10 16  1  0
 11 17  1  0
M  RAD  1  10   2
M  END
>  <reaction>  (19) 
rmg_rxn_15690

>  <mol_properties>  (19) 
{"0": {"label": "*3", "atom_type": "Cs"}, "1": {"label": "*4", "atom_type": "O2s"}, "9": {"label": "*1", "atom_type": "Cs"}, "10": {"label": "*0", "atom_type": "O2s"}, "14": {"label": "*2", "atom_type": "H0"}}

>  <type>  (19) 
unop_15

>  <geom_source>  (19) 
Heuristics

$$$$

     RDKit          3D

 17 15  0  0  0  0  0  0  0  0999 V2000
    0.9759   -0.0755   -0.1942 C   0  0  0  0  0  0  0  0  0  0  0  0
    0.5385   -1.1772    0.5768 O   0  0  0  0  0  0  0  0  0  0  0  0
    1.3430   -1.3173    1.6823 N   0  0  0  0  0  0  0  0  0  0  0  0
    0.9904   -2.2921    2.4048 C   0  0  0  0  0  0  0  0  0  0  0  0
    0.9179    0.8515    0.3807 H   0  0  0  0  0  0  0  0  0  0  0  0
    2.0001   -0.2249   -0.5433 H   0  0  0  0  0  0  0  0  0  0  0  0
    1.5751   -2.4704    3.2974 H   0  0  0  0  0  0  0  0  0  0  0  0
    0.1446   -2.9297    2.1569 H   0  0  0  0  0  0  0  0  0  0  0  0
   -1.1974    1.0651   -2.6152 C   0  0  0  0  0  0  0  0  0  0  0  0
   -1.1974    1.0651   -1.0977 C   0  0  0  0  0  3  0  0  0  0  0  0
   -1.1974    2.3682   -0.5484 O   0  0  0  0  0  0  0  0  0  0  0  0
   -0.3414    1.6226   -2.9976 H   0  0  0  0  0  0  0  0  0  0  0  0
   -1.1490    0.0445   -3.0005 H   0  0  0  0  0  0  0  0  0  0  0  0
   -2.1089    1.5252   -3.0064 H   0  0  0  0  0  0  0  0  0  0  0  0
   -0.1097    0.4942   -0.6455 H   0  0  0  0  0  0  0  0  0  0  0  0
   -2.0496    0.4853   -0.7205 H   0  0  0  0  0  0  0  0  0  0  0  0
   -1.9794    2.8282   -0.8575 H   0  0  0  0  0  0  0  0  0  0  0  0
  1  2  1  0
  1  5  1  0
  1  6  1  0
  1 15  1  0
  2  3  1  0
  3  4  2  3
  4  7  1  0
  4  8  1  0
  9 10  1  0
  9 12  1  0
  9 13  1  0
  9 14  1  0
 10 11  1  0
 10 16  1  0
 11 17  1  0
M  RAD  1  10   2
M  END
>  <reaction>  (20) 
rmg_rxn_15690

>  <mol_properties>  (20) 
{"0": {"label": "*3", "atom_type": "Cs"}, "1": {"label": "*4", "atom_type": "O2s"}, "9": {"label": "*1", "atom_type": "Cs"}, "10": {"label": "*0", "atom_type": "O2s"}, "14": {"label": "*2", "atom_type": "H0"}}

>  <type>  (20) 
unop_16

>  <geom_source>  (20) 
Heuristics

$$$$

     RDKit          3D

 17 15  0  0  0  0  0  0  0  0999 V2000
    0.6705   -1.0518    0.9684 C   0  0  0  0  0  0  0  0  0  0  0  0
    1.4436   -0.9632   -0.1866 O   0  0  0  0  0  0  0  0  0  0  0  0
    1.9388    0.2183   -0.6103 N   0  0  0  0  0  0  0  0  0  0  0  0
    1.6817    1.3137   -0.0340 C   0  0  0  0  0  0  0  0  0  0  0  0
    0.5406   -2.1093    1.1702 H   0  0  0  0  0  0  0  0  0  0  0  0
    1.0818   -0.5111    1.8206 H   0  0  0  0  0  0  0  0  0  0  0  0
    2.1487    2.1831   -0.4626 H   0  0  0  0  0  0  0  0  0  0  0  0
    1.0369    1.4613    0.8283 H   0  0  0  0  0  0  0  0  0  0  0  0
   -2.1396   -0.7988   -0.8571 C   0  0  0  0  0  0  0  0  0  0  0  0
   -1.7336   -0.0726    0.4014 C   0  0  0  0  0  3  0  0  0  0  0  0
   -1.6164    1.3083    0.2831 O   0  0  0  0  0  0  0  0  0  0  0  0
   -2.2072   -1.8656   -0.6638 H   0  0  0  0  0  0  0  0  0  0  0  0
   -3.1102   -0.4482   -1.2145 H   0  0  0  0  0  0  0  0  0  0  0  0
   -1.4041   -0.6371   -1.6455 H   0  0  0  0  0  0  0  0  0  0  0  0
   -0.5379   -0.5640    0.7366 H   0  0  0  0  0  0  0  0  0  0  0  0
   -2.3701   -0.2776    1.2609 H   0  0  0  0  0  0  0  0  0  0  0  0
   -1.2535    1.5219   -0.5853 H   0  0  0  0  0  0  0  0  0  0  0  0
  1  2  1  0
  1  5  1  0
  1  6  1  0
  1 15  1  0
  2  3  1  0
  3  4  2  3
  4  7  1  0
  4  8  1  0
  9 10  1  0
  9 12  1  0
  9 13  1  0
  9 14  1  0
 10 11  1  0
 10 16  1  0
 11 17  1  0
M  RAD  1  10   2
M  END
>  <reaction>  (21) 
rmg_rxn_15690

>  <mol_properties>  (21) 
{"0": {"label": "*3", "atom_type": "Cs"}, "1": {"label": "*4", "atom_type": "O2s"}, "9": {"label": "*1", "atom_type": "Cs"}, "10": {"label": "*0", "atom_type": "O2s"}, "14": {"label": "*2", "atom_type": "H0"}}

>  <type>  (21) 
unop_17

>  <geom_source>  (21) 
Heuristics

$$$$

     RDKit          3D

 17 15  0  0  0  0  0  0  0  0999 V2000
    0.2413   -1.2158    0.1425 C   0  0  0  0  0  0  0  0  0  0  0  0
    1.1923   -0.1778    0.2749 O   0  0  0  0  0  0  0  0  0  0  0  0
    1.9399   -0.3767    1.4108 N   0  0  0  0  0  0  0  0  0  0  0  0
    2.8065    0.5286    1.5727 C   0  0  0  0  0  0  0  0  0  0  0  0
    0.7330   -2.1871    0.0529 H   0  0  0  0  0  0  0  0  0  0  0  0
   -0.4426   -1.2301    0.9941 H   0  0  0  0  0  0  0  0  0  0  0  0
    3.4380    0.4444    2.4470 H   0  0  0  0  0  0  0  0  0  0  0  0
    2.9251    1.3575    0.8782 H   0  0  0  0  0  0  0  0  0  0  0  0
   -1.9321   -0.0753   -2.2785 C   0  0  0  0  0  0  0  0  0  0  0  0
   -1.9321   -0.0753   -0.7610 C   0  0  0  0  0  3  0  0  0  0  0  0
   -1.9321    1.2279   -0.2117 O   0  0  0  0  0  0  0  0  0  0  0  0
   -1.0760    0.4823   -2.6609 H   0  0  0  0  0  0  0  0  0  0  0  0
   -1.8836   -1.0959   -2.6638 H   0  0  0  0  0  0  0  0  0  0  0  0
   -2.8435    0.3849   -2.6697 H   0  0  0  0  0  0  0  0  0  0  0  0
   -0.8443   -0.6461   -0.3088 H   0  0  0  0  0  0  0  0  0  0  0  0
   -2.7843   -0.6550   -0.3838 H   0  0  0  0  0  0  0  0  0  0  0  0
   -2.7140    1.6879   -0.5208 H   0  0  0  0  0  0  0  0  0  0  0  0
  1  2  1  0
  1  5  1  0
  1  6  1  0
  1 15  1  0
  2  3  1  0
  3  4  2  3
  4  7  1  0
  4  8  1  0
  9 10  1  0
  9 12  1  0
  9 13  1  0
  9 14  1  0
 10 11  1  0
 10 16  1  0
 11 17  1  0
M  RAD  1  10   2
M  END
>  <reaction>  (22) 
rmg_rxn_15690

>  <mol_properties>  (22) 
{"0": {"label": "*3", "atom_type": "Cs"}, "1": {"label": "*4", "atom_type": "O2s"}, "9": {"label": "*1", "atom_type": "Cs"}, "10": {"label": "*0", "atom_type": "O2s"}, "14": {"label": "*2", "atom_type": "H0"}}

>  <type>  (22) 
unop_18

>  <geom_source>  (22) 
Heuristics

$$$$

     RDKit          3D

 17 15  0  0  0  0  0  0  0  0999 V2000
    0.6672   -1.0558    0.9636 C   0  0  0  0  0  0  0  0  0  0  0  0
    1.4400   -0.9654   -0.1916 O   0  0  0  0  0  0  0  0  0  0  0  0
    1.9415    0.2154   -0.6095 N   0  0  0  0  0  0  0  0  0  0  0  0
    1.6912    1.3092   -0.0272 C   0  0  0  0  0  0  0  0  0  0  0  0
    0.5319   -2.1135    1.1601 H   0  0  0  0  0  0  0  0  0  0  0  0
    1.0823   -0.5217    1.8181 H   0  0  0  0  0  0  0  0  0  0  0  0
    2.1630    2.1782   -0.4517 H   0  0  0  0  0  0  0  0  0  0  0  0
    1.0477    1.4560    0.8361 H   0  0  0  0  0  0  0  0  0  0  0  0
   -2.1516   -0.7990   -0.8463 C   0  0  0  0  0  0  0  0  0  0  0  0
   -1.7337   -0.0648    0.4037 C   0  0  0  0  0  3  0  0  0  0  0  0
   -1.6095    1.3144    0.2736 O   0  0  0  0  0  0  0  0  0  0  0  0
   -1.4200   -0.6478   -1.6405 H   0  0  0  0  0  0  0  0  0  0  0  0
   -2.2240   -1.8637   -0.6438 H   0  0  0  0  0  0  0  0  0  0  0  0
   -3.1224   -0.4458   -1.2006 H   0  0  0  0  0  0  0  0  0  0  0  0
   -0.5391   -0.5610    0.7357 H   0  0  0  0  0  0  0  0  0  0  0  0
   -2.3660   -0.2593    1.2686 H   0  0  0  0  0  0  0  0  0  0  0  0
   -1.2495    1.5190   -0.5982 H   0  0  0  0  0  0  0  0  0  0  0  0
  1  2  1  0
  1  5  1  0
  1  6  1  0
  1 15  1  0
  2  3  1  0
  3  4  2  3
  4  7  1  0
  4  8  1  0
  9 10  1  0
  9 12  1  0
  9 13  1  0
  9 14  1  0
 10 11  1  0
 10 16  1  0
 11 17  1  0
M  RAD  1  10   2
M  END
>  <reaction>  (23) 
rmg_rxn_15690

>  <mol_properties>  (23) 
{"0": {"label": "*3", "atom_type": "Cs"}, "1": {"label": "*4", "atom_type": "O2s"}, "9": {"label": "*1", "atom_type": "Cs"}, "10": {"label": "*0", "atom_type": "O2s"}, "14": {"label": "*2", "atom_type": "H0"}}

>  <type>  (23) 
unop_19

>  <geom_source>  (23) 
Heuristics

$$$$

     RDKit          3D

 17 15  0  0  0  0  0  0  0  0999 V2000
    0.5272    0.0673    0.9056 C   0  0  0  0  0  0  0  0  0  0  0  0
    0.8901   -0.8917   -0.0682 O   0  0  0  0  0  0  0  0  0  0  0  0
    1.7511   -1.8096    0.4841 N   0  0  0  0  0  0  0  0  0  0  0  0
    2.1048   -2.6900   -0.3505 C   0  0  0  0  0  0  0  0  0  0  0  0
    0.0166   -0.4051    1.7478 H   0  0  0  0  0  0  0  0  0  0  0  0
    1.4046    0.6080    1.2674 H   0  0  0  0  0  0  0  0  0  0  0  0
    2.7846   -3.4518    0.0071 H   0  0  0  0  0  0  0  0  0  0  0  0
    1.7533   -2.6965   -1.3800 H   0  0  0  0  0  0  0  0  0  0  0  0
   -1.6461    1.2078   -1.5154 C   0  0  0  0  0  0  0  0  0  0  0  0
   -1.6461    1.2078    0.0021 C   0  0  0  0  0  3  0  0  0  0  0  0
   -1.6461    2.5110    0.5514 O   0  0  0  0  0  0  0  0  0  0  0  0
   -0.7901    1.7653   -1.8977 H   0  0  0  0  0  0  0  0  0  0  0  0
   -1.5977    0.1872   -1.9007 H   0  0  0  0  0  0  0  0  0  0  0  0
   -2.5575    1.6680   -1.9066 H   0  0  0  0  0  0  0  0  0  0  0  0
   -0.5583    0.6369    0.4543 H   0  0  0  0  0  0  0  0  0  0  0  0
   -2.4983    0.6281    0.3794 H   0  0  0  0  0  0  0  0  0  0  0  0
   -2.4281    2.9710    0.2423 H   0  0  0  0  0  0  0  0  0  0  0  0
  1  2  1  0
  1  5  1  0
  1  6  1  0
  1 15  1  0
  2  3  1  0
  3  4  2  3
  4  7  1  0
  4  8  1  0
  9 10  1  0
  9 12  1  0
  9 13  1  0
  9 14  1  0
 10 11  1  0
 10 16  1  0
 11 17  1  0
M  RAD  1  10   2
M  END
>  <reaction>  (24) 
rmg_rxn_15690

>  <mol_properties>  (24) 
{"0": {"label": "*3", "atom_type": "Cs"}, "1": {"label": "*4", "atom_type": "O2s"}, "9": {"label": "*1", "atom_type": "Cs"}, "10": {"label": "*0", "atom_type": "O2s"}, "14": {"label": "*2", "atom_type": "H0"}}

>  <type>  (24) 
unop_20

>  <geom_source>  (24) 
Heuristics

$$$$

     RDKit          3D

 17 15  0  0  0  0  0  0  0  0999 V2000
    0.0910   -1.1209    0.5560 C   0  0  0  0  0  0  0  0  0  0  0  0
    1.1654   -0.3535    0.0498 O   0  0  0  0  0  0  0  0  0  0  0  0
    2.2086   -0.3706    0.9444 N   0  0  0  0  0  0  0  0  0  0  0  0
    3.1956    0.3038    0.5348 C   0  0  0  0  0  0  0  0  0  0  0  0
    0.3888   -2.1616    0.7020 H   0  0  0  0  0  0  0  0  0  0  0  0
   -0.2722   -0.7093    1.5004 H   0  0  0  0  0  0  0  0  0  0  0  0
    4.0604    0.3407    1.1837 H   0  0  0  0  0  0  0  0  0  0  0  0
    3.1928    0.8270   -0.4190 H   0  0  0  0  0  0  0  0  0  0  0  0
   -2.0824    0.0197   -1.8650 C   0  0  0  0  0  0  0  0  0  0  0  0
   -2.0824    0.0197   -0.3475 C   0  0  0  0  0  3  0  0  0  0  0  0
   -2.0824    1.3229    0.2018 O   0  0  0  0  0  0  0  0  0  0  0  0
   -1.2263    0.5772   -2.2473 H   0  0  0  0  0  0  0  0  0  0  0  0
   -2.0339   -1.0009   -2.2502 H   0  0  0  0  0  0  0  0  0  0  0  0
   -2.9938    0.4798   -2.2562 H   0  0  0  0  0  0  0  0  0  0  0  0
   -0.9946   -0.5512    0.1047 H   0  0  0  0  0  0  0  0  0  0  0  0
   -2.9346   -0.5600    0.0298 H   0  0  0  0  0  0  0  0  0  0  0  0
   -2.8643    1.7829   -0.1072 H   0  0  0  0  0  0  0  0  0  0  0  0
  1  2  1  0
  1  5  1  0
  1  6  1  0
  1 15  1  0
  2  3  1  0
  3  4  2  3
  4  7  1  0
  4  8  1  0
  9 10  1  0
  9 12  1  0
  9 13  1  0
  9 14  1  0
 10 11  1  0
 10 16  1  0
 11 17  1  0
M  RAD  1  10   2
M  END
>  <reaction>  (25) 
rmg_rxn_15690

>  <mol_properties>  (25) 
{"0": {"label": "*3", "atom_type": "Cs"}, "1": {"label": "*4", "atom_type": "O2s"}, "9": {"label": "*1", "atom_type": "Cs"}, "10": {"label": "*0", "atom_type": "O2s"}, "14": {"label": "*2", "atom_type": "H0"}}

>  <type>  (25) 
unop_21

>  <geom_source>  (25) 
Heuristics

$$$$

     RDKit          3D

 17 15  0  0  0  0  0  0  0  0999 V2000
    0.8465   -0.3683   -0.3615 C   0  0  0  0  0  0  0  0  0  0  0  0
    0.4882   -0.9489    0.8771 O   0  0  0  0  0  0  0  0  0  0  0  0
    1.5992   -1.0498    1.6799 N   0  0  0  0  0  0  0  0  0  0  0  0
    1.3284   -1.5646    2.8017 C   0  0  0  0  0  0  0  0  0  0  0  0
    1.2486    0.6373   -0.2198 H   0  0  0  0  0  0  0  0  0  0  0  0
    1.5812   -0.9850   -0.8840 H   0  0  0  0  0  0  0  0  0  0  0  0
    2.1518   -1.6792    3.4939 H   0  0  0  0  0  0  0  0  0  0  0  0
    0.3241   -1.8820    3.0739 H   0  0  0  0  0  0  0  0  0  0  0  0
   -1.3269    0.7722   -2.7825 C   0  0  0  0  0  0  0  0  0  0  0  0
   -1.3269    0.7722   -1.2650 C   0  0  0  0  0  3  0  0  0  0  0  0
   -1.3269    2.0754   -0.7156 O   0  0  0  0  0  0  0  0  0  0  0  0
   -0.4708    1.3298   -3.1648 H   0  0  0  0  0  0  0  0  0  0  0  0
   -1.2784   -0.2484   -3.1677 H   0  0  0  0  0  0  0  0  0  0  0  0
   -2.2383    1.2324   -3.1737 H   0  0  0  0  0  0  0  0  0  0  0  0
   -0.2391    0.2013   -0.8128 H   0  0  0  0  0  0  0  0  0  0  0  0
   -2.1790    0.1925   -0.8877 H   0  0  0  0  0  0  0  0  0  0  0  0
   -2.1088    2.5354   -1.0247 H   0  0  0  0  0  0  0  0  0  0  0  0
  1  2  1  0
  1  5  1  0
  1  6  1  0
  1 15  1  0
  2  3  1  0
  3  4  2  3
  4  7  1  0
  4  8  1  0
  9 10  1  0
  9 12  1  0
  9 13  1  0
  9 14  1  0
 10 11  1  0
 10 16  1  0
 11 17  1  0
M  RAD  1  10   2
M  END
>  <reaction>  (26) 
rmg_rxn_15690

>  <mol_properties>  (26) 
{"0": {"label": "*3", "atom_type": "Cs"}, "1": {"label": "*4", "atom_type": "O2s"}, "9": {"label": "*1", "atom_type": "Cs"}, "10": {"label": "*0", "atom_type": "O2s"}, "14": {"label": "*2", "atom_type": "H0"}}

>  <type>  (26) 
unop_22

>  <geom_source>  (26) 
Heuristics

$$$$

     RDKit          3D

 17 15  0  0  0  0  0  0  0  0999 V2000
    0.2392   -0.3289    1.0456 C   0  0  0  0  0  0  0  0  0  0  0  0
    0.9741   -0.7146   -0.0993 O   0  0  0  0  0  0  0  0  0  0  0  0
    2.1424   -1.3277    0.2852 N   0  0  0  0  0  0  0  0  0  0  0  0
    2.8357   -1.6915   -0.7067 C   0  0  0  0  0  0  0  0  0  0  0  0
   -0.0239   -1.1984    1.6522 H   0  0  0  0  0  0  0  0  0  0  0  0
    0.8053    0.3816    1.6522 H   0  0  0  0  0  0  0  0  0  0  0  0
    3.7738   -2.1838   -0.4880 H   0  0  0  0  0  0  0  0  0  0  0  0
    2.5203   -1.5260   -1.7346 H   0  0  0  0  0  0  0  0  0  0  0  0
   -1.9342    0.8116   -1.3754 C   0  0  0  0  0  0  0  0  0  0  0  0
   -1.9342    0.8116    0.1421 C   0  0  0  0  0  3  0  0  0  0  0  0
   -1.9342    2.1148    0.6914 O   0  0  0  0  0  0  0  0  0  0  0  0
   -1.0781    1.3692   -1.7578 H   0  0  0  0  0  0  0  0  0  0  0  0
   -1.8857   -0.2090   -1.7607 H   0  0  0  0  0  0  0  0  0  0  0  0
   -2.8456    1.2718   -1.7666 H   0  0  0  0  0  0  0  0  0  0  0  0
   -0.8464    0.2408    0.5943 H   0  0  0  0  0  0  0  0  0  0  0  0
   -2.7863    0.2319    0.5193 H   0  0  0  0  0  0  0  0  0  0  0  0
   -2.7161    2.5748    0.3823 H   0  0  0  0  0  0  0  0  0  0  0  0
  1  2  1  0
  1  5  1  0
  1  6  1  0
  1 15  1  0
  2  3  1  0
  3  4  2  3
  4  7  1  0
  4  8  1  0
  9 10  1  0
  9 12  1  0
  9 13  1  0
  9 14  1  0
 10 11  1  0
 10 16  1  0
 11 17  1  0
M  RAD  1  10   2
M  END
>  <reaction>  (27) 
rmg_rxn_15690

>  <mol_properties>  (27) 
{"0": {"label": "*3", "atom_type": "Cs"}, "1": {"label": "*4", "atom_type": "O2s"}, "9": {"label": "*1", "atom_type": "Cs"}, "10": {"label": "*0", "atom_type": "O2s"}, "14": {"label": "*2", "atom_type": "H0"}}

>  <type>  (27) 
unop_23

>  <geom_source>  (27) 
Heuristics

$$$$

     RDKit          3D

 17 15  0  0  0  0  0  0  0  0999 V2000
    1.3725   -1.6565   -0.2974 C   0  0  0  0  0  0  0  0  0  0  0  0
    1.9607   -0.3811   -0.2679 O   0  0  0  0  0  0  0  0  0  0  0  0
    1.0630    0.5686    0.1909 N   0  0  0  0  0  0  0  0  0  0  0  0
    1.4877    1.7542    0.2648 C   0  0  0  0  0  0  0  0  0  0  0  0
    2.0562   -2.3321   -0.7655 H   0  0  0  0  0  0  0  0  0  0  0  0
    1.0333   -1.9960    0.6773 H   0  0  0  0  0  0  0  0  0  0  0  0
    0.7925    2.4927    0.6233 H   0  0  0  0  0  0  0  0  0  0  0  0
    2.4917    2.0586   -0.0086 H   0  0  0  0  0  0  0  0  0  0  0  0
   -2.1300    0.6087   -1.0624 C   0  0  0  0  0  0  0  0  0  0  0  0
   -2.3593   -0.3218    0.0667 C   0  0  0  0  0  3  0  0  0  0  0  0
   -1.4664   -0.4276    1.0911 O   0  0  0  0  0  0  0  0  0  0  0  0
   -1.0790    0.6042   -1.3537 H   0  0  0  0  0  0  0  0  0  0  0  0
   -2.7381    0.3179   -1.9168 H   0  0  0  0  0  0  0  0  0  0  0  0
   -2.3932    1.6461   -0.8104 H   0  0  0  0  0  0  0  0  0  0  0  0
    0.5946   -1.7605   -1.0632 H   0  0  0  0  0  0  0  0  0  0  0  0
   -3.3507   -0.6403    0.3352 H   0  0  0  0  0  0  0  0  0  0  0  0
   -0.6126   -0.0383    0.8143 H   0  0  0  0  0  0  0  0  0  0  0  0
  1  2  1  0
  1  5  1  0
  1  6  1  0
  1 15  1  0
  2  3  1  0
  3  4  2  3
  4  7  1  0
  4  8  1  0
  9 10  1  0
  9 12  1  0
  9 13  1  0
  9 14  1  0
 10 11  1  0
 10 16  1  0
 11 17  1  0
M  RAD  1  10   2
M  END
>  <reaction>  (28) 
rmg_rxn_15690

>  <mol_properties>  (28) 
{"0": {"label": "*3", "atom_type": "Cs"}, "1": {"label": "*4", "atom_type": "O2s"}, "9": {"label": "*1", "atom_type": "Cs"}, "10": {"label": "*0", "atom_type": "O2s"}, "14": {"label": "*2", "atom_type": "H0"}}

>  <type>  (28) 
unop_24

>  <geom_source>  (28) 
Heuristics

$$$$

     RDKit          3D

 17 13  0  0  0  0  0  0  0  0999 V2000
    1.6266    0.4462   -0.5536 O   0  0  0  0  0  0  0  0  0  0  0  0
   -2.3594    1.0824    1.2794 O   0  0  0  0  0  1  0  0  0  0  0  0
    2.9590    0.1242   -0.4309 N   0  0  0  0  0  0  0  0  0  0  0  0
   -2.6752   -1.0240    0.1993 C   0  0  0  0  0  3  0  0  0  0  0  0
    0.6326   -0.3843    0.0230 C   0  0  0  0  0  0  0  0  0  0  0  0
   -1.8346    0.2372    0.3004 C   0  0  0  0  0  1  0  0  0  0  0  0
    3.8672    0.8788   -0.9552 C   0  0  0  0  0  0  0  0  0  0  0  0
   -2.2562   -1.6856   -0.5872 H   0  0  0  0  0  0  0  0  0  0  0  0
   -3.7188   -0.7595   -0.0718 H   0  0  0  0  0  0  0  0  0  0  0  0
   -2.6717   -1.5645    1.1696 H   0  0  0  0  0  0  0  0  0  0  0  0
    0.6922   -1.4023   -0.4159 H   0  0  0  0  0  0  0  0  0  0  0  0
    0.7825   -0.4431    1.1215 H   0  0  0  0  0  0  0  0  0  0  0  0
   -0.5785    0.1335   -0.2289 H   0  0  0  0  0  0  0  0  0  0  0  0
   -0.7864   -0.0260    0.5585 H   0  0  0  0  0  0  0  0  0  0  0  0
    4.9109    0.6152   -0.8520 H   0  0  0  0  0  0  0  0  0  0  0  0
    3.5937    1.7748   -1.4981 H   0  0  0  0  0  0  0  0  0  0  0  0
   -2.1839    1.9971    0.9419 H   0  0  0  0  0  0  0  0  0  0  0  0
  1  5  1  0
  1  3  1  0
  2 17  1  0
  3  7  2  3
  4  8  1  0
  4  9  1  0
  4 10  1  0
  5 11  1  0
  5 12  1  0
  5 13  1  0
  6 14  1  0
  7 15  1  0
  7 16  1  0
M  RAD  3   2   2   4   2   6   2
M  END
>  <reaction>  (29) 
rmg_rxn_15690

>  <mol_properties>  (29) 
{"0": {"label": "*3", "atom_type": "Cs"}, "1": {"label": "*4", "atom_type": "O2s"}, "9": {"label": "*1", "atom_type": "Cs"}, "10": {"label": "*0", "atom_type": "O2s"}, "14": {"label": "*2", "atom_type": "H0"}}

>  <type>  (29) 
unop_25

>  <geom_source>  (29) 
AutoTST

$$$$

     RDKit          3D

 17 15  0  0  0  0  0  0  0  0999 V2000
    0.0768   -0.7910    0.9056 C   0  0  0  0  0  0  0  0  0  0  0  0
    1.0722   -0.5448   -0.0682 O   0  0  0  0  0  0  0  0  0  0  0  0
    2.3167   -0.7319    0.4841 N   0  0  0  0  0  0  0  0  0  0  0  0
    3.2421   -0.5228   -0.3505 C   0  0  0  0  0  0  0  0  0  0  0  0
    0.1303   -1.8203    1.2674 H   0  0  0  0  0  0  0  0  0  0  0  0
    0.1754   -0.1025    1.7478 H   0  0  0  0  0  0  0  0  0  0  0  0
    4.2552   -0.6494    0.0071 H   0  0  0  0  0  0  0  0  0  0  0  0
    3.0478   -0.2297   -1.3800 H   0  0  0  0  0  0  0  0  0  0  0  0
   -2.0965    0.3495   -1.5154 C   0  0  0  0  0  0  0  0  0  0  0  0
   -2.0965    0.3495    0.0021 C   0  0  0  0  0  3  0  0  0  0  0  0
   -2.0965    1.6527    0.5514 O   0  0  0  0  0  0  0  0  0  0  0  0
   -1.2405    0.9071   -1.8977 H   0  0  0  0  0  0  0  0  0  0  0  0
   -2.0481   -0.6711   -1.9007 H   0  0  0  0  0  0  0  0  0  0  0  0
   -3.0080    0.8097   -1.9066 H   0  0  0  0  0  0  0  0  0  0  0  0
   -1.0087   -0.2213    0.4543 H   0  0  0  0  0  0  0  0  0  0  0  0
   -2.9487   -0.2302    0.3794 H   0  0  0  0  0  0  0  0  0  0  0  0
   -2.8785    2.1127    0.2424 H   0  0  0  0  0  0  0  0  0  0  0  0
  1  2  1  0
  1  5  1  0
  1  6  1  0
  1 15  1  0
  2  3  1  0
  3  4  2  3
  4  7  1  0
  4  8  1  0
  9 10  1  0
  9 12  1  0
  9 13  1  0
  9 14  1  0
 10 11  1  0
 10 16  1  0
 11 17  1  0
M  RAD  1  10   2
M  END
>  <reaction>  (30) 
rmg_rxn_15690

>  <mol_properties>  (30) 
{"0": {"label": "*3", "atom_type": "Cs"}, "1": {"label": "*4", "atom_type": "O2s"}, "9": {"label": "*1", "atom_type": "Cs"}, "10": {"label": "*0", "atom_type": "O2s"}, "14": {"label": "*2", "atom_type": "H0"}}

>  <type>  (30) 
unop_26

>  <geom_source>  (30) 
gaussian_log

$$$$
