
     RDKit          3D

  5  4  0  0  0  0  0  0  0  0999 V2000
   -1.2140    0.4407   -0.1412 O   0  0  0  0  0  0  0  0  0  0  0  0
    0.1185    0.5703   -0.2937 N   0  0  0  0  0  0  0  0  0  0  0  0
    0.7309   -0.3922    0.1486 N   0  0  0  0  0  0  0  0  0  0  0  0
   -1.3561   -0.4179    0.2986 H   0  0  0  0  0  0  0  0  0  0  0  0
    1.7208   -0.2009   -0.0123 H   0  0  0  0  0  0  0  0  0  0  0  0
  1  2  1  0
  1  4  1  0
  2  3  2  3
  3  5  1  0
M  END
>  <reaction>  (1) 
rmg_rxn_15577

>  <mol_properties>  (1) 
{"0": {"label": "donator", "atom_type": "O2s"}, "3": {"label": "d_hydrogen", "atom_type": "H0"}}

>  <type>  (1) 
r1h

$$$$

     RDKit          3D

  8  7  0  0  0  0  0  0  0  0999 V2000
    1.7077   -0.1964   -0.0607 C   0  0  0  0  0  3  0  0  0  0  0  0
    0.4209   -0.4565    0.2808 O   0  0  0  0  0  0  0  0  0  0  0  0
   -0.4607    0.4385   -0.2968 N   0  0  0  0  0  0  0  0  0  0  0  0
   -1.6584    0.1416   -0.0244 C   0  0  0  0  0  0  0  0  0  0  0  0
    2.4163   -0.7685    0.5170 H   0  0  0  0  0  0  0  0  0  0  0  0
    1.9214    0.7645   -0.5045 H   0  0  0  0  0  0  0  0  0  0  0  0
   -2.4185    0.7953   -0.4307 H   0  0  0  0  0  0  0  0  0  0  0  0
   -1.9286   -0.7185    0.5831 H   0  0  0  0  0  0  0  0  0  0  0  0
  1  2  1  0
  1  5  1  0
  1  6  1  0
  2  3  1  0
  3  4  2  3
  4  7  1  0
  4  8  1  0
M  RAD  1   1   2
M  END
>  <reaction>  (2) 
rmg_rxn_15577

>  <mol_properties>  (2) 
{"0": {"label": "acceptor", "atom_type": "Cs"}}

>  <type>  (2) 
r2

$$$$

     RDKit          3D

  9  8  0  0  0  0  0  0  0  0999 V2000
   -1.5470   -0.0755   -0.1976 C   0  0  0  0  0  0  0  0  0  0  0  0
   -0.2885    0.4507    0.1749 O   0  0  0  0  0  0  0  0  0  0  0  0
   -0.1502    1.7216   -0.3294 N   0  0  0  0  0  0  0  0  0  0  0  0
    0.9626    2.2353   -0.0219 C   0  0  0  0  0  0  0  0  0  0  0  0
   -1.6392   -0.1356   -1.2844 H   0  0  0  0  0  0  0  0  0  0  0  0
   -2.3597    0.5337    0.2044 H   0  0  0  0  0  0  0  0  0  0  0  0
   -1.5879   -1.0750    0.2318 H   0  0  0  0  0  0  0  0  0  0  0  0
    1.1497    3.2381   -0.3820 H   0  0  0  0  0  0  0  0  0  0  0  0
    1.7060    1.7101    0.5739 H   0  0  0  0  0  0  0  0  0  0  0  0
  1  2  1  0
  1  5  1  0
  1  6  1  0
  1  7  1  0
  2  3  1  0
  3  4  2  3
  4  8  1  0
  4  9  1  0
M  END
>  <reaction>  (3) 
rmg_rxn_15577

>  <mol_properties>  (3) 
{"0": {"label": "a_hydrogen", "atom_type": "H0"}, "1": {"label": "acceptor", "atom_type": "Cs"}}

>  <type>  (3) 
r2h

$$$$

     RDKit          3D

 13 11  0  0  0  0  0  0  0  0999 V2000
   -0.3808   -1.5295    0.6634 O   0  0  0  0  0  0  0  0  0  0  0  0
    0.2190   -1.8682    1.7518 N   0  0  0  0  0  0  0  0  0  0  0  0
    1.1848   -1.1814    2.0955 N   0  0  0  0  0  0  0  0  0  0  0  0
    0.1697   -0.5471    0.1920 H   0  0  0  0  0  0  0  0  0  0  0  0
    1.5280   -1.5906    2.9645 H   0  0  0  0  0  0  0  0  0  0  0  0
    0.7382    0.5313   -0.3819 C   0  0  0  0  0  3  0  0  0  0  0  0
    0.1006    0.7662   -1.5696 O   0  0  0  0  0  0  0  0  0  0  0  0
   -1.0641    1.4973   -1.3790 N   0  0  0  0  0  0  0  0  0  0  0  0
   -1.7195    1.5922   -2.4538 C   0  0  0  0  0  0  0  0  0  0  0  0
    1.7603    0.2188   -0.5711 H   0  0  0  0  0  0  0  0  0  0  0  0
    0.6027    1.3132    0.3617 H   0  0  0  0  0  0  0  0  0  0  0  0
   -2.6394    2.1595   -2.4053 H   0  0  0  0  0  0  0  0  0  0  0  0
   -1.3934    1.1356   -3.3850 H   0  0  0  0  0  0  0  0  0  0  0  0
  1  2  1  0
  1  4  1  0
  2  3  2  3
  3  5  1  0
  6  7  1  0
  6 10  1  0
  6 11  1  0
  7  8  1  0
  8  9  2  3
  9 12  1  0
  9 13  1  0
M  RAD  1   6   2
M  END
>  <reaction>  (4) 
rmg_rxn_15577

>  <mol_properties>  (4) 
{"0": {"label": "*1", "atom_type": "O2s"}, "1": {"label": "*0", "atom_type": "N3d"}, "3": {"label": "*2", "atom_type": "H0"}, "5": {"label": "*3", "atom_type": "Cs"}, "6": {"label": "*4", "atom_type": "O2s"}}

>  <type>  (4) 
ts

$$$$

     RDKit          3D

 13 11  0  0  0  0  0  0  0  0999 V2000
    1.9047   -0.7249   -0.1588 O   0  0  0  0  0  1  0  0  0  0  0  0
    2.0736    0.5077   -0.0763 N   0  0  0  0  0  2  0  0  0  0  0  0
    1.3383    1.4253    0.1290 N   0  0  0  0  0  2  0  0  0  0  0  0
    0.7535   -1.2519    0.0339 H   0  0  0  0  0  0  0  0  0  0  0  0
    0.3165    1.2314    0.2775 H   0  0  0  0  0  0  0  0  0  0  0  0
   -0.3954   -1.6949    0.2885 C   0  0  0  0  0  0  0  0  0  0  0  0
   -1.3759   -0.8651   -0.2727 O   0  0  0  0  0  0  0  0  0  0  0  0
   -1.3238    0.4256    0.1928 N   0  0  0  0  0  2  0  0  0  0  0  0
   -2.2977    1.1792   -0.0914 C   0  0  0  0  0  3  0  0  0  0  0  0
   -0.4815   -1.7656    1.3736 H   0  0  0  0  0  0  0  0  0  0  0  0
   -0.5012   -2.6589   -0.1966 H   0  0  0  0  0  0  0  0  0  0  0  0
   -2.2341    2.1999    0.2422 H   0  0  0  0  0  0  0  0  0  0  0  0
   -3.1715    0.8517   -0.6429 H   0  0  0  0  0  0  0  0  0  0  0  0
  1  2  1  0
  2  3  1  0
  3  5  1  0
  4  6  1  0
  6  7  1  0
  6 10  1  0
  6 11  1  0
  7  8  1  0
  8  9  1  0
  9 12  1  0
  9 13  1  0
M  RAD  5   1   2   2   2   3   2   8   2   9   2
M  END
>  <reaction>  (5) 
rmg_rxn_15577

>  <mol_properties>  (5) 
{"0": {"label": "*1", "atom_type": "O2s"}, "1": {"label": "*0", "atom_type": "N3d"}, "3": {"label": "*2", "atom_type": "H0"}, "5": {"label": "*3", "atom_type": "Cs"}, "6": {"label": "*4", "atom_type": "O2s"}}

>  <type>  (5) 
unop_1

>  <geom_source>  (5) 
crest_best.xyz

$$$$

     RDKit          3D

 13 11  0  0  0  0  0  0  0  0999 V2000
    0.5669   -1.2924    1.4554 O   0  0  0  0  0  0  0  0  0  0  0  0
    0.5669   -2.5395    0.9454 N   0  0  0  0  0  0  0  0  0  0  0  0
    0.5669   -2.5395   -0.2781 N   0  0  0  0  0  0  0  0  0  0  0  0
    0.5669   -0.5641    0.5395 H   0  0  0  0  0  0  0  0  0  0  0  0
    0.5669   -3.5194   -0.5649 H   0  0  0  0  0  0  0  0  0  0  0  0
    0.5669    0.2490   -0.4830 C   0  0  0  0  0  3  0  0  0  0  0  0
   -0.6119    1.0203   -0.3595 O   0  0  0  0  0  0  0  0  0  0  0  0
   -0.3621    2.3138   -0.7510 N   0  0  0  0  0  0  0  0  0  0  0  0
   -1.3891    3.0440   -0.6580 C   0  0  0  0  0  0  0  0  0  0  0  0
    0.9105    0.2238   -1.5196 H   0  0  0  0  0  0  0  0  0  0  0  0
    1.3607    0.6437    0.1551 H   0  0  0  0  0  0  0  0  0  0  0  0
   -1.2754    4.0799   -0.9484 H   0  0  0  0  0  0  0  0  0  0  0  0
   -2.3468    2.6666   -0.3059 H   0  0  0  0  0  0  0  0  0  0  0  0
  1  2  1  0
  1  4  1  0
  2  3  2  3
  3  5  1  0
  6  7  1  0
  6 10  1  0
  6 11  1  0
  7  8  1  0
  8  9  2  3
  9 12  1  0
  9 13  1  0
M  RAD  1   6   2
M  END
>  <reaction>  (6) 
rmg_rxn_15577

>  <mol_properties>  (6) 
{"0": {"label": "*1", "atom_type": "O2s"}, "1": {"label": "*0", "atom_type": "N3d"}, "3": {"label": "*2", "atom_type": "H0"}, "5": {"label": "*3", "atom_type": "Cs"}, "6": {"label": "*4", "atom_type": "O2s"}}

>  <type>  (6) 
unop_2

>  <geom_source>  (6) 
Heuristics

$$$$

     RDKit          3D

 13 11  0  0  0  0  0  0  0  0999 V2000
    0.4847   -0.3932    2.2408 O   0  0  0  0  0  0  0  0  0  0  0  0
    0.4847   -1.6404    1.7308 N   0  0  0  0  0  0  0  0  0  0  0  0
    0.4847   -1.6404    0.5073 N   0  0  0  0  0  0  0  0  0  0  0  0
    0.4847    0.3350    1.3249 H   0  0  0  0  0  0  0  0  0  0  0  0
    0.4847   -2.6203    0.2205 H   0  0  0  0  0  0  0  0  0  0  0  0
    0.4847    1.1481    0.3024 C   0  0  0  0  0  3  0  0  0  0  0  0
   -0.1958    0.4641   -0.7313 O   0  0  0  0  0  0  0  0  0  0  0  0
   -0.6084    1.3614   -1.6870 N   0  0  0  0  0  0  0  0  0  0  0  0
   -1.2236    0.7955   -2.6346 C   0  0  0  0  0  0  0  0  0  0  0  0
    1.3713    1.6566   -0.0832 H   0  0  0  0  0  0  0  0  0  0  0  0
   -0.1707    1.8749    0.7875 H   0  0  0  0  0  0  0  0  0  0  0  0
   -1.5823    1.4349   -3.4301 H   0  0  0  0  0  0  0  0  0  0  0  0
   -1.3928   -0.2787   -2.6649 H   0  0  0  0  0  0  0  0  0  0  0  0
  1  2  1  0
  1  4  1  0
  2  3  2  3
  3  5  1  0
  6  7  1  0
  6 10  1  0
  6 11  1  0
  7  8  1  0
  8  9  2  3
  9 12  1  0
  9 13  1  0
M  RAD  1   6   2
M  END
>  <reaction>  (7) 
rmg_rxn_15577

>  <mol_properties>  (7) 
{"0": {"label": "*1", "atom_type": "O2s"}, "1": {"label": "*0", "atom_type": "N3d"}, "3": {"label": "*2", "atom_type": "H0"}, "5": {"label": "*3", "atom_type": "Cs"}, "6": {"label": "*4", "atom_type": "O2s"}}

>  <type>  (7) 
unop_3

>  <geom_source>  (7) 
Heuristics

$$$$

     RDKit          3D

 13 11  0  0  0  0  0  0  0  0999 V2000
    0.2474   -1.4444    1.3825 O   0  0  0  0  0  0  0  0  0  0  0  0
    0.2474   -2.6916    0.8726 N   0  0  0  0  0  0  0  0  0  0  0  0
    0.2474   -2.6916   -0.3510 N   0  0  0  0  0  0  0  0  0  0  0  0
    0.2474   -0.7161    0.4666 H   0  0  0  0  0  0  0  0  0  0  0  0
    0.2474   -3.6715   -0.6378 H   0  0  0  0  0  0  0  0  0  0  0  0
    0.2474    0.0969   -0.5559 C   0  0  0  0  0  3  0  0  0  0  0  0
   -0.4332    1.2581   -0.1223 O   0  0  0  0  0  0  0  0  0  0  0  0
   -0.0063    2.3436   -0.8491 N   0  0  0  0  0  0  0  0  0  0  0  0
   -0.5880    3.4087   -0.4967 C   0  0  0  0  0  0  0  0  0  0  0  0
    0.0428   -0.1053   -1.6097 H   0  0  0  0  0  0  0  0  0  0  0  0
    1.3247    0.1965   -0.4058 H   0  0  0  0  0  0  0  0  0  0  0  0
   -0.3069    4.3114   -1.0225 H   0  0  0  0  0  0  0  0  0  0  0  0
   -1.3357    3.4344    0.2931 H   0  0  0  0  0  0  0  0  0  0  0  0
  1  2  1  0
  1  4  1  0
  2  3  2  3
  3  5  1  0
  6  7  1  0
  6 10  1  0
  6 11  1  0
  7  8  1  0
  8  9  2  3
  9 12  1  0
  9 13  1  0
M  RAD  1   6   2
M  END
>  <reaction>  (8) 
rmg_rxn_15577

>  <mol_properties>  (8) 
{"0": {"label": "*1", "atom_type": "O2s"}, "1": {"label": "*0", "atom_type": "N3d"}, "3": {"label": "*2", "atom_type": "H0"}, "5": {"label": "*3", "atom_type": "Cs"}, "6": {"label": "*4", "atom_type": "O2s"}}

>  <type>  (8) 
unop_4

>  <geom_source>  (8) 
Heuristics

$$$$

     RDKit          3D

 13 11  0  0  0  0  0  0  0  0999 V2000
   -0.7703   -0.6732    1.9736 O   0  0  0  0  0  0  0  0  0  0  0  0
   -0.7703   -1.9204    1.4637 N   0  0  0  0  0  0  0  0  0  0  0  0
   -0.7703   -1.9204    0.2401 N   0  0  0  0  0  0  0  0  0  0  0  0
   -0.7703    0.0550    1.0577 H   0  0  0  0  0  0  0  0  0  0  0  0
   -0.7703   -2.9003   -0.0467 H   0  0  0  0  0  0  0  0  0  0  0  0
   -0.7703    0.8681    0.0352 C   0  0  0  0  0  3  0  0  0  0  0  0
    0.4084    0.5740   -0.6884 O   0  0  0  0  0  0  0  0  0  0  0  0
    0.8781    1.7157   -1.2923 N   0  0  0  0  0  0  0  0  0  0  0  0
    1.9339    1.5026   -1.9531 C   0  0  0  0  0  0  0  0  0  0  0  0
   -0.5746    1.6040    0.8184 H   0  0  0  0  0  0  0  0  0  0  0  0
   -1.5535    1.2411   -0.6286 H   0  0  0  0  0  0  0  0  0  0  0  0
    2.3684    2.3536   -2.4604 H   0  0  0  0  0  0  0  0  0  0  0  0
    2.3957    0.5199   -2.0192 H   0  0  0  0  0  0  0  0  0  0  0  0
  1  2  1  0
  1  4  1  0
  2  3  2  3
  3  5  1  0
  6  7  1  0
  6 10  1  0
  6 11  1  0
  7  8  1  0
  8  9  2  3
  9 12  1  0
  9 13  1  0
M  RAD  1   6   2
M  END
>  <reaction>  (9) 
rmg_rxn_15577

>  <mol_properties>  (9) 
{"0": {"label": "*1", "atom_type": "O2s"}, "1": {"label": "*0", "atom_type": "N3d"}, "3": {"label": "*2", "atom_type": "H0"}, "5": {"label": "*3", "atom_type": "Cs"}, "6": {"label": "*4", "atom_type": "O2s"}}

>  <type>  (9) 
unop_5

>  <geom_source>  (9) 
Heuristics

$$$$

     RDKit          3D

 13 11  0  0  0  0  0  0  0  0999 V2000
    0.0000   -1.4770    1.4024 O   0  0  0  0  0  0  0  0  0  0  0  0
    0.0000   -2.7242    0.8924 N   0  0  0  0  0  0  0  0  0  0  0  0
    0.0000   -2.7242   -0.3311 N   0  0  0  0  0  0  0  0  0  0  0  0
    0.0000   -0.7487    0.4865 H   0  0  0  0  0  0  0  0  0  0  0  0
    0.0000   -3.7040   -0.6180 H   0  0  0  0  0  0  0  0  0  0  0  0
    0.0000    0.0644   -0.5360 C   0  0  0  0  0  3  0  0  0  0  0  0
    0.0000    1.3683    0.0110 O   0  0  0  0  0  0  0  0  0  0  0  0
   -0.0000    2.2960   -1.0030 N   0  0  0  0  0  0  0  0  0  0  0  0
   -0.0000    3.4802   -0.5623 C   0  0  0  0  0  0  0  0  0  0  0  0
   -0.8921   -0.1046   -1.1433 H   0  0  0  0  0  0  0  0  0  0  0  0
    0.8921   -0.1046   -1.1433 H   0  0  0  0  0  0  0  0  0  0  0  0
   -0.0000    4.2719   -1.2995 H   0  0  0  0  0  0  0  0  0  0  0  0
    0.0000    3.7099    0.5011 H   0  0  0  0  0  0  0  0  0  0  0  0
  1  2  1  0
  1  4  1  0
  2  3  2  3
  3  5  1  0
  6  7  1  0
  6 10  1  0
  6 11  1  0
  7  8  1  0
  8  9  2  3
  9 12  1  0
  9 13  1  0
M  RAD  1   6   2
M  END
>  <reaction>  (10) 
rmg_rxn_15577

>  <mol_properties>  (10) 
{"0": {"label": "*1", "atom_type": "O2s"}, "1": {"label": "*0", "atom_type": "N3d"}, "3": {"label": "*2", "atom_type": "H0"}, "5": {"label": "*3", "atom_type": "Cs"}, "6": {"label": "*4", "atom_type": "O2s"}}

>  <type>  (10) 
unop_6

>  <geom_source>  (10) 
Heuristics

$$$$

     RDKit          3D

 13 11  0  0  0  0  0  0  0  0999 V2000
   -0.7846   -1.0104    1.6756 O   0  0  0  0  0  0  0  0  0  0  0  0
   -0.7846   -2.2576    1.1656 N   0  0  0  0  0  0  0  0  0  0  0  0
   -0.7846   -2.2576   -0.0579 N   0  0  0  0  0  0  0  0  0  0  0  0
   -0.7846   -0.2821    0.7597 H   0  0  0  0  0  0  0  0  0  0  0  0
   -0.7846   -3.2374   -0.3448 H   0  0  0  0  0  0  0  0  0  0  0  0
   -0.7846    0.5309   -0.2628 C   0  0  0  0  0  3  0  0  0  0  0  0
    0.5765    0.7695   -0.5629 O   0  0  0  0  0  0  0  0  0  0  0  0
    0.7478    2.0848   -0.9229 N   0  0  0  0  0  0  0  0  0  0  0  0
    1.9521    2.3473   -1.2013 C   0  0  0  0  0  0  0  0  0  0  0  0
   -1.1150    1.1517    0.5730 H   0  0  0  0  0  0  0  0  0  0  0  0
   -1.4161    0.7240   -1.1329 H   0  0  0  0  0  0  0  0  0  0  0  0
    2.1710    3.3651   -1.4951 H   0  0  0  0  0  0  0  0  0  0  0  0
    2.7411    1.5999   -1.1532 H   0  0  0  0  0  0  0  0  0  0  0  0
  1  2  1  0
  1  4  1  0
  2  3  2  3
  3  5  1  0
  6  7  1  0
  6 10  1  0
  6 11  1  0
  7  8  1  0
  8  9  2  3
  9 12  1  0
  9 13  1  0
M  RAD  1   6   2
M  END
>  <reaction>  (11) 
rmg_rxn_15577

>  <mol_properties>  (11) 
{"0": {"label": "*1", "atom_type": "O2s"}, "1": {"label": "*0", "atom_type": "N3d"}, "3": {"label": "*2", "atom_type": "H0"}, "5": {"label": "*3", "atom_type": "Cs"}, "6": {"label": "*4", "atom_type": "O2s"}}

>  <type>  (11) 
unop_7

>  <geom_source>  (11) 
Heuristics

$$$$

     RDKit          3D

 13 11  0  0  0  0  0  0  0  0999 V2000
    1.9047   -0.7248    0.1591 O   0  0  0  0  0  1  0  0  0  0  0  0
    2.0735    0.5078    0.0763 N   0  0  0  0  0  2  0  0  0  0  0  0
    1.3382    1.4253   -0.1293 N   0  0  0  0  0  2  0  0  0  0  0  0
    0.7535   -1.2519   -0.0340 H   0  0  0  0  0  0  0  0  0  0  0  0
    0.3164    1.2312   -0.2778 H   0  0  0  0  0  0  0  0  0  0  0  0
   -0.3954   -1.6948   -0.2886 C   0  0  0  0  0  0  0  0  0  0  0  0
   -1.3758   -0.8652    0.2726 O   0  0  0  0  0  0  0  0  0  0  0  0
   -1.3239    0.4255   -0.1929 N   0  0  0  0  0  2  0  0  0  0  0  0
   -2.2977    1.1792    0.0916 C   0  0  0  0  0  3  0  0  0  0  0  0
   -0.5011   -2.6590    0.1963 H   0  0  0  0  0  0  0  0  0  0  0  0
   -0.4813   -1.7653   -1.3737 H   0  0  0  0  0  0  0  0  0  0  0  0
   -2.2341    2.1999   -0.2419 H   0  0  0  0  0  0  0  0  0  0  0  0
   -3.1713    0.8517    0.6433 H   0  0  0  0  0  0  0  0  0  0  0  0
  1  2  1  0
  2  3  1  0
  3  5  1  0
  4  6  1  0
  6  7  1  0
  6 10  1  0
  6 11  1  0
  7  8  1  0
  8  9  1  0
  9 12  1  0
  9 13  1  0
M  RAD  5   1   2   2   2   3   2   8   2   9   2
M  END
>  <reaction>  (12) 
rmg_rxn_15577

>  <mol_properties>  (12) 
{"0": {"label": "*1", "atom_type": "O2s"}, "1": {"label": "*0", "atom_type": "N3d"}, "3": {"label": "*2", "atom_type": "H0"}, "5": {"label": "*3", "atom_type": "Cs"}, "6": {"label": "*4", "atom_type": "O2s"}}

>  <type>  (12) 
unop_8

>  <geom_source>  (12) 
Heuristics

$$$$

     RDKit          3D

 13 11  0  0  0  0  0  0  0  0999 V2000
   -0.5669   -1.2924    1.4554 O   0  0  0  0  0  0  0  0  0  0  0  0
   -0.5669   -2.5395    0.9454 N   0  0  0  0  0  0  0  0  0  0  0  0
   -0.5669   -2.5395   -0.2781 N   0  0  0  0  0  0  0  0  0  0  0  0
   -0.5669   -0.5641    0.5395 H   0  0  0  0  0  0  0  0  0  0  0  0
   -0.5669   -3.5194   -0.5649 H   0  0  0  0  0  0  0  0  0  0  0  0
   -0.5669    0.2490   -0.4830 C   0  0  0  0  0  3  0  0  0  0  0  0
    0.6119    1.0203   -0.3595 O   0  0  0  0  0  0  0  0  0  0  0  0
    0.3621    2.3138   -0.7510 N   0  0  0  0  0  0  0  0  0  0  0  0
    1.3891    3.0440   -0.6580 C   0  0  0  0  0  0  0  0  0  0  0  0
   -1.3607    0.6437    0.1551 H   0  0  0  0  0  0  0  0  0  0  0  0
   -0.9105    0.2238   -1.5196 H   0  0  0  0  0  0  0  0  0  0  0  0
    1.2754    4.0799   -0.9483 H   0  0  0  0  0  0  0  0  0  0  0  0
    2.3468    2.6666   -0.3059 H   0  0  0  0  0  0  0  0  0  0  0  0
  1  2  1  0
  1  4  1  0
  2  3  2  3
  3  5  1  0
  6  7  1  0
  6 10  1  0
  6 11  1  0
  7  8  1  0
  8  9  2  3
  9 12  1  0
  9 13  1  0
M  RAD  1   6   2
M  END
>  <reaction>  (13) 
rmg_rxn_15577

>  <mol_properties>  (13) 
{"0": {"label": "*1", "atom_type": "O2s"}, "1": {"label": "*0", "atom_type": "N3d"}, "3": {"label": "*2", "atom_type": "H0"}, "5": {"label": "*3", "atom_type": "Cs"}, "6": {"label": "*4", "atom_type": "O2s"}}

>  <type>  (13) 
unop_9

>  <geom_source>  (13) 
Heuristics

$$$$

     RDKit          3D

 13 11  0  0  0  0  0  0  0  0999 V2000
    0.7846   -1.0104    1.6756 O   0  0  0  0  0  0  0  0  0  0  0  0
    0.7846   -2.2576    1.1656 N   0  0  0  0  0  0  0  0  0  0  0  0
    0.7846   -2.2576   -0.0579 N   0  0  0  0  0  0  0  0  0  0  0  0
    0.7846   -0.2821    0.7597 H   0  0  0  0  0  0  0  0  0  0  0  0
    0.7846   -3.2374   -0.3447 H   0  0  0  0  0  0  0  0  0  0  0  0
    0.7846    0.5309   -0.2628 C   0  0  0  0  0  3  0  0  0  0  0  0
   -0.5765    0.7695   -0.5629 O   0  0  0  0  0  0  0  0  0  0  0  0
   -0.7478    2.0848   -0.9229 N   0  0  0  0  0  0  0  0  0  0  0  0
   -1.9521    2.3473   -1.2013 C   0  0  0  0  0  0  0  0  0  0  0  0
    1.4161    0.7240   -1.1329 H   0  0  0  0  0  0  0  0  0  0  0  0
    1.1150    1.1517    0.5730 H   0  0  0  0  0  0  0  0  0  0  0  0
   -2.1710    3.3651   -1.4952 H   0  0  0  0  0  0  0  0  0  0  0  0
   -2.7411    1.5999   -1.1531 H   0  0  0  0  0  0  0  0  0  0  0  0
  1  2  1  0
  1  4  1  0
  2  3  2  3
  3  5  1  0
  6  7  1  0
  6 10  1  0
  6 11  1  0
  7  8  1  0
  8  9  2  3
  9 12  1  0
  9 13  1  0
M  RAD  1   6   2
M  END
>  <reaction>  (14) 
rmg_rxn_15577

>  <mol_properties>  (14) 
{"0": {"label": "*1", "atom_type": "O2s"}, "1": {"label": "*0", "atom_type": "N3d"}, "3": {"label": "*2", "atom_type": "H0"}, "5": {"label": "*3", "atom_type": "Cs"}, "6": {"label": "*4", "atom_type": "O2s"}}

>  <type>  (14) 
unop_10

>  <geom_source>  (14) 
Heuristics

$$$$

     RDKit          3D

 13 11  0  0  0  0  0  0  0  0999 V2000
    1.9047   -0.7249   -0.1588 O   0  0  0  0  0  1  0  0  0  0  0  0
    2.0736    0.5077   -0.0763 N   0  0  0  0  0  2  0  0  0  0  0  0
    1.3383    1.4253    0.1290 N   0  0  0  0  0  2  0  0  0  0  0  0
    0.7535   -1.2519    0.0339 H   0  0  0  0  0  0  0  0  0  0  0  0
    0.3165    1.2314    0.2775 H   0  0  0  0  0  0  0  0  0  0  0  0
   -0.3954   -1.6949    0.2885 C   0  0  0  0  0  0  0  0  0  0  0  0
   -1.3759   -0.8651   -0.2727 O   0  0  0  0  0  0  0  0  0  0  0  0
   -1.3238    0.4256    0.1928 N   0  0  0  0  0  2  0  0  0  0  0  0
   -2.2977    1.1792   -0.0914 C   0  0  0  0  0  3  0  0  0  0  0  0
   -0.4815   -1.7656    1.3736 H   0  0  0  0  0  0  0  0  0  0  0  0
   -0.5012   -2.6589   -0.1966 H   0  0  0  0  0  0  0  0  0  0  0  0
   -2.2341    2.1999    0.2422 H   0  0  0  0  0  0  0  0  0  0  0  0
   -3.1715    0.8517   -0.6429 H   0  0  0  0  0  0  0  0  0  0  0  0
  1  2  1  0
  2  3  1  0
  3  5  1  0
  4  6  1  0
  6  7  1  0
  6 10  1  0
  6 11  1  0
  7  8  1  0
  8  9  1  0
  9 12  1  0
  9 13  1  0
M  RAD  5   1   2   2   2   3   2   8   2   9   2
M  END
>  <reaction>  (15) 
rmg_rxn_15577

>  <mol_properties>  (15) 
{"0": {"label": "*1", "atom_type": "O2s"}, "1": {"label": "*0", "atom_type": "N3d"}, "3": {"label": "*2", "atom_type": "H0"}, "5": {"label": "*3", "atom_type": "Cs"}, "6": {"label": "*4", "atom_type": "O2s"}}

>  <type>  (15) 
unop_11

>  <geom_source>  (15) 
Heuristics

$$$$

     RDKit          3D

 13 11  0  0  0  0  0  0  0  0999 V2000
   -0.4848   -0.3932    2.2408 O   0  0  0  0  0  0  0  0  0  0  0  0
   -0.4848   -1.6404    1.7308 N   0  0  0  0  0  0  0  0  0  0  0  0
   -0.4848   -1.6404    0.5073 N   0  0  0  0  0  0  0  0  0  0  0  0
   -0.4848    0.3350    1.3249 H   0  0  0  0  0  0  0  0  0  0  0  0
   -0.4848   -2.6203    0.2205 H   0  0  0  0  0  0  0  0  0  0  0  0
   -0.4848    1.1481    0.3024 C   0  0  0  0  0  3  0  0  0  0  0  0
    0.1958    0.4641   -0.7313 O   0  0  0  0  0  0  0  0  0  0  0  0
    0.6084    1.3614   -1.6870 N   0  0  0  0  0  0  0  0  0  0  0  0
    1.2236    0.7955   -2.6346 C   0  0  0  0  0  0  0  0  0  0  0  0
    0.1707    1.8749    0.7875 H   0  0  0  0  0  0  0  0  0  0  0  0
   -1.3713    1.6565   -0.0833 H   0  0  0  0  0  0  0  0  0  0  0  0
    1.5823    1.4349   -3.4301 H   0  0  0  0  0  0  0  0  0  0  0  0
    1.3928   -0.2787   -2.6649 H   0  0  0  0  0  0  0  0  0  0  0  0
  1  2  1  0
  1  4  1  0
  2  3  2  3
  3  5  1  0
  6  7  1  0
  6 10  1  0
  6 11  1  0
  7  8  1  0
  8  9  2  3
  9 12  1  0
  9 13  1  0
M  RAD  1   6   2
M  END
>  <reaction>  (16) 
rmg_rxn_15577

>  <mol_properties>  (16) 
{"0": {"label": "*1", "atom_type": "O2s"}, "1": {"label": "*0", "atom_type": "N3d"}, "3": {"label": "*2", "atom_type": "H0"}, "5": {"label": "*3", "atom_type": "Cs"}, "6": {"label": "*4", "atom_type": "O2s"}}

>  <type>  (16) 
unop_12

>  <geom_source>  (16) 
Heuristics

$$$$

     RDKit          3D

 13 11  0  0  0  0  0  0  0  0999 V2000
    0.7703   -0.6732    1.9737 O   0  0  0  0  0  0  0  0  0  0  0  0
    0.7703   -1.9204    1.4637 N   0  0  0  0  0  0  0  0  0  0  0  0
    0.7703   -1.9204    0.2401 N   0  0  0  0  0  0  0  0  0  0  0  0
    0.7703    0.0550    1.0578 H   0  0  0  0  0  0  0  0  0  0  0  0
    0.7703   -2.9003   -0.0467 H   0  0  0  0  0  0  0  0  0  0  0  0
    0.7703    0.8681    0.0352 C   0  0  0  0  0  3  0  0  0  0  0  0
   -0.4084    0.5740   -0.6884 O   0  0  0  0  0  0  0  0  0  0  0  0
   -0.8781    1.7157   -1.2924 N   0  0  0  0  0  0  0  0  0  0  0  0
   -1.9339    1.5026   -1.9531 C   0  0  0  0  0  0  0  0  0  0  0  0
    1.5535    1.2411   -0.6286 H   0  0  0  0  0  0  0  0  0  0  0  0
    0.5746    1.6040    0.8184 H   0  0  0  0  0  0  0  0  0  0  0  0
   -2.3683    2.3536   -2.4604 H   0  0  0  0  0  0  0  0  0  0  0  0
   -2.3958    0.5199   -2.0191 H   0  0  0  0  0  0  0  0  0  0  0  0
  1  2  1  0
  1  4  1  0
  2  3  2  3
  3  5  1  0
  6  7  1  0
  6 10  1  0
  6 11  1  0
  7  8  1  0
  8  9  2  3
  9 12  1  0
  9 13  1  0
M  RAD  1   6   2
M  END
>  <reaction>  (17) 
rmg_rxn_15577

>  <mol_properties>  (17) 
{"0": {"label": "*1", "atom_type": "O2s"}, "1": {"label": "*0", "atom_type": "N3d"}, "3": {"label": "*2", "atom_type": "H0"}, "5": {"label": "*3", "atom_type": "Cs"}, "6": {"label": "*4", "atom_type": "O2s"}}

>  <type>  (17) 
unop_13

>  <geom_source>  (17) 
Heuristics

$$$$

     RDKit          3D

 13 11  0  0  0  0  0  0  0  0999 V2000
   -0.2473   -1.4444    1.3825 O   0  0  0  0  0  0  0  0  0  0  0  0
   -0.2473   -2.6916    0.8725 N   0  0  0  0  0  0  0  0  0  0  0  0
   -0.2473   -2.6916   -0.3510 N   0  0  0  0  0  0  0  0  0  0  0  0
   -0.2473   -0.7161    0.4666 H   0  0  0  0  0  0  0  0  0  0  0  0
   -0.2473   -3.6715   -0.6378 H   0  0  0  0  0  0  0  0  0  0  0  0
   -0.2473    0.0969   -0.5559 C   0  0  0  0  0  3  0  0  0  0  0  0
    0.4332    1.2581   -0.1223 O   0  0  0  0  0  0  0  0  0  0  0  0
    0.0063    2.3436   -0.8491 N   0  0  0  0  0  0  0  0  0  0  0  0
    0.5880    3.4087   -0.4967 C   0  0  0  0  0  0  0  0  0  0  0  0
   -1.3247    0.1965   -0.4059 H   0  0  0  0  0  0  0  0  0  0  0  0
   -0.0428   -0.1053   -1.6097 H   0  0  0  0  0  0  0  0  0  0  0  0
    0.3068    4.3114   -1.0224 H   0  0  0  0  0  0  0  0  0  0  0  0
    1.3357    3.4344    0.2930 H   0  0  0  0  0  0  0  0  0  0  0  0
  1  2  1  0
  1  4  1  0
  2  3  2  3
  3  5  1  0
  6  7  1  0
  6 10  1  0
  6 11  1  0
  7  8  1  0
  8  9  2  3
  9 12  1  0
  9 13  1  0
M  RAD  1   6   2
M  END
>  <reaction>  (18) 
rmg_rxn_15577

>  <mol_properties>  (18) 
{"0": {"label": "*1", "atom_type": "O2s"}, "1": {"label": "*0", "atom_type": "N3d"}, "3": {"label": "*2", "atom_type": "H0"}, "5": {"label": "*3", "atom_type": "Cs"}, "6": {"label": "*4", "atom_type": "O2s"}}

>  <type>  (18) 
unop_14

>  <geom_source>  (18) 
Heuristics

$$$$

     RDKit          3D

 13 11  0  0  0  0  0  0  0  0999 V2000
   -0.0000   -0.2826    2.3521 O   0  0  0  0  0  0  0  0  0  0  0  0
   -0.0000   -1.5297    1.8421 N   0  0  0  0  0  0  0  0  0  0  0  0
   -0.0000   -1.5297    0.6186 N   0  0  0  0  0  0  0  0  0  0  0  0
   -0.0000    0.4457    1.4362 H   0  0  0  0  0  0  0  0  0  0  0  0
   -0.0000   -2.5096    0.3318 H   0  0  0  0  0  0  0  0  0  0  0  0
   -0.0000    1.2588    0.4137 C   0  0  0  0  0  3  0  0  0  0  0  0
   -0.0000    0.4320   -0.7335 O   0  0  0  0  0  0  0  0  0  0  0  0
    0.0000    1.2110   -1.8657 N   0  0  0  0  0  0  0  0  0  0  0  0
    0.0000    0.5148   -2.9203 C   0  0  0  0  0  0  0  0  0  0  0  0
    0.8921    1.8884    0.4415 H   0  0  0  0  0  0  0  0  0  0  0  0
   -0.8921    1.8884    0.4415 H   0  0  0  0  0  0  0  0  0  0  0  0
    0.0000    1.0547   -3.8577 H   0  0  0  0  0  0  0  0  0  0  0  0
   -0.0000   -0.5730   -2.9045 H   0  0  0  0  0  0  0  0  0  0  0  0
  1  2  1  0
  1  4  1  0
  2  3  2  3
  3  5  1  0
  6  7  1  0
  6 10  1  0
  6 11  1  0
  7  8  1  0
  8  9  2  3
  9 12  1  0
  9 13  1  0
M  RAD  1   6   2
M  END
>  <reaction>  (19) 
rmg_rxn_15577

>  <mol_properties>  (19) 
{"0": {"label": "*1", "atom_type": "O2s"}, "1": {"label": "*0", "atom_type": "N3d"}, "3": {"label": "*2", "atom_type": "H0"}, "5": {"label": "*3", "atom_type": "Cs"}, "6": {"label": "*4", "atom_type": "O2s"}}

>  <type>  (19) 
unop_15

>  <geom_source>  (19) 
Heuristics

$$$$

     RDKit          3D

 13 11  0  0  0  0  0  0  0  0999 V2000
    1.2199   -0.6865    0.4184 O   0  0  0  0  0  0  0  0  0  0  0  0
   -2.0856   -0.3788   -0.4386 O   0  0  0  0  0  1  0  0  0  0  0  0
    1.9275    0.1227   -0.4407 N   0  0  0  0  0  2  0  0  0  0  0  0
   -3.0707    0.5790   -0.4138 N   0  0  0  0  0  2  0  0  0  0  0  0
   -3.1513    1.3810    0.5662 N   0  0  0  0  0  2  0  0  0  0  0  0
    0.0480   -1.3490   -0.0251 C   0  0  0  0  0  0  0  0  0  0  0  0
    2.9961    0.7286   -0.0407 C   0  0  0  0  0  3  0  0  0  0  0  0
    0.2976   -2.0343   -0.8622 H   0  0  0  0  0  0  0  0  0  0  0  0
   -0.3804   -1.9372    0.8121 H   0  0  0  0  0  0  0  0  0  0  0  0
   -0.7957   -0.5042   -0.4107 H   0  0  0  0  0  0  0  0  0  0  0  0
    3.3503    0.6086    0.9755 H   0  0  0  0  0  0  0  0  0  0  0  0
    3.5435    1.3618   -0.7253 H   0  0  0  0  0  0  0  0  0  0  0  0
   -3.8993    2.1082    0.5850 H   0  0  0  0  0  0  0  0  0  0  0  0
  1  3  1  0
  1  6  1  0
  2  4  1  0
  3  7  1  0
  4  5  1  0
  5 13  1  0
  6  8  1  0
  6 10  1  0
  6  9  1  0
  7 11  1  0
  7 12  1  0
M  RAD  5   2   2   3   2   4   2   5   2   7   2
M  END
>  <reaction>  (20) 
rmg_rxn_15577

>  <mol_properties>  (20) 
{"0": {"label": "*1", "atom_type": "O2s"}, "1": {"label": "*0", "atom_type": "N3d"}, "3": {"label": "*2", "atom_type": "H0"}, "5": {"label": "*3", "atom_type": "Cs"}, "6": {"label": "*4", "atom_type": "O2s"}}

>  <type>  (20) 
unop_16

>  <geom_source>  (20) 
AutoTST

$$$$

     RDKit          3D

 13 11  0  0  0  0  0  0  0  0999 V2000
    0.4847   -0.3932    2.2408 O   0  0  0  0  0  0  0  0  0  0  0  0
    0.4847   -1.6404    1.7308 N   0  0  0  0  0  0  0  0  0  0  0  0
    0.4847   -1.6404    0.5073 N   0  0  0  0  0  0  0  0  0  0  0  0
    0.4847    0.3351    1.3249 H   0  0  0  0  0  0  0  0  0  0  0  0
    0.4847   -2.6203    0.2205 H   0  0  0  0  0  0  0  0  0  0  0  0
    0.4847    1.1481    0.3024 C   0  0  0  0  0  3  0  0  0  0  0  0
   -0.1958    0.4641   -0.7313 O   0  0  0  0  0  0  0  0  0  0  0  0
   -0.6084    1.3614   -1.6870 N   0  0  0  0  0  0  0  0  0  0  0  0
   -1.2236    0.7955   -2.6346 C   0  0  0  0  0  0  0  0  0  0  0  0
    1.3713    1.6565   -0.0833 H   0  0  0  0  0  0  0  0  0  0  0  0
   -0.1708    1.8749    0.7875 H   0  0  0  0  0  0  0  0  0  0  0  0
   -1.5823    1.4349   -3.4301 H   0  0  0  0  0  0  0  0  0  0  0  0
   -1.3928   -0.2787   -2.6649 H   0  0  0  0  0  0  0  0  0  0  0  0
  1  2  1  0
  1  4  1  0
  2  3  2  3
  3  5  1  0
  6  7  1  0
  6 10  1  0
  6 11  1  0
  7  8  1  0
  8  9  2  3
  9 12  1  0
  9 13  1  0
M  RAD  1   6   2
M  END
>  <reaction>  (21) 
rmg_rxn_15577

>  <mol_properties>  (21) 
{"0": {"label": "*1", "atom_type": "O2s"}, "1": {"label": "*0", "atom_type": "N3d"}, "3": {"label": "*2", "atom_type": "H0"}, "5": {"label": "*3", "atom_type": "Cs"}, "6": {"label": "*4", "atom_type": "O2s"}}

>  <type>  (21) 
unop_17

>  <geom_source>  (21) 
gaussian_log

$$$$
