
     RDKit          3D

 10  9  0  0  0  0  0  0  0  0999 V2000
   -1.1906   -0.0419   -0.0385 C   0  0  0  0  0  0  0  0  0  0  0  0
    0.2513    0.4500    0.0348 C   0  0  0  0  0  0  0  0  0  0  0  0
    1.2500   -0.5694    0.3278 N   0  0  0  0  0  0  0  0  0  0  0  0
   -1.4965   -0.4905    0.9100 H   0  0  0  0  0  0  0  0  0  0  0  0
   -1.3035   -0.7985   -0.8190 H   0  0  0  0  0  0  0  0  0  0  0  0
   -1.8789    0.7769   -0.2612 H   0  0  0  0  0  0  0  0  0  0  0  0
    0.3352    1.2278    0.7979 H   0  0  0  0  0  0  0  0  0  0  0  0
    0.5259    0.9233   -0.9113 H   0  0  0  0  0  0  0  0  0  0  0  0
    1.2298   -1.2971   -0.3752 H   0  0  0  0  0  0  0  0  0  0  0  0
    1.0523   -1.0138    1.2153 H   0  0  0  0  0  0  0  0  0  0  0  0
  1  2  1  0
  1  4  1  0
  1  5  1  0
  1  6  1  0
  2  3  1  0
  2  7  1  0
  2  8  1  0
  3  9  1  0
  3 10  1  0
M  END
>  <reaction>  (1) 
rmg_rxn_15678

>  <mol_properties>  (1) 
{"1": {"label": "donator", "atom_type": "Cs"}, "6": {"label": "d_hydrogen", "atom_type": "H0"}}

>  <type>  (1) 
r1h

$$$$

     RDKit          3D

  8  7  0  0  0  0  0  0  0  0999 V2000
    1.7077   -0.1964   -0.0607 C   0  0  0  0  0  3  0  0  0  0  0  0
    0.4209   -0.4565    0.2808 O   0  0  0  0  0  0  0  0  0  0  0  0
   -0.4607    0.4385   -0.2968 N   0  0  0  0  0  0  0  0  0  0  0  0
   -1.6584    0.1416   -0.0244 C   0  0  0  0  0  0  0  0  0  0  0  0
    2.4163   -0.7685    0.5170 H   0  0  0  0  0  0  0  0  0  0  0  0
    1.9214    0.7645   -0.5045 H   0  0  0  0  0  0  0  0  0  0  0  0
   -2.4185    0.7953   -0.4307 H   0  0  0  0  0  0  0  0  0  0  0  0
   -1.9286   -0.7185    0.5831 H   0  0  0  0  0  0  0  0  0  0  0  0
  1  2  1  0
  1  5  1  0
  1  6  1  0
  2  3  1  0
  3  4  2  3
  4  7  1  0
  4  8  1  0
M  RAD  1   1   2
M  END
>  <reaction>  (2) 
rmg_rxn_15678

>  <mol_properties>  (2) 
{"0": {"label": "acceptor", "atom_type": "Cs"}}

>  <type>  (2) 
r2

$$$$

     RDKit          3D

  9  8  0  0  0  0  0  0  0  0999 V2000
   -1.5470   -0.0755   -0.1976 C   0  0  0  0  0  0  0  0  0  0  0  0
   -0.2885    0.4507    0.1749 O   0  0  0  0  0  0  0  0  0  0  0  0
   -0.1502    1.7216   -0.3294 N   0  0  0  0  0  0  0  0  0  0  0  0
    0.9626    2.2353   -0.0219 C   0  0  0  0  0  0  0  0  0  0  0  0
   -1.6392   -0.1356   -1.2844 H   0  0  0  0  0  0  0  0  0  0  0  0
   -2.3597    0.5337    0.2044 H   0  0  0  0  0  0  0  0  0  0  0  0
   -1.5879   -1.0750    0.2318 H   0  0  0  0  0  0  0  0  0  0  0  0
    1.1497    3.2381   -0.3820 H   0  0  0  0  0  0  0  0  0  0  0  0
    1.7060    1.7101    0.5739 H   0  0  0  0  0  0  0  0  0  0  0  0
  1  2  1  0
  1  5  1  0
  1  6  1  0
  1  7  1  0
  2  3  1  0
  3  4  2  3
  4  8  1  0
  4  9  1  0
M  END
>  <reaction>  (3) 
rmg_rxn_15678

>  <mol_properties>  (3) 
{"0": {"label": "acceptor", "atom_type": "Cs"}, "8": {"label": "a_hydrogen", "atom_type": "H0"}}

>  <type>  (3) 
r2h

$$$$

     RDKit          3D

 18 16  0  0  0  0  0  0  0  0999 V2000
    0.4492    1.5779   -0.5151 C   0  0  0  0  0  3  0  0  0  0  0  0
    1.3489    0.8359    0.2481 O   0  0  0  0  0  0  0  0  0  0  0  0
    1.4509   -0.4506   -0.2232 N   0  0  0  0  0  0  0  0  0  0  0  0
    2.2709   -1.1375    0.4520 C   0  0  0  0  0  0  0  0  0  0  0  0
    0.4306    2.5883   -0.1179 H   0  0  0  0  0  0  0  0  0  0  0  0
    0.6414    1.5132   -1.5863 H   0  0  0  0  0  0  0  0  0  0  0  0
    2.4117   -2.1649    0.1443 H   0  0  0  0  0  0  0  0  0  0  0  0
    2.8164   -0.7301    1.3000 H   0  0  0  0  0  0  0  0  0  0  0  0
   -1.7812   -0.2048    1.3060 C   0  0  0  0  0  0  0  0  0  0  0  0
   -1.8681    0.2103   -0.1407 C   0  0  0  0  0  0  0  0  0  0  0  0
   -1.8230   -0.8893   -1.0495 N   0  0  0  0  0  0  0  0  0  0  0  0
   -2.6343   -0.8281    1.5872 H   0  0  0  0  0  0  0  0  0  0  0  0
   -1.7587    0.6700    1.9577 H   0  0  0  0  0  0  0  0  0  0  0  0
   -0.8701   -0.7800    1.4872 H   0  0  0  0  0  0  0  0  0  0  0  0
   -0.8432    0.9854   -0.3326 H   0  0  0  0  0  0  0  0  0  0  0  0
   -2.7311    0.8459   -0.3471 H   0  0  0  0  0  0  0  0  0  0  0  0
   -1.9420   -0.5949   -2.0082 H   0  0  0  0  0  0  0  0  0  0  0  0
   -0.9383   -1.3767   -0.9781 H   0  0  0  0  0  0  0  0  0  0  0  0
  1  2  1  0
  1  5  1  0
  1  6  1  0
  2  3  1  0
  3  4  2  3
  4  7  1  0
  4  8  1  0
  9 10  1  0
  9 12  1  0
  9 13  1  0
  9 14  1  0
 10 11  1  0
 10 15  1  0
 10 16  1  0
 11 17  1  0
 11 18  1  0
M  RAD  1   1   2
M  END
>  <reaction>  (4) 
rmg_rxn_15678

>  <mol_properties>  (4) 
{"0": {"label": "*3", "atom_type": "Cs"}, "1": {"label": "*4", "atom_type": "O2s"}, "9": {"label": "*1", "atom_type": "Cs"}, "10": {"label": "*0", "atom_type": "N3s"}, "14": {"label": "*2", "atom_type": "H0"}}

>  <type>  (4) 
ts

$$$$

     RDKit          3D

 18 16  0  0  0  0  0  0  0  0999 V2000
    0.4018   -1.6016    0.4537 C   0  0  0  0  0  0  0  0  0  0  0  0
    1.3700   -0.8484   -0.2192 O   0  0  0  0  0  0  0  0  0  0  0  0
    1.4124    0.4538    0.2383 N   0  0  0  0  0  0  0  0  0  0  0  0
    2.2868    1.1990   -0.2885 C   0  0  0  0  0  0  0  0  0  0  0  0
    0.3738   -2.5747   -0.0230 H   0  0  0  0  0  0  0  0  0  0  0  0
    0.5872   -1.6631    1.5261 H   0  0  0  0  0  0  0  0  0  0  0  0
    2.3315    2.2137    0.0656 H   0  0  0  0  0  0  0  0  0  0  0  0
    2.9802    0.8783   -1.0596 H   0  0  0  0  0  0  0  0  0  0  0  0
   -1.8829    0.1148   -1.3259 C   0  0  0  0  0  0  0  0  0  0  0  0
   -1.8350   -0.2044    0.1480 C   0  0  0  0  0  3  0  0  0  0  0  0
   -1.7055    0.9465    0.9636 N   0  0  0  0  0  0  0  0  0  0  0  0
   -0.9828    0.6481   -1.6262 H   0  0  0  0  0  0  0  0  0  0  0  0
   -2.7435    0.7432   -1.5606 H   0  0  0  0  0  0  0  0  0  0  0  0
   -1.9544   -0.8011   -1.9069 H   0  0  0  0  0  0  0  0  0  0  0  0
   -0.7562   -0.9953    0.3029 H   0  0  0  0  0  0  0  0  0  0  0  0
   -2.6719   -0.8178    0.4817 H   0  0  0  0  0  0  0  0  0  0  0  0
   -1.6618    0.7300    1.9503 H   0  0  0  0  0  0  0  0  0  0  0  0
   -0.9098    1.5127    0.6939 H   0  0  0  0  0  0  0  0  0  0  0  0
  1  2  1  0
  1  5  1  0
  1  6  1  0
  1 15  1  0
  2  3  1  0
  3  4  2  3
  4  7  1  0
  4  8  1  0
  9 10  1  0
  9 12  1  0
  9 13  1  0
  9 14  1  0
 10 11  1  0
 10 16  1  0
 11 17  1  0
 11 18  1  0
M  RAD  1  10   2
M  END
>  <reaction>  (5) 
rmg_rxn_15678

>  <mol_properties>  (5) 
{"0": {"label": "*3", "atom_type": "Cs"}, "1": {"label": "*4", "atom_type": "O2s"}, "9": {"label": "*1", "atom_type": "Cs"}, "10": {"label": "*0", "atom_type": "N3s"}, "14": {"label": "*2", "atom_type": "H0"}}

>  <type>  (5) 
unop_1

>  <geom_source>  (5) 
crest_best.xyz

$$$$

     RDKit          3D

 18 16  0  0  0  0  0  0  0  0999 V2000
    0.3571   -1.1014   -0.2157 C   0  0  0  0  0  0  0  0  0  0  0  0
    1.0939   -0.1718    0.5541 O   0  0  0  0  0  0  0  0  0  0  0  0
    1.6310   -0.8015    1.6513 N   0  0  0  0  0  0  0  0  0  0  0  0
    2.3007   -0.0088    2.3724 C   0  0  0  0  0  0  0  0  0  0  0  0
    1.0002   -1.9079   -0.5749 H   0  0  0  0  0  0  0  0  0  0  0  0
   -0.4671   -1.5227    0.3643 H   0  0  0  0  0  0  0  0  0  0  0  0
    2.7578   -0.4283    3.2585 H   0  0  0  0  0  0  0  0  0  0  0  0
    2.4216    1.0446    2.1292 H   0  0  0  0  0  0  0  0  0  0  0  0
   -1.7347    0.2045   -2.6195 C   0  0  0  0  0  0  0  0  0  0  0  0
   -1.7347    0.2045   -1.0942 C   0  0  0  0  0  3  0  0  0  0  0  0
   -1.7347    1.5184   -0.4647 N   0  0  0  0  0  0  0  0  0  0  0  0
   -0.8513    0.7176   -3.0077 H   0  0  0  0  0  0  0  0  0  0  0  0
   -2.6181    0.7176   -3.0077 H   0  0  0  0  0  0  0  0  0  0  0  0
   -1.7347   -0.8133   -3.0167 H   0  0  0  0  0  0  0  0  0  0  0  0
   -0.6868   -0.4497   -0.6541 H   0  0  0  0  0  0  0  0  0  0  0  0
   -2.6080   -0.3407   -0.7274 H   0  0  0  0  0  0  0  0  0  0  0  0
   -2.5473    2.0487   -0.7523 H   0  0  0  0  0  0  0  0  0  0  0  0
   -0.9221    2.0487   -0.7523 H   0  0  0  0  0  0  0  0  0  0  0  0
  1  2  1  0
  1  5  1  0
  1  6  1  0
  1 15  1  0
  2  3  1  0
  3  4  2  3
  4  7  1  0
  4  8  1  0
  9 10  1  0
  9 12  1  0
  9 13  1  0
  9 14  1  0
 10 11  1  0
 10 16  1  0
 11 17  1  0
 11 18  1  0
M  RAD  1  10   2
M  END
>  <reaction>  (6) 
rmg_rxn_15678

>  <mol_properties>  (6) 
{"0": {"label": "*3", "atom_type": "Cs"}, "1": {"label": "*4", "atom_type": "O2s"}, "9": {"label": "*1", "atom_type": "Cs"}, "10": {"label": "*0", "atom_type": "N3s"}, "14": {"label": "*2", "atom_type": "H0"}}

>  <type>  (6) 
unop_2

>  <geom_source>  (6) 
Heuristics

$$$$

     RDKit          3D

 18 16  0  0  0  0  0  0  0  0999 V2000
    0.2699   -1.4810   -0.3738 C   0  0  0  0  0  0  0  0  0  0  0  0
    1.4533   -0.9645    0.1657 O   0  0  0  0  0  0  0  0  0  0  0  0
    1.6386    0.3586   -0.1844 N   0  0  0  0  0  0  0  0  0  0  0  0
    2.7069    0.8962    0.2242 C   0  0  0  0  0  0  0  0  0  0  0  0
    0.2620   -1.4625   -1.4637 H   0  0  0  0  0  0  0  0  0  0  0  0
    0.1504   -2.4802    0.0289 H   0  0  0  0  0  0  0  0  0  0  0  0
    2.8638    1.9246   -0.0490 H   0  0  0  0  0  0  0  0  0  0  0  0
    3.4575    0.3885    0.8217 H   0  0  0  0  0  0  0  0  0  0  0  0
   -2.9741   -0.3823    0.1544 C   0  0  0  0  0  0  0  0  0  0  0  0
   -1.6142    0.2218    0.4013 C   0  0  0  0  0  3  0  0  0  0  0  0
   -1.3848    1.4173   -0.3230 N   0  0  0  0  0  0  0  0  0  0  0  0
   -3.7652    0.3011    0.4680 H   0  0  0  0  0  0  0  0  0  0  0  0
   -3.0809   -1.3099    0.7107 H   0  0  0  0  0  0  0  0  0  0  0  0
   -3.1119   -0.5944   -0.9048 H   0  0  0  0  0  0  0  0  0  0  0  0
   -0.7185   -0.7117    0.0281 H   0  0  0  0  0  0  0  0  0  0  0  0
   -1.3990    0.3760    1.4581 H   0  0  0  0  0  0  0  0  0  0  0  0
   -0.4377    1.7576   -0.2123 H   0  0  0  0  0  0  0  0  0  0  0  0
   -1.6115    1.3237   -1.3053 H   0  0  0  0  0  0  0  0  0  0  0  0
  1  2  1  0
  1  5  1  0
  1  6  1  0
  1 15  1  0
  2  3  1  0
  3  4  2  3
  4  7  1  0
  4  8  1  0
  9 10  1  0
  9 12  1  0
  9 13  1  0
  9 14  1  0
 10 11  1  0
 10 16  1  0
 11 17  1  0
 11 18  1  0
M  RAD  1  10   2
M  END
>  <reaction>  (7) 
rmg_rxn_15678

>  <mol_properties>  (7) 
{"0": {"label": "*3", "atom_type": "Cs"}, "1": {"label": "*4", "atom_type": "O2s"}, "9": {"label": "*1", "atom_type": "Cs"}, "10": {"label": "*0", "atom_type": "N3s"}, "14": {"label": "*2", "atom_type": "H0"}}

>  <type>  (7) 
unop_3

>  <geom_source>  (7) 
Heuristics

$$$$

     RDKit          3D

 18 16  0  0  0  0  0  0  0  0999 V2000
    1.1355    0.9809   -1.1055 C   0  0  0  0  0  0  0  0  0  0  0  0
    1.5349    0.7534    0.2259 O   0  0  0  0  0  0  0  0  0  0  0  0
    1.5856   -0.5112    0.7025 N   0  0  0  0  0  0  0  0  0  0  0  0
    1.3394   -1.5208   -0.0087 C   0  0  0  0  0  0  0  0  0  0  0  0
    0.0856    0.7022   -1.2739 H   0  0  0  0  0  0  0  0  0  0  0  0
    1.3428    2.0041   -1.3392 H   0  0  0  0  0  0  0  0  0  0  0  0
    1.0675   -1.5223   -1.0610 H   0  0  0  0  0  0  0  0  0  0  0  0
    1.4169   -2.4721    0.4893 H   0  0  0  0  0  0  0  0  0  0  0  0
   -2.1876   -1.0521   -0.4753 C   0  0  0  0  0  0  0  0  0  0  0  0
   -1.8744    0.3902   -0.2894 C   0  0  0  0  0  3  0  0  0  0  0  0
   -1.5686    0.8239    1.0039 N   0  0  0  0  0  0  0  0  0  0  0  0
   -2.2233   -1.2973   -1.5356 H   0  0  0  0  0  0  0  0  0  0  0  0
   -3.1562   -1.3278   -0.0389 H   0  0  0  0  0  0  0  0  0  0  0  0
   -1.4281   -1.6719    0.0053 H   0  0  0  0  0  0  0  0  0  0  0  0
    1.8200    0.5604   -1.8539 H   0  0  0  0  0  0  0  0  0  0  0  0
   -2.4123    1.1128   -0.8850 H   0  0  0  0  0  0  0  0  0  0  0  0
   -1.0092    0.1668    1.5321 H   0  0  0  0  0  0  0  0  0  0  0  0
   -1.1910    1.7599    1.0518 H   0  0  0  0  0  0  0  0  0  0  0  0
  1  2  1  0
  1  5  1  0
  1  6  1  0
  1 15  1  0
  2  3  1  0
  3  4  2  3
  4  7  1  0
  4  8  1  0
  9 10  1  0
  9 12  1  0
  9 13  1  0
  9 14  1  0
 10 11  1  0
 10 16  1  0
 11 17  1  0
 11 18  1  0
M  RAD  1  10   2
M  END
>  <reaction>  (8) 
rmg_rxn_15678

>  <mol_properties>  (8) 
{"0": {"label": "*3", "atom_type": "Cs"}, "1": {"label": "*4", "atom_type": "O2s"}, "9": {"label": "*1", "atom_type": "Cs"}, "10": {"label": "*0", "atom_type": "N3s"}, "14": {"label": "*2", "atom_type": "H0"}}

>  <type>  (8) 
unop_4

>  <geom_source>  (8) 
Heuristics

$$$$

     RDKit          3D

 18 16  0  0  0  0  0  0  0  0999 V2000
    1.5015   -1.6420   -0.2600 C   0  0  0  0  0  0  0  0  0  0  0  0
    1.8234   -0.4266    0.3605 O   0  0  0  0  0  0  0  0  0  0  0  0
    1.1549    0.6344   -0.2466 N   0  0  0  0  0  0  0  0  0  0  0  0
    1.4120    1.7826    0.2264 C   0  0  0  0  0  0  0  0  0  0  0  0
    2.1454   -2.4010    0.1305 H   0  0  0  0  0  0  0  0  0  0  0  0
    0.4469   -1.8950   -0.1907 H   0  0  0  0  0  0  0  0  0  0  0  0
    0.8963    2.6139   -0.2199 H   0  0  0  0  0  0  0  0  0  0  0  0
    2.1057    1.9616    1.0393 H   0  0  0  0  0  0  0  0  0  0  0  0
   -2.0422   -0.3422    1.2302 C   0  0  0  0  0  0  0  0  0  0  0  0
   -2.4558    0.1405   -0.1080 C   0  0  0  0  0  3  0  0  0  0  0  0
   -1.5709    0.0395   -1.1680 N   0  0  0  0  0  0  0  0  0  0  0  0
   -0.9914   -0.1139    1.4056 H   0  0  0  0  0  0  0  0  0  0  0  0
   -2.1673   -1.4276    1.3435 H   0  0  0  0  0  0  0  0  0  0  0  0
   -2.6403    0.1337    2.0063 H   0  0  0  0  0  0  0  0  0  0  0  0
    1.8751   -1.7177   -1.2883 H   0  0  0  0  0  0  0  0  0  0  0  0
   -3.5008    0.2228   -0.3508 H   0  0  0  0  0  0  0  0  0  0  0  0
   -1.8545    0.5414   -1.9976 H   0  0  0  0  0  0  0  0  0  0  0  0
   -0.5955    0.2158   -0.9149 H   0  0  0  0  0  0  0  0  0  0  0  0
  1  2  1  0
  1  5  1  0
  1  6  1  0
  1 15  1  0
  2  3  1  0
  3  4  2  3
  4  7  1  0
  4  8  1  0
  9 10  1  0
  9 12  1  0
  9 13  1  0
  9 14  1  0
 10 11  1  0
 10 16  1  0
 11 17  1  0
 11 18  1  0
M  RAD  1  10   2
M  END
>  <reaction>  (9) 
rmg_rxn_15678

>  <mol_properties>  (9) 
{"0": {"label": "*3", "atom_type": "Cs"}, "1": {"label": "*4", "atom_type": "O2s"}, "9": {"label": "*1", "atom_type": "Cs"}, "10": {"label": "*0", "atom_type": "N3s"}, "14": {"label": "*2", "atom_type": "H0"}}

>  <type>  (9) 
unop_5

>  <geom_source>  (9) 
Heuristics

$$$$

     RDKit          3D

 18 16  0  0  0  0  0  0  0  0999 V2000
    0.0139   -0.7894    0.8995 C   0  0  0  0  0  0  0  0  0  0  0  0
    1.0162   -0.6128   -0.0822 O   0  0  0  0  0  0  0  0  0  0  0  0
    2.2480   -0.8955    0.4575 N   0  0  0  0  0  0  0  0  0  0  0  0
    3.1791   -0.7514   -0.3845 C   0  0  0  0  0  0  0  0  0  0  0  0
   -0.0065   -1.8218    1.2558 H   0  0  0  0  0  0  0  0  0  0  0  0
    0.1712   -0.1148    1.7442 H   0  0  0  0  0  0  0  0  0  0  0  0
    4.1830   -0.9554   -0.0370 H   0  0  0  0  0  0  0  0  0  0  0  0
    2.9981   -0.4390   -1.4108 H   0  0  0  0  0  0  0  0  0  0  0  0
   -2.0780    0.5165   -1.5043 C   0  0  0  0  0  0  0  0  0  0  0  0
   -2.0780    0.5165    0.0210 C   0  0  0  0  0  3  0  0  0  0  0  0
   -2.0780    1.8304    0.6504 N   0  0  0  0  0  0  0  0  0  0  0  0
   -1.1946    1.0297   -1.8925 H   0  0  0  0  0  0  0  0  0  0  0  0
   -2.9613    1.0297   -1.8925 H   0  0  0  0  0  0  0  0  0  0  0  0
   -2.0780   -0.5013   -1.9016 H   0  0  0  0  0  0  0  0  0  0  0  0
   -1.0300   -0.1377    0.4611 H   0  0  0  0  0  0  0  0  0  0  0  0
   -2.9512   -0.0287    0.3877 H   0  0  0  0  0  0  0  0  0  0  0  0
   -2.8906    2.3607    0.3628 H   0  0  0  0  0  0  0  0  0  0  0  0
   -1.2654    2.3607    0.3628 H   0  0  0  0  0  0  0  0  0  0  0  0
  1  2  1  0
  1  5  1  0
  1  6  1  0
  1 15  1  0
  2  3  1  0
  3  4  2  3
  4  7  1  0
  4  8  1  0
  9 10  1  0
  9 12  1  0
  9 13  1  0
  9 14  1  0
 10 11  1  0
 10 16  1  0
 11 17  1  0
 11 18  1  0
M  RAD  1  10   2
M  END
>  <reaction>  (10) 
rmg_rxn_15678

>  <mol_properties>  (10) 
{"0": {"label": "*3", "atom_type": "Cs"}, "1": {"label": "*4", "atom_type": "O2s"}, "9": {"label": "*1", "atom_type": "Cs"}, "10": {"label": "*0", "atom_type": "N3s"}, "14": {"label": "*2", "atom_type": "H0"}}

>  <type>  (10) 
unop_6

>  <geom_source>  (10) 
Heuristics

$$$$

     RDKit          3D

 18 16  0  0  0  0  0  0  0  0999 V2000
    0.4013    1.5989   -0.4574 C   0  0  0  0  0  0  0  0  0  0  0  0
    1.3699    0.8488    0.2183 O   0  0  0  0  0  0  0  0  0  0  0  0
    1.4167   -0.4537   -0.2378 N   0  0  0  0  0  0  0  0  0  0  0  0
    2.2920   -1.1960    0.2914 C   0  0  0  0  0  0  0  0  0  0  0  0
    0.3720    2.5733    0.0166 H   0  0  0  0  0  0  0  0  0  0  0  0
    0.5873    1.6576   -1.5298 H   0  0  0  0  0  0  0  0  0  0  0  0
    2.3406   -2.2108   -0.0619 H   0  0  0  0  0  0  0  0  0  0  0  0
    2.9830   -0.8728    1.0637 H   0  0  0  0  0  0  0  0  0  0  0  0
   -1.8874   -0.1100    1.3255 C   0  0  0  0  0  0  0  0  0  0  0  0
   -1.8365    0.2035   -0.1496 C   0  0  0  0  0  3  0  0  0  0  0  0
   -1.7077   -0.9508   -0.9606 N   0  0  0  0  0  0  0  0  0  0  0  0
   -2.7508   -0.7342    1.5616 H   0  0  0  0  0  0  0  0  0  0  0  0
   -1.9559    0.8082    1.9030 H   0  0  0  0  0  0  0  0  0  0  0  0
   -0.9897   -0.6458    1.6288 H   0  0  0  0  0  0  0  0  0  0  0  0
   -0.7565    0.9924   -0.3053 H   0  0  0  0  0  0  0  0  0  0  0  0
   -2.6719    0.8170   -0.4868 H   0  0  0  0  0  0  0  0  0  0  0  0
   -1.6628   -0.7382   -1.9481 H   0  0  0  0  0  0  0  0  0  0  0  0
   -0.9133   -1.5173   -0.6880 H   0  0  0  0  0  0  0  0  0  0  0  0
  1  2  1  0
  1  5  1  0
  1  6  1  0
  1 15  1  0
  2  3  1  0
  3  4  2  3
  4  7  1  0
  4  8  1  0
  9 10  1  0
  9 12  1  0
  9 13  1  0
  9 14  1  0
 10 11  1  0
 10 16  1  0
 11 17  1  0
 11 18  1  0
M  RAD  1  10   2
M  END
>  <reaction>  (11) 
rmg_rxn_15678

>  <mol_properties>  (11) 
{"0": {"label": "*3", "atom_type": "Cs"}, "1": {"label": "*4", "atom_type": "O2s"}, "9": {"label": "*1", "atom_type": "Cs"}, "10": {"label": "*0", "atom_type": "N3s"}, "14": {"label": "*2", "atom_type": "H0"}}

>  <type>  (11) 
unop_7

>  <geom_source>  (11) 
Heuristics

$$$$

     RDKit          3D

 18 16  0  0  0  0  0  0  0  0999 V2000
    0.5448   -0.8384   -0.3847 C   0  0  0  0  0  0  0  0  0  0  0  0
    0.8760   -0.2428    0.8543 O   0  0  0  0  0  0  0  0  0  0  0  0
    1.5312   -1.1551    1.6462 N   0  0  0  0  0  0  0  0  0  0  0  0
    1.8488   -0.6677    2.7680 C   0  0  0  0  0  0  0  0  0  0  0  0
    1.4434   -1.1582   -0.9170 H   0  0  0  0  0  0  0  0  0  0  0  0
   -0.1188   -1.6942   -0.2419 H   0  0  0  0  0  0  0  0  0  0  0  0
    2.3697   -1.3243    3.4520 H   0  0  0  0  0  0  0  0  0  0  0  0
    1.6179    0.3579    3.0480 H   0  0  0  0  0  0  0  0  0  0  0  0
   -1.5470    0.4675   -2.7885 C   0  0  0  0  0  0  0  0  0  0  0  0
   -1.5470    0.4675   -1.2632 C   0  0  0  0  0  3  0  0  0  0  0  0
   -1.5470    1.7814   -0.6338 N   0  0  0  0  0  0  0  0  0  0  0  0
   -0.6636    0.9807   -3.1767 H   0  0  0  0  0  0  0  0  0  0  0  0
   -2.4304    0.9807   -3.1767 H   0  0  0  0  0  0  0  0  0  0  0  0
   -1.5470   -0.5502   -3.1858 H   0  0  0  0  0  0  0  0  0  0  0  0
   -0.4991   -0.1867   -0.8231 H   0  0  0  0  0  0  0  0  0  0  0  0
   -2.4203   -0.0777   -0.8965 H   0  0  0  0  0  0  0  0  0  0  0  0
   -2.3596    2.3117   -0.9214 H   0  0  0  0  0  0  0  0  0  0  0  0
   -0.7344    2.3117   -0.9214 H   0  0  0  0  0  0  0  0  0  0  0  0
  1  2  1  0
  1  5  1  0
  1  6  1  0
  1 15  1  0
  2  3  1  0
  3  4  2  3
  4  7  1  0
  4  8  1  0
  9 10  1  0
  9 12  1  0
  9 13  1  0
  9 14  1  0
 10 11  1  0
 10 16  1  0
 11 17  1  0
 11 18  1  0
M  RAD  1  10   2
M  END
>  <reaction>  (12) 
rmg_rxn_15678

>  <mol_properties>  (12) 
{"0": {"label": "*3", "atom_type": "Cs"}, "1": {"label": "*4", "atom_type": "O2s"}, "9": {"label": "*1", "atom_type": "Cs"}, "10": {"label": "*0", "atom_type": "N3s"}, "14": {"label": "*2", "atom_type": "H0"}}

>  <type>  (12) 
unop_8

>  <geom_source>  (12) 
Heuristics

$$$$

     RDKit          3D

 18 16  0  0  0  0  0  0  0  0999 V2000
    0.8235    0.1985    0.5449 C   0  0  0  0  0  0  0  0  0  0  0  0
    0.6994   -1.1136    0.0324 O   0  0  0  0  0  0  0  0  0  0  0  0
    1.2488   -2.0103    0.9172 N   0  0  0  0  0  0  0  0  0  0  0  0
    1.1616   -3.2005    0.5018 C   0  0  0  0  0  0  0  0  0  0  0  0
    0.2933    0.2988    1.4946 H   0  0  0  0  0  0  0  0  0  0  0  0
    1.8735    0.4663    0.6830 H   0  0  0  0  0  0  0  0  0  0  0  0
    1.5723   -3.9690    1.1428 H   0  0  0  0  0  0  0  0  0  0  0  0
    0.7003   -3.4569   -0.4494 H   0  0  0  0  0  0  0  0  0  0  0  0
   -1.2683    1.5044   -1.8590 C   0  0  0  0  0  0  0  0  0  0  0  0
   -1.2683    1.5044   -0.3337 C   0  0  0  0  0  3  0  0  0  0  0  0
   -1.2683    2.8183    0.2958 N   0  0  0  0  0  0  0  0  0  0  0  0
   -0.3849    2.0175   -2.2472 H   0  0  0  0  0  0  0  0  0  0  0  0
   -2.1517    2.0175   -2.2472 H   0  0  0  0  0  0  0  0  0  0  0  0
   -1.2683    0.4866   -2.2562 H   0  0  0  0  0  0  0  0  0  0  0  0
   -0.2203    0.8502    0.1064 H   0  0  0  0  0  0  0  0  0  0  0  0
   -2.1416    0.9592    0.0331 H   0  0  0  0  0  0  0  0  0  0  0  0
   -2.0809    3.3485    0.0082 H   0  0  0  0  0  0  0  0  0  0  0  0
   -0.4557    3.3485    0.0082 H   0  0  0  0  0  0  0  0  0  0  0  0
  1  2  1  0
  1  5  1  0
  1  6  1  0
  1 15  1  0
  2  3  1  0
  3  4  2  3
  4  7  1  0
  4  8  1  0
  9 10  1  0
  9 12  1  0
  9 13  1  0
  9 14  1  0
 10 11  1  0
 10 16  1  0
 11 17  1  0
 11 18  1  0
M  RAD  1  10   2
M  END
>  <reaction>  (13) 
rmg_rxn_15678

>  <mol_properties>  (13) 
{"0": {"label": "*3", "atom_type": "Cs"}, "1": {"label": "*4", "atom_type": "O2s"}, "9": {"label": "*1", "atom_type": "Cs"}, "10": {"label": "*0", "atom_type": "N3s"}, "14": {"label": "*2", "atom_type": "H0"}}

>  <type>  (13) 
unop_9

>  <geom_source>  (13) 
Heuristics

$$$$

     RDKit          3D

 18 16  0  0  0  0  0  0  0  0999 V2000
    1.4967   -1.6400    0.2795 C   0  0  0  0  0  0  0  0  0  0  0  0
    1.8146   -0.4330   -0.3592 O   0  0  0  0  0  0  0  0  0  0  0  0
    1.1564    0.6371    0.2432 N   0  0  0  0  0  0  0  0  0  0  0  0
    1.4133    1.7791   -0.2446 C   0  0  0  0  0  0  0  0  0  0  0  0
    0.4403   -1.8897    0.2276 H   0  0  0  0  0  0  0  0  0  0  0  0
    2.1324   -2.4060   -0.1112 H   0  0  0  0  0  0  0  0  0  0  0  0
    0.9055    2.6173    0.1978 H   0  0  0  0  0  0  0  0  0  0  0  0
    2.0997    1.9468   -1.0662 H   0  0  0  0  0  0  0  0  0  0  0  0
   -2.0346   -0.3675   -1.2240 C   0  0  0  0  0  0  0  0  0  0  0  0
   -2.4515    0.1454    0.1018 C   0  0  0  0  0  3  0  0  0  0  0  0
   -1.5712    0.0646    1.1672 N   0  0  0  0  0  0  0  0  0  0  0  0
   -2.1622   -1.4548   -1.3140 H   0  0  0  0  0  0  0  0  0  0  0  0
   -0.9825   -0.1460   -1.4009 H   0  0  0  0  0  0  0  0  0  0  0  0
   -2.6286    0.0929   -2.0125 H   0  0  0  0  0  0  0  0  0  0  0  0
    1.8842   -1.7053    1.3034 H   0  0  0  0  0  0  0  0  0  0  0  0
   -3.4970    0.2388    0.3382 H   0  0  0  0  0  0  0  0  0  0  0  0
   -1.8565    0.5852    1.9847 H   0  0  0  0  0  0  0  0  0  0  0  0
   -0.5942    0.2329    0.9146 H   0  0  0  0  0  0  0  0  0  0  0  0
  1  2  1  0
  1  5  1  0
  1  6  1  0
  1 15  1  0
  2  3  1  0
  3  4  2  3
  4  7  1  0
  4  8  1  0
  9 10  1  0
  9 12  1  0
  9 13  1  0
  9 14  1  0
 10 11  1  0
 10 16  1  0
 11 17  1  0
 11 18  1  0
M  RAD  1  10   2
M  END
>  <reaction>  (14) 
rmg_rxn_15678

>  <mol_properties>  (14) 
{"0": {"label": "*3", "atom_type": "Cs"}, "1": {"label": "*4", "atom_type": "O2s"}, "9": {"label": "*1", "atom_type": "Cs"}, "10": {"label": "*0", "atom_type": "N3s"}, "14": {"label": "*2", "atom_type": "H0"}}

>  <type>  (14) 
unop_10

>  <geom_source>  (14) 
Heuristics

$$$$

     RDKit          3D

 18 16  0  0  0  0  0  0  0  0999 V2000
    0.6519   -0.6109   -0.4093 C   0  0  0  0  0  0  0  0  0  0  0  0
    0.5708   -0.5603    1.0015 O   0  0  0  0  0  0  0  0  0  0  0  0
    1.6393   -1.2273    1.5511 N   0  0  0  0  0  0  0  0  0  0  0  0
    1.6106   -1.2094    2.8143 C   0  0  0  0  0  0  0  0  0  0  0  0
    1.5654   -0.1295   -0.7657 H   0  0  0  0  0  0  0  0  0  0  0  0
    0.6205   -1.6430   -0.7657 H   0  0  0  0  0  0  0  0  0  0  0  0
    2.4197   -1.7145    3.3248 H   0  0  0  0  0  0  0  0  0  0  0  0
    0.8202   -0.7160    3.3757 H   0  0  0  0  0  0  0  0  0  0  0  0
   -1.4399    0.6949   -2.8131 C   0  0  0  0  0  0  0  0  0  0  0  0
   -1.4399    0.6949   -1.2878 C   0  0  0  0  0  3  0  0  0  0  0  0
   -1.4399    2.0088   -0.6584 N   0  0  0  0  0  0  0  0  0  0  0  0
   -0.5565    1.2081   -3.2013 H   0  0  0  0  0  0  0  0  0  0  0  0
   -2.3233    1.2081   -3.2013 H   0  0  0  0  0  0  0  0  0  0  0  0
   -1.4399   -0.3228   -3.2104 H   0  0  0  0  0  0  0  0  0  0  0  0
   -0.3920    0.0407   -0.8477 H   0  0  0  0  0  0  0  0  0  0  0  0
   -2.3132    0.1498   -0.9211 H   0  0  0  0  0  0  0  0  0  0  0  0
   -2.2525    2.5391   -0.9460 H   0  0  0  0  0  0  0  0  0  0  0  0
   -0.6273    2.5391   -0.9460 H   0  0  0  0  0  0  0  0  0  0  0  0
  1  2  1  0
  1  5  1  0
  1  6  1  0
  1 15  1  0
  2  3  1  0
  3  4  2  3
  4  7  1  0
  4  8  1  0
  9 10  1  0
  9 12  1  0
  9 13  1  0
  9 14  1  0
 10 11  1  0
 10 16  1  0
 11 17  1  0
 11 18  1  0
M  RAD  1  10   2
M  END
>  <reaction>  (15) 
rmg_rxn_15678

>  <mol_properties>  (15) 
{"0": {"label": "*3", "atom_type": "Cs"}, "1": {"label": "*4", "atom_type": "O2s"}, "9": {"label": "*1", "atom_type": "Cs"}, "10": {"label": "*0", "atom_type": "N3s"}, "14": {"label": "*2", "atom_type": "H0"}}

>  <type>  (15) 
unop_11

>  <geom_source>  (15) 
Heuristics

$$$$

     RDKit          3D

 18 16  0  0  0  0  0  0  0  0999 V2000
    0.4015    1.5991   -0.4570 C   0  0  0  0  0  0  0  0  0  0  0  0
    1.3703    0.8488    0.2182 O   0  0  0  0  0  0  0  0  0  0  0  0
    1.4158   -0.4539   -0.2371 N   0  0  0  0  0  0  0  0  0  0  0  0
    2.2918   -1.1963    0.2910 C   0  0  0  0  0  0  0  0  0  0  0  0
    0.3723    2.5735    0.0172 H   0  0  0  0  0  0  0  0  0  0  0  0
    0.5872    1.6580   -1.5294 H   0  0  0  0  0  0  0  0  0  0  0  0
    2.3389   -2.2115   -0.0615 H   0  0  0  0  0  0  0  0  0  0  0  0
    2.9842   -0.8730    1.0620 H   0  0  0  0  0  0  0  0  0  0  0  0
   -1.8877   -0.1104    1.3253 C   0  0  0  0  0  0  0  0  0  0  0  0
   -1.8364    0.2036   -0.1496 C   0  0  0  0  0  3  0  0  0  0  0  0
   -1.7073   -0.9504   -0.9610 N   0  0  0  0  0  0  0  0  0  0  0  0
   -1.9559    0.8077    1.9032 H   0  0  0  0  0  0  0  0  0  0  0  0
   -0.9904   -0.6468    1.6286 H   0  0  0  0  0  0  0  0  0  0  0  0
   -2.7516   -0.7341    1.5610 H   0  0  0  0  0  0  0  0  0  0  0  0
   -0.7563    0.9926   -0.3049 H   0  0  0  0  0  0  0  0  0  0  0  0
   -2.6716    0.8173   -0.4869 H   0  0  0  0  0  0  0  0  0  0  0  0
   -1.6617   -0.7374   -1.9483 H   0  0  0  0  0  0  0  0  0  0  0  0
   -0.9130   -1.5170   -0.6880 H   0  0  0  0  0  0  0  0  0  0  0  0
  1  2  1  0
  1  5  1  0
  1  6  1  0
  1 15  1  0
  2  3  1  0
  3  4  2  3
  4  7  1  0
  4  8  1  0
  9 10  1  0
  9 12  1  0
  9 13  1  0
  9 14  1  0
 10 11  1  0
 10 16  1  0
 11 17  1  0
 11 18  1  0
M  RAD  1  10   2
M  END
>  <reaction>  (16) 
rmg_rxn_15678

>  <mol_properties>  (16) 
{"0": {"label": "*3", "atom_type": "Cs"}, "1": {"label": "*4", "atom_type": "O2s"}, "9": {"label": "*1", "atom_type": "Cs"}, "10": {"label": "*0", "atom_type": "N3s"}, "14": {"label": "*2", "atom_type": "H0"}}

>  <type>  (16) 
unop_12

>  <geom_source>  (16) 
Heuristics

$$$$

     RDKit          3D

 18 16  0  0  0  0  0  0  0  0999 V2000
    0.9792    0.1182    0.1255 C   0  0  0  0  0  0  0  0  0  0  0  0
    0.5647   -1.2276    0.2542 O   0  0  0  0  0  0  0  0  0  0  0  0
    1.1240   -1.7786    1.3821 N   0  0  0  0  0  0  0  0  0  0  0  0
    0.7818   -2.9847    1.5404 C   0  0  0  0  0  0  0  0  0  0  0  0
    0.6538    0.7110    0.9834 H   0  0  0  0  0  0  0  0  0  0  0  0
    2.0650    0.1849    0.0266 H   0  0  0  0  0  0  0  0  0  0  0  0
    1.1811   -3.4920    2.4084 H   0  0  0  0  0  0  0  0  0  0  0  0
    0.1202   -3.5018    0.8488 H   0  0  0  0  0  0  0  0  0  0  0  0
   -1.1126    1.4241   -2.2783 C   0  0  0  0  0  0  0  0  0  0  0  0
   -1.1126    1.4241   -0.7530 C   0  0  0  0  0  3  0  0  0  0  0  0
   -1.1126    2.7380   -0.1236 N   0  0  0  0  0  0  0  0  0  0  0  0
   -0.2293    1.9373   -2.6665 H   0  0  0  0  0  0  0  0  0  0  0  0
   -1.9960    1.9373   -2.6665 H   0  0  0  0  0  0  0  0  0  0  0  0
   -1.1126    0.4064   -2.6756 H   0  0  0  0  0  0  0  0  0  0  0  0
   -0.0647    0.7699   -0.3129 H   0  0  0  0  0  0  0  0  0  0  0  0
   -1.9859    0.8790   -0.3863 H   0  0  0  0  0  0  0  0  0  0  0  0
   -1.9252    3.2683   -0.4112 H   0  0  0  0  0  0  0  0  0  0  0  0
   -0.3000    3.2683   -0.4112 H   0  0  0  0  0  0  0  0  0  0  0  0
  1  2  1  0
  1  5  1  0
  1  6  1  0
  1 15  1  0
  2  3  1  0
  3  4  2  3
  4  7  1  0
  4  8  1  0
  9 10  1  0
  9 12  1  0
  9 13  1  0
  9 14  1  0
 10 11  1  0
 10 16  1  0
 11 17  1  0
 11 18  1  0
M  RAD  1  10   2
M  END
>  <reaction>  (17) 
rmg_rxn_15678

>  <mol_properties>  (17) 
{"0": {"label": "*3", "atom_type": "Cs"}, "1": {"label": "*4", "atom_type": "O2s"}, "9": {"label": "*1", "atom_type": "Cs"}, "10": {"label": "*0", "atom_type": "N3s"}, "14": {"label": "*2", "atom_type": "H0"}}

>  <type>  (17) 
unop_13

>  <geom_source>  (17) 
Heuristics

$$$$

     RDKit          3D

 18 16  0  0  0  0  0  0  0  0999 V2000
    0.4864    1.3689   -0.2997 C   0  0  0  0  0  0  0  0  0  0  0  0
    1.3688    0.8092    0.6318 O   0  0  0  0  0  0  0  0  0  0  0  0
    2.0751   -0.3008    0.3426 N   0  0  0  0  0  0  0  0  0  0  0  0
    1.9779   -0.9080   -0.7630 C   0  0  0  0  0  0  0  0  0  0  0  0
    0.1511    2.3060    0.1310 H   0  0  0  0  0  0  0  0  0  0  0  0
    0.9245    1.5059   -1.2888 H   0  0  0  0  0  0  0  0  0  0  0  0
    2.6069   -1.7739   -0.8739 H   0  0  0  0  0  0  0  0  0  0  0  0
    1.3322   -0.6438   -1.5968 H   0  0  0  0  0  0  0  0  0  0  0  0
   -2.8143    0.5507   -0.1108 C   0  0  0  0  0  0  0  0  0  0  0  0
   -1.5936   -0.2854   -0.4056 C   0  0  0  0  0  3  0  0  0  0  0  0
   -1.3660   -1.3005    0.5543 N   0  0  0  0  0  0  0  0  0  0  0  0
   -2.9213    1.3356   -0.8551 H   0  0  0  0  0  0  0  0  0  0  0  0
   -2.7315    1.0109    0.8722 H   0  0  0  0  0  0  0  0  0  0  0  0
   -3.7162   -0.0632   -0.1228 H   0  0  0  0  0  0  0  0  0  0  0  0
   -0.5642    0.5814   -0.4170 H   0  0  0  0  0  0  0  0  0  0  0  0
   -1.6011   -0.7117   -1.4092 H   0  0  0  0  0  0  0  0  0  0  0  0
   -0.5293   -1.8424    0.3817 H   0  0  0  0  0  0  0  0  0  0  0  0
   -1.3727   -0.9503    1.5039 H   0  0  0  0  0  0  0  0  0  0  0  0
  1  2  1  0
  1  5  1  0
  1  6  1  0
  1 15  1  0
  2  3  1  0
  3  4  2  3
  4  7  1  0
  4  8  1  0
  9 10  1  0
  9 12  1  0
  9 13  1  0
  9 14  1  0
 10 11  1  0
 10 16  1  0
 11 17  1  0
 11 18  1  0
M  RAD  1  10   2
M  END
>  <reaction>  (18) 
rmg_rxn_15678

>  <mol_properties>  (18) 
{"0": {"label": "*3", "atom_type": "Cs"}, "1": {"label": "*4", "atom_type": "O2s"}, "9": {"label": "*1", "atom_type": "Cs"}, "10": {"label": "*0", "atom_type": "N3s"}, "14": {"label": "*2", "atom_type": "H0"}}

>  <type>  (18) 
unop_14

>  <geom_source>  (18) 
Heuristics

$$$$

     RDKit          3D

 18 16  0  0  0  0  0  0  0  0999 V2000
    0.9631   -0.1307   -0.2157 C   0  0  0  0  0  0  0  0  0  0  0  0
    0.4515   -1.2009    0.5541 O   0  0  0  0  0  0  0  0  0  0  0  0
    1.2530   -1.4069    1.6513 N   0  0  0  0  0  0  0  0  0  0  0  0
    0.8350   -2.3566    2.3724 C   0  0  0  0  0  0  0  0  0  0  0  0
    0.9796    0.7948    0.3643 H   0  0  0  0  0  0  0  0  0  0  0  0
    1.9701   -0.3543   -0.5749 H   0  0  0  0  0  0  0  0  0  0  0  0
    1.4126   -2.5831    3.2586 H   0  0  0  0  0  0  0  0  0  0  0  0
   -0.0583   -2.9279    2.1292 H   0  0  0  0  0  0  0  0  0  0  0  0
   -1.1287    1.1752   -2.6195 C   0  0  0  0  0  0  0  0  0  0  0  0
   -1.1287    1.1752   -1.0942 C   0  0  0  0  0  3  0  0  0  0  0  0
   -1.1287    2.4891   -0.4647 N   0  0  0  0  0  0  0  0  0  0  0  0
   -0.2453    1.6883   -3.0077 H   0  0  0  0  0  0  0  0  0  0  0  0
   -2.0121    1.6883   -3.0077 H   0  0  0  0  0  0  0  0  0  0  0  0
   -1.1287    0.1574   -3.0168 H   0  0  0  0  0  0  0  0  0  0  0  0
   -0.0808    0.5210   -0.6541 H   0  0  0  0  0  0  0  0  0  0  0  0
   -2.0020    0.6300   -0.7274 H   0  0  0  0  0  0  0  0  0  0  0  0
   -1.9413    3.0193   -0.7524 H   0  0  0  0  0  0  0  0  0  0  0  0
   -0.3161    3.0193   -0.7524 H   0  0  0  0  0  0  0  0  0  0  0  0
  1  2  1  0
  1  5  1  0
  1  6  1  0
  1 15  1  0
  2  3  1  0
  3  4  2  3
  4  7  1  0
  4  8  1  0
  9 10  1  0
  9 12  1  0
  9 13  1  0
  9 14  1  0
 10 11  1  0
 10 16  1  0
 11 17  1  0
 11 18  1  0
M  RAD  1  10   2
M  END
>  <reaction>  (19) 
rmg_rxn_15678

>  <mol_properties>  (19) 
{"0": {"label": "*3", "atom_type": "Cs"}, "1": {"label": "*4", "atom_type": "O2s"}, "9": {"label": "*1", "atom_type": "Cs"}, "10": {"label": "*0", "atom_type": "N3s"}, "14": {"label": "*2", "atom_type": "H0"}}

>  <type>  (19) 
unop_15

>  <geom_source>  (19) 
Heuristics

$$$$

     RDKit          3D

 18 16  0  0  0  0  0  0  0  0999 V2000
    1.4742    1.6568   -0.2793 C   0  0  0  0  0  0  0  0  0  0  0  0
    1.8548    0.4475    0.3239 O   0  0  0  0  0  0  0  0  0  0  0  0
    1.1611   -0.6270   -0.2196 N   0  0  0  0  0  0  0  0  0  0  0  0
    1.4603   -1.7663    0.2497 C   0  0  0  0  0  0  0  0  0  0  0  0
    0.4188    1.8476   -0.2608 H   0  0  0  0  0  0  0  0  0  0  0  0
    2.0597    2.4406    0.1836 H   0  0  0  0  0  0  0  0  0  0  0  0
    0.9266   -2.6085   -0.1530 H   0  0  0  0  0  0  0  0  0  0  0  0
    2.2065   -1.9279    1.0185 H   0  0  0  0  0  0  0  0  0  0  0  0
   -2.0496    0.3588    1.2266 C   0  0  0  0  0  0  0  0  0  0  0  0
   -2.4731   -0.1501   -0.0986 C   0  0  0  0  0  3  0  0  0  0  0  0
   -1.5839   -0.0970   -1.1598 N   0  0  0  0  0  0  0  0  0  0  0  0
   -1.0055    0.1072    1.4110 H   0  0  0  0  0  0  0  0  0  0  0  0
   -2.6622   -0.0789    2.0137 H   0  0  0  0  0  0  0  0  0  0  0  0
   -2.1447    1.4500    1.3095 H   0  0  0  0  0  0  0  0  0  0  0  0
    1.5634    1.6550   -1.3727 H   0  0  0  0  0  0  0  0  0  0  0  0
   -3.5194   -0.2074   -0.3437 H   0  0  0  0  0  0  0  0  0  0  0  0
   -1.8718   -0.6243   -1.9722 H   0  0  0  0  0  0  0  0  0  0  0  0
   -0.6129   -0.2766   -0.8954 H   0  0  0  0  0  0  0  0  0  0  0  0
  1  2  1  0
  1  5  1  0
  1  6  1  0
  1 15  1  0
  2  3  1  0
  3  4  2  3
  4  7  1  0
  4  8  1  0
  9 10  1  0
  9 12  1  0
  9 13  1  0
  9 14  1  0
 10 11  1  0
 10 16  1  0
 11 17  1  0
 11 18  1  0
M  RAD  1  10   2
M  END
>  <reaction>  (20) 
rmg_rxn_15678

>  <mol_properties>  (20) 
{"0": {"label": "*3", "atom_type": "Cs"}, "1": {"label": "*4", "atom_type": "O2s"}, "9": {"label": "*1", "atom_type": "Cs"}, "10": {"label": "*0", "atom_type": "N3s"}, "14": {"label": "*2", "atom_type": "H0"}}

>  <type>  (20) 
unop_16

>  <geom_source>  (20) 
Heuristics

$$$$

     RDKit          3D

 18 16  0  0  0  0  0  0  0  0999 V2000
    0.1405   -1.2252    0.1255 C   0  0  0  0  0  0  0  0  0  0  0  0
    1.1676   -0.2618    0.2542 O   0  0  0  0  0  0  0  0  0  0  0  0
    1.9083   -0.5224    1.3821 N   0  0  0  0  0  0  0  0  0  0  0  0
    2.8416    0.3147    1.5404 C   0  0  0  0  0  0  0  0  0  0  0  0
    0.5574   -2.2300    0.0266 H   0  0  0  0  0  0  0  0  0  0  0  0
   -0.5349   -1.1931    0.9834 H   0  0  0  0  0  0  0  0  0  0  0  0
    3.4728    0.1787    2.4084 H   0  0  0  0  0  0  0  0  0  0  0  0
    3.0156    1.1363    0.8489 H   0  0  0  0  0  0  0  0  0  0  0  0
   -1.9513    0.0807   -2.2783 C   0  0  0  0  0  0  0  0  0  0  0  0
   -1.9513    0.0807   -0.7530 C   0  0  0  0  0  3  0  0  0  0  0  0
   -1.9513    1.3946   -0.1236 N   0  0  0  0  0  0  0  0  0  0  0  0
   -1.0679    0.5939   -2.6665 H   0  0  0  0  0  0  0  0  0  0  0  0
   -2.8347    0.5939   -2.6665 H   0  0  0  0  0  0  0  0  0  0  0  0
   -1.9513   -0.9370   -2.6756 H   0  0  0  0  0  0  0  0  0  0  0  0
   -0.9034   -0.5735   -0.3129 H   0  0  0  0  0  0  0  0  0  0  0  0
   -2.8246   -0.4645   -0.3863 H   0  0  0  0  0  0  0  0  0  0  0  0
   -2.7639    1.9249   -0.4112 H   0  0  0  0  0  0  0  0  0  0  0  0
   -1.1387    1.9249   -0.4112 H   0  0  0  0  0  0  0  0  0  0  0  0
  1  2  1  0
  1  5  1  0
  1  6  1  0
  1 15  1  0
  2  3  1  0
  3  4  2  3
  4  7  1  0
  4  8  1  0
  9 10  1  0
  9 12  1  0
  9 13  1  0
  9 14  1  0
 10 11  1  0
 10 16  1  0
 11 17  1  0
 11 18  1  0
M  RAD  1  10   2
M  END
>  <reaction>  (21) 
rmg_rxn_15678

>  <mol_properties>  (21) 
{"0": {"label": "*3", "atom_type": "Cs"}, "1": {"label": "*4", "atom_type": "O2s"}, "9": {"label": "*1", "atom_type": "Cs"}, "10": {"label": "*0", "atom_type": "N3s"}, "14": {"label": "*2", "atom_type": "H0"}}

>  <type>  (21) 
unop_17

>  <geom_source>  (21) 
Heuristics

$$$$

     RDKit          3D

 18 16  0  0  0  0  0  0  0  0999 V2000
    0.4018   -1.6016    0.4537 C   0  0  0  0  0  0  0  0  0  0  0  0
    1.3700   -0.8484   -0.2192 O   0  0  0  0  0  0  0  0  0  0  0  0
    1.4124    0.4538    0.2383 N   0  0  0  0  0  0  0  0  0  0  0  0
    2.2868    1.1990   -0.2885 C   0  0  0  0  0  0  0  0  0  0  0  0
    0.3738   -2.5747   -0.0230 H   0  0  0  0  0  0  0  0  0  0  0  0
    0.5872   -1.6631    1.5261 H   0  0  0  0  0  0  0  0  0  0  0  0
    2.3315    2.2137    0.0656 H   0  0  0  0  0  0  0  0  0  0  0  0
    2.9802    0.8783   -1.0596 H   0  0  0  0  0  0  0  0  0  0  0  0
   -1.8829    0.1148   -1.3259 C   0  0  0  0  0  0  0  0  0  0  0  0
   -1.8350   -0.2044    0.1480 C   0  0  0  0  0  3  0  0  0  0  0  0
   -1.7055    0.9465    0.9636 N   0  0  0  0  0  0  0  0  0  0  0  0
   -0.9828    0.6481   -1.6262 H   0  0  0  0  0  0  0  0  0  0  0  0
   -2.7435    0.7432   -1.5606 H   0  0  0  0  0  0  0  0  0  0  0  0
   -1.9544   -0.8011   -1.9069 H   0  0  0  0  0  0  0  0  0  0  0  0
   -0.7562   -0.9953    0.3029 H   0  0  0  0  0  0  0  0  0  0  0  0
   -2.6719   -0.8178    0.4817 H   0  0  0  0  0  0  0  0  0  0  0  0
   -1.6618    0.7300    1.9503 H   0  0  0  0  0  0  0  0  0  0  0  0
   -0.9098    1.5127    0.6939 H   0  0  0  0  0  0  0  0  0  0  0  0
  1  2  1  0
  1  5  1  0
  1  6  1  0
  1 15  1  0
  2  3  1  0
  3  4  2  3
  4  7  1  0
  4  8  1  0
  9 10  1  0
  9 12  1  0
  9 13  1  0
  9 14  1  0
 10 11  1  0
 10 16  1  0
 11 17  1  0
 11 18  1  0
M  RAD  1  10   2
M  END
>  <reaction>  (22) 
rmg_rxn_15678

>  <mol_properties>  (22) 
{"0": {"label": "*3", "atom_type": "Cs"}, "1": {"label": "*4", "atom_type": "O2s"}, "9": {"label": "*1", "atom_type": "Cs"}, "10": {"label": "*0", "atom_type": "N3s"}, "14": {"label": "*2", "atom_type": "H0"}}

>  <type>  (22) 
unop_18

>  <geom_source>  (22) 
Heuristics

$$$$

     RDKit          3D

 18 16  0  0  0  0  0  0  0  0999 V2000
    0.5321    0.0407    0.8995 C   0  0  0  0  0  0  0  0  0  0  0  0
    0.8136   -0.9374   -0.0822 O   0  0  0  0  0  0  0  0  0  0  0  0
    1.6084   -1.9200    0.4576 N   0  0  0  0  0  0  0  0  0  0  0  0
    1.8879   -2.8197   -0.3845 C   0  0  0  0  0  0  0  0  0  0  0  0
   -0.0049   -0.3969    1.7442 H   0  0  0  0  0  0  0  0  0  0  0  0
    1.4506    0.5123    1.2558 H   0  0  0  0  0  0  0  0  0  0  0  0
    2.5120   -3.6321   -0.0369 H   0  0  0  0  0  0  0  0  0  0  0  0
    1.5277   -2.7943   -1.4108 H   0  0  0  0  0  0  0  0  0  0  0  0
   -1.5598    1.3465   -1.5043 C   0  0  0  0  0  0  0  0  0  0  0  0
   -1.5598    1.3465    0.0210 C   0  0  0  0  0  3  0  0  0  0  0  0
   -1.5598    2.6604    0.6504 N   0  0  0  0  0  0  0  0  0  0  0  0
   -0.6764    1.8597   -1.8925 H   0  0  0  0  0  0  0  0  0  0  0  0
   -2.4432    1.8597   -1.8925 H   0  0  0  0  0  0  0  0  0  0  0  0
   -1.5598    0.3288   -1.9016 H   0  0  0  0  0  0  0  0  0  0  0  0
   -0.5118    0.6923    0.4611 H   0  0  0  0  0  0  0  0  0  0  0  0
   -2.4331    0.8014    0.3877 H   0  0  0  0  0  0  0  0  0  0  0  0
   -2.3724    3.1907    0.3628 H   0  0  0  0  0  0  0  0  0  0  0  0
   -0.7472    3.1907    0.3628 H   0  0  0  0  0  0  0  0  0  0  0  0
  1  2  1  0
  1  5  1  0
  1  6  1  0
  1 15  1  0
  2  3  1  0
  3  4  2  3
  4  7  1  0
  4  8  1  0
  9 10  1  0
  9 12  1  0
  9 13  1  0
  9 14  1  0
 10 11  1  0
 10 16  1  0
 11 17  1  0
 11 18  1  0
M  RAD  1  10   2
M  END
>  <reaction>  (23) 
rmg_rxn_15678

>  <mol_properties>  (23) 
{"0": {"label": "*3", "atom_type": "Cs"}, "1": {"label": "*4", "atom_type": "O2s"}, "9": {"label": "*1", "atom_type": "Cs"}, "10": {"label": "*0", "atom_type": "N3s"}, "14": {"label": "*2", "atom_type": "H0"}}

>  <type>  (23) 
unop_19

>  <geom_source>  (23) 
Heuristics

$$$$

     RDKit          3D

 18 16  0  0  0  0  0  0  0  0999 V2000
    0.0001   -1.1206    0.5449 C   0  0  0  0  0  0  0  0  0  0  0  0
    1.1244   -0.4329    0.0324 O   0  0  0  0  0  0  0  0  0  0  0  0
    2.1713   -0.5328    0.9172 N   0  0  0  0  0  0  0  0  0  0  0  0
    3.2022    0.0683    0.5018 C   0  0  0  0  0  0  0  0  0  0  0  0
    0.2206   -2.1814    0.6830 H   0  0  0  0  0  0  0  0  0  0  0  0
   -0.3229   -0.6882    1.4946 H   0  0  0  0  0  0  0  0  0  0  0  0
    4.0731    0.0368    1.1428 H   0  0  0  0  0  0  0  0  0  0  0  0
    3.2300    0.5954   -0.4494 H   0  0  0  0  0  0  0  0  0  0  0  0
   -2.0917    0.1853   -1.8590 C   0  0  0  0  0  0  0  0  0  0  0  0
   -2.0917    0.1853   -0.3337 C   0  0  0  0  0  3  0  0  0  0  0  0
   -2.0917    1.4992    0.2958 N   0  0  0  0  0  0  0  0  0  0  0  0
   -1.2084    0.6985   -2.2472 H   0  0  0  0  0  0  0  0  0  0  0  0
   -2.9751    0.6985   -2.2472 H   0  0  0  0  0  0  0  0  0  0  0  0
   -2.0917   -0.8324   -2.2562 H   0  0  0  0  0  0  0  0  0  0  0  0
   -1.0438   -0.4689    0.1064 H   0  0  0  0  0  0  0  0  0  0  0  0
   -2.9650   -0.3599    0.0331 H   0  0  0  0  0  0  0  0  0  0  0  0
   -2.9043    2.0295    0.0082 H   0  0  0  0  0  0  0  0  0  0  0  0
   -1.2791    2.0295    0.0082 H   0  0  0  0  0  0  0  0  0  0  0  0
  1  2  1  0
  1  5  1  0
  1  6  1  0
  1 15  1  0
  2  3  1  0
  3  4  2  3
  4  7  1  0
  4  8  1  0
  9 10  1  0
  9 12  1  0
  9 13  1  0
  9 14  1  0
 10 11  1  0
 10 16  1  0
 11 17  1  0
 11 18  1  0
M  RAD  1  10   2
M  END
>  <reaction>  (24) 
rmg_rxn_15678

>  <mol_properties>  (24) 
{"0": {"label": "*3", "atom_type": "Cs"}, "1": {"label": "*4", "atom_type": "O2s"}, "9": {"label": "*1", "atom_type": "Cs"}, "10": {"label": "*0", "atom_type": "N3s"}, "14": {"label": "*2", "atom_type": "H0"}}

>  <type>  (24) 
unop_20

>  <geom_source>  (24) 
Heuristics

$$$$

     RDKit          3D

 18 16  0  0  0  0  0  0  0  0999 V2000
    0.8092   -0.4148   -0.3847 C   0  0  0  0  0  0  0  0  0  0  0  0
    0.4196   -0.9739    0.8543 O   0  0  0  0  0  0  0  0  0  0  0  0
    1.5270   -1.1619    1.6463 N   0  0  0  0  0  0  0  0  0  0  0  0
    1.2285   -1.6613    2.7680 C   0  0  0  0  0  0  0  0  0  0  0  0
    1.2867    0.5572   -0.2419 H   0  0  0  0  0  0  0  0  0  0  0  0
    1.4912   -1.0817   -0.9170 H   0  0  0  0  0  0  0  0  0  0  0  0
    2.0471   -1.8409    3.4520 H   0  0  0  0  0  0  0  0  0  0  0  0
    0.2057   -1.9043    3.0480 H   0  0  0  0  0  0  0  0  0  0  0  0
   -1.2826    0.8911   -2.7885 C   0  0  0  0  0  0  0  0  0  0  0  0
   -1.2826    0.8911   -1.2632 C   0  0  0  0  0  3  0  0  0  0  0  0
   -1.2826    2.2050   -0.6338 N   0  0  0  0  0  0  0  0  0  0  0  0
   -0.3992    1.4042   -3.1767 H   0  0  0  0  0  0  0  0  0  0  0  0
   -2.1660    1.4042   -3.1767 H   0  0  0  0  0  0  0  0  0  0  0  0
   -1.2826   -0.1267   -3.1858 H   0  0  0  0  0  0  0  0  0  0  0  0
   -0.2347    0.2368   -0.8231 H   0  0  0  0  0  0  0  0  0  0  0  0
   -2.1559    0.3459   -0.8965 H   0  0  0  0  0  0  0  0  0  0  0  0
   -2.0952    2.7352   -0.9214 H   0  0  0  0  0  0  0  0  0  0  0  0
   -0.4700    2.7352   -0.9214 H   0  0  0  0  0  0  0  0  0  0  0  0
  1  2  1  0
  1  5  1  0
  1  6  1  0
  1 15  1  0
  2  3  1  0
  3  4  2  3
  4  7  1  0
  4  8  1  0
  9 10  1  0
  9 12  1  0
  9 13  1  0
  9 14  1  0
 10 11  1  0
 10 16  1  0
 11 17  1  0
 11 18  1  0
M  RAD  1  10   2
M  END
>  <reaction>  (25) 
rmg_rxn_15678

>  <mol_properties>  (25) 
{"0": {"label": "*3", "atom_type": "Cs"}, "1": {"label": "*4", "atom_type": "O2s"}, "9": {"label": "*1", "atom_type": "Cs"}, "10": {"label": "*0", "atom_type": "N3s"}, "14": {"label": "*2", "atom_type": "H0"}}

>  <type>  (25) 
unop_21

>  <geom_source>  (25) 
Heuristics

$$$$

     RDKit          3D

 18 16  0  0  0  0  0  0  0  0999 V2000
    0.2135   -0.3372    1.0416 C   0  0  0  0  0  0  0  0  0  0  0  0
    0.9073   -0.7703   -0.1120 O   0  0  0  0  0  0  0  0  0  0  0  0
    2.0299   -1.4712    0.2587 N   0  0  0  0  0  0  0  0  0  0  0  0
    2.6852   -1.8803   -0.7413 C   0  0  0  0  0  0  0  0  0  0  0  0
   -0.1084   -1.1880    1.6463 H   0  0  0  0  0  0  0  0  0  0  0  0
    0.8364    0.3256    1.6463 H   0  0  0  0  0  0  0  0  0  0  0  0
    3.5858   -2.4425   -0.5338 H   0  0  0  0  0  0  0  0  0  0  0  0
    2.3739   -1.6859   -1.7654 H   0  0  0  0  0  0  0  0  0  0  0  0
   -1.8784    0.9687   -1.3623 C   0  0  0  0  0  0  0  0  0  0  0  0
   -1.8784    0.9687    0.1630 C   0  0  0  0  0  3  0  0  0  0  0  0
   -1.8784    2.2826    0.7925 N   0  0  0  0  0  0  0  0  0  0  0  0
   -0.9950    1.4818   -1.7505 H   0  0  0  0  0  0  0  0  0  0  0  0
   -2.7618    1.4818   -1.7505 H   0  0  0  0  0  0  0  0  0  0  0  0
   -1.8784   -0.0491   -1.7595 H   0  0  0  0  0  0  0  0  0  0  0  0
   -0.8304    0.3145    0.6031 H   0  0  0  0  0  0  0  0  0  0  0  0
   -2.7517    0.4235    0.5298 H   0  0  0  0  0  0  0  0  0  0  0  0
   -2.6910    2.8128    0.5049 H   0  0  0  0  0  0  0  0  0  0  0  0
   -1.0658    2.8128    0.5049 H   0  0  0  0  0  0  0  0  0  0  0  0
  1  2  1  0
  1  5  1  0
  1  6  1  0
  1 15  1  0
  2  3  1  0
  3  4  2  3
  4  7  1  0
  4  8  1  0
  9 10  1  0
  9 12  1  0
  9 13  1  0
  9 14  1  0
 10 11  1  0
 10 16  1  0
 11 17  1  0
 11 18  1  0
M  RAD  1  10   2
M  END
>  <reaction>  (26) 
rmg_rxn_15678

>  <mol_properties>  (26) 
{"0": {"label": "*3", "atom_type": "Cs"}, "1": {"label": "*4", "atom_type": "O2s"}, "9": {"label": "*1", "atom_type": "Cs"}, "10": {"label": "*0", "atom_type": "N3s"}, "14": {"label": "*2", "atom_type": "H0"}}

>  <type>  (26) 
unop_22

>  <geom_source>  (26) 
Heuristics

$$$$

     RDKit          3D

 18 16  0  0  0  0  0  0  0  0999 V2000
    0.4874    1.3705   -0.2919 C   0  0  0  0  0  0  0  0  0  0  0  0
    1.3722    0.8056    0.6341 O   0  0  0  0  0  0  0  0  0  0  0  0
    2.0758   -0.3042    0.3375 N   0  0  0  0  0  0  0  0  0  0  0  0
    1.9737   -0.9063   -0.7704 C   0  0  0  0  0  0  0  0  0  0  0  0
    0.1530    2.3051    0.1451 H   0  0  0  0  0  0  0  0  0  0  0  0
    0.9230    1.5133   -1.2813 H   0  0  0  0  0  0  0  0  0  0  0  0
    2.6006   -1.7727   -0.8876 H   0  0  0  0  0  0  0  0  0  0  0  0
    1.3255   -0.6371   -1.6005 H   0  0  0  0  0  0  0  0  0  0  0  0
   -2.8155    0.5492   -0.1211 C   0  0  0  0  0  0  0  0  0  0  0  0
   -1.5908   -0.2857   -0.4031 C   0  0  0  0  0  3  0  0  0  0  0  0
   -1.3680   -1.2957    0.5631 N   0  0  0  0  0  0  0  0  0  0  0  0
   -3.7157   -0.0670   -0.1357 H   0  0  0  0  0  0  0  0  0  0  0  0
   -2.9194    1.3295   -0.8707 H   0  0  0  0  0  0  0  0  0  0  0  0
   -2.7404    1.0151    0.8598 H   0  0  0  0  0  0  0  0  0  0  0  0
   -0.5631    0.5832   -0.4111 H   0  0  0  0  0  0  0  0  0  0  0  0
   -1.5904   -0.7167   -1.4047 H   0  0  0  0  0  0  0  0  0  0  0  0
   -1.3821   -0.9411    1.5110 H   0  0  0  0  0  0  0  0  0  0  0  0
   -0.5289   -1.8367    0.3989 H   0  0  0  0  0  0  0  0  0  0  0  0
  1  2  1  0
  1  5  1  0
  1  6  1  0
  1 15  1  0
  2  3  1  0
  3  4  2  3
  4  7  1  0
  4  8  1  0
  9 10  1  0
  9 12  1  0
  9 13  1  0
  9 14  1  0
 10 11  1  0
 10 16  1  0
 11 17  1  0
 11 18  1  0
M  RAD  1  10   2
M  END
>  <reaction>  (27) 
rmg_rxn_15678

>  <mol_properties>  (27) 
{"0": {"label": "*3", "atom_type": "Cs"}, "1": {"label": "*4", "atom_type": "O2s"}, "9": {"label": "*1", "atom_type": "Cs"}, "10": {"label": "*0", "atom_type": "N3s"}, "14": {"label": "*2", "atom_type": "H0"}}

>  <type>  (27) 
unop_23

>  <geom_source>  (27) 
Heuristics

$$$$

     RDKit          3D

 18 16  0  0  0  0  0  0  0  0999 V2000
   -1.5783   -0.7122   -0.4168 O   0  0  0  0  0  0  0  0  0  0  0  0
    2.3226    0.1739    0.9888 N   0  0  0  0  0  0  0  0  0  0  0  0
   -2.0135   -0.0926    0.7322 N   0  0  0  0  0  0  0  0  0  0  0  0
    1.0967    1.2175   -0.8532 C   0  0  0  0  0  0  0  0  0  0  0  0
   -0.5071   -1.6388   -0.3672 C   0  0  0  0  0  0  0  0  0  0  0  0
    1.5384   -0.0894   -0.2101 C   0  0  0  0  0  3  0  0  0  0  0  0
   -2.9896    0.7529    0.6922 C   0  0  0  0  0  0  0  0  0  0  0  0
    0.4611    1.7925   -0.1474 H   0  0  0  0  0  0  0  0  0  0  0  0
    0.5061    0.9977   -1.7669 H   0  0  0  0  0  0  0  0  0  0  0  0
    1.9830    1.8261   -1.1321 H   0  0  0  0  0  0  0  0  0  0  0  0
   -0.7809   -2.4956    0.2836 H   0  0  0  0  0  0  0  0  0  0  0  0
   -0.2958   -2.0111   -1.3906 H   0  0  0  0  0  0  0  0  0  0  0  0
    0.5711   -1.0467    0.1116 H   0  0  0  0  0  0  0  0  0  0  0  0
    2.1463   -0.6709   -0.9373 H   0  0  0  0  0  0  0  0  0  0  0  0
    1.6643    0.5237    1.7217 H   0  0  0  0  0  0  0  0  0  0  0  0
    2.6775   -0.7464    1.3347 H   0  0  0  0  0  0  0  0  0  0  0  0
   -3.3226    1.2333    1.6019 H   0  0  0  0  0  0  0  0  0  0  0  0
   -3.4790    0.9860   -0.2451 H   0  0  0  0  0  0  0  0  0  0  0  0
  1  5  1  0
  1  3  1  0
  2  6  1  0
  2 15  1  0
  2 16  1  0
  3  7  2  3
  4  6  1  0
  4  8  1  0
  4  9  1  0
  4 10  1  0
  5 11  1  0
  5 12  1  0
  5 13  1  0
  6 14  1  0
  7 17  1  0
  7 18  1  0
M  RAD  1   6   2
M  END
>  <reaction>  (28) 
rmg_rxn_15678

>  <mol_properties>  (28) 
{"0": {"label": "*3", "atom_type": "Cs"}, "1": {"label": "*4", "atom_type": "O2s"}, "9": {"label": "*1", "atom_type": "Cs"}, "10": {"label": "*0", "atom_type": "N3s"}, "14": {"label": "*2", "atom_type": "H0"}}

>  <type>  (28) 
unop_24

>  <geom_source>  (28) 
AutoTST

$$$$

     RDKit          3D

 18 16  0  0  0  0  0  0  0  0999 V2000
    0.0139   -0.7894    0.8995 C   0  0  0  0  0  0  0  0  0  0  0  0
    1.0162   -0.6128   -0.0822 O   0  0  0  0  0  0  0  0  0  0  0  0
    2.2481   -0.8955    0.4576 N   0  0  0  0  0  0  0  0  0  0  0  0
    3.1791   -0.7514   -0.3845 C   0  0  0  0  0  0  0  0  0  0  0  0
   -0.0065   -1.8218    1.2558 H   0  0  0  0  0  0  0  0  0  0  0  0
    0.1712   -0.1148    1.7442 H   0  0  0  0  0  0  0  0  0  0  0  0
    4.1830   -0.9554   -0.0370 H   0  0  0  0  0  0  0  0  0  0  0  0
    2.9981   -0.4390   -1.4108 H   0  0  0  0  0  0  0  0  0  0  0  0
   -2.0780    0.5165   -1.5043 C   0  0  0  0  0  0  0  0  0  0  0  0
   -2.0780    0.5165    0.0210 C   0  0  0  0  0  3  0  0  0  0  0  0
   -2.0780    1.8304    0.6504 N   0  0  0  0  0  0  0  0  0  0  0  0
   -1.1946    1.0296   -1.8925 H   0  0  0  0  0  0  0  0  0  0  0  0
   -2.9613    1.0296   -1.8925 H   0  0  0  0  0  0  0  0  0  0  0  0
   -2.0780   -0.5012   -1.9016 H   0  0  0  0  0  0  0  0  0  0  0  0
   -1.0300   -0.1377    0.4611 H   0  0  0  0  0  0  0  0  0  0  0  0
   -2.9512   -0.0287    0.3877 H   0  0  0  0  0  0  0  0  0  0  0  0
   -2.8906    2.3607    0.3628 H   0  0  0  0  0  0  0  0  0  0  0  0
   -1.2654    2.3607    0.3628 H   0  0  0  0  0  0  0  0  0  0  0  0
  1  2  1  0
  1  5  1  0
  1  6  1  0
  1 15  1  0
  2  3  1  0
  3  4  2  3
  4  7  1  0
  4  8  1  0
  9 10  1  0
  9 12  1  0
  9 13  1  0
  9 14  1  0
 10 11  1  0
 10 16  1  0
 11 17  1  0
 11 18  1  0
M  RAD  1  10   2
M  END
>  <reaction>  (29) 
rmg_rxn_15678

>  <mol_properties>  (29) 
{"0": {"label": "*3", "atom_type": "Cs"}, "1": {"label": "*4", "atom_type": "O2s"}, "9": {"label": "*1", "atom_type": "Cs"}, "10": {"label": "*0", "atom_type": "N3s"}, "14": {"label": "*2", "atom_type": "H0"}}

>  <type>  (29) 
unop_25

>  <geom_source>  (29) 
gaussian_log

$$$$
