
     RDKit          3D

  8  7  0  0  0  0  0  0  0  0999 V2000
    0.9548    0.1194   -0.0790 C   0  0  0  0  0  0  0  0  0  0  0  0
   -0.4838   -0.2649    0.0193 C   0  0  0  0  0  0  0  0  0  0  0  0
   -0.8933   -1.1081    0.8664 N   0  0  0  0  0  0  0  0  0  0  0  0
    1.3360   -0.0983   -1.0800 H   0  0  0  0  0  0  0  0  0  0  0  0
    1.0698    1.1948    0.0786 H   0  0  0  0  0  0  0  0  0  0  0  0
    1.5426   -0.4219    0.6602 H   0  0  0  0  0  0  0  0  0  0  0  0
   -1.1575    0.2324   -0.6905 H   0  0  0  0  0  0  0  0  0  0  0  0
   -1.8989   -1.2455    0.7886 H   0  0  0  0  0  0  0  0  0  0  0  0
  1  2  1  0
  1  4  1  0
  1  5  1  0
  1  6  1  0
  2  3  2  3
  2  7  1  0
  3  8  1  0
M  END
>  <reaction>  (1) 
rmg_rxn_16531

>  <mol_properties>  (1) 
{"2": {"label": "donator", "atom_type": "N3d"}, "7": {"label": "d_hydrogen", "atom_type": "H0"}}

>  <type>  (1) 
r1h

$$$$

     RDKit          3D

 14 13  0  0  0  0  0  0  0  0999 V2000
   -2.2399   -0.0166   -0.1883 C   0  0  0  0  0  0  0  0  0  0  0  0
   -1.3469   -1.1905   -0.0279 C   0  0  0  0  0  3  0  0  0  0  0  0
   -1.6654   -2.2692    0.9493 C   0  0  0  0  0  0  0  0  0  0  0  0
   -2.0490   -1.7958    2.2240 O   0  0  0  0  0  0  0  0  0  0  0  0
   -0.9990   -1.1771    2.9198 C   0  0  0  0  0  0  0  0  0  0  0  0
   -2.6700    0.2862    0.7685 H   0  0  0  0  0  0  0  0  0  0  0  0
   -3.0850   -0.2450   -0.8547 H   0  0  0  0  0  0  0  0  0  0  0  0
   -1.7143    0.8346   -0.6240 H   0  0  0  0  0  0  0  0  0  0  0  0
   -0.5797   -1.3809   -0.7686 H   0  0  0  0  0  0  0  0  0  0  0  0
   -2.5244   -2.8609    0.6038 H   0  0  0  0  0  0  0  0  0  0  0  0
   -0.8142   -2.9586    1.0411 H   0  0  0  0  0  0  0  0  0  0  0  0
   -0.6226   -0.2923    2.3915 H   0  0  0  0  0  0  0  0  0  0  0  0
   -1.3883   -0.8732    3.8905 H   0  0  0  0  0  0  0  0  0  0  0  0
   -0.1599   -1.8693    3.0725 H   0  0  0  0  0  0  0  0  0  0  0  0
  1  2  1  0
  1  6  1  0
  1  7  1  0
  1  8  1  0
  2  3  1  0
  2  9  1  0
  3  4  1  0
  3 10  1  0
  3 11  1  0
  4  5  1  0
  5 12  1  0
  5 13  1  0
  5 14  1  0
M  RAD  1   2   2
M  END
>  <reaction>  (2) 
rmg_rxn_16531

>  <mol_properties>  (2) 
{"1": {"label": "acceptor", "atom_type": "Cs"}}

>  <type>  (2) 
r2

$$$$

     RDKit          3D

 15 14  0  0  0  0  0  0  0  0999 V2000
   -1.2811   -0.4129    1.0228 C   0  0  0  0  0  0  0  0  0  0  0  0
   -1.0023   -0.5809   -0.4650 C   0  0  0  0  0  0  0  0  0  0  0  0
   -2.0576    0.0568   -1.3449 C   0  0  0  0  0  0  0  0  0  0  0  0
   -2.0663    1.4464   -1.1307 O   0  0  0  0  0  0  0  0  0  0  0  0
   -3.0424    2.1072   -1.8849 C   0  0  0  0  0  0  0  0  0  0  0  0
   -2.2382   -0.8657    1.2935 H   0  0  0  0  0  0  0  0  0  0  0  0
   -1.3219    0.6426    1.2914 H   0  0  0  0  0  0  0  0  0  0  0  0
   -0.5042   -0.8881    1.6236 H   0  0  0  0  0  0  0  0  0  0  0  0
   -0.0316   -0.1460   -0.7167 H   0  0  0  0  0  0  0  0  0  0  0  0
   -0.9494   -1.6429   -0.7203 H   0  0  0  0  0  0  0  0  0  0  0  0
   -1.8518   -0.1570   -2.4041 H   0  0  0  0  0  0  0  0  0  0  0  0
   -3.0491   -0.3636   -1.1124 H   0  0  0  0  0  0  0  0  0  0  0  0
   -4.0521    1.7545   -1.6343 H   0  0  0  0  0  0  0  0  0  0  0  0
   -2.8850    1.9634   -2.9626 H   0  0  0  0  0  0  0  0  0  0  0  0
   -2.9730    3.1700   -1.6570 H   0  0  0  0  0  0  0  0  0  0  0  0
  1  2  1  0
  1  6  1  0
  1  7  1  0
  1  8  1  0
  2  3  1  0
  2  9  1  0
  2 10  1  0
  3  4  1  0
  3 11  1  0
  3 12  1  0
  4  5  1  0
  5 13  1  0
  5 14  1  0
  5 15  1  0
M  END
>  <reaction>  (3) 
rmg_rxn_16531

>  <mol_properties>  (3) 
{"0": {"label": "a_hydrogen", "atom_type": "H0"}, "2": {"label": "acceptor", "atom_type": "Cs"}}

>  <type>  (3) 
r2h

$$$$

     RDKit          3D

 22 20  0  0  0  0  0  0  0  0999 V2000
   -0.6667   -0.7763   -3.2408 C   0  0  0  0  0  0  0  0  0  0  0  0
   -0.6410   -0.6295   -1.7493 C   0  0  0  0  0  0  0  0  0  0  0  0
   -1.6887   -0.4394   -1.0809 N   0  0  0  0  0  0  0  0  0  0  0  0
   -0.0443   -0.0051   -3.7008 H   0  0  0  0  0  0  0  0  0  0  0  0
   -0.2467   -1.7437   -3.5266 H   0  0  0  0  0  0  0  0  0  0  0  0
   -1.6840   -0.6960   -3.6197 H   0  0  0  0  0  0  0  0  0  0  0  0
    0.3428   -0.6866   -1.2692 H   0  0  0  0  0  0  0  0  0  0  0  0
   -1.3800   -0.3697    0.1050 H   0  0  0  0  0  0  0  0  0  0  0  0
   -0.3432   -1.7066    1.6774 C   0  0  0  0  0  0  0  0  0  0  0  0
   -0.9171   -0.3455    1.3966 C   0  0  0  0  0  3  0  0  0  0  0  0
    0.0153    0.8234    1.5063 C   0  0  0  0  0  0  0  0  0  0  0  0
    1.1689    0.5987    0.7305 O   0  0  0  0  0  0  0  0  0  0  0  0
    2.0835    1.6570    0.7990 C   0  0  0  0  0  0  0  0  0  0  0  0
    0.5248   -1.9055    1.0480 H   0  0  0  0  0  0  0  0  0  0  0  0
   -1.0846   -2.4864    1.5004 H   0  0  0  0  0  0  0  0  0  0  0  0
   -0.0148   -1.7873    2.7206 H   0  0  0  0  0  0  0  0  0  0  0  0
   -1.8599   -0.1476    1.9072 H   0  0  0  0  0  0  0  0  0  0  0  0
   -0.4898    1.7423    1.1755 H   0  0  0  0  0  0  0  0  0  0  0  0
    0.3083    0.9767    2.5608 H   0  0  0  0  0  0  0  0  0  0  0  0
    2.4294    1.8221    1.8280 H   0  0  0  0  0  0  0  0  0  0  0  0
    2.9385    1.3952    0.1770 H   0  0  0  0  0  0  0  0  0  0  0  0
    1.6446    2.5922    0.4273 H   0  0  0  0  0  0  0  0  0  0  0  0
  1  2  1  0
  1  4  1  0
  1  5  1  0
  1  6  1  0
  2  3  2  3
  2  7  1  0
  3  8  1  0
  9 10  1  0
  9 14  1  0
  9 15  1  0
  9 16  1  0
 10 11  1  0
 10 17  1  0
 11 12  1  0
 11 18  1  0
 11 19  1  0
 12 13  1  0
 13 20  1  0
 13 21  1  0
 13 22  1  0
M  RAD  1  10   2
M  END
>  <reaction>  (4) 
rmg_rxn_16531

>  <mol_properties>  (4) 
{"1": {"label": "*0", "atom_type": "Cd"}, "2": {"label": "*1", "atom_type": "N3d"}, "7": {"label": "*2", "atom_type": "H0"}, "9": {"label": "*3", "atom_type": "Cs"}, "10": {"label": "*4", "atom_type": "Cs"}}

>  <type>  (4) 
ts

$$$$

     RDKit          3D

 22 20  0  0  0  0  0  0  0  0999 V2000
   -3.4356   -0.3553    0.1642 C   0  0  0  0  0  0  0  0  0  0  0  0
   -1.9557   -0.1143    0.1265 C   0  0  0  0  0  0  0  0  0  0  0  0
   -1.4518    0.8214   -0.5127 N   0  0  0  0  0  0  0  0  0  0  0  0
   -3.6476   -1.3484   -0.2286 H   0  0  0  0  0  0  0  0  0  0  0  0
   -3.7801   -0.3163    1.1964 H   0  0  0  0  0  0  0  0  0  0  0  0
   -3.9577    0.3926   -0.4261 H   0  0  0  0  0  0  0  0  0  0  0  0
   -1.3725   -0.8402    0.7074 H   0  0  0  0  0  0  0  0  0  0  0  0
   -0.2071    0.8963   -0.4435 H   0  0  0  0  0  0  0  0  0  0  0  0
    1.4186    2.3782    0.0410 C   0  0  0  0  0  0  0  0  0  0  0  0
    1.0885    0.9590   -0.3452 C   0  0  0  0  0  3  0  0  0  0  0  0
    1.5157   -0.0668    0.6839 C   0  0  0  0  0  0  0  0  0  0  0  0
    1.0193   -1.3728    0.4697 O   0  0  0  0  0  0  0  0  0  0  0  0
    1.5523   -2.0286   -0.6531 C   0  0  0  0  0  0  0  0  0  0  0  0
    0.9893    2.6243    1.0100 H   0  0  0  0  0  0  0  0  0  0  0  0
    1.0253    3.0713   -0.6980 H   0  0  0  0  0  0  0  0  0  0  0  0
    2.4998    2.5246    0.1045 H   0  0  0  0  0  0  0  0  0  0  0  0
    1.4387    0.7158   -1.3468 H   0  0  0  0  0  0  0  0  0  0  0  0
    2.6208   -0.1024    0.7403 H   0  0  0  0  0  0  0  0  0  0  0  0
    1.1366    0.2165    1.6709 H   0  0  0  0  0  0  0  0  0  0  0  0
    1.2218   -3.0640   -0.5880 H   0  0  0  0  0  0  0  0  0  0  0  0
    1.1889   -1.5965   -1.5915 H   0  0  0  0  0  0  0  0  0  0  0  0
    2.6488   -1.9966   -0.6454 H   0  0  0  0  0  0  0  0  0  0  0  0
  1  2  1  0
  1  4  1  0
  1  5  1  0
  1  6  1  0
  2  3  2  3
  2  7  1  0
  3  8  1  0
  9 10  1  0
  9 14  1  0
  9 15  1  0
  9 16  1  0
 10 11  1  0
 10 17  1  0
 11 12  1  0
 11 18  1  0
 11 19  1  0
 12 13  1  0
 13 20  1  0
 13 21  1  0
 13 22  1  0
M  RAD  1  10   2
M  END
>  <reaction>  (5) 
rmg_rxn_16531

>  <mol_properties>  (5) 
{"1": {"label": "*0", "atom_type": "Cd"}, "2": {"label": "*1", "atom_type": "N3d"}, "7": {"label": "*2", "atom_type": "H0"}, "9": {"label": "*3", "atom_type": "Cs"}, "10": {"label": "*4", "atom_type": "Cs"}}

>  <type>  (5) 
unop_1

>  <geom_source>  (5) 
crest_best.xyz

$$$$

     RDKit          3D

 22 20  0  0  0  0  0  0  0  0999 V2000
    0.2990   -1.3691   -3.1345 C   0  0  0  0  0  0  0  0  0  0  0  0
    0.2990   -1.3691   -1.6422 C   0  0  0  0  0  0  0  0  0  0  0  0
    0.2990   -0.2964   -0.9745 N   0  0  0  0  0  0  0  0  0  0  0  0
    1.1772   -1.8991   -3.5119 H   0  0  0  0  0  0  0  0  0  0  0  0
   -0.5793   -1.8991   -3.5119 H   0  0  0  0  0  0  0  0  0  0  0  0
    0.2990   -0.3485   -3.5131 H   0  0  0  0  0  0  0  0  0  0  0  0
    0.2990   -2.3588   -1.1675 H   0  0  0  0  0  0  0  0  0  0  0  0
    0.2990   -0.5266    0.2251 H   0  0  0  0  0  0  0  0  0  0  0  0
    1.5375   -0.1701    2.1620 C   0  0  0  0  0  0  0  0  0  0  0  0
    0.2990   -0.7738    1.5132 C   0  0  0  0  0  3  0  0  0  0  0  0
   -0.8209    0.2278    1.3200 C   0  0  0  0  0  0  0  0  0  0  0  0
   -0.3991    1.2341    0.4331 O   0  0  0  0  0  0  0  0  0  0  0  0
   -1.3696    2.2211    0.2287 C   0  0  0  0  0  0  0  0  0  0  0  0
    1.9381    0.6390    1.5513 H   0  0  0  0  0  0  0  0  0  0  0  0
    2.3190   -0.9206    2.2892 H   0  0  0  0  0  0  0  0  0  0  0  0
    1.3013    0.2383    3.1477 H   0  0  0  0  0  0  0  0  0  0  0  0
   -0.0857   -1.5931    2.1269 H   0  0  0  0  0  0  0  0  0  0  0  0
   -1.7156   -0.2720    0.9202 H   0  0  0  0  0  0  0  0  0  0  0  0
   -1.1002    0.6750    2.2874 H   0  0  0  0  0  0  0  0  0  0  0  0
   -1.6290    2.7312    1.1663 H   0  0  0  0  0  0  0  0  0  0  0  0
   -0.9580    2.9504   -0.4679 H   0  0  0  0  0  0  0  0  0  0  0  0
   -2.2893    1.7997   -0.1997 H   0  0  0  0  0  0  0  0  0  0  0  0
  1  2  1  0
  1  4  1  0
  1  5  1  0
  1  6  1  0
  2  3  2  3
  2  7  1  0
  3  8  1  0
  9 10  1  0
  9 14  1  0
  9 15  1  0
  9 16  1  0
 10 11  1  0
 10 17  1  0
 11 12  1  0
 11 18  1  0
 11 19  1  0
 12 13  1  0
 13 20  1  0
 13 21  1  0
 13 22  1  0
M  RAD  1  10   2
M  END
>  <reaction>  (6) 
rmg_rxn_16531

>  <mol_properties>  (6) 
{"1": {"label": "*0", "atom_type": "Cd"}, "2": {"label": "*1", "atom_type": "N3d"}, "7": {"label": "*2", "atom_type": "H0"}, "9": {"label": "*3", "atom_type": "Cs"}, "10": {"label": "*4", "atom_type": "Cs"}}

>  <type>  (6) 
unop_2

>  <geom_source>  (6) 
Heuristics

$$$$

     RDKit          3D

 22 20  0  0  0  0  0  0  0  0999 V2000
   -0.8318   -0.9573   -3.3752 C   0  0  0  0  0  0  0  0  0  0  0  0
   -0.8318   -0.9573   -1.8828 C   0  0  0  0  0  0  0  0  0  0  0  0
   -0.8318    0.1153   -1.2152 N   0  0  0  0  0  0  0  0  0  0  0  0
    0.0465   -1.4873   -3.7526 H   0  0  0  0  0  0  0  0  0  0  0  0
   -1.7100   -1.4873   -3.7526 H   0  0  0  0  0  0  0  0  0  0  0  0
   -0.8318    0.0633   -3.7538 H   0  0  0  0  0  0  0  0  0  0  0  0
   -0.8318   -1.9470   -1.4082 H   0  0  0  0  0  0  0  0  0  0  0  0
   -0.8318   -0.1149   -0.0156 H   0  0  0  0  0  0  0  0  0  0  0  0
   -0.1167   -1.6770    1.5532 C   0  0  0  0  0  0  0  0  0  0  0  0
   -0.8318   -0.3620    1.2726 C   0  0  0  0  0  3  0  0  0  0  0  0
    0.0050    0.8551    1.6087 C   0  0  0  0  0  0  0  0  0  0  0  0
    1.1458    0.8784    0.7871 O   0  0  0  0  0  0  0  0  0  0  0  0
    1.9918    1.9588    1.0611 C   0  0  0  0  0  0  0  0  0  0  0  0
    0.7996   -1.7511    0.9677 H   0  0  0  0  0  0  0  0  0  0  0  0
   -0.7506   -2.5292    1.3040 H   0  0  0  0  0  0  0  0  0  0  0  0
    0.1522   -1.7567    2.6094 H   0  0  0  0  0  0  0  0  0  0  0  0
   -1.7561   -0.3048    1.8541 H   0  0  0  0  0  0  0  0  0  0  0  0
   -0.5811    1.7742    1.4610 H   0  0  0  0  0  0  0  0  0  0  0  0
    0.3075    0.8260    2.6677 H   0  0  0  0  0  0  0  0  0  0  0  0
    2.3621    1.9283    2.0949 H   0  0  0  0  0  0  0  0  0  0  0  0
    2.8398    1.8958    0.3804 H   0  0  0  0  0  0  0  0  0  0  0  0
    1.4820    2.9195    0.9063 H   0  0  0  0  0  0  0  0  0  0  0  0
  1  2  1  0
  1  4  1  0
  1  5  1  0
  1  6  1  0
  2  3  2  3
  2  7  1  0
  3  8  1  0
  9 10  1  0
  9 14  1  0
  9 15  1  0
  9 16  1  0
 10 11  1  0
 10 17  1  0
 11 12  1  0
 11 18  1  0
 11 19  1  0
 12 13  1  0
 13 20  1  0
 13 21  1  0
 13 22  1  0
M  RAD  1  10   2
M  END
>  <reaction>  (7) 
rmg_rxn_16531

>  <mol_properties>  (7) 
{"1": {"label": "*0", "atom_type": "Cd"}, "2": {"label": "*1", "atom_type": "N3d"}, "7": {"label": "*2", "atom_type": "H0"}, "9": {"label": "*3", "atom_type": "Cs"}, "10": {"label": "*4", "atom_type": "Cs"}}

>  <type>  (7) 
unop_3

>  <geom_source>  (7) 
Heuristics

$$$$

     RDKit          3D

 22 20  0  0  0  0  0  0  0  0999 V2000
    0.7483   -1.0685   -3.2403 C   0  0  0  0  0  0  0  0  0  0  0  0
    0.7483   -1.0685   -1.7480 C   0  0  0  0  0  0  0  0  0  0  0  0
    0.7483    0.0042   -1.0803 N   0  0  0  0  0  0  0  0  0  0  0  0
    1.6266   -1.5985   -3.6177 H   0  0  0  0  0  0  0  0  0  0  0  0
   -0.1299   -1.5985   -3.6177 H   0  0  0  0  0  0  0  0  0  0  0  0
    0.7483   -0.0479   -3.6189 H   0  0  0  0  0  0  0  0  0  0  0  0
    0.7483   -2.0582   -1.2733 H   0  0  0  0  0  0  0  0  0  0  0  0
    0.7483   -0.2260    0.1193 H   0  0  0  0  0  0  0  0  0  0  0  0
    1.4634    0.6446    2.1548 C   0  0  0  0  0  0  0  0  0  0  0  0
    0.7483   -0.4732    1.4074 C   0  0  0  0  0  3  0  0  0  0  0  0
   -0.7498   -0.2675    1.3187 C   0  0  0  0  0  0  0  0  0  0  0  0
   -1.0180    0.8963    0.5767 O   0  0  0  0  0  0  0  0  0  0  0  0
   -2.3855    1.1760    0.4782 C   0  0  0  0  0  0  0  0  0  0  0  0
    1.3040    1.6031    1.6611 H   0  0  0  0  0  0  0  0  0  0  0  0
    2.5376    0.4599    2.2026 H   0  0  0  0  0  0  0  0  0  0  0  0
    1.0918    0.7284    3.1791 H   0  0  0  0  0  0  0  0  0  0  0  0
    0.9268   -1.4314    1.9031 H   0  0  0  0  0  0  0  0  0  0  0  0
   -1.2267   -1.1351    0.8390 H   0  0  0  0  0  0  0  0  0  0  0  0
   -1.1798   -0.1743    2.3288 H   0  0  0  0  0  0  0  0  0  0  0  0
   -2.8362    1.3352    1.4673 H   0  0  0  0  0  0  0  0  0  0  0  0
   -2.4954    2.0857   -0.1105 H   0  0  0  0  0  0  0  0  0  0  0  0
   -2.9287    0.3616   -0.0204 H   0  0  0  0  0  0  0  0  0  0  0  0
  1  2  1  0
  1  4  1  0
  1  5  1  0
  1  6  1  0
  2  3  2  3
  2  7  1  0
  3  8  1  0
  9 10  1  0
  9 14  1  0
  9 15  1  0
  9 16  1  0
 10 11  1  0
 10 17  1  0
 11 12  1  0
 11 18  1  0
 11 19  1  0
 12 13  1  0
 13 20  1  0
 13 21  1  0
 13 22  1  0
M  RAD  1  10   2
M  END
>  <reaction>  (8) 
rmg_rxn_16531

>  <mol_properties>  (8) 
{"1": {"label": "*0", "atom_type": "Cd"}, "2": {"label": "*1", "atom_type": "N3d"}, "7": {"label": "*2", "atom_type": "H0"}, "9": {"label": "*3", "atom_type": "Cs"}, "10": {"label": "*4", "atom_type": "Cs"}}

>  <type>  (8) 
unop_4

>  <geom_source>  (8) 
Heuristics

$$$$

     RDKit          3D

 22 20  0  0  0  0  0  0  0  0999 V2000
   -0.5384    0.0793   -3.8962 C   0  0  0  0  0  0  0  0  0  0  0  0
   -0.5384    0.0793   -2.4039 C   0  0  0  0  0  0  0  0  0  0  0  0
   -0.5384    1.1519   -1.7362 N   0  0  0  0  0  0  0  0  0  0  0  0
    0.3399   -0.4507   -4.2736 H   0  0  0  0  0  0  0  0  0  0  0  0
   -1.4166   -0.4507   -4.2736 H   0  0  0  0  0  0  0  0  0  0  0  0
   -0.5384    1.0999   -4.2748 H   0  0  0  0  0  0  0  0  0  0  0  0
   -0.5384   -0.9104   -1.9292 H   0  0  0  0  0  0  0  0  0  0  0  0
   -0.5384    0.9218   -0.5366 H   0  0  0  0  0  0  0  0  0  0  0  0
   -1.7769   -0.1263    1.1308 C   0  0  0  0  0  0  0  0  0  0  0  0
   -0.5384    0.6746    0.7516 C   0  0  0  0  0  3  0  0  0  0  0  0
    0.6295    0.4455    1.6886 C   0  0  0  0  0  0  0  0  0  0  0  0
    1.0296   -0.9004    1.6153 O   0  0  0  0  0  0  0  0  0  0  0  0
    2.0864   -1.2020    2.4815 C   0  0  0  0  0  0  0  0  0  0  0  0
   -1.5649   -1.1953    1.1172 H   0  0  0  0  0  0  0  0  0  0  0  0
   -2.5969    0.0677    0.4378 H   0  0  0  0  0  0  0  0  0  0  0  0
   -2.1180    0.1358    2.1354 H   0  0  0  0  0  0  0  0  0  0  0  0
   -0.7664    1.7441    0.7546 H   0  0  0  0  0  0  0  0  0  0  0  0
    1.4706    1.1010    1.4180 H   0  0  0  0  0  0  0  0  0  0  0  0
    0.3402    0.6938    2.7223 H   0  0  0  0  0  0  0  0  0  0  0  0
    1.8114   -1.0231    3.5298 H   0  0  0  0  0  0  0  0  0  0  0  0
    2.3273   -2.2566    2.3546 H   0  0  0  0  0  0  0  0  0  0  0  0
    2.9787   -0.6033    2.2527 H   0  0  0  0  0  0  0  0  0  0  0  0
  1  2  1  0
  1  4  1  0
  1  5  1  0
  1  6  1  0
  2  3  2  3
  2  7  1  0
  3  8  1  0
  9 10  1  0
  9 14  1  0
  9 15  1  0
  9 16  1  0
 10 11  1  0
 10 17  1  0
 11 12  1  0
 11 18  1  0
 11 19  1  0
 12 13  1  0
 13 20  1  0
 13 21  1  0
 13 22  1  0
M  RAD  1  10   2
M  END
>  <reaction>  (9) 
rmg_rxn_16531

>  <mol_properties>  (9) 
{"1": {"label": "*0", "atom_type": "Cd"}, "2": {"label": "*1", "atom_type": "N3d"}, "7": {"label": "*2", "atom_type": "H0"}, "9": {"label": "*3", "atom_type": "Cs"}, "10": {"label": "*4", "atom_type": "Cs"}}

>  <type>  (9) 
unop_5

>  <geom_source>  (9) 
Heuristics

$$$$

     RDKit          3D

 22 20  0  0  0  0  0  0  0  0999 V2000
    0.9253   -0.3940   -3.5518 C   0  0  0  0  0  0  0  0  0  0  0  0
    0.9253   -0.3940   -2.0595 C   0  0  0  0  0  0  0  0  0  0  0  0
    0.9253    0.6786   -1.3918 N   0  0  0  0  0  0  0  0  0  0  0  0
    1.8036   -0.9240   -3.9292 H   0  0  0  0  0  0  0  0  0  0  0  0
    0.0470   -0.9240   -3.9292 H   0  0  0  0  0  0  0  0  0  0  0  0
    0.9253    0.6266   -3.9304 H   0  0  0  0  0  0  0  0  0  0  0  0
    0.9253   -1.3837   -1.5848 H   0  0  0  0  0  0  0  0  0  0  0  0
    0.9253    0.4484   -0.1922 H   0  0  0  0  0  0  0  0  0  0  0  0
    0.9253    1.5072    1.8794 C   0  0  0  0  0  0  0  0  0  0  0  0
    0.9253    0.2013    1.0960 C   0  0  0  0  0  3  0  0  0  0  0  0
   -0.2606   -0.6854    1.4154 C   0  0  0  0  0  0  0  0  0  0  0  0
   -1.4468   -0.0330    1.0356 O   0  0  0  0  0  0  0  0  0  0  0  0
   -2.5951   -0.7760    1.3311 C   0  0  0  0  0  0  0  0  0  0  0  0
    0.0285    2.0876    1.6631 H   0  0  0  0  0  0  0  0  0  0  0  0
    1.7948    2.1160    1.6272 H   0  0  0  0  0  0  0  0  0  0  0  0
    0.9505    1.3163    2.9552 H   0  0  0  0  0  0  0  0  0  0  0  0
    1.8356   -0.3657    1.3097 H   0  0  0  0  0  0  0  0  0  0  0  0
   -0.1746   -1.6445    0.8835 H   0  0  0  0  0  0  0  0  0  0  0  0
   -0.2861   -0.9100    2.4937 H   0  0  0  0  0  0  0  0  0  0  0  0
   -2.6848   -0.9672    2.4091 H   0  0  0  0  0  0  0  0  0  0  0  0
   -3.4572   -0.1972    1.0022 H   0  0  0  0  0  0  0  0  0  0  0  0
   -2.5954   -1.7426    0.8089 H   0  0  0  0  0  0  0  0  0  0  0  0
  1  2  1  0
  1  4  1  0
  1  5  1  0
  1  6  1  0
  2  3  2  3
  2  7  1  0
  3  8  1  0
  9 10  1  0
  9 14  1  0
  9 15  1  0
  9 16  1  0
 10 11  1  0
 10 17  1  0
 11 12  1  0
 11 18  1  0
 11 19  1  0
 12 13  1  0
 13 20  1  0
 13 21  1  0
 13 22  1  0
M  RAD  1  10   2
M  END
>  <reaction>  (10) 
rmg_rxn_16531

>  <mol_properties>  (10) 
{"1": {"label": "*0", "atom_type": "Cd"}, "2": {"label": "*1", "atom_type": "N3d"}, "7": {"label": "*2", "atom_type": "H0"}, "9": {"label": "*3", "atom_type": "Cs"}, "10": {"label": "*4", "atom_type": "Cs"}}

>  <type>  (10) 
unop_6

>  <geom_source>  (10) 
Heuristics

$$$$

     RDKit          3D

 22 20  0  0  0  0  0  0  0  0999 V2000
   -0.2578    0.2067   -3.9501 C   0  0  0  0  0  0  0  0  0  0  0  0
   -0.2578    0.2067   -2.4577 C   0  0  0  0  0  0  0  0  0  0  0  0
   -0.2578    1.2793   -1.7900 N   0  0  0  0  0  0  0  0  0  0  0  0
    0.6205   -0.3233   -4.3275 H   0  0  0  0  0  0  0  0  0  0  0  0
   -1.1361   -0.3233   -4.3275 H   0  0  0  0  0  0  0  0  0  0  0  0
   -0.2578    1.2273   -4.3286 H   0  0  0  0  0  0  0  0  0  0  0  0
   -0.2578   -0.7830   -1.9831 H   0  0  0  0  0  0  0  0  0  0  0  0
   -0.2578    1.0492   -0.5904 H   0  0  0  0  0  0  0  0  0  0  0  0
   -1.6880    0.7034    1.2117 C   0  0  0  0  0  0  0  0  0  0  0  0
   -0.2578    0.8020    0.6977 C   0  0  0  0  0  3  0  0  0  0  0  0
    0.7536    0.1558    1.6219 C   0  0  0  0  0  0  0  0  0  0  0  0
    0.4921   -1.2230    1.7087 O   0  0  0  0  0  0  0  0  0  0  0  0
    1.3660   -1.8892    2.5751 C   0  0  0  0  0  0  0  0  0  0  0  0
   -1.9857   -0.3386    1.3281 H   0  0  0  0  0  0  0  0  0  0  0  0
   -2.3860    1.1829    0.5238 H   0  0  0  0  0  0  0  0  0  0  0  0
   -1.7871    1.1918    2.1843 H   0  0  0  0  0  0  0  0  0  0  0  0
    0.0251    1.8507    0.5713 H   0  0  0  0  0  0  0  0  0  0  0  0
    1.7742    0.3199    1.2457 H   0  0  0  0  0  0  0  0  0  0  0  0
    0.6965    0.6110    2.6235 H   0  0  0  0  0  0  0  0  0  0  0  0
    1.2915   -1.5003    3.5997 H   0  0  0  0  0  0  0  0  0  0  0  0
    1.0909   -2.9430    2.5765 H   0  0  0  0  0  0  0  0  0  0  0  0
    2.4099   -1.7945    2.2461 H   0  0  0  0  0  0  0  0  0  0  0  0
  1  2  1  0
  1  4  1  0
  1  5  1  0
  1  6  1  0
  2  3  2  3
  2  7  1  0
  3  8  1  0
  9 10  1  0
  9 14  1  0
  9 15  1  0
  9 16  1  0
 10 11  1  0
 10 17  1  0
 11 12  1  0
 11 18  1  0
 11 19  1  0
 12 13  1  0
 13 20  1  0
 13 21  1  0
 13 22  1  0
M  RAD  1  10   2
M  END
>  <reaction>  (11) 
rmg_rxn_16531

>  <mol_properties>  (11) 
{"1": {"label": "*0", "atom_type": "Cd"}, "2": {"label": "*1", "atom_type": "N3d"}, "7": {"label": "*2", "atom_type": "H0"}, "9": {"label": "*3", "atom_type": "Cs"}, "10": {"label": "*4", "atom_type": "Cs"}}

>  <type>  (11) 
unop_7

>  <geom_source>  (11) 
Heuristics

$$$$

     RDKit          3D

 22 20  0  0  0  0  0  0  0  0999 V2000
    0.0691    0.2546   -3.9426 C   0  0  0  0  0  0  0  0  0  0  0  0
    0.0691    0.2546   -2.4503 C   0  0  0  0  0  0  0  0  0  0  0  0
    0.0691    1.3272   -1.7826 N   0  0  0  0  0  0  0  0  0  0  0  0
    0.9474   -0.2754   -4.3200 H   0  0  0  0  0  0  0  0  0  0  0  0
   -0.8091   -0.2754   -4.3200 H   0  0  0  0  0  0  0  0  0  0  0  0
    0.0691    1.2752   -4.3212 H   0  0  0  0  0  0  0  0  0  0  0  0
    0.0691   -0.7351   -1.9757 H   0  0  0  0  0  0  0  0  0  0  0  0
    0.0691    1.0970   -0.5830 H   0  0  0  0  0  0  0  0  0  0  0  0
   -1.1694    1.4535    1.3538 C   0  0  0  0  0  0  0  0  0  0  0  0
    0.0691    0.8499    0.7051 C   0  0  0  0  0  3  0  0  0  0  0  0
    0.7172   -0.2294    1.5476 C   0  0  0  0  0  0  0  0  0  0  0  0
   -0.1765   -1.3046    1.6967 O   0  0  0  0  0  0  0  0  0  0  0  0
    0.3373   -2.3326    2.4951 C   0  0  0  0  0  0  0  0  0  0  0  0
   -1.9268    0.6889    1.5265 H   0  0  0  0  0  0  0  0  0  0  0  0
   -1.6051    2.2287    0.7217 H   0  0  0  0  0  0  0  0  0  0  0  0
   -0.9232    1.9061    2.3176 H   0  0  0  0  0  0  0  0  0  0  0  0
    0.8159    1.6278    0.5238 H   0  0  0  0  0  0  0  0  0  0  0  0
    1.6461   -0.5783    1.0727 H   0  0  0  0  0  0  0  0  0  0  0  0
    0.9864    0.1731    2.5372 H   0  0  0  0  0  0  0  0  0  0  0  0
    0.5610   -1.9799    3.5111 H   0  0  0  0  0  0  0  0  0  0  0  0
   -0.4173   -3.1160    2.5515 H   0  0  0  0  0  0  0  0  0  0  0  0
    1.2568   -2.7544    2.0669 H   0  0  0  0  0  0  0  0  0  0  0  0
  1  2  1  0
  1  4  1  0
  1  5  1  0
  1  6  1  0
  2  3  2  3
  2  7  1  0
  3  8  1  0
  9 10  1  0
  9 14  1  0
  9 15  1  0
  9 16  1  0
 10 11  1  0
 10 17  1  0
 11 12  1  0
 11 18  1  0
 11 19  1  0
 12 13  1  0
 13 20  1  0
 13 21  1  0
 13 22  1  0
M  RAD  1  10   2
M  END
>  <reaction>  (12) 
rmg_rxn_16531

>  <mol_properties>  (12) 
{"1": {"label": "*0", "atom_type": "Cd"}, "2": {"label": "*1", "atom_type": "N3d"}, "7": {"label": "*2", "atom_type": "H0"}, "9": {"label": "*3", "atom_type": "Cs"}, "10": {"label": "*4", "atom_type": "Cs"}}

>  <type>  (12) 
unop_8

>  <geom_source>  (12) 
Heuristics

$$$$

     RDKit          3D

 22 20  0  0  0  0  0  0  0  0999 V2000
   -0.1430   -1.4107   -3.1451 C   0  0  0  0  0  0  0  0  0  0  0  0
   -0.1430   -1.4107   -1.6527 C   0  0  0  0  0  0  0  0  0  0  0  0
   -0.1430   -0.3381   -0.9850 N   0  0  0  0  0  0  0  0  0  0  0  0
    0.7352   -1.9407   -3.5225 H   0  0  0  0  0  0  0  0  0  0  0  0
   -1.0213   -1.9407   -3.5225 H   0  0  0  0  0  0  0  0  0  0  0  0
   -0.1430   -0.3901   -3.5236 H   0  0  0  0  0  0  0  0  0  0  0  0
   -0.1430   -2.4004   -1.1781 H   0  0  0  0  0  0  0  0  0  0  0  0
   -0.1430   -0.5682    0.2146 H   0  0  0  0  0  0  0  0  0  0  0  0
    1.2871   -0.9140    2.0167 C   0  0  0  0  0  0  0  0  0  0  0  0
   -0.1430   -0.8154    1.5027 C   0  0  0  0  0  3  0  0  0  0  0  0
   -0.6407    0.6112    1.3952 C   0  0  0  0  0  0  0  0  0  0  0  0
    0.1346    1.3059    0.4500 O   0  0  0  0  0  0  0  0  0  0  0  0
   -0.2419    2.6471    0.3173 C   0  0  0  0  0  0  0  0  0  0  0  0
    1.9734   -0.3884    1.3528 H   0  0  0  0  0  0  0  0  0  0  0  0
    1.6085   -1.9543    2.0853 H   0  0  0  0  0  0  0  0  0  0  0  0
    1.3753   -0.4697    3.0112 H   0  0  0  0  0  0  0  0  0  0  0  0
   -0.8203   -1.3579    2.1682 H   0  0  0  0  0  0  0  0  0  0  0  0
   -1.6986    0.6250    1.0938 H   0  0  0  0  0  0  0  0  0  0  0  0
   -0.5726    1.1110    2.3746 H   0  0  0  0  0  0  0  0  0  0  0  0
   -0.1285    3.1927    1.2639 H   0  0  0  0  0  0  0  0  0  0  0  0
    0.4068    3.1001   -0.4313 H   0  0  0  0  0  0  0  0  0  0  0  0
   -1.2857    2.7422   -0.0119 H   0  0  0  0  0  0  0  0  0  0  0  0
  1  2  1  0
  1  4  1  0
  1  5  1  0
  1  6  1  0
  2  3  2  3
  2  7  1  0
  3  8  1  0
  9 10  1  0
  9 14  1  0
  9 15  1  0
  9 16  1  0
 10 11  1  0
 10 17  1  0
 11 12  1  0
 11 18  1  0
 11 19  1  0
 12 13  1  0
 13 20  1  0
 13 21  1  0
 13 22  1  0
M  RAD  1  10   2
M  END
>  <reaction>  (13) 
rmg_rxn_16531

>  <mol_properties>  (13) 
{"1": {"label": "*0", "atom_type": "Cd"}, "2": {"label": "*1", "atom_type": "N3d"}, "7": {"label": "*2", "atom_type": "H0"}, "9": {"label": "*3", "atom_type": "Cs"}, "10": {"label": "*4", "atom_type": "Cs"}}

>  <type>  (13) 
unop_9

>  <geom_source>  (13) 
Heuristics

$$$$

     RDKit          3D

 22 20  0  0  0  0  0  0  0  0999 V2000
   -3.4356   -0.3553    0.1642 C   0  0  0  0  0  0  0  0  0  0  0  0
   -1.9557   -0.1143    0.1265 C   0  0  0  0  0  0  0  0  0  0  0  0
   -1.4518    0.8214   -0.5127 N   0  0  0  0  0  0  0  0  0  0  0  0
   -3.6476   -1.3484   -0.2286 H   0  0  0  0  0  0  0  0  0  0  0  0
   -3.7801   -0.3163    1.1964 H   0  0  0  0  0  0  0  0  0  0  0  0
   -3.9577    0.3926   -0.4261 H   0  0  0  0  0  0  0  0  0  0  0  0
   -1.3725   -0.8402    0.7074 H   0  0  0  0  0  0  0  0  0  0  0  0
   -0.2071    0.8963   -0.4435 H   0  0  0  0  0  0  0  0  0  0  0  0
    1.4186    2.3782    0.0410 C   0  0  0  0  0  0  0  0  0  0  0  0
    1.0885    0.9590   -0.3452 C   0  0  0  0  0  3  0  0  0  0  0  0
    1.5157   -0.0668    0.6839 C   0  0  0  0  0  0  0  0  0  0  0  0
    1.0193   -1.3728    0.4697 O   0  0  0  0  0  0  0  0  0  0  0  0
    1.5523   -2.0286   -0.6531 C   0  0  0  0  0  0  0  0  0  0  0  0
    0.9893    2.6243    1.0100 H   0  0  0  0  0  0  0  0  0  0  0  0
    1.0253    3.0713   -0.6980 H   0  0  0  0  0  0  0  0  0  0  0  0
    2.4998    2.5246    0.1045 H   0  0  0  0  0  0  0  0  0  0  0  0
    1.4387    0.7158   -1.3468 H   0  0  0  0  0  0  0  0  0  0  0  0
    2.6208   -0.1024    0.7403 H   0  0  0  0  0  0  0  0  0  0  0  0
    1.1366    0.2165    1.6709 H   0  0  0  0  0  0  0  0  0  0  0  0
    1.2218   -3.0640   -0.5880 H   0  0  0  0  0  0  0  0  0  0  0  0
    1.1889   -1.5965   -1.5915 H   0  0  0  0  0  0  0  0  0  0  0  0
    2.6488   -1.9966   -0.6454 H   0  0  0  0  0  0  0  0  0  0  0  0
  1  2  1  0
  1  4  1  0
  1  5  1  0
  1  6  1  0
  2  3  2  3
  2  7  1  0
  3  8  1  0
  9 10  1  0
  9 14  1  0
  9 15  1  0
  9 16  1  0
 10 11  1  0
 10 17  1  0
 11 12  1  0
 11 18  1  0
 11 19  1  0
 12 13  1  0
 13 20  1  0
 13 21  1  0
 13 22  1  0
M  RAD  1  10   2
M  END
>  <reaction>  (14) 
rmg_rxn_16531

>  <mol_properties>  (14) 
{"1": {"label": "*0", "atom_type": "Cd"}, "2": {"label": "*1", "atom_type": "N3d"}, "7": {"label": "*2", "atom_type": "H0"}, "9": {"label": "*3", "atom_type": "Cs"}, "10": {"label": "*4", "atom_type": "Cs"}}

>  <type>  (14) 
unop_10

>  <geom_source>  (14) 
Heuristics

$$$$

     RDKit          3D

 22 20  0  0  0  0  0  0  0  0999 V2000
   -0.7904   -0.1599   -3.7721 C   0  0  0  0  0  0  0  0  0  0  0  0
   -0.7904   -0.1599   -2.2797 C   0  0  0  0  0  0  0  0  0  0  0  0
   -0.7904    0.9127   -1.6121 N   0  0  0  0  0  0  0  0  0  0  0  0
    0.0879   -0.6899   -4.1495 H   0  0  0  0  0  0  0  0  0  0  0  0
   -1.6686   -0.6899   -4.1495 H   0  0  0  0  0  0  0  0  0  0  0  0
   -0.7904    0.8607   -4.1507 H   0  0  0  0  0  0  0  0  0  0  0  0
   -0.7904   -1.1496   -1.8051 H   0  0  0  0  0  0  0  0  0  0  0  0
   -0.7904    0.6826   -0.4125 H   0  0  0  0  0  0  0  0  0  0  0  0
   -1.5054   -0.8796    1.1563 C   0  0  0  0  0  0  0  0  0  0  0  0
   -0.7904    0.4354    0.8757 C   0  0  0  0  0  3  0  0  0  0  0  0
    0.4517    0.6305    1.7205 C   0  0  0  0  0  0  0  0  0  0  0  0
    1.3905   -0.3685    1.4077 O   0  0  0  0  0  0  0  0  0  0  0  0
    2.5577   -0.2777    2.1742 C   0  0  0  0  0  0  0  0  0  0  0  0
   -0.8495   -1.7266    0.9554 H   0  0  0  0  0  0  0  0  0  0  0  0
   -2.3957   -0.9825    0.5342 H   0  0  0  0  0  0  0  0  0  0  0  0
   -1.8185   -0.9376    2.2017 H   0  0  0  0  0  0  0  0  0  0  0  0
   -1.4618    1.2771    1.0668 H   0  0  0  0  0  0  0  0  0  0  0  0
    0.8871    1.6238    1.5359 H   0  0  0  0  0  0  0  0  0  0  0  0
    0.1940    0.5795    2.7904 H   0  0  0  0  0  0  0  0  0  0  0  0
    2.3446   -0.3855    3.2465 H   0  0  0  0  0  0  0  0  0  0  0  0
    3.2210   -1.0837    1.8633 H   0  0  0  0  0  0  0  0  0  0  0  0
    3.0679    0.6828    2.0195 H   0  0  0  0  0  0  0  0  0  0  0  0
  1  2  1  0
  1  4  1  0
  1  5  1  0
  1  6  1  0
  2  3  2  3
  2  7  1  0
  3  8  1  0
  9 10  1  0
  9 14  1  0
  9 15  1  0
  9 16  1  0
 10 11  1  0
 10 17  1  0
 11 12  1  0
 11 18  1  0
 11 19  1  0
 12 13  1  0
 13 20  1  0
 13 21  1  0
 13 22  1  0
M  RAD  1  10   2
M  END
>  <reaction>  (15) 
rmg_rxn_16531

>  <mol_properties>  (15) 
{"1": {"label": "*0", "atom_type": "Cd"}, "2": {"label": "*1", "atom_type": "N3d"}, "7": {"label": "*2", "atom_type": "H0"}, "9": {"label": "*3", "atom_type": "Cs"}, "10": {"label": "*4", "atom_type": "Cs"}}

>  <type>  (15) 
unop_11

>  <geom_source>  (15) 
Heuristics

$$$$

     RDKit          3D

 22 20  0  0  0  0  0  0  0  0999 V2000
   -0.5383   -1.2682   -3.2255 C   0  0  0  0  0  0  0  0  0  0  0  0
   -0.5383   -1.2682   -1.7332 C   0  0  0  0  0  0  0  0  0  0  0  0
   -0.5383   -0.1956   -1.0655 N   0  0  0  0  0  0  0  0  0  0  0  0
    0.3400   -1.7982   -3.6029 H   0  0  0  0  0  0  0  0  0  0  0  0
   -1.4165   -1.7982   -3.6029 H   0  0  0  0  0  0  0  0  0  0  0  0
   -0.5383   -0.2476   -3.6041 H   0  0  0  0  0  0  0  0  0  0  0  0
   -0.5383   -2.2579   -1.2585 H   0  0  0  0  0  0  0  0  0  0  0  0
   -0.5383   -0.4257    0.1341 H   0  0  0  0  0  0  0  0  0  0  0  0
    0.7003   -1.4738    1.8015 C   0  0  0  0  0  0  0  0  0  0  0  0
   -0.5383   -0.6729    1.4223 C   0  0  0  0  0  3  0  0  0  0  0  0
   -0.3263    0.8250    1.4998 C   0  0  0  0  0  0  0  0  0  0  0  0
    0.6538    1.2065    0.5666 O   0  0  0  0  0  0  0  0  0  0  0  0
    0.9332    2.5772    0.6005 C   0  0  0  0  0  0  0  0  0  0  0  0
    1.5318   -1.2368    1.1379 H   0  0  0  0  0  0  0  0  0  0  0  0
    0.5086   -2.5459    1.7387 H   0  0  0  0  0  0  0  0  0  0  0  0
    1.0120   -1.2484    2.8244 H   0  0  0  0  0  0  0  0  0  0  0  0
   -1.3695   -0.9290    2.0851 H   0  0  0  0  0  0  0  0  0  0  0  0
   -1.2674    1.3552    1.2915 H   0  0  0  0  0  0  0  0  0  0  0  0
   -0.0073    1.1103    2.5149 H   0  0  0  0  0  0  0  0  0  0  0  0
    1.3126    2.8867    1.5838 H   0  0  0  0  0  0  0  0  0  0  0  0
    1.6955    2.7780   -0.1512 H   0  0  0  0  0  0  0  0  0  0  0  0
    0.0413    3.1763    0.3716 H   0  0  0  0  0  0  0  0  0  0  0  0
  1  2  1  0
  1  4  1  0
  1  5  1  0
  1  6  1  0
  2  3  2  3
  2  7  1  0
  3  8  1  0
  9 10  1  0
  9 14  1  0
  9 15  1  0
  9 16  1  0
 10 11  1  0
 10 17  1  0
 11 12  1  0
 11 18  1  0
 11 19  1  0
 12 13  1  0
 13 20  1  0
 13 21  1  0
 13 22  1  0
M  RAD  1  10   2
M  END
>  <reaction>  (16) 
rmg_rxn_16531

>  <mol_properties>  (16) 
{"1": {"label": "*0", "atom_type": "Cd"}, "2": {"label": "*1", "atom_type": "N3d"}, "7": {"label": "*2", "atom_type": "H0"}, "9": {"label": "*3", "atom_type": "Cs"}, "10": {"label": "*4", "atom_type": "Cs"}}

>  <type>  (16) 
unop_12

>  <geom_source>  (16) 
Heuristics

$$$$

     RDKit          3D

 22 20  0  0  0  0  0  0  0  0999 V2000
    0.5146    0.1425   -3.8430 C   0  0  0  0  0  0  0  0  0  0  0  0
    0.5146    0.1425   -2.3507 C   0  0  0  0  0  0  0  0  0  0  0  0
    0.5146    1.2151   -1.6830 N   0  0  0  0  0  0  0  0  0  0  0  0
    1.3929   -0.3875   -4.2204 H   0  0  0  0  0  0  0  0  0  0  0  0
   -0.3636   -0.3875   -4.2204 H   0  0  0  0  0  0  0  0  0  0  0  0
    0.5146    1.1631   -4.2216 H   0  0  0  0  0  0  0  0  0  0  0  0
    0.5146   -0.8472   -1.8761 H   0  0  0  0  0  0  0  0  0  0  0  0
    0.5146    0.9849   -0.4834 H   0  0  0  0  0  0  0  0  0  0  0  0
   -0.2004    1.8555    1.5521 C   0  0  0  0  0  0  0  0  0  0  0  0
    0.5146    0.7378    0.8047 C   0  0  0  0  0  3  0  0  0  0  0  0
    0.3942   -0.6085    1.4885 C   0  0  0  0  0  0  0  0  0  0  0  0
   -0.9568   -0.9971    1.5191 O   0  0  0  0  0  0  0  0  0  0  0  0
   -1.1566   -2.2203    2.1686 C   0  0  0  0  0  0  0  0  0  0  0  0
   -1.2651    1.6404    1.6426 H   0  0  0  0  0  0  0  0  0  0  0  0
   -0.0879    2.8088    1.0335 H   0  0  0  0  0  0  0  0  0  0  0  0
    0.2055    1.9723    2.5600 H   0  0  0  0  0  0  0  0  0  0  0  0
    1.5786    0.9708    0.7075 H   0  0  0  0  0  0  0  0  0  0  0  0
    0.9884   -1.3635    0.9527 H   0  0  0  0  0  0  0  0  0  0  0  0
    0.7894   -0.5487    2.5151 H   0  0  0  0  0  0  0  0  0  0  0  0
   -0.8284   -2.1784    3.2161 H   0  0  0  0  0  0  0  0  0  0  0  0
   -2.2234   -2.4388    2.1414 H   0  0  0  0  0  0  0  0  0  0  0  0
   -0.6138   -3.0350    1.6701 H   0  0  0  0  0  0  0  0  0  0  0  0
  1  2  1  0
  1  4  1  0
  1  5  1  0
  1  6  1  0
  2  3  2  3
  2  7  1  0
  3  8  1  0
  9 10  1  0
  9 14  1  0
  9 15  1  0
  9 16  1  0
 10 11  1  0
 10 17  1  0
 11 12  1  0
 11 18  1  0
 11 19  1  0
 12 13  1  0
 13 20  1  0
 13 21  1  0
 13 22  1  0
M  RAD  1  10   2
M  END
>  <reaction>  (17) 
rmg_rxn_16531

>  <mol_properties>  (17) 
{"1": {"label": "*0", "atom_type": "Cd"}, "2": {"label": "*1", "atom_type": "N3d"}, "7": {"label": "*2", "atom_type": "H0"}, "9": {"label": "*3", "atom_type": "Cs"}, "10": {"label": "*4", "atom_type": "Cs"}}

>  <type>  (17) 
unop_13

>  <geom_source>  (17) 
Heuristics

$$$$

     RDKit          3D

 22 20  0  0  0  0  0  0  0  0999 V2000
   -0.9253   -0.5379   -3.5794 C   0  0  0  0  0  0  0  0  0  0  0  0
   -0.9253   -0.5379   -2.0871 C   0  0  0  0  0  0  0  0  0  0  0  0
   -0.9253    0.5347   -1.4194 N   0  0  0  0  0  0  0  0  0  0  0  0
   -0.0470   -1.0679   -3.9568 H   0  0  0  0  0  0  0  0  0  0  0  0
   -1.8036   -1.0679   -3.9568 H   0  0  0  0  0  0  0  0  0  0  0  0
   -0.9253    0.4827   -3.9580 H   0  0  0  0  0  0  0  0  0  0  0  0
   -0.9253   -1.5276   -1.6124 H   0  0  0  0  0  0  0  0  0  0  0  0
   -0.9253    0.3046   -0.2198 H   0  0  0  0  0  0  0  0  0  0  0  0
   -0.9253   -1.4458    1.3128 C   0  0  0  0  0  0  0  0  0  0  0  0
   -0.9253    0.0574    1.0683 C   0  0  0  0  0  3  0  0  0  0  0  0
    0.2606    0.7629    1.6933 C   0  0  0  0  0  0  0  0  0  0  0  0
    1.4468    0.2973    1.0990 O   0  0  0  0  0  0  0  0  0  0  0  0
    2.5951    0.8782    1.6485 C   0  0  0  0  0  0  0  0  0  0  0  0
   -0.0285   -1.9049    0.8970 H   0  0  0  0  0  0  0  0  0  0  0  0
   -1.7948   -1.9180    0.8532 H   0  0  0  0  0  0  0  0  0  0  0  0
   -0.9505   -1.6666    2.3828 H   0  0  0  0  0  0  0  0  0  0  0  0
   -1.8356    0.5050    1.4768 H   0  0  0  0  0  0  0  0  0  0  0  0
    0.1746    1.8507    1.5541 H   0  0  0  0  0  0  0  0  0  0  0  0
    0.2861    0.5724    2.7781 H   0  0  0  0  0  0  0  0  0  0  0  0
    2.6848    0.6569    2.7207 H   0  0  0  0  0  0  0  0  0  0  0  0
    3.4572    0.4623    1.1287 H   0  0  0  0  0  0  0  0  0  0  0  0
    2.5954    1.9694    1.5211 H   0  0  0  0  0  0  0  0  0  0  0  0
  1  2  1  0
  1  4  1  0
  1  5  1  0
  1  6  1  0
  2  3  2  3
  2  7  1  0
  3  8  1  0
  9 10  1  0
  9 14  1  0
  9 15  1  0
  9 16  1  0
 10 11  1  0
 10 17  1  0
 11 12  1  0
 11 18  1  0
 11 19  1  0
 12 13  1  0
 13 20  1  0
 13 21  1  0
 13 22  1  0
M  RAD  1  10   2
M  END
>  <reaction>  (18) 
rmg_rxn_16531

>  <mol_properties>  (18) 
{"1": {"label": "*0", "atom_type": "Cd"}, "2": {"label": "*1", "atom_type": "N3d"}, "7": {"label": "*2", "atom_type": "H0"}, "9": {"label": "*3", "atom_type": "Cs"}, "10": {"label": "*4", "atom_type": "Cs"}}

>  <type>  (18) 
unop_14

>  <geom_source>  (18) 
Heuristics

$$$$

     RDKit          3D

 22 20  0  0  0  0  0  0  0  0999 V2000
   -0.8318   -0.9573   -3.3752 C   0  0  0  0  0  0  0  0  0  0  0  0
   -0.8318   -0.9573   -1.8828 C   0  0  0  0  0  0  0  0  0  0  0  0
   -0.8318    0.1153   -1.2152 N   0  0  0  0  0  0  0  0  0  0  0  0
    0.0465   -1.4873   -3.7526 H   0  0  0  0  0  0  0  0  0  0  0  0
   -1.7100   -1.4873   -3.7526 H   0  0  0  0  0  0  0  0  0  0  0  0
   -0.8318    0.0633   -3.7538 H   0  0  0  0  0  0  0  0  0  0  0  0
   -0.8318   -1.9470   -1.4082 H   0  0  0  0  0  0  0  0  0  0  0  0
   -0.8318   -0.1149   -0.0156 H   0  0  0  0  0  0  0  0  0  0  0  0
   -0.1167   -1.6770    1.5532 C   0  0  0  0  0  0  0  0  0  0  0  0
   -0.8318   -0.3620    1.2726 C   0  0  0  0  0  3  0  0  0  0  0  0
    0.0050    0.8551    1.6087 C   0  0  0  0  0  0  0  0  0  0  0  0
    1.1459    0.8784    0.7871 O   0  0  0  0  0  0  0  0  0  0  0  0
    1.9918    1.9588    1.0611 C   0  0  0  0  0  0  0  0  0  0  0  0
    0.7996   -1.7511    0.9677 H   0  0  0  0  0  0  0  0  0  0  0  0
   -0.7506   -2.5292    1.3040 H   0  0  0  0  0  0  0  0  0  0  0  0
    0.1522   -1.7567    2.6094 H   0  0  0  0  0  0  0  0  0  0  0  0
   -1.7561   -0.3048    1.8541 H   0  0  0  0  0  0  0  0  0  0  0  0
   -0.5811    1.7742    1.4610 H   0  0  0  0  0  0  0  0  0  0  0  0
    0.3075    0.8260    2.6677 H   0  0  0  0  0  0  0  0  0  0  0  0
    2.3621    1.9283    2.0949 H   0  0  0  0  0  0  0  0  0  0  0  0
    2.8398    1.8958    0.3804 H   0  0  0  0  0  0  0  0  0  0  0  0
    1.4820    2.9195    0.9063 H   0  0  0  0  0  0  0  0  0  0  0  0
  1  2  1  0
  1  4  1  0
  1  5  1  0
  1  6  1  0
  2  3  2  3
  2  7  1  0
  3  8  1  0
  9 10  1  0
  9 14  1  0
  9 15  1  0
  9 16  1  0
 10 11  1  0
 10 17  1  0
 11 12  1  0
 11 18  1  0
 11 19  1  0
 12 13  1  0
 13 20  1  0
 13 21  1  0
 13 22  1  0
M  RAD  1  10   2
M  END
>  <reaction>  (19) 
rmg_rxn_16531

>  <mol_properties>  (19) 
{"1": {"label": "*0", "atom_type": "Cd"}, "2": {"label": "*1", "atom_type": "N3d"}, "7": {"label": "*2", "atom_type": "H0"}, "9": {"label": "*3", "atom_type": "Cs"}, "10": {"label": "*4", "atom_type": "Cs"}}

>  <type>  (19) 
unop_15

>  <geom_source>  (19) 
gaussian_log

$$$$
