
     RDKit          3D

 15 14  0  0  0  0  0  0  0  0999 V2000
   -2.0554    0.0723   -0.4910 C   0  0  0  0  0  0  0  0  0  0  0  0
   -0.7461   -0.6266   -0.8178 C   0  0  0  0  0  0  0  0  0  0  0  0
    0.3249    0.2591   -1.9782 S   0  0  0  0  0  0  0  0  0  0  0  0
   -0.7172    0.3642   -3.4551 C   0  0  0  0  0  0  0  0  0  0  0  0
   -1.1375   -0.9737   -4.0409 C   0  0  0  0  0  0  0  0  0  0  0  0
   -2.7005    0.1427   -1.3684 H   0  0  0  0  0  0  0  0  0  0  0  0
   -2.6016   -0.4848    0.2733 H   0  0  0  0  0  0  0  0  0  0  0  0
   -1.8758    1.0825   -0.1213 H   0  0  0  0  0  0  0  0  0  0  0  0
   -0.1320   -0.7246    0.0789 H   0  0  0  0  0  0  0  0  0  0  0  0
   -0.9254   -1.6374   -1.1879 H   0  0  0  0  0  0  0  0  0  0  0  0
   -1.5873    0.9874   -3.2422 H   0  0  0  0  0  0  0  0  0  0  0  0
   -0.1021    0.9161   -4.1678 H   0  0  0  0  0  0  0  0  0  0  0  0
   -1.7876   -1.5224   -3.3574 H   0  0  0  0  0  0  0  0  0  0  0  0
   -0.2676   -1.5962   -4.2534 H   0  0  0  0  0  0  0  0  0  0  0  0
   -1.6916   -0.8229   -4.9700 H   0  0  0  0  0  0  0  0  0  0  0  0
  1  2  1  0
  1  6  1  0
  1  7  1  0
  1  8  1  0
  2  3  1  0
  2  9  1  0
  2 10  1  0
  3  4  1  0
  4  5  1  0
  4 11  1  0
  4 12  1  0
  5 13  1  0
  5 14  1  0
  5 15  1  0
M  END
>  <reaction>  (1) 
rmg_rxn_158

>  <mol_properties>  (1) 
{"0": {"label": "donator", "atom_type": "Cs"}, "5": {"label": "d_hydrogen", "atom_type": "H0"}}

>  <type>  (1) 
r1h

$$$$

     RDKit          3D

 17 16  0  0  0  0  0  0  0  0999 V2000
    3.3619    0.3511   -1.0290 C   0  0  0  0  0  3  0  0  0  0  0  0
    2.1806    1.0643   -0.5073 C   0  0  0  0  0  0  0  0  0  0  0  0
    1.4028    0.1998    0.2757 O   0  0  0  0  0  0  0  0  0  0  0  0
    0.2433    0.8081    0.7885 C   0  0  0  0  0  0  0  0  0  0  0  0
   -0.5040   -0.1878    1.6510 C   0  0  0  0  0  0  0  0  0  0  0  0
    0.2852   -0.6298    2.8762 C   0  0  0  0  0  0  0  0  0  0  0  0
    4.1174    0.8902   -1.5820 H   0  0  0  0  0  0  0  0  0  0  0  0
    3.4399   -0.7198   -0.9141 H   0  0  0  0  0  0  0  0  0  0  0  0
    1.5724    1.4684   -1.3398 H   0  0  0  0  0  0  0  0  0  0  0  0
    2.4896    1.9442    0.0856 H   0  0  0  0  0  0  0  0  0  0  0  0
    0.5169    1.6937    1.3835 H   0  0  0  0  0  0  0  0  0  0  0  0
   -0.3954    1.1528   -0.0379 H   0  0  0  0  0  0  0  0  0  0  0  0
   -0.7611   -1.0545    1.0367 H   0  0  0  0  0  0  0  0  0  0  0  0
   -1.4466    0.2743    1.9571 H   0  0  0  0  0  0  0  0  0  0  0  0
    0.5263    0.2245    3.5136 H   0  0  0  0  0  0  0  0  0  0  0  0
    1.2220   -1.1033    2.5825 H   0  0  0  0  0  0  0  0  0  0  0  0
   -0.2849   -1.3427    3.4737 H   0  0  0  0  0  0  0  0  0  0  0  0
  1  2  1  0
  1  7  1  0
  1  8  1  0
  2  3  1  0
  2  9  1  0
  2 10  1  0
  3  4  1  0
  4  5  1  0
  4 11  1  0
  4 12  1  0
  5  6  1  0
  5 13  1  0
  5 14  1  0
  6 15  1  0
  6 16  1  0
  6 17  1  0
M  RAD  1   1   2
M  END
>  <reaction>  (2) 
rmg_rxn_158

>  <mol_properties>  (2) 
{"0": {"label": "acceptor", "atom_type": "Cs"}}

>  <type>  (2) 
r2

$$$$

     RDKit          3D

 18 17  0  0  0  0  0  0  0  0999 V2000
    2.2026   -0.7213   -0.2612 C   0  0  0  0  0  0  0  0  0  0  0  0
    1.5384    0.2638    0.6915 C   0  0  0  0  0  0  0  0  0  0  0  0
    2.2584    1.5946    0.7694 C   0  0  0  0  0  0  0  0  0  0  0  0
    2.2212    2.2185   -0.4893 O   0  0  0  0  0  0  0  0  0  0  0  0
    2.8988    3.4488   -0.5204 C   0  0  0  0  0  0  0  0  0  0  0  0
    2.7981    4.0296   -1.9118 C   0  0  0  0  0  0  0  0  0  0  0  0
    3.2294   -0.9309    0.0486 H   0  0  0  0  0  0  0  0  0  0  0  0
    2.2338   -0.3181   -1.2734 H   0  0  0  0  0  0  0  0  0  0  0  0
    1.6610   -1.6680   -0.2875 H   0  0  0  0  0  0  0  0  0  0  0  0
    1.4990   -0.1566    1.7002 H   0  0  0  0  0  0  0  0  0  0  0  0
    0.5055    0.4455    0.3835 H   0  0  0  0  0  0  0  0  0  0  0  0
    3.3038    1.4410    1.0808 H   0  0  0  0  0  0  0  0  0  0  0  0
    1.7844    2.2410    1.5226 H   0  0  0  0  0  0  0  0  0  0  0  0
    2.4596    4.1376    0.2164 H   0  0  0  0  0  0  0  0  0  0  0  0
    3.9524    3.3035   -0.2397 H   0  0  0  0  0  0  0  0  0  0  0  0
    1.7543    4.1869   -2.1856 H   0  0  0  0  0  0  0  0  0  0  0  0
    3.2472    3.3545   -2.6411 H   0  0  0  0  0  0  0  0  0  0  0  0
    3.3178    4.9878   -1.9600 H   0  0  0  0  0  0  0  0  0  0  0  0
  1  2  1  0
  1  7  1  0
  1  8  1  0
  1  9  1  0
  2  3  1  0
  2 10  1  0
  2 11  1  0
  3  4  1  0
  3 12  1  0
  3 13  1  0
  4  5  1  0
  5  6  1  0
  5 14  1  0
  5 15  1  0
  6 16  1  0
  6 17  1  0
  6 18  1  0
M  END
>  <reaction>  (3) 
rmg_rxn_158

>  <mol_properties>  (3) 
{"0": {"label": "a_hydrogen", "atom_type": "H0"}, "1": {"label": "acceptor", "atom_type": "Cs"}}

>  <type>  (3) 
r2h

$$$$

     RDKit          3D

 32 30  0  0  0  0  0  0  0  0999 V2000
    0.1031    2.5235    0.8716 C   0  0  0  0  0  0  0  0  0  0  0  0
   -1.2605    3.0732    0.5439 C   0  0  0  0  0  0  0  0  0  0  0  0
   -2.6645    2.1374    1.1963 S   0  0  0  0  0  0  0  0  0  0  0  0
   -2.5782    0.5933    0.2568 C   0  0  0  0  0  0  0  0  0  0  0  0
   -2.8534    0.7343   -1.2307 C   0  0  0  0  0  0  0  0  0  0  0  0
    0.4058    1.5099    0.0582 H   0  0  0  0  0  0  0  0  0  0  0  0
    0.9121    3.2188    0.6477 H   0  0  0  0  0  0  0  0  0  0  0  0
    0.1910    2.1069    1.8735 H   0  0  0  0  0  0  0  0  0  0  0  0
   -1.3865    4.0614    0.9970 H   0  0  0  0  0  0  0  0  0  0  0  0
   -1.3774    3.2177   -0.5326 H   0  0  0  0  0  0  0  0  0  0  0  0
   -1.6126    0.1197    0.4350 H   0  0  0  0  0  0  0  0  0  0  0  0
   -3.3321   -0.0417    0.7250 H   0  0  0  0  0  0  0  0  0  0  0  0
   -2.1161    1.3766   -1.7147 H   0  0  0  0  0  0  0  0  0  0  0  0
   -3.8402    1.1642   -1.4045 H   0  0  0  0  0  0  0  0  0  0  0  0
   -2.8088   -0.2422   -1.7187 H   0  0  0  0  0  0  0  0  0  0  0  0
    0.8449    0.5012   -0.7375 C   0  0  0  0  0  3  0  0  0  0  0  0
    1.2752   -0.5768    0.2093 C   0  0  0  0  0  0  0  0  0  0  0  0
    1.7208   -1.6973   -0.5188 O   0  0  0  0  0  0  0  0  0  0  0  0
    2.1419   -2.7583    0.3041 C   0  0  0  0  0  0  0  0  0  0  0  0
    2.6378   -3.8976   -0.5623 C   0  0  0  0  0  0  0  0  0  0  0  0
    3.8591   -3.5294   -1.3942 C   0  0  0  0  0  0  0  0  0  0  0  0
    1.6555    0.9449   -1.3110 H   0  0  0  0  0  0  0  0  0  0  0  0
   -0.0050    0.2364   -1.3621 H   0  0  0  0  0  0  0  0  0  0  0  0
    0.4391   -0.8682    0.8637 H   0  0  0  0  0  0  0  0  0  0  0  0
    2.0805   -0.2106    0.8627 H   0  0  0  0  0  0  0  0  0  0  0  0
    2.9452   -2.4156    0.9751 H   0  0  0  0  0  0  0  0  0  0  0  0
    1.3078   -3.0948    0.9371 H   0  0  0  0  0  0  0  0  0  0  0  0
    1.8217   -4.2182   -1.2151 H   0  0  0  0  0  0  0  0  0  0  0  0
    2.8695   -4.7418    0.0930 H   0  0  0  0  0  0  0  0  0  0  0  0
    4.6916   -3.2298   -0.7527 H   0  0  0  0  0  0  0  0  0  0  0  0
    3.6349   -2.6980   -2.0624 H   0  0  0  0  0  0  0  0  0  0  0  0
    4.1906   -4.3742   -1.9997 H   0  0  0  0  0  0  0  0  0  0  0  0
  1  2  1  0
  1  6  1  0
  1  7  1  0
  1  8  1  0
  2  3  1  0
  2  9  1  0
  2 10  1  0
  3  4  1  0
  4  5  1  0
  4 11  1  0
  4 12  1  0
  5 13  1  0
  5 14  1  0
  5 15  1  0
 16 17  1  0
 16 22  1  0
 16 23  1  0
 17 18  1  0
 17 24  1  0
 17 25  1  0
 18 19  1  0
 19 20  1  0
 19 26  1  0
 19 27  1  0
 20 21  1  0
 20 28  1  0
 20 29  1  0
 21 30  1  0
 21 31  1  0
 21 32  1  0
M  RAD  1  16   2
M  END
>  <reaction>  (4) 
rmg_rxn_158

>  <mol_properties>  (4) 
{"0": {"label": "*1", "atom_type": "Cs"}, "1": {"label": "*0", "atom_type": "Cs"}, "5": {"label": "*2", "atom_type": "H0"}, "15": {"label": "*3", "atom_type": "Cs"}, "16": {"label": "*4", "atom_type": "Cs"}}

>  <type>  (4) 
ts

$$$$

     RDKit          3D

 32 30  0  0  0  0  0  0  0  0999 V2000
    0.0858    2.2349    1.2599 C   0  0  0  0  0  3  0  0  0  0  0  0
   -1.1751    2.9937    0.8807 C   0  0  0  0  0  0  0  0  0  0  0  0
   -2.7157    2.2798    1.5093 S   0  0  0  0  0  0  0  0  0  0  0  0
   -2.7157    0.6387    0.7444 C   0  0  0  0  0  0  0  0  0  0  0  0
   -2.7157    0.6387   -0.7754 C   0  0  0  0  0  0  0  0  0  0  0  0
    0.1113    1.0447    0.7143 H   0  0  0  0  0  0  0  0  0  0  0  0
    0.9706    2.7733    0.9129 H   0  0  0  0  0  0  0  0  0  0  0  0
    0.1565    2.1129    2.3413 H   0  0  0  0  0  0  0  0  0  0  0  0
   -1.1600    3.9969    1.3099 H   0  0  0  0  0  0  0  0  0  0  0  0
   -1.2462    3.1160   -0.2014 H   0  0  0  0  0  0  0  0  0  0  0  0
   -1.8795    0.0561    1.1344 H   0  0  0  0  0  0  0  0  0  0  0  0
   -3.6269    0.1749    1.1257 H   0  0  0  0  0  0  0  0  0  0  0  0
   -1.7926    1.0623   -1.1748 H   0  0  0  0  0  0  0  0  0  0  0  0
   -3.5514    1.2212   -1.1648 H   0  0  0  0  0  0  0  0  0  0  0  0
   -2.7982   -0.3824   -1.1540 H   0  0  0  0  0  0  0  0  0  0  0  0
    0.1368   -0.1453    0.1687 C   0  0  0  0  0  0  0  0  0  0  0  0
    1.3470   -0.2858   -0.7252 C   0  0  0  0  0  0  0  0  0  0  0  0
    1.8788   -1.5772   -0.5738 O   0  0  0  0  0  0  0  0  0  0  0  0
    3.0139   -1.8083   -1.3695 C   0  0  0  0  0  0  0  0  0  0  0  0
    3.4876   -3.2330   -1.1667 C   0  0  0  0  0  0  0  0  0  0  0  0
    2.4687   -4.2722   -1.6149 C   0  0  0  0  0  0  0  0  0  0  0  0
   -0.6235   -0.8799   -0.0992 H   0  0  0  0  0  0  0  0  0  0  0  0
    0.4125   -0.3006    1.2124 H   0  0  0  0  0  0  0  0  0  0  0  0
    2.1069    0.4658   -0.4644 H   0  0  0  0  0  0  0  0  0  0  0  0
    1.0706   -0.1152   -1.7762 H   0  0  0  0  0  0  0  0  0  0  0  0
    2.7690   -1.6388   -2.4300 H   0  0  0  0  0  0  0  0  0  0  0  0
    3.8110   -1.0995   -1.1008 H   0  0  0  0  0  0  0  0  0  0  0  0
    3.7255   -3.3724   -0.1090 H   0  0  0  0  0  0  0  0  0  0  0  0
    4.4220   -3.3587   -1.7208 H   0  0  0  0  0  0  0  0  0  0  0  0
    2.2391   -4.1598   -2.6775 H   0  0  0  0  0  0  0  0  0  0  0  0
    1.5378   -4.1654   -1.0580 H   0  0  0  0  0  0  0  0  0  0  0  0
    2.8454   -5.2842   -1.4592 H   0  0  0  0  0  0  0  0  0  0  0  0
  1  2  1  0
  1  7  1  0
  1  8  1  0
  2  3  1  0
  2  9  1  0
  2 10  1  0
  3  4  1  0
  4  5  1  0
  4 11  1  0
  4 12  1  0
  5 13  1  0
  5 14  1  0
  5 15  1  0
  6 16  1  0
 16 17  1  0
 16 22  1  0
 16 23  1  0
 17 18  1  0
 17 24  1  0
 17 25  1  0
 18 19  1  0
 19 20  1  0
 19 26  1  0
 19 27  1  0
 20 21  1  0
 20 28  1  0
 20 29  1  0
 21 30  1  0
 21 31  1  0
 21 32  1  0
M  RAD  1   1   2
M  END
>  <reaction>  (5) 
rmg_rxn_158

>  <mol_properties>  (5) 
{"0": {"label": "*1", "atom_type": "Cs"}, "1": {"label": "*0", "atom_type": "Cs"}, "5": {"label": "*2", "atom_type": "H0"}, "15": {"label": "*3", "atom_type": "Cs"}, "16": {"label": "*4", "atom_type": "Cs"}}

>  <type>  (5) 
unop_1

>  <geom_source>  (5) 
Heuristics

$$$$

     RDKit          3D

 32 29  0  0  0  0  0  0  0  0999 V2000
    1.3340    2.0730    1.8957 C   0  0  0  0  0  3  0  0  0  0  0  0
    0.0730    2.8319    1.5165 C   0  0  0  0  0  0  0  0  0  0  0  0
   -1.4675    2.1179    2.1451 S   0  0  0  0  0  0  0  0  0  0  0  0
   -1.4675    0.4768    1.3802 C   0  0  0  0  0  3  0  0  0  0  0  0
   -1.4675    0.4768   -0.1396 C   0  0  0  0  0  3  0  0  0  0  0  0
    1.3594    0.8828    1.3501 H   0  0  0  0  0  0  0  0  0  0  0  0
    2.2187    2.6114    1.5487 H   0  0  0  0  0  0  0  0  0  0  0  0
    1.4046    1.9510    2.9771 H   0  0  0  0  0  0  0  0  0  0  0  0
    0.0881    3.8350    1.9457 H   0  0  0  0  0  0  0  0  0  0  0  0
    0.0019    2.9541    0.4344 H   0  0  0  0  0  0  0  0  0  0  0  0
   -0.6313   -0.1058    1.7702 H   0  0  0  0  0  0  0  0  0  0  0  0
   -2.3787    0.0130    1.7615 H   0  0  0  0  0  0  0  0  0  0  0  0
   -0.5445    0.9004   -0.5390 H   0  0  0  0  0  0  0  0  0  0  0  0
   -2.3033    1.0593   -0.5290 H   0  0  0  0  0  0  0  0  0  0  0  0
   -1.5501   -0.5443   -0.5182 H   0  0  0  0  0  0  0  0  0  0  0  0
    1.3849   -0.3072    0.8045 C   0  0  0  0  0  0  0  0  0  0  0  0
    0.6411   -0.2963   -0.5109 C   0  0  0  0  0  0  0  0  0  0  0  0
    1.0226   -1.4217   -1.2602 O   0  0  0  0  0  0  0  0  0  0  0  0
    0.3810   -1.5028   -2.5079 C   0  0  0  0  0  0  0  0  0  0  0  0
    0.8261   -2.7637   -3.2202 C   0  0  0  0  0  0  0  0  0  0  0  0
    0.4309   -4.0377   -2.4854 C   0  0  0  0  0  0  0  0  0  0  0  0
    1.1498   -1.2103    1.3689 H   0  0  0  0  0  0  0  0  0  0  0  0
    2.4618   -0.2781    0.6349 H   0  0  0  0  0  0  0  0  0  0  0  0
    0.8668    0.6224   -1.0724 H   0  0  0  0  0  0  0  0  0  0  0  0
   -0.4452   -0.3116   -0.3385 H   0  0  0  0  0  0  0  0  0  0  0  0
   -0.7115   -1.5138   -2.3675 H   0  0  0  0  0  0  0  0  0  0  0  0
    0.6240   -0.6171   -3.1130 H   0  0  0  0  0  0  0  0  0  0  0  0
    1.9110   -2.7255   -3.3483 H   0  0  0  0  0  0  0  0  0  0  0  0
    0.3884   -2.7560   -4.2223 H   0  0  0  0  0  0  0  0  0  0  0  0
   -0.6541   -4.1010   -2.3713 H   0  0  0  0  0  0  0  0  0  0  0  0
    0.8744   -4.0627   -1.4901 H   0  0  0  0  0  0  0  0  0  0  0  0
    0.7625   -4.9235   -3.0292 H   0  0  0  0  0  0  0  0  0  0  0  0
  1  2  1  0
  1  7  1  0
  1  8  1  0
  2  3  1  0
  2  9  1  0
  2 10  1  0
  3  4  1  0
  4 11  1  0
  4 12  1  0
  5 13  1  0
  5 14  1  0
  5 15  1  0
  6 16  1  0
 16 17  1  0
 16 22  1  0
 16 23  1  0
 17 18  1  0
 17 24  1  0
 17 25  1  0
 18 19  1  0
 19 20  1  0
 19 26  1  0
 19 27  1  0
 20 21  1  0
 20 28  1  0
 20 29  1  0
 21 30  1  0
 21 31  1  0
 21 32  1  0
M  CHG  2   1  -1   4   1
M  RAD  1   5   2
M  END
>  <reaction>  (6) 
rmg_rxn_158

>  <mol_properties>  (6) 
{"0": {"label": "*1", "atom_type": "Cs"}, "1": {"label": "*0", "atom_type": "Cs"}, "5": {"label": "*2", "atom_type": "H0"}, "15": {"label": "*3", "atom_type": "Cs"}, "16": {"label": "*4", "atom_type": "Cs"}}

>  <type>  (6) 
unop_2

>  <geom_source>  (6) 
Heuristics

$$$$

     RDKit          3D

 32 30  0  0  0  0  0  0  0  0999 V2000
    0.1808    2.4353    0.9722 C   0  0  0  0  0  3  0  0  0  0  0  0
   -1.0802    3.1941    0.5930 C   0  0  0  0  0  0  0  0  0  0  0  0
   -2.6208    2.4802    1.2216 S   0  0  0  0  0  0  0  0  0  0  0  0
   -2.6208    0.8391    0.4567 C   0  0  0  0  0  0  0  0  0  0  0  0
   -2.6208    0.8391   -1.0631 C   0  0  0  0  0  0  0  0  0  0  0  0
    0.2062    1.2451    0.4265 H   0  0  0  0  0  0  0  0  0  0  0  0
    1.0655    2.9737    0.6252 H   0  0  0  0  0  0  0  0  0  0  0  0
    0.2514    2.3132    2.0536 H   0  0  0  0  0  0  0  0  0  0  0  0
   -1.0651    4.1973    1.0222 H   0  0  0  0  0  0  0  0  0  0  0  0
   -1.1513    3.3163   -0.4891 H   0  0  0  0  0  0  0  0  0  0  0  0
   -1.7846    0.2565    0.8467 H   0  0  0  0  0  0  0  0  0  0  0  0
   -3.5320    0.3753    0.8380 H   0  0  0  0  0  0  0  0  0  0  0  0
   -1.6977    1.2627   -1.4625 H   0  0  0  0  0  0  0  0  0  0  0  0
   -3.4565    1.4216   -1.4525 H   0  0  0  0  0  0  0  0  0  0  0  0
   -2.7033   -0.1821   -1.4417 H   0  0  0  0  0  0  0  0  0  0  0  0
    0.2317    0.0550   -0.1190 C   0  0  0  0  0  0  0  0  0  0  0  0
    1.6581   -0.3738   -0.3738 C   0  0  0  0  0  0  0  0  0  0  0  0
    1.7290   -1.7759   -0.3240 O   0  0  0  0  0  0  0  0  0  0  0  0
    3.0225   -2.2760   -0.5510 C   0  0  0  0  0  0  0  0  0  0  0  0
    2.9886   -3.7903   -0.5164 C   0  0  0  0  0  0  0  0  0  0  0  0
    2.1287   -4.3951   -1.6182 C   0  0  0  0  0  0  0  0  0  0  0  0
   -0.4341   -0.3646   -0.8740 H   0  0  0  0  0  0  0  0  0  0  0  0
   -0.1009   -0.2873    0.8616 H   0  0  0  0  0  0  0  0  0  0  0  0
    2.3311    0.0628    0.3791 H   0  0  0  0  0  0  0  0  0  0  0  0
    1.9973   -0.0161   -1.3571 H   0  0  0  0  0  0  0  0  0  0  0  0
    3.3925   -1.9285   -1.5287 H   0  0  0  0  0  0  0  0  0  0  0  0
    3.7127   -1.8926    0.2148 H   0  0  0  0  0  0  0  0  0  0  0  0
    2.6210   -4.1070    0.4630 H   0  0  0  0  0  0  0  0  0  0  0  0
    4.0173   -4.1516   -0.6008 H   0  0  0  0  0  0  0  0  0  0  0  0
    2.4994   -4.1060   -2.6048 H   0  0  0  0  0  0  0  0  0  0  0  0
    1.0972   -4.0530   -1.5346 H   0  0  0  0  0  0  0  0  0  0  0  0
    2.1322   -5.4848   -1.5656 H   0  0  0  0  0  0  0  0  0  0  0  0
  1  2  1  0
  1  7  1  0
  1  8  1  0
  2  3  1  0
  2  9  1  0
  2 10  1  0
  3  4  1  0
  4  5  1  0
  4 11  1  0
  4 12  1  0
  5 13  1  0
  5 14  1  0
  5 15  1  0
  6 16  1  0
 16 17  1  0
 16 22  1  0
 16 23  1  0
 17 18  1  0
 17 24  1  0
 17 25  1  0
 18 19  1  0
 19 20  1  0
 19 26  1  0
 19 27  1  0
 20 21  1  0
 20 28  1  0
 20 29  1  0
 21 30  1  0
 21 31  1  0
 21 32  1  0
M  RAD  1   1   2
M  END
>  <reaction>  (7) 
rmg_rxn_158

>  <mol_properties>  (7) 
{"0": {"label": "*1", "atom_type": "Cs"}, "1": {"label": "*0", "atom_type": "Cs"}, "5": {"label": "*2", "atom_type": "H0"}, "15": {"label": "*3", "atom_type": "Cs"}, "16": {"label": "*4", "atom_type": "Cs"}}

>  <type>  (7) 
unop_3

>  <geom_source>  (7) 
Heuristics

$$$$

     RDKit          3D

 32 30  0  0  0  0  0  0  0  0999 V2000
    1.4873    2.6144    0.3346 C   0  0  0  0  0  3  0  0  0  0  0  0
    0.2264    3.3733   -0.0447 C   0  0  0  0  0  0  0  0  0  0  0  0
   -1.3142    2.6594    0.5839 S   0  0  0  0  0  0  0  0  0  0  0  0
   -1.3142    1.0183   -0.1810 C   0  0  0  0  0  0  0  0  0  0  0  0
   -1.3142    1.0183   -1.7007 C   0  0  0  0  0  0  0  0  0  0  0  0
    1.5127    1.4242   -0.2111 H   0  0  0  0  0  0  0  0  0  0  0  0
    2.3720    3.1528   -0.0124 H   0  0  0  0  0  0  0  0  0  0  0  0
    1.5579    2.4924    1.4160 H   0  0  0  0  0  0  0  0  0  0  0  0
    0.2414    4.3764    0.3846 H   0  0  0  0  0  0  0  0  0  0  0  0
    0.1552    3.4955   -1.1267 H   0  0  0  0  0  0  0  0  0  0  0  0
   -0.4780    0.4356    0.2091 H   0  0  0  0  0  0  0  0  0  0  0  0
   -2.2254    0.5544    0.2003 H   0  0  0  0  0  0  0  0  0  0  0  0
   -0.3912    1.4418   -2.1001 H   0  0  0  0  0  0  0  0  0  0  0  0
   -2.1499    1.6007   -2.0901 H   0  0  0  0  0  0  0  0  0  0  0  0
   -1.3968   -0.0029   -2.0794 H   0  0  0  0  0  0  0  0  0  0  0  0
    1.5382    0.2342   -0.7566 C   0  0  0  0  0  0  0  0  0  0  0  0
    0.3483   -0.5772   -0.2990 C   0  0  0  0  0  0  0  0  0  0  0  0
    0.7124   -1.9331   -0.2494 O   0  0  0  0  0  0  0  0  0  0  0  0
   -0.3325   -2.7748    0.1687 C   0  0  0  0  0  0  0  0  0  0  0  0
    0.1670   -4.2039    0.2275 C   0  0  0  0  0  0  0  0  0  0  0  0
    1.2768   -4.4085    1.2501 C   0  0  0  0  0  0  0  0  0  0  0  0
    2.3727    0.1121   -0.0651 H   0  0  0  0  0  0  0  0  0  0  0  0
    1.8621   -0.0877   -1.7469 H   0  0  0  0  0  0  0  0  0  0  0  0
   -0.4980   -0.4409   -0.9886 H   0  0  0  0  0  0  0  0  0  0  0  0
    0.0137   -0.2425    0.6940 H   0  0  0  0  0  0  0  0  0  0  0  0
   -0.6936   -2.4595    1.1605 H   0  0  0  0  0  0  0  0  0  0  0  0
   -1.1798   -2.6954   -0.5281 H   0  0  0  0  0  0  0  0  0  0  0  0
    0.5161   -4.4908   -0.7677 H   0  0  0  0  0  0  0  0  0  0  0  0
   -0.6847   -4.8482    0.4625 H   0  0  0  0  0  0  0  0  0  0  0  0
    0.9340   -4.1480    2.2546 H   0  0  0  0  0  0  0  0  0  0  0  0
    2.1372   -3.7815    1.0167 H   0  0  0  0  0  0  0  0  0  0  0  0
    1.6070   -5.4482    1.2684 H   0  0  0  0  0  0  0  0  0  0  0  0
  1  2  1  0
  1  7  1  0
  1  8  1  0
  2  3  1  0
  2  9  1  0
  2 10  1  0
  3  4  1  0
  4  5  1  0
  4 11  1  0
  4 12  1  0
  5 13  1  0
  5 14  1  0
  5 15  1  0
  6 16  1  0
 16 17  1  0
 16 22  1  0
 16 23  1  0
 17 18  1  0
 17 24  1  0
 17 25  1  0
 18 19  1  0
 19 20  1  0
 19 26  1  0
 19 27  1  0
 20 21  1  0
 20 28  1  0
 20 29  1  0
 21 30  1  0
 21 31  1  0
 21 32  1  0
M  RAD  1   1   2
M  END
>  <reaction>  (8) 
rmg_rxn_158

>  <mol_properties>  (8) 
{"0": {"label": "*1", "atom_type": "Cs"}, "1": {"label": "*0", "atom_type": "Cs"}, "5": {"label": "*2", "atom_type": "H0"}, "15": {"label": "*3", "atom_type": "Cs"}, "16": {"label": "*4", "atom_type": "Cs"}}

>  <type>  (8) 
unop_4

>  <geom_source>  (8) 
Heuristics

$$$$

     RDKit          3D

 32 30  0  0  0  0  0  0  0  0999 V2000
    0.2433    2.4874    0.9470 C   0  0  0  0  0  3  0  0  0  0  0  0
   -1.0177    3.2462    0.5678 C   0  0  0  0  0  0  0  0  0  0  0  0
   -2.5582    2.5323    1.1963 S   0  0  0  0  0  0  0  0  0  0  0  0
   -2.5582    0.8912    0.4315 C   0  0  0  0  0  0  0  0  0  0  0  0
   -2.5582    0.8912   -1.0883 C   0  0  0  0  0  0  0  0  0  0  0  0
    0.2687    1.2972    0.4013 H   0  0  0  0  0  0  0  0  0  0  0  0
    1.1280    3.0258    0.6000 H   0  0  0  0  0  0  0  0  0  0  0  0
    0.3139    2.3653    2.0284 H   0  0  0  0  0  0  0  0  0  0  0  0
   -1.0026    4.2494    0.9970 H   0  0  0  0  0  0  0  0  0  0  0  0
   -1.0888    3.3684   -0.5143 H   0  0  0  0  0  0  0  0  0  0  0  0
   -1.7221    0.3086    0.8215 H   0  0  0  0  0  0  0  0  0  0  0  0
   -3.4695    0.4274    0.8127 H   0  0  0  0  0  0  0  0  0  0  0  0
   -1.6352    1.3148   -1.4877 H   0  0  0  0  0  0  0  0  0  0  0  0
   -3.3940    1.4737   -1.4777 H   0  0  0  0  0  0  0  0  0  0  0  0
   -2.6408   -0.1300   -1.4669 H   0  0  0  0  0  0  0  0  0  0  0  0
    0.2942    0.1071   -0.1442 C   0  0  0  0  0  0  0  0  0  0  0  0
    1.5573   -0.6227    0.2500 C   0  0  0  0  0  0  0  0  0  0  0  0
    1.5557   -1.8936   -0.3485 O   0  0  0  0  0  0  0  0  0  0  0  0
    2.6967   -2.6546   -0.0415 C   0  0  0  0  0  0  0  0  0  0  0  0
    2.6209   -3.9857   -0.7610 C   0  0  0  0  0  0  0  0  0  0  0  0
    2.6304   -3.8477   -2.2776 C   0  0  0  0  0  0  0  0  0  0  0  0
    0.2409    0.2210   -1.2275 H   0  0  0  0  0  0  0  0  0  0  0  0
   -0.5856   -0.4454    0.1874 H   0  0  0  0  0  0  0  0  0  0  0  0
    1.6178   -0.7231    1.3439 H   0  0  0  0  0  0  0  0  0  0  0  0
    2.4444   -0.0577   -0.0726 H   0  0  0  0  0  0  0  0  0  0  0  0
    3.6039   -2.1102   -0.3482 H   0  0  0  0  0  0  0  0  0  0  0  0
    2.7615   -2.8117    1.0452 H   0  0  0  0  0  0  0  0  0  0  0  0
    1.7150   -4.5044   -0.4370 H   0  0  0  0  0  0  0  0  0  0  0  0
    3.4686   -4.5937   -0.4332 H   0  0  0  0  0  0  0  0  0  0  0  0
    3.5427   -3.3517   -2.6180 H   0  0  0  0  0  0  0  0  0  0  0  0
    1.7805   -3.2554   -2.6167 H   0  0  0  0  0  0  0  0  0  0  0  0
    2.5802   -4.8245   -2.7610 H   0  0  0  0  0  0  0  0  0  0  0  0
  1  2  1  0
  1  7  1  0
  1  8  1  0
  2  3  1  0
  2  9  1  0
  2 10  1  0
  3  4  1  0
  4  5  1  0
  4 11  1  0
  4 12  1  0
  5 13  1  0
  5 14  1  0
  5 15  1  0
  6 16  1  0
 16 17  1  0
 16 22  1  0
 16 23  1  0
 17 18  1  0
 17 24  1  0
 17 25  1  0
 18 19  1  0
 19 20  1  0
 19 26  1  0
 19 27  1  0
 20 21  1  0
 20 28  1  0
 20 29  1  0
 21 30  1  0
 21 31  1  0
 21 32  1  0
M  RAD  1   1   2
M  END
>  <reaction>  (9) 
rmg_rxn_158

>  <mol_properties>  (9) 
{"0": {"label": "*1", "atom_type": "Cs"}, "1": {"label": "*0", "atom_type": "Cs"}, "5": {"label": "*2", "atom_type": "H0"}, "15": {"label": "*3", "atom_type": "Cs"}, "16": {"label": "*4", "atom_type": "Cs"}}

>  <type>  (9) 
unop_5

>  <geom_source>  (9) 
Heuristics

$$$$

     RDKit          3D

 32 30  0  0  0  0  0  0  0  0999 V2000
    0.9286    2.6166    0.1463 C   0  0  0  0  0  3  0  0  0  0  0  0
   -0.3323    3.3755   -0.2329 C   0  0  0  0  0  0  0  0  0  0  0  0
   -1.8729    2.6616    0.3957 S   0  0  0  0  0  0  0  0  0  0  0  0
   -1.8729    1.0205   -0.3692 C   0  0  0  0  0  0  0  0  0  0  0  0
   -1.8729    1.0205   -1.8889 C   0  0  0  0  0  0  0  0  0  0  0  0
    0.9541    1.4264   -0.3993 H   0  0  0  0  0  0  0  0  0  0  0  0
    1.8134    3.1550   -0.2006 H   0  0  0  0  0  0  0  0  0  0  0  0
    0.9993    2.4946    1.2277 H   0  0  0  0  0  0  0  0  0  0  0  0
   -0.3172    4.3786    0.1964 H   0  0  0  0  0  0  0  0  0  0  0  0
   -0.4034    3.4977   -1.3149 H   0  0  0  0  0  0  0  0  0  0  0  0
   -1.0367    0.4378    0.0209 H   0  0  0  0  0  0  0  0  0  0  0  0
   -2.7841    0.5566    0.0121 H   0  0  0  0  0  0  0  0  0  0  0  0
   -0.9498    1.4440   -2.2883 H   0  0  0  0  0  0  0  0  0  0  0  0
   -2.7086    1.6029   -2.2783 H   0  0  0  0  0  0  0  0  0  0  0  0
   -1.9554   -0.0007   -2.2676 H   0  0  0  0  0  0  0  0  0  0  0  0
    0.9796    0.2364   -0.9448 C   0  0  0  0  0  0  0  0  0  0  0  0
    0.3274   -0.7735   -0.0291 C   0  0  0  0  0  0  0  0  0  0  0  0
    1.0571   -1.9729   -0.0790 O   0  0  0  0  0  0  0  0  0  0  0  0
    0.5275   -2.9810    0.7445 C   0  0  0  0  0  0  0  0  0  0  0  0
    1.4014   -4.2151    0.6524 C   0  0  0  0  0  0  0  0  0  0  0  0
    2.8173   -3.9856    1.1642 C   0  0  0  0  0  0  0  0  0  0  0  0
    2.0066    0.4283   -0.6323 H   0  0  0  0  0  0  0  0  0  0  0  0
    0.9954   -0.1325   -1.9710 H   0  0  0  0  0  0  0  0  0  0  0  0
   -0.7135   -0.9545   -0.3357 H   0  0  0  0  0  0  0  0  0  0  0  0
    0.2994   -0.3946    1.0032 H   0  0  0  0  0  0  0  0  0  0  0  0
    0.4812   -2.6276    1.7868 H   0  0  0  0  0  0  0  0  0  0  0  0
   -0.5006   -3.2177    0.4336 H   0  0  0  0  0  0  0  0  0  0  0  0
    1.4277   -4.5449   -0.3894 H   0  0  0  0  0  0  0  0  0  0  0  0
    0.9189   -5.0121    1.2250 H   0  0  0  0  0  0  0  0  0  0  0  0
    2.8075   -3.6782    2.2129 H   0  0  0  0  0  0  0  0  0  0  0  0
    3.3130   -3.2027    0.5902 H   0  0  0  0  0  0  0  0  0  0  0  0
    3.4147   -4.8953    1.0876 H   0  0  0  0  0  0  0  0  0  0  0  0
  1  2  1  0
  1  7  1  0
  1  8  1  0
  2  3  1  0
  2  9  1  0
  2 10  1  0
  3  4  1  0
  4  5  1  0
  4 11  1  0
  4 12  1  0
  5 13  1  0
  5 14  1  0
  5 15  1  0
  6 16  1  0
 16 17  1  0
 16 22  1  0
 16 23  1  0
 17 18  1  0
 17 24  1  0
 17 25  1  0
 18 19  1  0
 19 20  1  0
 19 26  1  0
 19 27  1  0
 20 21  1  0
 20 28  1  0
 20 29  1  0
 21 30  1  0
 21 31  1  0
 21 32  1  0
M  RAD  1   1   2
M  END
>  <reaction>  (10) 
rmg_rxn_158

>  <mol_properties>  (10) 
{"0": {"label": "*1", "atom_type": "Cs"}, "1": {"label": "*0", "atom_type": "Cs"}, "5": {"label": "*2", "atom_type": "H0"}, "15": {"label": "*3", "atom_type": "Cs"}, "16": {"label": "*4", "atom_type": "Cs"}}

>  <type>  (10) 
unop_6

>  <geom_source>  (10) 
Heuristics

$$$$

     RDKit          3D

 32 30  0  0  0  0  0  0  0  0999 V2000
    0.4086    2.5281    0.3100 C   0  0  0  0  0  3  0  0  0  0  0  0
   -0.8523    3.2869   -0.0692 C   0  0  0  0  0  0  0  0  0  0  0  0
   -2.3929    2.5730    0.5594 S   0  0  0  0  0  0  0  0  0  0  0  0
   -2.3929    0.9319   -0.2055 C   0  0  0  0  0  0  0  0  0  0  0  0
   -2.3929    0.9319   -1.7252 C   0  0  0  0  0  0  0  0  0  0  0  0
    0.4341    1.3379   -0.2356 H   0  0  0  0  0  0  0  0  0  0  0  0
    1.2934    3.0665   -0.0369 H   0  0  0  0  0  0  0  0  0  0  0  0
    0.4793    2.4060    1.3914 H   0  0  0  0  0  0  0  0  0  0  0  0
   -0.8372    4.2901    0.3601 H   0  0  0  0  0  0  0  0  0  0  0  0
   -0.9234    3.4091   -1.1512 H   0  0  0  0  0  0  0  0  0  0  0  0
   -1.5567    0.3493    0.1846 H   0  0  0  0  0  0  0  0  0  0  0  0
   -3.3041    0.4681    0.1758 H   0  0  0  0  0  0  0  0  0  0  0  0
   -1.4698    1.3555   -2.1246 H   0  0  0  0  0  0  0  0  0  0  0  0
   -3.2286    1.5144   -2.1146 H   0  0  0  0  0  0  0  0  0  0  0  0
   -2.4754   -0.0893   -2.1039 H   0  0  0  0  0  0  0  0  0  0  0  0
    0.4596    0.1478   -0.7811 C   0  0  0  0  0  0  0  0  0  0  0  0
    0.5226   -0.9174    0.2888 C   0  0  0  0  0  0  0  0  0  0  0  0
    1.3888   -1.9391   -0.1348 O   0  0  0  0  0  0  0  0  0  0  0  0
    1.5162   -2.9828    0.7976 C   0  0  0  0  0  0  0  0  0  0  0  0
    2.4958   -4.0109    0.2697 C   0  0  0  0  0  0  0  0  0  0  0  0
    3.9046   -3.4601    0.0933 C   0  0  0  0  0  0  0  0  0  0  0  0
    1.4496    0.5685   -0.9603 H   0  0  0  0  0  0  0  0  0  0  0  0
    0.0896   -0.2721   -1.7171 H   0  0  0  0  0  0  0  0  0  0  0  0
   -0.4791   -1.3301    0.4800 H   0  0  0  0  0  0  0  0  0  0  0  0
    0.8826   -0.4899    1.2363 H   0  0  0  0  0  0  0  0  0  0  0  0
    1.8703   -2.5833    1.7612 H   0  0  0  0  0  0  0  0  0  0  0  0
    0.5355   -3.4474    0.9769 H   0  0  0  0  0  0  0  0  0  0  0  0
    2.1195   -4.3915   -0.6834 H   0  0  0  0  0  0  0  0  0  0  0  0
    2.5058   -4.8541    0.9658 H   0  0  0  0  0  0  0  0  0  0  0  0
    4.3031   -3.0975    1.0441 H   0  0  0  0  0  0  0  0  0  0  0  0
    3.9085   -2.6280   -0.6107 H   0  0  0  0  0  0  0  0  0  0  0  0
    4.5823   -4.2282   -0.2824 H   0  0  0  0  0  0  0  0  0  0  0  0
  1  2  1  0
  1  7  1  0
  1  8  1  0
  2  3  1  0
  2  9  1  0
  2 10  1  0
  3  4  1  0
  4  5  1  0
  4 11  1  0
  4 12  1  0
  5 13  1  0
  5 14  1  0
  5 15  1  0
  6 16  1  0
 16 17  1  0
 16 22  1  0
 16 23  1  0
 17 18  1  0
 17 24  1  0
 17 25  1  0
 18 19  1  0
 19 20  1  0
 19 26  1  0
 19 27  1  0
 20 21  1  0
 20 28  1  0
 20 29  1  0
 21 30  1  0
 21 31  1  0
 21 32  1  0
M  RAD  1   1   2
M  END
>  <reaction>  (11) 
rmg_rxn_158

>  <mol_properties>  (11) 
{"0": {"label": "*1", "atom_type": "Cs"}, "1": {"label": "*0", "atom_type": "Cs"}, "5": {"label": "*2", "atom_type": "H0"}, "15": {"label": "*3", "atom_type": "Cs"}, "16": {"label": "*4", "atom_type": "Cs"}}

>  <type>  (11) 
unop_7

>  <geom_source>  (11) 
Heuristics

$$$$

     RDKit          3D

 32 30  0  0  0  0  0  0  0  0999 V2000
    0.2686    2.0518    1.6715 C   0  0  0  0  0  3  0  0  0  0  0  0
   -0.9923    2.8106    1.2923 C   0  0  0  0  0  0  0  0  0  0  0  0
   -2.5329    2.0967    1.9209 S   0  0  0  0  0  0  0  0  0  0  0  0
   -2.5329    0.4556    1.1560 C   0  0  0  0  0  0  0  0  0  0  0  0
   -2.5329    0.4556   -0.3638 C   0  0  0  0  0  0  0  0  0  0  0  0
    0.2941    0.8616    1.1259 H   0  0  0  0  0  0  0  0  0  0  0  0
    1.1534    2.5902    1.3245 H   0  0  0  0  0  0  0  0  0  0  0  0
    0.3393    1.9297    2.7529 H   0  0  0  0  0  0  0  0  0  0  0  0
   -0.9772    3.8138    1.7215 H   0  0  0  0  0  0  0  0  0  0  0  0
   -1.0634    2.9328    0.2102 H   0  0  0  0  0  0  0  0  0  0  0  0
   -1.6967   -0.1270    1.5460 H   0  0  0  0  0  0  0  0  0  0  0  0
   -3.4441   -0.0082    1.5373 H   0  0  0  0  0  0  0  0  0  0  0  0
   -1.6098    0.8792   -0.7632 H   0  0  0  0  0  0  0  0  0  0  0  0
   -3.3686    1.0381   -0.7532 H   0  0  0  0  0  0  0  0  0  0  0  0
   -2.6154   -0.5656   -0.7424 H   0  0  0  0  0  0  0  0  0  0  0  0
    0.3196   -0.3285    0.5803 C   0  0  0  0  0  0  0  0  0  0  0  0
    0.9921   -0.2704   -0.7717 C   0  0  0  0  0  0  0  0  0  0  0  0
    1.7892   -1.4157   -0.9344 O   0  0  0  0  0  0  0  0  0  0  0  0
    2.4599   -1.4559   -2.1687 C   0  0  0  0  0  0  0  0  0  0  0  0
    3.2577   -2.7402   -2.2650 C   0  0  0  0  0  0  0  0  0  0  0  0
    2.3864   -3.9891   -2.2442 C   0  0  0  0  0  0  0  0  0  0  0  0
   -0.3088   -1.2165    0.6567 H   0  0  0  0  0  0  0  0  0  0  0  0
    1.0642   -0.3644    1.3763 H   0  0  0  0  0  0  0  0  0  0  0  0
    1.6133    0.6338   -0.8535 H   0  0  0  0  0  0  0  0  0  0  0  0
    0.2404   -0.2202   -1.5732 H   0  0  0  0  0  0  0  0  0  0  0  0
    1.7314   -1.4008   -2.9931 H   0  0  0  0  0  0  0  0  0  0  0  0
    3.1258   -0.5855   -2.2623 H   0  0  0  0  0  0  0  0  0  0  0  0
    3.9726   -2.7676   -1.4386 H   0  0  0  0  0  0  0  0  0  0  0  0
    3.8422   -2.7045   -3.1886 H   0  0  0  0  0  0  0  0  0  0  0  0
    1.6821   -3.9868   -3.0798 H   0  0  0  0  0  0  0  0  0  0  0  0
    1.8102   -4.0425   -1.3205 H   0  0  0  0  0  0  0  0  0  0  0  0
    2.9933   -4.8925   -2.3205 H   0  0  0  0  0  0  0  0  0  0  0  0
  1  2  1  0
  1  7  1  0
  1  8  1  0
  2  3  1  0
  2  9  1  0
  2 10  1  0
  3  4  1  0
  4  5  1  0
  4 11  1  0
  4 12  1  0
  5 13  1  0
  5 14  1  0
  5 15  1  0
  6 16  1  0
 16 17  1  0
 16 22  1  0
 16 23  1  0
 17 18  1  0
 17 24  1  0
 17 25  1  0
 18 19  1  0
 19 20  1  0
 19 26  1  0
 19 27  1  0
 20 21  1  0
 20 28  1  0
 20 29  1  0
 21 30  1  0
 21 31  1  0
 21 32  1  0
M  RAD  1   1   2
M  END
>  <reaction>  (12) 
rmg_rxn_158

>  <mol_properties>  (12) 
{"0": {"label": "*1", "atom_type": "Cs"}, "1": {"label": "*0", "atom_type": "Cs"}, "5": {"label": "*2", "atom_type": "H0"}, "15": {"label": "*3", "atom_type": "Cs"}, "16": {"label": "*4", "atom_type": "Cs"}}

>  <type>  (12) 
unop_8

>  <geom_source>  (12) 
Heuristics

$$$$

     RDKit          3D

 32 28  0  0  0  0  0  0  0  0999 V2000
    1.8369    2.4946    0.8401 C   0  0  0  0  0  3  0  0  0  0  0  0
    0.5759    3.2534    0.4609 C   0  0  0  0  0  0  0  0  0  0  0  0
   -0.9646    2.5395    1.0895 S   0  0  0  0  0  1  0  0  0  0  0  0
   -0.9646    0.8984    0.3246 C   0  0  0  0  0  2  0  0  0  0  0  0
   -0.9646    0.8984   -1.1952 C   0  0  0  0  0  3  0  0  0  0  0  0
    1.8623    1.3044    0.2945 H   0  0  0  0  0  0  0  0  0  0  0  0
    2.7216    3.0330    0.4932 H   0  0  0  0  0  0  0  0  0  0  0  0
    1.9075    2.3725    1.9215 H   0  0  0  0  0  0  0  0  0  0  0  0
    0.5910    4.2566    0.8902 H   0  0  0  0  0  0  0  0  0  0  0  0
    0.5048    3.3756   -0.6212 H   0  0  0  0  0  0  0  0  0  0  0  0
   -0.1284    0.3158    0.7146 H   0  0  0  0  0  0  0  0  0  0  0  0
   -1.8758    0.4346    0.7059 H   0  0  0  0  0  0  0  0  0  0  0  0
   -0.0416    1.3220   -1.5946 H   0  0  0  0  0  0  0  0  0  0  0  0
   -1.8004    1.4809   -1.5846 H   0  0  0  0  0  0  0  0  0  0  0  0
   -1.0472   -0.1228   -1.5738 H   0  0  0  0  0  0  0  0  0  0  0  0
    1.8878    0.1143   -0.2511 C   0  0  0  0  0  0  0  0  0  0  0  0
    0.4817   -0.4087   -0.4326 C   0  0  0  0  0  0  0  0  0  0  0  0
    0.5328   -1.8003   -0.6176 O   0  0  0  0  0  0  0  0  0  0  0  0
   -0.7329   -2.3847   -0.7955 C   0  0  0  0  0  0  0  0  0  0  0  0
   -0.5768   -3.8840   -0.9468 C   0  0  0  0  0  0  0  0  0  0  0  0
    0.0006   -4.5539    0.2930 C   0  0  0  0  0  0  0  0  0  0  0  0
    2.3574   -0.3460    0.6190 H   0  0  0  0  0  0  0  0  0  0  0  0
    2.4951   -0.1097   -1.1287 H   0  0  0  0  0  0  0  0  0  0  0  0
    0.0034    0.0680   -1.3011 H   0  0  0  0  0  0  0  0  0  0  0  0
   -0.1339   -0.1700    0.4472 H   0  0  0  0  0  0  0  0  0  0  0  0
   -1.3757   -2.1570    0.0696 H   0  0  0  0  0  0  0  0  0  0  0  0
   -1.2202   -1.9604   -1.6856 H   0  0  0  0  0  0  0  0  0  0  0  0
    0.0620   -4.0810   -1.8117 H   0  0  0  0  0  0  0  0  0  0  0  0
   -1.5603   -4.3028   -1.1773 H   0  0  0  0  0  0  0  0  0  0  0  0
   -0.6410   -4.3852    1.1615 H   0  0  0  0  0  0  0  0  0  0  0  0
    0.9881   -4.1541    0.5234 H   0  0  0  0  0  0  0  0  0  0  0  0
    0.0935   -5.6315    0.1498 H   0  0  0  0  0  0  0  0  0  0  0  0
  1  2  1  0
  1  7  1  0
  1  8  1  0
  2  3  1  0
  2  9  1  0
  2 10  1  0
  4 11  1  0
  4 12  1  0
  5 13  1  0
  5 14  1  0
  5 15  1  0
  6 16  1  0
 16 17  1  0
 16 22  1  0
 16 23  1  0
 17 18  1  0
 17 24  1  0
 17 25  1  0
 18 19  1  0
 19 20  1  0
 19 26  1  0
 19 27  1  0
 20 21  1  0
 20 28  1  0
 20 29  1  0
 21 30  1  0
 21 31  1  0
 21 32  1  0
M  CHG  2   1   1   3  -1
M  RAD  2   4   3   5   2
M  END
>  <reaction>  (13) 
rmg_rxn_158

>  <mol_properties>  (13) 
{"0": {"label": "*1", "atom_type": "Cs"}, "1": {"label": "*0", "atom_type": "Cs"}, "5": {"label": "*2", "atom_type": "H0"}, "15": {"label": "*3", "atom_type": "Cs"}, "16": {"label": "*4", "atom_type": "Cs"}}

>  <type>  (13) 
unop_9

>  <geom_source>  (13) 
Heuristics

$$$$

     RDKit          3D

 32 30  0  0  0  0  0  0  0  0999 V2000
    0.7379    1.9830    1.9465 C   0  0  0  0  0  3  0  0  0  0  0  0
   -0.5230    2.7419    1.5673 C   0  0  0  0  0  0  0  0  0  0  0  0
   -2.0636    2.0279    2.1959 S   0  0  0  0  0  0  0  0  0  0  0  0
   -2.0636    0.3868    1.4310 C   0  0  0  0  0  0  0  0  0  0  0  0
   -2.0636    0.3868   -0.0887 C   0  0  0  0  0  0  0  0  0  0  0  0
    0.7634    0.7928    1.4009 H   0  0  0  0  0  0  0  0  0  0  0  0
    1.6226    2.5214    1.5996 H   0  0  0  0  0  0  0  0  0  0  0  0
    0.8086    1.8610    3.0279 H   0  0  0  0  0  0  0  0  0  0  0  0
   -0.5080    3.7450    1.9966 H   0  0  0  0  0  0  0  0  0  0  0  0
   -0.5942    2.8641    0.4853 H   0  0  0  0  0  0  0  0  0  0  0  0
   -1.2274   -0.1958    1.8211 H   0  0  0  0  0  0  0  0  0  0  0  0
   -2.9748   -0.0770    1.8123 H   0  0  0  0  0  0  0  0  0  0  0  0
   -1.1406    0.8104   -0.4881 H   0  0  0  0  0  0  0  0  0  0  0  0
   -2.8993    0.9693   -0.4781 H   0  0  0  0  0  0  0  0  0  0  0  0
   -2.1462   -0.6343   -0.4674 H   0  0  0  0  0  0  0  0  0  0  0  0
    0.7888   -0.3972    0.8554 C   0  0  0  0  0  0  0  0  0  0  0  0
    0.7461   -0.2838   -0.6509 C   0  0  0  0  0  0  0  0  0  0  0  0
    1.4669   -1.3523   -1.2097 O   0  0  0  0  0  0  0  0  0  0  0  0
    1.4855   -1.3364   -2.6148 C   0  0  0  0  0  0  0  0  0  0  0  0
    2.2493   -2.5431   -3.1204 C   0  0  0  0  0  0  0  0  0  0  0  0
    1.5946   -3.8661   -2.7457 C   0  0  0  0  0  0  0  0  0  0  0  0
    0.3442   -1.3385    1.1805 H   0  0  0  0  0  0  0  0  0  0  0  0
    1.8187   -0.3619    1.2122 H   0  0  0  0  0  0  0  0  0  0  0  0
    1.1805    0.6730   -0.9768 H   0  0  0  0  0  0  0  0  0  0  0  0
   -0.2938   -0.3055   -1.0088 H   0  0  0  0  0  0  0  0  0  0  0  0
    0.4549   -1.3513   -3.0035 H   0  0  0  0  0  0  0  0  0  0  0  0
    1.9567   -0.4094   -2.9732 H   0  0  0  0  0  0  0  0  0  0  0  0
    3.2665   -2.5019   -2.7226 H   0  0  0  0  0  0  0  0  0  0  0  0
    2.3306   -2.4582   -4.2076 H   0  0  0  0  0  0  0  0  0  0  0  0
    0.5844   -3.9314   -3.1576 H   0  0  0  0  0  0  0  0  0  0  0  0
    1.5220   -3.9679   -1.6629 H   0  0  0  0  0  0  0  0  0  0  0  0
    2.1680   -4.7108   -3.1303 H   0  0  0  0  0  0  0  0  0  0  0  0
  1  2  1  0
  1  7  1  0
  1  8  1  0
  2  3  1  0
  2  9  1  0
  2 10  1  0
  3  4  1  0
  4  5  1  0
  4 11  1  0
  4 12  1  0
  5 13  1  0
  5 14  1  0
  5 15  1  0
  6 16  1  0
 16 17  1  0
 16 22  1  0
 16 23  1  0
 17 18  1  0
 17 24  1  0
 17 25  1  0
 18 19  1  0
 19 20  1  0
 19 26  1  0
 19 27  1  0
 20 21  1  0
 20 28  1  0
 20 29  1  0
 21 30  1  0
 21 31  1  0
 21 32  1  0
M  RAD  1   1   2
M  END
>  <reaction>  (14) 
rmg_rxn_158

>  <mol_properties>  (14) 
{"0": {"label": "*1", "atom_type": "Cs"}, "1": {"label": "*0", "atom_type": "Cs"}, "5": {"label": "*2", "atom_type": "H0"}, "15": {"label": "*3", "atom_type": "Cs"}, "16": {"label": "*4", "atom_type": "Cs"}}

>  <type>  (14) 
unop_10

>  <geom_source>  (14) 
Heuristics

$$$$

     RDKit          3D

 32 30  0  0  0  0  0  0  0  0999 V2000
    0.1640    2.4464    0.7040 C   0  0  0  0  0  3  0  0  0  0  0  0
   -1.0970    3.2052    0.3248 C   0  0  0  0  0  0  0  0  0  0  0  0
   -2.6376    2.4913    0.9534 S   0  0  0  0  0  0  0  0  0  0  0  0
   -2.6376    0.8502    0.1885 C   0  0  0  0  0  0  0  0  0  0  0  0
   -2.6376    0.8502   -1.3312 C   0  0  0  0  0  0  0  0  0  0  0  0
    0.1894    1.2561    0.1584 H   0  0  0  0  0  0  0  0  0  0  0  0
    1.0487    2.9848    0.3571 H   0  0  0  0  0  0  0  0  0  0  0  0
    0.2346    2.3243    1.7854 H   0  0  0  0  0  0  0  0  0  0  0  0
   -1.0819    4.2084    0.7541 H   0  0  0  0  0  0  0  0  0  0  0  0
   -1.1681    3.3274   -0.7572 H   0  0  0  0  0  0  0  0  0  0  0  0
   -1.8014    0.2676    0.5786 H   0  0  0  0  0  0  0  0  0  0  0  0
   -3.5488    0.3863    0.5698 H   0  0  0  0  0  0  0  0  0  0  0  0
   -1.7145    1.2738   -1.7306 H   0  0  0  0  0  0  0  0  0  0  0  0
   -3.4733    1.4327   -1.7206 H   0  0  0  0  0  0  0  0  0  0  0  0
   -2.7201   -0.1710   -1.7099 H   0  0  0  0  0  0  0  0  0  0  0  0
    0.2149    0.0661   -0.3871 C   0  0  0  0  0  0  0  0  0  0  0  0
    0.9790   -0.8966    0.4919 C   0  0  0  0  0  0  0  0  0  0  0  0
    1.5484   -1.8967   -0.3138 O   0  0  0  0  0  0  0  0  0  0  0  0
    2.2850   -2.8461    0.4151 C   0  0  0  0  0  0  0  0  0  0  0  0
    2.8885   -3.8547   -0.5407 C   0  0  0  0  0  0  0  0  0  0  0  0
    3.8857   -3.2369   -1.5119 C   0  0  0  0  0  0  0  0  0  0  0  0
    0.8810    0.5290   -1.1161 H   0  0  0  0  0  0  0  0  0  0  0  0
   -0.5767   -0.4550   -0.9267 H   0  0  0  0  0  0  0  0  0  0  0  0
    0.3093   -1.3512    1.2371 H   0  0  0  0  0  0  0  0  0  0  0  0
    1.7682   -0.3676    1.0463 H   0  0  0  0  0  0  0  0  0  0  0  0
    3.0813   -2.3439    0.9870 H   0  0  0  0  0  0  0  0  0  0  0  0
    1.6309   -3.3520    1.1403 H   0  0  0  0  0  0  0  0  0  0  0  0
    2.0782   -4.3386   -1.0921 H   0  0  0  0  0  0  0  0  0  0  0  0
    3.3753   -4.6323    0.0544 H   0  0  0  0  0  0  0  0  0  0  0  0
    4.7148   -2.7698   -0.9744 H   0  0  0  0  0  0  0  0  0  0  0  0
    3.4071   -2.4702   -2.1210 H   0  0  0  0  0  0  0  0  0  0  0  0
    4.3030   -3.9921   -2.1796 H   0  0  0  0  0  0  0  0  0  0  0  0
  1  2  1  0
  1  7  1  0
  1  8  1  0
  2  3  1  0
  2  9  1  0
  2 10  1  0
  3  4  1  0
  4  5  1  0
  4 11  1  0
  4 12  1  0
  5 13  1  0
  5 14  1  0
  5 15  1  0
  6 16  1  0
 16 17  1  0
 16 22  1  0
 16 23  1  0
 17 18  1  0
 17 24  1  0
 17 25  1  0
 18 19  1  0
 19 20  1  0
 19 26  1  0
 19 27  1  0
 20 21  1  0
 20 28  1  0
 20 29  1  0
 21 30  1  0
 21 31  1  0
 21 32  1  0
M  RAD  1   1   2
M  END
>  <reaction>  (15) 
rmg_rxn_158

>  <mol_properties>  (15) 
{"0": {"label": "*1", "atom_type": "Cs"}, "1": {"label": "*0", "atom_type": "Cs"}, "5": {"label": "*2", "atom_type": "H0"}, "15": {"label": "*3", "atom_type": "Cs"}, "16": {"label": "*4", "atom_type": "Cs"}}

>  <type>  (15) 
unop_11

>  <geom_source>  (15) 
Heuristics

$$$$

     RDKit          3D

 32 28  0  0  0  0  0  0  0  0999 V2000
    1.7829    2.2827    1.4652 C   0  0  0  0  0  3  0  0  0  0  0  0
    0.5219    3.0416    1.0860 C   0  0  0  0  0  0  0  0  0  0  0  0
   -1.0187    2.3277    1.7146 S   0  0  0  0  0  1  0  0  0  0  0  0
   -1.0187    0.6866    0.9497 C   0  0  0  0  0  2  0  0  0  0  0  0
   -1.0187    0.6866   -0.5700 C   0  0  0  0  0  3  0  0  0  0  0  0
    1.8083    1.0925    0.9196 H   0  0  0  0  0  0  0  0  0  0  0  0
    2.6676    2.8211    1.1183 H   0  0  0  0  0  0  0  0  0  0  0  0
    1.8535    2.1607    2.5466 H   0  0  0  0  0  0  0  0  0  0  0  0
    0.5370    4.0448    1.5153 H   0  0  0  0  0  0  0  0  0  0  0  0
    0.4508    3.1638    0.0039 H   0  0  0  0  0  0  0  0  0  0  0  0
   -0.1825    0.1039    1.3397 H   0  0  0  0  0  0  0  0  0  0  0  0
   -1.9299    0.2227    1.3310 H   0  0  0  0  0  0  0  0  0  0  0  0
   -0.0956    1.1102   -0.9695 H   0  0  0  0  0  0  0  0  0  0  0  0
   -1.8544    1.2691   -0.9594 H   0  0  0  0  0  0  0  0  0  0  0  0
   -1.1012   -0.3346   -0.9487 H   0  0  0  0  0  0  0  0  0  0  0  0
    1.8338   -0.0975    0.3741 C   0  0  0  0  0  0  0  0  0  0  0  0
    0.5910   -0.3195   -0.4564 C   0  0  0  0  0  0  0  0  0  0  0  0
    0.6472   -1.6015   -1.0283 O   0  0  0  0  0  0  0  0  0  0  0  0
   -0.4709   -1.9054   -1.8235 C   0  0  0  0  0  0  0  0  0  0  0  0
   -0.3365   -3.3156   -2.3606 C   0  0  0  0  0  0  0  0  0  0  0  0
   -0.3262   -4.3746   -1.2662 C   0  0  0  0  0  0  0  0  0  0  0  0
    1.9006   -0.8418    1.1684 H   0  0  0  0  0  0  0  0  0  0  0  0
    2.7271   -0.1756   -0.2466 H   0  0  0  0  0  0  0  0  0  0  0  0
    0.5164    0.4413   -1.2476 H   0  0  0  0  0  0  0  0  0  0  0  0
   -0.3101   -0.2268    0.1676 H   0  0  0  0  0  0  0  0  0  0  0  0
   -1.3917   -1.8149   -1.2257 H   0  0  0  0  0  0  0  0  0  0  0  0
   -0.5477   -1.1872   -2.6530 H   0  0  0  0  0  0  0  0  0  0  0  0
    0.5818   -3.3765   -2.9503 H   0  0  0  0  0  0  0  0  0  0  0  0
   -1.1674   -3.4938   -3.0489 H   0  0  0  0  0  0  0  0  0  0  0  0
   -1.2499   -4.3412   -0.6831 H   0  0  0  0  0  0  0  0  0  0  0  0
    0.5075   -4.2151   -0.5825 H   0  0  0  0  0  0  0  0  0  0  0  0
   -0.2338   -5.3759   -1.6895 H   0  0  0  0  0  0  0  0  0  0  0  0
  1  2  1  0
  1  7  1  0
  1  8  1  0
  2  3  1  0
  2  9  1  0
  2 10  1  0
  4 11  1  0
  4 12  1  0
  5 13  1  0
  5 14  1  0
  5 15  1  0
  6 16  1  0
 16 17  1  0
 16 22  1  0
 16 23  1  0
 17 18  1  0
 17 24  1  0
 17 25  1  0
 18 19  1  0
 19 20  1  0
 19 26  1  0
 19 27  1  0
 20 21  1  0
 20 28  1  0
 20 29  1  0
 21 30  1  0
 21 31  1  0
 21 32  1  0
M  CHG  2   1   1   3  -1
M  RAD  2   4   3   5   2
M  END
>  <reaction>  (16) 
rmg_rxn_158

>  <mol_properties>  (16) 
{"0": {"label": "*1", "atom_type": "Cs"}, "1": {"label": "*0", "atom_type": "Cs"}, "5": {"label": "*2", "atom_type": "H0"}, "15": {"label": "*3", "atom_type": "Cs"}, "16": {"label": "*4", "atom_type": "Cs"}}

>  <type>  (16) 
unop_12

>  <geom_source>  (16) 
Heuristics

$$$$

     RDKit          3D

 32 30  0  0  0  0  0  0  0  0999 V2000
   -3.3264    0.6264   -0.0417 S   0  0  0  0  0  0  0  0  0  0  0  0
    2.2588   -0.2109   -0.5986 O   0  0  0  0  0  0  0  0  0  0  0  0
    4.5350    0.5353   -0.2801 C   0  0  0  0  0  0  0  0  0  0  0  0
    3.5806   -0.6597   -0.3639 C   0  0  0  0  0  0  0  0  0  0  0  0
    1.5379   -0.1365    0.6134 C   0  0  0  0  0  0  0  0  0  0  0  0
   -5.0819    0.2648    0.2980 C   0  0  0  0  0  0  0  0  0  0  0  0
    5.9813    0.0793   -0.1104 C   0  0  0  0  0  0  0  0  0  0  0  0
   -2.9062   -1.0888   -0.4916 C   0  0  0  0  0  0  0  0  0  0  0  0
    0.1760    0.4814    0.3444 C   0  0  0  0  0  0  0  0  0  0  0  0
   -5.7995    1.5352    0.7278 C   0  0  0  0  0  0  0  0  0  0  0  0
   -1.4346   -1.1707   -0.8558 C   0  0  0  0  0  3  0  0  0  0  0  0
    4.4515    1.1404   -1.2089 H   0  0  0  0  0  0  0  0  0  0  0  0
    4.2571    1.1787    0.5819 H   0  0  0  0  0  0  0  0  0  0  0  0
    1.3807   -1.1559    1.0320 H   0  0  0  0  0  0  0  0  0  0  0  0
    2.0676    0.4964    1.3613 H   0  0  0  0  0  0  0  0  0  0  0  0
    3.8795   -1.2915   -1.2276 H   0  0  0  0  0  0  0  0  0  0  0  0
    3.6796   -1.3013    0.5448 H   0  0  0  0  0  0  0  0  0  0  0  0
   -5.5654   -0.1357   -0.6185 H   0  0  0  0  0  0  0  0  0  0  0  0
   -5.1580   -0.4902    1.1095 H   0  0  0  0  0  0  0  0  0  0  0  0
    0.2977    1.5077   -0.0626 H   0  0  0  0  0  0  0  0  0  0  0  0
   -0.4072    0.5336    1.2880 H   0  0  0  0  0  0  0  0  0  0  0  0
   -0.4879   -0.2618   -0.5344 H   0  0  0  0  0  0  0  0  0  0  0  0
    6.0929   -0.5088    0.8255 H   0  0  0  0  0  0  0  0  0  0  0  0
    6.2939   -0.5438   -0.9752 H   0  0  0  0  0  0  0  0  0  0  0  0
    6.6464    0.9667   -0.0535 H   0  0  0  0  0  0  0  0  0  0  0  0
   -3.5198   -1.4148   -1.3585 H   0  0  0  0  0  0  0  0  0  0  0  0
   -3.1031   -1.7587    0.3719 H   0  0  0  0  0  0  0  0  0  0  0  0
   -6.8671    1.3093    0.9332 H   0  0  0  0  0  0  0  0  0  0  0  0
   -5.3359    1.9426    1.6513 H   0  0  0  0  0  0  0  0  0  0  0  0
   -5.7436    2.2974   -0.0782 H   0  0  0  0  0  0  0  0  0  0  0  0
   -1.2229   -0.5431   -1.7474 H   0  0  0  0  0  0  0  0  0  0  0  0
   -1.1565   -2.2228   -1.0760 H   0  0  0  0  0  0  0  0  0  0  0  0
  1  8  1  0
  1  6  1  0
  2  5  1  0
  2  4  1  0
  3  7  1  0
  3  4  1  0
  3 12  1  0
  3 13  1  0
  4 16  1  0
  4 17  1  0
  5  9  1  0
  5 14  1  0
  5 15  1  0
  6 10  1  0
  6 18  1  0
  6 19  1  0
  7 23  1  0
  7 24  1  0
  7 25  1  0
  8 11  1  0
  8 26  1  0
  8 27  1  0
  9 20  1  0
  9 21  1  0
  9 22  1  0
 10 28  1  0
 10 29  1  0
 10 30  1  0
 11 31  1  0
 11 32  1  0
M  RAD  1  11   2
M  END
>  <reaction>  (17) 
rmg_rxn_158

>  <mol_properties>  (17) 
{"0": {"label": "*1", "atom_type": "Cs"}, "1": {"label": "*0", "atom_type": "Cs"}, "5": {"label": "*2", "atom_type": "H0"}, "15": {"label": "*3", "atom_type": "Cs"}, "16": {"label": "*4", "atom_type": "Cs"}}

>  <type>  (17) 
unop_13

>  <geom_source>  (17) 
AutoTST

$$$$

     RDKit          3D

 32 29  0  0  0  0  0  0  0  0999 V2000
    1.3340    2.0730    1.8957 C   0  0  0  0  0  3  0  0  0  0  0  0
    0.0731    2.8319    1.5165 C   0  0  0  0  0  0  0  0  0  0  0  0
   -1.4675    2.1179    2.1451 S   0  0  0  0  0  0  0  0  0  0  0  0
   -1.4675    0.4768    1.3802 C   0  0  0  0  0  3  0  0  0  0  0  0
   -1.4675    0.4768   -0.1396 C   0  0  0  0  0  3  0  0  0  0  0  0
    1.3594    0.8828    1.3500 H   0  0  0  0  0  0  0  0  0  0  0  0
    2.2187    2.6114    1.5487 H   0  0  0  0  0  0  0  0  0  0  0  0
    1.4046    1.9510    2.9771 H   0  0  0  0  0  0  0  0  0  0  0  0
    0.0881    3.8350    1.9457 H   0  0  0  0  0  0  0  0  0  0  0  0
    0.0019    2.9541    0.4344 H   0  0  0  0  0  0  0  0  0  0  0  0
   -0.6313   -0.1058    1.7702 H   0  0  0  0  0  0  0  0  0  0  0  0
   -2.3788    0.0130    1.7615 H   0  0  0  0  0  0  0  0  0  0  0  0
   -0.5445    0.9004   -0.5390 H   0  0  0  0  0  0  0  0  0  0  0  0
   -2.3033    1.0593   -0.5290 H   0  0  0  0  0  0  0  0  0  0  0  0
   -1.5501   -0.5443   -0.5182 H   0  0  0  0  0  0  0  0  0  0  0  0
    1.3849   -0.3072    0.8045 C   0  0  0  0  0  0  0  0  0  0  0  0
    0.6411   -0.2963   -0.5109 C   0  0  0  0  0  0  0  0  0  0  0  0
    1.0226   -1.4217   -1.2602 O   0  0  0  0  0  0  0  0  0  0  0  0
    0.3810   -1.5029   -2.5079 C   0  0  0  0  0  0  0  0  0  0  0  0
    0.8262   -2.7637   -3.2202 C   0  0  0  0  0  0  0  0  0  0  0  0
    0.4309   -4.0377   -2.4854 C   0  0  0  0  0  0  0  0  0  0  0  0
    1.1498   -1.2103    1.3689 H   0  0  0  0  0  0  0  0  0  0  0  0
    2.4618   -0.2781    0.6349 H   0  0  0  0  0  0  0  0  0  0  0  0
    0.8668    0.6224   -1.0724 H   0  0  0  0  0  0  0  0  0  0  0  0
   -0.4452   -0.3116   -0.3385 H   0  0  0  0  0  0  0  0  0  0  0  0
   -0.7115   -1.5138   -2.3675 H   0  0  0  0  0  0  0  0  0  0  0  0
    0.6240   -0.6171   -3.1130 H   0  0  0  0  0  0  0  0  0  0  0  0
    1.9110   -2.7255   -3.3483 H   0  0  0  0  0  0  0  0  0  0  0  0
    0.3884   -2.7560   -4.2223 H   0  0  0  0  0  0  0  0  0  0  0  0
   -0.6541   -4.1010   -2.3713 H   0  0  0  0  0  0  0  0  0  0  0  0
    0.8744   -4.0627   -1.4901 H   0  0  0  0  0  0  0  0  0  0  0  0
    0.7624   -4.9235   -3.0292 H   0  0  0  0  0  0  0  0  0  0  0  0
  1  2  1  0
  1  7  1  0
  1  8  1  0
  2  3  1  0
  2  9  1  0
  2 10  1  0
  3  4  1  0
  4 11  1  0
  4 12  1  0
  5 13  1  0
  5 14  1  0
  5 15  1  0
  6 16  1  0
 16 17  1  0
 16 22  1  0
 16 23  1  0
 17 18  1  0
 17 24  1  0
 17 25  1  0
 18 19  1  0
 19 20  1  0
 19 26  1  0
 19 27  1  0
 20 21  1  0
 20 28  1  0
 20 29  1  0
 21 30  1  0
 21 31  1  0
 21 32  1  0
M  CHG  2   1  -1   4   1
M  RAD  1   5   2
M  END
>  <reaction>  (18) 
rmg_rxn_158

>  <mol_properties>  (18) 
{"0": {"label": "*1", "atom_type": "Cs"}, "1": {"label": "*0", "atom_type": "Cs"}, "5": {"label": "*2", "atom_type": "H0"}, "15": {"label": "*3", "atom_type": "Cs"}, "16": {"label": "*4", "atom_type": "Cs"}}

>  <type>  (18) 
unop_14

>  <geom_source>  (18) 
gaussian_log

$$$$
