
     RDKit          3D

  5  4  0  0  0  0  0  0  0  0999 V2000
    0.7361   -0.2872    0.4035 N   0  0  0  0  0  2  0  0  0  0  0  0
   -0.3891   -0.1505   -0.3131 N   0  0  0  0  0  0  0  0  0  0  0  0
    1.4909    0.0686   -0.1831 H   0  0  0  0  0  0  0  0  0  0  0  0
   -1.1819   -0.6340    0.0744 H   0  0  0  0  0  0  0  0  0  0  0  0
   -0.3592   -0.1189   -1.3223 H   0  0  0  0  0  0  0  0  0  0  0  0
  1  2  1  0
  1  3  1  0
  2  4  1  0
  2  5  1  0
M  RAD  1   1   2
M  END
>  <reaction>  (1) 
rmg_rxn_37

>  <mol_properties>  (1) 
{"0": {"label": "donator", "atom_type": "N3s"}, "2": {"label": "d_hydrogen", "atom_type": "H0"}}

>  <type>  (1) 
r1h

$$$$

     RDKit          3D

 13 13  0  0  0  0  0  0  0  0999 V2000
    0.5794    1.5990    0.2108 C   0  0  0  0  0  3  0  0  0  0  0  0
    1.4528    0.6621   -0.2496 O   0  0  0  0  0  0  0  0  0  0  0  0
    1.0751   -0.6763    0.0423 C   0  0  0  0  0  0  0  0  0  0  0  0
   -0.3579   -0.9282   -0.3924 C   0  0  0  0  0  0  0  0  0  0  0  0
   -1.2426    0.1393    0.2269 C   0  0  0  0  0  0  0  0  0  0  0  0
   -0.7410    1.4341   -0.0749 O   0  0  0  0  0  0  0  0  0  0  0  0
    0.9183    2.6078    0.0084 H   0  0  0  0  0  0  0  0  0  0  0  0
    1.1839   -0.8508    1.1199 H   0  0  0  0  0  0  0  0  0  0  0  0
    1.7816   -1.3130   -0.4874 H   0  0  0  0  0  0  0  0  0  0  0  0
   -0.6818   -1.9210   -0.0736 H   0  0  0  0  0  0  0  0  0  0  0  0
   -0.4271   -0.8785   -1.4810 H   0  0  0  0  0  0  0  0  0  0  0  0
   -1.2832    0.0173    1.3164 H   0  0  0  0  0  0  0  0  0  0  0  0
   -2.2575    0.1083   -0.1657 H   0  0  0  0  0  0  0  0  0  0  0  0
  1  2  1  0
  1  6  1  0
  1  7  1  0
  2  3  1  0
  3  4  1  0
  3  8  1  0
  3  9  1  0
  4  5  1  0
  4 10  1  0
  4 11  1  0
  5  6  1  0
  5 12  1  0
  5 13  1  0
M  RAD  1   1   2
M  END
>  <reaction>  (2) 
rmg_rxn_37

>  <mol_properties>  (2) 
{"0": {"label": "acceptor", "atom_type": "Cs"}}

>  <type>  (2) 
r2

$$$$

     RDKit          3D

 14 14  0  0  0  0  0  0  0  0999 V2000
   -1.1778    0.2241    0.1818 C   0  0  0  0  0  0  0  0  0  0  0  0
   -0.5633   -1.1636    0.0678 C   0  0  0  0  0  0  0  0  0  0  0  0
    0.6943   -1.1996    0.7146 O   0  0  0  0  0  0  0  0  0  0  0  0
    1.5547   -0.2288    0.2011 C   0  0  0  0  0  0  0  0  0  0  0  0
    1.0729    1.0696    0.3698 O   0  0  0  0  0  0  0  0  0  0  0  0
   -0.1607    1.2493   -0.2989 C   0  0  0  0  0  0  0  0  0  0  0  0
   -2.0927    0.2866   -0.4117 H   0  0  0  0  0  0  0  0  0  0  0  0
   -1.4303    0.4248    1.2248 H   0  0  0  0  0  0  0  0  0  0  0  0
   -1.1822   -1.9235    0.5431 H   0  0  0  0  0  0  0  0  0  0  0  0
   -0.4389   -1.4347   -0.9919 H   0  0  0  0  0  0  0  0  0  0  0  0
    1.7250   -0.4207   -0.8742 H   0  0  0  0  0  0  0  0  0  0  0  0
    2.4896   -0.3010    0.7524 H   0  0  0  0  0  0  0  0  0  0  0  0
   -0.0080    1.1481   -1.3844 H   0  0  0  0  0  0  0  0  0  0  0  0
   -0.4826    2.2695   -0.0942 H   0  0  0  0  0  0  0  0  0  0  0  0
  1  2  1  0
  1  6  1  0
  1  7  1  0
  1  8  1  0
  2  3  1  0
  2  9  1  0
  2 10  1  0
  3  4  1  0
  4  5  1  0
  4 11  1  0
  4 12  1  0
  5  6  1  0
  6 13  1  0
  6 14  1  0
M  END
>  <reaction>  (3) 
rmg_rxn_37

>  <mol_properties>  (3) 
{"0": {"label": "a_hydrogen", "atom_type": "H0"}, "1": {"label": "acceptor", "atom_type": "Cs"}}

>  <type>  (3) 
r2h

$$$$

     RDKit          3D

 18 17  0  0  0  0  0  0  0  0999 V2000
   -0.8052   -1.3756   -2.3195 N   0  0  0  0  0  2  0  0  0  0  0  0
    0.3570   -2.0129   -2.1393 N   0  0  0  0  0  0  0  0  0  0  0  0
   -0.7028   -0.4060   -1.6563 H   0  0  0  0  0  0  0  0  0  0  0  0
    0.3368   -2.9896   -2.3897 H   0  0  0  0  0  0  0  0  0  0  0  0
    0.9038   -1.7767   -1.3174 H   0  0  0  0  0  0  0  0  0  0  0  0
   -0.2949    0.5652   -0.6817 C   0  0  0  0  0  3  0  0  0  0  0  0
   -1.3055    0.5979    0.2409 O   0  0  0  0  0  0  0  0  0  0  0  0
   -0.9707    1.3610    1.3955 C   0  0  0  0  0  0  0  0  0  0  0  0
    0.3165    0.8373    2.0108 C   0  0  0  0  0  0  0  0  0  0  0  0
    1.3854    0.7807    0.9328 C   0  0  0  0  0  0  0  0  0  0  0  0
    0.9001    0.0669   -0.2020 O   0  0  0  0  0  0  0  0  0  0  0  0
   -0.1680    1.5119   -1.2283 H   0  0  0  0  0  0  0  0  0  0  0  0
   -0.8581    2.4170    1.1125 H   0  0  0  0  0  0  0  0  0  0  0  0
   -1.8154    1.2743    2.0766 H   0  0  0  0  0  0  0  0  0  0  0  0
    0.6392    1.4851    2.8288 H   0  0  0  0  0  0  0  0  0  0  0  0
    0.1475   -0.1639    2.4119 H   0  0  0  0  0  0  0  0  0  0  0  0
    2.2805    0.2584    1.2667 H   0  0  0  0  0  0  0  0  0  0  0  0
    1.6701    1.7943    0.6200 H   0  0  0  0  0  0  0  0  0  0  0  0
  1  2  1  0
  1  3  1  0
  2  4  1  0
  2  5  1  0
  6  7  1  0
  6 11  1  0
  6 12  1  0
  7  8  1  0
  8  9  1  0
  8 13  1  0
  8 14  1  0
  9 10  1  0
  9 15  1  0
  9 16  1  0
 10 11  1  0
 10 17  1  0
 10 18  1  0
M  RAD  2   1   2   6   2
M  END
>  <reaction>  (4) 
rmg_rxn_37

>  <mol_properties>  (4) 
{"0": {"label": "*1", "atom_type": "N3s"}, "1": {"label": "*0", "atom_type": "N3s"}, "2": {"label": "*2", "atom_type": "H0"}, "5": {"label": "*3", "atom_type": "Cs"}, "6": {"label": "*4", "atom_type": "O2s"}}

>  <type>  (4) 
ts

$$$$

     RDKit          3D

 18 17  0  0  0  0  0  0  0  0999 V2000
   -0.0825   -1.9761   -1.3013 N   0  0  0  0  0  2  0  0  0  0  0  0
   -0.0825   -1.9761   -2.6423 N   0  0  0  0  0  0  0  0  0  0  0  0
   -0.0825   -0.8003   -0.9611 H   0  0  0  0  0  0  0  0  0  0  0  0
    0.1055   -2.8760   -3.0512 H   0  0  0  0  0  0  0  0  0  0  0  0
    0.2795   -1.1877   -3.1598 H   0  0  0  0  0  0  0  0  0  0  0  0
   -0.0825    0.4535   -0.5983 C   0  0  0  0  0  3  0  0  0  0  0  0
   -1.2361    0.6669    0.1568 O   0  0  0  0  0  0  0  0  0  0  0  0
   -0.9796    1.5226    1.2538 C   0  0  0  0  0  0  0  0  0  0  0  0
    0.1393    0.9566    2.1166 C   0  0  0  0  0  0  0  0  0  0  0  0
    1.3353    0.6511    1.2262 C   0  0  0  0  0  0  0  0  0  0  0  0
    0.9409   -0.1527    0.1309 O   0  0  0  0  0  0  0  0  0  0  0  0
    0.2759    1.4183   -1.0020 H   0  0  0  0  0  0  0  0  0  0  0  0
   -0.7011    2.5211    0.8832 H   0  0  0  0  0  0  0  0  0  0  0  0
   -1.9139    1.6129    1.8061 H   0  0  0  0  0  0  0  0  0  0  0  0
    0.4165    1.6681    2.8976 H   0  0  0  0  0  0  0  0  0  0  0  0
   -0.2015    0.0364    2.5951 H   0  0  0  0  0  0  0  0  0  0  0  0
    2.1086    0.0986    1.7582 H   0  0  0  0  0  0  0  0  0  0  0  0
    1.7767    1.5883    0.8536 H   0  0  0  0  0  0  0  0  0  0  0  0
  1  2  1  0
  1  3  1  0
  2  4  1  0
  2  5  1  0
  6  7  1  0
  6 11  1  0
  6 12  1  0
  7  8  1  0
  8  9  1  0
  8 13  1  0
  8 14  1  0
  9 10  1  0
  9 15  1  0
  9 16  1  0
 10 11  1  0
 10 17  1  0
 10 18  1  0
M  RAD  2   1   2   6   2
M  END
>  <reaction>  (5) 
rmg_rxn_37

>  <mol_properties>  (5) 
{"0": {"label": "*1", "atom_type": "N3s"}, "1": {"label": "*0", "atom_type": "N3s"}, "2": {"label": "*2", "atom_type": "H0"}, "5": {"label": "*3", "atom_type": "Cs"}, "6": {"label": "*4", "atom_type": "O2s"}}

>  <type>  (5) 
unop_1

>  <geom_source>  (5) 
Heuristics

$$$$

     RDKit          3D

 18 17  0  0  0  0  0  0  0  0999 V2000
    0.7082   -2.4366   -0.5854 N   0  0  0  0  0  2  0  0  0  0  0  0
    0.7082   -2.4366   -1.9264 N   0  0  0  0  0  0  0  0  0  0  0  0
    0.7082   -1.2608   -0.2452 H   0  0  0  0  0  0  0  0  0  0  0  0
    0.8961   -3.3366   -2.3353 H   0  0  0  0  0  0  0  0  0  0  0  0
    1.0702   -1.6482   -2.4439 H   0  0  0  0  0  0  0  0  0  0  0  0
    0.7082   -0.0070    0.1176 C   0  0  0  0  0  3  0  0  0  0  0  0
    0.0422    0.7122   -0.8752 O   0  0  0  0  0  0  0  0  0  0  0  0
   -0.3968    1.9672   -0.3918 C   0  0  0  0  0  0  0  0  0  0  0  0
   -1.2810    1.7828    0.8333 C   0  0  0  0  0  0  0  0  0  0  0  0
   -0.5445    0.9107    1.8400 C   0  0  0  0  0  0  0  0  0  0  0  0
   -0.0967   -0.2814    1.2236 O   0  0  0  0  0  0  0  0  0  0  0  0
    1.6008    0.5577    0.4440 H   0  0  0  0  0  0  0  0  0  0  0  0
    0.4758    2.5879   -0.1367 H   0  0  0  0  0  0  0  0  0  0  0  0
   -0.9299    2.4493   -1.2101 H   0  0  0  0  0  0  0  0  0  0  0  0
   -1.5278    2.7508    1.2752 H   0  0  0  0  0  0  0  0  0  0  0  0
   -2.2108    1.2920    0.5394 H   0  0  0  0  0  0  0  0  0  0  0  0
   -1.1865    0.6134    2.6680 H   0  0  0  0  0  0  0  0  0  0  0  0
    0.3177    1.4571    2.2521 H   0  0  0  0  0  0  0  0  0  0  0  0
  1  2  1  0
  1  3  1  0
  2  4  1  0
  2  5  1  0
  6  7  1  0
  6 11  1  0
  6 12  1  0
  7  8  1  0
  8  9  1  0
  8 13  1  0
  8 14  1  0
  9 10  1  0
  9 15  1  0
  9 16  1  0
 10 11  1  0
 10 17  1  0
 10 18  1  0
M  RAD  2   1   2   6   2
M  END
>  <reaction>  (6) 
rmg_rxn_37

>  <mol_properties>  (6) 
{"0": {"label": "*1", "atom_type": "N3s"}, "1": {"label": "*0", "atom_type": "N3s"}, "2": {"label": "*2", "atom_type": "H0"}, "5": {"label": "*3", "atom_type": "Cs"}, "6": {"label": "*4", "atom_type": "O2s"}}

>  <type>  (6) 
unop_2

>  <geom_source>  (6) 
Heuristics

$$$$

     RDKit          3D

 18 17  0  0  0  0  0  0  0  0999 V2000
   -0.4696   -2.1821   -1.1161 N   0  0  0  0  0  2  0  0  0  0  0  0
   -0.4696   -2.1821   -2.4571 N   0  0  0  0  0  0  0  0  0  0  0  0
   -0.4696   -1.0063   -0.7759 H   0  0  0  0  0  0  0  0  0  0  0  0
   -0.2816   -3.0821   -2.8660 H   0  0  0  0  0  0  0  0  0  0  0  0
   -0.1076   -1.3937   -2.9746 H   0  0  0  0  0  0  0  0  0  0  0  0
   -0.4696    0.2475   -0.4131 C   0  0  0  0  0  3  0  0  0  0  0  0
   -1.1356    0.3253    0.8104 O   0  0  0  0  0  0  0  0  0  0  0  0
   -0.6737    1.4213    1.5765 C   0  0  0  0  0  0  0  0  0  0  0  0
    0.8316    1.3276    1.7808 C   0  0  0  0  0  0  0  0  0  0  0  0
    1.4978    1.1452    0.4245 C   0  0  0  0  0  0  0  0  0  0  0  0
    0.9066    0.0657   -0.2730 O   0  0  0  0  0  0  0  0  0  0  0  0
   -0.6611    1.1679   -0.9948 H   0  0  0  0  0  0  0  0  0  0  0  0
   -0.9263    2.3612    1.0620 H   0  0  0  0  0  0  0  0  0  0  0  0
   -1.2155    1.3941    2.5210 H   0  0  0  0  0  0  0  0  0  0  0  0
    1.2070    2.2278    2.2726 H   0  0  0  0  0  0  0  0  0  0  0  0
    1.0591    0.4689    2.4153 H   0  0  0  0  0  0  0  0  0  0  0  0
    2.5580    0.9143    0.5192 H   0  0  0  0  0  0  0  0  0  0  0  0
    1.3980    2.0657   -0.1711 H   0  0  0  0  0  0  0  0  0  0  0  0
  1  2  1  0
  1  3  1  0
  2  4  1  0
  2  5  1  0
  6  7  1  0
  6 11  1  0
  6 12  1  0
  7  8  1  0
  8  9  1  0
  8 13  1  0
  8 14  1  0
  9 10  1  0
  9 15  1  0
  9 16  1  0
 10 11  1  0
 10 17  1  0
 10 18  1  0
M  RAD  2   1   2   6   2
M  END
>  <reaction>  (7) 
rmg_rxn_37

>  <mol_properties>  (7) 
{"0": {"label": "*1", "atom_type": "N3s"}, "1": {"label": "*0", "atom_type": "N3s"}, "2": {"label": "*2", "atom_type": "H0"}, "5": {"label": "*3", "atom_type": "Cs"}, "6": {"label": "*4", "atom_type": "O2s"}}

>  <type>  (7) 
unop_3

>  <geom_source>  (7) 
Heuristics

$$$$

     RDKit          3D

 18 17  0  0  0  0  0  0  0  0999 V2000
   -0.1942   -2.7537   -0.5123 N   0  0  0  0  0  2  0  0  0  0  0  0
   -0.1942   -2.7537   -1.8533 N   0  0  0  0  0  0  0  0  0  0  0  0
   -0.1942   -1.5779   -0.1721 H   0  0  0  0  0  0  0  0  0  0  0  0
   -0.0063   -3.6536   -2.2622 H   0  0  0  0  0  0  0  0  0  0  0  0
    0.1678   -1.9652   -2.3708 H   0  0  0  0  0  0  0  0  0  0  0  0
   -0.1942   -0.3241    0.1907 C   0  0  0  0  0  3  0  0  0  0  0  0
    0.9594    0.2596   -0.3338 O   0  0  0  0  0  0  0  0  0  0  0  0
    1.4294    1.3030    0.4980 C   0  0  0  0  0  0  0  0  0  0  0  0
    0.3394    2.3442    0.7083 C   0  0  0  0  0  0  0  0  0  0  0  0
   -0.9228    1.6401    1.1853 C   0  0  0  0  0  0  0  0  0  0  0  0
   -1.2527    0.5766    0.3126 O   0  0  0  0  0  0  0  0  0  0  0  0
    0.0325   -0.7606    1.1808 H   0  0  0  0  0  0  0  0  0  0  0  0
    1.7444    0.8863    1.4670 H   0  0  0  0  0  0  0  0  0  0  0  0
    2.3059    1.7241    0.0075 H   0  0  0  0  0  0  0  0  0  0  0  0
    0.6599    3.0903    1.4390 H   0  0  0  0  0  0  0  0  0  0  0  0
    0.1364    2.8531   -0.2360 H   0  0  0  0  0  0  0  0  0  0  0  0
   -1.7814    2.3099    1.2018 H   0  0  0  0  0  0  0  0  0  0  0  0
   -0.7733    1.2471    2.2027 H   0  0  0  0  0  0  0  0  0  0  0  0
  1  2  1  0
  1  3  1  0
  2  4  1  0
  2  5  1  0
  6  7  1  0
  6 11  1  0
  6 12  1  0
  7  8  1  0
  8  9  1  0
  8 13  1  0
  8 14  1  0
  9 10  1  0
  9 15  1  0
  9 16  1  0
 10 11  1  0
 10 17  1  0
 10 18  1  0
M  RAD  2   1   2   6   2
M  END
>  <reaction>  (8) 
rmg_rxn_37

>  <mol_properties>  (8) 
{"0": {"label": "*1", "atom_type": "N3s"}, "1": {"label": "*0", "atom_type": "N3s"}, "2": {"label": "*2", "atom_type": "H0"}, "5": {"label": "*3", "atom_type": "Cs"}, "6": {"label": "*4", "atom_type": "O2s"}}

>  <type>  (8) 
unop_4

>  <geom_source>  (8) 
Heuristics

$$$$

     RDKit          3D

 18 17  0  0  0  0  0  0  0  0999 V2000
   -0.4450   -2.5490   -0.8038 N   0  0  0  0  0  2  0  0  0  0  0  0
   -0.4450   -2.5490   -2.1448 N   0  0  0  0  0  0  0  0  0  0  0  0
   -0.4450   -1.3732   -0.4636 H   0  0  0  0  0  0  0  0  0  0  0  0
   -0.2570   -3.4490   -2.5537 H   0  0  0  0  0  0  0  0  0  0  0  0
   -0.0830   -1.7606   -2.6623 H   0  0  0  0  0  0  0  0  0  0  0  0
   -0.4450   -0.1194   -0.1008 C   0  0  0  0  0  3  0  0  0  0  0  0
   -0.4450   -0.0912    1.2941 O   0  0  0  0  0  0  0  0  0  0  0  0
   -0.4218    1.2374    1.7798 C   0  0  0  0  0  0  0  0  0  0  0  0
    0.7799    1.9850    1.2198 C   0  0  0  0  0  0  0  0  0  0  0  0
    0.7837    1.8378   -0.2951 C   0  0  0  0  0  0  0  0  0  0  0  0
    0.6888    0.4735   -0.6572 O   0  0  0  0  0  0  0  0  0  0  0  0
   -1.3496    0.3917   -0.4785 H   0  0  0  0  0  0  0  0  0  0  0  0
   -1.3524    1.7499    1.4912 H   0  0  0  0  0  0  0  0  0  0  0  0
   -0.3915    1.1733    2.8666 H   0  0  0  0  0  0  0  0  0  0  0  0
    0.7383    3.0397    1.5009 H   0  0  0  0  0  0  0  0  0  0  0  0
    1.6969    1.5562    1.6285 H   0  0  0  0  0  0  0  0  0  0  0  0
    1.7034    2.2166   -0.7388 H   0  0  0  0  0  0  0  0  0  0  0  0
   -0.0619    2.3926   -0.7297 H   0  0  0  0  0  0  0  0  0  0  0  0
  1  2  1  0
  1  3  1  0
  2  4  1  0
  2  5  1  0
  6  7  1  0
  6 11  1  0
  6 12  1  0
  7  8  1  0
  8  9  1  0
  8 13  1  0
  8 14  1  0
  9 10  1  0
  9 15  1  0
  9 16  1  0
 10 11  1  0
 10 17  1  0
 10 18  1  0
M  RAD  2   1   2   6   2
M  END
>  <reaction>  (9) 
rmg_rxn_37

>  <mol_properties>  (9) 
{"0": {"label": "*1", "atom_type": "N3s"}, "1": {"label": "*0", "atom_type": "N3s"}, "2": {"label": "*2", "atom_type": "H0"}, "5": {"label": "*3", "atom_type": "Cs"}, "6": {"label": "*4", "atom_type": "O2s"}}

>  <type>  (9) 
unop_5

>  <geom_source>  (9) 
Heuristics

$$$$

     RDKit          3D

 18 17  0  0  0  0  0  0  0  0999 V2000
   -0.2169   -2.6877   -0.7122 N   0  0  0  0  0  2  0  0  0  0  0  0
   -0.2169   -2.6877   -2.0532 N   0  0  0  0  0  0  0  0  0  0  0  0
   -0.2169   -1.5119   -0.3720 H   0  0  0  0  0  0  0  0  0  0  0  0
   -0.0289   -3.5877   -2.4621 H   0  0  0  0  0  0  0  0  0  0  0  0
    0.1451   -1.8993   -2.5707 H   0  0  0  0  0  0  0  0  0  0  0  0
   -0.2169   -0.2581   -0.0092 C   0  0  0  0  0  3  0  0  0  0  0  0
    1.1152    0.1404    0.1061 O   0  0  0  0  0  0  0  0  0  0  0  0
    1.2944    1.0188    1.2005 C   0  0  0  0  0  0  0  0  0  0  0  0
    0.3748    2.2243    1.0680 C   0  0  0  0  0  0  0  0  0  0  0  0
   -1.0479    1.7308    0.8461 C   0  0  0  0  0  0  0  0  0  0  0  0
   -1.0876    0.8100   -0.2272 O   0  0  0  0  0  0  0  0  0  0  0  0
   -0.5195   -0.7976    0.9071 H   0  0  0  0  0  0  0  0  0  0  0  0
    1.0818    0.4841    2.1390 H   0  0  0  0  0  0  0  0  0  0  0  0
    2.3450    1.3062    1.2030 H   0  0  0  0  0  0  0  0  0  0  0  0
    0.4279    2.8456    1.9649 H   0  0  0  0  0  0  0  0  0  0  0  0
    0.6873    2.8271    0.2132 H   0  0  0  0  0  0  0  0  0  0  0  0
   -1.7252    2.5435    0.5872 H   0  0  0  0  0  0  0  0  0  0  0  0
   -1.4253    1.2462    1.7597 H   0  0  0  0  0  0  0  0  0  0  0  0
  1  2  1  0
  1  3  1  0
  2  4  1  0
  2  5  1  0
  6  7  1  0
  6 11  1  0
  6 12  1  0
  7  8  1  0
  8  9  1  0
  8 13  1  0
  8 14  1  0
  9 10  1  0
  9 15  1  0
  9 16  1  0
 10 11  1  0
 10 17  1  0
 10 18  1  0
M  RAD  2   1   2   6   2
M  END
>  <reaction>  (10) 
rmg_rxn_37

>  <mol_properties>  (10) 
{"0": {"label": "*1", "atom_type": "N3s"}, "1": {"label": "*0", "atom_type": "N3s"}, "2": {"label": "*2", "atom_type": "H0"}, "5": {"label": "*3", "atom_type": "Cs"}, "6": {"label": "*4", "atom_type": "O2s"}}

>  <type>  (10) 
unop_6

>  <geom_source>  (10) 
Heuristics

$$$$

     RDKit          3D

 18 17  0  0  0  0  0  0  0  0999 V2000
   -0.1321   -2.6653   -0.7931 N   0  0  0  0  0  2  0  0  0  0  0  0
   -0.1321   -2.6653   -2.1341 N   0  0  0  0  0  0  0  0  0  0  0  0
   -0.1321   -1.4895   -0.4529 H   0  0  0  0  0  0  0  0  0  0  0  0
    0.0559   -3.5652   -2.5430 H   0  0  0  0  0  0  0  0  0  0  0  0
    0.2299   -1.8768   -2.6516 H   0  0  0  0  0  0  0  0  0  0  0  0
   -0.1321   -0.2356   -0.0901 C   0  0  0  0  0  3  0  0  0  0  0  0
    1.0215   -0.0223    0.6650 O   0  0  0  0  0  0  0  0  0  0  0  0
    0.7758    0.8696    1.7353 C   0  0  0  0  0  0  0  0  0  0  0  0
    0.2170    2.1847    1.2110 C   0  0  0  0  0  0  0  0  0  0  0  0
   -0.9773    1.8853    0.3161 C   0  0  0  0  0  0  0  0  0  0  0  0
   -0.6271    0.9329   -0.6696 O   0  0  0  0  0  0  0  0  0  0  0  0
   -0.9120   -0.6870    0.5504 H   0  0  0  0  0  0  0  0  0  0  0  0
    0.0637    0.4115    2.4388 H   0  0  0  0  0  0  0  0  0  0  0  0
    1.7243    1.0075    2.2526 H   0  0  0  0  0  0  0  0  0  0  0  0
   -0.0796    2.8312    2.0400 H   0  0  0  0  0  0  0  0  0  0  0  0
    0.9850    2.6999    0.6310 H   0  0  0  0  0  0  0  0  0  0  0  0
   -1.3220    2.7724   -0.2135 H   0  0  0  0  0  0  0  0  0  0  0  0
   -1.8128    1.4986    0.9197 H   0  0  0  0  0  0  0  0  0  0  0  0
  1  2  1  0
  1  3  1  0
  2  4  1  0
  2  5  1  0
  6  7  1  0
  6 11  1  0
  6 12  1  0
  7  8  1  0
  8  9  1  0
  8 13  1  0
  8 14  1  0
  9 10  1  0
  9 15  1  0
  9 16  1  0
 10 11  1  0
 10 17  1  0
 10 18  1  0
M  RAD  2   1   2   6   2
M  END
>  <reaction>  (11) 
rmg_rxn_37

>  <mol_properties>  (11) 
{"0": {"label": "*1", "atom_type": "N3s"}, "1": {"label": "*0", "atom_type": "N3s"}, "2": {"label": "*2", "atom_type": "H0"}, "5": {"label": "*3", "atom_type": "Cs"}, "6": {"label": "*4", "atom_type": "O2s"}}

>  <type>  (11) 
unop_7

>  <geom_source>  (11) 
Heuristics

$$$$

     RDKit          3D

 18 17  0  0  0  0  0  0  0  0999 V2000
    0.3713   -1.9914   -1.2257 N   0  0  0  0  0  2  0  0  0  0  0  0
    0.3713   -1.9914   -2.5667 N   0  0  0  0  0  0  0  0  0  0  0  0
    0.3713   -0.8156   -0.8854 H   0  0  0  0  0  0  0  0  0  0  0  0
    0.5593   -2.8914   -2.9755 H   0  0  0  0  0  0  0  0  0  0  0  0
    0.7333   -1.2030   -3.0842 H   0  0  0  0  0  0  0  0  0  0  0  0
    0.3713    0.4382   -0.5226 C   0  0  0  0  0  3  0  0  0  0  0  0
   -0.9607    0.8367   -0.4073 O   0  0  0  0  0  0  0  0  0  0  0  0
   -1.1486    1.6785    0.7140 C   0  0  0  0  0  0  0  0  0  0  0  0
   -0.6761    0.9834    1.9830 C   0  0  0  0  0  0  0  0  0  0  0  0
    0.7450    0.4838    1.7656 C   0  0  0  0  0  0  0  0  0  0  0  0
    0.8201   -0.2868    0.5816 O   0  0  0  0  0  0  0  0  0  0  0  0
    1.0106    1.3294   -0.6614 H   0  0  0  0  0  0  0  0  0  0  0  0
   -0.5896    2.6155    0.5673 H   0  0  0  0  0  0  0  0  0  0  0  0
   -2.2104    1.9180    0.7519 H   0  0  0  0  0  0  0  0  0  0  0  0
   -0.7138    1.6705    2.8314 H   0  0  0  0  0  0  0  0  0  0  0  0
   -1.3300    0.1360    2.1976 H   0  0  0  0  0  0  0  0  0  0  0  0
    1.0801   -0.1580    2.5792 H   0  0  0  0  0  0  0  0  0  0  0  0
    1.4372    1.3367    1.6929 H   0  0  0  0  0  0  0  0  0  0  0  0
  1  2  1  0
  1  3  1  0
  2  4  1  0
  2  5  1  0
  6  7  1  0
  6 11  1  0
  6 12  1  0
  7  8  1  0
  8  9  1  0
  8 13  1  0
  8 14  1  0
  9 10  1  0
  9 15  1  0
  9 16  1  0
 10 11  1  0
 10 17  1  0
 10 18  1  0
M  RAD  2   1   2   6   2
M  END
>  <reaction>  (12) 
rmg_rxn_37

>  <mol_properties>  (12) 
{"0": {"label": "*1", "atom_type": "N3s"}, "1": {"label": "*0", "atom_type": "N3s"}, "2": {"label": "*2", "atom_type": "H0"}, "5": {"label": "*3", "atom_type": "Cs"}, "6": {"label": "*4", "atom_type": "O2s"}}

>  <type>  (12) 
unop_8

>  <geom_source>  (12) 
Heuristics

$$$$

     RDKit          3D

 18 17  0  0  0  0  0  0  0  0999 V2000
    0.0473   -2.7876   -0.3266 N   0  0  0  0  0  2  0  0  0  0  0  0
    0.0473   -2.7876   -1.6676 N   0  0  0  0  0  0  0  0  0  0  0  0
    0.0473   -1.6119    0.0136 H   0  0  0  0  0  0  0  0  0  0  0  0
    0.2353   -3.6876   -2.0765 H   0  0  0  0  0  0  0  0  0  0  0  0
    0.4093   -1.9992   -2.1851 H   0  0  0  0  0  0  0  0  0  0  0  0
    0.0473   -0.3580    0.3765 C   0  0  0  0  0  3  0  0  0  0  0  0
    0.7133    0.3611   -0.6164 O   0  0  0  0  0  0  0  0  0  0  0  0
    1.1122    1.6345   -0.1466 C   0  0  0  0  0  0  0  0  0  0  0  0
   -0.0915    2.4084    0.3720 C   0  0  0  0  0  0  0  0  0  0  0  0
   -0.8347    1.5393    1.3764 C   0  0  0  0  0  0  0  0  0  0  0  0
   -1.1176    0.2716    0.8159 O   0  0  0  0  0  0  0  0  0  0  0  0
    0.7263   -0.5146    1.2347 H   0  0  0  0  0  0  0  0  0  0  0  0
    1.8562    1.5133    0.6556 H   0  0  0  0  0  0  0  0  0  0  0  0
    1.5926    2.1409   -0.9827 H   0  0  0  0  0  0  0  0  0  0  0  0
    0.2276    3.3433    0.8383 H   0  0  0  0  0  0  0  0  0  0  0  0
   -0.7549    2.6487   -0.4611 H   0  0  0  0  0  0  0  0  0  0  0  0
   -1.7905    1.9754    1.6637 H   0  0  0  0  0  0  0  0  0  0  0  0
   -0.2277    1.4114    2.2858 H   0  0  0  0  0  0  0  0  0  0  0  0
  1  2  1  0
  1  3  1  0
  2  4  1  0
  2  5  1  0
  6  7  1  0
  6 11  1  0
  6 12  1  0
  7  8  1  0
  8  9  1  0
  8 13  1  0
  8 14  1  0
  9 10  1  0
  9 15  1  0
  9 16  1  0
 10 11  1  0
 10 17  1  0
 10 18  1  0
M  RAD  2   1   2   6   2
M  END
>  <reaction>  (13) 
rmg_rxn_37

>  <mol_properties>  (13) 
{"0": {"label": "*1", "atom_type": "N3s"}, "1": {"label": "*0", "atom_type": "N3s"}, "2": {"label": "*2", "atom_type": "H0"}, "5": {"label": "*3", "atom_type": "Cs"}, "6": {"label": "*4", "atom_type": "O2s"}}

>  <type>  (13) 
unop_9

>  <geom_source>  (13) 
Heuristics

$$$$

     RDKit          3D

 18 17  0  0  0  0  0  0  0  0999 V2000
    0.6785   -2.1668   -0.9451 N   0  0  0  0  0  2  0  0  0  0  0  0
    0.6785   -2.1668   -2.2861 N   0  0  0  0  0  0  0  0  0  0  0  0
    0.6785   -0.9910   -0.6048 H   0  0  0  0  0  0  0  0  0  0  0  0
    0.8664   -3.0668   -2.6949 H   0  0  0  0  0  0  0  0  0  0  0  0
    1.0405   -1.3784   -2.8035 H   0  0  0  0  0  0  0  0  0  0  0  0
    0.6785    0.2628   -0.2420 C   0  0  0  0  0  3  0  0  0  0  0  0
   -0.4751    0.8464   -0.7665 O   0  0  0  0  0  0  0  0  0  0  0  0
   -0.9711    1.8590    0.0880 C   0  0  0  0  0  0  0  0  0  0  0  0
   -1.2285    1.2985    1.4794 C   0  0  0  0  0  0  0  0  0  0  0  0
    0.0294    0.5892    1.9603 C   0  0  0  0  0  0  0  0  0  0  0  0
    0.4658   -0.3478    0.9943 O   0  0  0  0  0  0  0  0  0  0  0  0
    1.4660    1.0321   -0.1411 H   0  0  0  0  0  0  0  0  0  0  0  0
   -0.2427    2.6826    0.1424 H   0  0  0  0  0  0  0  0  0  0  0  0
   -1.8817    2.2397   -0.3727 H   0  0  0  0  0  0  0  0  0  0  0  0
   -1.5023    2.0999    2.1693 H   0  0  0  0  0  0  0  0  0  0  0  0
   -2.0537    0.5850    1.4364 H   0  0  0  0  0  0  0  0  0  0  0  0
   -0.1432    0.0331    2.8807 H   0  0  0  0  0  0  0  0  0  0  0  0
    0.8281    1.3234    2.1464 H   0  0  0  0  0  0  0  0  0  0  0  0
  1  2  1  0
  1  3  1  0
  2  4  1  0
  2  5  1  0
  6  7  1  0
  6 11  1  0
  6 12  1  0
  7  8  1  0
  8  9  1  0
  8 13  1  0
  8 14  1  0
  9 10  1  0
  9 15  1  0
  9 16  1  0
 10 11  1  0
 10 17  1  0
 10 18  1  0
M  RAD  2   1   2   6   2
M  END
>  <reaction>  (14) 
rmg_rxn_37

>  <mol_properties>  (14) 
{"0": {"label": "*1", "atom_type": "N3s"}, "1": {"label": "*0", "atom_type": "N3s"}, "2": {"label": "*2", "atom_type": "H0"}, "5": {"label": "*3", "atom_type": "Cs"}, "6": {"label": "*4", "atom_type": "O2s"}}

>  <type>  (14) 
unop_10

>  <geom_source>  (14) 
Heuristics

$$$$

     RDKit          3D

 18 17  0  0  0  0  0  0  0  0999 V2000
   -0.1612   -2.6842   -0.7459 N   0  0  0  0  0  2  0  0  0  0  0  0
   -0.1612   -2.6842   -2.0868 N   0  0  0  0  0  0  0  0  0  0  0  0
   -0.1612   -1.5084   -0.4056 H   0  0  0  0  0  0  0  0  0  0  0  0
    0.0267   -3.5842   -2.4957 H   0  0  0  0  0  0  0  0  0  0  0  0
    0.2007   -1.8958   -2.6043 H   0  0  0  0  0  0  0  0  0  0  0  0
   -0.1612   -0.2546   -0.0428 C   0  0  0  0  0  3  0  0  0  0  0  0
    0.5048   -0.1767    1.1806 O   0  0  0  0  0  0  0  0  0  0  0  0
    0.0756    0.9456    1.9273 C   0  0  0  0  0  0  0  0  0  0  0  0
    0.2664    2.2223    1.1210 C   0  0  0  0  0  0  0  0  0  0  0  0
   -0.3943    2.0444   -0.2385 C   0  0  0  0  0  0  0  0  0  0  0  0
    0.0629    0.8566   -0.8562 O   0  0  0  0  0  0  0  0  0  0  0  0
   -1.2465   -0.3659    0.1362 H   0  0  0  0  0  0  0  0  0  0  0  0
   -0.9852    0.8243    2.1953 H   0  0  0  0  0  0  0  0  0  0  0  0
    0.6601    0.9530    2.8462 H   0  0  0  0  0  0  0  0  0  0  0  0
   -0.1677    3.0751    1.6478 H   0  0  0  0  0  0  0  0  0  0  0  0
    1.3332    2.4094    0.9844 H   0  0  0  0  0  0  0  0  0  0  0  0
   -0.1564    2.8623   -0.9173 H   0  0  0  0  0  0  0  0  0  0  0  0
   -1.4882    2.0004   -0.1229 H   0  0  0  0  0  0  0  0  0  0  0  0
  1  2  1  0
  1  3  1  0
  2  4  1  0
  2  5  1  0
  6  7  1  0
  6 11  1  0
  6 12  1  0
  7  8  1  0
  8  9  1  0
  8 13  1  0
  8 14  1  0
  9 10  1  0
  9 15  1  0
  9 16  1  0
 10 11  1  0
 10 17  1  0
 10 18  1  0
M  RAD  2   1   2   6   2
M  END
>  <reaction>  (15) 
rmg_rxn_37

>  <mol_properties>  (15) 
{"0": {"label": "*1", "atom_type": "N3s"}, "1": {"label": "*0", "atom_type": "N3s"}, "2": {"label": "*2", "atom_type": "H0"}, "5": {"label": "*3", "atom_type": "Cs"}, "6": {"label": "*4", "atom_type": "O2s"}}

>  <type>  (15) 
unop_11

>  <geom_source>  (15) 
Heuristics

$$$$

     RDKit          3D

 18 17  0  0  0  0  0  0  0  0999 V2000
    0.4356   -2.6856   -0.3317 N   0  0  0  0  0  2  0  0  0  0  0  0
    0.4356   -2.6856   -1.6727 N   0  0  0  0  0  0  0  0  0  0  0  0
    0.4356   -1.5098    0.0085 H   0  0  0  0  0  0  0  0  0  0  0  0
    0.6235   -3.5856   -2.0816 H   0  0  0  0  0  0  0  0  0  0  0  0
    0.7976   -1.8972   -2.1902 H   0  0  0  0  0  0  0  0  0  0  0  0
    0.4356   -0.2560    0.3713 C   0  0  0  0  0  3  0  0  0  0  0  0
    0.4356    0.5128   -0.7929 O   0  0  0  0  0  0  0  0  0  0  0  0
    0.4125    1.8954   -0.4942 C   0  0  0  0  0  0  0  0  0  0  0  0
   -0.7892    2.2284    0.3785 C   0  0  0  0  0  0  0  0  0  0  0  0
   -0.7931    1.2950    1.5807 C   0  0  0  0  0  0  0  0  0  0  0  0
   -0.6982   -0.0519    1.1583 O   0  0  0  0  0  0  0  0  0  0  0  0
    1.3402   -0.0256    0.9636 H   0  0  0  0  0  0  0  0  0  0  0  0
    1.3430    2.1746    0.0236 H   0  0  0  0  0  0  0  0  0  0  0  0
    0.3821    2.4216   -1.4472 H   0  0  0  0  0  0  0  0  0  0  0  0
   -0.7477    3.2703    0.7041 H   0  0  0  0  0  0  0  0  0  0  0  0
   -1.7063    2.0842   -0.1960 H   0  0  0  0  0  0  0  0  0  0  0  0
   -1.7128    1.3783    2.1582 H   0  0  0  0  0  0  0  0  0  0  0  0
    0.0526    1.5320    2.2444 H   0  0  0  0  0  0  0  0  0  0  0  0
  1  2  1  0
  1  3  1  0
  2  4  1  0
  2  5  1  0
  6  7  1  0
  6 11  1  0
  6 12  1  0
  7  8  1  0
  8  9  1  0
  8 13  1  0
  8 14  1  0
  9 10  1  0
  9 15  1  0
  9 16  1  0
 10 11  1  0
 10 17  1  0
 10 18  1  0
M  RAD  2   1   2   6   2
M  END
>  <reaction>  (16) 
rmg_rxn_37

>  <mol_properties>  (16) 
{"0": {"label": "*1", "atom_type": "N3s"}, "1": {"label": "*0", "atom_type": "N3s"}, "2": {"label": "*2", "atom_type": "H0"}, "5": {"label": "*3", "atom_type": "Cs"}, "6": {"label": "*4", "atom_type": "O2s"}}

>  <type>  (16) 
unop_12

>  <geom_source>  (16) 
Heuristics

$$$$

     RDKit          3D

 18 17  0  0  0  0  0  0  0  0999 V2000
    0.7082   -2.4366   -0.5854 N   0  0  0  0  0  2  0  0  0  0  0  0
    0.7082   -2.4366   -1.9264 N   0  0  0  0  0  0  0  0  0  0  0  0
    0.7082   -1.2608   -0.2452 H   0  0  0  0  0  0  0  0  0  0  0  0
    0.8961   -3.3366   -2.3353 H   0  0  0  0  0  0  0  0  0  0  0  0
    1.0702   -1.6482   -2.4439 H   0  0  0  0  0  0  0  0  0  0  0  0
    0.7082   -0.0070    0.1176 C   0  0  0  0  0  3  0  0  0  0  0  0
    0.0422    0.7121   -0.8752 O   0  0  0  0  0  0  0  0  0  0  0  0
   -0.3968    1.9672   -0.3918 C   0  0  0  0  0  0  0  0  0  0  0  0
   -1.2810    1.7829    0.8333 C   0  0  0  0  0  0  0  0  0  0  0  0
   -0.5445    0.9107    1.8400 C   0  0  0  0  0  0  0  0  0  0  0  0
   -0.0967   -0.2814    1.2236 O   0  0  0  0  0  0  0  0  0  0  0  0
    1.6008    0.5577    0.4440 H   0  0  0  0  0  0  0  0  0  0  0  0
    0.4758    2.5879   -0.1367 H   0  0  0  0  0  0  0  0  0  0  0  0
   -0.9300    2.4493   -1.2101 H   0  0  0  0  0  0  0  0  0  0  0  0
   -1.5278    2.7508    1.2752 H   0  0  0  0  0  0  0  0  0  0  0  0
   -2.2108    1.2920    0.5394 H   0  0  0  0  0  0  0  0  0  0  0  0
   -1.1865    0.6134    2.6680 H   0  0  0  0  0  0  0  0  0  0  0  0
    0.3177    1.4570    2.2521 H   0  0  0  0  0  0  0  0  0  0  0  0
  1  2  1  0
  1  3  1  0
  2  4  1  0
  2  5  1  0
  6  7  1  0
  6 11  1  0
  6 12  1  0
  7  8  1  0
  8  9  1  0
  8 13  1  0
  8 14  1  0
  9 10  1  0
  9 15  1  0
  9 16  1  0
 10 11  1  0
 10 17  1  0
 10 18  1  0
M  RAD  2   1   2   6   2
M  END
>  <reaction>  (17) 
rmg_rxn_37

>  <mol_properties>  (17) 
{"0": {"label": "*1", "atom_type": "N3s"}, "1": {"label": "*0", "atom_type": "N3s"}, "2": {"label": "*2", "atom_type": "H0"}, "5": {"label": "*3", "atom_type": "Cs"}, "6": {"label": "*4", "atom_type": "O2s"}}

>  <type>  (17) 
unop_13

>  <geom_source>  (17) 
gaussian_log

$$$$
