
     RDKit          3D

  7  6  0  0  0  0  0  0  0  0999 V2000
   -0.8548    0.0121    0.2120 C   0  0  0  0  0  0  0  0  0  0  0  0
    0.1921   -0.9637    0.4698 N   0  0  0  0  0  0  0  0  0  0  0  0
    0.8785   -1.2092   -0.5201 N   0  0  0  0  0  0  0  0  0  0  0  0
   -1.8110   -0.4522    0.4600 H   0  0  0  0  0  0  0  0  0  0  0  0
   -0.7101    0.8457    0.9015 H   0  0  0  0  0  0  0  0  0  0  0  0
   -0.8478    0.3585   -0.8239 H   0  0  0  0  0  0  0  0  0  0  0  0
    1.5811   -1.9033   -0.2318 H   0  0  0  0  0  0  0  0  0  0  0  0
  1  2  1  0
  1  4  1  0
  1  5  1  0
  1  6  1  0
  2  3  2  3
  3  7  1  0
M  END
>  <reaction>  (1) 
rmg_rxn_16714

>  <mol_properties>  (1) 
{"0": {"label": "donator", "atom_type": "Cs"}, "3": {"label": "d_hydrogen", "atom_type": "H0"}}

>  <type>  (1) 
r1h

$$$$

     RDKit          3D

  7  6  0  0  0  0  0  0  0  0999 V2000
   -0.6441   -0.1356    0.0624 C   0  0  0  0  0  0  0  0  0  0  0  0
    0.8523    0.0148   -0.0333 C   0  0  0  0  0  0  0  0  0  0  0  0
    1.6700   -0.6077    0.6603 N   0  0  0  0  0  2  0  0  0  0  0  0
   -1.0940    0.8275    0.3091 H   0  0  0  0  0  0  0  0  0  0  0  0
   -0.9104   -0.8656    0.8237 H   0  0  0  0  0  0  0  0  0  0  0  0
   -1.0427   -0.4545   -0.9022 H   0  0  0  0  0  0  0  0  0  0  0  0
    1.2362    0.7308   -0.7748 H   0  0  0  0  0  0  0  0  0  0  0  0
  1  2  1  0
  1  4  1  0
  1  5  1  0
  1  6  1  0
  2  3  2  0
  2  7  1  0
M  RAD  1   3   2
M  END
>  <reaction>  (2) 
rmg_rxn_16714

>  <mol_properties>  (2) 
{"2": {"label": "acceptor", "atom_type": "N3d"}}

>  <type>  (2) 
r2

$$$$

     RDKit          3D

  8  7  0  0  0  0  0  0  0  0999 V2000
    0.9548    0.1194   -0.0790 C   0  0  0  0  0  0  0  0  0  0  0  0
   -0.4838   -0.2649    0.0193 C   0  0  0  0  0  0  0  0  0  0  0  0
   -0.8933   -1.1081    0.8664 N   0  0  0  0  0  0  0  0  0  0  0  0
    1.3360   -0.0983   -1.0800 H   0  0  0  0  0  0  0  0  0  0  0  0
    1.0698    1.1948    0.0786 H   0  0  0  0  0  0  0  0  0  0  0  0
    1.5426   -0.4219    0.6602 H   0  0  0  0  0  0  0  0  0  0  0  0
   -1.1575    0.2324   -0.6905 H   0  0  0  0  0  0  0  0  0  0  0  0
   -1.8989   -1.2455    0.7886 H   0  0  0  0  0  0  0  0  0  0  0  0
  1  2  1  0
  1  4  1  0
  1  5  1  0
  1  6  1  0
  2  3  2  3
  2  7  1  0
  3  8  1  0
M  END
>  <reaction>  (3) 
rmg_rxn_16714

>  <mol_properties>  (3) 
{"0": {"label": "a_hydrogen", "atom_type": "H0"}, "3": {"label": "acceptor", "atom_type": "N3d"}}

>  <type>  (3) 
r2h

$$$$

     RDKit          3D

 14 12  0  0  0  0  0  0  0  0999 V2000
    1.0698    0.8614   -1.1147 C   0  0  0  0  0  0  0  0  0  0  0  0
    1.5240   -0.4610   -1.1413 N   0  0  0  0  0  0  0  0  0  0  0  0
    0.6464   -1.2907   -1.4591 N   0  0  0  0  0  2  0  0  0  0  0  0
    0.6773    1.0792    0.1433 H   0  0  0  0  0  0  0  0  0  0  0  0
    1.8727    1.5866   -1.2053 H   0  0  0  0  0  0  0  0  0  0  0  0
    0.1634    1.0668   -1.6865 H   0  0  0  0  0  0  0  0  0  0  0  0
    1.0881   -2.2156   -1.4134 H   0  0  0  0  0  0  0  0  0  0  0  0
   -1.5584   -0.0801    2.5418 C   0  0  0  0  0  0  0  0  0  0  0  0
   -0.7166    0.1677    1.3269 C   0  0  0  0  0  0  0  0  0  0  0  0
    0.0887    1.1263    1.2580 N   0  0  0  0  0  0  0  0  0  0  0  0
   -2.6146   -0.0611    2.2653 H   0  0  0  0  0  0  0  0  0  0  0  0
   -1.3673    0.6694    3.3070 H   0  0  0  0  0  0  0  0  0  0  0  0
   -1.3424   -1.0736    2.9400 H   0  0  0  0  0  0  0  0  0  0  0  0
   -0.8336   -0.5347    0.4915 H   0  0  0  0  0  0  0  0  0  0  0  0
  1  2  2  3
  1  5  1  0
  1  6  1  0
  2  3  1  0
  3  7  1  0
  4 10  1  0
  8  9  1  0
  8 11  1  0
  8 12  1  0
  8 13  1  0
  9 10  2  3
  9 14  1  0
M  RAD  1   3   2
M  END
>  <reaction>  (4) 
rmg_rxn_16714

>  <mol_properties>  (4) 
{"0": {"label": "*3", "atom_type": "Cd"}, "1": {"label": "*4", "atom_type": "N3d"}, "3": {"label": "*2", "atom_type": "H0"}, "8": {"label": "*0", "atom_type": "Cd"}, "9": {"label": "*1", "atom_type": "N3d"}}

>  <type>  (4) 
ts

$$$$

     RDKit          3D

 14 12  0  0  0  0  0  0  0  0999 V2000
    1.3992    1.0957    0.1192 C   0  0  0  0  0  0  0  0  0  0  0  0
    1.6006   -0.1733    0.3365 N   0  0  0  0  0  0  0  0  0  0  0  0
    2.2634   -1.0308   -0.3009 N   0  0  0  0  0  2  0  0  0  0  0  0
    0.0493    1.1786   -0.1834 H   0  0  0  0  0  0  0  0  0  0  0  0
    1.3323    1.7104    1.0086 H   0  0  0  0  0  0  0  0  0  0  0  0
    1.7826    1.5802   -0.7797 H   0  0  0  0  0  0  0  0  0  0  0  0
    1.9485   -1.9840   -0.1209 H   0  0  0  0  0  0  0  0  0  0  0  0
   -2.7997   -0.6656    0.0615 C   0  0  0  0  0  0  0  0  0  0  0  0
   -1.4094   -0.1317    0.0912 C   0  0  0  0  0  0  0  0  0  0  0  0
   -1.0976    1.0031   -0.3126 N   0  0  0  0  0  0  0  0  0  0  0  0
   -3.4778    0.0743   -0.3538 H   0  0  0  0  0  0  0  0  0  0  0  0
   -3.1116   -0.9247    1.0722 H   0  0  0  0  0  0  0  0  0  0  0  0
   -2.8295   -1.5712   -0.5427 H   0  0  0  0  0  0  0  0  0  0  0  0
   -0.6536   -0.8266    0.5074 H   0  0  0  0  0  0  0  0  0  0  0  0
  1  2  2  3
  1  5  1  0
  1  6  1  0
  2  3  1  0
  3  7  1  0
  4 10  1  0
  8  9  1  0
  8 11  1  0
  8 12  1  0
  8 13  1  0
  9 10  2  3
  9 14  1  0
M  RAD  1   3   2
M  END
>  <reaction>  (5) 
rmg_rxn_16714

>  <mol_properties>  (5) 
{"0": {"label": "*3", "atom_type": "Cd"}, "1": {"label": "*4", "atom_type": "N3d"}, "3": {"label": "*2", "atom_type": "H0"}, "8": {"label": "*0", "atom_type": "Cd"}, "9": {"label": "*1", "atom_type": "N3d"}}

>  <type>  (5) 
unop_1

>  <geom_source>  (5) 
crest_best.xyz

$$$$

     RDKit          3D

 14 12  0  0  0  0  0  0  0  0999 V2000
    1.0147    0.0924   -0.8697 C   0  0  0  0  0  0  0  0  0  0  0  0
    1.0147   -1.2447   -1.4415 N   0  0  0  0  0  0  0  0  0  0  0  0
    1.0147   -1.2447   -2.6708 N   0  0  0  0  0  2  0  0  0  0  0  0
   -0.0403    0.1980   -0.1006 H   0  0  0  0  0  0  0  0  0  0  0  0
    1.8938    0.1804   -0.2288 H   0  0  0  0  0  0  0  0  0  0  0  0
    1.0147    0.8683   -1.6386 H   0  0  0  0  0  0  0  0  0  0  0  0
    1.0147   -2.2292   -2.9695 H   0  0  0  0  0  0  0  0  0  0  0  0
   -1.4292    1.5450    2.6398 C   0  0  0  0  0  0  0  0  0  0  0  0
   -0.6924    0.5475    1.8096 C   0  0  0  0  0  0  0  0  0  0  0  0
   -1.0241    0.2965    0.6166 N   0  0  0  0  0  0  0  0  0  0  0  0
   -1.8274    1.0673    3.5387 H   0  0  0  0  0  0  0  0  0  0  0  0
   -2.2454    1.9838    2.0687 H   0  0  0  0  0  0  0  0  0  0  0  0
   -0.7502    2.3341    2.9727 H   0  0  0  0  0  0  0  0  0  0  0  0
    0.1522    0.0501    2.3037 H   0  0  0  0  0  0  0  0  0  0  0  0
  1  2  2  3
  1  5  1  0
  1  6  1  0
  2  3  1  0
  3  7  1  0
  4 10  1  0
  8  9  1  0
  8 11  1  0
  8 12  1  0
  8 13  1  0
  9 10  2  3
  9 14  1  0
M  RAD  1   3   2
M  END
>  <reaction>  (6) 
rmg_rxn_16714

>  <mol_properties>  (6) 
{"0": {"label": "*3", "atom_type": "Cd"}, "1": {"label": "*4", "atom_type": "N3d"}, "3": {"label": "*2", "atom_type": "H0"}, "8": {"label": "*0", "atom_type": "Cd"}, "9": {"label": "*1", "atom_type": "N3d"}}

>  <type>  (6) 
unop_2

>  <geom_source>  (6) 
Heuristics

$$$$

     RDKit          3D

 14 12  0  0  0  0  0  0  0  0999 V2000
    1.2557    0.7478   -0.7003 C   0  0  0  0  0  0  0  0  0  0  0  0
    1.2557   -0.5893   -1.2721 N   0  0  0  0  0  0  0  0  0  0  0  0
    1.2557   -0.5893   -2.5015 N   0  0  0  0  0  2  0  0  0  0  0  0
    0.2008    0.8534    0.0688 H   0  0  0  0  0  0  0  0  0  0  0  0
    2.1349    0.8358   -0.0594 H   0  0  0  0  0  0  0  0  0  0  0  0
    1.2557    1.5237   -1.4692 H   0  0  0  0  0  0  0  0  0  0  0  0
    1.2557   -1.5738   -2.8001 H   0  0  0  0  0  0  0  0  0  0  0  0
   -1.9684   -0.2791    2.4877 C   0  0  0  0  0  0  0  0  0  0  0  0
   -1.0972   -0.1672    1.2812 C   0  0  0  0  0  0  0  0  0  0  0  0
   -0.7830    0.9519    0.7860 N   0  0  0  0  0  0  0  0  0  0  0  0
   -2.8617   -0.8644    2.2551 H   0  0  0  0  0  0  0  0  0  0  0  0
   -2.2614    0.7097    2.8361 H   0  0  0  0  0  0  0  0  0  0  0  0
   -1.4410   -0.8068    3.2864 H   0  0  0  0  0  0  0  0  0  0  0  0
   -0.7503   -1.1180    0.8564 H   0  0  0  0  0  0  0  0  0  0  0  0
  1  2  2  3
  1  5  1  0
  1  6  1  0
  2  3  1  0
  3  7  1  0
  4 10  1  0
  8  9  1  0
  8 11  1  0
  8 12  1  0
  8 13  1  0
  9 10  2  3
  9 14  1  0
M  RAD  1   3   2
M  END
>  <reaction>  (7) 
rmg_rxn_16714

>  <mol_properties>  (7) 
{"0": {"label": "*3", "atom_type": "Cd"}, "1": {"label": "*4", "atom_type": "N3d"}, "3": {"label": "*2", "atom_type": "H0"}, "8": {"label": "*0", "atom_type": "Cd"}, "9": {"label": "*1", "atom_type": "N3d"}}

>  <type>  (7) 
unop_3

>  <geom_source>  (7) 
Heuristics

$$$$

     RDKit          3D

 14 12  0  0  0  0  0  0  0  0999 V2000
    1.1168   -0.0624   -0.7484 C   0  0  0  0  0  0  0  0  0  0  0  0
    1.1168   -1.3995   -1.3202 N   0  0  0  0  0  0  0  0  0  0  0  0
    1.1168   -1.3995   -2.5495 N   0  0  0  0  0  2  0  0  0  0  0  0
    0.0618    0.0432    0.0207 H   0  0  0  0  0  0  0  0  0  0  0  0
    1.9959    0.0256   -0.1075 H   0  0  0  0  0  0  0  0  0  0  0  0
    1.1168    0.7135   -1.5173 H   0  0  0  0  0  0  0  0  0  0  0  0
    1.1168   -2.3840   -2.8482 H   0  0  0  0  0  0  0  0  0  0  0  0
   -1.8010    1.7665    2.2883 C   0  0  0  0  0  0  0  0  0  0  0  0
   -0.7093    0.9418    1.6923 C   0  0  0  0  0  0  0  0  0  0  0  0
   -0.9220    0.1417    0.7379 N   0  0  0  0  0  0  0  0  0  0  0  0
   -1.9009    1.5468    3.3544 H   0  0  0  0  0  0  0  0  0  0  0  0
   -2.7451    1.5654    1.7851 H   0  0  0  0  0  0  0  0  0  0  0  0
   -1.5604    2.8293    2.2034 H   0  0  0  0  0  0  0  0  0  0  0  0
    0.2849    1.0773    2.1374 H   0  0  0  0  0  0  0  0  0  0  0  0
  1  2  2  3
  1  5  1  0
  1  6  1  0
  2  3  1  0
  3  7  1  0
  4 10  1  0
  8  9  1  0
  8 11  1  0
  8 12  1  0
  8 13  1  0
  9 10  2  3
  9 14  1  0
M  RAD  1   3   2
M  END
>  <reaction>  (8) 
rmg_rxn_16714

>  <mol_properties>  (8) 
{"0": {"label": "*3", "atom_type": "Cd"}, "1": {"label": "*4", "atom_type": "N3d"}, "3": {"label": "*2", "atom_type": "H0"}, "8": {"label": "*0", "atom_type": "Cd"}, "9": {"label": "*1", "atom_type": "N3d"}}

>  <type>  (8) 
unop_4

>  <geom_source>  (8) 
Heuristics

$$$$

     RDKit          3D

 14 12  0  0  0  0  0  0  0  0999 V2000
    1.5766    0.2855   -0.1583 C   0  0  0  0  0  0  0  0  0  0  0  0
    1.5766   -1.0516   -0.7301 N   0  0  0  0  0  0  0  0  0  0  0  0
    1.5766   -1.0516   -1.9594 N   0  0  0  0  0  2  0  0  0  0  0  0
    0.5216    0.3911    0.6108 H   0  0  0  0  0  0  0  0  0  0  0  0
    2.4557    0.3735    0.4826 H   0  0  0  0  0  0  0  0  0  0  0  0
    1.5766    1.0614   -0.9272 H   0  0  0  0  0  0  0  0  0  0  0  0
    1.5766   -2.0361   -2.2581 H   0  0  0  0  0  0  0  0  0  0  0  0
   -2.7893    1.0309    0.9999 C   0  0  0  0  0  0  0  0  0  0  0  0
   -1.5246    0.3118    0.6677 C   0  0  0  0  0  0  0  0  0  0  0  0
   -0.4622    0.4896    1.3280 N   0  0  0  0  0  0  0  0  0  0  0  0
   -3.1264    1.6177    0.1416 H   0  0  0  0  0  0  0  0  0  0  0  0
   -2.6377    1.6886    1.8539 H   0  0  0  0  0  0  0  0  0  0  0  0
   -3.5826    0.3140    1.2267 H   0  0  0  0  0  0  0  0  0  0  0  0
   -1.5804   -0.3779   -0.1844 H   0  0  0  0  0  0  0  0  0  0  0  0
  1  2  2  3
  1  5  1  0
  1  6  1  0
  2  3  1  0
  3  7  1  0
  4 10  1  0
  8  9  1  0
  8 11  1  0
  8 12  1  0
  8 13  1  0
  9 10  2  3
  9 14  1  0
M  RAD  1   3   2
M  END
>  <reaction>  (9) 
rmg_rxn_16714

>  <mol_properties>  (9) 
{"0": {"label": "*3", "atom_type": "Cd"}, "1": {"label": "*4", "atom_type": "N3d"}, "3": {"label": "*2", "atom_type": "H0"}, "8": {"label": "*0", "atom_type": "Cd"}, "9": {"label": "*1", "atom_type": "N3d"}}

>  <type>  (9) 
unop_5

>  <geom_source>  (9) 
Heuristics

$$$$

     RDKit          3D

 14 12  0  0  0  0  0  0  0  0999 V2000
    1.2119   -0.1012   -0.6631 C   0  0  0  0  0  0  0  0  0  0  0  0
    1.2119   -1.4383   -1.2349 N   0  0  0  0  0  0  0  0  0  0  0  0
    1.2119   -1.4383   -2.4643 N   0  0  0  0  0  2  0  0  0  0  0  0
    0.1569    0.0044    0.1059 H   0  0  0  0  0  0  0  0  0  0  0  0
    2.0910   -0.0132   -0.0222 H   0  0  0  0  0  0  0  0  0  0  0  0
    1.2119    0.6747   -1.4320 H   0  0  0  0  0  0  0  0  0  0  0  0
    1.2119   -2.4228   -2.7630 H   0  0  0  0  0  0  0  0  0  0  0  0
   -1.9960    1.6299    2.2784 C   0  0  0  0  0  0  0  0  0  0  0  0
   -0.8881    1.2475    1.3546 C   0  0  0  0  0  0  0  0  0  0  0  0
   -0.8269    0.1029    0.8232 N   0  0  0  0  0  0  0  0  0  0  0  0
   -1.5928    1.9156    3.2533 H   0  0  0  0  0  0  0  0  0  0  0  0
   -2.6905    0.8006    2.4003 H   0  0  0  0  0  0  0  0  0  0  0  0
   -2.5301    2.4997    1.8874 H   0  0  0  0  0  0  0  0  0  0  0  0
   -0.1347    2.0241    1.1698 H   0  0  0  0  0  0  0  0  0  0  0  0
  1  2  2  3
  1  5  1  0
  1  6  1  0
  2  3  1  0
  3  7  1  0
  4 10  1  0
  8  9  1  0
  8 11  1  0
  8 12  1  0
  8 13  1  0
  9 10  2  3
  9 14  1  0
M  RAD  1   3   2
M  END
>  <reaction>  (10) 
rmg_rxn_16714

>  <mol_properties>  (10) 
{"0": {"label": "*3", "atom_type": "Cd"}, "1": {"label": "*4", "atom_type": "N3d"}, "3": {"label": "*2", "atom_type": "H0"}, "8": {"label": "*0", "atom_type": "Cd"}, "9": {"label": "*1", "atom_type": "N3d"}}

>  <type>  (10) 
unop_6

>  <geom_source>  (10) 
Heuristics

$$$$

     RDKit          3D

 14 12  0  0  0  0  0  0  0  0999 V2000
    1.4968    0.0303   -0.2030 C   0  0  0  0  0  0  0  0  0  0  0  0
    1.4968   -1.3068   -0.7748 N   0  0  0  0  0  0  0  0  0  0  0  0
    1.4968   -1.3068   -2.0042 N   0  0  0  0  0  2  0  0  0  0  0  0
    0.4419    0.1359    0.5661 H   0  0  0  0  0  0  0  0  0  0  0  0
    2.3759    0.1183    0.4379 H   0  0  0  0  0  0  0  0  0  0  0  0
    1.4968    0.8062   -0.9719 H   0  0  0  0  0  0  0  0  0  0  0  0
    1.4968   -2.2914   -2.3028 H   0  0  0  0  0  0  0  0  0  0  0  0
   -2.4754    1.6736    1.2022 C   0  0  0  0  0  0  0  0  0  0  0  0
   -1.5365    0.6631    0.6326 C   0  0  0  0  0  0  0  0  0  0  0  0
   -0.5420    0.2343    1.2833 N   0  0  0  0  0  0  0  0  0  0  0  0
   -2.5020    2.5636    0.5682 H   0  0  0  0  0  0  0  0  0  0  0  0
   -2.1668    1.9523    2.2083 H   0  0  0  0  0  0  0  0  0  0  0  0
   -3.4914    1.2717    1.2295 H   0  0  0  0  0  0  0  0  0  0  0  0
   -1.7681    0.3200   -0.3840 H   0  0  0  0  0  0  0  0  0  0  0  0
  1  2  2  3
  1  5  1  0
  1  6  1  0
  2  3  1  0
  3  7  1  0
  4 10  1  0
  8  9  1  0
  8 11  1  0
  8 12  1  0
  8 13  1  0
  9 10  2  3
  9 14  1  0
M  RAD  1   3   2
M  END
>  <reaction>  (11) 
rmg_rxn_16714

>  <mol_properties>  (11) 
{"0": {"label": "*3", "atom_type": "Cd"}, "1": {"label": "*4", "atom_type": "N3d"}, "3": {"label": "*2", "atom_type": "H0"}, "8": {"label": "*0", "atom_type": "Cd"}, "9": {"label": "*1", "atom_type": "N3d"}}

>  <type>  (11) 
unop_7

>  <geom_source>  (11) 
Heuristics

$$$$

     RDKit          3D

 14 12  0  0  0  0  0  0  0  0999 V2000
    1.3671   -0.1272   -0.3561 C   0  0  0  0  0  0  0  0  0  0  0  0
    1.3671   -1.4643   -0.9279 N   0  0  0  0  0  0  0  0  0  0  0  0
    1.3671   -1.4643   -2.1573 N   0  0  0  0  0  2  0  0  0  0  0  0
    0.3121   -0.0216    0.4129 H   0  0  0  0  0  0  0  0  0  0  0  0
    2.2462   -0.0392    0.2848 H   0  0  0  0  0  0  0  0  0  0  0  0
    1.3671    0.6487   -1.1250 H   0  0  0  0  0  0  0  0  0  0  0  0
    1.3671   -2.4488   -2.4560 H   0  0  0  0  0  0  0  0  0  0  0  0
   -2.0821    1.9518    1.6885 C   0  0  0  0  0  0  0  0  0  0  0  0
   -1.4299    1.0071    0.7349 C   0  0  0  0  0  0  0  0  0  0  0  0
   -0.6717    0.0769    1.1302 N   0  0  0  0  0  0  0  0  0  0  0  0
   -1.7859    2.9796    1.4634 H   0  0  0  0  0  0  0  0  0  0  0  0
   -1.8037    1.7086    2.7123 H   0  0  0  0  0  0  0  0  0  0  0  0
   -3.1690    1.9034    1.5837 H   0  0  0  0  0  0  0  0  0  0  0  0
   -1.6528    1.1749   -0.3266 H   0  0  0  0  0  0  0  0  0  0  0  0
  1  2  2  3
  1  5  1  0
  1  6  1  0
  2  3  1  0
  3  7  1  0
  4 10  1  0
  8  9  1  0
  8 11  1  0
  8 12  1  0
  8 13  1  0
  9 10  2  3
  9 14  1  0
M  RAD  1   3   2
M  END
>  <reaction>  (12) 
rmg_rxn_16714

>  <mol_properties>  (12) 
{"0": {"label": "*3", "atom_type": "Cd"}, "1": {"label": "*4", "atom_type": "N3d"}, "3": {"label": "*2", "atom_type": "H0"}, "8": {"label": "*0", "atom_type": "Cd"}, "9": {"label": "*1", "atom_type": "N3d"}}

>  <type>  (12) 
unop_8

>  <geom_source>  (12) 
Heuristics

$$$$

     RDKit          3D

 14 12  0  0  0  0  0  0  0  0999 V2000
    0.9993    0.3403   -0.9280 C   0  0  0  0  0  0  0  0  0  0  0  0
    0.9993   -0.9968   -1.4997 N   0  0  0  0  0  0  0  0  0  0  0  0
    0.9993   -0.9968   -2.7291 N   0  0  0  0  0  2  0  0  0  0  0  0
   -0.0556    0.4459   -0.1589 H   0  0  0  0  0  0  0  0  0  0  0  0
    1.8784    0.4283   -0.2871 H   0  0  0  0  0  0  0  0  0  0  0  0
    0.9993    1.1162   -1.6968 H   0  0  0  0  0  0  0  0  0  0  0  0
    0.9993   -1.9814   -3.0278 H   0  0  0  0  0  0  0  0  0  0  0  0
   -1.2938    0.9373    2.9242 C   0  0  0  0  0  0  0  0  0  0  0  0
   -0.7755    0.1888    1.7417 C   0  0  0  0  0  0  0  0  0  0  0  0
   -1.0394    0.5444    0.5583 N   0  0  0  0  0  0  0  0  0  0  0  0
   -1.8965    0.2777    3.5538 H   0  0  0  0  0  0  0  0  0  0  0  0
   -1.8969    1.7841    2.6016 H   0  0  0  0  0  0  0  0  0  0  0  0
   -0.4632    1.2931    3.5392 H   0  0  0  0  0  0  0  0  0  0  0  0
   -0.1533   -0.6863    1.9692 H   0  0  0  0  0  0  0  0  0  0  0  0
  1  2  2  3
  1  5  1  0
  1  6  1  0
  2  3  1  0
  3  7  1  0
  4 10  1  0
  8  9  1  0
  8 11  1  0
  8 12  1  0
  8 13  1  0
  9 10  2  3
  9 14  1  0
M  RAD  1   3   2
M  END
>  <reaction>  (13) 
rmg_rxn_16714

>  <mol_properties>  (13) 
{"0": {"label": "*3", "atom_type": "Cd"}, "1": {"label": "*4", "atom_type": "N3d"}, "3": {"label": "*2", "atom_type": "H0"}, "8": {"label": "*0", "atom_type": "Cd"}, "9": {"label": "*1", "atom_type": "N3d"}}

>  <type>  (13) 
unop_9

>  <geom_source>  (13) 
Heuristics

$$$$

     RDKit          3D

 14 12  0  0  0  0  0  0  0  0999 V2000
    1.3992    1.0957    0.1192 C   0  0  0  0  0  0  0  0  0  0  0  0
    1.6006   -0.1733    0.3365 N   0  0  0  0  0  0  0  0  0  0  0  0
    2.2634   -1.0308   -0.3009 N   0  0  0  0  0  2  0  0  0  0  0  0
    0.0493    1.1786   -0.1834 H   0  0  0  0  0  0  0  0  0  0  0  0
    1.3323    1.7104    1.0086 H   0  0  0  0  0  0  0  0  0  0  0  0
    1.7826    1.5802   -0.7797 H   0  0  0  0  0  0  0  0  0  0  0  0
    1.9485   -1.9840   -0.1209 H   0  0  0  0  0  0  0  0  0  0  0  0
   -2.7997   -0.6656    0.0615 C   0  0  0  0  0  0  0  0  0  0  0  0
   -1.4094   -0.1317    0.0912 C   0  0  0  0  0  0  0  0  0  0  0  0
   -1.0976    1.0031   -0.3126 N   0  0  0  0  0  0  0  0  0  0  0  0
   -3.4778    0.0743   -0.3538 H   0  0  0  0  0  0  0  0  0  0  0  0
   -3.1116   -0.9247    1.0722 H   0  0  0  0  0  0  0  0  0  0  0  0
   -2.8295   -1.5712   -0.5427 H   0  0  0  0  0  0  0  0  0  0  0  0
   -0.6536   -0.8266    0.5074 H   0  0  0  0  0  0  0  0  0  0  0  0
  1  2  2  3
  1  5  1  0
  1  6  1  0
  2  3  1  0
  3  7  1  0
  4 10  1  0
  8  9  1  0
  8 11  1  0
  8 12  1  0
  8 13  1  0
  9 10  2  3
  9 14  1  0
M  RAD  1   3   2
M  END
>  <reaction>  (14) 
rmg_rxn_16714

>  <mol_properties>  (14) 
{"0": {"label": "*3", "atom_type": "Cd"}, "1": {"label": "*4", "atom_type": "N3d"}, "3": {"label": "*2", "atom_type": "H0"}, "8": {"label": "*0", "atom_type": "Cd"}, "9": {"label": "*1", "atom_type": "N3d"}}

>  <type>  (14) 
unop_10

>  <geom_source>  (14) 
Heuristics

$$$$

     RDKit          3D

 14 12  0  0  0  0  0  0  0  0999 V2000
    1.5629    0.5564   -0.2527 C   0  0  0  0  0  0  0  0  0  0  0  0
    1.5629   -0.7807   -0.8245 N   0  0  0  0  0  0  0  0  0  0  0  0
    1.5629   -0.7807   -2.0539 N   0  0  0  0  0  2  0  0  0  0  0  0
    0.5080    0.6620    0.5164 H   0  0  0  0  0  0  0  0  0  0  0  0
    2.4420    0.6444    0.3882 H   0  0  0  0  0  0  0  0  0  0  0  0
    1.5629    1.3323   -1.0216 H   0  0  0  0  0  0  0  0  0  0  0  0
    1.5629   -1.7653   -2.3525 H   0  0  0  0  0  0  0  0  0  0  0  0
   -2.8352    0.2611    1.2244 C   0  0  0  0  0  0  0  0  0  0  0  0
   -1.4192    0.0335    0.8119 C   0  0  0  0  0  0  0  0  0  0  0  0
   -0.4758    0.7605    1.2336 N   0  0  0  0  0  0  0  0  0  0  0  0
   -3.4583    0.4504    0.3466 H   0  0  0  0  0  0  0  0  0  0  0  0
   -2.8996    1.1075    1.9060 H   0  0  0  0  0  0  0  0  0  0  0  0
   -3.2346   -0.6320    1.7118 H   0  0  0  0  0  0  0  0  0  0  0  0
   -1.2548   -0.8036    0.1212 H   0  0  0  0  0  0  0  0  0  0  0  0
  1  2  2  3
  1  5  1  0
  1  6  1  0
  2  3  1  0
  3  7  1  0
  4 10  1  0
  8  9  1  0
  8 11  1  0
  8 12  1  0
  8 13  1  0
  9 10  2  3
  9 14  1  0
M  RAD  1   3   2
M  END
>  <reaction>  (15) 
rmg_rxn_16714

>  <mol_properties>  (15) 
{"0": {"label": "*3", "atom_type": "Cd"}, "1": {"label": "*4", "atom_type": "N3d"}, "3": {"label": "*2", "atom_type": "H0"}, "8": {"label": "*0", "atom_type": "Cd"}, "9": {"label": "*1", "atom_type": "N3d"}}

>  <type>  (15) 
unop_11

>  <geom_source>  (15) 
Heuristics

$$$$

     RDKit          3D

 14 12  0  0  0  0  0  0  0  0999 V2000
    1.0871    0.5905   -0.8715 C   0  0  0  0  0  0  0  0  0  0  0  0
    1.0871   -0.7466   -1.4433 N   0  0  0  0  0  0  0  0  0  0  0  0
    1.0871   -0.7466   -2.6727 N   0  0  0  0  0  2  0  0  0  0  0  0
    0.0322    0.6961   -0.1024 H   0  0  0  0  0  0  0  0  0  0  0  0
    1.9663    0.6785   -0.2306 H   0  0  0  0  0  0  0  0  0  0  0  0
    1.0871    1.3664   -1.6404 H   0  0  0  0  0  0  0  0  0  0  0  0
    1.0871   -1.7311   -2.9713 H   0  0  0  0  0  0  0  0  0  0  0  0
   -1.4891    0.2206    2.8947 C   0  0  0  0  0  0  0  0  0  0  0  0
   -0.9241   -0.0624    1.5427 C   0  0  0  0  0  0  0  0  0  0  0  0
   -0.9516    0.7946    0.6148 N   0  0  0  0  0  0  0  0  0  0  0  0
   -2.2733   -0.5019    3.1348 H   0  0  0  0  0  0  0  0  0  0  0  0
   -1.8991    1.2284    2.9302 H   0  0  0  0  0  0  0  0  0  0  0  0
   -0.7137    0.1142    3.6576 H   0  0  0  0  0  0  0  0  0  0  0  0
   -0.4858   -1.0601    1.4108 H   0  0  0  0  0  0  0  0  0  0  0  0
  1  2  2  3
  1  5  1  0
  1  6  1  0
  2  3  1  0
  3  7  1  0
  4 10  1  0
  8  9  1  0
  8 11  1  0
  8 12  1  0
  8 13  1  0
  9 10  2  3
  9 14  1  0
M  RAD  1   3   2
M  END
>  <reaction>  (16) 
rmg_rxn_16714

>  <mol_properties>  (16) 
{"0": {"label": "*3", "atom_type": "Cd"}, "1": {"label": "*4", "atom_type": "N3d"}, "3": {"label": "*2", "atom_type": "H0"}, "8": {"label": "*0", "atom_type": "Cd"}, "9": {"label": "*1", "atom_type": "N3d"}}

>  <type>  (16) 
unop_12

>  <geom_source>  (16) 
Heuristics

$$$$

     RDKit          3D

 14 12  0  0  0  0  0  0  0  0999 V2000
    1.2554   -0.1488   -0.5463 C   0  0  0  0  0  0  0  0  0  0  0  0
    1.2554   -1.4859   -1.1181 N   0  0  0  0  0  0  0  0  0  0  0  0
    1.2554   -1.4859   -2.3475 N   0  0  0  0  0  2  0  0  0  0  0  0
    0.2005   -0.0432    0.2228 H   0  0  0  0  0  0  0  0  0  0  0  0
    2.1345   -0.0608    0.0946 H   0  0  0  0  0  0  0  0  0  0  0  0
    1.2554    0.6271   -1.3152 H   0  0  0  0  0  0  0  0  0  0  0  0
    1.2554   -2.4705   -2.6461 H   0  0  0  0  0  0  0  0  0  0  0  0
   -1.8718    1.8106    2.1851 C   0  0  0  0  0  0  0  0  0  0  0  0
   -1.1999    1.2475    0.9774 C   0  0  0  0  0  0  0  0  0  0  0  0
   -0.7833    0.0553    0.9400 N   0  0  0  0  0  0  0  0  0  0  0  0
   -1.3206    2.6798    2.5529 H   0  0  0  0  0  0  0  0  0  0  0  0
   -1.9320    1.0587    2.9700 H   0  0  0  0  0  0  0  0  0  0  0  0
   -2.8774    2.1554    1.9312 H   0  0  0  0  0  0  0  0  0  0  0  0
   -1.0931    1.9360    0.1293 H   0  0  0  0  0  0  0  0  0  0  0  0
  1  2  2  3
  1  5  1  0
  1  6  1  0
  2  3  1  0
  3  7  1  0
  4 10  1  0
  8  9  1  0
  8 11  1  0
  8 12  1  0
  8 13  1  0
  9 10  2  3
  9 14  1  0
M  RAD  1   3   2
M  END
>  <reaction>  (17) 
rmg_rxn_16714

>  <mol_properties>  (17) 
{"0": {"label": "*3", "atom_type": "Cd"}, "1": {"label": "*4", "atom_type": "N3d"}, "3": {"label": "*2", "atom_type": "H0"}, "8": {"label": "*0", "atom_type": "Cd"}, "9": {"label": "*1", "atom_type": "N3d"}}

>  <type>  (17) 
unop_13

>  <geom_source>  (17) 
Heuristics

$$$$

     RDKit          3D

 14 12  0  0  0  0  0  0  0  0999 V2000
    1.4422    0.7377   -0.4624 C   0  0  0  0  0  0  0  0  0  0  0  0
    1.4422   -0.5994   -1.0342 N   0  0  0  0  0  0  0  0  0  0  0  0
    1.4422   -0.5994   -2.2636 N   0  0  0  0  0  2  0  0  0  0  0  0
    0.3872    0.8433    0.3067 H   0  0  0  0  0  0  0  0  0  0  0  0
    2.3213    0.8257    0.1785 H   0  0  0  0  0  0  0  0  0  0  0  0
    1.4422    1.5136   -1.2313 H   0  0  0  0  0  0  0  0  0  0  0  0
    1.4422   -1.5839   -2.5622 H   0  0  0  0  0  0  0  0  0  0  0  0
   -2.5191   -0.2757    1.8225 C   0  0  0  0  0  0  0  0  0  0  0  0
   -1.2661   -0.1297    1.0251 C   0  0  0  0  0  0  0  0  0  0  0  0
   -0.5966    0.9418    1.0239 N   0  0  0  0  0  0  0  0  0  0  0  0
   -3.3585   -0.5177    1.1655 H   0  0  0  0  0  0  0  0  0  0  0  0
   -2.7333    0.6446    2.3630 H   0  0  0  0  0  0  0  0  0  0  0  0
   -2.4212   -1.1018    2.5314 H   0  0  0  0  0  0  0  0  0  0  0  0
   -0.9681   -1.0115    0.4435 H   0  0  0  0  0  0  0  0  0  0  0  0
  1  2  2  3
  1  5  1  0
  1  6  1  0
  2  3  1  0
  3  7  1  0
  4 10  1  0
  8  9  1  0
  8 11  1  0
  8 12  1  0
  8 13  1  0
  9 10  2  3
  9 14  1  0
M  RAD  1   3   2
M  END
>  <reaction>  (18) 
rmg_rxn_16714

>  <mol_properties>  (18) 
{"0": {"label": "*3", "atom_type": "Cd"}, "1": {"label": "*4", "atom_type": "N3d"}, "3": {"label": "*2", "atom_type": "H0"}, "8": {"label": "*0", "atom_type": "Cd"}, "9": {"label": "*1", "atom_type": "N3d"}}

>  <type>  (18) 
unop_14

>  <geom_source>  (18) 
Heuristics

$$$$

     RDKit          3D

 14 12  0  0  0  0  0  0  0  0999 V2000
    1.2557    0.7478   -0.7003 C   0  0  0  0  0  0  0  0  0  0  0  0
    1.2557   -0.5893   -1.2721 N   0  0  0  0  0  0  0  0  0  0  0  0
    1.2557   -0.5893   -2.5015 N   0  0  0  0  0  2  0  0  0  0  0  0
    0.2008    0.8534    0.0688 H   0  0  0  0  0  0  0  0  0  0  0  0
    2.1349    0.8358   -0.0594 H   0  0  0  0  0  0  0  0  0  0  0  0
    1.2557    1.5237   -1.4692 H   0  0  0  0  0  0  0  0  0  0  0  0
    1.2557   -1.5738   -2.8001 H   0  0  0  0  0  0  0  0  0  0  0  0
   -1.9684   -0.2791    2.4877 C   0  0  0  0  0  0  0  0  0  0  0  0
   -1.0972   -0.1672    1.2812 C   0  0  0  0  0  0  0  0  0  0  0  0
   -0.7830    0.9519    0.7860 N   0  0  0  0  0  0  0  0  0  0  0  0
   -2.8617   -0.8644    2.2551 H   0  0  0  0  0  0  0  0  0  0  0  0
   -2.2614    0.7097    2.8361 H   0  0  0  0  0  0  0  0  0  0  0  0
   -1.4410   -0.8068    3.2864 H   0  0  0  0  0  0  0  0  0  0  0  0
   -0.7503   -1.1180    0.8564 H   0  0  0  0  0  0  0  0  0  0  0  0
  1  2  2  3
  1  5  1  0
  1  6  1  0
  2  3  1  0
  3  7  1  0
  4 10  1  0
  8  9  1  0
  8 11  1  0
  8 12  1  0
  8 13  1  0
  9 10  2  3
  9 14  1  0
M  RAD  1   3   2
M  END
>  <reaction>  (19) 
rmg_rxn_16714

>  <mol_properties>  (19) 
{"0": {"label": "*3", "atom_type": "Cd"}, "1": {"label": "*4", "atom_type": "N3d"}, "3": {"label": "*2", "atom_type": "H0"}, "8": {"label": "*0", "atom_type": "Cd"}, "9": {"label": "*1", "atom_type": "N3d"}}

>  <type>  (19) 
unop_15

>  <geom_source>  (19) 
gaussian_log

$$$$
