
     RDKit          3D

 15 14  0  0  0  0  0  0  0  0999 V2000
   -2.0554    0.0723   -0.4910 C   0  0  0  0  0  0  0  0  0  0  0  0
   -0.7461   -0.6266   -0.8178 C   0  0  0  0  0  0  0  0  0  0  0  0
    0.3249    0.2591   -1.9782 S   0  0  0  0  0  0  0  0  0  0  0  0
   -0.7172    0.3642   -3.4551 C   0  0  0  0  0  0  0  0  0  0  0  0
   -1.1375   -0.9737   -4.0409 C   0  0  0  0  0  0  0  0  0  0  0  0
   -2.7005    0.1427   -1.3684 H   0  0  0  0  0  0  0  0  0  0  0  0
   -2.6016   -0.4848    0.2733 H   0  0  0  0  0  0  0  0  0  0  0  0
   -1.8758    1.0825   -0.1213 H   0  0  0  0  0  0  0  0  0  0  0  0
   -0.1320   -0.7246    0.0789 H   0  0  0  0  0  0  0  0  0  0  0  0
   -0.9254   -1.6374   -1.1879 H   0  0  0  0  0  0  0  0  0  0  0  0
   -1.5873    0.9874   -3.2422 H   0  0  0  0  0  0  0  0  0  0  0  0
   -0.1021    0.9161   -4.1678 H   0  0  0  0  0  0  0  0  0  0  0  0
   -1.7876   -1.5224   -3.3574 H   0  0  0  0  0  0  0  0  0  0  0  0
   -0.2676   -1.5962   -4.2534 H   0  0  0  0  0  0  0  0  0  0  0  0
   -1.6916   -0.8229   -4.9700 H   0  0  0  0  0  0  0  0  0  0  0  0
  1  2  1  0
  1  6  1  0
  1  7  1  0
  1  8  1  0
  2  3  1  0
  2  9  1  0
  2 10  1  0
  3  4  1  0
  4  5  1  0
  4 11  1  0
  4 12  1  0
  5 13  1  0
  5 14  1  0
  5 15  1  0
M  END
>  <reaction>  (1) 
rmg_rxn_180

>  <mol_properties>  (1) 
{"1": {"label": "donator", "atom_type": "Cs"}, "8": {"label": "d_hydrogen", "atom_type": "H0"}}

>  <type>  (1) 
r1h

$$$$

     RDKit          3D

  8  7  0  0  0  0  0  0  0  0999 V2000
   -1.0336    0.3440   -0.0356 C   0  0  0  0  0  3  0  0  0  0  0  0
    0.1991   -0.4326   -0.0698 C   0  0  0  0  0  0  0  0  0  0  0  0
    0.9631   -0.0368    1.2269 N   0  0  0  0  0  0  0  0  0  0  0  0
    0.8138   -0.8074    2.1160 O   0  0  0  0  0  0  0  0  0  0  0  0
   -1.0668    1.3490   -0.4321 H   0  0  0  0  0  0  0  0  0  0  0  0
   -1.8598    0.0102    0.5774 H   0  0  0  0  0  0  0  0  0  0  0  0
    0.0447   -1.5108   -0.0264 H   0  0  0  0  0  0  0  0  0  0  0  0
    0.8639   -0.1518   -0.8851 H   0  0  0  0  0  0  0  0  0  0  0  0
  1  2  1  0
  1  5  1  0
  1  6  1  0
  2  3  1  0
  2  7  1  0
  2  8  1  0
  3  4  2  0
M  RAD  1   1   2
M  END
>  <reaction>  (2) 
rmg_rxn_180

>  <mol_properties>  (2) 
{"0": {"label": "acceptor", "atom_type": "Cs"}}

>  <type>  (2) 
r2

$$$$

     RDKit          3D

  9  8  0  0  0  0  0  0  0  0999 V2000
   -1.0314    0.2323   -0.1227 C   0  0  0  0  0  0  0  0  0  0  0  0
    0.3094   -0.4511    0.0063 C   0  0  0  0  0  0  0  0  0  0  0  0
    0.3197   -1.7698    0.6841 N   0  0  0  0  0  0  0  0  0  0  0  0
   -0.7498   -2.1455    1.0557 O   0  0  0  0  0  0  0  0  0  0  0  0
   -1.4744    0.4198    0.8552 H   0  0  0  0  0  0  0  0  0  0  0  0
   -0.9073    1.1865   -0.6350 H   0  0  0  0  0  0  0  0  0  0  0  0
   -1.7319   -0.3778   -0.6927 H   0  0  0  0  0  0  0  0  0  0  0  0
    1.0375    0.1401    0.5713 H   0  0  0  0  0  0  0  0  0  0  0  0
    0.7826   -0.6494   -0.9609 H   0  0  0  0  0  0  0  0  0  0  0  0
  1  2  1  0
  1  5  1  0
  1  6  1  0
  1  7  1  0
  2  3  1  0
  2  8  1  0
  2  9  1  0
  3  4  2  0
M  END
>  <reaction>  (3) 
rmg_rxn_180

>  <mol_properties>  (3) 
{"0": {"label": "acceptor", "atom_type": "Cs"}, "8": {"label": "a_hydrogen", "atom_type": "H0"}}

>  <type>  (3) 
r2h

$$$$

     RDKit          3D

 23 21  0  0  0  0  0  0  0  0999 V2000
   -0.1821   -1.3890    0.5513 C   0  0  0  0  0  3  0  0  0  0  0  0
   -0.9743   -0.3034    1.1964 C   0  0  0  0  0  0  0  0  0  0  0  0
   -2.2997    0.0075    0.6131 N   0  0  0  0  0  0  0  0  0  0  0  0
   -2.6121   -0.6758   -0.3146 O   0  0  0  0  0  0  0  0  0  0  0  0
    0.7200   -1.6575    1.0946 H   0  0  0  0  0  0  0  0  0  0  0  0
   -0.7551   -2.2499    0.2196 H   0  0  0  0  0  0  0  0  0  0  0  0
   -1.2029   -0.4958    2.2539 H   0  0  0  0  0  0  0  0  0  0  0  0
   -0.4569    0.6630    1.1858 H   0  0  0  0  0  0  0  0  0  0  0  0
   -0.3013   -0.8253   -2.8043 C   0  0  0  0  0  0  0  0  0  0  0  0
    0.6922   -0.3294   -1.7803 C   0  0  0  0  0  0  0  0  0  0  0  0
    0.7316    1.4426   -1.6499 S   0  0  0  0  0  0  0  0  0  0  0  0
    2.3446    1.7090   -0.8751 C   0  0  0  0  0  0  0  0  0  0  0  0
    2.4550    1.2333    0.5641 C   0  0  0  0  0  0  0  0  0  0  0  0
   -0.0021   -0.5448   -3.8167 H   0  0  0  0  0  0  0  0  0  0  0  0
   -0.3736   -1.9130   -2.7550 H   0  0  0  0  0  0  0  0  0  0  0  0
   -1.2963   -0.4208   -2.6159 H   0  0  0  0  0  0  0  0  0  0  0  0
    0.3127   -0.8352   -0.6578 H   0  0  0  0  0  0  0  0  0  0  0  0
    1.6968   -0.7318   -1.9229 H   0  0  0  0  0  0  0  0  0  0  0  0
    3.1038    1.2362   -1.5015 H   0  0  0  0  0  0  0  0  0  0  0  0
    2.5040    2.7866   -0.9358 H   0  0  0  0  0  0  0  0  0  0  0  0
    2.2812    0.1593    0.6389 H   0  0  0  0  0  0  0  0  0  0  0  0
    1.7289    1.7421    1.1995 H   0  0  0  0  0  0  0  0  0  0  0  0
    3.4536    1.4393    0.9556 H   0  0  0  0  0  0  0  0  0  0  0  0
  1  2  1  0
  1  5  1  0
  1  6  1  0
  2  3  1  0
  2  7  1  0
  2  8  1  0
  3  4  2  0
  9 10  1  0
  9 14  1  0
  9 15  1  0
  9 16  1  0
 10 11  1  0
 10 17  1  0
 10 18  1  0
 11 12  1  0
 12 13  1  0
 12 19  1  0
 12 20  1  0
 13 21  1  0
 13 22  1  0
 13 23  1  0
M  RAD  1   1   2
M  END
>  <reaction>  (4) 
rmg_rxn_180

>  <mol_properties>  (4) 
{"0": {"label": "*3", "atom_type": "Cs"}, "1": {"label": "*4", "atom_type": "Cs"}, "9": {"label": "*1", "atom_type": "Cs"}, "10": {"label": "*0", "atom_type": "S2s"}, "16": {"label": "*2", "atom_type": "H0"}}

>  <type>  (4) 
ts

$$$$

     RDKit          3D

 23 21  0  0  0  0  0  0  0  0999 V2000
   -1.6152   -1.0993   -0.0344 C   0  0  0  0  0  0  0  0  0  0  0  0
   -1.2571   -2.3000    0.8092 C   0  0  0  0  0  0  0  0  0  0  0  0
   -2.0624   -2.5132    2.0357 N   0  0  0  0  0  0  0  0  0  0  0  0
   -2.9145   -1.6985    2.2182 O   0  0  0  0  0  0  0  0  0  0  0  0
   -2.6452   -1.1570   -0.3857 H   0  0  0  0  0  0  0  0  0  0  0  0
   -1.5089   -0.1739    0.5313 H   0  0  0  0  0  0  0  0  0  0  0  0
   -1.3499   -3.2464    0.2664 H   0  0  0  0  0  0  0  0  0  0  0  0
   -0.2251   -2.2732    1.1740 H   0  0  0  0  0  0  0  0  0  0  0  0
    0.5706    0.0134   -2.4688 C   0  0  0  0  0  0  0  0  0  0  0  0
    0.5706    0.0134   -0.9491 C   0  0  0  0  0  3  0  0  0  0  0  0
    0.5706    1.6545   -0.1842 S   0  0  0  0  0  0  0  0  0  0  0  0
    2.1112    2.3684   -0.8128 C   0  0  0  0  0  0  0  0  0  0  0  0
    3.3721    1.6096   -0.4336 C   0  0  0  0  0  0  0  0  0  0  0  0
    1.4937    0.4370   -2.8682 H   0  0  0  0  0  0  0  0  0  0  0  0
    0.4881   -1.0078   -2.8475 H   0  0  0  0  0  0  0  0  0  0  0  0
   -0.2651    0.5959   -2.8582 H   0  0  0  0  0  0  0  0  0  0  0  0
   -0.5228   -0.5432   -0.4915 H   0  0  0  0  0  0  0  0  0  0  0  0
    1.4068   -0.5692   -0.5590 H   0  0  0  0  0  0  0  0  0  0  0  0
    2.0401    2.4907   -1.8948 H   0  0  0  0  0  0  0  0  0  0  0  0
    2.1263    3.3716   -0.3835 H   0  0  0  0  0  0  0  0  0  0  0  0
    3.3933    0.6177   -0.8882 H   0  0  0  0  0  0  0  0  0  0  0  0
    3.4428    1.4875    0.6479 H   0  0  0  0  0  0  0  0  0  0  0  0
    4.2569    2.1480   -0.7805 H   0  0  0  0  0  0  0  0  0  0  0  0
  1  2  1  0
  1  5  1  0
  1  6  1  0
  1 17  1  0
  2  3  1  0
  2  7  1  0
  2  8  1  0
  3  4  2  0
  9 10  1  0
  9 14  1  0
  9 15  1  0
  9 16  1  0
 10 11  1  0
 10 18  1  0
 11 12  1  0
 12 13  1  0
 12 19  1  0
 12 20  1  0
 13 21  1  0
 13 22  1  0
 13 23  1  0
M  RAD  1  10   2
M  END
>  <reaction>  (5) 
rmg_rxn_180

>  <mol_properties>  (5) 
{"0": {"label": "*3", "atom_type": "Cs"}, "1": {"label": "*4", "atom_type": "Cs"}, "9": {"label": "*1", "atom_type": "Cs"}, "10": {"label": "*0", "atom_type": "S2s"}, "16": {"label": "*2", "atom_type": "H0"}}

>  <type>  (5) 
unop_1

>  <geom_source>  (5) 
Heuristics

$$$$

     RDKit          3D

 23 21  0  0  0  0  0  0  0  0999 V2000
   -1.3951   -0.9121    0.5458 C   0  0  0  0  0  0  0  0  0  0  0  0
   -1.8787   -1.9568   -0.4322 C   0  0  0  0  0  0  0  0  0  0  0  0
   -2.8372   -2.9607    0.0892 N   0  0  0  0  0  0  0  0  0  0  0  0
   -3.1209   -2.8256    1.2400 O   0  0  0  0  0  0  0  0  0  0  0  0
   -2.2251   -0.3251    0.9384 H   0  0  0  0  0  0  0  0  0  0  0  0
   -0.8835   -1.3706    1.3918 H   0  0  0  0  0  0  0  0  0  0  0  0
   -2.3939   -1.5262   -1.2970 H   0  0  0  0  0  0  0  0  0  0  0  0
   -1.0660   -2.5611   -0.8482 H   0  0  0  0  0  0  0  0  0  0  0  0
    0.7907    0.2006   -1.8886 C   0  0  0  0  0  0  0  0  0  0  0  0
    0.7907    0.2006   -0.3688 C   0  0  0  0  0  3  0  0  0  0  0  0
    0.7907    1.8417    0.3961 S   0  0  0  0  0  0  0  0  0  0  0  0
    2.3313    2.5556   -0.2325 C   0  0  0  0  0  0  0  0  0  0  0  0
    3.5922    1.7967    0.1467 C   0  0  0  0  0  0  0  0  0  0  0  0
    1.7137    0.6242   -2.2880 H   0  0  0  0  0  0  0  0  0  0  0  0
    0.7081   -0.8206   -2.2672 H   0  0  0  0  0  0  0  0  0  0  0  0
   -0.0450    0.7830   -2.2780 H   0  0  0  0  0  0  0  0  0  0  0  0
   -0.3028   -0.3560    0.0887 H   0  0  0  0  0  0  0  0  0  0  0  0
    1.6269   -0.3821    0.0212 H   0  0  0  0  0  0  0  0  0  0  0  0
    2.2601    2.6778   -1.3146 H   0  0  0  0  0  0  0  0  0  0  0  0
    2.3463    3.5588    0.1967 H   0  0  0  0  0  0  0  0  0  0  0  0
    3.6134    0.8049   -0.3080 H   0  0  0  0  0  0  0  0  0  0  0  0
    3.6629    1.6747    1.2281 H   0  0  0  0  0  0  0  0  0  0  0  0
    4.4769    2.3351   -0.2003 H   0  0  0  0  0  0  0  0  0  0  0  0
  1  2  1  0
  1  5  1  0
  1  6  1  0
  1 17  1  0
  2  3  1  0
  2  7  1  0
  2  8  1  0
  3  4  2  0
  9 10  1  0
  9 14  1  0
  9 15  1  0
  9 16  1  0
 10 11  1  0
 10 18  1  0
 11 12  1  0
 12 13  1  0
 12 19  1  0
 12 20  1  0
 13 21  1  0
 13 22  1  0
 13 23  1  0
M  RAD  1  10   2
M  END
>  <reaction>  (6) 
rmg_rxn_180

>  <mol_properties>  (6) 
{"0": {"label": "*3", "atom_type": "Cs"}, "1": {"label": "*4", "atom_type": "Cs"}, "9": {"label": "*1", "atom_type": "Cs"}, "10": {"label": "*0", "atom_type": "S2s"}, "16": {"label": "*2", "atom_type": "H0"}}

>  <type>  (6) 
unop_2

>  <geom_source>  (6) 
Heuristics

$$$$

     RDKit          3D

 23 21  0  0  0  0  0  0  0  0999 V2000
   -1.5067   -1.2442   -0.0585 C   0  0  0  0  0  0  0  0  0  0  0  0
   -1.2227   -1.8981    1.2732 C   0  0  0  0  0  0  0  0  0  0  0  0
   -2.3617   -2.0047    2.2165 N   0  0  0  0  0  0  0  0  0  0  0  0
   -3.3882   -1.5542    1.8085 O   0  0  0  0  0  0  0  0  0  0  0  0
   -2.2732   -1.7885   -0.6097 H   0  0  0  0  0  0  0  0  0  0  0  0
   -1.8557   -0.2200    0.0714 H   0  0  0  0  0  0  0  0  0  0  0  0
   -0.8655   -2.9285    1.1756 H   0  0  0  0  0  0  0  0  0  0  0  0
   -0.4522   -1.3759    1.8498 H   0  0  0  0  0  0  0  0  0  0  0  0
    0.6791   -0.1315   -2.4928 C   0  0  0  0  0  0  0  0  0  0  0  0
    0.6791   -0.1315   -0.9731 C   0  0  0  0  0  3  0  0  0  0  0  0
    0.6791    1.5096   -0.2082 S   0  0  0  0  0  0  0  0  0  0  0  0
    2.2197    2.2235   -0.8368 C   0  0  0  0  0  0  0  0  0  0  0  0
    3.4806    1.4646   -0.4576 C   0  0  0  0  0  0  0  0  0  0  0  0
    1.6021    0.2920   -2.8923 H   0  0  0  0  0  0  0  0  0  0  0  0
    0.5966   -1.1527   -2.8715 H   0  0  0  0  0  0  0  0  0  0  0  0
   -0.1566    0.4509   -2.8822 H   0  0  0  0  0  0  0  0  0  0  0  0
   -0.4143   -0.6882   -0.5156 H   0  0  0  0  0  0  0  0  0  0  0  0
    1.5153   -0.7142   -0.5831 H   0  0  0  0  0  0  0  0  0  0  0  0
    2.1486    2.3457   -1.9189 H   0  0  0  0  0  0  0  0  0  0  0  0
    2.2348    3.2267   -0.4075 H   0  0  0  0  0  0  0  0  0  0  0  0
    3.5018    0.4728   -0.9123 H   0  0  0  0  0  0  0  0  0  0  0  0
    3.5513    1.3426    0.6238 H   0  0  0  0  0  0  0  0  0  0  0  0
    4.3654    2.0030   -0.8045 H   0  0  0  0  0  0  0  0  0  0  0  0
  1  2  1  0
  1  5  1  0
  1  6  1  0
  1 17  1  0
  2  3  1  0
  2  7  1  0
  2  8  1  0
  3  4  2  0
  9 10  1  0
  9 14  1  0
  9 15  1  0
  9 16  1  0
 10 11  1  0
 10 18  1  0
 11 12  1  0
 12 13  1  0
 12 19  1  0
 12 20  1  0
 13 21  1  0
 13 22  1  0
 13 23  1  0
M  RAD  1  10   2
M  END
>  <reaction>  (7) 
rmg_rxn_180

>  <mol_properties>  (7) 
{"0": {"label": "*3", "atom_type": "Cs"}, "1": {"label": "*4", "atom_type": "Cs"}, "9": {"label": "*1", "atom_type": "Cs"}, "10": {"label": "*0", "atom_type": "S2s"}, "16": {"label": "*2", "atom_type": "H0"}}

>  <type>  (7) 
unop_3

>  <geom_source>  (7) 
Heuristics

$$$$

     RDKit          3D

 23 21  0  0  0  0  0  0  0  0999 V2000
   -1.1821   -1.5829    0.3378 C   0  0  0  0  0  0  0  0  0  0  0  0
   -2.3855   -0.8125   -0.1521 C   0  0  0  0  0  0  0  0  0  0  0  0
   -3.5641   -0.7808    0.7469 N   0  0  0  0  0  0  0  0  0  0  0  0
   -3.4242   -1.3772    1.7706 O   0  0  0  0  0  0  0  0  0  0  0  0
   -0.8054   -1.1724    1.2744 H   0  0  0  0  0  0  0  0  0  0  0  0
   -1.4278   -2.6307    0.5098 H   0  0  0  0  0  0  0  0  0  0  0  0
   -2.1690    0.2445   -0.3385 H   0  0  0  0  0  0  0  0  0  0  0  0
   -2.7851   -1.1990   -1.0953 H   0  0  0  0  0  0  0  0  0  0  0  0
    1.0037   -0.4702   -2.0965 C   0  0  0  0  0  0  0  0  0  0  0  0
    1.0037   -0.4702   -0.5768 C   0  0  0  0  0  3  0  0  0  0  0  0
    1.0037    1.1708    0.1881 S   0  0  0  0  0  0  0  0  0  0  0  0
    2.5442    1.8848   -0.4405 C   0  0  0  0  0  0  0  0  0  0  0  0
    3.8052    1.1259   -0.0613 C   0  0  0  0  0  0  0  0  0  0  0  0
    1.9267   -0.0467   -2.4960 H   0  0  0  0  0  0  0  0  0  0  0  0
    0.9211   -1.4914   -2.4752 H   0  0  0  0  0  0  0  0  0  0  0  0
    0.1679    0.1122   -2.4860 H   0  0  0  0  0  0  0  0  0  0  0  0
   -0.0898   -1.0269   -0.1193 H   0  0  0  0  0  0  0  0  0  0  0  0
    1.8399   -1.0529   -0.1868 H   0  0  0  0  0  0  0  0  0  0  0  0
    2.4731    2.0070   -1.5226 H   0  0  0  0  0  0  0  0  0  0  0  0
    2.5593    2.8879   -0.0112 H   0  0  0  0  0  0  0  0  0  0  0  0
    3.8264    0.1341   -0.5160 H   0  0  0  0  0  0  0  0  0  0  0  0
    3.8758    1.0039    1.0201 H   0  0  0  0  0  0  0  0  0  0  0  0
    4.6899    1.6643   -0.4082 H   0  0  0  0  0  0  0  0  0  0  0  0
  1  2  1  0
  1  5  1  0
  1  6  1  0
  1 17  1  0
  2  3  1  0
  2  7  1  0
  2  8  1  0
  3  4  2  0
  9 10  1  0
  9 14  1  0
  9 15  1  0
  9 16  1  0
 10 11  1  0
 10 18  1  0
 11 12  1  0
 12 13  1  0
 12 19  1  0
 12 20  1  0
 13 21  1  0
 13 22  1  0
 13 23  1  0
M  RAD  1  10   2
M  END
>  <reaction>  (8) 
rmg_rxn_180

>  <mol_properties>  (8) 
{"0": {"label": "*3", "atom_type": "Cs"}, "1": {"label": "*4", "atom_type": "Cs"}, "9": {"label": "*1", "atom_type": "Cs"}, "10": {"label": "*0", "atom_type": "S2s"}, "16": {"label": "*2", "atom_type": "H0"}}

>  <type>  (8) 
unop_4

>  <geom_source>  (8) 
Heuristics

$$$$

     RDKit          3D

 23 21  0  0  0  0  0  0  0  0999 V2000
   -1.4418   -1.2478   -0.0239 C   0  0  0  0  0  0  0  0  0  0  0  0
   -1.4213   -1.2373    1.4864 C   0  0  0  0  0  0  0  0  0  0  0  0
   -2.5938   -1.8342    2.1702 N   0  0  0  0  0  0  0  0  0  0  0  0
   -3.4323   -2.2611    1.4367 O   0  0  0  0  0  0  0  0  0  0  0  0
   -1.5000   -2.2650   -0.4106 H   0  0  0  0  0  0  0  0  0  0  0  0
   -2.2986   -0.6963   -0.4106 H   0  0  0  0  0  0  0  0  0  0  0  0
   -0.5682   -1.7807    1.9058 H   0  0  0  0  0  0  0  0  0  0  0  0
   -1.3587   -0.2279    1.9058 H   0  0  0  0  0  0  0  0  0  0  0  0
    0.7440   -0.1351   -2.4583 C   0  0  0  0  0  0  0  0  0  0  0  0
    0.7440   -0.1351   -0.9385 C   0  0  0  0  0  3  0  0  0  0  0  0
    0.7440    1.5060   -0.1736 S   0  0  0  0  0  0  0  0  0  0  0  0
    2.2845    2.2199   -0.8022 C   0  0  0  0  0  0  0  0  0  0  0  0
    3.5455    1.4611   -0.4230 C   0  0  0  0  0  0  0  0  0  0  0  0
    1.6670    0.2885   -2.8577 H   0  0  0  0  0  0  0  0  0  0  0  0
    0.6614   -1.1563   -2.8369 H   0  0  0  0  0  0  0  0  0  0  0  0
   -0.0918    0.4474   -2.8477 H   0  0  0  0  0  0  0  0  0  0  0  0
   -0.3495   -0.6917   -0.4810 H   0  0  0  0  0  0  0  0  0  0  0  0
    1.5802   -0.7177   -0.5485 H   0  0  0  0  0  0  0  0  0  0  0  0
    2.2134    2.3421   -1.8843 H   0  0  0  0  0  0  0  0  0  0  0  0
    2.2996    3.2231   -0.3730 H   0  0  0  0  0  0  0  0  0  0  0  0
    3.5667    0.4692   -0.8777 H   0  0  0  0  0  0  0  0  0  0  0  0
    3.6161    1.3390    0.6584 H   0  0  0  0  0  0  0  0  0  0  0  0
    4.4302    1.9995   -0.7700 H   0  0  0  0  0  0  0  0  0  0  0  0
  1  2  1  0
  1  5  1  0
  1  6  1  0
  1 17  1  0
  2  3  1  0
  2  7  1  0
  2  8  1  0
  3  4  2  0
  9 10  1  0
  9 14  1  0
  9 15  1  0
  9 16  1  0
 10 11  1  0
 10 18  1  0
 11 12  1  0
 12 13  1  0
 12 19  1  0
 12 20  1  0
 13 21  1  0
 13 22  1  0
 13 23  1  0
M  RAD  1  10   2
M  END
>  <reaction>  (9) 
rmg_rxn_180

>  <mol_properties>  (9) 
{"0": {"label": "*3", "atom_type": "Cs"}, "1": {"label": "*4", "atom_type": "Cs"}, "9": {"label": "*1", "atom_type": "Cs"}, "10": {"label": "*0", "atom_type": "S2s"}, "16": {"label": "*2", "atom_type": "H0"}}

>  <type>  (9) 
unop_5

>  <geom_source>  (9) 
Heuristics

$$$$

     RDKit          3D

 23 21  0  0  0  0  0  0  0  0999 V2000
   -1.2985   -1.5990    0.1137 C   0  0  0  0  0  0  0  0  0  0  0  0
   -2.3668   -0.5458    0.2905 C   0  0  0  0  0  0  0  0  0  0  0  0
   -3.2295   -0.6706    1.4899 N   0  0  0  0  0  0  0  0  0  0  0  0
   -2.9766   -1.6037    2.1888 O   0  0  0  0  0  0  0  0  0  0  0  0
   -0.6053   -1.6028    0.9546 H   0  0  0  0  0  0  0  0  0  0  0  0
   -1.7349   -2.5948    0.0389 H   0  0  0  0  0  0  0  0  0  0  0  0
   -1.9593    0.4677    0.3646 H   0  0  0  0  0  0  0  0  0  0  0  0
   -3.0774   -0.5142   -0.5419 H   0  0  0  0  0  0  0  0  0  0  0  0
    0.8873   -0.4863   -2.3207 C   0  0  0  0  0  0  0  0  0  0  0  0
    0.8873   -0.4863   -0.8010 C   0  0  0  0  0  3  0  0  0  0  0  0
    0.8873    1.1548   -0.0361 S   0  0  0  0  0  0  0  0  0  0  0  0
    2.4278    1.8687   -0.6647 C   0  0  0  0  0  0  0  0  0  0  0  0
    3.6888    1.1099   -0.2855 C   0  0  0  0  0  0  0  0  0  0  0  0
    1.8103   -0.0627   -2.7201 H   0  0  0  0  0  0  0  0  0  0  0  0
    0.8047   -1.5075   -2.6994 H   0  0  0  0  0  0  0  0  0  0  0  0
    0.0515    0.0962   -2.7101 H   0  0  0  0  0  0  0  0  0  0  0  0
   -0.2062   -1.0429   -0.3434 H   0  0  0  0  0  0  0  0  0  0  0  0
    1.7235   -1.0689   -0.4109 H   0  0  0  0  0  0  0  0  0  0  0  0
    2.3567    1.9909   -1.7467 H   0  0  0  0  0  0  0  0  0  0  0  0
    2.4429    2.8719   -0.2354 H   0  0  0  0  0  0  0  0  0  0  0  0
    3.7100    0.1180   -0.7401 H   0  0  0  0  0  0  0  0  0  0  0  0
    3.7594    0.9878    0.7960 H   0  0  0  0  0  0  0  0  0  0  0  0
    4.5735    1.6483   -0.6324 H   0  0  0  0  0  0  0  0  0  0  0  0
  1  2  1  0
  1  5  1  0
  1  6  1  0
  1 17  1  0
  2  3  1  0
  2  7  1  0
  2  8  1  0
  3  4  2  0
  9 10  1  0
  9 14  1  0
  9 15  1  0
  9 16  1  0
 10 11  1  0
 10 18  1  0
 11 12  1  0
 12 13  1  0
 12 19  1  0
 12 20  1  0
 13 21  1  0
 13 22  1  0
 13 23  1  0
M  RAD  1  10   2
M  END
>  <reaction>  (10) 
rmg_rxn_180

>  <mol_properties>  (10) 
{"0": {"label": "*3", "atom_type": "Cs"}, "1": {"label": "*4", "atom_type": "Cs"}, "9": {"label": "*1", "atom_type": "Cs"}, "10": {"label": "*0", "atom_type": "S2s"}, "16": {"label": "*2", "atom_type": "H0"}}

>  <type>  (10) 
unop_6

>  <geom_source>  (10) 
Heuristics

$$$$

     RDKit          3D

 23 21  0  0  0  0  0  0  0  0999 V2000
   -1.4237   -1.4754   -0.0344 C   0  0  0  0  0  0  0  0  0  0  0  0
   -2.1839   -0.4793    0.8092 C   0  0  0  0  0  0  0  0  0  0  0  0
   -2.8301   -1.0050    2.0357 N   0  0  0  0  0  0  0  0  0  0  0  0
   -2.6728   -2.1734    2.2182 O   0  0  0  0  0  0  0  0  0  0  0  0
   -0.6129   -1.9339    0.5313 H   0  0  0  0  0  0  0  0  0  0  0  0
   -2.0765   -2.2743   -0.3857 H   0  0  0  0  0  0  0  0  0  0  0  0
   -1.5551    0.3394    1.1740 H   0  0  0  0  0  0  0  0  0  0  0  0
   -3.0037    0.0025    0.2664 H   0  0  0  0  0  0  0  0  0  0  0  0
    0.7621   -0.3627   -2.4688 C   0  0  0  0  0  0  0  0  0  0  0  0
    0.7621   -0.3627   -0.9491 C   0  0  0  0  0  3  0  0  0  0  0  0
    0.7621    1.2784   -0.1842 S   0  0  0  0  0  0  0  0  0  0  0  0
    2.3026    1.9924   -0.8128 C   0  0  0  0  0  0  0  0  0  0  0  0
    3.5636    1.2335   -0.4336 C   0  0  0  0  0  0  0  0  0  0  0  0
    1.6851    0.0609   -2.8682 H   0  0  0  0  0  0  0  0  0  0  0  0
    0.6795   -1.3838   -2.8475 H   0  0  0  0  0  0  0  0  0  0  0  0
   -0.0737    0.2198   -2.8582 H   0  0  0  0  0  0  0  0  0  0  0  0
   -0.3314   -0.9193   -0.4915 H   0  0  0  0  0  0  0  0  0  0  0  0
    1.5983   -0.9453   -0.5590 H   0  0  0  0  0  0  0  0  0  0  0  0
    2.2315    2.1146   -1.8948 H   0  0  0  0  0  0  0  0  0  0  0  0
    2.3177    2.9955   -0.3835 H   0  0  0  0  0  0  0  0  0  0  0  0
    3.5848    0.2417   -0.8882 H   0  0  0  0  0  0  0  0  0  0  0  0
    3.6342    1.1115    0.6479 H   0  0  0  0  0  0  0  0  0  0  0  0
    4.4483    1.7719   -0.7805 H   0  0  0  0  0  0  0  0  0  0  0  0
  1  2  1  0
  1  5  1  0
  1  6  1  0
  1 17  1  0
  2  3  1  0
  2  7  1  0
  2  8  1  0
  3  4  2  0
  9 10  1  0
  9 14  1  0
  9 15  1  0
  9 16  1  0
 10 11  1  0
 10 18  1  0
 11 12  1  0
 12 13  1  0
 12 19  1  0
 12 20  1  0
 13 21  1  0
 13 22  1  0
 13 23  1  0
M  RAD  1  10   2
M  END
>  <reaction>  (11) 
rmg_rxn_180

>  <mol_properties>  (11) 
{"0": {"label": "*3", "atom_type": "Cs"}, "1": {"label": "*4", "atom_type": "Cs"}, "9": {"label": "*1", "atom_type": "Cs"}, "10": {"label": "*0", "atom_type": "S2s"}, "16": {"label": "*2", "atom_type": "H0"}}

>  <type>  (11) 
unop_7

>  <geom_source>  (11) 
Heuristics

$$$$

     RDKit          3D

 23 21  0  0  0  0  0  0  0  0999 V2000
   -1.6415   -0.9253    0.1137 C   0  0  0  0  0  0  0  0  0  0  0  0
   -1.4185   -2.4087    0.2905 C   0  0  0  0  0  0  0  0  0  0  0  0
   -2.0270   -3.0329    1.4899 N   0  0  0  0  0  0  0  0  0  0  0  0
   -2.6326   -2.2794    2.1888 O   0  0  0  0  0  0  0  0  0  0  0  0
   -2.7034   -0.6922    0.0389 H   0  0  0  0  0  0  0  0  0  0  0  0
   -1.2367   -0.3625    0.9546 H   0  0  0  0  0  0  0  0  0  0  0  0
   -1.8110   -3.0019   -0.5419 H   0  0  0  0  0  0  0  0  0  0  0  0
   -0.3591   -2.6756    0.3646 H   0  0  0  0  0  0  0  0  0  0  0  0
    0.5443    0.1874   -2.3207 C   0  0  0  0  0  0  0  0  0  0  0  0
    0.5443    0.1874   -0.8010 C   0  0  0  0  0  3  0  0  0  0  0  0
    0.5443    1.8285   -0.0361 S   0  0  0  0  0  0  0  0  0  0  0  0
    2.0849    2.5424   -0.6647 C   0  0  0  0  0  0  0  0  0  0  0  0
    3.3458    1.7836   -0.2855 C   0  0  0  0  0  0  0  0  0  0  0  0
    1.4674    0.6110   -2.7201 H   0  0  0  0  0  0  0  0  0  0  0  0
    0.4618   -0.8338   -2.6994 H   0  0  0  0  0  0  0  0  0  0  0  0
   -0.2914    0.7699   -2.7101 H   0  0  0  0  0  0  0  0  0  0  0  0
   -0.5491   -0.3692   -0.3434 H   0  0  0  0  0  0  0  0  0  0  0  0
    1.3805   -0.3952   -0.4109 H   0  0  0  0  0  0  0  0  0  0  0  0
    2.0138    2.6646   -1.7467 H   0  0  0  0  0  0  0  0  0  0  0  0
    2.1000    3.5456   -0.2354 H   0  0  0  0  0  0  0  0  0  0  0  0
    3.3670    0.7917   -0.7401 H   0  0  0  0  0  0  0  0  0  0  0  0
    3.4165    1.6615    0.7960 H   0  0  0  0  0  0  0  0  0  0  0  0
    4.2306    2.3220   -0.6324 H   0  0  0  0  0  0  0  0  0  0  0  0
  1  2  1  0
  1  5  1  0
  1  6  1  0
  1 17  1  0
  2  3  1  0
  2  7  1  0
  2  8  1  0
  3  4  2  0
  9 10  1  0
  9 14  1  0
  9 15  1  0
  9 16  1  0
 10 11  1  0
 10 18  1  0
 11 12  1  0
 12 13  1  0
 12 19  1  0
 12 20  1  0
 13 21  1  0
 13 22  1  0
 13 23  1  0
M  RAD  1  10   2
M  END
>  <reaction>  (12) 
rmg_rxn_180

>  <mol_properties>  (12) 
{"0": {"label": "*3", "atom_type": "Cs"}, "1": {"label": "*4", "atom_type": "Cs"}, "9": {"label": "*1", "atom_type": "Cs"}, "10": {"label": "*0", "atom_type": "S2s"}, "16": {"label": "*2", "atom_type": "H0"}}

>  <type>  (12) 
unop_8

>  <geom_source>  (12) 
Heuristics

$$$$

     RDKit          3D

 23 21  0  0  0  0  0  0  0  0999 V2000
   -1.1429   -1.4075    0.5458 C   0  0  0  0  0  0  0  0  0  0  0  0
   -2.2721   -1.1839   -0.4322 C   0  0  0  0  0  0  0  0  0  0  0  0
   -3.6479   -1.3683    0.0892 N   0  0  0  0  0  0  0  0  0  0  0  0
   -3.7056   -1.6771    1.2400 O   0  0  0  0  0  0  0  0  0  0  0  0
   -1.2126   -0.7241    1.3918 H   0  0  0  0  0  0  0  0  0  0  0  0
   -1.1566   -2.4241    0.9384 H   0  0  0  0  0  0  0  0  0  0  0  0
   -2.2826   -0.1712   -0.8482 H   0  0  0  0  0  0  0  0  0  0  0  0
   -2.2272   -1.8538   -1.2970 H   0  0  0  0  0  0  0  0  0  0  0  0
    1.0429   -0.2948   -1.8886 C   0  0  0  0  0  0  0  0  0  0  0  0
    1.0429   -0.2948   -0.3688 C   0  0  0  0  0  3  0  0  0  0  0  0
    1.0429    1.3463    0.3961 S   0  0  0  0  0  0  0  0  0  0  0  0
    2.5835    2.0602   -0.2325 C   0  0  0  0  0  0  0  0  0  0  0  0
    3.8444    1.3013    0.1467 C   0  0  0  0  0  0  0  0  0  0  0  0
    1.9659    0.1287   -2.2880 H   0  0  0  0  0  0  0  0  0  0  0  0
    0.9603   -1.3160   -2.2672 H   0  0  0  0  0  0  0  0  0  0  0  0
    0.2072    0.2876   -2.2780 H   0  0  0  0  0  0  0  0  0  0  0  0
   -0.0506   -0.8515    0.0887 H   0  0  0  0  0  0  0  0  0  0  0  0
    1.8791   -0.8775    0.0212 H   0  0  0  0  0  0  0  0  0  0  0  0
    2.5123    2.1824   -1.3146 H   0  0  0  0  0  0  0  0  0  0  0  0
    2.5985    3.0633    0.1967 H   0  0  0  0  0  0  0  0  0  0  0  0
    3.8656    0.3095   -0.3080 H   0  0  0  0  0  0  0  0  0  0  0  0
    3.9151    1.1793    1.2281 H   0  0  0  0  0  0  0  0  0  0  0  0
    4.7291    1.8397   -0.2003 H   0  0  0  0  0  0  0  0  0  0  0  0
  1  2  1  0
  1  5  1  0
  1  6  1  0
  1 17  1  0
  2  3  1  0
  2  7  1  0
  2  8  1  0
  3  4  2  0
  9 10  1  0
  9 14  1  0
  9 15  1  0
  9 16  1  0
 10 11  1  0
 10 18  1  0
 11 12  1  0
 12 13  1  0
 12 19  1  0
 12 20  1  0
 13 21  1  0
 13 22  1  0
 13 23  1  0
M  RAD  1  10   2
M  END
>  <reaction>  (13) 
rmg_rxn_180

>  <mol_properties>  (13) 
{"0": {"label": "*3", "atom_type": "Cs"}, "1": {"label": "*4", "atom_type": "Cs"}, "9": {"label": "*1", "atom_type": "Cs"}, "10": {"label": "*0", "atom_type": "S2s"}, "16": {"label": "*2", "atom_type": "H0"}}

>  <type>  (13) 
unop_9

>  <geom_source>  (13) 
Heuristics

$$$$

     RDKit          3D

 23 21  0  0  0  0  0  0  0  0999 V2000
   -1.5600   -0.8406    0.3378 C   0  0  0  0  0  0  0  0  0  0  0  0
   -1.6451   -2.2669   -0.1521 C   0  0  0  0  0  0  0  0  0  0  0  0
   -2.3129   -3.2387    0.7469 N   0  0  0  0  0  0  0  0  0  0  0  0
   -2.7128   -2.7746    1.7706 O   0  0  0  0  0  0  0  0  0  0  0  0
   -2.5518   -0.4228    0.5098 H   0  0  0  0  0  0  0  0  0  0  0  0
   -1.0064   -0.7776    1.2744 H   0  0  0  0  0  0  0  0  0  0  0  0
   -2.1927   -2.3627   -1.0953 H   0  0  0  0  0  0  0  0  0  0  0  0
   -0.6631   -2.7138   -0.3385 H   0  0  0  0  0  0  0  0  0  0  0  0
    0.6258    0.2721   -2.0965 C   0  0  0  0  0  0  0  0  0  0  0  0
    0.6258    0.2721   -0.5768 C   0  0  0  0  0  3  0  0  0  0  0  0
    0.6258    1.9132    0.1881 S   0  0  0  0  0  0  0  0  0  0  0  0
    2.1664    2.6271   -0.4405 C   0  0  0  0  0  0  0  0  0  0  0  0
    3.4273    1.8682   -0.0613 C   0  0  0  0  0  0  0  0  0  0  0  0
    1.5488    0.6956   -2.4960 H   0  0  0  0  0  0  0  0  0  0  0  0
    0.5432   -0.7491   -2.4752 H   0  0  0  0  0  0  0  0  0  0  0  0
   -0.2099    0.8545   -2.4860 H   0  0  0  0  0  0  0  0  0  0  0  0
   -0.4677   -0.2846   -0.1193 H   0  0  0  0  0  0  0  0  0  0  0  0
    1.4620   -0.3106   -0.1868 H   0  0  0  0  0  0  0  0  0  0  0  0
    2.0952    2.7493   -1.5226 H   0  0  0  0  0  0  0  0  0  0  0  0
    2.1814    3.6303   -0.0112 H   0  0  0  0  0  0  0  0  0  0  0  0
    3.4485    0.8764   -0.5160 H   0  0  0  0  0  0  0  0  0  0  0  0
    3.4979    1.7462    1.0201 H   0  0  0  0  0  0  0  0  0  0  0  0
    4.3120    2.4066   -0.4082 H   0  0  0  0  0  0  0  0  0  0  0  0
  1  2  1  0
  1  5  1  0
  1  6  1  0
  1 17  1  0
  2  3  1  0
  2  7  1  0
  2  8  1  0
  3  4  2  0
  9 10  1  0
  9 14  1  0
  9 15  1  0
  9 16  1  0
 10 11  1  0
 10 18  1  0
 11 12  1  0
 12 13  1  0
 12 19  1  0
 12 20  1  0
 13 21  1  0
 13 22  1  0
 13 23  1  0
M  RAD  1  10   2
M  END
>  <reaction>  (14) 
rmg_rxn_180

>  <mol_properties>  (14) 
{"0": {"label": "*3", "atom_type": "Cs"}, "1": {"label": "*4", "atom_type": "Cs"}, "9": {"label": "*1", "atom_type": "Cs"}, "10": {"label": "*0", "atom_type": "S2s"}, "16": {"label": "*2", "atom_type": "H0"}}

>  <type>  (14) 
unop_10

>  <geom_source>  (14) 
Heuristics

$$$$

     RDKit          3D

 23 21  0  0  0  0  0  0  0  0999 V2000
   -1.4771   -1.3023   -0.0585 C   0  0  0  0  0  0  0  0  0  0  0  0
   -1.8388   -0.6880    1.2732 C   0  0  0  0  0  0  0  0  0  0  0  0
   -2.5951   -1.5463    2.2165 N   0  0  0  0  0  0  0  0  0  0  0  0
   -2.8348   -2.6413    1.8085 O   0  0  0  0  0  0  0  0  0  0  0  0
   -0.8543   -2.1872    0.0714 H   0  0  0  0  0  0  0  0  0  0  0  0
   -2.3682   -1.6018   -0.6097 H   0  0  0  0  0  0  0  0  0  0  0  0
   -0.9632   -0.3722    1.8498 H   0  0  0  0  0  0  0  0  0  0  0  0
   -2.4617    0.2071    1.1756 H   0  0  0  0  0  0  0  0  0  0  0  0
    0.7087   -0.1896   -2.4928 C   0  0  0  0  0  0  0  0  0  0  0  0
    0.7087   -0.1896   -0.9731 C   0  0  0  0  0  3  0  0  0  0  0  0
    0.7087    1.4514   -0.2082 S   0  0  0  0  0  0  0  0  0  0  0  0
    2.2493    2.1654   -0.8368 C   0  0  0  0  0  0  0  0  0  0  0  0
    3.5102    1.4065   -0.4576 C   0  0  0  0  0  0  0  0  0  0  0  0
    1.6317    0.2339   -2.8923 H   0  0  0  0  0  0  0  0  0  0  0  0
    0.6261   -1.2108   -2.8715 H   0  0  0  0  0  0  0  0  0  0  0  0
   -0.1270    0.3928   -2.8822 H   0  0  0  0  0  0  0  0  0  0  0  0
   -0.3848   -0.7463   -0.5156 H   0  0  0  0  0  0  0  0  0  0  0  0
    1.5449   -0.7723   -0.5831 H   0  0  0  0  0  0  0  0  0  0  0  0
    2.1781    2.2876   -1.9189 H   0  0  0  0  0  0  0  0  0  0  0  0
    2.2644    3.1685   -0.4075 H   0  0  0  0  0  0  0  0  0  0  0  0
    3.5314    0.4147   -0.9123 H   0  0  0  0  0  0  0  0  0  0  0  0
    3.5809    1.2845    0.6238 H   0  0  0  0  0  0  0  0  0  0  0  0
    4.3949    1.9449   -0.8045 H   0  0  0  0  0  0  0  0  0  0  0  0
  1  2  1  0
  1  5  1  0
  1  6  1  0
  1 17  1  0
  2  3  1  0
  2  7  1  0
  2  8  1  0
  3  4  2  0
  9 10  1  0
  9 14  1  0
  9 15  1  0
  9 16  1  0
 10 11  1  0
 10 18  1  0
 11 12  1  0
 12 13  1  0
 12 19  1  0
 12 20  1  0
 13 21  1  0
 13 22  1  0
 13 23  1  0
M  RAD  1  10   2
M  END
>  <reaction>  (15) 
rmg_rxn_180

>  <mol_properties>  (15) 
{"0": {"label": "*3", "atom_type": "Cs"}, "1": {"label": "*4", "atom_type": "Cs"}, "9": {"label": "*1", "atom_type": "Cs"}, "10": {"label": "*0", "atom_type": "S2s"}, "16": {"label": "*2", "atom_type": "H0"}}

>  <type>  (15) 
unop_11

>  <geom_source>  (15) 
Heuristics

$$$$

     RDKit          3D

 23 21  0  0  0  0  0  0  0  0999 V2000
   -1.2237   -1.1367    0.6326 C   0  0  0  0  0  0  0  0  0  0  0  0
   -2.0894   -1.5775   -0.5240 C   0  0  0  0  0  0  0  0  0  0  0  0
   -3.3746   -2.2317   -0.1793 N   0  0  0  0  0  0  0  0  0  0  0  0
   -3.5804   -2.3364    0.9911 O   0  0  0  0  0  0  0  0  0  0  0  0
   -1.7431   -0.4135    1.2610 H   0  0  0  0  0  0  0  0  0  0  0  0
   -0.9445   -1.9822    1.2610 H   0  0  0  0  0  0  0  0  0  0  0  0
   -2.3833   -0.7495   -1.1774 H   0  0  0  0  0  0  0  0  0  0  0  0
   -1.5928   -2.3022   -1.1774 H   0  0  0  0  0  0  0  0  0  0  0  0
    0.9621   -0.0240   -1.8017 C   0  0  0  0  0  0  0  0  0  0  0  0
    0.9621   -0.0240   -0.2820 C   0  0  0  0  0  3  0  0  0  0  0  0
    0.9621    1.6171    0.4829 S   0  0  0  0  0  0  0  0  0  0  0  0
    2.5027    2.3310   -0.1457 C   0  0  0  0  0  0  0  0  0  0  0  0
    3.7637    1.5721    0.2335 C   0  0  0  0  0  0  0  0  0  0  0  0
    1.8852    0.3995   -2.2011 H   0  0  0  0  0  0  0  0  0  0  0  0
    0.8796   -1.0452   -2.1804 H   0  0  0  0  0  0  0  0  0  0  0  0
    0.1264    0.5584   -2.1911 H   0  0  0  0  0  0  0  0  0  0  0  0
   -0.1313   -0.5807    0.1756 H   0  0  0  0  0  0  0  0  0  0  0  0
    1.7983   -0.6067    0.1080 H   0  0  0  0  0  0  0  0  0  0  0  0
    2.4316    2.4532   -1.2277 H   0  0  0  0  0  0  0  0  0  0  0  0
    2.5178    3.3341    0.2836 H   0  0  0  0  0  0  0  0  0  0  0  0
    3.7849    0.5803   -0.2212 H   0  0  0  0  0  0  0  0  0  0  0  0
    3.8343    1.4501    1.3149 H   0  0  0  0  0  0  0  0  0  0  0  0
    4.6484    2.1105   -0.1134 H   0  0  0  0  0  0  0  0  0  0  0  0
  1  2  1  0
  1  5  1  0
  1  6  1  0
  1 17  1  0
  2  3  1  0
  2  7  1  0
  2  8  1  0
  3  4  2  0
  9 10  1  0
  9 14  1  0
  9 15  1  0
  9 16  1  0
 10 11  1  0
 10 18  1  0
 11 12  1  0
 12 13  1  0
 12 19  1  0
 12 20  1  0
 13 21  1  0
 13 22  1  0
 13 23  1  0
M  RAD  1  10   2
M  END
>  <reaction>  (16) 
rmg_rxn_180

>  <mol_properties>  (16) 
{"0": {"label": "*3", "atom_type": "Cs"}, "1": {"label": "*4", "atom_type": "Cs"}, "9": {"label": "*1", "atom_type": "Cs"}, "10": {"label": "*0", "atom_type": "S2s"}, "16": {"label": "*2", "atom_type": "H0"}}

>  <type>  (16) 
unop_12

>  <geom_source>  (16) 
Heuristics

$$$$

     RDKit          3D

 23 21  0  0  0  0  0  0  0  0999 V2000
    1.2379    1.0385    1.1933 S   0  0  0  0  0  0  0  0  0  0  0  0
   -1.0436    1.2018   -2.0039 O   0  0  0  0  0  0  0  0  0  0  0  0
   -2.1656    0.8241   -1.8489 N   0  0  0  0  0  0  0  0  0  0  0  0
    1.8793    1.3112   -0.4944 C   0  0  0  0  0  0  0  0  0  0  0  0
   -2.4369   -0.4293   -1.1894 C   0  0  0  0  0  0  0  0  0  0  0  0
   -2.0723   -0.3470    0.2879 C   0  0  0  0  0  0  0  0  0  0  0  0
    3.2070    0.5917   -0.6943 C   0  0  0  0  0  0  0  0  0  0  0  0
   -0.5463   -0.9345    1.8811 C   0  0  0  0  0  0  0  0  0  0  0  0
    0.4651   -0.5668    0.8090 C   0  0  0  0  0  3  0  0  0  0  0  0
   -3.5190   -0.6597   -1.2853 H   0  0  0  0  0  0  0  0  0  0  0  0
   -1.8580   -1.2437   -1.6761 H   0  0  0  0  0  0  0  0  0  0  0  0
    1.1424    0.9738   -1.2547 H   0  0  0  0  0  0  0  0  0  0  0  0
    2.0389    2.4013   -0.6322 H   0  0  0  0  0  0  0  0  0  0  0  0
   -2.6471    0.4667    0.7791 H   0  0  0  0  0  0  0  0  0  0  0  0
   -2.3148   -1.3092    0.7862 H   0  0  0  0  0  0  0  0  0  0  0  0
   -0.8326   -0.1218    0.4184 H   0  0  0  0  0  0  0  0  0  0  0  0
    3.9425    0.9276    0.0670 H   0  0  0  0  0  0  0  0  0  0  0  0
    3.6069    0.8243   -1.7036 H   0  0  0  0  0  0  0  0  0  0  0  0
    3.0710   -0.5065   -0.6134 H   0  0  0  0  0  0  0  0  0  0  0  0
   -1.0152   -1.9076    1.6268 H   0  0  0  0  0  0  0  0  0  0  0  0
   -1.3391   -0.1592    1.9347 H   0  0  0  0  0  0  0  0  0  0  0  0
   -0.0450   -1.0212    2.8684 H   0  0  0  0  0  0  0  0  0  0  0  0
    1.2445   -1.3546    0.7443 H   0  0  0  0  0  0  0  0  0  0  0  0
  1  9  1  0
  1  4  1  0
  2  3  2  0
  3  5  1  0
  4  7  1  0
  4 12  1  0
  4 13  1  0
  5  6  1  0
  5 10  1  0
  5 11  1  0
  6 14  1  0
  6 15  1  0
  6 16  1  0
  7 17  1  0
  7 18  1  0
  7 19  1  0
  8  9  1  0
  8 20  1  0
  8 21  1  0
  8 22  1  0
  9 23  1  0
M  RAD  1   9   2
M  END
>  <reaction>  (17) 
rmg_rxn_180

>  <mol_properties>  (17) 
{"0": {"label": "*3", "atom_type": "Cs"}, "1": {"label": "*4", "atom_type": "Cs"}, "9": {"label": "*1", "atom_type": "Cs"}, "10": {"label": "*0", "atom_type": "S2s"}, "16": {"label": "*2", "atom_type": "H0"}}

>  <type>  (17) 
unop_13

>  <geom_source>  (17) 
AutoTST

$$$$

     RDKit          3D

 23 21  0  0  0  0  0  0  0  0999 V2000
   -1.3951   -0.9121    0.5458 C   0  0  0  0  0  0  0  0  0  0  0  0
   -1.8787   -1.9568   -0.4322 C   0  0  0  0  0  0  0  0  0  0  0  0
   -2.8372   -2.9607    0.0892 N   0  0  0  0  0  0  0  0  0  0  0  0
   -3.1209   -2.8256    1.2400 O   0  0  0  0  0  0  0  0  0  0  0  0
   -2.2251   -0.3251    0.9384 H   0  0  0  0  0  0  0  0  0  0  0  0
   -0.8835   -1.3706    1.3918 H   0  0  0  0  0  0  0  0  0  0  0  0
   -2.3939   -1.5262   -1.2970 H   0  0  0  0  0  0  0  0  0  0  0  0
   -1.0660   -2.5611   -0.8482 H   0  0  0  0  0  0  0  0  0  0  0  0
    0.7907    0.2006   -1.8886 C   0  0  0  0  0  0  0  0  0  0  0  0
    0.7907    0.2006   -0.3688 C   0  0  0  0  0  3  0  0  0  0  0  0
    0.7907    1.8417    0.3961 S   0  0  0  0  0  0  0  0  0  0  0  0
    2.3313    2.5556   -0.2325 C   0  0  0  0  0  0  0  0  0  0  0  0
    3.5922    1.7967    0.1467 C   0  0  0  0  0  0  0  0  0  0  0  0
    1.7137    0.6241   -2.2880 H   0  0  0  0  0  0  0  0  0  0  0  0
    0.7081   -0.8206   -2.2672 H   0  0  0  0  0  0  0  0  0  0  0  0
   -0.0450    0.7831   -2.2780 H   0  0  0  0  0  0  0  0  0  0  0  0
   -0.3028   -0.3560    0.0887 H   0  0  0  0  0  0  0  0  0  0  0  0
    1.6269   -0.3821    0.0212 H   0  0  0  0  0  0  0  0  0  0  0  0
    2.2601    2.6778   -1.3146 H   0  0  0  0  0  0  0  0  0  0  0  0
    2.3463    3.5588    0.1967 H   0  0  0  0  0  0  0  0  0  0  0  0
    3.6134    0.8049   -0.3080 H   0  0  0  0  0  0  0  0  0  0  0  0
    3.6629    1.6747    1.2281 H   0  0  0  0  0  0  0  0  0  0  0  0
    4.4769    2.3351   -0.2003 H   0  0  0  0  0  0  0  0  0  0  0  0
  1  2  1  0
  1  5  1  0
  1  6  1  0
  1 17  1  0
  2  3  1  0
  2  7  1  0
  2  8  1  0
  3  4  2  0
  9 10  1  0
  9 14  1  0
  9 15  1  0
  9 16  1  0
 10 11  1  0
 10 18  1  0
 11 12  1  0
 12 13  1  0
 12 19  1  0
 12 20  1  0
 13 21  1  0
 13 22  1  0
 13 23  1  0
M  RAD  1  10   2
M  END
>  <reaction>  (18) 
rmg_rxn_180

>  <mol_properties>  (18) 
{"0": {"label": "*3", "atom_type": "Cs"}, "1": {"label": "*4", "atom_type": "Cs"}, "9": {"label": "*1", "atom_type": "Cs"}, "10": {"label": "*0", "atom_type": "S2s"}, "16": {"label": "*2", "atom_type": "H0"}}

>  <type>  (18) 
unop_14

>  <geom_source>  (18) 
gaussian_log

$$$$
