
     RDKit          3D

 10  9  0  0  0  0  0  0  0  0999 V2000
    2.0861   -0.0291   -0.2114 C   0  0  0  0  0  0  0  0  0  0  0  0
    0.8590   -0.0801    0.2151 C   0  0  0  0  0  0  0  0  0  0  0  0
   -0.3701   -0.1299    0.6360 C   0  0  0  0  0  0  0  0  0  0  0  0
   -1.5792    0.1084   -0.2228 C   0  0  0  0  0  0  0  0  0  0  0  0
    2.6495    0.8968   -0.1902 H   0  0  0  0  0  0  0  0  0  0  0  0
    2.5830   -0.9114   -0.5982 H   0  0  0  0  0  0  0  0  0  0  0  0
   -0.5397   -0.3602    1.6844 H   0  0  0  0  0  0  0  0  0  0  0  0
   -2.2286   -0.7700   -0.2248 H   0  0  0  0  0  0  0  0  0  0  0  0
   -1.2946    0.3298   -1.2505 H   0  0  0  0  0  0  0  0  0  0  0  0
   -2.1655    0.9457    0.1623 H   0  0  0  0  0  0  0  0  0  0  0  0
  1  2  2  0
  1  5  1  0
  1  6  1  0
  2  3  2  0
  3  4  1  0
  3  7  1  0
  4  8  1  0
  4  9  1  0
  4 10  1  0
M  END
>  <reaction>  (1) 
rmg_rxn_15497

>  <mol_properties>  (1) 
{"0": {"label": "donator", "atom_type": "Cd"}, "4": {"label": "d_hydrogen", "atom_type": "H0"}}

>  <type>  (1) 
r1h

$$$$

     RDKit          3D

  5  4  0  0  0  0  0  0  0  0999 V2000
    0.8934    0.3742    0.4948 O   0  0  0  0  0  0  0  0  0  0  0  0
    0.1582   -0.1610   -0.5904 N   0  0  0  0  0  0  0  0  0  0  0  0
   -1.0297   -0.3739   -0.4689 C   0  0  0  0  0  3  0  0  0  0  0  0
    1.7805    0.4382    0.1306 H   0  0  0  0  0  0  0  0  0  0  0  0
   -1.8023   -0.2775    0.2859 H   0  0  0  0  0  0  0  0  0  0  0  0
  1  2  1  0
  1  4  1  0
  2  3  2  3
  3  5  1  0
M  RAD  1   3   2
M  END
>  <reaction>  (2) 
rmg_rxn_15497

>  <mol_properties>  (2) 
{"2": {"label": "acceptor", "atom_type": "Cd"}}

>  <type>  (2) 
r2

$$$$

     RDKit          3D

  6  5  0  0  0  0  0  0  0  0999 V2000
    1.2314    0.0428    0.5088 O   0  0  0  0  0  0  0  0  0  0  0  0
    0.2987    0.2341   -0.4915 N   0  0  0  0  0  0  0  0  0  0  0  0
   -0.8599   -0.1122   -0.1290 C   0  0  0  0  0  0  0  0  0  0  0  0
    2.0507    0.3401    0.1082 H   0  0  0  0  0  0  0  0  0  0  0  0
   -1.0700   -0.5112    0.8610 H   0  0  0  0  0  0  0  0  0  0  0  0
   -1.6509    0.0064   -0.8574 H   0  0  0  0  0  0  0  0  0  0  0  0
  1  2  1  0
  1  4  1  0
  2  3  2  3
  3  5  1  0
  3  6  1  0
M  END
>  <reaction>  (3) 
rmg_rxn_15497

>  <mol_properties>  (3) 
{"2": {"label": "acceptor", "atom_type": "Cd"}, "5": {"label": "a_hydrogen", "atom_type": "H0"}}

>  <type>  (3) 
r2h

$$$$

     RDKit          3D

 15 13  0  0  0  0  0  0  0  0999 V2000
   -2.1878    2.1993    2.3029 O   0  0  0  0  0  0  0  0  0  0  0  0
   -0.9686    1.6823    1.8482 N   0  0  0  0  0  0  0  0  0  0  0  0
   -1.0710    0.8016    0.9827 C   0  0  0  0  0  3  0  0  0  0  0  0
   -1.9120    2.8507    2.9521 H   0  0  0  0  0  0  0  0  0  0  0  0
   -1.9638    0.3741    0.5280 H   0  0  0  0  0  0  0  0  0  0  0  0
    1.2962   -0.1473    0.1563 C   0  0  0  0  0  0  0  0  0  0  0  0
    1.3262   -1.0443   -0.7584 C   0  0  0  0  0  0  0  0  0  0  0  0
    1.2756   -1.9535   -1.7014 C   0  0  0  0  0  0  0  0  0  0  0  0
    1.3076   -1.6568   -3.1707 C   0  0  0  0  0  0  0  0  0  0  0  0
    0.1844    0.2794    0.5247 H   0  0  0  0  0  0  0  0  0  0  0  0
    2.1174    0.3168    0.6845 H   0  0  0  0  0  0  0  0  0  0  0  0
    1.2233   -2.9962   -1.4009 H   0  0  0  0  0  0  0  0  0  0  0  0
    2.1716   -2.1324   -3.6411 H   0  0  0  0  0  0  0  0  0  0  0  0
    1.3583   -0.5851   -3.3564 H   0  0  0  0  0  0  0  0  0  0  0  0
    0.4149   -2.0531   -3.6610 H   0  0  0  0  0  0  0  0  0  0  0  0
  1  2  1  0
  1  4  1  0
  2  3  2  3
  3  5  1  0
  6  7  2  0
  6 10  1  0
  6 11  1  0
  7  8  2  0
  8  9  1  0
  8 12  1  0
  9 13  1  0
  9 14  1  0
  9 15  1  0
M  RAD  1   3   2
M  END
>  <reaction>  (4) 
rmg_rxn_15497

>  <mol_properties>  (4) 
{"1": {"label": "*4", "atom_type": "N3d"}, "2": {"label": "*3", "atom_type": "Cd"}, "5": {"label": "*1", "atom_type": "Cd"}, "6": {"label": "*0", "atom_type": "Cdd"}, "9": {"label": "*2", "atom_type": "H0"}}

>  <type>  (4) 
ts

$$$$

     RDKit          3D

 15 13  0  0  0  0  0  0  0  0999 V2000
   -3.7649    0.4719   -0.0168 O   0  0  0  0  0  0  0  0  0  0  0  0
   -2.5452   -0.2058    0.1548 N   0  0  0  0  0  0  0  0  0  0  0  0
   -1.4933    0.3407   -0.2142 C   0  0  0  0  0  0  0  0  0  0  0  0
   -4.4295   -0.1358    0.3355 H   0  0  0  0  0  0  0  0  0  0  0  0
   -1.3600    1.3132   -0.6739 H   0  0  0  0  0  0  0  0  0  0  0  0
    0.6152   -1.1340    0.2216 C   0  0  0  0  0  0  0  0  0  0  0  0
    1.7340   -0.6697   -0.1050 C   0  0  0  0  0  0  0  0  0  0  0  0
    2.8057    0.0076   -0.5047 C   0  0  0  0  0  3  0  0  0  0  0  0
    3.6004    0.8956    0.3915 C   0  0  0  0  0  0  0  0  0  0  0  0
   -0.4538   -0.3545   -0.0145 H   0  0  0  0  0  0  0  0  0  0  0  0
    0.2315   -2.0276    0.6546 H   0  0  0  0  0  0  0  0  0  0  0  0
    3.1748   -0.1341   -1.5113 H   0  0  0  0  0  0  0  0  0  0  0  0
    3.1431    0.9649    1.3754 H   0  0  0  0  0  0  0  0  0  0  0  0
    3.6693    1.8961   -0.0388 H   0  0  0  0  0  0  0  0  0  0  0  0
    4.6185    0.5172    0.5000 H   0  0  0  0  0  0  0  0  0  0  0  0
  1  2  1  0
  1  4  1  0
  2  3  2  3
  3  5  1  0
  3 10  1  0
  6  7  3  0
  6 11  1  0
  7  8  1  0
  8  9  1  0
  8 12  1  0
  9 13  1  0
  9 14  1  0
  9 15  1  0
M  RAD  1   8   2
M  END
>  <reaction>  (5) 
rmg_rxn_15497

>  <mol_properties>  (5) 
{"1": {"label": "*4", "atom_type": "N3d"}, "2": {"label": "*3", "atom_type": "Cd"}, "5": {"label": "*1", "atom_type": "Cd"}, "6": {"label": "*0", "atom_type": "Cdd"}, "9": {"label": "*2", "atom_type": "H0"}}

>  <type>  (5) 
unop_1

>  <geom_source>  (5) 
crest_best.xyz

$$$$

     RDKit          3D

 15 13  0  0  0  0  0  0  0  0999 V2000
   -1.7781    2.4112    2.3188 O   0  0  0  0  0  0  0  0  0  0  0  0
   -1.2605    1.1842    1.9533 N   0  0  0  0  0  0  0  0  0  0  0  0
   -1.0707    1.1041    0.7079 C   0  0  0  0  0  0  0  0  0  0  0  0
   -1.8716    2.3381    3.2706 H   0  0  0  0  0  0  0  0  0  0  0  0
   -1.2972    1.9211    0.0262 H   0  0  0  0  0  0  0  0  0  0  0  0
    1.1529    0.0002   -0.0614 C   0  0  0  0  0  0  0  0  0  0  0  0
    1.1529   -1.0683   -0.8022 C   0  0  0  0  0  0  0  0  0  0  0  0
    1.1529   -2.1368   -1.5429 C   0  0  0  0  0  3  0  0  0  0  0  0
    1.1529   -2.1368   -3.0450 C   0  0  0  0  0  0  0  0  0  0  0  0
    0.0400    0.5527    0.3236 H   0  0  0  0  0  0  0  0  0  0  0  0
    2.0803    0.4606    0.2595 H   0  0  0  0  0  0  0  0  0  0  0  0
    1.1618   -3.1019   -1.0434 H   0  0  0  0  0  0  0  0  0  0  0  0
    2.0329   -2.6574   -3.4295 H   0  0  0  0  0  0  0  0  0  0  0  0
    1.1529   -1.1213   -3.4387 H   0  0  0  0  0  0  0  0  0  0  0  0
    0.2729   -2.6574   -3.4295 H   0  0  0  0  0  0  0  0  0  0  0  0
  1  2  1  0
  1  4  1  0
  2  3  2  3
  3  5  1  0
  3 10  1  0
  6  7  3  0
  6 11  1  0
  7  8  1  0
  8  9  1  0
  8 12  1  0
  9 13  1  0
  9 14  1  0
  9 15  1  0
M  RAD  1   8   2
M  END
>  <reaction>  (6) 
rmg_rxn_15497

>  <mol_properties>  (6) 
{"1": {"label": "*4", "atom_type": "N3d"}, "2": {"label": "*3", "atom_type": "Cd"}, "5": {"label": "*1", "atom_type": "Cd"}, "6": {"label": "*0", "atom_type": "Cdd"}, "9": {"label": "*2", "atom_type": "H0"}}

>  <type>  (6) 
unop_2

>  <geom_source>  (6) 
Heuristics

$$$$

     RDKit          3D

 15 13  0  0  0  0  0  0  0  0999 V2000
   -3.7642    0.4725   -0.0171 O   0  0  0  0  0  0  0  0  0  0  0  0
   -2.5453   -0.2072    0.1521 N   0  0  0  0  0  0  0  0  0  0  0  0
   -1.4924    0.3419   -0.2106 C   0  0  0  0  0  0  0  0  0  0  0  0
   -4.4300   -0.1374    0.3295 H   0  0  0  0  0  0  0  0  0  0  0  0
   -1.3581    1.3178   -0.6627 H   0  0  0  0  0  0  0  0  0  0  0  0
    0.6155   -1.1345    0.2225 C   0  0  0  0  0  0  0  0  0  0  0  0
    1.7339   -0.6703   -0.1048 C   0  0  0  0  0  0  0  0  0  0  0  0
    2.8050    0.0075   -0.5053 C   0  0  0  0  0  3  0  0  0  0  0  0
    3.5994    0.8962    0.3906 C   0  0  0  0  0  0  0  0  0  0  0  0
   -0.4535   -0.3545   -0.0131 H   0  0  0  0  0  0  0  0  0  0  0  0
    0.2313   -2.0276    0.6561 H   0  0  0  0  0  0  0  0  0  0  0  0
    3.1744   -0.1349   -1.5116 H   0  0  0  0  0  0  0  0  0  0  0  0
    3.1380    0.9712    1.3722 H   0  0  0  0  0  0  0  0  0  0  0  0
    3.6739    1.8947   -0.0436 H   0  0  0  0  0  0  0  0  0  0  0  0
    4.6157    0.5143    0.5053 H   0  0  0  0  0  0  0  0  0  0  0  0
  1  2  1  0
  1  4  1  0
  2  3  2  3
  3  5  1  0
  3 10  1  0
  6  7  3  0
  6 11  1  0
  7  8  1  0
  8  9  1  0
  8 12  1  0
  9 13  1  0
  9 14  1  0
  9 15  1  0
M  RAD  1   8   2
M  END
>  <reaction>  (7) 
rmg_rxn_15497

>  <mol_properties>  (7) 
{"1": {"label": "*4", "atom_type": "N3d"}, "2": {"label": "*3", "atom_type": "Cd"}, "5": {"label": "*1", "atom_type": "Cd"}, "6": {"label": "*0", "atom_type": "Cdd"}, "9": {"label": "*2", "atom_type": "H0"}}

>  <type>  (7) 
unop_3

>  <geom_source>  (7) 
Heuristics

$$$$

     RDKit          3D

 15 13  0  0  0  0  0  0  0  0999 V2000
   -3.7673   -0.4686    0.0183 O   0  0  0  0  0  0  0  0  0  0  0  0
   -2.5463    0.2071   -0.1515 N   0  0  0  0  0  0  0  0  0  0  0  0
   -1.4942   -0.3471    0.2055 C   0  0  0  0  0  0  0  0  0  0  0  0
   -4.4317    0.1456   -0.3231 H   0  0  0  0  0  0  0  0  0  0  0  0
   -1.3616   -1.3252    0.6536 H   0  0  0  0  0  0  0  0  0  0  0  0
    0.6142    1.1303   -0.2215 C   0  0  0  0  0  0  0  0  0  0  0  0
    1.7333    0.6677    0.1060 C   0  0  0  0  0  0  0  0  0  0  0  0
    2.8056   -0.0082    0.5064 C   0  0  0  0  0  3  0  0  0  0  0  0
    3.6064   -0.8895   -0.3910 C   0  0  0  0  0  0  0  0  0  0  0  0
   -0.4541    0.3484    0.0100 H   0  0  0  0  0  0  0  0  0  0  0  0
    0.2295    2.0245   -0.6525 H   0  0  0  0  0  0  0  0  0  0  0  0
    3.1713    0.1309    1.5146 H   0  0  0  0  0  0  0  0  0  0  0  0
    3.6817   -1.8904    0.0376 H   0  0  0  0  0  0  0  0  0  0  0  0
    4.6222   -0.5043   -0.4982 H   0  0  0  0  0  0  0  0  0  0  0  0
    3.1502   -0.9599   -1.3753 H   0  0  0  0  0  0  0  0  0  0  0  0
  1  2  1  0
  1  4  1  0
  2  3  2  3
  3  5  1  0
  3 10  1  0
  6  7  3  0
  6 11  1  0
  7  8  1  0
  8  9  1  0
  8 12  1  0
  9 13  1  0
  9 14  1  0
  9 15  1  0
M  RAD  1   8   2
M  END
>  <reaction>  (8) 
rmg_rxn_15497

>  <mol_properties>  (8) 
{"1": {"label": "*4", "atom_type": "N3d"}, "2": {"label": "*3", "atom_type": "Cd"}, "5": {"label": "*1", "atom_type": "Cd"}, "6": {"label": "*0", "atom_type": "Cdd"}, "9": {"label": "*2", "atom_type": "H0"}}

>  <type>  (8) 
unop_4

>  <geom_source>  (8) 
Heuristics

$$$$

     RDKit          3D

 15 13  0  0  0  0  0  0  0  0999 V2000
   -3.7645    0.4721   -0.0146 O   0  0  0  0  0  0  0  0  0  0  0  0
   -2.5440   -0.2037    0.1589 N   0  0  0  0  0  0  0  0  0  0  0  0
   -1.4942    0.3371   -0.2243 C   0  0  0  0  0  0  0  0  0  0  0  0
   -4.4271   -0.1303    0.3505 H   0  0  0  0  0  0  0  0  0  0  0  0
   -1.3634    1.3029   -0.6987 H   0  0  0  0  0  0  0  0  0  0  0  0
    0.6149   -1.1339    0.2207 C   0  0  0  0  0  0  0  0  0  0  0  0
    1.7344   -0.6699   -0.1038 C   0  0  0  0  0  0  0  0  0  0  0  0
    2.8068    0.0066   -0.5030 C   0  0  0  0  0  3  0  0  0  0  0  0
    3.5986    0.8977    0.3926 C   0  0  0  0  0  0  0  0  0  0  0  0
   -0.4540   -0.3560   -0.0212 H   0  0  0  0  0  0  0  0  0  0  0  0
    0.2303   -2.0261    0.6556 H   0  0  0  0  0  0  0  0  0  0  0  0
    3.1795   -0.1393   -1.5076 H   0  0  0  0  0  0  0  0  0  0  0  0
    3.1335    0.9770    1.3721 H   0  0  0  0  0  0  0  0  0  0  0  0
    3.6764    1.8944   -0.0451 H   0  0  0  0  0  0  0  0  0  0  0  0
    4.6138    0.5149    0.5129 H   0  0  0  0  0  0  0  0  0  0  0  0
  1  2  1  0
  1  4  1  0
  2  3  2  3
  3  5  1  0
  3 10  1  0
  6  7  3  0
  6 11  1  0
  7  8  1  0
  8  9  1  0
  8 12  1  0
  9 13  1  0
  9 14  1  0
  9 15  1  0
M  RAD  1   8   2
M  END
>  <reaction>  (9) 
rmg_rxn_15497

>  <mol_properties>  (9) 
{"1": {"label": "*4", "atom_type": "N3d"}, "2": {"label": "*3", "atom_type": "Cd"}, "5": {"label": "*1", "atom_type": "Cd"}, "6": {"label": "*0", "atom_type": "Cdd"}, "9": {"label": "*2", "atom_type": "H0"}}

>  <type>  (9) 
unop_5

>  <geom_source>  (9) 
Heuristics

$$$$

     RDKit          3D

 15 13  0  0  0  0  0  0  0  0999 V2000
   -2.7119    1.3002    1.9038 O   0  0  0  0  0  0  0  0  0  0  0  0
   -1.7216    0.7198    1.1360 N   0  0  0  0  0  0  0  0  0  0  0  0
   -0.7329    1.4892    0.9808 C   0  0  0  0  0  0  0  0  0  0  0  0
   -3.3893    0.6222    1.9418 H   0  0  0  0  0  0  0  0  0  0  0  0
   -0.6925    2.4869    1.4125 H   0  0  0  0  0  0  0  0  0  0  0  0
    1.4907    0.3852    0.2115 C   0  0  0  0  0  0  0  0  0  0  0  0
    1.4907   -0.6833   -0.5293 C   0  0  0  0  0  0  0  0  0  0  0  0
    1.4907   -1.7517   -1.2700 C   0  0  0  0  0  3  0  0  0  0  0  0
    1.4907   -1.7517   -2.7721 C   0  0  0  0  0  0  0  0  0  0  0  0
    0.3778    0.9378    0.5965 H   0  0  0  0  0  0  0  0  0  0  0  0
    2.4182    0.8457    0.5324 H   0  0  0  0  0  0  0  0  0  0  0  0
    1.4996   -2.7168   -0.7705 H   0  0  0  0  0  0  0  0  0  0  0  0
    2.3707   -2.2724   -3.1566 H   0  0  0  0  0  0  0  0  0  0  0  0
    1.4907   -0.7362   -3.1657 H   0  0  0  0  0  0  0  0  0  0  0  0
    0.6107   -2.2724   -3.1566 H   0  0  0  0  0  0  0  0  0  0  0  0
  1  2  1  0
  1  4  1  0
  2  3  2  3
  3  5  1  0
  3 10  1  0
  6  7  3  0
  6 11  1  0
  7  8  1  0
  8  9  1  0
  8 12  1  0
  9 13  1  0
  9 14  1  0
  9 15  1  0
M  RAD  1   8   2
M  END
>  <reaction>  (10) 
rmg_rxn_15497

>  <mol_properties>  (10) 
{"1": {"label": "*4", "atom_type": "N3d"}, "2": {"label": "*3", "atom_type": "Cd"}, "5": {"label": "*1", "atom_type": "Cd"}, "6": {"label": "*0", "atom_type": "Cdd"}, "9": {"label": "*2", "atom_type": "H0"}}

>  <type>  (10) 
unop_6

>  <geom_source>  (10) 
Heuristics

$$$$

     RDKit          3D

 15 13  0  0  0  0  0  0  0  0999 V2000
   -3.7635   -0.4734    0.0149 O   0  0  0  0  0  0  0  0  0  0  0  0
   -2.5439    0.2040   -0.1584 N   0  0  0  0  0  0  0  0  0  0  0  0
   -1.4933   -0.3361    0.2236 C   0  0  0  0  0  0  0  0  0  0  0  0
   -4.4271    0.1287   -0.3492 H   0  0  0  0  0  0  0  0  0  0  0  0
   -1.3611   -1.3024    0.6966 H   0  0  0  0  0  0  0  0  0  0  0  0
    0.6155    1.1354   -0.2213 C   0  0  0  0  0  0  0  0  0  0  0  0
    1.7347    0.6711    0.1039 C   0  0  0  0  0  0  0  0  0  0  0  0
    2.8063   -0.0067    0.5030 C   0  0  0  0  0  3  0  0  0  0  0  0
    3.5964   -0.8996   -0.3924 C   0  0  0  0  0  0  0  0  0  0  0  0
   -0.4537    0.3579    0.0202 H   0  0  0  0  0  0  0  0  0  0  0  0
    0.2318    2.0277   -0.6570 H   0  0  0  0  0  0  0  0  0  0  0  0
    3.1791    0.1386    1.5077 H   0  0  0  0  0  0  0  0  0  0  0  0
    3.6697   -1.8971    0.0443 H   0  0  0  0  0  0  0  0  0  0  0  0
    4.6132   -0.5205   -0.5102 H   0  0  0  0  0  0  0  0  0  0  0  0
    3.1327   -0.9762   -1.3727 H   0  0  0  0  0  0  0  0  0  0  0  0
  1  2  1  0
  1  4  1  0
  2  3  2  3
  3  5  1  0
  3 10  1  0
  6  7  3  0
  6 11  1  0
  7  8  1  0
  8  9  1  0
  8 12  1  0
  9 13  1  0
  9 14  1  0
  9 15  1  0
M  RAD  1   8   2
M  END
>  <reaction>  (11) 
rmg_rxn_15497

>  <mol_properties>  (11) 
{"1": {"label": "*4", "atom_type": "N3d"}, "2": {"label": "*3", "atom_type": "Cd"}, "5": {"label": "*1", "atom_type": "Cd"}, "6": {"label": "*0", "atom_type": "Cdd"}, "9": {"label": "*2", "atom_type": "H0"}}

>  <type>  (11) 
unop_7

>  <geom_source>  (11) 
Heuristics

$$$$

     RDKit          3D

 15 13  0  0  0  0  0  0  0  0999 V2000
   -1.9053    2.6568    1.9334 O   0  0  0  0  0  0  0  0  0  0  0  0
   -1.0550    1.5687    1.9224 N   0  0  0  0  0  0  0  0  0  0  0  0
   -1.0785    0.9625    0.8154 C   0  0  0  0  0  0  0  0  0  0  0  0
   -1.7916    3.0185    2.8144 H   0  0  0  0  0  0  0  0  0  0  0  0
   -1.7045    1.2817   -0.0151 H   0  0  0  0  0  0  0  0  0  0  0  0
    1.1451   -0.1414    0.0461 C   0  0  0  0  0  0  0  0  0  0  0  0
    1.1451   -1.2099   -0.6947 C   0  0  0  0  0  0  0  0  0  0  0  0
    1.1451   -2.2784   -1.4354 C   0  0  0  0  0  3  0  0  0  0  0  0
    1.1451   -2.2784   -2.9375 C   0  0  0  0  0  0  0  0  0  0  0  0
    0.0322    0.4111    0.4311 H   0  0  0  0  0  0  0  0  0  0  0  0
    2.0725    0.3190    0.3670 H   0  0  0  0  0  0  0  0  0  0  0  0
    1.1540   -3.2435   -0.9360 H   0  0  0  0  0  0  0  0  0  0  0  0
    2.0251   -2.7990   -3.3220 H   0  0  0  0  0  0  0  0  0  0  0  0
    1.1451   -1.2629   -3.3312 H   0  0  0  0  0  0  0  0  0  0  0  0
    0.2651   -2.7990   -3.3220 H   0  0  0  0  0  0  0  0  0  0  0  0
  1  2  1  0
  1  4  1  0
  2  3  2  3
  3  5  1  0
  3 10  1  0
  6  7  3  0
  6 11  1  0
  7  8  1  0
  8  9  1  0
  8 12  1  0
  9 13  1  0
  9 14  1  0
  9 15  1  0
M  RAD  1   8   2
M  END
>  <reaction>  (12) 
rmg_rxn_15497

>  <mol_properties>  (12) 
{"1": {"label": "*4", "atom_type": "N3d"}, "2": {"label": "*3", "atom_type": "Cd"}, "5": {"label": "*1", "atom_type": "Cd"}, "6": {"label": "*0", "atom_type": "Cdd"}, "9": {"label": "*2", "atom_type": "H0"}}

>  <type>  (12) 
unop_8

>  <geom_source>  (12) 
Heuristics

$$$$

     RDKit          3D

 15 13  0  0  0  0  0  0  0  0999 V2000
   -2.3440    2.5374    0.8623 O   0  0  0  0  0  0  0  0  0  0  0  0
   -1.6258    1.4230    0.4760 N   0  0  0  0  0  0  0  0  0  0  0  0
   -0.8487    1.0231    1.3868 C   0  0  0  0  0  0  0  0  0  0  0  0
   -2.8832    2.7317    0.0932 H   0  0  0  0  0  0  0  0  0  0  0  0
   -0.7740    1.5174    2.3531 H   0  0  0  0  0  0  0  0  0  0  0  0
    1.3749   -0.0808    0.6175 C   0  0  0  0  0  0  0  0  0  0  0  0
    1.3749   -1.1494   -0.1232 C   0  0  0  0  0  0  0  0  0  0  0  0
    1.3749   -2.2178   -0.8639 C   0  0  0  0  0  3  0  0  0  0  0  0
    1.3749   -2.2178   -2.3660 C   0  0  0  0  0  0  0  0  0  0  0  0
    0.2620    0.4717    1.0026 H   0  0  0  0  0  0  0  0  0  0  0  0
    2.3023    0.3796    0.9384 H   0  0  0  0  0  0  0  0  0  0  0  0
    1.3837   -3.1829   -0.3645 H   0  0  0  0  0  0  0  0  0  0  0  0
    2.2548   -2.7384   -2.7506 H   0  0  0  0  0  0  0  0  0  0  0  0
    1.3749   -1.2023   -2.7597 H   0  0  0  0  0  0  0  0  0  0  0  0
    0.4949   -2.7384   -2.7506 H   0  0  0  0  0  0  0  0  0  0  0  0
  1  2  1  0
  1  4  1  0
  2  3  2  3
  3  5  1  0
  3 10  1  0
  6  7  3  0
  6 11  1  0
  7  8  1  0
  8  9  1  0
  8 12  1  0
  9 13  1  0
  9 14  1  0
  9 15  1  0
M  RAD  1   8   2
M  END
>  <reaction>  (13) 
rmg_rxn_15497

>  <mol_properties>  (13) 
{"1": {"label": "*4", "atom_type": "N3d"}, "2": {"label": "*3", "atom_type": "Cd"}, "5": {"label": "*1", "atom_type": "Cd"}, "6": {"label": "*0", "atom_type": "Cdd"}, "9": {"label": "*2", "atom_type": "H0"}}

>  <type>  (13) 
unop_9

>  <geom_source>  (13) 
Heuristics

$$$$

     RDKit          3D

 15 13  0  0  0  0  0  0  0  0999 V2000
    3.7664   -0.4699   -0.0187 O   0  0  0  0  0  0  0  0  0  0  0  0
    2.5465    0.2081    0.1494 N   0  0  0  0  0  0  0  0  0  0  0  0
    1.4932   -0.3468   -0.2029 C   0  0  0  0  0  0  0  0  0  0  0  0
    4.4321    0.1454    0.3181 H   0  0  0  0  0  0  0  0  0  0  0  0
    1.3587   -1.3274   -0.6447 H   0  0  0  0  0  0  0  0  0  0  0  0
   -0.6147    1.1318    0.2226 C   0  0  0  0  0  0  0  0  0  0  0  0
   -1.7333    0.6683   -0.1056 C   0  0  0  0  0  0  0  0  0  0  0  0
   -2.8054   -0.0076   -0.5065 C   0  0  0  0  0  3  0  0  0  0  0  0
   -3.6045   -0.8916    0.3898 C   0  0  0  0  0  0  0  0  0  0  0  0
    0.4538    0.3501   -0.0086 H   0  0  0  0  0  0  0  0  0  0  0  0
   -0.2307    2.0258    0.6544 H   0  0  0  0  0  0  0  0  0  0  0  0
   -3.1720    0.1332   -1.5141 H   0  0  0  0  0  0  0  0  0  0  0  0
   -3.1456   -0.9660    1.3725 H   0  0  0  0  0  0  0  0  0  0  0  0
   -3.6817   -1.8907   -0.0424 H   0  0  0  0  0  0  0  0  0  0  0  0
   -4.6196   -0.5059    0.5014 H   0  0  0  0  0  0  0  0  0  0  0  0
  1  2  1  0
  1  4  1  0
  2  3  2  3
  3  5  1  0
  3 10  1  0
  6  7  3  0
  6 11  1  0
  7  8  1  0
  8  9  1  0
  8 12  1  0
  9 13  1  0
  9 14  1  0
  9 15  1  0
M  RAD  1   8   2
M  END
>  <reaction>  (14) 
rmg_rxn_15497

>  <mol_properties>  (14) 
{"1": {"label": "*4", "atom_type": "N3d"}, "2": {"label": "*3", "atom_type": "Cd"}, "5": {"label": "*1", "atom_type": "Cd"}, "6": {"label": "*0", "atom_type": "Cdd"}, "9": {"label": "*2", "atom_type": "H0"}}

>  <type>  (14) 
unop_10

>  <geom_source>  (14) 
Heuristics

$$$$

     RDKit          3D

 15 13  0  0  0  0  0  0  0  0999 V2000
   -2.1683    2.4718    1.9474 O   0  0  0  0  0  0  0  0  0  0  0  0
   -0.9329    1.9657    1.5943 N   0  0  0  0  0  0  0  0  0  0  0  0
   -1.0338    0.9315    0.8775 C   0  0  0  0  0  0  0  0  0  0  0  0
   -1.9499    3.2396    2.4792 H   0  0  0  0  0  0  0  0  0  0  0  0
   -1.9940    0.5103    0.5873 H   0  0  0  0  0  0  0  0  0  0  0  0
    1.1898   -0.1724    0.1082 C   0  0  0  0  0  0  0  0  0  0  0  0
    1.1898   -1.2409   -0.6326 C   0  0  0  0  0  0  0  0  0  0  0  0
    1.1898   -2.3093   -1.3733 C   0  0  0  0  0  3  0  0  0  0  0  0
    1.1898   -2.3093   -2.8754 C   0  0  0  0  0  0  0  0  0  0  0  0
    0.0769    0.3801    0.4932 H   0  0  0  0  0  0  0  0  0  0  0  0
    2.1172    0.2880    0.4291 H   0  0  0  0  0  0  0  0  0  0  0  0
    1.1986   -3.2744   -0.8739 H   0  0  0  0  0  0  0  0  0  0  0  0
    2.0698   -2.8300   -3.2599 H   0  0  0  0  0  0  0  0  0  0  0  0
    1.1898   -1.2939   -3.2691 H   0  0  0  0  0  0  0  0  0  0  0  0
    0.3098   -2.8300   -3.2599 H   0  0  0  0  0  0  0  0  0  0  0  0
  1  2  1  0
  1  4  1  0
  2  3  2  3
  3  5  1  0
  3 10  1  0
  6  7  3  0
  6 11  1  0
  7  8  1  0
  8  9  1  0
  8 12  1  0
  9 13  1  0
  9 14  1  0
  9 15  1  0
M  RAD  1   8   2
M  END
>  <reaction>  (15) 
rmg_rxn_15497

>  <mol_properties>  (15) 
{"1": {"label": "*4", "atom_type": "N3d"}, "2": {"label": "*3", "atom_type": "Cd"}, "5": {"label": "*1", "atom_type": "Cd"}, "6": {"label": "*0", "atom_type": "Cdd"}, "9": {"label": "*2", "atom_type": "H0"}}

>  <type>  (15) 
unop_11

>  <geom_source>  (15) 
Heuristics

$$$$

     RDKit          3D

 15 13  0  0  0  0  0  0  0  0999 V2000
   -3.7652    0.4713   -0.0167 O   0  0  0  0  0  0  0  0  0  0  0  0
   -2.5453   -0.2061    0.1540 N   0  0  0  0  0  0  0  0  0  0  0  0
   -1.4935    0.3418   -0.2132 C   0  0  0  0  0  0  0  0  0  0  0  0
   -4.4297   -0.1376    0.3339 H   0  0  0  0  0  0  0  0  0  0  0  0
   -1.3603    1.3154   -0.6705 H   0  0  0  0  0  0  0  0  0  0  0  0
    0.6150   -1.1330    0.2220 C   0  0  0  0  0  0  0  0  0  0  0  0
    1.7339   -0.6696   -0.1055 C   0  0  0  0  0  0  0  0  0  0  0  0
    2.8056    0.0078   -0.5051 C   0  0  0  0  0  3  0  0  0  0  0  0
    3.6014    0.8944    0.3916 C   0  0  0  0  0  0  0  0  0  0  0  0
   -0.4538   -0.3532   -0.0138 H   0  0  0  0  0  0  0  0  0  0  0  0
    0.2310   -2.0266    0.6546 H   0  0  0  0  0  0  0  0  0  0  0  0
    3.1746   -0.1338   -1.5116 H   0  0  0  0  0  0  0  0  0  0  0  0
    3.6740    1.8943   -0.0396 H   0  0  0  0  0  0  0  0  0  0  0  0
    4.6182    0.5133    0.5022 H   0  0  0  0  0  0  0  0  0  0  0  0
    3.1427    0.9661    1.3747 H   0  0  0  0  0  0  0  0  0  0  0  0
  1  2  1  0
  1  4  1  0
  2  3  2  3
  3  5  1  0
  3 10  1  0
  6  7  3  0
  6 11  1  0
  7  8  1  0
  8  9  1  0
  8 12  1  0
  9 13  1  0
  9 14  1  0
  9 15  1  0
M  RAD  1   8   2
M  END
>  <reaction>  (16) 
rmg_rxn_15497

>  <mol_properties>  (16) 
{"1": {"label": "*4", "atom_type": "N3d"}, "2": {"label": "*3", "atom_type": "Cd"}, "5": {"label": "*1", "atom_type": "Cd"}, "6": {"label": "*0", "atom_type": "Cdd"}, "9": {"label": "*2", "atom_type": "H0"}}

>  <type>  (16) 
unop_12

>  <geom_source>  (16) 
Heuristics

$$$$

     RDKit          3D

 15 13  0  0  0  0  0  0  0  0999 V2000
    3.7653   -0.4708    0.0169 O   0  0  0  0  0  0  0  0  0  0  0  0
    2.5451    0.2064   -0.1525 N   0  0  0  0  0  0  0  0  0  0  0  0
    1.4931   -0.3434    0.2116 C   0  0  0  0  0  0  0  0  0  0  0  0
    4.4297    0.1400   -0.3307 H   0  0  0  0  0  0  0  0  0  0  0  0
    1.3599   -1.3188    0.6651 H   0  0  0  0  0  0  0  0  0  0  0  0
   -0.6147    1.1327   -0.2224 C   0  0  0  0  0  0  0  0  0  0  0  0
   -1.7341    0.6702    0.1046 C   0  0  0  0  0  0  0  0  0  0  0  0
   -2.8060   -0.0065    0.5049 C   0  0  0  0  0  3  0  0  0  0  0  0
   -3.6006   -0.8953   -0.3906 C   0  0  0  0  0  0  0  0  0  0  0  0
    0.4535    0.3522    0.0138 H   0  0  0  0  0  0  0  0  0  0  0  0
   -0.2302    2.0255   -0.6563 H   0  0  0  0  0  0  0  0  0  0  0  0
   -3.1757    0.1370    1.5110 H   0  0  0  0  0  0  0  0  0  0  0  0
   -3.1399   -0.9703   -1.3725 H   0  0  0  0  0  0  0  0  0  0  0  0
   -4.6169   -0.5137   -0.5045 H   0  0  0  0  0  0  0  0  0  0  0  0
   -3.6747   -1.8938    0.0437 H   0  0  0  0  0  0  0  0  0  0  0  0
  1  2  1  0
  1  4  1  0
  2  3  2  3
  3  5  1  0
  3 10  1  0
  6  7  3  0
  6 11  1  0
  7  8  1  0
  8  9  1  0
  8 12  1  0
  9 13  1  0
  9 14  1  0
  9 15  1  0
M  RAD  1   8   2
M  END
>  <reaction>  (17) 
rmg_rxn_15497

>  <mol_properties>  (17) 
{"1": {"label": "*4", "atom_type": "N3d"}, "2": {"label": "*3", "atom_type": "Cd"}, "5": {"label": "*1", "atom_type": "Cd"}, "6": {"label": "*0", "atom_type": "Cdd"}, "9": {"label": "*2", "atom_type": "H0"}}

>  <type>  (17) 
unop_13

>  <geom_source>  (17) 
Heuristics

$$$$

     RDKit          3D

 15 13  0  0  0  0  0  0  0  0999 V2000
   -1.9716    2.8315    1.2305 O   0  0  0  0  0  0  0  0  0  0  0  0
   -1.4641    1.7611    0.5207 N   0  0  0  0  0  0  0  0  0  0  0  0
   -0.9790    0.8780    1.2811 C   0  0  0  0  0  0  0  0  0  0  0  0
   -2.3016    3.4159    0.5452 H   0  0  0  0  0  0  0  0  0  0  0  0
   -0.9746    0.9749    2.3647 H   0  0  0  0  0  0  0  0  0  0  0  0
    1.2446   -0.2259    0.5118 C   0  0  0  0  0  0  0  0  0  0  0  0
    1.2446   -1.2944   -0.2290 C   0  0  0  0  0  0  0  0  0  0  0  0
    1.2446   -2.3629   -0.9697 C   0  0  0  0  0  3  0  0  0  0  0  0
    1.2446   -2.3629   -2.4718 C   0  0  0  0  0  0  0  0  0  0  0  0
    0.1317    0.3266    0.8968 H   0  0  0  0  0  0  0  0  0  0  0  0
    2.1720    0.2345    0.8327 H   0  0  0  0  0  0  0  0  0  0  0  0
    1.2534   -3.3280   -0.4702 H   0  0  0  0  0  0  0  0  0  0  0  0
    2.1246   -2.8835   -2.8563 H   0  0  0  0  0  0  0  0  0  0  0  0
    1.2446   -1.3474   -2.8654 H   0  0  0  0  0  0  0  0  0  0  0  0
    0.3646   -2.8835   -2.8563 H   0  0  0  0  0  0  0  0  0  0  0  0
  1  2  1  0
  1  4  1  0
  2  3  2  3
  3  5  1  0
  3 10  1  0
  6  7  3  0
  6 11  1  0
  7  8  1  0
  8  9  1  0
  8 12  1  0
  9 13  1  0
  9 14  1  0
  9 15  1  0
M  RAD  1   8   2
M  END
>  <reaction>  (18) 
rmg_rxn_15497

>  <mol_properties>  (18) 
{"1": {"label": "*4", "atom_type": "N3d"}, "2": {"label": "*3", "atom_type": "Cd"}, "5": {"label": "*1", "atom_type": "Cd"}, "6": {"label": "*0", "atom_type": "Cdd"}, "9": {"label": "*2", "atom_type": "H0"}}

>  <type>  (18) 
unop_14

>  <geom_source>  (18) 
Heuristics

$$$$

     RDKit          3D

 15 13  0  0  0  0  0  0  0  0999 V2000
   -3.7673   -0.4685    0.0186 O   0  0  0  0  0  0  0  0  0  0  0  0
   -2.5465    0.2080   -0.1491 N   0  0  0  0  0  0  0  0  0  0  0  0
   -1.4939   -0.3484    0.2029 C   0  0  0  0  0  0  0  0  0  0  0  0
   -4.4322    0.1479   -0.3180 H   0  0  0  0  0  0  0  0  0  0  0  0
   -1.3607   -1.3295    0.6440 H   0  0  0  0  0  0  0  0  0  0  0  0
    0.6141    1.1299   -0.2227 C   0  0  0  0  0  0  0  0  0  0  0  0
    1.7333    0.6678    0.1056 C   0  0  0  0  0  0  0  0  0  0  0  0
    2.8062   -0.0068    0.5065 C   0  0  0  0  0  3  0  0  0  0  0  0
    3.6060   -0.8902   -0.3897 C   0  0  0  0  0  0  0  0  0  0  0  0
   -0.4539    0.3476    0.0087 H   0  0  0  0  0  0  0  0  0  0  0  0
    0.2293    2.0235   -0.6547 H   0  0  0  0  0  0  0  0  0  0  0  0
    3.1728    0.1345    1.5141 H   0  0  0  0  0  0  0  0  0  0  0  0
    3.6825   -1.8898    0.0416 H   0  0  0  0  0  0  0  0  0  0  0  0
    4.6214   -0.5048   -0.4998 H   0  0  0  0  0  0  0  0  0  0  0  0
    3.1482   -0.9637   -1.3730 H   0  0  0  0  0  0  0  0  0  0  0  0
  1  2  1  0
  1  4  1  0
  2  3  2  3
  3  5  1  0
  3 10  1  0
  6  7  3  0
  6 11  1  0
  7  8  1  0
  8  9  1  0
  8 12  1  0
  9 13  1  0
  9 14  1  0
  9 15  1  0
M  RAD  1   8   2
M  END
>  <reaction>  (19) 
rmg_rxn_15497

>  <mol_properties>  (19) 
{"1": {"label": "*4", "atom_type": "N3d"}, "2": {"label": "*3", "atom_type": "Cd"}, "5": {"label": "*1", "atom_type": "Cd"}, "6": {"label": "*0", "atom_type": "Cdd"}, "9": {"label": "*2", "atom_type": "H0"}}

>  <type>  (19) 
unop_15

>  <geom_source>  (19) 
Heuristics

$$$$

     RDKit          3D

 15 13  0  0  0  0  0  0  0  0999 V2000
   -1.7792    2.7990    1.7594 O   0  0  0  0  0  0  0  0  0  0  0  0
   -1.2627    2.0272    0.7373 N   0  0  0  0  0  0  0  0  0  0  0  0
   -1.0700    0.8332    1.0987 C   0  0  0  0  0  0  0  0  0  0  0  0
   -1.8751    3.6646    1.3573 H   0  0  0  0  0  0  0  0  0  0  0  0
   -1.2935    0.4810    2.1035 H   0  0  0  0  0  0  0  0  0  0  0  0
    1.1536   -0.2707    0.3294 C   0  0  0  0  0  0  0  0  0  0  0  0
    1.1536   -1.3393   -0.4114 C   0  0  0  0  0  0  0  0  0  0  0  0
    1.1536   -2.4077   -1.1521 C   0  0  0  0  0  3  0  0  0  0  0  0
    1.1536   -2.4077   -2.6542 C   0  0  0  0  0  0  0  0  0  0  0  0
    0.0407    0.2818    0.7144 H   0  0  0  0  0  0  0  0  0  0  0  0
    2.0810    0.1897    0.6503 H   0  0  0  0  0  0  0  0  0  0  0  0
    1.1625   -3.3728   -0.6527 H   0  0  0  0  0  0  0  0  0  0  0  0
    2.0336   -2.9283   -3.0387 H   0  0  0  0  0  0  0  0  0  0  0  0
    1.1536   -1.3922   -3.0479 H   0  0  0  0  0  0  0  0  0  0  0  0
    0.2736   -2.9283   -3.0387 H   0  0  0  0  0  0  0  0  0  0  0  0
  1  2  1  0
  1  4  1  0
  2  3  2  3
  3  5  1  0
  3 10  1  0
  6  7  3  0
  6 11  1  0
  7  8  1  0
  8  9  1  0
  8 12  1  0
  9 13  1  0
  9 14  1  0
  9 15  1  0
M  RAD  1   8   2
M  END
>  <reaction>  (20) 
rmg_rxn_15497

>  <mol_properties>  (20) 
{"1": {"label": "*4", "atom_type": "N3d"}, "2": {"label": "*3", "atom_type": "Cd"}, "5": {"label": "*1", "atom_type": "Cd"}, "6": {"label": "*0", "atom_type": "Cdd"}, "9": {"label": "*2", "atom_type": "H0"}}

>  <type>  (20) 
unop_16

>  <geom_source>  (20) 
Heuristics

$$$$

     RDKit          3D

 15 13  0  0  0  0  0  0  0  0999 V2000
   -3.7641   -0.4727    0.0181 O   0  0  0  0  0  0  0  0  0  0  0  0
   -2.5454    0.2073   -0.1519 N   0  0  0  0  0  0  0  0  0  0  0  0
   -1.4919   -0.3422    0.2082 C   0  0  0  0  0  0  0  0  0  0  0  0
   -4.4304    0.1380   -0.3261 H   0  0  0  0  0  0  0  0  0  0  0  0
   -1.3567   -1.3190    0.6584 H   0  0  0  0  0  0  0  0  0  0  0  0
    0.6156    1.1354   -0.2222 C   0  0  0  0  0  0  0  0  0  0  0  0
    1.7340    0.6707    0.1048 C   0  0  0  0  0  0  0  0  0  0  0  0
    2.8043   -0.0082    0.5056 C   0  0  0  0  0  3  0  0  0  0  0  0
    3.5992   -0.8962   -0.3903 C   0  0  0  0  0  0  0  0  0  0  0  0
   -0.4533    0.3550    0.0115 H   0  0  0  0  0  0  0  0  0  0  0  0
    0.2321    2.0294   -0.6547 H   0  0  0  0  0  0  0  0  0  0  0  0
    3.1724    0.1328    1.5126 H   0  0  0  0  0  0  0  0  0  0  0  0
    3.6715   -1.8956    0.0422 H   0  0  0  0  0  0  0  0  0  0  0  0
    4.6163   -0.5157   -0.5018 H   0  0  0  0  0  0  0  0  0  0  0  0
    3.1400   -0.9688   -1.3732 H   0  0  0  0  0  0  0  0  0  0  0  0
  1  2  1  0
  1  4  1  0
  2  3  2  3
  3  5  1  0
  3 10  1  0
  6  7  3  0
  6 11  1  0
  7  8  1  0
  8  9  1  0
  8 12  1  0
  9 13  1  0
  9 14  1  0
  9 15  1  0
M  RAD  1   8   2
M  END
>  <reaction>  (21) 
rmg_rxn_15497

>  <mol_properties>  (21) 
{"1": {"label": "*4", "atom_type": "N3d"}, "2": {"label": "*3", "atom_type": "Cd"}, "5": {"label": "*1", "atom_type": "Cd"}, "6": {"label": "*0", "atom_type": "Cdd"}, "9": {"label": "*2", "atom_type": "H0"}}

>  <type>  (21) 
unop_17

>  <geom_source>  (21) 
Heuristics

$$$$

     RDKit          3D

 15 13  0  0  0  0  0  0  0  0999 V2000
   -1.9692    1.9270    2.5353 O   0  0  0  0  0  0  0  0  0  0  0  0
   -1.4619    0.8877    1.7806 N   0  0  0  0  0  0  0  0  0  0  0  0
   -0.9801    1.2908    0.6857 C   0  0  0  0  0  0  0  0  0  0  0  0
   -2.2966    1.4896    3.3237 H   0  0  0  0  0  0  0  0  0  0  0  0
   -0.9782    2.3395    0.3963 H   0  0  0  0  0  0  0  0  0  0  0  0
    1.2435    0.1869   -0.0837 C   0  0  0  0  0  0  0  0  0  0  0  0
    1.2435   -0.8816   -0.8244 C   0  0  0  0  0  0  0  0  0  0  0  0
    1.2435   -1.9501   -1.5651 C   0  0  0  0  0  3  0  0  0  0  0  0
    1.2435   -1.9501   -3.0672 C   0  0  0  0  0  0  0  0  0  0  0  0
    0.1306    0.7394    0.3014 H   0  0  0  0  0  0  0  0  0  0  0  0
    2.1709    0.6473    0.2372 H   0  0  0  0  0  0  0  0  0  0  0  0
    1.2524   -2.9152   -1.0657 H   0  0  0  0  0  0  0  0  0  0  0  0
    2.1235   -2.4707   -3.4518 H   0  0  0  0  0  0  0  0  0  0  0  0
    1.2435   -0.9346   -3.4609 H   0  0  0  0  0  0  0  0  0  0  0  0
    0.3635   -2.4707   -3.4518 H   0  0  0  0  0  0  0  0  0  0  0  0
  1  2  1  0
  1  4  1  0
  2  3  2  3
  3  5  1  0
  3 10  1  0
  6  7  3  0
  6 11  1  0
  7  8  1  0
  8  9  1  0
  8 12  1  0
  9 13  1  0
  9 14  1  0
  9 15  1  0
M  RAD  1   8   2
M  END
>  <reaction>  (22) 
rmg_rxn_15497

>  <mol_properties>  (22) 
{"1": {"label": "*4", "atom_type": "N3d"}, "2": {"label": "*3", "atom_type": "Cd"}, "5": {"label": "*1", "atom_type": "Cd"}, "6": {"label": "*0", "atom_type": "Cdd"}, "9": {"label": "*2", "atom_type": "H0"}}

>  <type>  (22) 
unop_18

>  <geom_source>  (22) 
Heuristics

$$$$

     RDKit          3D

 15 13  0  0  0  0  0  0  0  0999 V2000
   -3.7649    0.4719   -0.0168 O   0  0  0  0  0  0  0  0  0  0  0  0
   -2.5452   -0.2058    0.1548 N   0  0  0  0  0  0  0  0  0  0  0  0
   -1.4933    0.3407   -0.2142 C   0  0  0  0  0  0  0  0  0  0  0  0
   -4.4295   -0.1358    0.3355 H   0  0  0  0  0  0  0  0  0  0  0  0
   -1.3600    1.3132   -0.6739 H   0  0  0  0  0  0  0  0  0  0  0  0
    0.6152   -1.1340    0.2216 C   0  0  0  0  0  0  0  0  0  0  0  0
    1.7340   -0.6697   -0.1050 C   0  0  0  0  0  0  0  0  0  0  0  0
    2.8057    0.0076   -0.5047 C   0  0  0  0  0  3  0  0  0  0  0  0
    3.6004    0.8956    0.3915 C   0  0  0  0  0  0  0  0  0  0  0  0
   -0.4538   -0.3545   -0.0145 H   0  0  0  0  0  0  0  0  0  0  0  0
    0.2315   -2.0276    0.6546 H   0  0  0  0  0  0  0  0  0  0  0  0
    3.1748   -0.1341   -1.5113 H   0  0  0  0  0  0  0  0  0  0  0  0
    3.1431    0.9649    1.3754 H   0  0  0  0  0  0  0  0  0  0  0  0
    3.6693    1.8961   -0.0388 H   0  0  0  0  0  0  0  0  0  0  0  0
    4.6185    0.5172    0.5000 H   0  0  0  0  0  0  0  0  0  0  0  0
  1  2  1  0
  1  4  1  0
  2  3  2  3
  3  5  1  0
  3 10  1  0
  6  7  3  0
  6 11  1  0
  7  8  1  0
  8  9  1  0
  8 12  1  0
  9 13  1  0
  9 14  1  0
  9 15  1  0
M  RAD  1   8   2
M  END
>  <reaction>  (23) 
rmg_rxn_15497

>  <mol_properties>  (23) 
{"1": {"label": "*4", "atom_type": "N3d"}, "2": {"label": "*3", "atom_type": "Cd"}, "5": {"label": "*1", "atom_type": "Cd"}, "6": {"label": "*0", "atom_type": "Cdd"}, "9": {"label": "*2", "atom_type": "H0"}}

>  <type>  (23) 
unop_19

>  <geom_source>  (23) 
Heuristics

$$$$

     RDKit          3D

 15 13  0  0  0  0  0  0  0  0999 V2000
   -2.7137    2.0191    0.8668 O   0  0  0  0  0  0  0  0  0  0  0  0
   -1.7226    1.0982    0.5903 N   0  0  0  0  0  0  0  0  0  0  0  0
   -0.7322    1.2244    1.3627 C   0  0  0  0  0  0  0  0  0  0  0  0
   -3.3924    1.8157    0.2203 H   0  0  0  0  0  0  0  0  0  0  0  0
   -0.6912    1.9787    2.1456 H   0  0  0  0  0  0  0  0  0  0  0  0
    1.4914    0.1205    0.5934 C   0  0  0  0  0  0  0  0  0  0  0  0
    1.4914   -0.9480   -0.1473 C   0  0  0  0  0  0  0  0  0  0  0  0
    1.4914   -2.0165   -0.8880 C   0  0  0  0  0  3  0  0  0  0  0  0
    1.4914   -2.0165   -2.3901 C   0  0  0  0  0  0  0  0  0  0  0  0
    0.3785    0.6730    0.9785 H   0  0  0  0  0  0  0  0  0  0  0  0
    2.4188    0.5809    0.9143 H   0  0  0  0  0  0  0  0  0  0  0  0
    1.5003   -2.9816   -0.3886 H   0  0  0  0  0  0  0  0  0  0  0  0
    2.3714   -2.5371   -2.7747 H   0  0  0  0  0  0  0  0  0  0  0  0
    1.4914   -1.0010   -2.7838 H   0  0  0  0  0  0  0  0  0  0  0  0
    0.6114   -2.5371   -2.7747 H   0  0  0  0  0  0  0  0  0  0  0  0
  1  2  1  0
  1  4  1  0
  2  3  2  3
  3  5  1  0
  3 10  1  0
  6  7  3  0
  6 11  1  0
  7  8  1  0
  8  9  1  0
  8 12  1  0
  9 13  1  0
  9 14  1  0
  9 15  1  0
M  RAD  1   8   2
M  END
>  <reaction>  (24) 
rmg_rxn_15497

>  <mol_properties>  (24) 
{"1": {"label": "*4", "atom_type": "N3d"}, "2": {"label": "*3", "atom_type": "Cd"}, "5": {"label": "*1", "atom_type": "Cd"}, "6": {"label": "*0", "atom_type": "Cdd"}, "9": {"label": "*2", "atom_type": "H0"}}

>  <type>  (24) 
unop_20

>  <geom_source>  (24) 
Heuristics

$$$$

     RDKit          3D

 15 13  0  0  0  0  0  0  0  0999 V2000
   -2.3412    1.4784    2.3899 O   0  0  0  0  0  0  0  0  0  0  0  0
   -1.6240    0.7269    1.4800 N   0  0  0  0  0  0  0  0  0  0  0  0
   -0.8498    1.4409    0.7841 C   0  0  0  0  0  0  0  0  0  0  0  0
   -2.8782    0.8254    2.8429 H   0  0  0  0  0  0  0  0  0  0  0  0
   -0.7766    2.5193    0.9079 H   0  0  0  0  0  0  0  0  0  0  0  0
    1.3738    0.3370    0.0148 C   0  0  0  0  0  0  0  0  0  0  0  0
    1.3738   -0.7315   -0.7260 C   0  0  0  0  0  0  0  0  0  0  0  0
    1.3738   -1.7999   -1.4667 C   0  0  0  0  0  3  0  0  0  0  0  0
    1.3738   -1.7999   -2.9688 C   0  0  0  0  0  0  0  0  0  0  0  0
    0.2609    0.8895    0.3999 H   0  0  0  0  0  0  0  0  0  0  0  0
    2.3012    0.7974    0.3357 H   0  0  0  0  0  0  0  0  0  0  0  0
    1.3826   -2.7650   -0.9672 H   0  0  0  0  0  0  0  0  0  0  0  0
    2.2538   -2.3206   -3.3533 H   0  0  0  0  0  0  0  0  0  0  0  0
    1.3738   -0.7845   -3.3624 H   0  0  0  0  0  0  0  0  0  0  0  0
    0.4938   -2.3206   -3.3533 H   0  0  0  0  0  0  0  0  0  0  0  0
  1  2  1  0
  1  4  1  0
  2  3  2  3
  3  5  1  0
  3 10  1  0
  6  7  3  0
  6 11  1  0
  7  8  1  0
  8  9  1  0
  8 12  1  0
  9 13  1  0
  9 14  1  0
  9 15  1  0
M  RAD  1   8   2
M  END
>  <reaction>  (25) 
rmg_rxn_15497

>  <mol_properties>  (25) 
{"1": {"label": "*4", "atom_type": "N3d"}, "2": {"label": "*3", "atom_type": "Cd"}, "5": {"label": "*1", "atom_type": "Cd"}, "6": {"label": "*0", "atom_type": "Cdd"}, "9": {"label": "*2", "atom_type": "H0"}}

>  <type>  (25) 
unop_21

>  <geom_source>  (25) 
Heuristics

$$$$

     RDKit          3D

 15 13  0  0  0  0  0  0  0  0999 V2000
   -1.9049    2.5240    2.1249 O   0  0  0  0  0  0  0  0  0  0  0  0
   -1.0564    2.1335    1.1077 N   0  0  0  0  0  0  0  0  0  0  0  0
   -1.0783    0.8841    0.9284 C   0  0  0  0  0  0  0  0  0  0  0  0
   -1.7928    3.4762    2.1542 H   0  0  0  0  0  0  0  0  0  0  0  0
   -1.7017    0.2173    1.5202 H   0  0  0  0  0  0  0  0  0  0  0  0
    1.1453   -0.2198    0.1591 C   0  0  0  0  0  0  0  0  0  0  0  0
    1.1453   -1.2883   -0.5817 C   0  0  0  0  0  0  0  0  0  0  0  0
    1.1453   -2.3567   -1.3224 C   0  0  0  0  0  3  0  0  0  0  0  0
    1.1453   -2.3567   -2.8245 C   0  0  0  0  0  0  0  0  0  0  0  0
    0.0324    0.3327    0.5441 H   0  0  0  0  0  0  0  0  0  0  0  0
    2.0728    0.2407    0.4799 H   0  0  0  0  0  0  0  0  0  0  0  0
    1.1542   -3.3218   -0.8230 H   0  0  0  0  0  0  0  0  0  0  0  0
    2.0253   -2.8774   -3.2090 H   0  0  0  0  0  0  0  0  0  0  0  0
    1.1453   -1.3412   -3.2182 H   0  0  0  0  0  0  0  0  0  0  0  0
    0.2653   -2.8774   -3.2090 H   0  0  0  0  0  0  0  0  0  0  0  0
  1  2  1  0
  1  4  1  0
  2  3  2  3
  3  5  1  0
  3 10  1  0
  6  7  3  0
  6 11  1  0
  7  8  1  0
  8  9  1  0
  8 12  1  0
  9 13  1  0
  9 14  1  0
  9 15  1  0
M  RAD  1   8   2
M  END
>  <reaction>  (26) 
rmg_rxn_15497

>  <mol_properties>  (26) 
{"1": {"label": "*4", "atom_type": "N3d"}, "2": {"label": "*3", "atom_type": "Cd"}, "5": {"label": "*1", "atom_type": "Cd"}, "6": {"label": "*0", "atom_type": "Cdd"}, "9": {"label": "*2", "atom_type": "H0"}}

>  <type>  (26) 
unop_22

>  <geom_source>  (26) 
Heuristics

$$$$

     RDKit          3D

 15 13  0  0  0  0  0  0  0  0999 V2000
   -2.8722    1.5152    1.2855 O   0  0  0  0  0  0  0  0  0  0  0  0
   -1.7524    0.8520    0.8237 N   0  0  0  0  0  0  0  0  0  0  0  0
   -0.6845    1.4062    1.2059 C   0  0  0  0  0  0  0  0  0  0  0  0
   -3.5983    0.9994    0.9292 H   0  0  0  0  0  0  0  0  0  0  0  0
   -0.6769    2.3002    1.8257 H   0  0  0  0  0  0  0  0  0  0  0  0
    1.5390    0.3023    0.4366 C   0  0  0  0  0  0  0  0  0  0  0  0
    1.5390   -0.7663   -0.3041 C   0  0  0  0  0  0  0  0  0  0  0  0
    1.5390   -1.8347   -1.0448 C   0  0  0  0  0  3  0  0  0  0  0  0
    1.5390   -1.8347   -2.5469 C   0  0  0  0  0  0  0  0  0  0  0  0
    0.4261    0.8548    0.8217 H   0  0  0  0  0  0  0  0  0  0  0  0
    2.4665    0.7627    0.7575 H   0  0  0  0  0  0  0  0  0  0  0  0
    1.5479   -2.7998   -0.5454 H   0  0  0  0  0  0  0  0  0  0  0  0
    2.4190   -2.3553   -2.9315 H   0  0  0  0  0  0  0  0  0  0  0  0
    1.5390   -0.8192   -2.9406 H   0  0  0  0  0  0  0  0  0  0  0  0
    0.6591   -2.3553   -2.9315 H   0  0  0  0  0  0  0  0  0  0  0  0
  1  2  1  0
  1  4  1  0
  2  3  2  3
  3  5  1  0
  3 10  1  0
  6  7  3  0
  6 11  1  0
  7  8  1  0
  8  9  1  0
  8 12  1  0
  9 13  1  0
  9 14  1  0
  9 15  1  0
M  RAD  1   8   2
M  END
>  <reaction>  (27) 
rmg_rxn_15497

>  <mol_properties>  (27) 
{"1": {"label": "*4", "atom_type": "N3d"}, "2": {"label": "*3", "atom_type": "Cd"}, "5": {"label": "*1", "atom_type": "Cd"}, "6": {"label": "*0", "atom_type": "Cdd"}, "9": {"label": "*2", "atom_type": "H0"}}

>  <type>  (27) 
unop_23

>  <geom_source>  (27) 
Heuristics

$$$$

     RDKit          3D

 15 13  0  0  0  0  0  0  0  0999 V2000
   -3.7639    0.4728   -0.0172 O   0  0  0  0  0  0  0  0  0  0  0  0
   -2.5449   -0.2064    0.1536 N   0  0  0  0  0  0  0  0  0  0  0  0
   -1.4923    0.3405   -0.2129 C   0  0  0  0  0  0  0  0  0  0  0  0
   -4.4294   -0.1354    0.3327 H   0  0  0  0  0  0  0  0  0  0  0  0
   -1.3581    1.3147   -0.6688 H   0  0  0  0  0  0  0  0  0  0  0  0
    0.6155   -1.1353    0.2223 C   0  0  0  0  0  0  0  0  0  0  0  0
    1.7340   -0.6705   -0.1045 C   0  0  0  0  0  0  0  0  0  0  0  0
    2.8055    0.0068   -0.5045 C   0  0  0  0  0  3  0  0  0  0  0  0
    3.5981    0.8977    0.3906 C   0  0  0  0  0  0  0  0  0  0  0  0
   -0.4535   -0.3557   -0.0143 H   0  0  0  0  0  0  0  0  0  0  0  0
    0.2316   -2.0283    0.6564 H   0  0  0  0  0  0  0  0  0  0  0  0
    3.1759   -0.1367   -1.5104 H   0  0  0  0  0  0  0  0  0  0  0  0
    4.6171    0.5219    0.4997 H   0  0  0  0  0  0  0  0  0  0  0  0
    3.1404    0.9673    1.3743 H   0  0  0  0  0  0  0  0  0  0  0  0
    3.6648    1.8978   -0.0411 H   0  0  0  0  0  0  0  0  0  0  0  0
  1  2  1  0
  1  4  1  0
  2  3  2  3
  3  5  1  0
  3 10  1  0
  6  7  3  0
  6 11  1  0
  7  8  1  0
  8  9  1  0
  8 12  1  0
  9 13  1  0
  9 14  1  0
  9 15  1  0
M  RAD  1   8   2
M  END
>  <reaction>  (28) 
rmg_rxn_15497

>  <mol_properties>  (28) 
{"1": {"label": "*4", "atom_type": "N3d"}, "2": {"label": "*3", "atom_type": "Cd"}, "5": {"label": "*1", "atom_type": "Cd"}, "6": {"label": "*0", "atom_type": "Cdd"}, "9": {"label": "*2", "atom_type": "H0"}}

>  <type>  (28) 
unop_24

>  <geom_source>  (28) 
Heuristics

$$$$

     RDKit          3D

 15 13  0  0  0  0  0  0  0  0999 V2000
    2.6548    1.7050   -0.8713 O   0  0  0  0  0  0  0  0  0  0  0  0
    3.0598    0.4845   -1.3679 N   0  0  0  0  0  0  0  0  0  0  0  0
   -2.9400   -0.0792    0.3780 C   0  0  0  0  0  0  0  0  0  0  0  0
   -1.6224    0.6199    0.4324 C   0  0  0  0  0  3  0  0  0  0  0  0
    2.6756   -0.6278   -0.8306 C   0  0  0  0  0  0  0  0  0  0  0  0
   -0.5143   -0.0603    0.5422 C   0  0  0  0  0  0  0  0  0  0  0  0
    0.5915   -0.7399    0.6518 C   0  0  0  0  0  0  0  0  0  0  0  0
   -2.9740   -0.7588   -0.4999 H   0  0  0  0  0  0  0  0  0  0  0  0
   -3.7558    0.6678    0.2847 H   0  0  0  0  0  0  0  0  0  0  0  0
   -3.0970   -0.6676    1.3069 H   0  0  0  0  0  0  0  0  0  0  0  0
   -1.5809    1.7000    0.3807 H   0  0  0  0  0  0  0  0  0  0  0  0
    3.0114   -1.5687   -1.2444 H   0  0  0  0  0  0  0  0  0  0  0  0
    1.8911   -0.6288    0.2003 H   0  0  0  0  0  0  0  0  0  0  0  0
    2.0411    1.7734   -0.0669 H   0  0  0  0  0  0  0  0  0  0  0  0
    0.5591   -1.8195    0.7041 H   0  0  0  0  0  0  0  0  0  0  0  0
  1  2  1  0
  1 14  1  0
  2  5  2  3
  3  4  1  0
  3  8  1  0
  3  9  1  0
  3 10  1  0
  4  6  1  0
  4 11  1  0
  5 12  1  0
  5 13  1  0
  6  7  3  0
  7 15  1  0
M  RAD  1   4   2
M  END
>  <reaction>  (29) 
rmg_rxn_15497

>  <mol_properties>  (29) 
{"1": {"label": "*4", "atom_type": "N3d"}, "2": {"label": "*3", "atom_type": "Cd"}, "5": {"label": "*1", "atom_type": "Cd"}, "6": {"label": "*0", "atom_type": "Cdd"}, "9": {"label": "*2", "atom_type": "H0"}}

>  <type>  (29) 
unop_25

>  <geom_source>  (29) 
AutoTST

$$$$

     RDKit          3D

 15 13  0  0  0  0  0  0  0  0999 V2000
   -2.7119    1.3002    1.9038 O   0  0  0  0  0  0  0  0  0  0  0  0
   -1.7216    0.7198    1.1360 N   0  0  0  0  0  0  0  0  0  0  0  0
   -0.7329    1.4892    0.9808 C   0  0  0  0  0  0  0  0  0  0  0  0
   -3.3893    0.6222    1.9418 H   0  0  0  0  0  0  0  0  0  0  0  0
   -0.6925    2.4870    1.4125 H   0  0  0  0  0  0  0  0  0  0  0  0
    1.4907    0.3852    0.2115 C   0  0  0  0  0  0  0  0  0  0  0  0
    1.4907   -0.6833   -0.5293 C   0  0  0  0  0  0  0  0  0  0  0  0
    1.4907   -1.7517   -1.2700 C   0  0  0  0  0  3  0  0  0  0  0  0
    1.4907   -1.7517   -2.7721 C   0  0  0  0  0  0  0  0  0  0  0  0
    0.3778    0.9377    0.5965 H   0  0  0  0  0  0  0  0  0  0  0  0
    2.4181    0.8457    0.5324 H   0  0  0  0  0  0  0  0  0  0  0  0
    1.4996   -2.7168   -0.7705 H   0  0  0  0  0  0  0  0  0  0  0  0
    2.3707   -2.2723   -3.1566 H   0  0  0  0  0  0  0  0  0  0  0  0
    1.4907   -0.7362   -3.1658 H   0  0  0  0  0  0  0  0  0  0  0  0
    0.6108   -2.2723   -3.1566 H   0  0  0  0  0  0  0  0  0  0  0  0
  1  2  1  0
  1  4  1  0
  2  3  2  3
  3  5  1  0
  3 10  1  0
  6  7  3  0
  6 11  1  0
  7  8  1  0
  8  9  1  0
  8 12  1  0
  9 13  1  0
  9 14  1  0
  9 15  1  0
M  RAD  1   8   2
M  END
>  <reaction>  (30) 
rmg_rxn_15497

>  <mol_properties>  (30) 
{"1": {"label": "*4", "atom_type": "N3d"}, "2": {"label": "*3", "atom_type": "Cd"}, "5": {"label": "*1", "atom_type": "Cd"}, "6": {"label": "*0", "atom_type": "Cdd"}, "9": {"label": "*2", "atom_type": "H0"}}

>  <type>  (30) 
unop_26

>  <geom_source>  (30) 
gaussian_log

$$$$
