
     RDKit          3D

  9  8  0  0  0  0  0  0  0  0999 V2000
   -1.0314    0.2323   -0.1227 C   0  0  0  0  0  0  0  0  0  0  0  0
    0.3094   -0.4511    0.0063 C   0  0  0  0  0  0  0  0  0  0  0  0
    0.3197   -1.7698    0.6841 N   0  0  0  0  0  0  0  0  0  0  0  0
   -0.7498   -2.1455    1.0557 O   0  0  0  0  0  0  0  0  0  0  0  0
   -1.4744    0.4198    0.8552 H   0  0  0  0  0  0  0  0  0  0  0  0
   -0.9073    1.1865   -0.6350 H   0  0  0  0  0  0  0  0  0  0  0  0
   -1.7319   -0.3778   -0.6927 H   0  0  0  0  0  0  0  0  0  0  0  0
    1.0375    0.1401    0.5713 H   0  0  0  0  0  0  0  0  0  0  0  0
    0.7826   -0.6494   -0.9609 H   0  0  0  0  0  0  0  0  0  0  0  0
  1  2  1  0
  1  5  1  0
  1  6  1  0
  1  7  1  0
  2  3  1  0
  2  8  1  0
  2  9  1  0
  3  4  2  0
M  END
>  <reaction>  (1) 
rmg_rxn_312

>  <mol_properties>  (1) 
{"0": {"label": "donator", "atom_type": "Cs"}, "4": {"label": "d_hydrogen", "atom_type": "H0"}}

>  <type>  (1) 
r1h

$$$$

     RDKit          3D

 11 10  0  0  0  0  0  0  0  0999 V2000
   -1.2230    0.3768   -0.0849 C   0  0  0  0  0  0  0  0  0  0  0  0
   -0.0734   -0.5533    0.2746 C   0  0  0  0  0  0  0  0  0  0  0  0
   -0.0853   -1.8426   -0.5372 C   0  0  0  0  0  0  0  0  0  0  0  0
    0.0319   -1.6944   -1.8815 O   0  0  0  0  0  1  0  0  0  0  0  0
   -2.1874   -0.0885    0.1341 H   0  0  0  0  0  0  0  0  0  0  0  0
   -1.1670    1.3099    0.4765 H   0  0  0  0  0  0  0  0  0  0  0  0
   -1.2014    0.6189   -1.1483 H   0  0  0  0  0  0  0  0  0  0  0  0
    0.8834   -0.0518    0.1071 H   0  0  0  0  0  0  0  0  0  0  0  0
   -0.1104   -0.8149    1.3362 H   0  0  0  0  0  0  0  0  0  0  0  0
    0.6767   -2.5604   -0.1861 H   0  0  0  0  0  0  0  0  0  0  0  0
   -1.0401   -2.3871   -0.3877 H   0  0  0  0  0  0  0  0  0  0  0  0
  1  2  1  0
  1  5  1  0
  1  6  1  0
  1  7  1  0
  2  3  1  0
  2  8  1  0
  2  9  1  0
  3  4  1  0
  3 10  1  0
  3 11  1  0
M  RAD  1   4   2
M  END
>  <reaction>  (2) 
rmg_rxn_312

>  <mol_properties>  (2) 
{"3": {"label": "acceptor", "atom_type": "O2s"}}

>  <type>  (2) 
r2

$$$$

     RDKit          3D

 12 11  0  0  0  0  0  0  0  0999 V2000
   -1.4643   -0.2505   -0.5284 C   0  0  0  0  0  0  0  0  0  0  0  0
   -0.3946    0.4302    0.3143 C   0  0  0  0  0  0  0  0  0  0  0  0
   -0.5959    0.2382    1.8102 C   0  0  0  0  0  0  0  0  0  0  0  0
   -0.5633   -1.1190    2.2092 O   0  0  0  0  0  0  0  0  0  0  0  0
   -2.4511    0.1644   -0.3109 H   0  0  0  0  0  0  0  0  0  0  0  0
   -1.5019   -1.3198   -0.3181 H   0  0  0  0  0  0  0  0  0  0  0  0
   -1.2720   -0.1182   -1.5941 H   0  0  0  0  0  0  0  0  0  0  0  0
    0.5965    0.0515    0.0385 H   0  0  0  0  0  0  0  0  0  0  0  0
   -0.3776    1.5047    0.1078 H   0  0  0  0  0  0  0  0  0  0  0  0
   -1.5821    0.6048    2.1034 H   0  0  0  0  0  0  0  0  0  0  0  0
    0.1495    0.8220    2.3649 H   0  0  0  0  0  0  0  0  0  0  0  0
    0.3017   -1.4750    1.9997 H   0  0  0  0  0  0  0  0  0  0  0  0
  1  2  1  0
  1  5  1  0
  1  6  1  0
  1  7  1  0
  2  3  1  0
  2  8  1  0
  2  9  1  0
  3  4  1  0
  3 10  1  0
  3 11  1  0
  4 12  1  0
M  END
>  <reaction>  (3) 
rmg_rxn_312

>  <mol_properties>  (3) 
{"0": {"label": "a_hydrogen", "atom_type": "H0"}, "4": {"label": "acceptor", "atom_type": "O2s"}}

>  <type>  (3) 
r2h

$$$$

     RDKit          3D

 20 18  0  0  0  0  0  0  0  0999 V2000
    0.4482    0.6700    1.6999 C   0  0  0  0  0  3  0  0  0  0  0  0
    0.5573   -0.7958    1.9723 C   0  0  0  0  0  0  0  0  0  0  0  0
    1.2571   -1.6226    0.9558 N   0  0  0  0  0  0  0  0  0  0  0  0
    1.7610   -1.0061    0.0694 O   0  0  0  0  0  0  0  0  0  0  0  0
   -0.4727    0.7924    0.8238 H   0  0  0  0  0  0  0  0  0  0  0  0
    0.0562    1.2386    2.5396 H   0  0  0  0  0  0  0  0  0  0  0  0
    1.3329    1.1210    1.2583 H   0  0  0  0  0  0  0  0  0  0  0  0
   -0.4171   -1.2770    2.0974 H   0  0  0  0  0  0  0  0  0  0  0  0
    1.1096   -1.0116    2.8968 H   0  0  0  0  0  0  0  0  0  0  0  0
   -0.2729    0.1022   -2.6587 C   0  0  0  0  0  0  0  0  0  0  0  0
    0.0927    1.3620   -1.8878 C   0  0  0  0  0  0  0  0  0  0  0  0
   -1.0091    1.8260   -0.9459 C   0  0  0  0  0  0  0  0  0  0  0  0
   -1.3830    0.8812    0.0144 O   0  0  0  0  0  0  0  0  0  0  0  0
   -1.1457    0.2711   -3.2944 H   0  0  0  0  0  0  0  0  0  0  0  0
    0.5508   -0.2220   -3.2956 H   0  0  0  0  0  0  0  0  0  0  0  0
   -0.5105   -0.7126   -1.9745 H   0  0  0  0  0  0  0  0  0  0  0  0
    1.0011    1.1868   -1.3049 H   0  0  0  0  0  0  0  0  0  0  0  0
    0.3145    2.1804   -2.5796 H   0  0  0  0  0  0  0  0  0  0  0  0
   -0.7376    2.7791   -0.4725 H   0  0  0  0  0  0  0  0  0  0  0  0
   -1.9312    2.0134   -1.5138 H   0  0  0  0  0  0  0  0  0  0  0  0
  1  2  1  0
  1  6  1  0
  1  7  1  0
  2  3  1  0
  2  8  1  0
  2  9  1  0
  3  4  2  0
  5 13  1  0
 10 11  1  0
 10 14  1  0
 10 15  1  0
 10 16  1  0
 11 12  1  0
 11 17  1  0
 11 18  1  0
 12 13  1  0
 12 19  1  0
 12 20  1  0
M  RAD  1   1   2
M  END
>  <reaction>  (4) 
rmg_rxn_312

>  <mol_properties>  (4) 
{"0": {"label": "*3", "atom_type": "Cs"}, "1": {"label": "*4", "atom_type": "Cs"}, "4": {"label": "*2", "atom_type": "H0"}, "11": {"label": "*0", "atom_type": "Cs"}, "12": {"label": "*1", "atom_type": "O2s"}}

>  <type>  (4) 
ts

$$$$

     RDKit          3D

 20 18  0  0  0  0  0  0  0  0999 V2000
    0.9104    0.0191    0.5469 C   0  0  0  0  0  3  0  0  0  0  0  0
    0.9104   -1.1579    1.4936 C   0  0  0  0  0  0  0  0  0  0  0  0
    0.9104   -2.5060    0.8764 N   0  0  0  0  0  0  0  0  0  0  0  0
    0.9104   -2.5060   -0.3166 O   0  0  0  0  0  0  0  0  0  0  0  0
   -0.1457    0.0063   -0.2242 H   0  0  0  0  0  0  0  0  0  0  0  0
    0.9104    0.9475    1.1183 H   0  0  0  0  0  0  0  0  0  0  0  0
    1.7906    0.0085   -0.0957 H   0  0  0  0  0  0  0  0  0  0  0  0
    0.0392   -1.1728    2.1567 H   0  0  0  0  0  0  0  0  0  0  0  0
    1.7816   -1.1728    2.1567 H   0  0  0  0  0  0  0  0  0  0  0  0
    0.2207    2.7117   -0.8497 C   0  0  0  0  0  0  0  0  0  0  0  0
   -0.9811    2.2823   -0.0195 C   0  0  0  0  0  0  0  0  0  0  0  0
   -1.8054    1.1860   -0.6783 C   0  0  0  0  0  0  0  0  0  0  0  0
   -1.0747   -0.0049   -0.9025 O   0  0  0  0  0  0  0  0  0  0  0  0
   -0.0987    3.1234   -1.8098 H   0  0  0  0  0  0  0  0  0  0  0  0
    0.8047    3.4757   -0.3345 H   0  0  0  0  0  0  0  0  0  0  0  0
    0.8738    1.8630   -1.0551 H   0  0  0  0  0  0  0  0  0  0  0  0
   -0.6503    1.9335    0.9656 H   0  0  0  0  0  0  0  0  0  0  0  0
   -1.6377    3.1378    0.1656 H   0  0  0  0  0  0  0  0  0  0  0  0
   -2.7018    0.9823   -0.0792 H   0  0  0  0  0  0  0  0  0  0  0  0
   -2.1395    1.5133   -1.6653 H   0  0  0  0  0  0  0  0  0  0  0  0
  1  2  1  0
  1  6  1  0
  1  7  1  0
  2  3  1  0
  2  8  1  0
  2  9  1  0
  3  4  2  0
  5 13  1  0
 10 11  1  0
 10 14  1  0
 10 15  1  0
 10 16  1  0
 11 12  1  0
 11 17  1  0
 11 18  1  0
 12 13  1  0
 12 19  1  0
 12 20  1  0
M  RAD  1   1   2
M  END
>  <reaction>  (5) 
rmg_rxn_312

>  <mol_properties>  (5) 
{"0": {"label": "*3", "atom_type": "Cs"}, "1": {"label": "*4", "atom_type": "Cs"}, "4": {"label": "*2", "atom_type": "H0"}, "11": {"label": "*0", "atom_type": "Cs"}, "12": {"label": "*1", "atom_type": "O2s"}}

>  <type>  (5) 
unop_1

>  <geom_source>  (5) 
Heuristics

$$$$

     RDKit          3D

 20 18  0  0  0  0  0  0  0  0999 V2000
    1.4368    0.7201    0.0428 C   0  0  0  0  0  3  0  0  0  0  0  0
    1.4368   -0.4569    0.9896 C   0  0  0  0  0  0  0  0  0  0  0  0
    1.4368   -1.8050    0.3723 N   0  0  0  0  0  0  0  0  0  0  0  0
    1.4368   -1.8050   -0.8207 O   0  0  0  0  0  0  0  0  0  0  0  0
    0.3806    0.7073   -0.7283 H   0  0  0  0  0  0  0  0  0  0  0  0
    1.4368    1.6485    0.6143 H   0  0  0  0  0  0  0  0  0  0  0  0
    2.3169    0.7095   -0.5997 H   0  0  0  0  0  0  0  0  0  0  0  0
    0.5656   -0.4718    1.6526 H   0  0  0  0  0  0  0  0  0  0  0  0
    2.3080   -0.4718    1.6526 H   0  0  0  0  0  0  0  0  0  0  0  0
   -1.9150    1.9994    0.9375 C   0  0  0  0  0  0  0  0  0  0  0  0
   -1.6872    0.5048    0.7581 C   0  0  0  0  0  0  0  0  0  0  0  0
   -1.6088    0.0799   -0.7008 C   0  0  0  0  0  0  0  0  0  0  0  0
   -0.5484    0.6961   -1.4065 O   0  0  0  0  0  0  0  0  0  0  0  0
   -2.8661    2.3024    0.4936 H   0  0  0  0  0  0  0  0  0  0  0  0
   -1.9355    2.2725    1.9935 H   0  0  0  0  0  0  0  0  0  0  0  0
   -1.1258    2.5734    0.4512 H   0  0  0  0  0  0  0  0  0  0  0  0
   -0.7633    0.2034    1.2652 H   0  0  0  0  0  0  0  0  0  0  0  0
   -2.4938   -0.0604    1.2349 H   0  0  0  0  0  0  0  0  0  0  0  0
   -1.5339   -1.0128   -0.7676 H   0  0  0  0  0  0  0  0  0  0  0  0
   -2.5197    0.3776   -1.2250 H   0  0  0  0  0  0  0  0  0  0  0  0
  1  2  1  0
  1  6  1  0
  1  7  1  0
  2  3  1  0
  2  8  1  0
  2  9  1  0
  3  4  2  0
  5 13  1  0
 10 11  1  0
 10 14  1  0
 10 15  1  0
 10 16  1  0
 11 12  1  0
 11 17  1  0
 11 18  1  0
 12 13  1  0
 12 19  1  0
 12 20  1  0
M  RAD  1   1   2
M  END
>  <reaction>  (6) 
rmg_rxn_312

>  <mol_properties>  (6) 
{"0": {"label": "*3", "atom_type": "Cs"}, "1": {"label": "*4", "atom_type": "Cs"}, "4": {"label": "*2", "atom_type": "H0"}, "11": {"label": "*0", "atom_type": "Cs"}, "12": {"label": "*1", "atom_type": "O2s"}}

>  <type>  (6) 
unop_2

>  <geom_source>  (6) 
Heuristics

$$$$

     RDKit          3D

 20 18  0  0  0  0  0  0  0  0999 V2000
    0.6897    0.1146    0.9528 C   0  0  0  0  0  3  0  0  0  0  0  0
    0.6897   -1.0623    1.8995 C   0  0  0  0  0  0  0  0  0  0  0  0
    0.6897   -2.4105    1.2822 N   0  0  0  0  0  0  0  0  0  0  0  0
    0.6897   -2.4105    0.0893 O   0  0  0  0  0  0  0  0  0  0  0  0
   -0.3665    0.1019    0.1817 H   0  0  0  0  0  0  0  0  0  0  0  0
    0.6897    1.0431    1.5242 H   0  0  0  0  0  0  0  0  0  0  0  0
    1.5698    0.1040    0.3102 H   0  0  0  0  0  0  0  0  0  0  0  0
   -0.1815   -1.0772    2.5625 H   0  0  0  0  0  0  0  0  0  0  0  0
    1.5609   -1.0772    2.5625 H   0  0  0  0  0  0  0  0  0  0  0  0
    0.6102    1.9377   -1.9170 C   0  0  0  0  0  0  0  0  0  0  0  0
   -0.4183    2.3508   -0.8732 C   0  0  0  0  0  0  0  0  0  0  0  0
   -1.6265    1.4273   -0.8221 C   0  0  0  0  0  0  0  0  0  0  0  0
   -1.2955    0.0907   -0.4966 O   0  0  0  0  0  0  0  0  0  0  0  0
    0.1778    1.9668   -2.9198 H   0  0  0  0  0  0  0  0  0  0  0  0
    1.4750    2.6026   -1.9051 H   0  0  0  0  0  0  0  0  0  0  0  0
    0.9588    0.9203   -1.7371 H   0  0  0  0  0  0  0  0  0  0  0  0
    0.0468    2.3813    0.1189 H   0  0  0  0  0  0  0  0  0  0  0  0
   -0.7735    3.3661   -1.0737 H   0  0  0  0  0  0  0  0  0  0  0  0
   -2.3695    1.8237   -0.1186 H   0  0  0  0  0  0  0  0  0  0  0  0
   -2.1004    1.3793   -1.8051 H   0  0  0  0  0  0  0  0  0  0  0  0
  1  2  1  0
  1  6  1  0
  1  7  1  0
  2  3  1  0
  2  8  1  0
  2  9  1  0
  3  4  2  0
  5 13  1  0
 10 11  1  0
 10 14  1  0
 10 15  1  0
 10 16  1  0
 11 12  1  0
 11 17  1  0
 11 18  1  0
 12 13  1  0
 12 19  1  0
 12 20  1  0
M  RAD  1   1   2
M  END
>  <reaction>  (7) 
rmg_rxn_312

>  <mol_properties>  (7) 
{"0": {"label": "*3", "atom_type": "Cs"}, "1": {"label": "*4", "atom_type": "Cs"}, "4": {"label": "*2", "atom_type": "H0"}, "11": {"label": "*0", "atom_type": "Cs"}, "12": {"label": "*1", "atom_type": "O2s"}}

>  <type>  (7) 
unop_3

>  <geom_source>  (7) 
Heuristics

$$$$

     RDKit          3D

 20 18  0  0  0  0  0  0  0  0999 V2000
    1.3878    1.4536    0.8002 C   0  0  0  0  0  3  0  0  0  0  0  0
    1.3878    0.2766    1.7469 C   0  0  0  0  0  0  0  0  0  0  0  0
    1.3878   -1.0716    1.1297 N   0  0  0  0  0  0  0  0  0  0  0  0
    1.3878   -1.0716   -0.0633 O   0  0  0  0  0  0  0  0  0  0  0  0
    0.3317    1.4408    0.0291 H   0  0  0  0  0  0  0  0  0  0  0  0
    1.3878    2.3820    1.3716 H   0  0  0  0  0  0  0  0  0  0  0  0
    2.2680    1.4429    0.1576 H   0  0  0  0  0  0  0  0  0  0  0  0
    0.5166    0.2617    2.4100 H   0  0  0  0  0  0  0  0  0  0  0  0
    2.2590    0.2617    2.4100 H   0  0  0  0  0  0  0  0  0  0  0  0
   -2.9134   -0.4929   -0.6717 C   0  0  0  0  0  0  0  0  0  0  0  0
   -1.4428   -0.8694   -0.7873 C   0  0  0  0  0  0  0  0  0  0  0  0
   -0.5875    0.2301   -1.3996 C   0  0  0  0  0  0  0  0  0  0  0  0
   -0.5973    1.4296   -0.6492 O   0  0  0  0  0  0  0  0  0  0  0  0
   -3.3435   -0.3033   -1.6578 H   0  0  0  0  0  0  0  0  0  0  0  0
   -3.4902   -1.2907   -0.2017 H   0  0  0  0  0  0  0  0  0  0  0  0
   -3.0365    0.4134   -0.0779 H   0  0  0  0  0  0  0  0  0  0  0  0
   -1.0419   -1.1211    0.2014 H   0  0  0  0  0  0  0  0  0  0  0  0
   -1.3300   -1.7696   -1.3991 H   0  0  0  0  0  0  0  0  0  0  0  0
    0.4395   -0.1302   -1.5390 H   0  0  0  0  0  0  0  0  0  0  0  0
   -0.9757    0.4991   -2.3845 H   0  0  0  0  0  0  0  0  0  0  0  0
  1  2  1  0
  1  6  1  0
  1  7  1  0
  2  3  1  0
  2  8  1  0
  2  9  1  0
  3  4  2  0
  5 13  1  0
 10 11  1  0
 10 14  1  0
 10 15  1  0
 10 16  1  0
 11 12  1  0
 11 17  1  0
 11 18  1  0
 12 13  1  0
 12 19  1  0
 12 20  1  0
M  RAD  1   1   2
M  END
>  <reaction>  (8) 
rmg_rxn_312

>  <mol_properties>  (8) 
{"0": {"label": "*3", "atom_type": "Cs"}, "1": {"label": "*4", "atom_type": "Cs"}, "4": {"label": "*2", "atom_type": "H0"}, "11": {"label": "*0", "atom_type": "Cs"}, "12": {"label": "*1", "atom_type": "O2s"}}

>  <type>  (8) 
unop_4

>  <geom_source>  (8) 
Heuristics

$$$$

     RDKit          3D

 20 18  0  0  0  0  0  0  0  0999 V2000
    0.6690    0.5241    1.3494 C   0  0  0  0  0  3  0  0  0  0  0  0
    0.6690   -0.6528    2.2962 C   0  0  0  0  0  0  0  0  0  0  0  0
    0.6690   -2.0010    1.6789 N   0  0  0  0  0  0  0  0  0  0  0  0
    0.6690   -2.0010    0.4859 O   0  0  0  0  0  0  0  0  0  0  0  0
   -0.3871    0.5114    0.5783 H   0  0  0  0  0  0  0  0  0  0  0  0
    0.6690    1.4526    1.9209 H   0  0  0  0  0  0  0  0  0  0  0  0
    1.5492    0.5135    0.7069 H   0  0  0  0  0  0  0  0  0  0  0  0
   -0.2022   -0.6677    2.9592 H   0  0  0  0  0  0  0  0  0  0  0  0
    1.5402   -0.6677    2.9592 H   0  0  0  0  0  0  0  0  0  0  0  0
   -0.0037    0.4079   -2.8073 C   0  0  0  0  0  0  0  0  0  0  0  0
   -0.0429    1.6129   -1.8776 C   0  0  0  0  0  0  0  0  0  0  0  0
   -1.2554    1.6233   -0.9585 C   0  0  0  0  0  0  0  0  0  0  0  0
   -1.3161    0.5002   -0.0999 O   0  0  0  0  0  0  0  0  0  0  0  0
   -0.8723    0.4012   -3.4697 H   0  0  0  0  0  0  0  0  0  0  0  0
    0.8926    0.4171   -3.4292 H   0  0  0  0  0  0  0  0  0  0  0  0
   -0.0152   -0.5221   -2.2381 H   0  0  0  0  0  0  0  0  0  0  0  0
    0.8660    1.6433   -1.2656 H   0  0  0  0  0  0  0  0  0  0  0  0
   -0.0484    2.5394   -2.4597 H   0  0  0  0  0  0  0  0  0  0  0  0
   -1.2759    2.5546   -0.3785 H   0  0  0  0  0  0  0  0  0  0  0  0
   -2.1723    1.5873   -1.5510 H   0  0  0  0  0  0  0  0  0  0  0  0
  1  2  1  0
  1  6  1  0
  1  7  1  0
  2  3  1  0
  2  8  1  0
  2  9  1  0
  3  4  2  0
  5 13  1  0
 10 11  1  0
 10 14  1  0
 10 15  1  0
 10 16  1  0
 11 12  1  0
 11 17  1  0
 11 18  1  0
 12 13  1  0
 12 19  1  0
 12 20  1  0
M  RAD  1   1   2
M  END
>  <reaction>  (9) 
rmg_rxn_312

>  <mol_properties>  (9) 
{"0": {"label": "*3", "atom_type": "Cs"}, "1": {"label": "*4", "atom_type": "Cs"}, "4": {"label": "*2", "atom_type": "H0"}, "11": {"label": "*0", "atom_type": "Cs"}, "12": {"label": "*1", "atom_type": "O2s"}}

>  <type>  (9) 
unop_5

>  <geom_source>  (9) 
Heuristics

$$$$

     RDKit          3D

 20 18  0  0  0  0  0  0  0  0999 V2000
    1.2228    1.3990    1.1171 C   0  0  0  0  0  3  0  0  0  0  0  0
    1.2228    0.2220    2.0638 C   0  0  0  0  0  0  0  0  0  0  0  0
    1.2228   -1.1262    1.4465 N   0  0  0  0  0  0  0  0  0  0  0  0
    1.2228   -1.1262    0.2535 O   0  0  0  0  0  0  0  0  0  0  0  0
    0.1666    1.3862    0.3459 H   0  0  0  0  0  0  0  0  0  0  0  0
    1.2228    2.3274    1.6885 H   0  0  0  0  0  0  0  0  0  0  0  0
    2.1029    1.3883    0.4745 H   0  0  0  0  0  0  0  0  0  0  0  0
    0.3516    0.2071    2.7268 H   0  0  0  0  0  0  0  0  0  0  0  0
    2.0940    0.2071    2.7268 H   0  0  0  0  0  0  0  0  0  0  0  0
   -2.5849   -0.7410   -1.4554 C   0  0  0  0  0  0  0  0  0  0  0  0
   -1.0638   -0.7516   -1.5180 C   0  0  0  0  0  0  0  0  0  0  0  0
   -0.4522    0.6415   -1.5019 C   0  0  0  0  0  0  0  0  0  0  0  0
   -0.7624    1.3750   -0.3323 O   0  0  0  0  0  0  0  0  0  0  0  0
   -3.0049   -0.2277   -2.3234 H   0  0  0  0  0  0  0  0  0  0  0  0
   -2.9872   -1.7549   -1.4380 H   0  0  0  0  0  0  0  0  0  0  0  0
   -2.9331   -0.2199   -0.5631 H   0  0  0  0  0  0  0  0  0  0  0  0
   -0.6585   -1.3264   -0.6772 H   0  0  0  0  0  0  0  0  0  0  0  0
   -0.7264   -1.2616   -2.4254 H   0  0  0  0  0  0  0  0  0  0  0  0
    0.6344    0.5735   -1.6386 H   0  0  0  0  0  0  0  0  0  0  0  0
   -0.8493    1.2322   -2.3305 H   0  0  0  0  0  0  0  0  0  0  0  0
  1  2  1  0
  1  6  1  0
  1  7  1  0
  2  3  1  0
  2  8  1  0
  2  9  1  0
  3  4  2  0
  5 13  1  0
 10 11  1  0
 10 14  1  0
 10 15  1  0
 10 16  1  0
 11 12  1  0
 11 17  1  0
 11 18  1  0
 12 13  1  0
 12 19  1  0
 12 20  1  0
M  RAD  1   1   2
M  END
>  <reaction>  (10) 
rmg_rxn_312

>  <mol_properties>  (10) 
{"0": {"label": "*3", "atom_type": "Cs"}, "1": {"label": "*4", "atom_type": "Cs"}, "4": {"label": "*2", "atom_type": "H0"}, "11": {"label": "*0", "atom_type": "Cs"}, "12": {"label": "*1", "atom_type": "O2s"}}

>  <type>  (10) 
unop_6

>  <geom_source>  (10) 
Heuristics

$$$$

     RDKit          3D

 20 18  0  0  0  0  0  0  0  0999 V2000
    1.0638    1.2092    1.3418 C   0  0  0  0  0  3  0  0  0  0  0  0
    1.0638    0.0322    2.2885 C   0  0  0  0  0  0  0  0  0  0  0  0
    1.0638   -1.3159    1.6712 N   0  0  0  0  0  0  0  0  0  0  0  0
    1.0638   -1.3159    0.4783 O   0  0  0  0  0  0  0  0  0  0  0  0
    0.0076    1.1964    0.5707 H   0  0  0  0  0  0  0  0  0  0  0  0
    1.0638    2.1376    1.9132 H   0  0  0  0  0  0  0  0  0  0  0  0
    1.9439    1.1986    0.6992 H   0  0  0  0  0  0  0  0  0  0  0  0
    0.1926    0.0173    2.9515 H   0  0  0  0  0  0  0  0  0  0  0  0
    1.9350    0.0173    2.9515 H   0  0  0  0  0  0  0  0  0  0  0  0
   -2.1249   -0.7234   -2.0999 C   0  0  0  0  0  0  0  0  0  0  0  0
   -0.6732   -0.2657   -2.0704 C   0  0  0  0  0  0  0  0  0  0  0  0
   -0.4905    1.1132   -1.4534 C   0  0  0  0  0  0  0  0  0  0  0  0
   -0.9214    1.1852   -0.1076 O   0  0  0  0  0  0  0  0  0  0  0  0
   -2.7317   -0.0486   -2.7081 H   0  0  0  0  0  0  0  0  0  0  0  0
   -2.2151   -1.7262   -2.5199 H   0  0  0  0  0  0  0  0  0  0  0  0
   -2.5490   -0.7340   -1.0954 H   0  0  0  0  0  0  0  0  0  0  0  0
   -0.0645   -0.9869   -1.5128 H   0  0  0  0  0  0  0  0  0  0  0  0
   -0.2635   -0.2422   -3.0848 H   0  0  0  0  0  0  0  0  0  0  0  0
    0.5580    1.4249   -1.5407 H   0  0  0  0  0  0  0  0  0  0  0  0
   -1.0951    1.8457   -1.9928 H   0  0  0  0  0  0  0  0  0  0  0  0
  1  2  1  0
  1  6  1  0
  1  7  1  0
  2  3  1  0
  2  8  1  0
  2  9  1  0
  3  4  2  0
  5 13  1  0
 10 11  1  0
 10 14  1  0
 10 15  1  0
 10 16  1  0
 11 12  1  0
 11 17  1  0
 11 18  1  0
 12 13  1  0
 12 19  1  0
 12 20  1  0
M  RAD  1   1   2
M  END
>  <reaction>  (11) 
rmg_rxn_312

>  <mol_properties>  (11) 
{"0": {"label": "*3", "atom_type": "Cs"}, "1": {"label": "*4", "atom_type": "Cs"}, "4": {"label": "*2", "atom_type": "H0"}, "11": {"label": "*0", "atom_type": "Cs"}, "12": {"label": "*1", "atom_type": "O2s"}}

>  <type>  (11) 
unop_7

>  <geom_source>  (11) 
Heuristics

$$$$

     RDKit          3D

 20 18  0  0  0  0  0  0  0  0999 V2000
    1.1303    0.1515    0.2464 C   0  0  0  0  0  3  0  0  0  0  0  0
    1.1303   -1.0254    1.1931 C   0  0  0  0  0  0  0  0  0  0  0  0
    1.1303   -2.3736    0.5758 N   0  0  0  0  0  0  0  0  0  0  0  0
    1.1303   -2.3736   -0.6171 O   0  0  0  0  0  0  0  0  0  0  0  0
    0.0742    0.1388   -0.5247 H   0  0  0  0  0  0  0  0  0  0  0  0
    1.1303    1.0799    0.8178 H   0  0  0  0  0  0  0  0  0  0  0  0
    2.0105    0.1409   -0.3962 H   0  0  0  0  0  0  0  0  0  0  0  0
    0.2591   -1.0403    1.8562 H   0  0  0  0  0  0  0  0  0  0  0  0
    2.0015   -1.0403    1.8562 H   0  0  0  0  0  0  0  0  0  0  0  0
   -0.4178    2.8488    0.0072 C   0  0  0  0  0  0  0  0  0  0  0  0
   -1.3760    1.7864    0.5279 C   0  0  0  0  0  0  0  0  0  0  0  0
   -1.8858    0.8524   -0.5597 C   0  0  0  0  0  0  0  0  0  0  0  0
   -0.8548    0.1276   -1.2030 O   0  0  0  0  0  0  0  0  0  0  0  0
   -0.9133    3.4933   -0.7226 H   0  0  0  0  0  0  0  0  0  0  0  0
   -0.0493    3.4802    0.8169 H   0  0  0  0  0  0  0  0  0  0  0  0
    0.4397    2.3901   -0.4859 H   0  0  0  0  0  0  0  0  0  0  0  0
   -0.8864    1.1900    1.3065 H   0  0  0  0  0  0  0  0  0  0  0  0
   -2.2404    2.2581    1.0049 H   0  0  0  0  0  0  0  0  0  0  0  0
   -2.6364    0.1691   -0.1428 H   0  0  0  0  0  0  0  0  0  0  0  0
   -2.3724    1.4300   -1.3488 H   0  0  0  0  0  0  0  0  0  0  0  0
  1  2  1  0
  1  6  1  0
  1  7  1  0
  2  3  1  0
  2  8  1  0
  2  9  1  0
  3  4  2  0
  5 13  1  0
 10 11  1  0
 10 14  1  0
 10 15  1  0
 10 16  1  0
 11 12  1  0
 11 17  1  0
 11 18  1  0
 12 13  1  0
 12 19  1  0
 12 20  1  0
M  RAD  1   1   2
M  END
>  <reaction>  (12) 
rmg_rxn_312

>  <mol_properties>  (12) 
{"0": {"label": "*3", "atom_type": "Cs"}, "1": {"label": "*4", "atom_type": "Cs"}, "4": {"label": "*2", "atom_type": "H0"}, "11": {"label": "*0", "atom_type": "Cs"}, "12": {"label": "*1", "atom_type": "O2s"}}

>  <type>  (12) 
unop_8

>  <geom_source>  (12) 
Heuristics

$$$$

     RDKit          3D

 20 18  0  0  0  0  0  0  0  0999 V2000
    1.5093    1.3276    0.4518 C   0  0  0  0  0  3  0  0  0  0  0  0
    1.5093    0.1507    1.3985 C   0  0  0  0  0  0  0  0  0  0  0  0
    1.5093   -1.1975    0.7812 N   0  0  0  0  0  0  0  0  0  0  0  0
    1.5093   -1.1975   -0.4117 O   0  0  0  0  0  0  0  0  0  0  0  0
    0.4532    1.3149   -0.3193 H   0  0  0  0  0  0  0  0  0  0  0  0
    1.5093    2.2561    1.0232 H   0  0  0  0  0  0  0  0  0  0  0  0
    2.3895    1.3170   -0.1908 H   0  0  0  0  0  0  0  0  0  0  0  0
    0.6381    0.1358    2.0615 H   0  0  0  0  0  0  0  0  0  0  0  0
    2.3805    0.1358    2.0615 H   0  0  0  0  0  0  0  0  0  0  0  0
   -3.0005    0.1514    0.1681 C   0  0  0  0  0  0  0  0  0  0  0  0
   -1.6975   -0.6038   -0.0550 C   0  0  0  0  0  0  0  0  0  0  0  0
   -0.8656   -0.0416   -1.1984 C   0  0  0  0  0  0  0  0  0  0  0  0
   -0.4758    1.3037   -0.9976 O   0  0  0  0  0  0  0  0  0  0  0  0
   -3.6398    0.0906   -0.7156 H   0  0  0  0  0  0  0  0  0  0  0  0
   -3.5557   -0.2587    1.0129 H   0  0  0  0  0  0  0  0  0  0  0  0
   -2.8088    1.2066    0.3650 H   0  0  0  0  0  0  0  0  0  0  0  0
   -1.0956   -0.5906    0.8610 H   0  0  0  0  0  0  0  0  0  0  0  0
   -1.9029   -1.6571   -0.2687 H   0  0  0  0  0  0  0  0  0  0  0  0
    0.0126   -0.6772   -1.3682 H   0  0  0  0  0  0  0  0  0  0  0  0
   -1.4516   -0.0410   -2.1201 H   0  0  0  0  0  0  0  0  0  0  0  0
  1  2  1  0
  1  6  1  0
  1  7  1  0
  2  3  1  0
  2  8  1  0
  2  9  1  0
  3  4  2  0
  5 13  1  0
 10 11  1  0
 10 14  1  0
 10 15  1  0
 10 16  1  0
 11 12  1  0
 11 17  1  0
 11 18  1  0
 12 13  1  0
 12 19  1  0
 12 20  1  0
M  RAD  1   1   2
M  END
>  <reaction>  (13) 
rmg_rxn_312

>  <mol_properties>  (13) 
{"0": {"label": "*3", "atom_type": "Cs"}, "1": {"label": "*4", "atom_type": "Cs"}, "4": {"label": "*2", "atom_type": "H0"}, "11": {"label": "*0", "atom_type": "Cs"}, "12": {"label": "*1", "atom_type": "O2s"}}

>  <type>  (13) 
unop_9

>  <geom_source>  (13) 
Heuristics

$$$$

     RDKit          3D

 20 18  0  0  0  0  0  0  0  0999 V2000
    1.3041    0.4077    0.0737 C   0  0  0  0  0  3  0  0  0  0  0  0
    1.3041   -0.7693    1.0204 C   0  0  0  0  0  0  0  0  0  0  0  0
    1.3041   -2.1174    0.4031 N   0  0  0  0  0  0  0  0  0  0  0  0
    1.3041   -2.1174   -0.7898 O   0  0  0  0  0  0  0  0  0  0  0  0
    0.2480    0.3950   -0.6974 H   0  0  0  0  0  0  0  0  0  0  0  0
    1.3041    1.3361    0.6451 H   0  0  0  0  0  0  0  0  0  0  0  0
    2.1843    0.3971   -0.5689 H   0  0  0  0  0  0  0  0  0  0  0  0
    0.4329   -0.7841    1.6834 H   0  0  0  0  0  0  0  0  0  0  0  0
    2.1753   -0.7841    1.6834 H   0  0  0  0  0  0  0  0  0  0  0  0
   -1.1329    2.5862    0.6257 C   0  0  0  0  0  0  0  0  0  0  0  0
   -1.5858    1.1404    0.7756 C   0  0  0  0  0  0  0  0  0  0  0  0
   -1.8328    0.4471   -0.5561 C   0  0  0  0  0  0  0  0  0  0  0  0
   -0.6810    0.3838   -1.3757 O   0  0  0  0  0  0  0  0  0  0  0  0
   -1.8988    3.1821    0.1239 H   0  0  0  0  0  0  0  0  0  0  0  0
   -0.9363    3.0419    1.5972 H   0  0  0  0  0  0  0  0  0  0  0  0
   -0.2226    2.6479    0.0287 H   0  0  0  0  0  0  0  0  0  0  0  0
   -0.8378    0.5703    1.3387 H   0  0  0  0  0  0  0  0  0  0  0  0
   -2.5088    1.0922    1.3613 H   0  0  0  0  0  0  0  0  0  0  0  0
   -2.2402   -0.5570   -0.3840 H   0  0  0  0  0  0  0  0  0  0  0  0
   -2.5722    1.0049   -1.1350 H   0  0  0  0  0  0  0  0  0  0  0  0
  1  2  1  0
  1  6  1  0
  1  7  1  0
  2  3  1  0
  2  8  1  0
  2  9  1  0
  3  4  2  0
  5 13  1  0
 10 11  1  0
 10 14  1  0
 10 15  1  0
 10 16  1  0
 11 12  1  0
 11 17  1  0
 11 18  1  0
 12 13  1  0
 12 19  1  0
 12 20  1  0
M  RAD  1   1   2
M  END
>  <reaction>  (14) 
rmg_rxn_312

>  <mol_properties>  (14) 
{"0": {"label": "*3", "atom_type": "Cs"}, "1": {"label": "*4", "atom_type": "Cs"}, "4": {"label": "*2", "atom_type": "H0"}, "11": {"label": "*0", "atom_type": "Cs"}, "12": {"label": "*1", "atom_type": "O2s"}}

>  <type>  (14) 
unop_10

>  <geom_source>  (14) 
Heuristics

$$$$

     RDKit          3D

 20 18  0  0  0  0  0  0  0  0999 V2000
    0.8914    0.9356    1.4484 C   0  0  0  0  0  3  0  0  0  0  0  0
    0.8915   -0.2414    2.3951 C   0  0  0  0  0  0  0  0  0  0  0  0
    0.8915   -1.5895    1.7779 N   0  0  0  0  0  0  0  0  0  0  0  0
    0.8915   -1.5895    0.5849 O   0  0  0  0  0  0  0  0  0  0  0  0
   -0.1647    0.9228    0.6773 H   0  0  0  0  0  0  0  0  0  0  0  0
    0.8914    1.8640    2.0198 H   0  0  0  0  0  0  0  0  0  0  0  0
    1.7716    0.9250    0.8058 H   0  0  0  0  0  0  0  0  0  0  0  0
    0.0203   -0.2563    3.0582 H   0  0  0  0  0  0  0  0  0  0  0  0
    1.7626   -0.2563    3.0582 H   0  0  0  0  0  0  0  0  0  0  0  0
   -1.3611   -0.5079   -2.6418 C   0  0  0  0  0  0  0  0  0  0  0  0
   -0.2980    0.5232   -2.2890 C   0  0  0  0  0  0  0  0  0  0  0  0
   -0.7541    1.5191   -1.2330 C   0  0  0  0  0  0  0  0  0  0  0  0
   -1.0937    0.9116   -0.0010 O   0  0  0  0  0  0  0  0  0  0  0  0
   -2.2467   -0.0239   -3.0600 H   0  0  0  0  0  0  0  0  0  0  0  0
   -0.9902   -1.2226   -3.3779 H   0  0  0  0  0  0  0  0  0  0  0  0
   -1.6744   -1.0611   -1.7559 H   0  0  0  0  0  0  0  0  0  0  0  0
    0.6084    0.0198   -1.9334 H   0  0  0  0  0  0  0  0  0  0  0  0
   -0.0041    1.0837   -3.1817 H   0  0  0  0  0  0  0  0  0  0  0  0
    0.0166    2.2863   -1.0861 H   0  0  0  0  0  0  0  0  0  0  0  0
   -1.6613    2.0273   -1.5673 H   0  0  0  0  0  0  0  0  0  0  0  0
  1  2  1  0
  1  6  1  0
  1  7  1  0
  2  3  1  0
  2  8  1  0
  2  9  1  0
  3  4  2  0
  5 13  1  0
 10 11  1  0
 10 14  1  0
 10 15  1  0
 10 16  1  0
 11 12  1  0
 11 17  1  0
 11 18  1  0
 12 13  1  0
 12 19  1  0
 12 20  1  0
M  RAD  1   1   2
M  END
>  <reaction>  (15) 
rmg_rxn_312

>  <mol_properties>  (15) 
{"0": {"label": "*3", "atom_type": "Cs"}, "1": {"label": "*4", "atom_type": "Cs"}, "4": {"label": "*2", "atom_type": "H0"}, "11": {"label": "*0", "atom_type": "Cs"}, "12": {"label": "*1", "atom_type": "O2s"}}

>  <type>  (15) 
unop_11

>  <geom_source>  (15) 
Heuristics

$$$$

     RDKit          3D

 20 18  0  0  0  0  0  0  0  0999 V2000
    1.5228    1.0496    0.1714 C   0  0  0  0  0  3  0  0  0  0  0  0
    1.5228   -0.1273    1.1182 C   0  0  0  0  0  0  0  0  0  0  0  0
    1.5228   -1.4755    0.5009 N   0  0  0  0  0  0  0  0  0  0  0  0
    1.5228   -1.4755   -0.6921 O   0  0  0  0  0  0  0  0  0  0  0  0
    0.4666    1.0369   -0.5997 H   0  0  0  0  0  0  0  0  0  0  0  0
    1.5228    1.9781    0.7429 H   0  0  0  0  0  0  0  0  0  0  0  0
    2.4029    1.0390   -0.4712 H   0  0  0  0  0  0  0  0  0  0  0  0
    0.6516   -0.1422    1.7812 H   0  0  0  0  0  0  0  0  0  0  0  0
    2.3940   -0.1422    1.7812 H   0  0  0  0  0  0  0  0  0  0  0  0
   -2.6427    1.1075    0.7957 C   0  0  0  0  0  0  0  0  0  0  0  0
   -1.7502   -0.0872    0.4890 C   0  0  0  0  0  0  0  0  0  0  0  0
   -1.2439   -0.1061   -0.9457 C   0  0  0  0  0  0  0  0  0  0  0  0
   -0.4624    1.0257   -1.2779 O   0  0  0  0  0  0  0  0  0  0  0  0
   -3.5382    1.0929    0.1702 H   0  0  0  0  0  0  0  0  0  0  0  0
   -2.9620    1.1053    1.8389 H   0  0  0  0  0  0  0  0  0  0  0  0
   -2.1187    2.0437    0.6006 H   0  0  0  0  0  0  0  0  0  0  0  0
   -0.8901   -0.0962    1.1686 H   0  0  0  0  0  0  0  0  0  0  0  0
   -2.2917   -1.0203    0.6717 H   0  0  0  0  0  0  0  0  0  0  0  0
   -0.6831   -1.0309   -1.1312 H   0  0  0  0  0  0  0  0  0  0  0  0
   -2.0879   -0.0914   -1.6388 H   0  0  0  0  0  0  0  0  0  0  0  0
  1  2  1  0
  1  6  1  0
  1  7  1  0
  2  3  1  0
  2  8  1  0
  2  9  1  0
  3  4  2  0
  5 13  1  0
 10 11  1  0
 10 14  1  0
 10 15  1  0
 10 16  1  0
 11 12  1  0
 11 17  1  0
 11 18  1  0
 12 13  1  0
 12 19  1  0
 12 20  1  0
M  RAD  1   1   2
M  END
>  <reaction>  (16) 
rmg_rxn_312

>  <mol_properties>  (16) 
{"0": {"label": "*3", "atom_type": "Cs"}, "1": {"label": "*4", "atom_type": "Cs"}, "4": {"label": "*2", "atom_type": "H0"}, "11": {"label": "*0", "atom_type": "Cs"}, "12": {"label": "*1", "atom_type": "O2s"}}

>  <type>  (16) 
unop_12

>  <geom_source>  (16) 
Heuristics

$$$$

     RDKit          3D

 20 18  0  0  0  0  0  0  0  0999 V2000
   -0.1585   -0.4664   -0.1025 O   0  0  0  0  0  0  0  0  0  0  0  0
    4.2921    1.5285    1.5414 O   0  0  0  0  0  0  0  0  0  0  0  0
    4.1943    0.5579    0.8529 N   0  0  0  0  0  0  0  0  0  0  0  0
   -2.4512   -0.7739   -0.7523 C   0  0  0  0  0  0  0  0  0  0  0  0
   -1.1128   -0.1005   -1.0572 C   0  0  0  0  0  0  0  0  0  0  0  0
   -3.0496   -0.2805    0.5634 C   0  0  0  0  0  0  0  0  0  0  0  0
    2.9351   -0.1345    0.7298 C   0  0  0  0  0  0  0  0  0  0  0  0
    1.9236    0.7190   -0.0232 C   0  0  0  0  0  3  0  0  0  0  0  0
   -2.3110   -1.8756   -0.7045 H   0  0  0  0  0  0  0  0  0  0  0  0
   -3.1632   -0.5518   -1.5763 H   0  0  0  0  0  0  0  0  0  0  0  0
   -0.7661   -0.4236   -2.0626 H   0  0  0  0  0  0  0  0  0  0  0  0
   -1.2345    1.0049   -1.0637 H   0  0  0  0  0  0  0  0  0  0  0  0
   -3.2099    0.8181    0.5268 H   0  0  0  0  0  0  0  0  0  0  0  0
   -4.0285   -0.7760    0.7341 H   0  0  0  0  0  0  0  0  0  0  0  0
   -2.3770   -0.5256    1.4126 H   0  0  0  0  0  0  0  0  0  0  0  0
    3.0953   -1.0797    0.1707 H   0  0  0  0  0  0  0  0  0  0  0  0
    2.5401   -0.3837    1.7381 H   0  0  0  0  0  0  0  0  0  0  0  0
    1.7027    1.6519    0.5376 H   0  0  0  0  0  0  0  0  0  0  0  0
    2.3030    0.9685   -1.0370 H   0  0  0  0  0  0  0  0  0  0  0  0
    0.8760    0.1230   -0.4278 H   0  0  0  0  0  0  0  0  0  0  0  0
  1  5  1  0
  1 20  1  0
  2  3  2  0
  3  7  1  0
  4  6  1  0
  4  5  1  0
  4  9  1  0
  4 10  1  0
  5 11  1  0
  5 12  1  0
  6 13  1  0
  6 14  1  0
  6 15  1  0
  7  8  1  0
  7 16  1  0
  7 17  1  0
  8 18  1  0
  8 19  1  0
M  RAD  1   8   2
M  END
>  <reaction>  (17) 
rmg_rxn_312

>  <mol_properties>  (17) 
{"0": {"label": "*3", "atom_type": "Cs"}, "1": {"label": "*4", "atom_type": "Cs"}, "4": {"label": "*2", "atom_type": "H0"}, "11": {"label": "*0", "atom_type": "Cs"}, "12": {"label": "*1", "atom_type": "O2s"}}

>  <type>  (17) 
unop_13

>  <geom_source>  (17) 
AutoTST

$$$$

     RDKit          3D

 20 18  0  0  0  0  0  0  0  0999 V2000
    1.4368    0.7201    0.0428 C   0  0  0  0  0  3  0  0  0  0  0  0
    1.4368   -0.4569    0.9896 C   0  0  0  0  0  0  0  0  0  0  0  0
    1.4368   -1.8050    0.3723 N   0  0  0  0  0  0  0  0  0  0  0  0
    1.4368   -1.8050   -0.8207 O   0  0  0  0  0  0  0  0  0  0  0  0
    0.3806    0.7073   -0.7283 H   0  0  0  0  0  0  0  0  0  0  0  0
    1.4368    1.6485    0.6143 H   0  0  0  0  0  0  0  0  0  0  0  0
    2.3169    0.7095   -0.5998 H   0  0  0  0  0  0  0  0  0  0  0  0
    0.5656   -0.4718    1.6526 H   0  0  0  0  0  0  0  0  0  0  0  0
    2.3080   -0.4718    1.6526 H   0  0  0  0  0  0  0  0  0  0  0  0
   -1.9150    1.9994    0.9375 C   0  0  0  0  0  0  0  0  0  0  0  0
   -1.6872    0.5048    0.7581 C   0  0  0  0  0  0  0  0  0  0  0  0
   -1.6088    0.0799   -0.7008 C   0  0  0  0  0  0  0  0  0  0  0  0
   -0.5484    0.6961   -1.4065 O   0  0  0  0  0  0  0  0  0  0  0  0
   -2.8661    2.3024    0.4936 H   0  0  0  0  0  0  0  0  0  0  0  0
   -1.9355    2.2725    1.9935 H   0  0  0  0  0  0  0  0  0  0  0  0
   -1.1258    2.5734    0.4512 H   0  0  0  0  0  0  0  0  0  0  0  0
   -0.7633    0.2034    1.2652 H   0  0  0  0  0  0  0  0  0  0  0  0
   -2.4938   -0.0604    1.2349 H   0  0  0  0  0  0  0  0  0  0  0  0
   -1.5339   -1.0128   -0.7676 H   0  0  0  0  0  0  0  0  0  0  0  0
   -2.5197    0.3776   -1.2250 H   0  0  0  0  0  0  0  0  0  0  0  0
  1  2  1  0
  1  6  1  0
  1  7  1  0
  2  3  1  0
  2  8  1  0
  2  9  1  0
  3  4  2  0
  5 13  1  0
 10 11  1  0
 10 14  1  0
 10 15  1  0
 10 16  1  0
 11 12  1  0
 11 17  1  0
 11 18  1  0
 12 13  1  0
 12 19  1  0
 12 20  1  0
M  RAD  1   1   2
M  END
>  <reaction>  (18) 
rmg_rxn_312

>  <mol_properties>  (18) 
{"0": {"label": "*3", "atom_type": "Cs"}, "1": {"label": "*4", "atom_type": "Cs"}, "4": {"label": "*2", "atom_type": "H0"}, "11": {"label": "*0", "atom_type": "Cs"}, "12": {"label": "*1", "atom_type": "O2s"}}

>  <type>  (18) 
unop_14

>  <geom_source>  (18) 
gaussian_log

$$$$
