
     RDKit          3D

  5  4  0  0  0  0  0  0  0  0999 V2000
   -0.4583    0.0384    0.1517 N   0  0  0  0  0  0  0  0  0  0  0  0
    0.7454   -0.3487    0.5322 N   0  0  0  0  0  0  0  0  0  0  0  0
    0.7566   -1.0388    1.5193 O   0  0  0  0  0  0  0  0  0  0  0  0
   -1.2688   -0.2521    0.6850 H   0  0  0  0  0  0  0  0  0  0  0  0
   -0.5137    0.6154   -0.6670 H   0  0  0  0  0  0  0  0  0  0  0  0
  1  2  1  0
  1  4  1  0
  1  5  1  0
  2  3  2  0
M  END
>  <reaction>  (1) 
rmg_rxn_1563

>  <mol_properties>  (1) 
{"0": {"label": "donator", "atom_type": "N3s"}, "3": {"label": "d_hydrogen", "atom_type": "H0"}}

>  <type>  (1) 
r1h

$$$$

     RDKit          3D

 13 12  0  0  0  0  0  0  0  0999 V2000
    2.4430   -0.3849    0.0540 C   0  0  0  0  0  0  0  0  0  0  0  0
    1.2567   -0.6322    0.5818 C   0  0  0  0  0  0  0  0  0  0  0  0
    0.0753    0.2775    0.5273 C   0  0  0  0  0  0  0  0  0  0  0  0
    0.3842    1.4616   -0.1714 O   0  0  0  0  0  0  0  0  0  0  0  0
   -0.6866    2.3343   -0.3126 C   0  0  0  0  0  0  0  0  0  0  0  0
   -1.2216    2.8361    0.7984 O   0  0  0  0  0  1  0  0  0  0  0  0
    3.2507   -1.0998    0.1431 H   0  0  0  0  0  0  0  0  0  0  0  0
    2.6411    0.5367   -0.4774 H   0  0  0  0  0  0  0  0  0  0  0  0
    1.0785   -1.5620    1.1139 H   0  0  0  0  0  0  0  0  0  0  0  0
   -0.2540    0.5126    1.5468 H   0  0  0  0  0  0  0  0  0  0  0  0
   -0.7614   -0.2409    0.0324 H   0  0  0  0  0  0  0  0  0  0  0  0
   -1.5299    1.8457   -0.8558 H   0  0  0  0  0  0  0  0  0  0  0  0
   -0.3398    3.1546   -0.9632 H   0  0  0  0  0  0  0  0  0  0  0  0
  1  2  2  3
  1  7  1  0
  1  8  1  0
  2  3  1  0
  2  9  1  0
  3  4  1  0
  3 10  1  0
  3 11  1  0
  4  5  1  0
  5  6  1  0
  5 12  1  0
  5 13  1  0
M  RAD  1   6   2
M  END
>  <reaction>  (2) 
rmg_rxn_1563

>  <mol_properties>  (2) 
{"5": {"label": "acceptor", "atom_type": "O2s"}}

>  <type>  (2) 
r2

$$$$

     RDKit          3D

 14 13  0  0  0  0  0  0  0  0999 V2000
   -2.6591   -0.0450    0.7000 C   0  0  0  0  0  0  0  0  0  0  0  0
   -1.3737    0.0499    0.9953 C   0  0  0  0  0  0  0  0  0  0  0  0
   -0.2409   -0.3751    0.1081 C   0  0  0  0  0  0  0  0  0  0  0  0
   -0.6541   -1.0253   -1.0741 O   0  0  0  0  0  0  0  0  0  0  0  0
   -0.8556   -2.4003   -0.9287 C   0  0  0  0  0  0  0  0  0  0  0  0
    0.3393   -3.1125   -0.7901 O   0  0  0  0  0  0  0  0  0  0  0  0
   -2.9891   -0.4550   -0.2467 H   0  0  0  0  0  0  0  0  0  0  0  0
   -3.4198    0.2910    1.3925 H   0  0  0  0  0  0  0  0  0  0  0  0
   -1.0669    0.4739    1.9478 H   0  0  0  0  0  0  0  0  0  0  0  0
    0.4535   -1.0117    0.6689 H   0  0  0  0  0  0  0  0  0  0  0  0
    0.3247    0.5078   -0.2023 H   0  0  0  0  0  0  0  0  0  0  0  0
   -1.4079   -2.7062   -1.8216 H   0  0  0  0  0  0  0  0  0  0  0  0
   -1.4388   -2.6266   -0.0318 H   0  0  0  0  0  0  0  0  0  0  0  0
    0.8543   -2.9921   -1.5911 H   0  0  0  0  0  0  0  0  0  0  0  0
  1  2  2  3
  1  7  1  0
  1  8  1  0
  2  3  1  0
  2  9  1  0
  3  4  1  0
  3 10  1  0
  3 11  1  0
  4  5  1  0
  5  6  1  0
  5 12  1  0
  5 13  1  0
  6 14  1  0
M  END
>  <reaction>  (3) 
rmg_rxn_1563

>  <mol_properties>  (3) 
{"0": {"label": "a_hydrogen", "atom_type": "H0"}, "6": {"label": "acceptor", "atom_type": "O2s"}}

>  <type>  (3) 
r2h

$$$$

     RDKit          3D

 18 16  0  0  0  0  0  0  0  0999 V2000
    0.3160   -2.4005    0.3153 N   0  0  0  0  0  0  0  0  0  0  0  0
    1.4948   -2.8509    0.4966 N   0  0  0  0  0  0  0  0  0  0  0  0
    2.4241   -2.3190   -0.0409 O   0  0  0  0  0  0  0  0  0  0  0  0
    0.1988   -1.4706   -0.3208 H   0  0  0  0  0  0  0  0  0  0  0  0
   -0.4032   -2.8567    0.8557 H   0  0  0  0  0  0  0  0  0  0  0  0
   -0.6635    3.7645    0.4240 C   0  0  0  0  0  0  0  0  0  0  0  0
   -1.6098    2.9031    0.0897 C   0  0  0  0  0  0  0  0  0  0  0  0
   -1.5478    1.4183    0.2976 C   0  0  0  0  0  0  0  0  0  0  0  0
   -0.3053    0.9595    0.7783 O   0  0  0  0  0  0  0  0  0  0  0  0
    0.6443    0.7155   -0.2280 C   0  0  0  0  0  0  0  0  0  0  0  0
    0.3555   -0.3342   -1.0335 O   0  0  0  0  0  1  0  0  0  0  0  0
   -0.7829    4.8253    0.2468 H   0  0  0  0  0  0  0  0  0  0  0  0
    0.2554    3.4350    0.8935 H   0  0  0  0  0  0  0  0  0  0  0  0
   -2.5286    3.2586   -0.3690 H   0  0  0  0  0  0  0  0  0  0  0  0
   -1.8079    0.9021   -0.6351 H   0  0  0  0  0  0  0  0  0  0  0  0
   -2.2997    1.1261    1.0363 H   0  0  0  0  0  0  0  0  0  0  0  0
    1.5991    0.5848    0.2970 H   0  0  0  0  0  0  0  0  0  0  0  0
    0.7424    1.5957   -0.8907 H   0  0  0  0  0  0  0  0  0  0  0  0
  1  2  1  0
  1  4  1  0
  1  5  1  0
  2  3  2  0
  6  7  2  3
  6 12  1  0
  6 13  1  0
  7  8  1  0
  7 14  1  0
  8  9  1  0
  8 15  1  0
  8 16  1  0
  9 10  1  0
 10 11  1  0
 10 17  1  0
 10 18  1  0
M  RAD  1  11   2
M  END
>  <reaction>  (4) 
rmg_rxn_1563

>  <mol_properties>  (4) 
{"0": {"label": "*1", "atom_type": "N3s"}, "1": {"label": "*0", "atom_type": "N3d"}, "3": {"label": "*2", "atom_type": "H0"}, "9": {"label": "*4", "atom_type": "Cs"}, "10": {"label": "*3", "atom_type": "O2s"}}

>  <type>  (4) 
ts

$$$$

     RDKit          3D

 18 16  0  0  0  0  0  0  0  0999 V2000
    1.9726    0.4021   -0.1809 N   0  0  0  0  0  0  0  0  0  0  0  0
    3.1556    0.5370    0.1435 N   0  0  0  0  0  0  0  0  0  0  0  0
    3.9119   -0.2188    0.6758 O   0  0  0  0  0  1  0  0  0  0  0  0
    1.1672   -0.5202   -0.0461 H   0  0  0  0  0  0  0  0  0  0  0  0
    1.5321    1.2058   -0.6226 H   0  0  0  0  0  0  0  0  0  0  0  0
   -3.7458   -0.3609    1.0075 C   0  0  0  0  0  0  0  0  0  0  0  0
   -3.1255    0.3877    0.1156 C   0  0  0  0  0  0  0  0  0  0  0  0
   -1.7102    0.8653    0.2569 C   0  0  0  0  0  0  0  0  0  0  0  0
   -0.9236    0.5613   -0.8898 O   0  0  0  0  0  0  0  0  0  0  0  0
   -0.5955   -0.8083   -0.9960 C   0  0  0  0  0  0  0  0  0  0  0  0
    0.2659   -1.2316   -0.0332 O   0  0  0  0  0  0  0  0  0  0  0  0
   -4.7644   -0.6827    0.8724 H   0  0  0  0  0  0  0  0  0  0  0  0
   -3.2604   -0.6756    1.9169 H   0  0  0  0  0  0  0  0  0  0  0  0
   -3.6136    0.6894   -0.8017 H   0  0  0  0  0  0  0  0  0  0  0  0
   -1.2456    0.4320    1.1516 H   0  0  0  0  0  0  0  0  0  0  0  0
   -1.6902    1.9578    0.3301 H   0  0  0  0  0  0  0  0  0  0  0  0
   -0.1832   -0.9125   -2.0154 H   0  0  0  0  0  0  0  0  0  0  0  0
   -1.5052   -1.4285   -0.9180 H   0  0  0  0  0  0  0  0  0  0  0  0
  1  2  2  3
  1  5  1  0
  2  3  1  0
  4 11  1  0
  6  7  2  3
  6 12  1  0
  6 13  1  0
  7  8  1  0
  7 14  1  0
  8  9  1  0
  8 15  1  0
  8 16  1  0
  9 10  1  0
 10 11  1  0
 10 17  1  0
 10 18  1  0
M  RAD  1   3   2
M  END
>  <reaction>  (5) 
rmg_rxn_1563

>  <mol_properties>  (5) 
{"0": {"label": "*1", "atom_type": "N3s"}, "1": {"label": "*0", "atom_type": "N3d"}, "3": {"label": "*2", "atom_type": "H0"}, "9": {"label": "*4", "atom_type": "Cs"}, "10": {"label": "*3", "atom_type": "O2s"}}

>  <type>  (5) 
unop_1

>  <geom_source>  (5) 
crest_best.xyz

$$$$

     RDKit          3D

 18 16  0  0  0  0  0  0  0  0999 V2000
    1.0913   -1.9070    1.7246 N   0  0  0  0  0  0  0  0  0  0  0  0
    1.0913   -3.1098    1.1798 N   0  0  0  0  0  0  0  0  0  0  0  0
    1.0913   -3.1098   -0.0247 O   0  0  0  0  0  1  0  0  0  0  0  0
    1.0913   -0.9243    1.0093 H   0  0  0  0  0  0  0  0  0  0  0  0
    1.0913   -1.8606    2.7267 H   0  0  0  0  0  0  0  0  0  0  0  0
   -1.8135    3.3593   -0.6403 C   0  0  0  0  0  0  0  0  0  0  0  0
   -1.1308    2.7436   -1.5908 C   0  0  0  0  0  0  0  0  0  0  0  0
   -0.7295    1.2980   -1.5801 C   0  0  0  0  0  0  0  0  0  0  0  0
   -1.0384    0.6282   -0.3772 O   0  0  0  0  0  0  0  0  0  0  0  0
   -0.0590    0.7503    0.6119 C   0  0  0  0  0  0  0  0  0  0  0  0
    1.0913    0.0068    0.3316 O   0  0  0  0  0  0  0  0  0  0  0  0
   -2.0717    4.4068   -0.7242 H   0  0  0  0  0  0  0  0  0  0  0  0
   -2.1411    2.8318    0.2474 H   0  0  0  0  0  0  0  0  0  0  0  0
   -0.8215    3.2918   -2.4767 H   0  0  0  0  0  0  0  0  0  0  0  0
    0.3401    1.2062   -1.8021 H   0  0  0  0  0  0  0  0  0  0  0  0
   -1.2612    0.7704   -2.3769 H   0  0  0  0  0  0  0  0  0  0  0  0
   -0.5402    0.4184    1.5359 H   0  0  0  0  0  0  0  0  0  0  0  0
    0.2777    1.7854    0.7158 H   0  0  0  0  0  0  0  0  0  0  0  0
  1  2  2  3
  1  5  1  0
  2  3  1  0
  4 11  1  0
  6  7  2  3
  6 12  1  0
  6 13  1  0
  7  8  1  0
  7 14  1  0
  8  9  1  0
  8 15  1  0
  8 16  1  0
  9 10  1  0
 10 11  1  0
 10 17  1  0
 10 18  1  0
M  RAD  1   3   2
M  END
>  <reaction>  (6) 
rmg_rxn_1563

>  <mol_properties>  (6) 
{"0": {"label": "*1", "atom_type": "N3s"}, "1": {"label": "*0", "atom_type": "N3d"}, "3": {"label": "*2", "atom_type": "H0"}, "9": {"label": "*4", "atom_type": "Cs"}, "10": {"label": "*3", "atom_type": "O2s"}}

>  <type>  (6) 
unop_2

>  <geom_source>  (6) 
Heuristics

$$$$

     RDKit          3D

 18 16  0  0  0  0  0  0  0  0999 V2000
   -0.0693   -0.9244    2.7016 N   0  0  0  0  0  0  0  0  0  0  0  0
   -0.0693   -2.1273    2.1569 N   0  0  0  0  0  0  0  0  0  0  0  0
   -0.0693   -2.1273    0.9524 O   0  0  0  0  0  1  0  0  0  0  0  0
   -0.0693    0.0582    1.9864 H   0  0  0  0  0  0  0  0  0  0  0  0
   -0.0693   -0.8781    3.7037 H   0  0  0  0  0  0  0  0  0  0  0  0
   -0.6211    1.3968   -3.1803 C   0  0  0  0  0  0  0  0  0  0  0  0
    0.5636    1.5584   -2.6155 C   0  0  0  0  0  0  0  0  0  0  0  0
    1.0579    0.8296   -1.4008 C   0  0  0  0  0  0  0  0  0  0  0  0
    0.0869    0.0037   -0.7956 O   0  0  0  0  0  0  0  0  0  0  0  0
   -0.7334    0.6651    0.1220 C   0  0  0  0  0  0  0  0  0  0  0  0
   -0.0693    0.9894    1.3087 O   0  0  0  0  0  0  0  0  0  0  0  0
   -0.9028    1.9568   -4.0624 H   0  0  0  0  0  0  0  0  0  0  0  0
   -1.3423    0.6939   -2.7813 H   0  0  0  0  0  0  0  0  0  0  0  0
    1.2741    2.2628   -3.0399 H   0  0  0  0  0  0  0  0  0  0  0  0
    1.4549    1.5458   -0.6719 H   0  0  0  0  0  0  0  0  0  0  0  0
    1.8891    0.1782   -1.6846 H   0  0  0  0  0  0  0  0  0  0  0  0
   -1.5719   -0.0138    0.3000 H   0  0  0  0  0  0  0  0  0  0  0  0
   -1.0987    1.6143   -0.2796 H   0  0  0  0  0  0  0  0  0  0  0  0
  1  2  2  3
  1  5  1  0
  2  3  1  0
  4 11  1  0
  6  7  2  3
  6 12  1  0
  6 13  1  0
  7  8  1  0
  7 14  1  0
  8  9  1  0
  8 15  1  0
  8 16  1  0
  9 10  1  0
 10 11  1  0
 10 17  1  0
 10 18  1  0
M  RAD  1   3   2
M  END
>  <reaction>  (7) 
rmg_rxn_1563

>  <mol_properties>  (7) 
{"0": {"label": "*1", "atom_type": "N3s"}, "1": {"label": "*0", "atom_type": "N3d"}, "3": {"label": "*2", "atom_type": "H0"}, "9": {"label": "*4", "atom_type": "Cs"}, "10": {"label": "*3", "atom_type": "O2s"}}

>  <type>  (7) 
unop_3

>  <geom_source>  (7) 
Heuristics

$$$$

     RDKit          3D

 18 16  0  0  0  0  0  0  0  0999 V2000
    1.0256   -2.1177    1.2645 N   0  0  0  0  0  0  0  0  0  0  0  0
    1.0256   -3.3205    0.7197 N   0  0  0  0  0  0  0  0  0  0  0  0
    1.0256   -3.3205   -0.4848 O   0  0  0  0  0  1  0  0  0  0  0  0
    1.0256   -1.1351    0.5493 H   0  0  0  0  0  0  0  0  0  0  0  0
    1.0256   -2.0714    2.2666 H   0  0  0  0  0  0  0  0  0  0  0  0
   -1.2787    3.7091   -0.1249 C   0  0  0  0  0  0  0  0  0  0  0  0
   -1.3351    2.8786   -1.1524 C   0  0  0  0  0  0  0  0  0  0  0  0
   -1.2623    1.3823   -1.0700 C   0  0  0  0  0  0  0  0  0  0  0  0
   -0.9974    0.8938    0.2270 O   0  0  0  0  0  0  0  0  0  0  0  0
    0.3615    0.8256    0.5448 C   0  0  0  0  0  0  0  0  0  0  0  0
    1.0256   -0.2039   -0.1285 O   0  0  0  0  0  0  0  0  0  0  0  0
   -1.3452    4.7800   -0.2653 H   0  0  0  0  0  0  0  0  0  0  0  0
   -1.1716    3.3420    0.8886 H   0  0  0  0  0  0  0  0  0  0  0  0
   -1.4525    3.2704   -2.1593 H   0  0  0  0  0  0  0  0  0  0  0  0
   -0.5145    1.0057   -1.7778 H   0  0  0  0  0  0  0  0  0  0  0  0
   -2.2230    0.9574   -1.3738 H   0  0  0  0  0  0  0  0  0  0  0  0
    0.3969    0.6889    1.6292 H   0  0  0  0  0  0  0  0  0  0  0  0
    0.8842    1.7448    0.2660 H   0  0  0  0  0  0  0  0  0  0  0  0
  1  2  2  3
  1  5  1  0
  2  3  1  0
  4 11  1  0
  6  7  2  3
  6 12  1  0
  6 13  1  0
  7  8  1  0
  7 14  1  0
  8  9  1  0
  8 15  1  0
  8 16  1  0
  9 10  1  0
 10 11  1  0
 10 17  1  0
 10 18  1  0
M  RAD  1   3   2
M  END
>  <reaction>  (8) 
rmg_rxn_1563

>  <mol_properties>  (8) 
{"0": {"label": "*1", "atom_type": "N3s"}, "1": {"label": "*0", "atom_type": "N3d"}, "3": {"label": "*2", "atom_type": "H0"}, "9": {"label": "*4", "atom_type": "Cs"}, "10": {"label": "*3", "atom_type": "O2s"}}

>  <type>  (8) 
unop_4

>  <geom_source>  (8) 
Heuristics

$$$$

     RDKit          3D

 18 16  0  0  0  0  0  0  0  0999 V2000
   -1.5233   -1.0983    1.2227 N   0  0  0  0  0  0  0  0  0  0  0  0
   -1.5233   -2.3011    0.6779 N   0  0  0  0  0  0  0  0  0  0  0  0
   -1.5233   -2.3011   -0.5266 O   0  0  0  0  0  1  0  0  0  0  0  0
   -1.5233   -0.1157    0.5074 H   0  0  0  0  0  0  0  0  0  0  0  0
   -1.5233   -1.0520    2.2247 H   0  0  0  0  0  0  0  0  0  0  0  0
    2.8300    1.8689   -0.9189 C   0  0  0  0  0  0  0  0  0  0  0  0
    2.3593    1.7210    0.3080 C   0  0  0  0  0  0  0  0  0  0  0  0
    1.2776    0.7656    0.7182 C   0  0  0  0  0  0  0  0  0  0  0  0
    0.6790    0.0825   -0.3616 O   0  0  0  0  0  0  0  0  0  0  0  0
   -0.3730    0.7773   -0.9639 C   0  0  0  0  0  0  0  0  0  0  0  0
   -1.5233    0.8155   -0.1703 O   0  0  0  0  0  0  0  0  0  0  0  0
    3.6192    2.5771   -1.1350 H   0  0  0  0  0  0  0  0  0  0  0  0
    2.4449    1.2807   -1.7429 H   0  0  0  0  0  0  0  0  0  0  0  0
    2.7685    2.3159    1.1202 H   0  0  0  0  0  0  0  0  0  0  0  0
    0.5154    1.2940    1.3028 H   0  0  0  0  0  0  0  0  0  0  0  0
    1.7019    0.0011    1.3750 H   0  0  0  0  0  0  0  0  0  0  0  0
   -0.5523    0.2627   -1.9120 H   0  0  0  0  0  0  0  0  0  0  0  0
   -0.1084    1.8220   -1.1490 H   0  0  0  0  0  0  0  0  0  0  0  0
  1  2  2  3
  1  5  1  0
  2  3  1  0
  4 11  1  0
  6  7  2  3
  6 12  1  0
  6 13  1  0
  7  8  1  0
  7 14  1  0
  8  9  1  0
  8 15  1  0
  8 16  1  0
  9 10  1  0
 10 11  1  0
 10 17  1  0
 10 18  1  0
M  RAD  1   3   2
M  END
>  <reaction>  (9) 
rmg_rxn_1563

>  <mol_properties>  (9) 
{"0": {"label": "*1", "atom_type": "N3s"}, "1": {"label": "*0", "atom_type": "N3d"}, "3": {"label": "*2", "atom_type": "H0"}, "9": {"label": "*4", "atom_type": "Cs"}, "10": {"label": "*3", "atom_type": "O2s"}}

>  <type>  (9) 
unop_5

>  <geom_source>  (9) 
Heuristics

$$$$

     RDKit          3D

 18 16  0  0  0  0  0  0  0  0999 V2000
    0.8149   -2.1428    0.5951 N   0  0  0  0  0  0  0  0  0  0  0  0
    0.8149   -3.3456    0.0503 N   0  0  0  0  0  0  0  0  0  0  0  0
    0.8149   -3.3456   -1.1542 O   0  0  0  0  0  1  0  0  0  0  0  0
    0.8149   -1.1601   -0.1201 H   0  0  0  0  0  0  0  0  0  0  0  0
    0.8149   -2.0964    1.5972 H   0  0  0  0  0  0  0  0  0  0  0  0
   -0.9543    3.7532    0.4801 C   0  0  0  0  0  0  0  0  0  0  0  0
   -1.7075    2.8044   -0.0500 C   0  0  0  0  0  0  0  0  0  0  0  0
   -1.5013    1.3283    0.1224 C   0  0  0  0  0  0  0  0  0  0  0  0
   -0.3237    0.9941    0.8243 O   0  0  0  0  0  0  0  0  0  0  0  0
    0.8149    0.9053    0.0193 C   0  0  0  0  0  0  0  0  0  0  0  0
    0.8149   -0.2290   -0.7979 O   0  0  0  0  0  0  0  0  0  0  0  0
   -1.1722    4.8002    0.3146 H   0  0  0  0  0  0  0  0  0  0  0  0
   -0.1008    3.5111    1.1018 H   0  0  0  0  0  0  0  0  0  0  0  0
   -2.5643    3.0724   -0.6625 H   0  0  0  0  0  0  0  0  0  0  0  0
   -1.5140    0.8333   -0.8557 H   0  0  0  0  0  0  0  0  0  0  0  0
   -2.3350    0.9124    0.6949 H   0  0  0  0  0  0  0  0  0  0  0  0
    1.6592    0.9034    0.7142 H   0  0  0  0  0  0  0  0  0  0  0  0
    0.8915    1.7580   -0.6609 H   0  0  0  0  0  0  0  0  0  0  0  0
  1  2  2  3
  1  5  1  0
  2  3  1  0
  4 11  1  0
  6  7  2  3
  6 12  1  0
  6 13  1  0
  7  8  1  0
  7 14  1  0
  8  9  1  0
  8 15  1  0
  8 16  1  0
  9 10  1  0
 10 11  1  0
 10 17  1  0
 10 18  1  0
M  RAD  1   3   2
M  END
>  <reaction>  (10) 
rmg_rxn_1563

>  <mol_properties>  (10) 
{"0": {"label": "*1", "atom_type": "N3s"}, "1": {"label": "*0", "atom_type": "N3d"}, "3": {"label": "*2", "atom_type": "H0"}, "9": {"label": "*4", "atom_type": "Cs"}, "10": {"label": "*3", "atom_type": "O2s"}}

>  <type>  (10) 
unop_6

>  <geom_source>  (10) 
Heuristics

$$$$

     RDKit          3D

 18 16  0  0  0  0  0  0  0  0999 V2000
   -1.3375   -1.4378    0.5904 N   0  0  0  0  0  0  0  0  0  0  0  0
   -1.3375   -2.6406    0.0457 N   0  0  0  0  0  0  0  0  0  0  0  0
   -1.3375   -2.6406   -1.1588 O   0  0  0  0  0  1  0  0  0  0  0  0
   -1.3375   -0.4552   -0.1248 H   0  0  0  0  0  0  0  0  0  0  0  0
   -1.3375   -1.3914    1.5925 H   0  0  0  0  0  0  0  0  0  0  0  0
    2.5170    2.5757    0.3615 C   0  0  0  0  0  0  0  0  0  0  0  0
    1.6784    2.1202    1.2769 C   0  0  0  0  0  0  0  0  0  0  0  0
    0.8239    0.8941    1.1444 C   0  0  0  0  0  0  0  0  0  0  0  0
    0.8843    0.2905   -0.1296 O   0  0  0  0  0  0  0  0  0  0  0  0
   -0.0093    0.8287   -1.0592 C   0  0  0  0  0  0  0  0  0  0  0  0
   -1.3375    0.4760   -0.8026 O   0  0  0  0  0  0  0  0  0  0  0  0
    3.1061    3.4667    0.5347 H   0  0  0  0  0  0  0  0  0  0  0  0
    2.6448    2.0666   -0.5861 H   0  0  0  0  0  0  0  0  0  0  0  0
    1.5746    2.6430    2.2240 H   0  0  0  0  0  0  0  0  0  0  0  0
   -0.2144    1.1335    1.4024 H   0  0  0  0  0  0  0  0  0  0  0  0
    1.1596    0.1413    1.8630 H   0  0  0  0  0  0  0  0  0  0  0  0
    0.3276    0.4570   -2.0308 H   0  0  0  0  0  0  0  0  0  0  0  0
    0.0122    1.9219   -1.0485 H   0  0  0  0  0  0  0  0  0  0  0  0
  1  2  2  3
  1  5  1  0
  2  3  1  0
  4 11  1  0
  6  7  2  3
  6 12  1  0
  6 13  1  0
  7  8  1  0
  7 14  1  0
  8  9  1  0
  8 15  1  0
  8 16  1  0
  9 10  1  0
 10 11  1  0
 10 17  1  0
 10 18  1  0
M  RAD  1   3   2
M  END
>  <reaction>  (11) 
rmg_rxn_1563

>  <mol_properties>  (11) 
{"0": {"label": "*1", "atom_type": "N3s"}, "1": {"label": "*0", "atom_type": "N3d"}, "3": {"label": "*2", "atom_type": "H0"}, "9": {"label": "*4", "atom_type": "Cs"}, "10": {"label": "*3", "atom_type": "O2s"}}

>  <type>  (11) 
unop_7

>  <geom_source>  (11) 
Heuristics

$$$$

     RDKit          3D

 18 16  0  0  0  0  0  0  0  0999 V2000
    1.9723    0.4032    0.1790 N   0  0  0  0  0  0  0  0  0  0  0  0
    3.1554    0.5359   -0.1461 N   0  0  0  0  0  0  0  0  0  0  0  0
    3.9112   -0.2229   -0.6747 O   0  0  0  0  0  1  0  0  0  0  0  0
    1.1667   -0.5195    0.0488 H   0  0  0  0  0  0  0  0  0  0  0  0
    1.5323    1.2092    0.6169 H   0  0  0  0  0  0  0  0  0  0  0  0
   -3.7438   -0.3678   -1.0057 C   0  0  0  0  0  0  0  0  0  0  0  0
   -3.1252    0.3876   -0.1184 C   0  0  0  0  0  0  0  0  0  0  0  0
   -1.7098    0.8648   -0.2612 C   0  0  0  0  0  0  0  0  0  0  0  0
   -0.9240    0.5661    0.8874 O   0  0  0  0  0  0  0  0  0  0  0  0
   -0.5960   -0.8030    1.0001 C   0  0  0  0  0  0  0  0  0  0  0  0
    0.2655   -1.2309    0.0394 O   0  0  0  0  0  0  0  0  0  0  0  0
   -4.7624   -0.6891   -0.8700 H   0  0  0  0  0  0  0  0  0  0  0  0
   -3.2569   -0.6887   -1.9122 H   0  0  0  0  0  0  0  0  0  0  0  0
   -3.6149    0.6962    0.7957 H   0  0  0  0  0  0  0  0  0  0  0  0
   -1.6898    1.9570   -0.3394 H   0  0  0  0  0  0  0  0  0  0  0  0
   -1.2446    0.4272   -1.1535 H   0  0  0  0  0  0  0  0  0  0  0  0
   -1.5057   -1.4235    0.9250 H   0  0  0  0  0  0  0  0  0  0  0  0
   -0.1837   -0.9022    2.0200 H   0  0  0  0  0  0  0  0  0  0  0  0
  1  2  2  3
  1  5  1  0
  2  3  1  0
  4 11  1  0
  6  7  2  3
  6 12  1  0
  6 13  1  0
  7  8  1  0
  7 14  1  0
  8  9  1  0
  8 15  1  0
  8 16  1  0
  9 10  1  0
 10 11  1  0
 10 17  1  0
 10 18  1  0
M  RAD  1   3   2
M  END
>  <reaction>  (12) 
rmg_rxn_1563

>  <mol_properties>  (12) 
{"0": {"label": "*1", "atom_type": "N3s"}, "1": {"label": "*0", "atom_type": "N3d"}, "3": {"label": "*2", "atom_type": "H0"}, "9": {"label": "*4", "atom_type": "Cs"}, "10": {"label": "*3", "atom_type": "O2s"}}

>  <type>  (12) 
unop_8

>  <geom_source>  (12) 
Heuristics

$$$$

     RDKit          3D

 18 16  0  0  0  0  0  0  0  0999 V2000
   -0.7911   -1.7696    0.1286 N   0  0  0  0  0  0  0  0  0  0  0  0
   -0.7911   -2.9724   -0.4162 N   0  0  0  0  0  0  0  0  0  0  0  0
   -0.7911   -2.9724   -1.6207 O   0  0  0  0  0  1  0  0  0  0  0  0
   -0.7911   -0.7870   -0.5866 H   0  0  0  0  0  0  0  0  0  0  0  0
   -0.7911   -1.7233    1.1307 H   0  0  0  0  0  0  0  0  0  0  0  0
    1.4621    3.1985    1.2287 C   0  0  0  0  0  0  0  0  0  0  0  0
    0.5020    2.4559    1.7534 C   0  0  0  0  0  0  0  0  0  0  0  0
    0.1766    1.0449    1.3603 C   0  0  0  0  0  0  0  0  0  0  0  0
    0.9192    0.5736    0.2569 O   0  0  0  0  0  0  0  0  0  0  0  0
    0.3591    0.8876   -0.9841 C   0  0  0  0  0  0  0  0  0  0  0  0
   -0.7911    0.1442   -1.2644 O   0  0  0  0  0  0  0  0  0  0  0  0
    1.6400    4.2092    1.5717 H   0  0  0  0  0  0  0  0  0  0  0  0
    2.1039    2.8148    0.4449 H   0  0  0  0  0  0  0  0  0  0  0  0
   -0.1229    2.8596    2.5456 H   0  0  0  0  0  0  0  0  0  0  0  0
   -0.8977    0.9510    1.1631 H   0  0  0  0  0  0  0  0  0  0  0  0
    0.4013    0.3769    2.1964 H   0  0  0  0  0  0  0  0  0  0  0  0
    1.1513    0.6980   -1.7136 H   0  0  0  0  0  0  0  0  0  0  0  0
    0.0506    1.9357   -1.0302 H   0  0  0  0  0  0  0  0  0  0  0  0
  1  2  2  3
  1  5  1  0
  2  3  1  0
  4 11  1  0
  6  7  2  3
  6 12  1  0
  6 13  1  0
  7  8  1  0
  7 14  1  0
  8  9  1  0
  8 15  1  0
  8 16  1  0
  9 10  1  0
 10 11  1  0
 10 17  1  0
 10 18  1  0
M  RAD  1   3   2
M  END
>  <reaction>  (13) 
rmg_rxn_1563

>  <mol_properties>  (13) 
{"0": {"label": "*1", "atom_type": "N3s"}, "1": {"label": "*0", "atom_type": "N3d"}, "3": {"label": "*2", "atom_type": "H0"}, "9": {"label": "*4", "atom_type": "Cs"}, "10": {"label": "*3", "atom_type": "O2s"}}

>  <type>  (13) 
unop_9

>  <geom_source>  (13) 
Heuristics

$$$$

     RDKit          3D

 18 16  0  0  0  0  0  0  0  0999 V2000
    0.9945   -1.5744    2.1778 N   0  0  0  0  0  0  0  0  0  0  0  0
    0.9945   -2.7772    1.6330 N   0  0  0  0  0  0  0  0  0  0  0  0
    0.9945   -2.7772    0.4285 O   0  0  0  0  0  1  0  0  0  0  0  0
    0.9945   -0.5917    1.4626 H   0  0  0  0  0  0  0  0  0  0  0  0
    0.9945   -1.5280    3.1799 H   0  0  0  0  0  0  0  0  0  0  0  0
   -2.1153    2.7356   -1.4973 C   0  0  0  0  0  0  0  0  0  0  0  0
   -0.9597    2.4064   -2.0493 C   0  0  0  0  0  0  0  0  0  0  0  0
   -0.1919    1.1457   -1.7802 C   0  0  0  0  0  0  0  0  0  0  0  0
   -0.7481    0.3448   -0.7603 O   0  0  0  0  0  0  0  0  0  0  0  0
   -0.3337    0.6921    0.5282 C   0  0  0  0  0  0  0  0  0  0  0  0
    0.9945    0.3394    0.7848 O   0  0  0  0  0  0  0  0  0  0  0  0
   -2.6127    3.6632   -1.7488 H   0  0  0  0  0  0  0  0  0  0  0  0
   -2.6023    2.0835   -0.7825 H   0  0  0  0  0  0  0  0  0  0  0  0
   -0.4952    3.0728   -2.7712 H   0  0  0  0  0  0  0  0  0  0  0  0
    0.8517    1.3873   -1.5469 H   0  0  0  0  0  0  0  0  0  0  0  0
   -0.1767    0.5327   -2.6856 H   0  0  0  0  0  0  0  0  0  0  0  0
   -1.0260    0.1788    1.2012 H   0  0  0  0  0  0  0  0  0  0  0  0
   -0.3875    1.7725    0.6882 H   0  0  0  0  0  0  0  0  0  0  0  0
  1  2  2  3
  1  5  1  0
  2  3  1  0
  4 11  1  0
  6  7  2  3
  6 12  1  0
  6 13  1  0
  7  8  1  0
  7 14  1  0
  8  9  1  0
  8 15  1  0
  8 16  1  0
  9 10  1  0
 10 11  1  0
 10 17  1  0
 10 18  1  0
M  RAD  1   3   2
M  END
>  <reaction>  (14) 
rmg_rxn_1563

>  <mol_properties>  (14) 
{"0": {"label": "*1", "atom_type": "N3s"}, "1": {"label": "*0", "atom_type": "N3d"}, "3": {"label": "*2", "atom_type": "H0"}, "9": {"label": "*4", "atom_type": "Cs"}, "10": {"label": "*3", "atom_type": "O2s"}}

>  <type>  (14) 
unop_10

>  <geom_source>  (14) 
Heuristics

$$$$

     RDKit          3D

 18 16  0  0  0  0  0  0  0  0999 V2000
    1.9726    0.4021   -0.1809 N   0  0  0  0  0  0  0  0  0  0  0  0
    3.1556    0.5370    0.1435 N   0  0  0  0  0  0  0  0  0  0  0  0
    3.9119   -0.2188    0.6758 O   0  0  0  0  0  1  0  0  0  0  0  0
    1.1672   -0.5202   -0.0461 H   0  0  0  0  0  0  0  0  0  0  0  0
    1.5321    1.2058   -0.6226 H   0  0  0  0  0  0  0  0  0  0  0  0
   -3.7458   -0.3609    1.0075 C   0  0  0  0  0  0  0  0  0  0  0  0
   -3.1255    0.3877    0.1156 C   0  0  0  0  0  0  0  0  0  0  0  0
   -1.7102    0.8653    0.2569 C   0  0  0  0  0  0  0  0  0  0  0  0
   -0.9236    0.5613   -0.8898 O   0  0  0  0  0  0  0  0  0  0  0  0
   -0.5955   -0.8083   -0.9960 C   0  0  0  0  0  0  0  0  0  0  0  0
    0.2659   -1.2316   -0.0332 O   0  0  0  0  0  0  0  0  0  0  0  0
   -4.7644   -0.6827    0.8724 H   0  0  0  0  0  0  0  0  0  0  0  0
   -3.2604   -0.6756    1.9169 H   0  0  0  0  0  0  0  0  0  0  0  0
   -3.6136    0.6894   -0.8017 H   0  0  0  0  0  0  0  0  0  0  0  0
   -1.2456    0.4320    1.1516 H   0  0  0  0  0  0  0  0  0  0  0  0
   -1.6902    1.9578    0.3301 H   0  0  0  0  0  0  0  0  0  0  0  0
   -0.1832   -0.9125   -2.0154 H   0  0  0  0  0  0  0  0  0  0  0  0
   -1.5052   -1.4285   -0.9180 H   0  0  0  0  0  0  0  0  0  0  0  0
  1  2  2  3
  1  5  1  0
  2  3  1  0
  4 11  1  0
  6  7  2  3
  6 12  1  0
  6 13  1  0
  7  8  1  0
  7 14  1  0
  8  9  1  0
  8 15  1  0
  8 16  1  0
  9 10  1  0
 10 11  1  0
 10 17  1  0
 10 18  1  0
M  RAD  1   3   2
M  END
>  <reaction>  (15) 
rmg_rxn_1563

>  <mol_properties>  (15) 
{"0": {"label": "*1", "atom_type": "N3s"}, "1": {"label": "*0", "atom_type": "N3d"}, "3": {"label": "*2", "atom_type": "H0"}, "9": {"label": "*4", "atom_type": "Cs"}, "10": {"label": "*3", "atom_type": "O2s"}}

>  <type>  (15) 
unop_11

>  <geom_source>  (15) 
Heuristics

$$$$

     RDKit          3D

 18 16  0  0  0  0  0  0  0  0999 V2000
   -1.3434   -0.8548    1.8920 N   0  0  0  0  0  0  0  0  0  0  0  0
   -1.3434   -2.0576    1.3473 N   0  0  0  0  0  0  0  0  0  0  0  0
   -1.3434   -2.0576    0.1428 O   0  0  0  0  0  1  0  0  0  0  0  0
   -1.3434    0.1279    1.1768 H   0  0  0  0  0  0  0  0  0  0  0  0
   -1.3434   -0.8084    2.8941 H   0  0  0  0  0  0  0  0  0  0  0  0
    2.2754    1.3152   -2.2322 C   0  0  0  0  0  0  0  0  0  0  0  0
    2.3965    1.4124   -0.9190 C   0  0  0  0  0  0  0  0  0  0  0  0
    1.5449    0.7012    0.0909 C   0  0  0  0  0  0  0  0  0  0  0  0
    0.4743   -0.0240   -0.4739 O   0  0  0  0  0  0  0  0  0  0  0  0
   -0.6793    0.7348   -0.6876 C   0  0  0  0  0  0  0  0  0  0  0  0
   -1.3434    1.0590    0.4990 O   0  0  0  0  0  0  0  0  0  0  0  0
    2.9350    1.8565   -2.8977 H   0  0  0  0  0  0  0  0  0  0  0  0
    1.5171    0.6853   -2.6811 H   0  0  0  0  0  0  0  0  0  0  0  0
    3.1715    2.0436   -0.4921 H   0  0  0  0  0  0  0  0  0  0  0  0
    1.1698    1.4164    0.8324 H   0  0  0  0  0  0  0  0  0  0  0  0
    2.1589   -0.0215    0.6354 H   0  0  0  0  0  0  0  0  0  0  0  0
   -1.3045    0.1280   -1.3485 H   0  0  0  0  0  0  0  0  0  0  0  0
   -0.4468    1.6905   -1.1653 H   0  0  0  0  0  0  0  0  0  0  0  0
  1  2  2  3
  1  5  1  0
  2  3  1  0
  4 11  1  0
  6  7  2  3
  6 12  1  0
  6 13  1  0
  7  8  1  0
  7 14  1  0
  8  9  1  0
  8 15  1  0
  8 16  1  0
  9 10  1  0
 10 11  1  0
 10 17  1  0
 10 18  1  0
M  RAD  1   3   2
M  END
>  <reaction>  (16) 
rmg_rxn_1563

>  <mol_properties>  (16) 
{"0": {"label": "*1", "atom_type": "N3s"}, "1": {"label": "*0", "atom_type": "N3d"}, "3": {"label": "*2", "atom_type": "H0"}, "9": {"label": "*4", "atom_type": "Cs"}, "10": {"label": "*3", "atom_type": "O2s"}}

>  <type>  (16) 
unop_12

>  <geom_source>  (16) 
Heuristics

$$$$

     RDKit          3D

 18 16  0  0  0  0  0  0  0  0999 V2000
    0.6026   -1.2136    2.5625 N   0  0  0  0  0  0  0  0  0  0  0  0
    0.6026   -2.4164    2.0178 N   0  0  0  0  0  0  0  0  0  0  0  0
    0.6026   -2.4164    0.8133 O   0  0  0  0  0  1  0  0  0  0  0  0
    0.6026   -0.2310    1.8473 H   0  0  0  0  0  0  0  0  0  0  0  0
    0.6026   -1.1673    3.5646 H   0  0  0  0  0  0  0  0  0  0  0  0
   -1.7520    2.0040   -2.4879 C   0  0  0  0  0  0  0  0  0  0  0  0
   -0.4303    1.9625   -2.4996 C   0  0  0  0  0  0  0  0  0  0  0  0
    0.4185    0.9780   -1.7503 C   0  0  0  0  0  0  0  0  0  0  0  0
   -0.3133    0.1283   -0.8939 O   0  0  0  0  0  0  0  0  0  0  0  0
   -0.5476    0.6620    0.3760 C   0  0  0  0  0  0  0  0  0  0  0  0
    0.6026    0.7002    1.1696 O   0  0  0  0  0  0  0  0  0  0  0  0
   -2.2949    2.7430   -3.0625 H   0  0  0  0  0  0  0  0  0  0  0  0
   -2.3310    1.2949   -1.9087 H   0  0  0  0  0  0  0  0  0  0  0  0
    0.1285    2.6787   -3.0962 H   0  0  0  0  0  0  0  0  0  0  0  0
    1.1950    1.5082   -1.1866 H   0  0  0  0  0  0  0  0  0  0  0  0
    0.9361    0.3315   -2.4644 H   0  0  0  0  0  0  0  0  0  0  0  0
   -1.3222    0.0280    0.8162 H   0  0  0  0  0  0  0  0  0  0  0  0
   -0.8988    1.6959    0.3168 H   0  0  0  0  0  0  0  0  0  0  0  0
  1  2  2  3
  1  5  1  0
  2  3  1  0
  4 11  1  0
  6  7  2  3
  6 12  1  0
  6 13  1  0
  7  8  1  0
  7 14  1  0
  8  9  1  0
  8 15  1  0
  8 16  1  0
  9 10  1  0
 10 11  1  0
 10 17  1  0
 10 18  1  0
M  RAD  1   3   2
M  END
>  <reaction>  (17) 
rmg_rxn_1563

>  <mol_properties>  (17) 
{"0": {"label": "*1", "atom_type": "N3s"}, "1": {"label": "*0", "atom_type": "N3d"}, "3": {"label": "*2", "atom_type": "H0"}, "9": {"label": "*4", "atom_type": "Cs"}, "10": {"label": "*3", "atom_type": "O2s"}}

>  <type>  (17) 
unop_13

>  <geom_source>  (17) 
Heuristics

$$$$

     RDKit          3D

 18 16  0  0  0  0  0  0  0  0999 V2000
    0.0492   -2.0127    0.0439 N   0  0  0  0  0  0  0  0  0  0  0  0
    0.0492   -3.2155   -0.5009 N   0  0  0  0  0  0  0  0  0  0  0  0
    0.0492   -3.2155   -1.7054 O   0  0  0  0  0  1  0  0  0  0  0  0
    0.0492   -1.0300   -0.6714 H   0  0  0  0  0  0  0  0  0  0  0  0
    0.0492   -1.9663    1.0459 H   0  0  0  0  0  0  0  0  0  0  0  0
    0.0201    3.5861    1.3045 C   0  0  0  0  0  0  0  0  0  0  0  0
   -0.9169    2.6585    1.4052 C   0  0  0  0  0  0  0  0  0  0  0  0
   -0.7178    1.1888    1.1788 C   0  0  0  0  0  0  0  0  0  0  0  0
    0.5704    0.8521    0.7119 O   0  0  0  0  0  0  0  0  0  0  0  0
    0.7133    0.9307   -0.6758 C   0  0  0  0  0  0  0  0  0  0  0  0
    0.0492   -0.0989   -1.3491 O   0  0  0  0  0  0  0  0  0  0  0  0
   -0.2008    4.6289    1.4906 H   0  0  0  0  0  0  0  0  0  0  0  0
    1.0386    3.3290    1.0396 H   0  0  0  0  0  0  0  0  0  0  0  0
   -1.9296    2.9399    1.6818 H   0  0  0  0  0  0  0  0  0  0  0  0
   -1.4823    0.8106    0.4901 H   0  0  0  0  0  0  0  0  0  0  0  0
   -0.8567    0.6564    2.1239 H   0  0  0  0  0  0  0  0  0  0  0  0
    1.7914    0.9027   -0.8562 H   0  0  0  0  0  0  0  0  0  0  0  0
    0.2916    1.8597   -1.0694 H   0  0  0  0  0  0  0  0  0  0  0  0
  1  2  2  3
  1  5  1  0
  2  3  1  0
  4 11  1  0
  6  7  2  3
  6 12  1  0
  6 13  1  0
  7  8  1  0
  7 14  1  0
  8  9  1  0
  8 15  1  0
  8 16  1  0
  9 10  1  0
 10 11  1  0
 10 17  1  0
 10 18  1  0
M  RAD  1   3   2
M  END
>  <reaction>  (18) 
rmg_rxn_1563

>  <mol_properties>  (18) 
{"0": {"label": "*1", "atom_type": "N3s"}, "1": {"label": "*0", "atom_type": "N3d"}, "3": {"label": "*2", "atom_type": "H0"}, "9": {"label": "*4", "atom_type": "Cs"}, "10": {"label": "*3", "atom_type": "O2s"}}

>  <type>  (18) 
unop_14

>  <geom_source>  (18) 
Heuristics

$$$$

     RDKit          3D

 18 16  0  0  0  0  0  0  0  0999 V2000
   -0.8149   -0.7899    2.4538 N   0  0  0  0  0  0  0  0  0  0  0  0
   -0.8149   -1.9927    1.9090 N   0  0  0  0  0  0  0  0  0  0  0  0
   -0.8149   -1.9927    0.7045 O   0  0  0  0  0  1  0  0  0  0  0  0
   -0.8149    0.1927    1.7385 H   0  0  0  0  0  0  0  0  0  0  0  0
   -0.8149   -0.7436    3.4559 H   0  0  0  0  0  0  0  0  0  0  0  0
    0.9542    1.1318   -3.1215 C   0  0  0  0  0  0  0  0  0  0  0  0
    1.7075    1.3446   -2.0557 C   0  0  0  0  0  0  0  0  0  0  0  0
    1.5013    0.7268   -0.7040 C   0  0  0  0  0  0  0  0  0  0  0  0
    0.3237   -0.0438   -0.6017 O   0  0  0  0  0  0  0  0  0  0  0  0
   -0.8149    0.6949   -0.2697 C   0  0  0  0  0  0  0  0  0  0  0  0
   -0.8149    1.1239    1.0608 O   0  0  0  0  0  0  0  0  0  0  0  0
    1.1722    1.6112   -4.0669 H   0  0  0  0  0  0  0  0  0  0  0  0
    0.1008    0.4658   -3.0822 H   0  0  0  0  0  0  0  0  0  0  0  0
    2.5643    2.0099   -2.1223 H   0  0  0  0  0  0  0  0  0  0  0  0
    1.5140    1.5054    0.0677 H   0  0  0  0  0  0  0  0  0  0  0  0
    2.3350    0.0542   -0.4842 H   0  0  0  0  0  0  0  0  0  0  0  0
   -1.6592    0.0331   -0.4816 H   0  0  0  0  0  0  0  0  0  0  0  0
   -0.8915    1.6043   -0.8721 H   0  0  0  0  0  0  0  0  0  0  0  0
  1  2  2  3
  1  5  1  0
  2  3  1  0
  4 11  1  0
  6  7  2  3
  6 12  1  0
  6 13  1  0
  7  8  1  0
  7 14  1  0
  8  9  1  0
  8 15  1  0
  8 16  1  0
  9 10  1  0
 10 11  1  0
 10 17  1  0
 10 18  1  0
M  RAD  1   3   2
M  END
>  <reaction>  (19) 
rmg_rxn_1563

>  <mol_properties>  (19) 
{"0": {"label": "*1", "atom_type": "N3s"}, "1": {"label": "*0", "atom_type": "N3d"}, "3": {"label": "*2", "atom_type": "H0"}, "9": {"label": "*4", "atom_type": "Cs"}, "10": {"label": "*3", "atom_type": "O2s"}}

>  <type>  (19) 
unop_15

>  <geom_source>  (19) 
Heuristics

$$$$

     RDKit          3D

 18 16  0  0  0  0  0  0  0  0999 V2000
   -0.0693   -0.9244    2.7016 N   0  0  0  0  0  0  0  0  0  0  0  0
   -0.0693   -2.1273    2.1569 N   0  0  0  0  0  0  0  0  0  0  0  0
   -0.0693   -2.1273    0.9524 O   0  0  0  0  0  1  0  0  0  0  0  0
   -0.0693    0.0582    1.9864 H   0  0  0  0  0  0  0  0  0  0  0  0
   -0.0693   -0.8781    3.7037 H   0  0  0  0  0  0  0  0  0  0  0  0
   -0.6211    1.3968   -3.1803 C   0  0  0  0  0  0  0  0  0  0  0  0
    0.5636    1.5584   -2.6155 C   0  0  0  0  0  0  0  0  0  0  0  0
    1.0579    0.8296   -1.4007 C   0  0  0  0  0  0  0  0  0  0  0  0
    0.0869    0.0037   -0.7956 O   0  0  0  0  0  0  0  0  0  0  0  0
   -0.7334    0.6651    0.1220 C   0  0  0  0  0  0  0  0  0  0  0  0
   -0.0693    0.9894    1.3087 O   0  0  0  0  0  0  0  0  0  0  0  0
   -0.9028    1.9568   -4.0624 H   0  0  0  0  0  0  0  0  0  0  0  0
   -1.3423    0.6939   -2.7813 H   0  0  0  0  0  0  0  0  0  0  0  0
    1.2741    2.2628   -3.0399 H   0  0  0  0  0  0  0  0  0  0  0  0
    1.4549    1.5458   -0.6719 H   0  0  0  0  0  0  0  0  0  0  0  0
    1.8891    0.1782   -1.6846 H   0  0  0  0  0  0  0  0  0  0  0  0
   -1.5719   -0.0138    0.3000 H   0  0  0  0  0  0  0  0  0  0  0  0
   -1.0987    1.6143   -0.2796 H   0  0  0  0  0  0  0  0  0  0  0  0
  1  2  2  3
  1  5  1  0
  2  3  1  0
  4 11  1  0
  6  7  2  3
  6 12  1  0
  6 13  1  0
  7  8  1  0
  7 14  1  0
  8  9  1  0
  8 15  1  0
  8 16  1  0
  9 10  1  0
 10 11  1  0
 10 17  1  0
 10 18  1  0
M  RAD  1   3   2
M  END
>  <reaction>  (20) 
rmg_rxn_1563

>  <mol_properties>  (20) 
{"0": {"label": "*1", "atom_type": "N3s"}, "1": {"label": "*0", "atom_type": "N3d"}, "3": {"label": "*2", "atom_type": "H0"}, "9": {"label": "*4", "atom_type": "Cs"}, "10": {"label": "*3", "atom_type": "O2s"}}

>  <type>  (20) 
unop_16

>  <geom_source>  (20) 
gaussian_log

$$$$
