
     RDKit          3D

  9  8  0  0  0  0  0  0  0  0999 V2000
   -1.0314    0.2323   -0.1227 C   0  0  0  0  0  0  0  0  0  0  0  0
    0.3094   -0.4511    0.0063 C   0  0  0  0  0  0  0  0  0  0  0  0
    0.3197   -1.7698    0.6841 N   0  0  0  0  0  0  0  0  0  0  0  0
   -0.7498   -2.1455    1.0557 O   0  0  0  0  0  0  0  0  0  0  0  0
   -1.4744    0.4198    0.8552 H   0  0  0  0  0  0  0  0  0  0  0  0
   -0.9073    1.1865   -0.6350 H   0  0  0  0  0  0  0  0  0  0  0  0
   -1.7319   -0.3778   -0.6927 H   0  0  0  0  0  0  0  0  0  0  0  0
    1.0375    0.1401    0.5713 H   0  0  0  0  0  0  0  0  0  0  0  0
    0.7826   -0.6494   -0.9609 H   0  0  0  0  0  0  0  0  0  0  0  0
  1  2  1  0
  1  5  1  0
  1  6  1  0
  1  7  1  0
  2  3  1  0
  2  8  1  0
  2  9  1  0
  3  4  2  0
M  END
>  <reaction>  (1) 
rmg_rxn_254

>  <mol_properties>  (1) 
{"1": {"label": "donator", "atom_type": "Cs"}, "7": {"label": "d_hydrogen", "atom_type": "H0"}}

>  <type>  (1) 
r1h

$$$$

     RDKit          3D

 13 13  0  0  0  0  0  0  0  0999 V2000
   -0.9087    1.0135    0.2744 C   0  0  0  0  0  3  0  0  0  0  0  0
   -1.1528   -0.4306   -0.0132 C   0  0  0  0  0  0  0  0  0  0  0  0
    0.1597   -1.1985    0.0580 C   0  0  0  0  0  0  0  0  0  0  0  0
    1.1497   -0.5125   -0.6902 O   0  0  0  0  0  0  0  0  0  0  0  0
    1.3593    0.7608   -0.1866 C   0  0  0  0  0  0  0  0  0  0  0  0
    0.2092    1.5798   -0.2538 O   0  0  0  0  0  0  0  0  0  0  0  0
   -1.7260    1.7182    0.3534 H   0  0  0  0  0  0  0  0  0  0  0  0
   -1.8796   -0.8393    0.6913 H   0  0  0  0  0  0  0  0  0  0  0  0
   -1.5725   -0.5507   -1.0227 H   0  0  0  0  0  0  0  0  0  0  0  0
    0.4914   -1.2968    1.1007 H   0  0  0  0  0  0  0  0  0  0  0  0
    0.0732   -2.1931   -0.3758 H   0  0  0  0  0  0  0  0  0  0  0  0
    1.6805    0.7077    0.8652 H   0  0  0  0  0  0  0  0  0  0  0  0
    2.1167    1.2415   -0.8007 H   0  0  0  0  0  0  0  0  0  0  0  0
  1  2  1  0
  1  6  1  0
  1  7  1  0
  2  3  1  0
  2  8  1  0
  2  9  1  0
  3  4  1  0
  3 10  1  0
  3 11  1  0
  4  5  1  0
  5  6  1  0
  5 12  1  0
  5 13  1  0
M  RAD  1   1   2
M  END
>  <reaction>  (2) 
rmg_rxn_254

>  <mol_properties>  (2) 
{"0": {"label": "acceptor", "atom_type": "Cs"}}

>  <type>  (2) 
r2

$$$$

     RDKit          3D

 14 14  0  0  0  0  0  0  0  0999 V2000
   -1.1778    0.2241    0.1818 C   0  0  0  0  0  0  0  0  0  0  0  0
   -0.5633   -1.1636    0.0678 C   0  0  0  0  0  0  0  0  0  0  0  0
    0.6943   -1.1996    0.7146 O   0  0  0  0  0  0  0  0  0  0  0  0
    1.5547   -0.2288    0.2011 C   0  0  0  0  0  0  0  0  0  0  0  0
    1.0729    1.0696    0.3698 O   0  0  0  0  0  0  0  0  0  0  0  0
   -0.1607    1.2493   -0.2989 C   0  0  0  0  0  0  0  0  0  0  0  0
   -2.0927    0.2866   -0.4117 H   0  0  0  0  0  0  0  0  0  0  0  0
   -1.4303    0.4248    1.2248 H   0  0  0  0  0  0  0  0  0  0  0  0
   -1.1822   -1.9235    0.5431 H   0  0  0  0  0  0  0  0  0  0  0  0
   -0.4389   -1.4347   -0.9919 H   0  0  0  0  0  0  0  0  0  0  0  0
    1.7250   -0.4207   -0.8742 H   0  0  0  0  0  0  0  0  0  0  0  0
    2.4896   -0.3010    0.7524 H   0  0  0  0  0  0  0  0  0  0  0  0
   -0.0080    1.1481   -1.3844 H   0  0  0  0  0  0  0  0  0  0  0  0
   -0.4826    2.2695   -0.0942 H   0  0  0  0  0  0  0  0  0  0  0  0
  1  2  1  0
  1  6  1  0
  1  7  1  0
  1  8  1  0
  2  3  1  0
  2  9  1  0
  2 10  1  0
  3  4  1  0
  4  5  1  0
  4 11  1  0
  4 12  1  0
  5  6  1  0
  6 13  1  0
  6 14  1  0
M  END
>  <reaction>  (3) 
rmg_rxn_254

>  <mol_properties>  (3) 
{"0": {"label": "a_hydrogen", "atom_type": "H0"}, "1": {"label": "acceptor", "atom_type": "Cs"}}

>  <type>  (3) 
r2h

$$$$

     RDKit          3D

 22 21  0  0  0  0  0  0  0  0999 V2000
   -2.1832    1.7034   -0.8348 C   0  0  0  0  0  0  0  0  0  0  0  0
   -1.6417    0.4464   -1.4644 C   0  0  0  0  0  0  0  0  0  0  0  0
   -2.4742   -0.7102   -1.5209 N   0  0  0  0  0  0  0  0  0  0  0  0
   -3.3322   -0.7657   -0.6643 O   0  0  0  0  0  0  0  0  0  0  0  0
   -2.5634    1.5035    0.1660 H   0  0  0  0  0  0  0  0  0  0  0  0
   -1.3954    2.4546   -0.7756 H   0  0  0  0  0  0  0  0  0  0  0  0
   -3.0035    2.1108   -1.4291 H   0  0  0  0  0  0  0  0  0  0  0  0
   -0.7189    0.0560   -0.7190 H   0  0  0  0  0  0  0  0  0  0  0  0
   -1.1315    0.5685   -2.4182 H   0  0  0  0  0  0  0  0  0  0  0  0
    0.3659   -0.3201    0.1826 C   0  0  0  0  0  3  0  0  0  0  0  0
    0.2209   -1.8092    0.2929 C   0  0  0  0  0  0  0  0  0  0  0  0
    1.5555   -2.4019    0.7455 C   0  0  0  0  0  0  0  0  0  0  0  0
    2.5952   -1.9162   -0.0825 O   0  0  0  0  0  0  0  0  0  0  0  0
    2.6759   -0.5357   -0.0331 C   0  0  0  0  0  0  0  0  0  0  0  0
    1.4917    0.0986   -0.4855 O   0  0  0  0  0  0  0  0  0  0  0  0
    0.1256    0.2834    1.0623 H   0  0  0  0  0  0  0  0  0  0  0  0
   -0.5800   -2.0647    0.9869 H   0  0  0  0  0  0  0  0  0  0  0  0
   -0.0332   -2.2249   -0.6857 H   0  0  0  0  0  0  0  0  0  0  0  0
    1.7611   -2.1364    1.7920 H   0  0  0  0  0  0  0  0  0  0  0  0
    1.5608   -3.4868    0.6555 H   0  0  0  0  0  0  0  0  0  0  0  0
    2.8790   -0.2017    0.9975 H   0  0  0  0  0  0  0  0  0  0  0  0
    3.4701   -0.2208   -0.7050 H   0  0  0  0  0  0  0  0  0  0  0  0
  1  2  1  0
  1  5  1  0
  1  6  1  0
  1  7  1  0
  2  3  1  0
  2  8  1  0
  2  9  1  0
  3  4  2  0
 10 11  1  0
 10 15  1  0
 10 16  1  0
 11 12  1  0
 11 17  1  0
 11 18  1  0
 12 13  1  0
 12 19  1  0
 12 20  1  0
 13 14  1  0
 14 15  1  0
 14 21  1  0
 14 22  1  0
M  RAD  1  10   2
M  END
>  <reaction>  (4) 
rmg_rxn_254

>  <mol_properties>  (4) 
{"1": {"label": "*1", "atom_type": "Cs"}, "2": {"label": "*0", "atom_type": "N3d"}, "7": {"label": "*2", "atom_type": "H0"}, "9": {"label": "*3", "atom_type": "Cs"}, "14": {"label": "*4", "atom_type": "O2s"}}

>  <type>  (4) 
ts

$$$$

     RDKit          3D

 22 21  0  0  0  0  0  0  0  0999 V2000
   -1.2295    0.4270   -2.8771 C   0  0  0  0  0  0  0  0  0  0  0  0
   -1.2295    0.4270   -1.3666 C   0  0  0  0  0  0  0  0  0  0  0  0
   -1.2295    1.7530   -0.7031 N   0  0  0  0  0  0  0  0  0  0  0  0
   -1.2295    2.6825   -1.4508 O   0  0  0  0  0  1  0  0  0  0  0  0
   -0.3494    0.9344   -3.2716 H   0  0  0  0  0  0  0  0  0  0  0  0
   -1.2295   -0.6001   -3.2424 H   0  0  0  0  0  0  0  0  0  0  0  0
   -2.1096    0.9344   -3.2716 H   0  0  0  0  0  0  0  0  0  0  0  0
   -0.1841   -0.1818   -0.8541 H   0  0  0  0  0  0  0  0  0  0  0  0
   -2.1007   -0.0803   -0.9395 H   0  0  0  0  0  0  0  0  0  0  0  0
    0.8559   -0.7874   -0.3442 C   0  0  0  0  0  0  0  0  0  0  0  0
    1.6860    0.1439    0.5278 C   0  0  0  0  0  0  0  0  0  0  0  0
    1.9591   -0.5461    1.8567 C   0  0  0  0  0  0  0  0  0  0  0  0
    0.7502   -1.0055    2.4302 O   0  0  0  0  0  0  0  0  0  0  0  0
    0.0674   -1.8539    1.5581 C   0  0  0  0  0  0  0  0  0  0  0  0
   -0.2873   -1.2324    0.3605 O   0  0  0  0  0  0  0  0  0  0  0  0
    1.4598   -1.6556   -0.6495 H   0  0  0  0  0  0  0  0  0  0  0  0
    2.6243    0.3980    0.0296 H   0  0  0  0  0  0  0  0  0  0  0  0
    1.1302    1.0665    0.7053 H   0  0  0  0  0  0  0  0  0  0  0  0
    2.6407   -1.3973    1.7061 H   0  0  0  0  0  0  0  0  0  0  0  0
    2.4128    0.1293    2.5807 H   0  0  0  0  0  0  0  0  0  0  0  0
    0.6934   -2.7389    1.3413 H   0  0  0  0  0  0  0  0  0  0  0  0
   -0.8541   -2.1526    2.0528 H   0  0  0  0  0  0  0  0  0  0  0  0
  1  2  1  0
  1  5  1  0
  1  6  1  0
  1  7  1  0
  2  3  2  3
  2  9  1  0
  3  4  1  0
  8 10  1  0
 10 11  1  0
 10 15  1  0
 10 16  1  0
 11 12  1  0
 11 17  1  0
 11 18  1  0
 12 13  1  0
 12 19  1  0
 12 20  1  0
 13 14  1  0
 14 15  1  0
 14 21  1  0
 14 22  1  0
M  RAD  1   4   2
M  END
>  <reaction>  (5) 
rmg_rxn_254

>  <mol_properties>  (5) 
{"1": {"label": "*1", "atom_type": "Cs"}, "2": {"label": "*0", "atom_type": "N3d"}, "7": {"label": "*2", "atom_type": "H0"}, "9": {"label": "*3", "atom_type": "Cs"}, "14": {"label": "*4", "atom_type": "O2s"}}

>  <type>  (5) 
unop_1

>  <geom_source>  (5) 
Heuristics

$$$$

     RDKit          3D

 22 21  0  0  0  0  0  0  0  0999 V2000
   -1.9991    0.0766   -2.3256 C   0  0  0  0  0  0  0  0  0  0  0  0
   -1.9991    0.0766   -0.8151 C   0  0  0  0  0  0  0  0  0  0  0  0
   -1.9991    1.4026   -0.1515 N   0  0  0  0  0  0  0  0  0  0  0  0
   -1.9991    2.3321   -0.8992 O   0  0  0  0  0  1  0  0  0  0  0  0
   -1.1190    0.5840   -2.7201 H   0  0  0  0  0  0  0  0  0  0  0  0
   -1.9991   -0.9505   -2.6909 H   0  0  0  0  0  0  0  0  0  0  0  0
   -2.8792    0.5840   -2.7201 H   0  0  0  0  0  0  0  0  0  0  0  0
   -0.9537   -0.5322   -0.3025 H   0  0  0  0  0  0  0  0  0  0  0  0
   -2.8703   -0.4307   -0.3880 H   0  0  0  0  0  0  0  0  0  0  0  0
    0.0863   -1.1378    0.2074 C   0  0  0  0  0  0  0  0  0  0  0  0
    1.3065   -1.0316   -0.6961 C   0  0  0  0  0  0  0  0  0  0  0  0
    2.5595   -1.1193    0.1635 C   0  0  0  0  0  0  0  0  0  0  0  0
    2.4975   -0.1813    1.2208 O   0  0  0  0  0  0  0  0  0  0  0  0
    1.3492   -0.3639    1.9918 C   0  0  0  0  0  0  0  0  0  0  0  0
    0.1717   -0.1987    1.2620 O   0  0  0  0  0  0  0  0  0  0  0  0
    0.0142   -2.1536    0.6254 H   0  0  0  0  0  0  0  0  0  0  0  0
    1.2992   -1.8287   -1.4429 H   0  0  0  0  0  0  0  0  0  0  0  0
    1.2901   -0.0724   -1.2171 H   0  0  0  0  0  0  0  0  0  0  0  0
    2.6614   -2.1338    0.5784 H   0  0  0  0  0  0  0  0  0  0  0  0
    3.4602   -0.8918   -0.4050 H   0  0  0  0  0  0  0  0  0  0  0  0
    1.3647   -1.3743    2.4402 H   0  0  0  0  0  0  0  0  0  0  0  0
    1.3573    0.3967    2.7693 H   0  0  0  0  0  0  0  0  0  0  0  0
  1  2  1  0
  1  5  1  0
  1  6  1  0
  1  7  1  0
  2  3  2  3
  2  9  1  0
  3  4  1  0
  8 10  1  0
 10 11  1  0
 10 15  1  0
 10 16  1  0
 11 12  1  0
 11 17  1  0
 11 18  1  0
 12 13  1  0
 12 19  1  0
 12 20  1  0
 13 14  1  0
 14 15  1  0
 14 21  1  0
 14 22  1  0
M  RAD  1   4   2
M  END
>  <reaction>  (6) 
rmg_rxn_254

>  <mol_properties>  (6) 
{"1": {"label": "*1", "atom_type": "Cs"}, "2": {"label": "*0", "atom_type": "N3d"}, "7": {"label": "*2", "atom_type": "H0"}, "9": {"label": "*3", "atom_type": "Cs"}, "14": {"label": "*4", "atom_type": "O2s"}}

>  <type>  (6) 
unop_2

>  <geom_source>  (6) 
Heuristics

$$$$

     RDKit          3D

 22 21  0  0  0  0  0  0  0  0999 V2000
   -1.2126    0.8364   -2.7342 C   0  0  0  0  0  0  0  0  0  0  0  0
   -1.2126    0.8364   -1.2237 C   0  0  0  0  0  0  0  0  0  0  0  0
   -1.2126    2.1623   -0.5601 N   0  0  0  0  0  0  0  0  0  0  0  0
   -1.2126    3.0919   -1.3078 O   0  0  0  0  0  1  0  0  0  0  0  0
   -0.3325    1.3437   -3.1287 H   0  0  0  0  0  0  0  0  0  0  0  0
   -1.2126   -0.1908   -3.0994 H   0  0  0  0  0  0  0  0  0  0  0  0
   -2.0927    1.3437   -3.1287 H   0  0  0  0  0  0  0  0  0  0  0  0
   -0.1672    0.2276   -0.7111 H   0  0  0  0  0  0  0  0  0  0  0  0
   -2.0838    0.3290   -0.7965 H   0  0  0  0  0  0  0  0  0  0  0  0
    0.8728   -0.3780   -0.2012 C   0  0  0  0  0  0  0  0  0  0  0  0
    1.2687    0.2081    1.1465 C   0  0  0  0  0  0  0  0  0  0  0  0
    1.7046   -0.9261    2.0630 C   0  0  0  0  0  0  0  0  0  0  0  0
    0.7142   -1.9355    2.1020 O   0  0  0  0  0  0  0  0  0  0  0  0
    0.4258   -2.4104    0.8222 C   0  0  0  0  0  0  0  0  0  0  0  0
   -0.0681   -1.4201   -0.0273 O   0  0  0  0  0  0  0  0  0  0  0  0
    1.7626   -0.7693   -0.7179 H   0  0  0  0  0  0  0  0  0  0  0  0
    2.0769    0.9330    1.0250 H   0  0  0  0  0  0  0  0  0  0  0  0
    0.4106    0.7205    1.5858 H   0  0  0  0  0  0  0  0  0  0  0  0
    2.6529   -1.3560    1.7056 H   0  0  0  0  0  0  0  0  0  0  0  0
    1.8489   -0.5887    3.0884 H   0  0  0  0  0  0  0  0  0  0  0  0
    1.3378   -2.8522    0.3803 H   0  0  0  0  0  0  0  0  0  0  0  0
   -0.3505   -3.1654    0.9247 H   0  0  0  0  0  0  0  0  0  0  0  0
  1  2  1  0
  1  5  1  0
  1  6  1  0
  1  7  1  0
  2  3  2  3
  2  9  1  0
  3  4  1  0
  8 10  1  0
 10 11  1  0
 10 15  1  0
 10 16  1  0
 11 12  1  0
 11 17  1  0
 11 18  1  0
 12 13  1  0
 12 19  1  0
 12 20  1  0
 13 14  1  0
 14 15  1  0
 14 21  1  0
 14 22  1  0
M  RAD  1   4   2
M  END
>  <reaction>  (7) 
rmg_rxn_254

>  <mol_properties>  (7) 
{"1": {"label": "*1", "atom_type": "Cs"}, "2": {"label": "*0", "atom_type": "N3d"}, "7": {"label": "*2", "atom_type": "H0"}, "9": {"label": "*3", "atom_type": "Cs"}, "14": {"label": "*4", "atom_type": "O2s"}}

>  <type>  (7) 
unop_3

>  <geom_source>  (7) 
Heuristics

$$$$

     RDKit          3D

 22 21  0  0  0  0  0  0  0  0999 V2000
   -1.8996    0.8583   -2.2687 C   0  0  0  0  0  0  0  0  0  0  0  0
   -1.8996    0.8583   -0.7582 C   0  0  0  0  0  0  0  0  0  0  0  0
   -1.8996    2.1843   -0.0947 N   0  0  0  0  0  0  0  0  0  0  0  0
   -1.8996    3.1138   -0.8424 O   0  0  0  0  0  1  0  0  0  0  0  0
   -1.0195    1.3657   -2.6632 H   0  0  0  0  0  0  0  0  0  0  0  0
   -1.8996   -0.1688   -2.6340 H   0  0  0  0  0  0  0  0  0  0  0  0
   -2.7798    1.3657   -2.6632 H   0  0  0  0  0  0  0  0  0  0  0  0
   -0.8542    0.2495   -0.2457 H   0  0  0  0  0  0  0  0  0  0  0  0
   -2.7708    0.3510   -0.3311 H   0  0  0  0  0  0  0  0  0  0  0  0
    0.1857   -0.3560    0.2642 C   0  0  0  0  0  0  0  0  0  0  0  0
    0.2615   -1.8148   -0.1636 C   0  0  0  0  0  0  0  0  0  0  0  0
    1.0976   -2.5788    0.8531 C   0  0  0  0  0  0  0  0  0  0  0  0
    2.3411   -1.9341    1.0517 O   0  0  0  0  0  0  0  0  0  0  0  0
    2.1653   -0.6073    1.4458 C   0  0  0  0  0  0  0  0  0  0  0  0
    1.4836    0.1563    0.4979 O   0  0  0  0  0  0  0  0  0  0  0  0
   -0.4161   -0.2631    1.1813 H   0  0  0  0  0  0  0  0  0  0  0  0
   -0.7403   -2.2445   -0.2343 H   0  0  0  0  0  0  0  0  0  0  0  0
    0.7340   -1.8810   -1.1455 H   0  0  0  0  0  0  0  0  0  0  0  0
    0.5599   -2.6423    1.8116 H   0  0  0  0  0  0  0  0  0  0  0  0
    1.3193   -3.5916    0.5195 H   0  0  0  0  0  0  0  0  0  0  0  0
    1.6157   -0.5788    2.4046 H   0  0  0  0  0  0  0  0  0  0  0  0
    3.1547   -0.1707    1.5621 H   0  0  0  0  0  0  0  0  0  0  0  0
  1  2  1  0
  1  5  1  0
  1  6  1  0
  1  7  1  0
  2  3  2  3
  2  9  1  0
  3  4  1  0
  8 10  1  0
 10 11  1  0
 10 15  1  0
 10 16  1  0
 11 12  1  0
 11 17  1  0
 11 18  1  0
 12 13  1  0
 12 19  1  0
 12 20  1  0
 13 14  1  0
 14 15  1  0
 14 21  1  0
 14 22  1  0
M  RAD  1   4   2
M  END
>  <reaction>  (8) 
rmg_rxn_254

>  <mol_properties>  (8) 
{"1": {"label": "*1", "atom_type": "Cs"}, "2": {"label": "*0", "atom_type": "N3d"}, "7": {"label": "*2", "atom_type": "H0"}, "9": {"label": "*3", "atom_type": "Cs"}, "14": {"label": "*4", "atom_type": "O2s"}}

>  <type>  (8) 
unop_4

>  <geom_source>  (8) 
Heuristics

$$$$

     RDKit          3D

 22 21  0  0  0  0  0  0  0  0999 V2000
   -1.5632    1.0186   -2.4701 C   0  0  0  0  0  0  0  0  0  0  0  0
   -1.5632    1.0186   -0.9597 C   0  0  0  0  0  0  0  0  0  0  0  0
   -1.5632    2.3445   -0.2961 N   0  0  0  0  0  0  0  0  0  0  0  0
   -1.5632    3.2741   -1.0438 O   0  0  0  0  0  1  0  0  0  0  0  0
   -0.6830    1.5260   -2.8646 H   0  0  0  0  0  0  0  0  0  0  0  0
   -1.5632   -0.0086   -2.8354 H   0  0  0  0  0  0  0  0  0  0  0  0
   -2.4433    1.5260   -2.8646 H   0  0  0  0  0  0  0  0  0  0  0  0
   -0.5177    0.4098   -0.4471 H   0  0  0  0  0  0  0  0  0  0  0  0
   -2.4344    0.5113   -0.5325 H   0  0  0  0  0  0  0  0  0  0  0  0
    0.5222   -0.1958    0.0628 C   0  0  0  0  0  0  0  0  0  0  0  0
    0.4992   -0.1824    1.5846 C   0  0  0  0  0  0  0  0  0  0  0  0
    1.6078   -1.0905    2.0975 C   0  0  0  0  0  0  0  0  0  0  0  0
    1.5161   -2.3674    1.4954 O   0  0  0  0  0  0  0  0  0  0  0  0
    1.5511   -2.2736    0.1038 C   0  0  0  0  0  0  0  0  0  0  0  0
    0.4952   -1.5260   -0.4181 O   0  0  0  0  0  0  0  0  0  0  0  0
    1.4288    0.3090   -0.3047 H   0  0  0  0  0  0  0  0  0  0  0  0
    0.6345    0.8346    1.9597 H   0  0  0  0  0  0  0  0  0  0  0  0
   -0.4655   -0.5530    1.9364 H   0  0  0  0  0  0  0  0  0  0  0  0
    2.5908   -0.6486    1.8731 H   0  0  0  0  0  0  0  0  0  0  0  0
    1.5420   -1.2458    3.1735 H   0  0  0  0  0  0  0  0  0  0  0  0
    2.5106   -1.8229   -0.2099 H   0  0  0  0  0  0  0  0  0  0  0  0
    1.4588   -3.2830   -0.2908 H   0  0  0  0  0  0  0  0  0  0  0  0
  1  2  1  0
  1  5  1  0
  1  6  1  0
  1  7  1  0
  2  3  2  3
  2  9  1  0
  3  4  1  0
  8 10  1  0
 10 11  1  0
 10 15  1  0
 10 16  1  0
 11 12  1  0
 11 17  1  0
 11 18  1  0
 12 13  1  0
 12 19  1  0
 12 20  1  0
 13 14  1  0
 14 15  1  0
 14 21  1  0
 14 22  1  0
M  RAD  1   4   2
M  END
>  <reaction>  (9) 
rmg_rxn_254

>  <mol_properties>  (9) 
{"1": {"label": "*1", "atom_type": "Cs"}, "2": {"label": "*0", "atom_type": "N3d"}, "7": {"label": "*2", "atom_type": "H0"}, "9": {"label": "*3", "atom_type": "Cs"}, "14": {"label": "*4", "atom_type": "O2s"}}

>  <type>  (9) 
unop_5

>  <geom_source>  (9) 
Heuristics

$$$$

     RDKit          3D

 22 21  0  0  0  0  0  0  0  0999 V2000
   -1.8261    0.8520   -2.4181 C   0  0  0  0  0  0  0  0  0  0  0  0
   -1.8261    0.8520   -0.9076 C   0  0  0  0  0  0  0  0  0  0  0  0
   -1.8261    2.1779   -0.2440 N   0  0  0  0  0  0  0  0  0  0  0  0
   -1.8261    3.1075   -0.9917 O   0  0  0  0  0  1  0  0  0  0  0  0
   -0.9460    1.3593   -2.8125 H   0  0  0  0  0  0  0  0  0  0  0  0
   -1.8261   -0.1752   -2.7833 H   0  0  0  0  0  0  0  0  0  0  0  0
   -2.7062    1.3593   -2.8125 H   0  0  0  0  0  0  0  0  0  0  0  0
   -0.7807    0.2432   -0.3950 H   0  0  0  0  0  0  0  0  0  0  0  0
   -2.6973    0.3446   -0.4804 H   0  0  0  0  0  0  0  0  0  0  0  0
    0.2593   -0.3624    0.1149 C   0  0  0  0  0  0  0  0  0  0  0  0
    0.0019   -1.8460    0.3370 C   0  0  0  0  0  0  0  0  0  0  0  0
    0.8236   -2.3106    1.5309 C   0  0  0  0  0  0  0  0  0  0  0  0
    2.1799   -1.9426    1.3679 O   0  0  0  0  0  0  0  0  0  0  0  0
    2.3108   -0.5668    1.1767 C   0  0  0  0  0  0  0  0  0  0  0  0
    1.6491   -0.1105    0.0363 O   0  0  0  0  0  0  0  0  0  0  0  0
   -0.1737    0.2228    0.9407 H   0  0  0  0  0  0  0  0  0  0  0  0
   -1.0611   -2.0272    0.5113 H   0  0  0  0  0  0  0  0  0  0  0  0
    0.3045   -2.4039   -0.5513 H   0  0  0  0  0  0  0  0  0  0  0  0
    0.4304   -1.8625    2.4563 H   0  0  0  0  0  0  0  0  0  0  0  0
    0.8039   -3.3939    1.6422 H   0  0  0  0  0  0  0  0  0  0  0  0
    1.9229   -0.0341    2.0643 H   0  0  0  0  0  0  0  0  0  0  0  0
    3.3697   -0.3584    1.0414 H   0  0  0  0  0  0  0  0  0  0  0  0
  1  2  1  0
  1  5  1  0
  1  6  1  0
  1  7  1  0
  2  3  2  3
  2  9  1  0
  3  4  1  0
  8 10  1  0
 10 11  1  0
 10 15  1  0
 10 16  1  0
 11 12  1  0
 11 17  1  0
 11 18  1  0
 12 13  1  0
 12 19  1  0
 12 20  1  0
 13 14  1  0
 14 15  1  0
 14 21  1  0
 14 22  1  0
M  RAD  1   4   2
M  END
>  <reaction>  (10) 
rmg_rxn_254

>  <mol_properties>  (10) 
{"1": {"label": "*1", "atom_type": "Cs"}, "2": {"label": "*0", "atom_type": "N3d"}, "7": {"label": "*2", "atom_type": "H0"}, "9": {"label": "*3", "atom_type": "Cs"}, "14": {"label": "*4", "atom_type": "O2s"}}

>  <type>  (10) 
unop_6

>  <geom_source>  (10) 
Heuristics

$$$$

     RDKit          3D

 22 21  0  0  0  0  0  0  0  0999 V2000
   -1.8337    0.7872   -2.4773 C   0  0  0  0  0  0  0  0  0  0  0  0
   -1.8337    0.7872   -0.9668 C   0  0  0  0  0  0  0  0  0  0  0  0
   -1.8337    2.1131   -0.3032 N   0  0  0  0  0  0  0  0  0  0  0  0
   -1.8337    3.0427   -1.0509 O   0  0  0  0  0  1  0  0  0  0  0  0
   -0.9536    1.2946   -2.8718 H   0  0  0  0  0  0  0  0  0  0  0  0
   -1.8337   -0.2400   -2.8426 H   0  0  0  0  0  0  0  0  0  0  0  0
   -2.7138    1.2946   -2.8718 H   0  0  0  0  0  0  0  0  0  0  0  0
   -0.7882    0.1784   -0.4542 H   0  0  0  0  0  0  0  0  0  0  0  0
   -2.7049    0.2799   -0.5396 H   0  0  0  0  0  0  0  0  0  0  0  0
    0.2517   -0.4272    0.0557 C   0  0  0  0  0  0  0  0  0  0  0  0
   -0.1485   -1.6088    0.9276 C   0  0  0  0  0  0  0  0  0  0  0  0
    0.8826   -1.7690    2.0357 C   0  0  0  0  0  0  0  0  0  0  0  0
    2.1866   -1.8252    1.4901 O   0  0  0  0  0  0  0  0  0  0  0  0
    2.4587   -0.6982    0.7140 C   0  0  0  0  0  0  0  0  0  0  0  0
    1.5933   -0.5633   -0.3720 O   0  0  0  0  0  0  0  0  0  0  0  0
    0.1395    0.5119    0.6191 H   0  0  0  0  0  0  0  0  0  0  0  0
   -1.1430   -1.4513    1.3512 H   0  0  0  0  0  0  0  0  0  0  0  0
   -0.1731   -2.5159    0.3207 H   0  0  0  0  0  0  0  0  0  0  0  0
    0.8147   -0.9244    2.7384 H   0  0  0  0  0  0  0  0  0  0  0  0
    0.7375   -2.6912    2.5968 H   0  0  0  0  0  0  0  0  0  0  0  0
    2.3983    0.2066    1.3464 H   0  0  0  0  0  0  0  0  0  0  0  0
    3.4635   -0.8156    0.3143 H   0  0  0  0  0  0  0  0  0  0  0  0
  1  2  1  0
  1  5  1  0
  1  6  1  0
  1  7  1  0
  2  3  2  3
  2  9  1  0
  3  4  1  0
  8 10  1  0
 10 11  1  0
 10 15  1  0
 10 16  1  0
 11 12  1  0
 11 17  1  0
 11 18  1  0
 12 13  1  0
 12 19  1  0
 12 20  1  0
 13 14  1  0
 14 15  1  0
 14 21  1  0
 14 22  1  0
M  RAD  1   4   2
M  END
>  <reaction>  (11) 
rmg_rxn_254

>  <mol_properties>  (11) 
{"1": {"label": "*1", "atom_type": "Cs"}, "2": {"label": "*0", "atom_type": "N3d"}, "7": {"label": "*2", "atom_type": "H0"}, "9": {"label": "*3", "atom_type": "Cs"}, "14": {"label": "*4", "atom_type": "O2s"}}

>  <type>  (11) 
unop_7

>  <geom_source>  (11) 
Heuristics

$$$$

     RDKit          3D

 22 21  0  0  0  0  0  0  0  0999 V2000
   -1.4604    0.1017   -2.8123 C   0  0  0  0  0  0  0  0  0  0  0  0
   -1.4604    0.1017   -1.3019 C   0  0  0  0  0  0  0  0  0  0  0  0
   -1.4604    1.4276   -0.6383 N   0  0  0  0  0  0  0  0  0  0  0  0
   -1.4604    2.3572   -1.3860 O   0  0  0  0  0  1  0  0  0  0  0  0
   -0.5803    0.6090   -3.2068 H   0  0  0  0  0  0  0  0  0  0  0  0
   -1.4604   -0.9255   -3.1776 H   0  0  0  0  0  0  0  0  0  0  0  0
   -2.3405    0.6090   -3.2068 H   0  0  0  0  0  0  0  0  0  0  0  0
   -0.4149   -0.5071   -0.7893 H   0  0  0  0  0  0  0  0  0  0  0  0
   -2.3316   -0.4057   -0.8747 H   0  0  0  0  0  0  0  0  0  0  0  0
    0.6250   -1.1127   -0.2794 C   0  0  0  0  0  0  0  0  0  0  0  0
    1.7883   -0.1566   -0.0573 C   0  0  0  0  0  0  0  0  0  0  0  0
    2.3212   -0.3560    1.3544 C   0  0  0  0  0  0  0  0  0  0  0  0
    1.2682   -0.2674    2.2950 O   0  0  0  0  0  0  0  0  0  0  0  0
    0.2566   -1.1846    2.0091 C   0  0  0  0  0  0  0  0  0  0  0  0
   -0.3269   -0.9790    0.7586 O   0  0  0  0  0  0  0  0  0  0  0  0
    0.9909   -2.1505   -0.3104 H   0  0  0  0  0  0  0  0  0  0  0  0
    2.5763   -0.3368   -0.7920 H   0  0  0  0  0  0  0  0  0  0  0  0
    1.4400    0.8717   -0.1720 H   0  0  0  0  0  0  0  0  0  0  0  0
    2.8065   -1.3405    1.4383 H   0  0  0  0  0  0  0  0  0  0  0  0
    3.0495    0.4068    1.6263 H   0  0  0  0  0  0  0  0  0  0  0  0
    0.6658   -2.2103    2.0593 H   0  0  0  0  0  0  0  0  0  0  0  0
   -0.5228   -1.0497    2.7558 H   0  0  0  0  0  0  0  0  0  0  0  0
  1  2  1  0
  1  5  1  0
  1  6  1  0
  1  7  1  0
  2  3  2  3
  2  9  1  0
  3  4  1  0
  8 10  1  0
 10 11  1  0
 10 15  1  0
 10 16  1  0
 11 12  1  0
 11 17  1  0
 11 18  1  0
 12 13  1  0
 12 19  1  0
 12 20  1  0
 13 14  1  0
 14 15  1  0
 14 21  1  0
 14 22  1  0
M  RAD  1   4   2
M  END
>  <reaction>  (12) 
rmg_rxn_254

>  <mol_properties>  (12) 
{"1": {"label": "*1", "atom_type": "Cs"}, "2": {"label": "*0", "atom_type": "N3d"}, "7": {"label": "*2", "atom_type": "H0"}, "9": {"label": "*3", "atom_type": "Cs"}, "14": {"label": "*4", "atom_type": "O2s"}}

>  <type>  (12) 
unop_8

>  <geom_source>  (12) 
Heuristics

$$$$

     RDKit          3D

 22 21  0  0  0  0  0  0  0  0999 V2000
   -2.0283    0.6969   -2.1338 C   0  0  0  0  0  0  0  0  0  0  0  0
   -2.0283    0.6969   -0.6233 C   0  0  0  0  0  0  0  0  0  0  0  0
   -2.0283    2.0228    0.0403 N   0  0  0  0  0  0  0  0  0  0  0  0
   -2.0283    2.9524   -0.7074 O   0  0  0  0  0  1  0  0  0  0  0  0
   -1.1482    1.2043   -2.5283 H   0  0  0  0  0  0  0  0  0  0  0  0
   -2.0283   -0.3303   -2.4991 H   0  0  0  0  0  0  0  0  0  0  0  0
   -2.9084    1.2043   -2.5283 H   0  0  0  0  0  0  0  0  0  0  0  0
   -0.9829    0.0881   -0.1107 H   0  0  0  0  0  0  0  0  0  0  0  0
   -2.8995    0.1896   -0.1962 H   0  0  0  0  0  0  0  0  0  0  0  0
    0.0571   -0.5175    0.3991 C   0  0  0  0  0  0  0  0  0  0  0  0
    0.5670   -1.6311   -0.5044 C   0  0  0  0  0  0  0  0  0  0  0  0
    1.6238   -2.4258    0.2493 C   0  0  0  0  0  0  0  0  0  0  0  0
    2.6132   -1.5589    0.7698 O   0  0  0  0  0  0  0  0  0  0  0  0
    2.0479   -0.5795    1.5869 C   0  0  0  0  0  0  0  0  0  0  0  0
    1.1398    0.2358    0.9107 O   0  0  0  0  0  0  0  0  0  0  0  0
   -0.5201   -0.9441    1.2338 H   0  0  0  0  0  0  0  0  0  0  0  0
   -0.2554   -2.2824   -0.8090 H   0  0  0  0  0  0  0  0  0  0  0  0
    1.0113   -1.1959   -1.4016 H   0  0  0  0  0  0  0  0  0  0  0  0
    1.1569   -2.9867    1.0735 H   0  0  0  0  0  0  0  0  0  0  0  0
    2.1378   -3.1357   -0.3973 H   0  0  0  0  0  0  0  0  0  0  0  0
    1.5413   -1.0625    2.4426 H   0  0  0  0  0  0  0  0  0  0  0  0
    2.8575    0.0579    1.9354 H   0  0  0  0  0  0  0  0  0  0  0  0
  1  2  1  0
  1  5  1  0
  1  6  1  0
  1  7  1  0
  2  3  2  3
  2  9  1  0
  3  4  1  0
  8 10  1  0
 10 11  1  0
 10 15  1  0
 10 16  1  0
 11 12  1  0
 11 17  1  0
 11 18  1  0
 12 13  1  0
 12 19  1  0
 12 20  1  0
 13 14  1  0
 14 15  1  0
 14 21  1  0
 14 22  1  0
M  RAD  1   4   2
M  END
>  <reaction>  (13) 
rmg_rxn_254

>  <mol_properties>  (13) 
{"1": {"label": "*1", "atom_type": "Cs"}, "2": {"label": "*0", "atom_type": "N3d"}, "7": {"label": "*2", "atom_type": "H0"}, "9": {"label": "*3", "atom_type": "Cs"}, "14": {"label": "*4", "atom_type": "O2s"}}

>  <type>  (13) 
unop_9

>  <geom_source>  (13) 
Heuristics

$$$$

     RDKit          3D

 22 21  0  0  0  0  0  0  0  0999 V2000
   -1.7537   -0.0310   -2.5948 C   0  0  0  0  0  0  0  0  0  0  0  0
   -1.7537   -0.0310   -1.0843 C   0  0  0  0  0  0  0  0  0  0  0  0
   -1.7537    1.2949   -0.4208 N   0  0  0  0  0  0  0  0  0  0  0  0
   -1.7537    2.2245   -1.1685 O   0  0  0  0  0  1  0  0  0  0  0  0
   -0.8736    0.4763   -2.9893 H   0  0  0  0  0  0  0  0  0  0  0  0
   -1.7537   -1.0582   -2.9601 H   0  0  0  0  0  0  0  0  0  0  0  0
   -2.6338    0.4763   -2.9893 H   0  0  0  0  0  0  0  0  0  0  0  0
   -0.7083   -0.6398   -0.5718 H   0  0  0  0  0  0  0  0  0  0  0  0
   -2.6249   -0.5383   -0.6572 H   0  0  0  0  0  0  0  0  0  0  0  0
    0.3317   -1.2454   -0.0619 C   0  0  0  0  0  0  0  0  0  0  0  0
    1.6377   -0.5913   -0.4896 C   0  0  0  0  0  0  0  0  0  0  0  0
    2.5771   -0.5485    0.7071 C   0  0  0  0  0  0  0  0  0  0  0  0
    1.9317    0.0431    1.8184 O   0  0  0  0  0  0  0  0  0  0  0  0
    0.7510   -0.6296    2.1342 C   0  0  0  0  0  0  0  0  0  0  0  0
   -0.1799   -0.6122    1.0952 O   0  0  0  0  0  0  0  0  0  0  0  0
    0.4960   -2.3137    0.1466 H   0  0  0  0  0  0  0  0  0  0  0  0
    2.0922   -1.1482   -1.3121 H   0  0  0  0  0  0  0  0  0  0  0  0
    1.4391    0.4262   -0.8318 H   0  0  0  0  0  0  0  0  0  0  0  0
    2.8994   -1.5678    0.9697 H   0  0  0  0  0  0  0  0  0  0  0  0
    3.4657    0.0484    0.5063 H   0  0  0  0  0  0  0  0  0  0  0  0
    0.9848   -1.6767    2.4005 H   0  0  0  0  0  0  0  0  0  0  0  0
    0.3013   -0.1141    2.9799 H   0  0  0  0  0  0  0  0  0  0  0  0
  1  2  1  0
  1  5  1  0
  1  6  1  0
  1  7  1  0
  2  3  2  3
  2  9  1  0
  3  4  1  0
  8 10  1  0
 10 11  1  0
 10 15  1  0
 10 16  1  0
 11 12  1  0
 11 17  1  0
 11 18  1  0
 12 13  1  0
 12 19  1  0
 12 20  1  0
 13 14  1  0
 14 15  1  0
 14 21  1  0
 14 22  1  0
M  RAD  1   4   2
M  END
>  <reaction>  (14) 
rmg_rxn_254

>  <mol_properties>  (14) 
{"1": {"label": "*1", "atom_type": "Cs"}, "2": {"label": "*0", "atom_type": "N3d"}, "7": {"label": "*2", "atom_type": "H0"}, "9": {"label": "*3", "atom_type": "Cs"}, "14": {"label": "*4", "atom_type": "O2s"}}

>  <type>  (14) 
unop_10

>  <geom_source>  (14) 
Heuristics

$$$$

     RDKit          3D

 22 21  0  0  0  0  0  0  0  0999 V2000
   -1.8330    0.8334   -2.4302 C   0  0  0  0  0  0  0  0  0  0  0  0
   -1.8330    0.8334   -0.9198 C   0  0  0  0  0  0  0  0  0  0  0  0
   -1.8330    2.1593   -0.2562 N   0  0  0  0  0  0  0  0  0  0  0  0
   -1.8330    3.0889   -1.0039 O   0  0  0  0  0  1  0  0  0  0  0  0
   -0.9529    1.3408   -2.8247 H   0  0  0  0  0  0  0  0  0  0  0  0
   -1.8330   -0.1938   -2.7955 H   0  0  0  0  0  0  0  0  0  0  0  0
   -2.7131    1.3408   -2.8247 H   0  0  0  0  0  0  0  0  0  0  0  0
   -0.7876    0.2246   -0.4072 H   0  0  0  0  0  0  0  0  0  0  0  0
   -2.7042    0.3261   -0.4926 H   0  0  0  0  0  0  0  0  0  0  0  0
    0.2524   -0.3810    0.1027 C   0  0  0  0  0  0  0  0  0  0  0  0
   -0.0620   -1.0146    1.4504 C   0  0  0  0  0  0  0  0  0  0  0  0
    1.2434   -1.2424    2.1991 C   0  0  0  0  0  0  0  0  0  0  0  0
    2.1587   -1.9531    1.3874 O   0  0  0  0  0  0  0  0  0  0  0  0
    2.3842   -1.2903    0.1806 C   0  0  0  0  0  0  0  0  0  0  0  0
    1.2266   -1.1429   -0.5840 O   0  0  0  0  0  0  0  0  0  0  0  0
    0.6234    0.6454    0.2464 H   0  0  0  0  0  0  0  0  0  0  0  0
   -0.7270   -0.3700    2.0296 H   0  0  0  0  0  0  0  0  0  0  0  0
   -0.5623   -1.9722    1.2934 H   0  0  0  0  0  0  0  0  0  0  0  0
    1.6842   -0.2766    2.4903 H   0  0  0  0  0  0  0  0  0  0  0  0
    1.0977   -1.8358    3.1007 H   0  0  0  0  0  0  0  0  0  0  0  0
    2.8193   -0.2946    0.3841 H   0  0  0  0  0  0  0  0  0  0  0  0
    3.0782   -1.8971   -0.3968 H   0  0  0  0  0  0  0  0  0  0  0  0
  1  2  1  0
  1  5  1  0
  1  6  1  0
  1  7  1  0
  2  3  2  3
  2  9  1  0
  3  4  1  0
  8 10  1  0
 10 11  1  0
 10 15  1  0
 10 16  1  0
 11 12  1  0
 11 17  1  0
 11 18  1  0
 12 13  1  0
 12 19  1  0
 12 20  1  0
 13 14  1  0
 14 15  1  0
 14 21  1  0
 14 22  1  0
M  RAD  1   4   2
M  END
>  <reaction>  (15) 
rmg_rxn_254

>  <mol_properties>  (15) 
{"1": {"label": "*1", "atom_type": "Cs"}, "2": {"label": "*0", "atom_type": "N3d"}, "7": {"label": "*2", "atom_type": "H0"}, "9": {"label": "*3", "atom_type": "Cs"}, "14": {"label": "*4", "atom_type": "O2s"}}

>  <type>  (15) 
unop_11

>  <geom_source>  (15) 
Heuristics

$$$$

     RDKit          3D

 22 21  0  0  0  0  0  0  0  0999 V2000
   -2.0975    0.3792   -2.1397 C   0  0  0  0  0  0  0  0  0  0  0  0
   -2.0975    0.3792   -0.6292 C   0  0  0  0  0  0  0  0  0  0  0  0
   -2.0975    1.7051    0.0344 N   0  0  0  0  0  0  0  0  0  0  0  0
   -2.0975    2.6347   -0.7133 O   0  0  0  0  0  1  0  0  0  0  0  0
   -1.2174    0.8866   -2.5342 H   0  0  0  0  0  0  0  0  0  0  0  0
   -2.0975   -0.6480   -2.5050 H   0  0  0  0  0  0  0  0  0  0  0  0
   -2.9777    0.8866   -2.5342 H   0  0  0  0  0  0  0  0  0  0  0  0
   -1.0521   -0.2296   -0.1166 H   0  0  0  0  0  0  0  0  0  0  0  0
   -2.9687   -0.1281   -0.2020 H   0  0  0  0  0  0  0  0  0  0  0  0
   -0.0122   -0.8352    0.3933 C   0  0  0  0  0  0  0  0  0  0  0  0
    0.9167   -1.3761   -0.6844 C   0  0  0  0  0  0  0  0  0  0  0  0
    2.1998   -1.8607   -0.0246 C   0  0  0  0  0  0  0  0  0  0  0  0
    2.7430   -0.8468    0.7989 O   0  0  0  0  0  0  0  0  0  0  0  0
    1.8193   -0.4230    1.7548 C   0  0  0  0  0  0  0  0  0  0  0  0
    0.6629    0.1176    1.1919 O   0  0  0  0  0  0  0  0  0  0  0  0
   -0.3712   -1.6588    1.0293 H   0  0  0  0  0  0  0  0  0  0  0  0
    0.4356   -2.1917   -1.2290 H   0  0  0  0  0  0  0  0  0  0  0  0
    1.1515   -0.5804   -1.3940 H   0  0  0  0  0  0  0  0  0  0  0  0
    1.9963   -2.7565    0.5820 H   0  0  0  0  0  0  0  0  0  0  0  0
    2.9648   -2.1126   -0.7577 H   0  0  0  0  0  0  0  0  0  0  0  0
    1.5476   -1.2742    2.4057 H   0  0  0  0  0  0  0  0  0  0  0  0
    2.2940    0.3637    2.3368 H   0  0  0  0  0  0  0  0  0  0  0  0
  1  2  1  0
  1  5  1  0
  1  6  1  0
  1  7  1  0
  2  3  2  3
  2  9  1  0
  3  4  1  0
  8 10  1  0
 10 11  1  0
 10 15  1  0
 10 16  1  0
 11 12  1  0
 11 17  1  0
 11 18  1  0
 12 13  1  0
 12 19  1  0
 12 20  1  0
 13 14  1  0
 14 15  1  0
 14 21  1  0
 14 22  1  0
M  RAD  1   4   2
M  END
>  <reaction>  (16) 
rmg_rxn_254

>  <mol_properties>  (16) 
{"1": {"label": "*1", "atom_type": "Cs"}, "2": {"label": "*0", "atom_type": "N3d"}, "7": {"label": "*2", "atom_type": "H0"}, "9": {"label": "*3", "atom_type": "Cs"}, "14": {"label": "*4", "atom_type": "O2s"}}

>  <type>  (16) 
unop_12

>  <geom_source>  (16) 
Heuristics

$$$$

     RDKit          3D

 22 21  0  0  0  0  0  0  0  0999 V2000
   -0.9153    0.8630   -1.1390 O   0  0  0  0  0  0  0  0  0  0  0  0
   -2.7449    0.7649    0.4086 O   0  0  0  0  0  0  0  0  0  0  0  0
    3.2184    1.7035   -1.0588 O   0  0  0  0  0  1  0  0  0  0  0  0
    3.2215    0.5190   -1.2048 N   0  0  0  0  0  0  0  0  0  0  0  0
   -1.1471   -1.0334    0.3247 C   0  0  0  0  0  0  0  0  0  0  0  0
   -0.2620    0.1277   -0.1277 C   0  0  0  0  0  0  0  0  0  0  0  0
   -2.6139   -0.6221    0.1866 C   0  0  0  0  0  0  0  0  0  0  0  0
   -2.0799    1.4967   -0.6174 C   0  0  0  0  0  0  0  0  0  0  0  0
    2.5891   -0.3631    0.9776 C   0  0  0  0  0  0  0  0  0  0  0  0
    2.2658   -0.3044   -0.5094 C   0  0  0  0  0  0  0  0  0  0  0  0
   -0.9144   -1.2851    1.3821 H   0  0  0  0  0  0  0  0  0  0  0  0
   -0.9518   -1.9281   -0.3047 H   0  0  0  0  0  0  0  0  0  0  0  0
   -0.0071    0.7873    0.7340 H   0  0  0  0  0  0  0  0  0  0  0  0
    0.8769   -0.3556   -0.6096 H   0  0  0  0  0  0  0  0  0  0  0  0
   -3.0051   -0.8960   -0.8206 H   0  0  0  0  0  0  0  0  0  0  0  0
   -3.2225   -1.1687    0.9376 H   0  0  0  0  0  0  0  0  0  0  0  0
   -2.7915    1.6717   -1.4519 H   0  0  0  0  0  0  0  0  0  0  0  0
   -1.7973    2.4928   -0.2156 H   0  0  0  0  0  0  0  0  0  0  0  0
    1.8513   -1.0155    1.4893 H   0  0  0  0  0  0  0  0  0  0  0  0
    2.5322    0.6534    1.4204 H   0  0  0  0  0  0  0  0  0  0  0  0
    3.6078   -0.7778    1.1329 H   0  0  0  0  0  0  0  0  0  0  0  0
    2.2897   -1.3301   -0.9342 H   0  0  0  0  0  0  0  0  0  0  0  0
  1  6  1  0
  1  8  1  0
  2  7  1  0
  2  8  1  0
  3  4  1  0
  4 10  2  3
  5  6  1  0
  5  7  1  0
  5 11  1  0
  5 12  1  0
  6 13  1  0
  6 14  1  0
  7 15  1  0
  7 16  1  0
  8 17  1  0
  8 18  1  0
  9 10  1  0
  9 19  1  0
  9 20  1  0
  9 21  1  0
 10 22  1  0
M  RAD  1   3   2
M  END
>  <reaction>  (17) 
rmg_rxn_254

>  <mol_properties>  (17) 
{"1": {"label": "*1", "atom_type": "Cs"}, "2": {"label": "*0", "atom_type": "N3d"}, "7": {"label": "*2", "atom_type": "H0"}, "9": {"label": "*3", "atom_type": "Cs"}, "14": {"label": "*4", "atom_type": "O2s"}}

>  <type>  (17) 
unop_13

>  <geom_source>  (17) 
AutoTST

$$$$

     RDKit          3D

 22 21  0  0  0  0  0  0  0  0999 V2000
   -1.9991    0.0766   -2.3256 C   0  0  0  0  0  0  0  0  0  0  0  0
   -1.9991    0.0766   -0.8151 C   0  0  0  0  0  0  0  0  0  0  0  0
   -1.9991    1.4026   -0.1515 N   0  0  0  0  0  0  0  0  0  0  0  0
   -1.9991    2.3321   -0.8992 O   0  0  0  0  0  1  0  0  0  0  0  0
   -1.1190    0.5840   -2.7201 H   0  0  0  0  0  0  0  0  0  0  0  0
   -1.9991   -0.9505   -2.6909 H   0  0  0  0  0  0  0  0  0  0  0  0
   -2.8792    0.5840   -2.7201 H   0  0  0  0  0  0  0  0  0  0  0  0
   -0.9537   -0.5322   -0.3025 H   0  0  0  0  0  0  0  0  0  0  0  0
   -2.8703   -0.4307   -0.3880 H   0  0  0  0  0  0  0  0  0  0  0  0
    0.0863   -1.1378    0.2074 C   0  0  0  0  0  0  0  0  0  0  0  0
    1.3065   -1.0316   -0.6962 C   0  0  0  0  0  0  0  0  0  0  0  0
    2.5595   -1.1193    0.1635 C   0  0  0  0  0  0  0  0  0  0  0  0
    2.4975   -0.1813    1.2208 O   0  0  0  0  0  0  0  0  0  0  0  0
    1.3492   -0.3639    1.9918 C   0  0  0  0  0  0  0  0  0  0  0  0
    0.1717   -0.1987    1.2620 O   0  0  0  0  0  0  0  0  0  0  0  0
    0.0142   -2.1536    0.6253 H   0  0  0  0  0  0  0  0  0  0  0  0
    1.2992   -1.8287   -1.4429 H   0  0  0  0  0  0  0  0  0  0  0  0
    1.2901   -0.0723   -1.2171 H   0  0  0  0  0  0  0  0  0  0  0  0
    2.6614   -2.1338    0.5784 H   0  0  0  0  0  0  0  0  0  0  0  0
    3.4602   -0.8918   -0.4050 H   0  0  0  0  0  0  0  0  0  0  0  0
    1.3647   -1.3743    2.4402 H   0  0  0  0  0  0  0  0  0  0  0  0
    1.3573    0.3967    2.7693 H   0  0  0  0  0  0  0  0  0  0  0  0
  1  2  1  0
  1  5  1  0
  1  6  1  0
  1  7  1  0
  2  3  2  3
  2  9  1  0
  3  4  1  0
  8 10  1  0
 10 11  1  0
 10 15  1  0
 10 16  1  0
 11 12  1  0
 11 17  1  0
 11 18  1  0
 12 13  1  0
 12 19  1  0
 12 20  1  0
 13 14  1  0
 14 15  1  0
 14 21  1  0
 14 22  1  0
M  RAD  1   4   2
M  END
>  <reaction>  (18) 
rmg_rxn_254

>  <mol_properties>  (18) 
{"1": {"label": "*1", "atom_type": "Cs"}, "2": {"label": "*0", "atom_type": "N3d"}, "7": {"label": "*2", "atom_type": "H0"}, "9": {"label": "*3", "atom_type": "Cs"}, "14": {"label": "*4", "atom_type": "O2s"}}

>  <type>  (18) 
unop_14

>  <geom_source>  (18) 
gaussian_log

$$$$
