
     RDKit          3D

  5  4  0  0  0  0  0  0  0  0999 V2000
   -1.2140    0.4407   -0.1412 O   0  0  0  0  0  0  0  0  0  0  0  0
    0.1185    0.5703   -0.2937 N   0  0  0  0  0  0  0  0  0  0  0  0
    0.7309   -0.3922    0.1486 N   0  0  0  0  0  0  0  0  0  0  0  0
   -1.3561   -0.4179    0.2986 H   0  0  0  0  0  0  0  0  0  0  0  0
    1.7208   -0.2009   -0.0123 H   0  0  0  0  0  0  0  0  0  0  0  0
  1  2  1  0
  1  4  1  0
  2  3  2  3
  3  5  1  0
M  END
>  <reaction>  (1) 
rmg_rxn_16743

>  <mol_properties>  (1) 
{"0": {"label": "donator", "atom_type": "O2s"}, "3": {"label": "d_hydrogen", "atom_type": "H0"}}

>  <type>  (1) 
r1h

$$$$

     RDKit          3D

  7  6  0  0  0  0  0  0  0  0999 V2000
   -0.6441   -0.1356    0.0624 C   0  0  0  0  0  0  0  0  0  0  0  0
    0.8523    0.0148   -0.0333 C   0  0  0  0  0  0  0  0  0  0  0  0
    1.6700   -0.6077    0.6603 N   0  0  0  0  0  2  0  0  0  0  0  0
   -1.0940    0.8275    0.3091 H   0  0  0  0  0  0  0  0  0  0  0  0
   -0.9104   -0.8656    0.8237 H   0  0  0  0  0  0  0  0  0  0  0  0
   -1.0427   -0.4545   -0.9022 H   0  0  0  0  0  0  0  0  0  0  0  0
    1.2362    0.7308   -0.7748 H   0  0  0  0  0  0  0  0  0  0  0  0
  1  2  1  0
  1  4  1  0
  1  5  1  0
  1  6  1  0
  2  3  2  0
  2  7  1  0
M  RAD  1   3   2
M  END
>  <reaction>  (2) 
rmg_rxn_16743

>  <mol_properties>  (2) 
{"2": {"label": "acceptor", "atom_type": "N3d"}}

>  <type>  (2) 
r2

$$$$

     RDKit          3D

  8  7  0  0  0  0  0  0  0  0999 V2000
    0.9548    0.1194   -0.0790 C   0  0  0  0  0  0  0  0  0  0  0  0
   -0.4838   -0.2649    0.0193 C   0  0  0  0  0  0  0  0  0  0  0  0
   -0.8933   -1.1081    0.8664 N   0  0  0  0  0  0  0  0  0  0  0  0
    1.3360   -0.0983   -1.0800 H   0  0  0  0  0  0  0  0  0  0  0  0
    1.0698    1.1948    0.0786 H   0  0  0  0  0  0  0  0  0  0  0  0
    1.5426   -0.4219    0.6602 H   0  0  0  0  0  0  0  0  0  0  0  0
   -1.1575    0.2324   -0.6905 H   0  0  0  0  0  0  0  0  0  0  0  0
   -1.8989   -1.2455    0.7886 H   0  0  0  0  0  0  0  0  0  0  0  0
  1  2  1  0
  1  4  1  0
  1  5  1  0
  1  6  1  0
  2  3  2  3
  2  7  1  0
  3  8  1  0
M  END
>  <reaction>  (3) 
rmg_rxn_16743

>  <mol_properties>  (3) 
{"0": {"label": "a_hydrogen", "atom_type": "H0"}, "3": {"label": "acceptor", "atom_type": "N3d"}}

>  <type>  (3) 
r2h

$$$$

     RDKit          3D

 12 10  0  0  0  0  0  0  0  0999 V2000
    1.2003   -1.4950   -0.2049 O   0  0  0  0  0  1  0  0  0  0  0  0
    0.2252   -2.0705    0.3825 N   0  0  0  0  0  0  0  0  0  0  0  0
   -0.6951   -1.3704    0.8167 N   0  0  0  0  0  0  0  0  0  0  0  0
    1.1575   -0.2552   -0.1569 H   0  0  0  0  0  0  0  0  0  0  0  0
   -1.3565   -2.0130    1.2525 H   0  0  0  0  0  0  0  0  0  0  0  0
   -0.1530    2.9112   -0.9181 C   0  0  0  0  0  0  0  0  0  0  0  0
    0.0166    1.4386   -0.6961 C   0  0  0  0  0  0  0  0  0  0  0  0
    1.0739    0.9503   -0.2476 N   0  0  0  0  0  0  0  0  0  0  0  0
   -0.3886    3.0959   -1.9679 H   0  0  0  0  0  0  0  0  0  0  0  0
    0.7491    3.4535   -0.6435 H   0  0  0  0  0  0  0  0  0  0  0  0
   -0.9942    3.2715   -0.3228 H   0  0  0  0  0  0  0  0  0  0  0  0
   -0.8351    0.7959   -0.9376 H   0  0  0  0  0  0  0  0  0  0  0  0
  1  2  1  0
  2  3  2  3
  3  5  1  0
  4  8  1  0
  6  7  1  0
  6  9  1  0
  6 10  1  0
  6 11  1  0
  7  8  2  3
  7 12  1  0
M  RAD  1   1   2
M  END
>  <reaction>  (4) 
rmg_rxn_16743

>  <mol_properties>  (4) 
{"0": {"label": "*3", "atom_type": "O2s"}, "1": {"label": "*4", "atom_type": "N3d"}, "3": {"label": "*2", "atom_type": "H0"}, "6": {"label": "*0", "atom_type": "Cd"}, "7": {"label": "*1", "atom_type": "N3d"}}

>  <type>  (4) 
ts

$$$$

     RDKit          3D

 12 10  0  0  0  0  0  0  0  0999 V2000
    0.7792    0.8008   -0.0059 O   0  0  0  0  0  1  0  0  0  0  0  0
    1.9942    0.4968   -0.0001 N   0  0  0  0  0  2  0  0  0  0  0  0
    2.5604   -0.5579    0.0059 N   0  0  0  0  0  2  0  0  0  0  0  0
   -0.0582   -0.1200   -0.0059 H   0  0  0  0  0  0  0  0  0  0  0  0
    1.9961   -1.4242    0.0069 H   0  0  0  0  0  0  0  0  0  0  0  0
   -2.5701    0.7670    0.0051 C   0  0  0  0  0  0  0  0  0  0  0  0
   -2.0334   -0.6291   -0.0002 C   0  0  0  0  0  3  0  0  0  0  0  0
   -0.8489   -0.9982   -0.0049 N   0  0  0  0  0  2  0  0  0  0  0  0
   -3.2001    0.9154   -0.8704 H   0  0  0  0  0  0  0  0  0  0  0  0
   -1.7582    1.4904   -0.0002 H   0  0  0  0  0  0  0  0  0  0  0  0
   -3.1864    0.9134    0.8908 H   0  0  0  0  0  0  0  0  0  0  0  0
   -2.8001   -1.4089    0.0010 H   0  0  0  0  0  0  0  0  0  0  0  0
  1  2  1  0
  2  3  1  0
  3  5  1  0
  4  8  1  0
  6  9  1  0
  6 10  1  0
  6 11  1  0
  6  7  1  0
  7  8  1  0
  7 12  1  0
M  RAD  5   1   2   2   2   3   2   7   2   8   2
M  END
>  <reaction>  (5) 
rmg_rxn_16743

>  <mol_properties>  (5) 
{"0": {"label": "*3", "atom_type": "O2s"}, "1": {"label": "*4", "atom_type": "N3d"}, "3": {"label": "*2", "atom_type": "H0"}, "6": {"label": "*0", "atom_type": "Cd"}, "7": {"label": "*1", "atom_type": "N3d"}}

>  <type>  (5) 
unop_1

>  <geom_source>  (5) 
crest_best.xyz

$$$$

     RDKit          3D

 12 10  0  0  0  0  0  0  0  0999 V2000
    0.3228   -0.7900    1.3361 O   0  0  0  0  0  0  0  0  0  0  0  0
    0.3228   -2.0371    0.8261 N   0  0  0  0  0  0  0  0  0  0  0  0
    0.3228   -2.0371   -0.3974 N   0  0  0  0  0  0  0  0  0  0  0  0
    0.3228   -0.0617    0.4202 H   0  0  0  0  0  0  0  0  0  0  0  0
    0.3228   -3.0170   -0.6842 H   0  0  0  0  0  0  0  0  0  0  0  0
   -0.6192    2.8961   -0.8518 C   0  0  0  0  0  0  0  0  0  0  0  0
   -0.6985    1.4424   -0.5239 C   0  0  0  0  0  0  0  0  0  0  0  0
    0.3228    0.6985   -0.5359 N   0  0  0  0  0  2  0  0  0  0  0  0
   -1.2645    3.1267   -1.7032 H   0  0  0  0  0  0  0  0  0  0  0  0
    0.4064    3.1760   -1.0858 H   0  0  0  0  0  0  0  0  0  0  0  0
   -0.9779    3.4930   -0.0094 H   0  0  0  0  0  0  0  0  0  0  0  0
   -1.6987    1.0662   -0.2734 H   0  0  0  0  0  0  0  0  0  0  0  0
  1  2  1  0
  1  4  1  0
  2  3  2  3
  3  5  1  0
  6  7  1  0
  6  9  1  0
  6 10  1  0
  6 11  1  0
  7  8  2  0
  7 12  1  0
M  RAD  1   8   2
M  END
>  <reaction>  (6) 
rmg_rxn_16743

>  <mol_properties>  (6) 
{"0": {"label": "*3", "atom_type": "O2s"}, "1": {"label": "*4", "atom_type": "N3d"}, "3": {"label": "*2", "atom_type": "H0"}, "6": {"label": "*0", "atom_type": "Cd"}, "7": {"label": "*1", "atom_type": "N3d"}}

>  <type>  (6) 
unop_2

>  <geom_source>  (6) 
Heuristics

$$$$

     RDKit          3D

 12 10  0  0  0  0  0  0  0  0999 V2000
    0.2813   -0.2676    1.8038 O   0  0  0  0  0  0  0  0  0  0  0  0
    0.2813   -1.5147    1.2938 N   0  0  0  0  0  0  0  0  0  0  0  0
    0.2813   -1.5147    0.0703 N   0  0  0  0  0  0  0  0  0  0  0  0
    0.2813    0.4607    0.8879 H   0  0  0  0  0  0  0  0  0  0  0  0
    0.2813   -2.4946   -0.2165 H   0  0  0  0  0  0  0  0  0  0  0  0
   -0.8187    1.5300   -2.1920 C   0  0  0  0  0  0  0  0  0  0  0  0
   -0.3083    0.7039   -1.0588 C   0  0  0  0  0  0  0  0  0  0  0  0
    0.2813    1.2210   -0.0682 N   0  0  0  0  0  2  0  0  0  0  0  0
   -0.3559    1.2118   -3.1296 H   0  0  0  0  0  0  0  0  0  0  0  0
   -0.6045    2.5833   -2.0192 H   0  0  0  0  0  0  0  0  0  0  0  0
   -1.8968    1.3900   -2.3055 H   0  0  0  0  0  0  0  0  0  0  0  0
   -0.4792   -0.3769   -1.1447 H   0  0  0  0  0  0  0  0  0  0  0  0
  1  2  1  0
  1  4  1  0
  2  3  2  3
  3  5  1  0
  6  7  1  0
  6  9  1  0
  6 10  1  0
  6 11  1  0
  7  8  2  0
  7 12  1  0
M  RAD  1   8   2
M  END
>  <reaction>  (7) 
rmg_rxn_16743

>  <mol_properties>  (7) 
{"0": {"label": "*3", "atom_type": "O2s"}, "1": {"label": "*4", "atom_type": "N3d"}, "3": {"label": "*2", "atom_type": "H0"}, "6": {"label": "*0", "atom_type": "Cd"}, "7": {"label": "*1", "atom_type": "N3d"}}

>  <type>  (7) 
unop_3

>  <geom_source>  (7) 
Heuristics

$$$$

     RDKit          3D

 12 10  0  0  0  0  0  0  0  0999 V2000
    0.1270   -0.8745    1.2982 O   0  0  0  0  0  0  0  0  0  0  0  0
    0.1270   -2.1217    0.7882 N   0  0  0  0  0  0  0  0  0  0  0  0
    0.1270   -2.1217   -0.4353 N   0  0  0  0  0  0  0  0  0  0  0  0
    0.1270   -0.1462    0.3823 H   0  0  0  0  0  0  0  0  0  0  0  0
    0.1270   -3.1015   -0.7222 H   0  0  0  0  0  0  0  0  0  0  0  0
   -0.0693    2.9930   -0.9170 C   0  0  0  0  0  0  0  0  0  0  0  0
   -0.4626    1.6956   -0.2932 C   0  0  0  0  0  0  0  0  0  0  0  0
    0.1270    0.6140   -0.5738 N   0  0  0  0  0  2  0  0  0  0  0  0
   -0.9180    3.4275   -1.4514 H   0  0  0  0  0  0  0  0  0  0  0  0
    0.7590    2.8453   -1.6078 H   0  0  0  0  0  0  0  0  0  0  0  0
    0.2218    3.7100   -0.1451 H   0  0  0  0  0  0  0  0  0  0  0  0
   -1.2941    1.7454    0.4215 H   0  0  0  0  0  0  0  0  0  0  0  0
  1  2  1  0
  1  4  1  0
  2  3  2  3
  3  5  1  0
  6  7  1  0
  6  9  1  0
  6 10  1  0
  6 11  1  0
  7  8  2  0
  7 12  1  0
M  RAD  1   8   2
M  END
>  <reaction>  (8) 
rmg_rxn_16743

>  <mol_properties>  (8) 
{"0": {"label": "*3", "atom_type": "O2s"}, "1": {"label": "*4", "atom_type": "N3d"}, "3": {"label": "*2", "atom_type": "H0"}, "6": {"label": "*0", "atom_type": "Cd"}, "7": {"label": "*1", "atom_type": "N3d"}}

>  <type>  (8) 
unop_4

>  <geom_source>  (8) 
Heuristics

$$$$

     RDKit          3D

 12 10  0  0  0  0  0  0  0  0999 V2000
   -0.4483   -0.4296    1.6467 O   0  0  0  0  0  0  0  0  0  0  0  0
   -0.4483   -1.6768    1.1368 N   0  0  0  0  0  0  0  0  0  0  0  0
   -0.4483   -1.6768   -0.0868 N   0  0  0  0  0  0  0  0  0  0  0  0
   -0.4483    0.2987    0.7308 H   0  0  0  0  0  0  0  0  0  0  0  0
   -0.4483   -2.6566   -0.3736 H   0  0  0  0  0  0  0  0  0  0  0  0
    1.2286    2.0032   -1.6787 C   0  0  0  0  0  0  0  0  0  0  0  0
    0.5729    0.8797   -0.9472 C   0  0  0  0  0  0  0  0  0  0  0  0
   -0.4483    1.0589   -0.2252 N   0  0  0  0  0  2  0  0  0  0  0  0
    2.2711    2.1005   -1.3647 H   0  0  0  0  0  0  0  0  0  0  0  0
    0.7024    2.9370   -1.4886 H   0  0  0  0  0  0  0  0  0  0  0  0
    1.2372    1.8003   -2.7526 H   0  0  0  0  0  0  0  0  0  0  0  0
    1.0360   -0.1067   -1.0789 H   0  0  0  0  0  0  0  0  0  0  0  0
  1  2  1  0
  1  4  1  0
  2  3  2  3
  3  5  1  0
  6  7  1  0
  6  9  1  0
  6 10  1  0
  6 11  1  0
  7  8  2  0
  7 12  1  0
M  RAD  1   8   2
M  END
>  <reaction>  (9) 
rmg_rxn_16743

>  <mol_properties>  (9) 
{"0": {"label": "*3", "atom_type": "O2s"}, "1": {"label": "*4", "atom_type": "N3d"}, "3": {"label": "*2", "atom_type": "H0"}, "6": {"label": "*0", "atom_type": "Cd"}, "7": {"label": "*1", "atom_type": "N3d"}}

>  <type>  (9) 
unop_5

>  <geom_source>  (9) 
Heuristics

$$$$

     RDKit          3D

 12 10  0  0  0  0  0  0  0  0999 V2000
   -0.0000   -0.8871    1.3253 O   0  0  0  0  0  0  0  0  0  0  0  0
   -0.0000   -2.1342    0.8153 N   0  0  0  0  0  0  0  0  0  0  0  0
   -0.0000   -2.1342   -0.4082 N   0  0  0  0  0  0  0  0  0  0  0  0
   -0.0000   -0.1588    0.4094 H   0  0  0  0  0  0  0  0  0  0  0  0
    0.0000   -3.1141   -0.6951 H   0  0  0  0  0  0  0  0  0  0  0  0
    0.0000    2.9390   -1.1399 C   0  0  0  0  0  0  0  0  0  0  0  0
    0.0000    1.8068   -0.1678 C   0  0  0  0  0  0  0  0  0  0  0  0
    0.0000    0.6015   -0.5467 N   0  0  0  0  0  2  0  0  0  0  0  0
   -0.8783    3.5706   -0.9837 H   0  0  0  0  0  0  0  0  0  0  0  0
    0.0000    2.5614   -2.1609 H   0  0  0  0  0  0  0  0  0  0  0  0
    0.8783    3.5706   -0.9837 H   0  0  0  0  0  0  0  0  0  0  0  0
   -0.0000    2.0913    0.8923 H   0  0  0  0  0  0  0  0  0  0  0  0
  1  2  1  0
  1  4  1  0
  2  3  2  3
  3  5  1  0
  6  7  1  0
  6  9  1  0
  6 10  1  0
  6 11  1  0
  7  8  2  0
  7 12  1  0
M  RAD  1   8   2
M  END
>  <reaction>  (10) 
rmg_rxn_16743

>  <mol_properties>  (10) 
{"0": {"label": "*3", "atom_type": "O2s"}, "1": {"label": "*4", "atom_type": "N3d"}, "3": {"label": "*2", "atom_type": "H0"}, "6": {"label": "*0", "atom_type": "Cd"}, "7": {"label": "*1", "atom_type": "N3d"}}

>  <type>  (10) 
unop_6

>  <geom_source>  (10) 
Heuristics

$$$$

     RDKit          3D

 12 10  0  0  0  0  0  0  0  0999 V2000
   -0.4557   -0.6260    1.4688 O   0  0  0  0  0  0  0  0  0  0  0  0
   -0.4557   -1.8731    0.9589 N   0  0  0  0  0  0  0  0  0  0  0  0
   -0.4557   -1.8731   -0.2647 N   0  0  0  0  0  0  0  0  0  0  0  0
   -0.4557    0.1023    0.5529 H   0  0  0  0  0  0  0  0  0  0  0  0
   -0.4557   -2.8530   -0.5515 H   0  0  0  0  0  0  0  0  0  0  0  0
    1.1177    2.5283   -1.1556 C   0  0  0  0  0  0  0  0  0  0  0  0
    0.7236    1.1449   -0.7582 C   0  0  0  0  0  0  0  0  0  0  0  0
   -0.4557    0.8625   -0.4031 N   0  0  0  0  0  2  0  0  0  0  0  0
    1.9208    2.8921   -0.5097 H   0  0  0  0  0  0  0  0  0  0  0  0
    0.2634    3.1995   -1.0878 H   0  0  0  0  0  0  0  0  0  0  0  0
    1.5050    2.5314   -2.1777 H   0  0  0  0  0  0  0  0  0  0  0  0
    1.5236    0.3943   -0.7953 H   0  0  0  0  0  0  0  0  0  0  0  0
  1  2  1  0
  1  4  1  0
  2  3  2  3
  3  5  1  0
  6  7  1  0
  6  9  1  0
  6 10  1  0
  6 11  1  0
  7  8  2  0
  7 12  1  0
M  RAD  1   8   2
M  END
>  <reaction>  (11) 
rmg_rxn_16743

>  <mol_properties>  (11) 
{"0": {"label": "*3", "atom_type": "O2s"}, "1": {"label": "*4", "atom_type": "N3d"}, "3": {"label": "*2", "atom_type": "H0"}, "6": {"label": "*0", "atom_type": "Cd"}, "7": {"label": "*1", "atom_type": "N3d"}}

>  <type>  (11) 
unop_7

>  <geom_source>  (11) 
Heuristics

$$$$

     RDKit          3D

 12 10  0  0  0  0  0  0  0  0999 V2000
   -0.3228   -0.7900    1.3361 O   0  0  0  0  0  0  0  0  0  0  0  0
   -0.3228   -2.0371    0.8261 N   0  0  0  0  0  0  0  0  0  0  0  0
   -0.3228   -2.0371   -0.3974 N   0  0  0  0  0  0  0  0  0  0  0  0
   -0.3228   -0.0617    0.4202 H   0  0  0  0  0  0  0  0  0  0  0  0
   -0.3228   -3.0170   -0.6842 H   0  0  0  0  0  0  0  0  0  0  0  0
    0.6192    2.8961   -0.8518 C   0  0  0  0  0  0  0  0  0  0  0  0
    0.6985    1.4424   -0.5239 C   0  0  0  0  0  0  0  0  0  0  0  0
   -0.3228    0.6985   -0.5359 N   0  0  0  0  0  2  0  0  0  0  0  0
    0.9779    3.4930   -0.0094 H   0  0  0  0  0  0  0  0  0  0  0  0
   -0.4064    3.1760   -1.0858 H   0  0  0  0  0  0  0  0  0  0  0  0
    1.2645    3.1267   -1.7032 H   0  0  0  0  0  0  0  0  0  0  0  0
    1.6987    1.0662   -0.2734 H   0  0  0  0  0  0  0  0  0  0  0  0
  1  2  1  0
  1  4  1  0
  2  3  2  3
  3  5  1  0
  6  7  1  0
  6  9  1  0
  6 10  1  0
  6 11  1  0
  7  8  2  0
  7 12  1  0
M  RAD  1   8   2
M  END
>  <reaction>  (12) 
rmg_rxn_16743

>  <mol_properties>  (12) 
{"0": {"label": "*3", "atom_type": "O2s"}, "1": {"label": "*4", "atom_type": "N3d"}, "3": {"label": "*2", "atom_type": "H0"}, "6": {"label": "*0", "atom_type": "Cd"}, "7": {"label": "*1", "atom_type": "N3d"}}

>  <type>  (12) 
unop_8

>  <geom_source>  (12) 
Heuristics

$$$$

     RDKit          3D

 12 10  0  0  0  0  0  0  0  0999 V2000
    0.4557   -0.6260    1.4688 O   0  0  0  0  0  0  0  0  0  0  0  0
    0.4557   -1.8731    0.9589 N   0  0  0  0  0  0  0  0  0  0  0  0
    0.4557   -1.8731   -0.2647 N   0  0  0  0  0  0  0  0  0  0  0  0
    0.4557    0.1023    0.5529 H   0  0  0  0  0  0  0  0  0  0  0  0
    0.4557   -2.8530   -0.5515 H   0  0  0  0  0  0  0  0  0  0  0  0
   -1.1177    2.5283   -1.1556 C   0  0  0  0  0  0  0  0  0  0  0  0
   -0.7236    1.1449   -0.7582 C   0  0  0  0  0  0  0  0  0  0  0  0
    0.4557    0.8625   -0.4031 N   0  0  0  0  0  2  0  0  0  0  0  0
   -1.5050    2.5314   -2.1777 H   0  0  0  0  0  0  0  0  0  0  0  0
   -0.2634    3.1995   -1.0878 H   0  0  0  0  0  0  0  0  0  0  0  0
   -1.9208    2.8921   -0.5097 H   0  0  0  0  0  0  0  0  0  0  0  0
   -1.5236    0.3943   -0.7953 H   0  0  0  0  0  0  0  0  0  0  0  0
  1  2  1  0
  1  4  1  0
  2  3  2  3
  3  5  1  0
  6  7  1  0
  6  9  1  0
  6 10  1  0
  6 11  1  0
  7  8  2  0
  7 12  1  0
M  RAD  1   8   2
M  END
>  <reaction>  (13) 
rmg_rxn_16743

>  <mol_properties>  (13) 
{"0": {"label": "*3", "atom_type": "O2s"}, "1": {"label": "*4", "atom_type": "N3d"}, "3": {"label": "*2", "atom_type": "H0"}, "6": {"label": "*0", "atom_type": "Cd"}, "7": {"label": "*1", "atom_type": "N3d"}}

>  <type>  (13) 
unop_9

>  <geom_source>  (13) 
Heuristics

$$$$

     RDKit          3D

 12 10  0  0  0  0  0  0  0  0999 V2000
    0.7792    0.8008   -0.0059 O   0  0  0  0  0  1  0  0  0  0  0  0
    1.9942    0.4968   -0.0001 N   0  0  0  0  0  2  0  0  0  0  0  0
    2.5604   -0.5579    0.0059 N   0  0  0  0  0  2  0  0  0  0  0  0
   -0.0582   -0.1200   -0.0059 H   0  0  0  0  0  0  0  0  0  0  0  0
    1.9961   -1.4242    0.0069 H   0  0  0  0  0  0  0  0  0  0  0  0
   -2.5701    0.7670    0.0051 C   0  0  0  0  0  0  0  0  0  0  0  0
   -2.0334   -0.6291   -0.0002 C   0  0  0  0  0  3  0  0  0  0  0  0
   -0.8489   -0.9982   -0.0049 N   0  0  0  0  0  2  0  0  0  0  0  0
   -3.2001    0.9154   -0.8704 H   0  0  0  0  0  0  0  0  0  0  0  0
   -1.7582    1.4904   -0.0002 H   0  0  0  0  0  0  0  0  0  0  0  0
   -3.1864    0.9134    0.8908 H   0  0  0  0  0  0  0  0  0  0  0  0
   -2.8001   -1.4089    0.0010 H   0  0  0  0  0  0  0  0  0  0  0  0
  1  2  1  0
  2  3  1  0
  3  5  1  0
  4  8  1  0
  6  9  1  0
  6 10  1  0
  6 11  1  0
  6  7  1  0
  7  8  1  0
  7 12  1  0
M  RAD  5   1   2   2   2   3   2   7   2   8   2
M  END
>  <reaction>  (14) 
rmg_rxn_16743

>  <mol_properties>  (14) 
{"0": {"label": "*3", "atom_type": "O2s"}, "1": {"label": "*4", "atom_type": "N3d"}, "3": {"label": "*2", "atom_type": "H0"}, "6": {"label": "*0", "atom_type": "Cd"}, "7": {"label": "*1", "atom_type": "N3d"}}

>  <type>  (14) 
unop_10

>  <geom_source>  (14) 
Heuristics

$$$$

     RDKit          3D

 12 10  0  0  0  0  0  0  0  0999 V2000
   -0.2813   -0.2676    1.8038 O   0  0  0  0  0  0  0  0  0  0  0  0
   -0.2813   -1.5147    1.2938 N   0  0  0  0  0  0  0  0  0  0  0  0
   -0.2813   -1.5147    0.0703 N   0  0  0  0  0  0  0  0  0  0  0  0
   -0.2813    0.4607    0.8879 H   0  0  0  0  0  0  0  0  0  0  0  0
   -0.2813   -2.4946   -0.2165 H   0  0  0  0  0  0  0  0  0  0  0  0
    0.8187    1.5300   -2.1920 C   0  0  0  0  0  0  0  0  0  0  0  0
    0.3083    0.7039   -1.0588 C   0  0  0  0  0  0  0  0  0  0  0  0
   -0.2813    1.2210   -0.0682 N   0  0  0  0  0  2  0  0  0  0  0  0
    1.8968    1.3900   -2.3055 H   0  0  0  0  0  0  0  0  0  0  0  0
    0.6045    2.5833   -2.0192 H   0  0  0  0  0  0  0  0  0  0  0  0
    0.3559    1.2118   -3.1296 H   0  0  0  0  0  0  0  0  0  0  0  0
    0.4792   -0.3769   -1.1447 H   0  0  0  0  0  0  0  0  0  0  0  0
  1  2  1  0
  1  4  1  0
  2  3  2  3
  3  5  1  0
  6  7  1  0
  6  9  1  0
  6 10  1  0
  6 11  1  0
  7  8  2  0
  7 12  1  0
M  RAD  1   8   2
M  END
>  <reaction>  (15) 
rmg_rxn_16743

>  <mol_properties>  (15) 
{"0": {"label": "*3", "atom_type": "O2s"}, "1": {"label": "*4", "atom_type": "N3d"}, "3": {"label": "*2", "atom_type": "H0"}, "6": {"label": "*0", "atom_type": "Cd"}, "7": {"label": "*1", "atom_type": "N3d"}}

>  <type>  (15) 
unop_11

>  <geom_source>  (15) 
Heuristics

$$$$

     RDKit          3D

 12 10  0  0  0  0  0  0  0  0999 V2000
    0.4483   -0.4296    1.6467 O   0  0  0  0  0  0  0  0  0  0  0  0
    0.4483   -1.6768    1.1368 N   0  0  0  0  0  0  0  0  0  0  0  0
    0.4483   -1.6768   -0.0868 N   0  0  0  0  0  0  0  0  0  0  0  0
    0.4483    0.2987    0.7308 H   0  0  0  0  0  0  0  0  0  0  0  0
    0.4483   -2.6566   -0.3736 H   0  0  0  0  0  0  0  0  0  0  0  0
   -1.2286    2.0032   -1.6787 C   0  0  0  0  0  0  0  0  0  0  0  0
   -0.5729    0.8797   -0.9472 C   0  0  0  0  0  0  0  0  0  0  0  0
    0.4483    1.0589   -0.2252 N   0  0  0  0  0  2  0  0  0  0  0  0
   -1.2372    1.8003   -2.7527 H   0  0  0  0  0  0  0  0  0  0  0  0
   -0.7024    2.9370   -1.4886 H   0  0  0  0  0  0  0  0  0  0  0  0
   -2.2711    2.1005   -1.3647 H   0  0  0  0  0  0  0  0  0  0  0  0
   -1.0360   -0.1067   -1.0789 H   0  0  0  0  0  0  0  0  0  0  0  0
  1  2  1  0
  1  4  1  0
  2  3  2  3
  3  5  1  0
  6  7  1  0
  6  9  1  0
  6 10  1  0
  6 11  1  0
  7  8  2  0
  7 12  1  0
M  RAD  1   8   2
M  END
>  <reaction>  (16) 
rmg_rxn_16743

>  <mol_properties>  (16) 
{"0": {"label": "*3", "atom_type": "O2s"}, "1": {"label": "*4", "atom_type": "N3d"}, "3": {"label": "*2", "atom_type": "H0"}, "6": {"label": "*0", "atom_type": "Cd"}, "7": {"label": "*1", "atom_type": "N3d"}}

>  <type>  (16) 
unop_12

>  <geom_source>  (16) 
Heuristics

$$$$

     RDKit          3D

 12 10  0  0  0  0  0  0  0  0999 V2000
   -0.1270   -0.8745    1.2982 O   0  0  0  0  0  0  0  0  0  0  0  0
   -0.1270   -2.1217    0.7882 N   0  0  0  0  0  0  0  0  0  0  0  0
   -0.1270   -2.1217   -0.4353 N   0  0  0  0  0  0  0  0  0  0  0  0
   -0.1270   -0.1462    0.3823 H   0  0  0  0  0  0  0  0  0  0  0  0
   -0.1270   -3.1015   -0.7222 H   0  0  0  0  0  0  0  0  0  0  0  0
    0.0693    2.9930   -0.9170 C   0  0  0  0  0  0  0  0  0  0  0  0
    0.4626    1.6956   -0.2932 C   0  0  0  0  0  0  0  0  0  0  0  0
   -0.1270    0.6140   -0.5738 N   0  0  0  0  0  2  0  0  0  0  0  0
   -0.2218    3.7100   -0.1451 H   0  0  0  0  0  0  0  0  0  0  0  0
   -0.7590    2.8453   -1.6078 H   0  0  0  0  0  0  0  0  0  0  0  0
    0.9180    3.4275   -1.4514 H   0  0  0  0  0  0  0  0  0  0  0  0
    1.2941    1.7454    0.4215 H   0  0  0  0  0  0  0  0  0  0  0  0
  1  2  1  0
  1  4  1  0
  2  3  2  3
  3  5  1  0
  6  7  1  0
  6  9  1  0
  6 10  1  0
  6 11  1  0
  7  8  2  0
  7 12  1  0
M  RAD  1   8   2
M  END
>  <reaction>  (17) 
rmg_rxn_16743

>  <mol_properties>  (17) 
{"0": {"label": "*3", "atom_type": "O2s"}, "1": {"label": "*4", "atom_type": "N3d"}, "3": {"label": "*2", "atom_type": "H0"}, "6": {"label": "*0", "atom_type": "Cd"}, "7": {"label": "*1", "atom_type": "N3d"}}

>  <type>  (17) 
unop_13

>  <geom_source>  (17) 
Heuristics

$$$$

     RDKit          3D

 12 10  0  0  0  0  0  0  0  0999 V2000
   -0.0000   -0.2039    1.8685 O   0  0  0  0  0  0  0  0  0  0  0  0
   -0.0000   -1.4511    1.3585 N   0  0  0  0  0  0  0  0  0  0  0  0
   -0.0000   -1.4511    0.1349 N   0  0  0  0  0  0  0  0  0  0  0  0
   -0.0000    0.5244    0.9526 H   0  0  0  0  0  0  0  0  0  0  0  0
    0.0000   -2.4310   -0.1519 H   0  0  0  0  0  0  0  0  0  0  0  0
    0.0000    1.3359   -2.4146 C   0  0  0  0  0  0  0  0  0  0  0  0
    0.0000    0.6439   -1.0925 C   0  0  0  0  0  0  0  0  0  0  0  0
    0.0000    1.2846   -0.0035 N   0  0  0  0  0  2  0  0  0  0  0  0
    0.8783    1.0414   -2.9948 H   0  0  0  0  0  0  0  0  0  0  0  0
   -0.0000    2.4158   -2.2768 H   0  0  0  0  0  0  0  0  0  0  0  0
   -0.8783    1.0414   -2.9948 H   0  0  0  0  0  0  0  0  0  0  0  0
    0.0000   -0.4531   -1.1309 H   0  0  0  0  0  0  0  0  0  0  0  0
  1  2  1  0
  1  4  1  0
  2  3  2  3
  3  5  1  0
  6  7  1  0
  6  9  1  0
  6 10  1  0
  6 11  1  0
  7  8  2  0
  7 12  1  0
M  RAD  1   8   2
M  END
>  <reaction>  (18) 
rmg_rxn_16743

>  <mol_properties>  (18) 
{"0": {"label": "*3", "atom_type": "O2s"}, "1": {"label": "*4", "atom_type": "N3d"}, "3": {"label": "*2", "atom_type": "H0"}, "6": {"label": "*0", "atom_type": "Cd"}, "7": {"label": "*1", "atom_type": "N3d"}}

>  <type>  (18) 
unop_14

>  <geom_source>  (18) 
Heuristics

$$$$

     RDKit          3D

 12 10  0  0  0  0  0  0  0  0999 V2000
    0.2813   -0.2676    1.8038 O   0  0  0  0  0  0  0  0  0  0  0  0
    0.2813   -1.5147    1.2938 N   0  0  0  0  0  0  0  0  0  0  0  0
    0.2813   -1.5147    0.0703 N   0  0  0  0  0  0  0  0  0  0  0  0
    0.2813    0.4607    0.8879 H   0  0  0  0  0  0  0  0  0  0  0  0
    0.2813   -2.4946   -0.2165 H   0  0  0  0  0  0  0  0  0  0  0  0
   -0.8187    1.5300   -2.1920 C   0  0  0  0  0  0  0  0  0  0  0  0
   -0.3083    0.7039   -1.0588 C   0  0  0  0  0  0  0  0  0  0  0  0
    0.2813    1.2210   -0.0682 N   0  0  0  0  0  2  0  0  0  0  0  0
   -0.3559    1.2118   -3.1296 H   0  0  0  0  0  0  0  0  0  0  0  0
   -0.6045    2.5833   -2.0192 H   0  0  0  0  0  0  0  0  0  0  0  0
   -1.8968    1.3900   -2.3054 H   0  0  0  0  0  0  0  0  0  0  0  0
   -0.4792   -0.3769   -1.1447 H   0  0  0  0  0  0  0  0  0  0  0  0
  1  2  1  0
  1  4  1  0
  2  3  2  3
  3  5  1  0
  6  7  1  0
  6  9  1  0
  6 10  1  0
  6 11  1  0
  7  8  2  0
  7 12  1  0
M  RAD  1   8   2
M  END
>  <reaction>  (19) 
rmg_rxn_16743

>  <mol_properties>  (19) 
{"0": {"label": "*3", "atom_type": "O2s"}, "1": {"label": "*4", "atom_type": "N3d"}, "3": {"label": "*2", "atom_type": "H0"}, "6": {"label": "*0", "atom_type": "Cd"}, "7": {"label": "*1", "atom_type": "N3d"}}

>  <type>  (19) 
unop_15

>  <geom_source>  (19) 
gaussian_log

$$$$
