
     RDKit          3D

  9  8  0  0  0  0  0  0  0  0999 V2000
   -1.5470   -0.0755   -0.1976 C   0  0  0  0  0  0  0  0  0  0  0  0
   -0.2885    0.4507    0.1749 O   0  0  0  0  0  0  0  0  0  0  0  0
   -0.1502    1.7216   -0.3294 N   0  0  0  0  0  0  0  0  0  0  0  0
    0.9626    2.2353   -0.0219 C   0  0  0  0  0  0  0  0  0  0  0  0
   -1.6392   -0.1356   -1.2844 H   0  0  0  0  0  0  0  0  0  0  0  0
   -2.3597    0.5337    0.2044 H   0  0  0  0  0  0  0  0  0  0  0  0
   -1.5879   -1.0750    0.2318 H   0  0  0  0  0  0  0  0  0  0  0  0
    1.1497    3.2381   -0.3820 H   0  0  0  0  0  0  0  0  0  0  0  0
    1.7060    1.7101    0.5739 H   0  0  0  0  0  0  0  0  0  0  0  0
  1  2  1  0
  1  5  1  0
  1  6  1  0
  1  7  1  0
  2  3  1  0
  3  4  2  3
  4  8  1  0
  4  9  1  0
M  END
>  <reaction>  (1) 
rmg_rxn_15613

>  <mol_properties>  (1) 
{"0": {"label": "donator", "atom_type": "Cs"}, "4": {"label": "d_hydrogen", "atom_type": "H0"}}

>  <type>  (1) 
r1h

$$$$

     RDKit          3D

  8  7  0  0  0  0  0  0  0  0999 V2000
   -1.0336    0.3440   -0.0356 C   0  0  0  0  0  3  0  0  0  0  0  0
    0.1991   -0.4325   -0.0698 C   0  0  0  0  0  0  0  0  0  0  0  0
    0.9631   -0.0368    1.2269 N   0  0  0  0  0  0  0  0  0  0  0  0
    0.8138   -0.8074    2.1160 O   0  0  0  0  0  0  0  0  0  0  0  0
   -1.0668    1.3490   -0.4320 H   0  0  0  0  0  0  0  0  0  0  0  0
   -1.8598    0.0102    0.5774 H   0  0  0  0  0  0  0  0  0  0  0  0
    0.0447   -1.5108   -0.0264 H   0  0  0  0  0  0  0  0  0  0  0  0
    0.8639   -0.1518   -0.8851 H   0  0  0  0  0  0  0  0  0  0  0  0
  1  2  1  0
  1  5  1  0
  1  6  1  0
  2  3  1  0
  2  7  1  0
  2  8  1  0
  3  4  2  0
M  RAD  1   1   2
M  END
>  <reaction>  (2) 
rmg_rxn_15613

>  <mol_properties>  (2) 
{"0": {"label": "acceptor", "atom_type": "Cs"}}

>  <type>  (2) 
r2

$$$$

     RDKit          3D

  9  8  0  0  0  0  0  0  0  0999 V2000
   -1.0314    0.2323   -0.1227 C   0  0  0  0  0  0  0  0  0  0  0  0
    0.3094   -0.4511    0.0063 C   0  0  0  0  0  0  0  0  0  0  0  0
    0.3197   -1.7698    0.6841 N   0  0  0  0  0  0  0  0  0  0  0  0
   -0.7498   -2.1455    1.0557 O   0  0  0  0  0  0  0  0  0  0  0  0
   -1.4744    0.4198    0.8552 H   0  0  0  0  0  0  0  0  0  0  0  0
   -0.9073    1.1865   -0.6350 H   0  0  0  0  0  0  0  0  0  0  0  0
   -1.7319   -0.3778   -0.6927 H   0  0  0  0  0  0  0  0  0  0  0  0
    1.0375    0.1401    0.5713 H   0  0  0  0  0  0  0  0  0  0  0  0
    0.7826   -0.6494   -0.9609 H   0  0  0  0  0  0  0  0  0  0  0  0
  1  2  1  0
  1  5  1  0
  1  6  1  0
  1  7  1  0
  2  3  1  0
  2  8  1  0
  2  9  1  0
  3  4  2  0
M  END
>  <reaction>  (3) 
rmg_rxn_15613

>  <mol_properties>  (3) 
{"0": {"label": "acceptor", "atom_type": "Cs"}, "8": {"label": "a_hydrogen", "atom_type": "H0"}}

>  <type>  (3) 
r2h

$$$$

     RDKit          3D

 17 15  0  0  0  0  0  0  0  0999 V2000
    1.0943    1.1952   -0.3047 C   0  0  0  0  0  3  0  0  0  0  0  0
    1.2190   -0.2957   -0.2032 C   0  0  0  0  0  0  0  0  0  0  0  0
    2.6642   -0.6326   -0.3741 N   0  0  0  0  0  0  0  0  0  0  0  0
    3.2069   -0.9575    0.6393 O   0  0  0  0  0  0  0  0  0  0  0  0
    1.5450    1.7394    0.5227 H   0  0  0  0  0  0  0  0  0  0  0  0
    1.3639    1.6118   -1.2725 H   0  0  0  0  0  0  0  0  0  0  0  0
    0.8728   -0.6760    0.7600 H   0  0  0  0  0  0  0  0  0  0  0  0
    0.6913   -0.7860   -1.0232 H   0  0  0  0  0  0  0  0  0  0  0  0
   -1.5497    1.6433   -0.0567 C   0  0  0  0  0  0  0  0  0  0  0  0
   -2.0810    0.4975    0.5136 O   0  0  0  0  0  0  0  0  0  0  0  0
   -2.1603   -0.5192   -0.4181 N   0  0  0  0  0  0  0  0  0  0  0  0
   -2.5995   -1.5868    0.0950 C   0  0  0  0  0  0  0  0  0  0  0  0
   -0.2429    1.4749   -0.1957 H   0  0  0  0  0  0  0  0  0  0  0  0
   -1.6781    2.4632    0.6447 H   0  0  0  0  0  0  0  0  0  0  0  0
   -1.9290    1.8414   -1.0585 H   0  0  0  0  0  0  0  0  0  0  0  0
   -2.7005   -2.4348   -0.5690 H   0  0  0  0  0  0  0  0  0  0  0  0
   -2.8685   -1.6663    1.1457 H   0  0  0  0  0  0  0  0  0  0  0  0
  1  2  1  0
  1  5  1  0
  1  6  1  0
  2  3  1  0
  2  7  1  0
  2  8  1  0
  3  4  2  0
  9 10  1  0
  9 13  1  0
  9 14  1  0
  9 15  1  0
 10 11  1  0
 11 12  2  3
 12 16  1  0
 12 17  1  0
M  RAD  1   1   2
M  END
>  <reaction>  (4) 
rmg_rxn_15613

>  <mol_properties>  (4) 
{"0": {"label": "*3", "atom_type": "Cs"}, "1": {"label": "*4", "atom_type": "Cs"}, "8": {"label": "*1", "atom_type": "Cs"}, "9": {"label": "*0", "atom_type": "O2s"}, "12": {"label": "*2", "atom_type": "H0"}}

>  <type>  (4) 
ts

$$$$

     RDKit          3D

 17 15  0  0  0  0  0  0  0  0999 V2000
    1.0787   -1.0792   -0.3316 C   0  0  0  0  0  3  0  0  0  0  0  0
    1.2804    0.3816   -0.1379 C   0  0  0  0  0  0  0  0  0  0  0  0
    2.7225    0.4607   -0.4154 N   0  0  0  0  0  0  0  0  0  0  0  0
    3.4767    0.4049    0.5446 O   0  0  0  0  0  0  0  0  0  0  0  0
    1.2830   -1.4177   -1.3410 H   0  0  0  0  0  0  0  0  0  0  0  0
    1.5779   -1.6907    0.4131 H   0  0  0  0  0  0  0  0  0  0  0  0
    0.7642    0.9784   -0.8892 H   0  0  0  0  0  0  0  0  0  0  0  0
    1.0348    0.7079    0.8773 H   0  0  0  0  0  0  0  0  0  0  0  0
   -1.4809   -1.6113   -0.0044 C   0  0  0  0  0  0  0  0  0  0  0  0
   -2.0582   -0.4872    0.5512 O   0  0  0  0  0  0  0  0  0  0  0  0
   -2.3143    0.4921   -0.3950 N   0  0  0  0  0  0  0  0  0  0  0  0
   -2.8201    1.5591    0.0426 C   0  0  0  0  0  0  0  0  0  0  0  0
   -0.2009   -1.3745   -0.1657 H   0  0  0  0  0  0  0  0  0  0  0  0
   -1.8568   -1.8470   -0.9974 H   0  0  0  0  0  0  0  0  0  0  0  0
   -1.5687   -2.4243    0.7078 H   0  0  0  0  0  0  0  0  0  0  0  0
   -3.0260    2.3241   -0.6848 H   0  0  0  0  0  0  0  0  0  0  0  0
   -3.0571    1.7430    1.0862 H   0  0  0  0  0  0  0  0  0  0  0  0
  1  2  1  0
  1  5  1  0
  1  6  1  0
  2  3  1  0
  2  7  1  0
  2  8  1  0
  3  4  2  0
  9 10  1  0
  9 13  1  0
  9 14  1  0
  9 15  1  0
 10 11  1  0
 11 12  2  3
 12 16  1  0
 12 17  1  0
M  RAD  1   1   2
M  END
>  <reaction>  (5) 
rmg_rxn_15613

>  <mol_properties>  (5) 
{"0": {"label": "*3", "atom_type": "Cs"}, "1": {"label": "*4", "atom_type": "Cs"}, "8": {"label": "*1", "atom_type": "Cs"}, "9": {"label": "*0", "atom_type": "O2s"}, "12": {"label": "*2", "atom_type": "H0"}}

>  <type>  (5) 
unop_1

>  <geom_source>  (5) 
crest_best.xyz

$$$$

     RDKit          3D

 17 15  0  0  0  0  0  0  0  0999 V2000
    0.6495   -0.3736    0.5907 C   0  0  0  0  0  0  0  0  0  0  0  0
    1.4379    0.5632    1.4754 C   0  0  0  0  0  0  0  0  0  0  0  0
    2.0557   -0.0298    2.6858 N   0  0  0  0  0  0  0  0  0  0  0  0
    1.8557   -1.1977    2.8241 O   0  0  0  0  0  0  0  0  0  0  0  0
    1.2763   -1.1818    0.2144 H   0  0  0  0  0  0  0  0  0  0  0  0
   -0.1813   -0.8234    1.1339 H   0  0  0  0  0  0  0  0  0  0  0  0
    2.2784    1.0351    0.9560 H   0  0  0  0  0  0  0  0  0  0  0  0
    0.8355    1.3898    1.8662 H   0  0  0  0  0  0  0  0  0  0  0  0
   -1.4895    0.8496   -0.2966 C   0  0  0  0  0  3  0  0  0  0  0  0
   -1.4895    0.9075   -1.7095 O   0  0  0  0  0  0  0  0  0  0  0  0
   -1.4895   -0.3664   -2.2252 N   0  0  0  0  0  0  0  0  0  0  0  0
   -1.4895   -0.3664   -3.4889 C   0  0  0  0  0  0  0  0  0  0  0  0
   -0.4189    0.2374    0.1475 H   0  0  0  0  0  0  0  0  0  0  0  0
   -2.3817    0.3394    0.0735 H   0  0  0  0  0  0  0  0  0  0  0  0
   -1.4896    1.8845    0.0412 H   0  0  0  0  0  0  0  0  0  0  0  0
   -1.4896   -1.3334   -3.9737 H   0  0  0  0  0  0  0  0  0  0  0  0
   -1.4895    0.5501   -4.0750 H   0  0  0  0  0  0  0  0  0  0  0  0
  1  2  1  0
  1  5  1  0
  1  6  1  0
  1 13  1  0
  2  3  1  0
  2  7  1  0
  2  8  1  0
  3  4  2  0
  9 10  1  0
  9 14  1  0
  9 15  1  0
 10 11  1  0
 11 12  2  3
 12 16  1  0
 12 17  1  0
M  RAD  1   9   2
M  END
>  <reaction>  (6) 
rmg_rxn_15613

>  <mol_properties>  (6) 
{"0": {"label": "*3", "atom_type": "Cs"}, "1": {"label": "*4", "atom_type": "Cs"}, "8": {"label": "*1", "atom_type": "Cs"}, "9": {"label": "*0", "atom_type": "O2s"}, "12": {"label": "*2", "atom_type": "H0"}}

>  <type>  (6) 
unop_2

>  <geom_source>  (6) 
Heuristics

$$$$

     RDKit          3D

 17 15  0  0  0  0  0  0  0  0999 V2000
    1.0801    1.0924   -0.3110 C   0  0  0  0  0  3  0  0  0  0  0  0
    1.2784   -0.3744   -0.1656 C   0  0  0  0  0  0  0  0  0  0  0  0
    2.7252   -0.4451   -0.4197 N   0  0  0  0  0  0  0  0  0  0  0  0
    3.4620   -0.4245    0.5551 O   0  0  0  0  0  0  0  0  0  0  0  0
    1.5659    1.6767    0.4638 H   0  0  0  0  0  0  0  0  0  0  0  0
    1.3027    1.4664   -1.3039 H   0  0  0  0  0  0  0  0  0  0  0  0
    1.0146   -0.7360    0.8331 H   0  0  0  0  0  0  0  0  0  0  0  0
    0.7755   -0.9441   -0.9463 H   0  0  0  0  0  0  0  0  0  0  0  0
   -1.4851    1.6112   -0.0072 C   0  0  0  0  0  0  0  0  0  0  0  0
   -2.0591    0.4862    0.5499 O   0  0  0  0  0  0  0  0  0  0  0  0
   -2.3056   -0.4980   -0.3939 N   0  0  0  0  0  0  0  0  0  0  0  0
   -2.8087   -1.5657    0.0452 C   0  0  0  0  0  0  0  0  0  0  0  0
   -0.2024    1.3815   -0.1577 H   0  0  0  0  0  0  0  0  0  0  0  0
   -1.5834    2.4275    0.6998 H   0  0  0  0  0  0  0  0  0  0  0  0
   -1.8551    1.8390   -1.0043 H   0  0  0  0  0  0  0  0  0  0  0  0
   -3.0072   -2.3346   -0.6801 H   0  0  0  0  0  0  0  0  0  0  0  0
   -3.0499   -1.7465    1.0882 H   0  0  0  0  0  0  0  0  0  0  0  0
  1  2  1  0
  1  5  1  0
  1  6  1  0
  2  3  1  0
  2  7  1  0
  2  8  1  0
  3  4  2  0
  9 10  1  0
  9 13  1  0
  9 14  1  0
  9 15  1  0
 10 11  1  0
 11 12  2  3
 12 16  1  0
 12 17  1  0
M  RAD  1   1   2
M  END
>  <reaction>  (7) 
rmg_rxn_15613

>  <mol_properties>  (7) 
{"0": {"label": "*3", "atom_type": "Cs"}, "1": {"label": "*4", "atom_type": "Cs"}, "8": {"label": "*1", "atom_type": "Cs"}, "9": {"label": "*0", "atom_type": "O2s"}, "12": {"label": "*2", "atom_type": "H0"}}

>  <type>  (7) 
unop_3

>  <geom_source>  (7) 
Heuristics

$$$$

     RDKit          3D

 17 15  0  0  0  0  0  0  0  0999 V2000
    1.4090   -1.4440   -0.5760 C   0  0  0  0  0  0  0  0  0  0  0  0
    2.5509   -1.0183    0.3192 C   0  0  0  0  0  0  0  0  0  0  0  0
    2.7986    0.3984    0.4389 N   0  0  0  0  0  0  0  0  0  0  0  0
    2.0805    1.1535   -0.1996 O   0  0  0  0  0  0  0  0  0  0  0  0
    1.4320   -0.9656   -1.5327 H   0  0  0  0  0  0  0  0  0  0  0  0
    1.3326   -2.5190   -0.6654 H   0  0  0  0  0  0  0  0  0  0  0  0
    2.4148   -1.3639    1.3505 H   0  0  0  0  0  0  0  0  0  0  0  0
    3.5091   -1.4343   -0.0152 H   0  0  0  0  0  0  0  0  0  0  0  0
   -3.3274   -1.0758    0.1913 C   0  0  0  0  0  3  0  0  0  0  0  0
   -2.8863    0.1757    0.1016 O   0  0  0  0  0  0  0  0  0  0  0  0
   -1.5180    0.2994   -0.0625 N   0  0  0  0  0  0  0  0  0  0  0  0
   -1.0839    1.4886   -0.1517 C   0  0  0  0  0  0  0  0  0  0  0  0
    0.4546   -0.9925   -0.2909 H   0  0  0  0  0  0  0  0  0  0  0  0
   -2.6446   -1.9013    0.1396 H   0  0  0  0  0  0  0  0  0  0  0  0
   -4.3864   -1.1704    0.3092 H   0  0  0  0  0  0  0  0  0  0  0  0
   -0.0207    1.6034   -0.2767 H   0  0  0  0  0  0  0  0  0  0  0  0
   -1.7161    2.3689   -0.1043 H   0  0  0  0  0  0  0  0  0  0  0  0
  1  2  1  0
  1  5  1  0
  1  6  1  0
  1 13  1  0
  2  3  1  0
  2  7  1  0
  2  8  1  0
  3  4  2  0
  9 10  1  0
  9 14  1  0
  9 15  1  0
 10 11  1  0
 11 12  2  3
 12 16  1  0
 12 17  1  0
M  RAD  1   9   2
M  END
>  <reaction>  (8) 
rmg_rxn_15613

>  <mol_properties>  (8) 
{"0": {"label": "*3", "atom_type": "Cs"}, "1": {"label": "*4", "atom_type": "Cs"}, "8": {"label": "*1", "atom_type": "Cs"}, "9": {"label": "*0", "atom_type": "O2s"}, "12": {"label": "*2", "atom_type": "H0"}}

>  <type>  (8) 
unop_4

>  <geom_source>  (8) 
Heuristics

$$$$

     RDKit          3D

 17 15  0  0  0  0  0  0  0  0999 V2000
    0.2919   -0.3022    1.3250 C   0  0  0  0  0  0  0  0  0  0  0  0
    1.4358   -0.0831    0.3633 C   0  0  0  0  0  0  0  0  0  0  0  0
    2.8001   -0.3353    0.8863 N   0  0  0  0  0  0  0  0  0  0  0  0
    2.8380   -0.6880    2.0253 O   0  0  0  0  0  0  0  0  0  0  0  0
    0.2667   -1.3322    1.6799 H   0  0  0  0  0  0  0  0  0  0  0  0
    0.3792    0.3469    2.1962 H   0  0  0  0  0  0  0  0  0  0  0  0
    1.3739   -0.7189   -0.5260 H   0  0  0  0  0  0  0  0  0  0  0  0
    1.4853    0.9432   -0.0150 H   0  0  0  0  0  0  0  0  0  0  0  0
   -1.8471    0.9210    0.4377 C   0  0  0  0  0  3  0  0  0  0  0  0
   -1.8472    0.9789   -0.9752 O   0  0  0  0  0  0  0  0  0  0  0  0
   -1.8472   -0.2950   -1.4909 N   0  0  0  0  0  0  0  0  0  0  0  0
   -1.8472   -0.2950   -2.7546 C   0  0  0  0  0  0  0  0  0  0  0  0
   -0.7765    0.3088    0.8818 H   0  0  0  0  0  0  0  0  0  0  0  0
   -2.7393    0.4108    0.8078 H   0  0  0  0  0  0  0  0  0  0  0  0
   -1.8472    1.9559    0.7755 H   0  0  0  0  0  0  0  0  0  0  0  0
   -1.8472   -1.2620   -3.2394 H   0  0  0  0  0  0  0  0  0  0  0  0
   -1.8472    0.6215   -3.3407 H   0  0  0  0  0  0  0  0  0  0  0  0
  1  2  1  0
  1  5  1  0
  1  6  1  0
  1 13  1  0
  2  3  1  0
  2  7  1  0
  2  8  1  0
  3  4  2  0
  9 10  1  0
  9 14  1  0
  9 15  1  0
 10 11  1  0
 11 12  2  3
 12 16  1  0
 12 17  1  0
M  RAD  1   9   2
M  END
>  <reaction>  (9) 
rmg_rxn_15613

>  <mol_properties>  (9) 
{"0": {"label": "*3", "atom_type": "Cs"}, "1": {"label": "*4", "atom_type": "Cs"}, "8": {"label": "*1", "atom_type": "Cs"}, "9": {"label": "*0", "atom_type": "O2s"}, "12": {"label": "*2", "atom_type": "H0"}}

>  <type>  (9) 
unop_5

>  <geom_source>  (9) 
Heuristics

$$$$

     RDKit          3D

 17 15  0  0  0  0  0  0  0  0999 V2000
    1.0803    1.0867   -0.3198 C   0  0  0  0  0  3  0  0  0  0  0  0
    1.2800   -0.3777   -0.1533 C   0  0  0  0  0  0  0  0  0  0  0  0
    2.7246   -0.4522   -0.4181 N   0  0  0  0  0  0  0  0  0  0  0  0
    3.4694   -0.4166    0.5502 O   0  0  0  0  0  0  0  0  0  0  0  0
    1.5721    1.6829    0.4422 H   0  0  0  0  0  0  0  0  0  0  0  0
    1.2952    1.4452   -1.3201 H   0  0  0  0  0  0  0  0  0  0  0  0
    1.0242   -0.7239    0.8529 H   0  0  0  0  0  0  0  0  0  0  0  0
    0.7708   -0.9594   -0.9211 H   0  0  0  0  0  0  0  0  0  0  0  0
   -1.4826    1.6109   -0.0060 C   0  0  0  0  0  0  0  0  0  0  0  0
   -2.0578    0.4863    0.5508 O   0  0  0  0  0  0  0  0  0  0  0  0
   -2.3118   -0.4945   -0.3945 N   0  0  0  0  0  0  0  0  0  0  0  0
   -2.8162   -1.5618    0.0440 C   0  0  0  0  0  0  0  0  0  0  0  0
   -0.2009    1.3783   -0.1609 H   0  0  0  0  0  0  0  0  0  0  0  0
   -1.5764    2.4261    0.7030 H   0  0  0  0  0  0  0  0  0  0  0  0
   -1.8553    1.8416   -1.0013 H   0  0  0  0  0  0  0  0  0  0  0  0
   -3.0207   -2.3280   -0.6826 H   0  0  0  0  0  0  0  0  0  0  0  0
   -3.0529   -1.7450    1.0877 H   0  0  0  0  0  0  0  0  0  0  0  0
  1  2  1  0
  1  5  1  0
  1  6  1  0
  2  3  1  0
  2  7  1  0
  2  8  1  0
  3  4  2  0
  9 10  1  0
  9 13  1  0
  9 14  1  0
  9 15  1  0
 10 11  1  0
 11 12  2  3
 12 16  1  0
 12 17  1  0
M  RAD  1   1   2
M  END
>  <reaction>  (10) 
rmg_rxn_15613

>  <mol_properties>  (10) 
{"0": {"label": "*3", "atom_type": "Cs"}, "1": {"label": "*4", "atom_type": "Cs"}, "8": {"label": "*1", "atom_type": "Cs"}, "9": {"label": "*0", "atom_type": "O2s"}, "12": {"label": "*2", "atom_type": "H0"}}

>  <type>  (10) 
unop_6

>  <geom_source>  (10) 
Heuristics

$$$$

     RDKit          3D

 17 15  0  0  0  0  0  0  0  0999 V2000
    0.7250   -0.1563    0.5689 C   0  0  0  0  0  0  0  0  0  0  0  0
    1.0978    0.3956    1.9246 C   0  0  0  0  0  0  0  0  0  0  0  0
    1.8160   -0.5231    2.8404 N   0  0  0  0  0  0  0  0  0  0  0  0
    2.0201   -1.6103    2.3938 O   0  0  0  0  0  0  0  0  0  0  0  0
    1.6092   -0.4669    0.0126 H   0  0  0  0  0  0  0  0  0  0  0  0
    0.0703   -1.0226    0.6620 H   0  0  0  0  0  0  0  0  0  0  0  0
    1.7527    1.2710    1.8641 H   0  0  0  0  0  0  0  0  0  0  0  0
    0.2295    0.7209    2.5069 H   0  0  0  0  0  0  0  0  0  0  0  0
   -1.4141    1.0669   -0.3185 C   0  0  0  0  0  3  0  0  0  0  0  0
   -1.4141    1.1248   -1.7314 O   0  0  0  0  0  0  0  0  0  0  0  0
   -1.4141   -0.1491   -2.2471 N   0  0  0  0  0  0  0  0  0  0  0  0
   -1.4141   -0.1491   -3.5107 C   0  0  0  0  0  0  0  0  0  0  0  0
   -0.3435    0.4547    0.1256 H   0  0  0  0  0  0  0  0  0  0  0  0
   -2.3062    0.5567    0.0516 H   0  0  0  0  0  0  0  0  0  0  0  0
   -1.4141    2.1018    0.0193 H   0  0  0  0  0  0  0  0  0  0  0  0
   -1.4141   -1.1162   -3.9956 H   0  0  0  0  0  0  0  0  0  0  0  0
   -1.4141    0.7674   -4.0969 H   0  0  0  0  0  0  0  0  0  0  0  0
  1  2  1  0
  1  5  1  0
  1  6  1  0
  1 13  1  0
  2  3  1  0
  2  7  1  0
  2  8  1  0
  3  4  2  0
  9 10  1  0
  9 14  1  0
  9 15  1  0
 10 11  1  0
 11 12  2  3
 12 16  1  0
 12 17  1  0
M  RAD  1   9   2
M  END
>  <reaction>  (11) 
rmg_rxn_15613

>  <mol_properties>  (11) 
{"0": {"label": "*3", "atom_type": "Cs"}, "1": {"label": "*4", "atom_type": "Cs"}, "8": {"label": "*1", "atom_type": "Cs"}, "9": {"label": "*0", "atom_type": "O2s"}, "12": {"label": "*2", "atom_type": "H0"}}

>  <type>  (11) 
unop_7

>  <geom_source>  (11) 
Heuristics

$$$$

     RDKit          3D

 17 15  0  0  0  0  0  0  0  0999 V2000
    0.8465    0.4049    1.0920 C   0  0  0  0  0  0  0  0  0  0  0  0
    0.8849   -1.0046    0.5503 C   0  0  0  0  0  0  0  0  0  0  0  0
    1.5111   -2.0318    1.4171 N   0  0  0  0  0  0  0  0  0  0  0  0
    1.9192   -1.6201    2.4597 O   0  0  0  0  0  0  0  0  0  0  0  0
    0.2883    0.4532    2.0267 H   0  0  0  0  0  0  0  0  0  0  0  0
    1.8510    0.7806    1.2857 H   0  0  0  0  0  0  0  0  0  0  0  0
   -0.1108   -1.4091    0.3412 H   0  0  0  0  0  0  0  0  0  0  0  0
    1.4361   -1.0851   -0.3923 H   0  0  0  0  0  0  0  0  0  0  0  0
   -1.2925    1.6280    0.2046 C   0  0  0  0  0  3  0  0  0  0  0  0
   -1.2925    1.6859   -1.2082 O   0  0  0  0  0  0  0  0  0  0  0  0
   -1.2925    0.4121   -1.7240 N   0  0  0  0  0  0  0  0  0  0  0  0
   -1.2925    0.4121   -2.9876 C   0  0  0  0  0  0  0  0  0  0  0  0
   -0.2219    1.0159    0.6488 H   0  0  0  0  0  0  0  0  0  0  0  0
   -2.1846    1.1178    0.5748 H   0  0  0  0  0  0  0  0  0  0  0  0
   -1.2925    2.6629    0.5425 H   0  0  0  0  0  0  0  0  0  0  0  0
   -1.2925   -0.5550   -3.4724 H   0  0  0  0  0  0  0  0  0  0  0  0
   -1.2925    1.3285   -3.5737 H   0  0  0  0  0  0  0  0  0  0  0  0
  1  2  1  0
  1  5  1  0
  1  6  1  0
  1 13  1  0
  2  3  1  0
  2  7  1  0
  2  8  1  0
  3  4  2  0
  9 10  1  0
  9 14  1  0
  9 15  1  0
 10 11  1  0
 11 12  2  3
 12 16  1  0
 12 17  1  0
M  RAD  1   9   2
M  END
>  <reaction>  (12) 
rmg_rxn_15613

>  <mol_properties>  (12) 
{"0": {"label": "*3", "atom_type": "Cs"}, "1": {"label": "*4", "atom_type": "Cs"}, "8": {"label": "*1", "atom_type": "Cs"}, "9": {"label": "*0", "atom_type": "O2s"}, "12": {"label": "*2", "atom_type": "H0"}}

>  <type>  (12) 
unop_8

>  <geom_source>  (12) 
Heuristics

$$$$

     RDKit          3D

 17 16  0  0  0  0  0  0  0  0999 V2000
    2.0435   -1.2037    0.9407 C   0  0  0  0  0  0  0  0  0  0  0  0
    1.6902   -1.0384   -0.5398 C   0  0  0  0  0  0  0  0  0  0  0  0
    1.4909    0.3733   -0.9327 N   0  0  0  0  0  2  0  0  0  0  0  0
    1.1353    1.2537   -0.0258 O   0  0  0  0  0  0  0  0  0  0  0  0
    3.0569   -0.8724    1.1598 H   0  0  0  0  0  0  0  0  0  0  0  0
    1.3274   -0.7212    1.5811 H   0  0  0  0  0  0  0  0  0  0  0  0
    2.5321   -1.4092   -1.1816 H   0  0  0  0  0  0  0  0  0  0  0  0
    0.7439   -1.6188   -0.8013 H   0  0  0  0  0  0  0  0  0  0  0  0
   -0.5104    1.3643    0.6354 C   0  0  0  0  0  0  0  0  0  0  0  0
   -1.2881    0.6502   -0.1925 O   0  0  0  0  0  0  0  0  0  0  0  0
   -1.9680   -0.4272    0.4316 N   0  0  0  0  0  0  0  0  0  0  0  0
   -2.6853   -1.0932   -0.3777 C   0  0  0  0  0  0  0  0  0  0  0  0
    1.8447   -2.2045    1.3407 H   0  0  0  0  0  0  0  0  0  0  0  0
   -0.5459    1.1298    1.7192 H   0  0  0  0  0  0  0  0  0  0  0  0
   -0.2921    2.4846    0.1832 H   0  0  0  0  0  0  0  0  0  0  0  0
   -3.2833   -1.8894    0.0483 H   0  0  0  0  0  0  0  0  0  0  0  0
   -2.7386   -0.8860   -1.4690 H   0  0  0  0  0  0  0  0  0  0  0  0
  1  2  1  0
  1  5  1  0
  1  6  1  0
  1 13  1  0
  2  3  1  0
  2  7  1  0
  2  8  1  0
  3  4  1  0
  4  9  1  0
  9 10  1  0
  9 14  1  0
  9 15  1  0
 10 11  1  0
 11 12  2  3
 12 16  1  0
 12 17  1  0
M  RAD  1   3   2
M  END
>  <reaction>  (13) 
rmg_rxn_15613

>  <mol_properties>  (13) 
{"0": {"label": "*3", "atom_type": "Cs"}, "1": {"label": "*4", "atom_type": "Cs"}, "8": {"label": "*1", "atom_type": "Cs"}, "9": {"label": "*0", "atom_type": "O2s"}, "12": {"label": "*2", "atom_type": "H0"}}

>  <type>  (13) 
unop_9

>  <geom_source>  (13) 
Heuristics

$$$$

     RDKit          3D

 17 15  0  0  0  0  0  0  0  0999 V2000
    0.6825   -0.0874    0.6148 C   0  0  0  0  0  0  0  0  0  0  0  0
    0.6507   -0.1316    2.1243 C   0  0  0  0  0  0  0  0  0  0  0  0
    1.7960   -0.7945    2.7931 N   0  0  0  0  0  0  0  0  0  0  0  0
    2.6245   -1.2237    2.0498 O   0  0  0  0  0  0  0  0  0  0  0  0
    1.5611    0.4471    0.2543 H   0  0  0  0  0  0  0  0  0  0  0  0
    0.7077   -1.0912    0.1912 H   0  0  0  0  0  0  0  0  0  0  0  0
    0.6205    0.8634    2.5803 H   0  0  0  0  0  0  0  0  0  0  0  0
   -0.2243   -0.6592    2.5179 H   0  0  0  0  0  0  0  0  0  0  0  0
   -1.4566    1.1358   -0.2725 C   0  0  0  0  0  3  0  0  0  0  0  0
   -1.4566    1.1937   -1.6854 O   0  0  0  0  0  0  0  0  0  0  0  0
   -1.4566   -0.0802   -2.2012 N   0  0  0  0  0  0  0  0  0  0  0  0
   -1.4566   -0.0802   -3.4648 C   0  0  0  0  0  0  0  0  0  0  0  0
   -0.3860    0.5236    0.1716 H   0  0  0  0  0  0  0  0  0  0  0  0
   -2.3487    0.6256    0.0976 H   0  0  0  0  0  0  0  0  0  0  0  0
   -1.4566    2.1707    0.0653 H   0  0  0  0  0  0  0  0  0  0  0  0
   -1.4566   -1.0473   -3.9496 H   0  0  0  0  0  0  0  0  0  0  0  0
   -1.4566    0.8363   -4.0509 H   0  0  0  0  0  0  0  0  0  0  0  0
  1  2  1  0
  1  5  1  0
  1  6  1  0
  1 13  1  0
  2  3  1  0
  2  7  1  0
  2  8  1  0
  3  4  2  0
  9 10  1  0
  9 14  1  0
  9 15  1  0
 10 11  1  0
 11 12  2  3
 12 16  1  0
 12 17  1  0
M  RAD  1   9   2
M  END
>  <reaction>  (14) 
rmg_rxn_15613

>  <mol_properties>  (14) 
{"0": {"label": "*3", "atom_type": "Cs"}, "1": {"label": "*4", "atom_type": "Cs"}, "8": {"label": "*1", "atom_type": "Cs"}, "9": {"label": "*0", "atom_type": "O2s"}, "12": {"label": "*2", "atom_type": "H0"}}

>  <type>  (14) 
unop_10

>  <geom_source>  (14) 
Heuristics

$$$$

     RDKit          3D

 17 15  0  0  0  0  0  0  0  0999 V2000
    1.4070    1.4476   -0.5614 C   0  0  0  0  0  0  0  0  0  0  0  0
    2.5584    1.0165    0.3189 C   0  0  0  0  0  0  0  0  0  0  0  0
    2.8066   -0.4010    0.4285 N   0  0  0  0  0  0  0  0  0  0  0  0
    2.0800   -1.1523   -0.2049 O   0  0  0  0  0  0  0  0  0  0  0  0
    1.3267    2.5232   -0.6391 H   0  0  0  0  0  0  0  0  0  0  0  0
    1.4224    0.9790   -1.5231 H   0  0  0  0  0  0  0  0  0  0  0  0
    3.5132    1.4341   -0.0234 H   0  0  0  0  0  0  0  0  0  0  0  0
    2.4335    1.3566    1.3534 H   0  0  0  0  0  0  0  0  0  0  0  0
   -3.3315    1.0761    0.1801 C   0  0  0  0  0  3  0  0  0  0  0  0
   -2.8887   -0.1759    0.1075 O   0  0  0  0  0  0  0  0  0  0  0  0
   -1.5214   -0.2998   -0.0652 N   0  0  0  0  0  0  0  0  0  0  0  0
   -1.0864   -1.4893   -0.1440 C   0  0  0  0  0  0  0  0  0  0  0  0
    0.4566    0.9904   -0.2721 H   0  0  0  0  0  0  0  0  0  0  0  0
   -2.6510    1.9021    0.1067 H   0  0  0  0  0  0  0  0  0  0  0  0
   -4.3893    1.1705    0.3085 H   0  0  0  0  0  0  0  0  0  0  0  0
   -0.0239   -1.6043   -0.2741 H   0  0  0  0  0  0  0  0  0  0  0  0
   -1.7170   -2.3698   -0.0812 H   0  0  0  0  0  0  0  0  0  0  0  0
  1  2  1  0
  1  5  1  0
  1  6  1  0
  1 13  1  0
  2  3  1  0
  2  7  1  0
  2  8  1  0
  3  4  2  0
  9 10  1  0
  9 14  1  0
  9 15  1  0
 10 11  1  0
 11 12  2  3
 12 16  1  0
 12 17  1  0
M  RAD  1   9   2
M  END
>  <reaction>  (15) 
rmg_rxn_15613

>  <mol_properties>  (15) 
{"0": {"label": "*3", "atom_type": "Cs"}, "1": {"label": "*4", "atom_type": "Cs"}, "8": {"label": "*1", "atom_type": "Cs"}, "9": {"label": "*0", "atom_type": "O2s"}, "12": {"label": "*2", "atom_type": "H0"}}

>  <type>  (15) 
unop_11

>  <geom_source>  (15) 
Heuristics

$$$$

     RDKit          3D

 17 15  0  0  0  0  0  0  0  0999 V2000
    0.9479    0.3046    0.8054 C   0  0  0  0  0  0  0  0  0  0  0  0
    0.6713   -1.1754    0.9259 C   0  0  0  0  0  0  0  0  0  0  0  0
    1.2481   -1.8644    2.1053 N   0  0  0  0  0  0  0  0  0  0  0  0
    1.8746   -1.1590    2.8354 O   0  0  0  0  0  0  0  0  0  0  0  0
    0.5568    0.8503    1.6639 H   0  0  0  0  0  0  0  0  0  0  0  0
    2.0180    0.5024    0.7461 H   0  0  0  0  0  0  0  0  0  0  0  0
   -0.3973   -1.4069    0.9832 H   0  0  0  0  0  0  0  0  0  0  0  0
    1.0490   -1.7513    0.0747 H   0  0  0  0  0  0  0  0  0  0  0  0
   -1.1912    1.5278   -0.0820 C   0  0  0  0  0  3  0  0  0  0  0  0
   -1.1912    1.5857   -1.4948 O   0  0  0  0  0  0  0  0  0  0  0  0
   -1.1912    0.3118   -2.0106 N   0  0  0  0  0  0  0  0  0  0  0  0
   -1.1912    0.3118   -3.2742 C   0  0  0  0  0  0  0  0  0  0  0  0
   -0.1206    0.9156    0.3622 H   0  0  0  0  0  0  0  0  0  0  0  0
   -2.0833    1.0176    0.2882 H   0  0  0  0  0  0  0  0  0  0  0  0
   -1.1912    2.5627    0.2558 H   0  0  0  0  0  0  0  0  0  0  0  0
   -1.1912   -0.6552   -3.7590 H   0  0  0  0  0  0  0  0  0  0  0  0
   -1.1912    1.2283   -3.8603 H   0  0  0  0  0  0  0  0  0  0  0  0
  1  2  1  0
  1  5  1  0
  1  6  1  0
  1 13  1  0
  2  3  1  0
  2  7  1  0
  2  8  1  0
  3  4  2  0
  9 10  1  0
  9 14  1  0
  9 15  1  0
 10 11  1  0
 11 12  2  3
 12 16  1  0
 12 17  1  0
M  RAD  1   9   2
M  END
>  <reaction>  (16) 
rmg_rxn_15613

>  <mol_properties>  (16) 
{"0": {"label": "*3", "atom_type": "Cs"}, "1": {"label": "*4", "atom_type": "Cs"}, "8": {"label": "*1", "atom_type": "Cs"}, "9": {"label": "*0", "atom_type": "O2s"}, "12": {"label": "*2", "atom_type": "H0"}}

>  <type>  (16) 
unop_12

>  <geom_source>  (16) 
Heuristics

$$$$

     RDKit          3D

 17 15  0  0  0  0  0  0  0  0999 V2000
    1.0797   -1.0874   -0.3162 C   0  0  0  0  0  3  0  0  0  0  0  0
    1.2801    0.3774   -0.1542 C   0  0  0  0  0  0  0  0  0  0  0  0
    2.7247    0.4502   -0.4183 N   0  0  0  0  0  0  0  0  0  0  0  0
    3.4690    0.4175    0.5505 O   0  0  0  0  0  0  0  0  0  0  0  0
    1.2960   -1.4493   -1.3149 H   0  0  0  0  0  0  0  0  0  0  0  0
    1.5698   -1.6815    0.4485 H   0  0  0  0  0  0  0  0  0  0  0  0
    0.7715    0.9568   -0.9241 H   0  0  0  0  0  0  0  0  0  0  0  0
    1.0239    0.7268    0.8507 H   0  0  0  0  0  0  0  0  0  0  0  0
   -1.4840   -1.6110   -0.0081 C   0  0  0  0  0  0  0  0  0  0  0  0
   -2.0620   -0.4880    0.5489 O   0  0  0  0  0  0  0  0  0  0  0  0
   -2.3042    0.4985   -0.3936 N   0  0  0  0  0  0  0  0  0  0  0  0
   -2.8163    1.5623    0.0446 C   0  0  0  0  0  0  0  0  0  0  0  0
   -0.2019   -1.3779   -0.1588 H   0  0  0  0  0  0  0  0  0  0  0  0
   -1.8533   -1.8406   -1.0051 H   0  0  0  0  0  0  0  0  0  0  0  0
   -1.5799   -2.4274    0.6992 H   0  0  0  0  0  0  0  0  0  0  0  0
   -3.0111    2.3330   -0.6799 H   0  0  0  0  0  0  0  0  0  0  0  0
   -3.0688    1.7381    1.0858 H   0  0  0  0  0  0  0  0  0  0  0  0
  1  2  1  0
  1  5  1  0
  1  6  1  0
  2  3  1  0
  2  7  1  0
  2  8  1  0
  3  4  2  0
  9 10  1  0
  9 13  1  0
  9 14  1  0
  9 15  1  0
 10 11  1  0
 11 12  2  3
 12 16  1  0
 12 17  1  0
M  RAD  1   1   2
M  END
>  <reaction>  (17) 
rmg_rxn_15613

>  <mol_properties>  (17) 
{"0": {"label": "*3", "atom_type": "Cs"}, "1": {"label": "*4", "atom_type": "Cs"}, "8": {"label": "*1", "atom_type": "Cs"}, "9": {"label": "*0", "atom_type": "O2s"}, "12": {"label": "*2", "atom_type": "H0"}}

>  <type>  (17) 
unop_13

>  <geom_source>  (17) 
Heuristics

$$$$

     RDKit          3D

 17 15  0  0  0  0  0  0  0  0999 V2000
    0.9083    0.0929    0.6099 C   0  0  0  0  0  0  0  0  0  0  0  0
    0.5016   -1.1244    1.4062 C   0  0  0  0  0  0  0  0  0  0  0  0
    1.2893   -1.4110    2.6292 N   0  0  0  0  0  0  0  0  0  0  0  0
    2.1683   -0.6344    2.8471 O   0  0  0  0  0  0  0  0  0  0  0  0
    0.8304    1.0001    1.2086 H   0  0  0  0  0  0  0  0  0  0  0  0
    1.9384    0.0115    0.2633 H   0  0  0  0  0  0  0  0  0  0  0  0
   -0.5316   -1.0743    1.7652 H   0  0  0  0  0  0  0  0  0  0  0  0
    0.5651   -2.0529    0.8295 H   0  0  0  0  0  0  0  0  0  0  0  0
   -1.2307    1.3161   -0.2775 C   0  0  0  0  0  3  0  0  0  0  0  0
   -1.2307    1.3740   -1.6904 O   0  0  0  0  0  0  0  0  0  0  0  0
   -1.2307    0.1001   -2.2061 N   0  0  0  0  0  0  0  0  0  0  0  0
   -1.2307    0.1001   -3.4697 C   0  0  0  0  0  0  0  0  0  0  0  0
   -0.1601    0.7039    0.1666 H   0  0  0  0  0  0  0  0  0  0  0  0
   -2.1228    0.8059    0.0926 H   0  0  0  0  0  0  0  0  0  0  0  0
   -1.2307    2.3510    0.0603 H   0  0  0  0  0  0  0  0  0  0  0  0
   -1.2307   -0.8670   -3.9546 H   0  0  0  0  0  0  0  0  0  0  0  0
   -1.2307    1.0166   -4.0559 H   0  0  0  0  0  0  0  0  0  0  0  0
  1  2  1  0
  1  5  1  0
  1  6  1  0
  1 13  1  0
  2  3  1  0
  2  7  1  0
  2  8  1  0
  3  4  2  0
  9 10  1  0
  9 14  1  0
  9 15  1  0
 10 11  1  0
 11 12  2  3
 12 16  1  0
 12 17  1  0
M  RAD  1   9   2
M  END
>  <reaction>  (18) 
rmg_rxn_15613

>  <mol_properties>  (18) 
{"0": {"label": "*3", "atom_type": "Cs"}, "1": {"label": "*4", "atom_type": "Cs"}, "8": {"label": "*1", "atom_type": "Cs"}, "9": {"label": "*0", "atom_type": "O2s"}, "12": {"label": "*2", "atom_type": "H0"}}

>  <type>  (18) 
unop_14

>  <geom_source>  (18) 
Heuristics

$$$$

     RDKit          3D

 17 15  0  0  0  0  0  0  0  0999 V2000
    1.4033    1.4459    0.5573 C   0  0  0  0  0  0  0  0  0  0  0  0
    2.5634    1.0176   -0.3129 C   0  0  0  0  0  0  0  0  0  0  0  0
    2.8135   -0.3995   -0.4237 N   0  0  0  0  0  0  0  0  0  0  0  0
    2.0819   -1.1529    0.2013 O   0  0  0  0  0  0  0  0  0  0  0  0
    1.4084    0.9735    1.5172 H   0  0  0  0  0  0  0  0  0  0  0  0
    1.3227    2.5212    0.6384 H   0  0  0  0  0  0  0  0  0  0  0  0
    2.4487    1.3604   -1.3478 H   0  0  0  0  0  0  0  0  0  0  0  0
    3.5146    1.4346    0.0400 H   0  0  0  0  0  0  0  0  0  0  0  0
   -3.3358    1.0744   -0.1817 C   0  0  0  0  0  3  0  0  0  0  0  0
   -2.8922   -0.1767   -0.0995 O   0  0  0  0  0  0  0  0  0  0  0  0
   -1.5228   -0.2989    0.0571 N   0  0  0  0  0  0  0  0  0  0  0  0
   -1.0868   -1.4877    0.1420 C   0  0  0  0  0  0  0  0  0  0  0  0
    0.4556    0.9903    0.2572 H   0  0  0  0  0  0  0  0  0  0  0  0
   -2.6542    1.9010   -0.1286 H   0  0  0  0  0  0  0  0  0  0  0  0
   -4.3954    1.1676   -0.2954 H   0  0  0  0  0  0  0  0  0  0  0  0
   -0.0228   -1.6014    0.2617 H   0  0  0  0  0  0  0  0  0  0  0  0
   -1.7182   -2.3687    0.0967 H   0  0  0  0  0  0  0  0  0  0  0  0
  1  2  1  0
  1  5  1  0
  1  6  1  0
  1 13  1  0
  2  3  1  0
  2  7  1  0
  2  8  1  0
  3  4  2  0
  9 10  1  0
  9 14  1  0
  9 15  1  0
 10 11  1  0
 11 12  2  3
 12 16  1  0
 12 17  1  0
M  RAD  1   9   2
M  END
>  <reaction>  (19) 
rmg_rxn_15613

>  <mol_properties>  (19) 
{"0": {"label": "*3", "atom_type": "Cs"}, "1": {"label": "*4", "atom_type": "Cs"}, "8": {"label": "*1", "atom_type": "Cs"}, "9": {"label": "*0", "atom_type": "O2s"}, "12": {"label": "*2", "atom_type": "H0"}}

>  <type>  (19) 
unop_15

>  <geom_source>  (19) 
Heuristics

$$$$

     RDKit          3D

 17 15  0  0  0  0  0  0  0  0999 V2000
    0.4843   -0.5310    0.7712 C   0  0  0  0  0  0  0  0  0  0  0  0
    1.5877    0.4763    0.9936 C   0  0  0  0  0  0  0  0  0  0  0  0
    2.4362    0.2771    2.1931 N   0  0  0  0  0  0  0  0  0  0  0  0
    2.1451   -0.6715    2.8554 O   0  0  0  0  0  0  0  0  0  0  0  0
    0.8858   -1.5383    0.6624 H   0  0  0  0  0  0  0  0  0  0  0  0
   -0.2151   -0.5410    1.6069 H   0  0  0  0  0  0  0  0  0  0  0  0
    2.3054    0.5132    0.1675 H   0  0  0  0  0  0  0  0  0  0  0  0
    1.2157    1.5003    1.1024 H   0  0  0  0  0  0  0  0  0  0  0  0
   -1.6548    0.6922   -0.1162 C   0  0  0  0  0  3  0  0  0  0  0  0
   -1.6548    0.7501   -1.5291 O   0  0  0  0  0  0  0  0  0  0  0  0
   -1.6548   -0.5238   -2.0448 N   0  0  0  0  0  0  0  0  0  0  0  0
   -1.6548   -0.5238   -3.3084 C   0  0  0  0  0  0  0  0  0  0  0  0
   -0.5842    0.0800    0.3279 H   0  0  0  0  0  0  0  0  0  0  0  0
   -2.5469    0.1820    0.2539 H   0  0  0  0  0  0  0  0  0  0  0  0
   -1.6548    1.7271    0.2216 H   0  0  0  0  0  0  0  0  0  0  0  0
   -1.6548   -1.4908   -3.7933 H   0  0  0  0  0  0  0  0  0  0  0  0
   -1.6548    0.3927   -3.8946 H   0  0  0  0  0  0  0  0  0  0  0  0
  1  2  1  0
  1  5  1  0
  1  6  1  0
  1 13  1  0
  2  3  1  0
  2  7  1  0
  2  8  1  0
  3  4  2  0
  9 10  1  0
  9 14  1  0
  9 15  1  0
 10 11  1  0
 11 12  2  3
 12 16  1  0
 12 17  1  0
M  RAD  1   9   2
M  END
>  <reaction>  (20) 
rmg_rxn_15613

>  <mol_properties>  (20) 
{"0": {"label": "*3", "atom_type": "Cs"}, "1": {"label": "*4", "atom_type": "Cs"}, "8": {"label": "*1", "atom_type": "Cs"}, "9": {"label": "*0", "atom_type": "O2s"}, "12": {"label": "*2", "atom_type": "H0"}}

>  <type>  (20) 
unop_16

>  <geom_source>  (20) 
Heuristics

$$$$

     RDKit          3D

 17 15  0  0  0  0  0  0  0  0999 V2000
    1.0787   -1.0792   -0.3316 C   0  0  0  0  0  3  0  0  0  0  0  0
    1.2804    0.3816   -0.1379 C   0  0  0  0  0  0  0  0  0  0  0  0
    2.7225    0.4607   -0.4154 N   0  0  0  0  0  0  0  0  0  0  0  0
    3.4767    0.4049    0.5446 O   0  0  0  0  0  0  0  0  0  0  0  0
    1.2830   -1.4177   -1.3410 H   0  0  0  0  0  0  0  0  0  0  0  0
    1.5779   -1.6907    0.4131 H   0  0  0  0  0  0  0  0  0  0  0  0
    0.7642    0.9784   -0.8892 H   0  0  0  0  0  0  0  0  0  0  0  0
    1.0348    0.7079    0.8773 H   0  0  0  0  0  0  0  0  0  0  0  0
   -1.4809   -1.6113   -0.0044 C   0  0  0  0  0  0  0  0  0  0  0  0
   -2.0582   -0.4872    0.5512 O   0  0  0  0  0  0  0  0  0  0  0  0
   -2.3143    0.4921   -0.3950 N   0  0  0  0  0  0  0  0  0  0  0  0
   -2.8201    1.5591    0.0426 C   0  0  0  0  0  0  0  0  0  0  0  0
   -0.2009   -1.3745   -0.1657 H   0  0  0  0  0  0  0  0  0  0  0  0
   -1.8568   -1.8470   -0.9974 H   0  0  0  0  0  0  0  0  0  0  0  0
   -1.5687   -2.4243    0.7078 H   0  0  0  0  0  0  0  0  0  0  0  0
   -3.0260    2.3241   -0.6848 H   0  0  0  0  0  0  0  0  0  0  0  0
   -3.0571    1.7430    1.0862 H   0  0  0  0  0  0  0  0  0  0  0  0
  1  2  1  0
  1  5  1  0
  1  6  1  0
  2  3  1  0
  2  7  1  0
  2  8  1  0
  3  4  2  0
  9 10  1  0
  9 13  1  0
  9 14  1  0
  9 15  1  0
 10 11  1  0
 11 12  2  3
 12 16  1  0
 12 17  1  0
M  RAD  1   1   2
M  END
>  <reaction>  (21) 
rmg_rxn_15613

>  <mol_properties>  (21) 
{"0": {"label": "*3", "atom_type": "Cs"}, "1": {"label": "*4", "atom_type": "Cs"}, "8": {"label": "*1", "atom_type": "Cs"}, "9": {"label": "*0", "atom_type": "O2s"}, "12": {"label": "*2", "atom_type": "H0"}}

>  <type>  (21) 
unop_17

>  <geom_source>  (21) 
Heuristics

$$$$

     RDKit          3D

 17 15  0  0  0  0  0  0  0  0999 V2000
    0.6329    0.3123    1.3502 C   0  0  0  0  0  0  0  0  0  0  0  0
    1.0868   -0.7123    0.3375 C   0  0  0  0  0  0  0  0  0  0  0  0
    2.0052   -1.7681    0.8276 N   0  0  0  0  0  0  0  0  0  0  0  0
    2.2846   -1.6855    1.9844 O   0  0  0  0  0  0  0  0  0  0  0  0
    0.0989   -0.1583    2.1755 H   0  0  0  0  0  0  0  0  0  0  0  0
    1.4800    0.8547    1.7696 H   0  0  0  0  0  0  0  0  0  0  0  0
    0.2565   -1.2717   -0.1058 H   0  0  0  0  0  0  0  0  0  0  0  0
    1.6236   -0.2689   -0.5076 H   0  0  0  0  0  0  0  0  0  0  0  0
   -1.5062    1.5355    0.4629 C   0  0  0  0  0  3  0  0  0  0  0  0
   -1.5062    1.5934   -0.9500 O   0  0  0  0  0  0  0  0  0  0  0  0
   -1.5062    0.3195   -1.4658 N   0  0  0  0  0  0  0  0  0  0  0  0
   -1.5062    0.3195   -2.7294 C   0  0  0  0  0  0  0  0  0  0  0  0
   -0.4356    0.9233    0.9070 H   0  0  0  0  0  0  0  0  0  0  0  0
   -2.3983    1.0253    0.8330 H   0  0  0  0  0  0  0  0  0  0  0  0
   -1.5062    2.5704    0.8007 H   0  0  0  0  0  0  0  0  0  0  0  0
   -1.5062   -0.6475   -3.2142 H   0  0  0  0  0  0  0  0  0  0  0  0
   -1.5062    1.2360   -3.3155 H   0  0  0  0  0  0  0  0  0  0  0  0
  1  2  1  0
  1  5  1  0
  1  6  1  0
  1 13  1  0
  2  3  1  0
  2  7  1  0
  2  8  1  0
  3  4  2  0
  9 10  1  0
  9 14  1  0
  9 15  1  0
 10 11  1  0
 11 12  2  3
 12 16  1  0
 12 17  1  0
M  RAD  1   9   2
M  END
>  <reaction>  (22) 
rmg_rxn_15613

>  <mol_properties>  (22) 
{"0": {"label": "*3", "atom_type": "Cs"}, "1": {"label": "*4", "atom_type": "Cs"}, "8": {"label": "*1", "atom_type": "Cs"}, "9": {"label": "*0", "atom_type": "O2s"}, "12": {"label": "*2", "atom_type": "H0"}}

>  <type>  (22) 
unop_18

>  <geom_source>  (22) 
Heuristics

$$$$

     RDKit          3D

 17 15  0  0  0  0  0  0  0  0999 V2000
    0.3357   -0.5159    1.0543 C   0  0  0  0  0  0  0  0  0  0  0  0
    1.5692    0.2287    0.6009 C   0  0  0  0  0  0  0  0  0  0  0  0
    2.7413    0.1855    1.5080 N   0  0  0  0  0  0  0  0  0  0  0  0
    2.5725   -0.4427    2.5080 O   0  0  0  0  0  0  0  0  0  0  0  0
    0.5429   -1.5773    1.1891 H   0  0  0  0  0  0  0  0  0  0  0  0
   -0.0335   -0.1268    2.0030 H   0  0  0  0  0  0  0  0  0  0  0  0
    1.9622   -0.1369   -0.3534 H   0  0  0  0  0  0  0  0  0  0  0  0
    1.3917    1.2989    0.4522 H   0  0  0  0  0  0  0  0  0  0  0  0
   -1.8034    0.7073    0.1669 C   0  0  0  0  0  3  0  0  0  0  0  0
   -1.8034    0.7652   -1.2460 O   0  0  0  0  0  0  0  0  0  0  0  0
   -1.8034   -0.5087   -1.7617 N   0  0  0  0  0  0  0  0  0  0  0  0
   -1.8034   -0.5087   -3.0253 C   0  0  0  0  0  0  0  0  0  0  0  0
   -0.7328    0.0951    0.6110 H   0  0  0  0  0  0  0  0  0  0  0  0
   -2.6955    0.1971    0.5370 H   0  0  0  0  0  0  0  0  0  0  0  0
   -1.8034    1.7422    0.5047 H   0  0  0  0  0  0  0  0  0  0  0  0
   -1.8034   -1.4757   -3.5101 H   0  0  0  0  0  0  0  0  0  0  0  0
   -1.8034    0.4078   -3.6115 H   0  0  0  0  0  0  0  0  0  0  0  0
  1  2  1  0
  1  5  1  0
  1  6  1  0
  1 13  1  0
  2  3  1  0
  2  7  1  0
  2  8  1  0
  3  4  2  0
  9 10  1  0
  9 14  1  0
  9 15  1  0
 10 11  1  0
 11 12  2  3
 12 16  1  0
 12 17  1  0
M  RAD  1   9   2
M  END
>  <reaction>  (23) 
rmg_rxn_15613

>  <mol_properties>  (23) 
{"0": {"label": "*3", "atom_type": "Cs"}, "1": {"label": "*4", "atom_type": "Cs"}, "8": {"label": "*1", "atom_type": "Cs"}, "9": {"label": "*0", "atom_type": "O2s"}, "12": {"label": "*2", "atom_type": "H0"}}

>  <type>  (23) 
unop_19

>  <geom_source>  (23) 
Heuristics

$$$$

     RDKit          3D

 17 15  0  0  0  0  0  0  0  0999 V2000
    0.7650   -0.0842    0.5718 C   0  0  0  0  0  0  0  0  0  0  0  0
    0.4478   -0.7760    1.8766 C   0  0  0  0  0  0  0  0  0  0  0  0
    1.5750   -0.9575    2.8226 N   0  0  0  0  0  0  0  0  0  0  0  0
    2.6199   -0.5292    2.4381 O   0  0  0  0  0  0  0  0  0  0  0  0
    1.1489    0.9215    0.7417 H   0  0  0  0  0  0  0  0  0  0  0  0
    1.5160   -0.6348    0.0057 H   0  0  0  0  0  0  0  0  0  0  0  0
   -0.3082   -0.2482    2.4671 H   0  0  0  0  0  0  0  0  0  0  0  0
    0.0552   -1.7887    1.7387 H   0  0  0  0  0  0  0  0  0  0  0  0
   -1.3741    1.1390   -0.3156 C   0  0  0  0  0  3  0  0  0  0  0  0
   -1.3741    1.1969   -1.7284 O   0  0  0  0  0  0  0  0  0  0  0  0
   -1.3741   -0.0770   -2.2442 N   0  0  0  0  0  0  0  0  0  0  0  0
   -1.3741   -0.0770   -3.5078 C   0  0  0  0  0  0  0  0  0  0  0  0
   -0.3035    0.5268    0.1286 H   0  0  0  0  0  0  0  0  0  0  0  0
   -2.2662    0.6288    0.0546 H   0  0  0  0  0  0  0  0  0  0  0  0
   -1.3741    2.1739    0.0223 H   0  0  0  0  0  0  0  0  0  0  0  0
   -1.3741   -1.0441   -3.9926 H   0  0  0  0  0  0  0  0  0  0  0  0
   -1.3741    0.8395   -4.0939 H   0  0  0  0  0  0  0  0  0  0  0  0
  1  2  1  0
  1  5  1  0
  1  6  1  0
  1 13  1  0
  2  3  1  0
  2  7  1  0
  2  8  1  0
  3  4  2  0
  9 10  1  0
  9 14  1  0
  9 15  1  0
 10 11  1  0
 11 12  2  3
 12 16  1  0
 12 17  1  0
M  RAD  1   9   2
M  END
>  <reaction>  (24) 
rmg_rxn_15613

>  <mol_properties>  (24) 
{"0": {"label": "*3", "atom_type": "Cs"}, "1": {"label": "*4", "atom_type": "Cs"}, "8": {"label": "*1", "atom_type": "Cs"}, "9": {"label": "*0", "atom_type": "O2s"}, "12": {"label": "*2", "atom_type": "H0"}}

>  <type>  (24) 
unop_20

>  <geom_source>  (24) 
Heuristics

$$$$

     RDKit          3D

 17 15  0  0  0  0  0  0  0  0999 V2000
    0.4052    0.0323    1.4481 C   0  0  0  0  0  0  0  0  0  0  0  0
    1.2638   -0.3963    0.2816 C   0  0  0  0  0  0  0  0  0  0  0  0
    2.5224   -1.1080    0.6101 N   0  0  0  0  0  0  0  0  0  0  0  0
    2.7153   -1.2628    1.7771 O   0  0  0  0  0  0  0  0  0  0  0  0
    0.0916   -0.8252    2.0431 H   0  0  0  0  0  0  0  0  0  0  0  0
    0.9450    0.7130    2.1061 H   0  0  0  0  0  0  0  0  0  0  0  0
    0.7470   -1.0785   -0.4013 H   0  0  0  0  0  0  0  0  0  0  0  0
    1.5917    0.4442   -0.3389 H   0  0  0  0  0  0  0  0  0  0  0  0
   -1.7338    1.2554    0.5608 C   0  0  0  0  0  3  0  0  0  0  0  0
   -1.7338    1.3133   -0.8521 O   0  0  0  0  0  0  0  0  0  0  0  0
   -1.7338    0.0395   -1.3679 N   0  0  0  0  0  0  0  0  0  0  0  0
   -1.7338    0.0395   -2.6315 C   0  0  0  0  0  0  0  0  0  0  0  0
   -0.6632    0.6433    1.0049 H   0  0  0  0  0  0  0  0  0  0  0  0
   -2.6260    0.7452    0.9309 H   0  0  0  0  0  0  0  0  0  0  0  0
   -1.7339    2.2903    0.8986 H   0  0  0  0  0  0  0  0  0  0  0  0
   -1.7339   -0.9276   -3.1163 H   0  0  0  0  0  0  0  0  0  0  0  0
   -1.7338    0.9559   -3.2176 H   0  0  0  0  0  0  0  0  0  0  0  0
  1  2  1  0
  1  5  1  0
  1  6  1  0
  1 13  1  0
  2  3  1  0
  2  7  1  0
  2  8  1  0
  3  4  2  0
  9 10  1  0
  9 14  1  0
  9 15  1  0
 10 11  1  0
 11 12  2  3
 12 16  1  0
 12 17  1  0
M  RAD  1   9   2
M  END
>  <reaction>  (25) 
rmg_rxn_15613

>  <mol_properties>  (25) 
{"0": {"label": "*3", "atom_type": "Cs"}, "1": {"label": "*4", "atom_type": "Cs"}, "8": {"label": "*1", "atom_type": "Cs"}, "9": {"label": "*0", "atom_type": "O2s"}, "12": {"label": "*2", "atom_type": "H0"}}

>  <type>  (25) 
unop_21

>  <geom_source>  (25) 
Heuristics

$$$$

     RDKit          3D

 17 15  0  0  0  0  0  0  0  0999 V2000
   -2.2047   -0.1775   -0.4119 O   0  0  0  0  0  0  0  0  0  0  0  0
    2.7418    2.1813    1.0118 O   0  0  0  0  0  0  0  0  0  0  0  0
    2.1200    1.1902    0.7765 N   0  0  0  0  0  0  0  0  0  0  0  0
   -2.3636    0.3281    0.8576 N   0  0  0  0  0  0  0  0  0  0  0  0
    2.5123    0.3232   -0.3043 C   0  0  0  0  0  0  0  0  0  0  0  0
    1.5580   -0.8574   -0.3879 C   0  0  0  0  0  0  0  0  0  0  0  0
   -0.9851   -0.7939   -0.7852 C   0  0  0  0  0  3  0  0  0  0  0  0
   -3.4734    0.8909    1.2056 C   0  0  0  0  0  0  0  0  0  0  0  0
    3.5457   -0.0473   -0.1299 H   0  0  0  0  0  0  0  0  0  0  0  0
    2.4848    0.8862   -1.2621 H   0  0  0  0  0  0  0  0  0  0  0  0
    1.5858   -1.4398    0.5577 H   0  0  0  0  0  0  0  0  0  0  0  0
    1.8555   -1.5205   -1.2274 H   0  0  0  0  0  0  0  0  0  0  0  0
    0.3516   -0.4343   -0.5940 H   0  0  0  0  0  0  0  0  0  0  0  0
   -3.5861    1.2844    2.2064 H   0  0  0  0  0  0  0  0  0  0  0  0
   -4.2938    0.9727    0.5037 H   0  0  0  0  0  0  0  0  0  0  0  0
   -1.0331   -1.0887   -1.8536 H   0  0  0  0  0  0  0  0  0  0  0  0
   -0.8155   -1.6977   -0.1631 H   0  0  0  0  0  0  0  0  0  0  0  0
  1  7  1  0
  1  4  1  0
  2  3  2  0
  3  5  1  0
  4  8  2  3
  5  6  1  0
  5  9  1  0
  5 10  1  0
  6 11  1  0
  6 12  1  0
  6 13  1  0
  7 16  1  0
  7 17  1  0
  8 14  1  0
  8 15  1  0
M  RAD  1   7   2
M  END
>  <reaction>  (26) 
rmg_rxn_15613

>  <mol_properties>  (26) 
{"0": {"label": "*3", "atom_type": "Cs"}, "1": {"label": "*4", "atom_type": "Cs"}, "8": {"label": "*1", "atom_type": "Cs"}, "9": {"label": "*0", "atom_type": "O2s"}, "12": {"label": "*2", "atom_type": "H0"}}

>  <type>  (26) 
unop_22

>  <geom_source>  (26) 
AutoTST

$$$$

     RDKit          3D

 17 15  0  0  0  0  0  0  0  0999 V2000
    0.2919   -0.3021    1.3251 C   0  0  0  0  0  0  0  0  0  0  0  0
    1.4358   -0.0831    0.3633 C   0  0  0  0  0  0  0  0  0  0  0  0
    2.8001   -0.3353    0.8863 N   0  0  0  0  0  0  0  0  0  0  0  0
    2.8380   -0.6880    2.0253 O   0  0  0  0  0  0  0  0  0  0  0  0
    0.2667   -1.3322    1.6799 H   0  0  0  0  0  0  0  0  0  0  0  0
    0.3792    0.3469    2.1962 H   0  0  0  0  0  0  0  0  0  0  0  0
    1.3739   -0.7189   -0.5260 H   0  0  0  0  0  0  0  0  0  0  0  0
    1.4853    0.9432   -0.0150 H   0  0  0  0  0  0  0  0  0  0  0  0
   -1.8471    0.9210    0.4377 C   0  0  0  0  0  3  0  0  0  0  0  0
   -1.8472    0.9789   -0.9752 O   0  0  0  0  0  0  0  0  0  0  0  0
   -1.8472   -0.2950   -1.4909 N   0  0  0  0  0  0  0  0  0  0  0  0
   -1.8472   -0.2950   -2.7546 C   0  0  0  0  0  0  0  0  0  0  0  0
   -0.7765    0.3088    0.8818 H   0  0  0  0  0  0  0  0  0  0  0  0
   -2.7393    0.4108    0.8078 H   0  0  0  0  0  0  0  0  0  0  0  0
   -1.8472    1.9559    0.7755 H   0  0  0  0  0  0  0  0  0  0  0  0
   -1.8472   -1.2620   -3.2394 H   0  0  0  0  0  0  0  0  0  0  0  0
   -1.8472    0.6215   -3.3407 H   0  0  0  0  0  0  0  0  0  0  0  0
  1  2  1  0
  1  5  1  0
  1  6  1  0
  1 13  1  0
  2  3  1  0
  2  7  1  0
  2  8  1  0
  3  4  2  0
  9 10  1  0
  9 14  1  0
  9 15  1  0
 10 11  1  0
 11 12  2  3
 12 16  1  0
 12 17  1  0
M  RAD  1   9   2
M  END
>  <reaction>  (27) 
rmg_rxn_15613

>  <mol_properties>  (27) 
{"0": {"label": "*3", "atom_type": "Cs"}, "1": {"label": "*4", "atom_type": "Cs"}, "8": {"label": "*1", "atom_type": "Cs"}, "9": {"label": "*0", "atom_type": "O2s"}, "12": {"label": "*2", "atom_type": "H0"}}

>  <type>  (27) 
unop_23

>  <geom_source>  (27) 
gaussian_log

$$$$
