
     RDKit          3D

  9  8  0  0  0  0  0  0  0  0999 V2000
   -0.9895    0.3048    0.1041 C   0  0  0  0  0  0  0  0  0  0  0  0
    0.3761   -0.3562    0.0721 C   0  0  0  0  0  0  0  0  0  0  0  0
    0.3441   -1.6564   -0.4834 O   0  0  0  0  0  0  0  0  0  0  0  0
   -1.6997   -0.3114    0.6572 H   0  0  0  0  0  0  0  0  0  0  0  0
   -0.9320    1.2848    0.5822 H   0  0  0  0  0  0  0  0  0  0  0  0
   -1.3774    0.4507   -0.9077 H   0  0  0  0  0  0  0  0  0  0  0  0
    0.7581   -0.4813    1.0862 H   0  0  0  0  0  0  0  0  0  0  0  0
    1.0900    0.2787   -0.4681 H   0  0  0  0  0  0  0  0  0  0  0  0
    0.0089   -1.5959   -1.3792 H   0  0  0  0  0  0  0  0  0  0  0  0
  1  2  1  0
  1  4  1  0
  1  5  1  0
  1  6  1  0
  2  3  1  0
  2  7  1  0
  2  8  1  0
  3  9  1  0
M  END
>  <reaction>  (1) 
rmg_rxn_396

>  <mol_properties>  (1) 
{"2": {"label": "donator", "atom_type": "O2s"}, "8": {"label": "d_hydrogen", "atom_type": "H0"}}

>  <type>  (1) 
r1h

$$$$

     RDKit          3D

  8  7  0  0  0  0  0  0  0  0999 V2000
    1.3778   -0.6812    0.2772 C   0  0  0  0  0  3  0  0  0  0  0  0
    0.4890    0.2108   -0.0590 C   0  0  0  0  0  0  0  0  0  0  0  0
   -1.0010    0.0286   -0.0323 C   0  0  0  0  0  0  0  0  0  0  0  0
    2.4535   -0.7507    0.3287 H   0  0  0  0  0  0  0  0  0  0  0  0
    0.8447    1.1899   -0.3945 H   0  0  0  0  0  0  0  0  0  0  0  0
   -1.4635    0.7638    0.6301 H   0  0  0  0  0  0  0  0  0  0  0  0
   -1.2709   -0.9687    0.3117 H   0  0  0  0  0  0  0  0  0  0  0  0
   -1.4218    0.1801   -1.0289 H   0  0  0  0  0  0  0  0  0  0  0  0
  1  2  2  3
  1  4  1  0
  2  3  1  0
  2  5  1  0
  3  6  1  0
  3  7  1  0
  3  8  1  0
M  RAD  1   1   2
M  END
>  <reaction>  (2) 
rmg_rxn_396

>  <mol_properties>  (2) 
{"0": {"label": "acceptor", "atom_type": "Cd"}}

>  <type>  (2) 
r2

$$$$

     RDKit          3D

  9  8  0  0  0  0  0  0  0  0999 V2000
    1.1303   -0.2933   -0.7510 C   0  0  0  0  0  0  0  0  0  0  0  0
    0.2866    0.4560   -0.0588 C   0  0  0  0  0  0  0  0  0  0  0  0
   -0.9719   -0.0331    0.5823 C   0  0  0  0  0  0  0  0  0  0  0  0
    2.0274    0.1230   -1.1916 H   0  0  0  0  0  0  0  0  0  0  0  0
    0.9532   -1.3530   -0.9023 H   0  0  0  0  0  0  0  0  0  0  0  0
    0.5065    1.5132    0.0659 H   0  0  0  0  0  0  0  0  0  0  0  0
   -0.9526    0.1426    1.6610 H   0  0  0  0  0  0  0  0  0  0  0  0
   -1.1182   -1.1002    0.4106 H   0  0  0  0  0  0  0  0  0  0  0  0
   -1.8412    0.5010    0.1901 H   0  0  0  0  0  0  0  0  0  0  0  0
  1  2  2  3
  1  4  1  0
  1  5  1  0
  2  3  1  0
  2  6  1  0
  3  7  1  0
  3  8  1  0
  3  9  1  0
M  END
>  <reaction>  (3) 
rmg_rxn_396

>  <mol_properties>  (3) 
{"0": {"label": "a_hydrogen", "atom_type": "H0"}, "1": {"label": "acceptor", "atom_type": "Cd"}}

>  <type>  (3) 
r2h

$$$$

     RDKit          3D

 17 15  0  0  0  0  0  0  0  0999 V2000
    1.2062   -1.0524   -1.2037 C   0  0  0  0  0  0  0  0  0  0  0  0
    0.6121   -1.9303   -0.1164 C   0  0  0  0  0  0  0  0  0  0  0  0
    0.3040   -1.2412    1.0628 O   0  0  0  0  0  0  0  0  0  0  0  0
    2.0901   -0.5313   -0.8328 H   0  0  0  0  0  0  0  0  0  0  0  0
    1.4939   -1.6533   -2.0691 H   0  0  0  0  0  0  0  0  0  0  0  0
    0.4784   -0.3074   -1.5314 H   0  0  0  0  0  0  0  0  0  0  0  0
    1.3381   -2.6924    0.1914 H   0  0  0  0  0  0  0  0  0  0  0  0
   -0.2645   -2.4712   -0.4962 H   0  0  0  0  0  0  0  0  0  0  0  0
   -0.6423   -0.5666    0.8590 H   0  0  0  0  0  0  0  0  0  0  0  0
   -1.6473    0.1726    0.4685 C   0  0  0  0  0  3  0  0  0  0  0  0
   -1.4176    1.4358    0.1940 C   0  0  0  0  0  0  0  0  0  0  0  0
   -0.0886    2.1203    0.2585 C   0  0  0  0  0  0  0  0  0  0  0  0
   -2.5797   -0.3769    0.4325 H   0  0  0  0  0  0  0  0  0  0  0  0
   -2.2670    2.0515   -0.1055 H   0  0  0  0  0  0  0  0  0  0  0  0
    0.1871    2.5112   -0.7241 H   0  0  0  0  0  0  0  0  0  0  0  0
    0.6882    1.4357    0.5955 H   0  0  0  0  0  0  0  0  0  0  0  0
   -0.1308    2.9709    0.9423 H   0  0  0  0  0  0  0  0  0  0  0  0
  1  2  1  0
  1  4  1  0
  1  5  1  0
  1  6  1  0
  2  3  1  0
  2  7  1  0
  2  8  1  0
  3  9  1  0
 10 11  2  3
 10 13  1  0
 11 12  1  0
 11 14  1  0
 12 15  1  0
 12 16  1  0
 12 17  1  0
M  RAD  1  10   2
M  END
>  <reaction>  (4) 
rmg_rxn_396

>  <mol_properties>  (4) 
{"1": {"label": "*0", "atom_type": "Cs"}, "2": {"label": "*1", "atom_type": "O2s"}, "8": {"label": "*2", "atom_type": "H0"}, "9": {"label": "*3", "atom_type": "Cd"}, "10": {"label": "*4", "atom_type": "Cd"}}

>  <type>  (4) 
ts

$$$$

     RDKit          3D

 17 15  0  0  0  0  0  0  0  0999 V2000
    1.3474   -1.4478   -1.7120 C   0  0  0  0  0  0  0  0  0  0  0  0
    1.3474   -1.4478   -0.1945 C   0  0  0  0  0  0  0  0  0  0  0  0
    1.3474   -0.1446    0.3548 O   0  0  0  0  0  0  0  0  0  0  0  0
    2.2035   -0.8903   -2.0943 H   0  0  0  0  0  0  0  0  0  0  0  0
    1.3959   -2.4684   -2.0972 H   0  0  0  0  0  0  0  0  0  0  0  0
    0.4360   -0.9876   -2.1032 H   0  0  0  0  0  0  0  0  0  0  0  0
    2.2539   -1.9235    0.1824 H   0  0  0  0  0  0  0  0  0  0  0  0
    0.4952   -2.0275    0.1828 H   0  0  0  0  0  0  0  0  0  0  0  0
    0.4091    0.4074   -0.0161 H   0  0  0  0  0  0  0  0  0  0  0  0
   -0.6531    1.0322   -0.4359 C   0  0  0  0  0  3  0  0  0  0  0  0
   -1.5612    1.4949    0.4088 C   0  0  0  0  0  0  0  0  0  0  0  0
   -2.1205    0.7386    1.5704 C   0  0  0  0  0  0  0  0  0  0  0  0
   -0.2880    1.6324   -1.2598 H   0  0  0  0  0  0  0  0  0  0  0  0
   -1.9447    2.5019    0.2654 H   0  0  0  0  0  0  0  0  0  0  0  0
   -1.9286    1.2674    2.5076 H   0  0  0  0  0  0  0  0  0  0  0  0
   -1.6852   -0.2589    1.6435 H   0  0  0  0  0  0  0  0  0  0  0  0
   -3.2050    0.6354    1.4816 H   0  0  0  0  0  0  0  0  0  0  0  0
  1  2  1  0
  1  4  1  0
  1  5  1  0
  1  6  1  0
  2  3  1  0
  2  7  1  0
  2  8  1  0
  3  9  1  0
 10 11  2  3
 10 13  1  0
 11 12  1  0
 11 14  1  0
 12 15  1  0
 12 16  1  0
 12 17  1  0
M  RAD  1  10   2
M  END
>  <reaction>  (5) 
rmg_rxn_396

>  <mol_properties>  (5) 
{"1": {"label": "*0", "atom_type": "Cs"}, "2": {"label": "*1", "atom_type": "O2s"}, "8": {"label": "*2", "atom_type": "H0"}, "9": {"label": "*3", "atom_type": "Cd"}, "10": {"label": "*4", "atom_type": "Cd"}}

>  <type>  (5) 
unop_1

>  <geom_source>  (5) 
Heuristics

$$$$

     RDKit          3D

 17 15  0  0  0  0  0  0  0  0999 V2000
    1.3424   -0.9597   -1.1062 C   0  0  0  0  0  0  0  0  0  0  0  0
    1.3424   -0.9597    0.4113 C   0  0  0  0  0  0  0  0  0  0  0  0
    1.3424    0.3435    0.9606 O   0  0  0  0  0  0  0  0  0  0  0  0
    2.1985   -0.4021   -1.4886 H   0  0  0  0  0  0  0  0  0  0  0  0
    1.3909   -1.9803   -1.4915 H   0  0  0  0  0  0  0  0  0  0  0  0
    0.4310   -0.4995   -1.4974 H   0  0  0  0  0  0  0  0  0  0  0  0
    2.2489   -1.4354    0.7881 H   0  0  0  0  0  0  0  0  0  0  0  0
    0.4902   -1.5394    0.7885 H   0  0  0  0  0  0  0  0  0  0  0  0
    0.4041    0.8955    0.5897 H   0  0  0  0  0  0  0  0  0  0  0  0
   -0.6581    1.5204    0.1698 C   0  0  0  0  0  3  0  0  0  0  0  0
   -1.7762    0.8698   -0.1112 C   0  0  0  0  0  0  0  0  0  0  0  0
   -1.8773   -0.6011   -0.3571 C   0  0  0  0  0  0  0  0  0  0  0  0
   -0.6520    2.5900    0.3378 H   0  0  0  0  0  0  0  0  0  0  0  0
   -2.7060    1.4294   -0.1731 H   0  0  0  0  0  0  0  0  0  0  0  0
   -2.5561   -1.0696    0.3602 H   0  0  0  0  0  0  0  0  0  0  0  0
   -0.9039   -1.0866   -0.2767 H   0  0  0  0  0  0  0  0  0  0  0  0
   -2.2811   -0.8021   -1.3528 H   0  0  0  0  0  0  0  0  0  0  0  0
  1  2  1  0
  1  4  1  0
  1  5  1  0
  1  6  1  0
  2  3  1  0
  2  7  1  0
  2  8  1  0
  3  9  1  0
 10 11  2  3
 10 13  1  0
 11 12  1  0
 11 14  1  0
 12 15  1  0
 12 16  1  0
 12 17  1  0
M  RAD  1  10   2
M  END
>  <reaction>  (6) 
rmg_rxn_396

>  <mol_properties>  (6) 
{"1": {"label": "*0", "atom_type": "Cs"}, "2": {"label": "*1", "atom_type": "O2s"}, "8": {"label": "*2", "atom_type": "H0"}, "9": {"label": "*3", "atom_type": "Cd"}, "10": {"label": "*4", "atom_type": "Cd"}}

>  <type>  (6) 
unop_2

>  <geom_source>  (6) 
Heuristics

$$$$

     RDKit          3D

 17 15  0  0  0  0  0  0  0  0999 V2000
    1.1708   -1.7243   -1.7275 C   0  0  0  0  0  0  0  0  0  0  0  0
    1.1708   -1.7243   -0.2100 C   0  0  0  0  0  0  0  0  0  0  0  0
    1.1708   -0.4211    0.3394 O   0  0  0  0  0  0  0  0  0  0  0  0
    2.0268   -1.1667   -2.1098 H   0  0  0  0  0  0  0  0  0  0  0  0
    1.2192   -2.7449   -2.1127 H   0  0  0  0  0  0  0  0  0  0  0  0
    0.2593   -1.2641   -2.1186 H   0  0  0  0  0  0  0  0  0  0  0  0
    2.0772   -2.2000    0.1669 H   0  0  0  0  0  0  0  0  0  0  0  0
    0.3186   -2.3040    0.1673 H   0  0  0  0  0  0  0  0  0  0  0  0
    0.2324    0.1309   -0.0315 H   0  0  0  0  0  0  0  0  0  0  0  0
   -0.8298    0.7557   -0.4514 C   0  0  0  0  0  3  0  0  0  0  0  0
   -1.4144    1.6919    0.2795 C   0  0  0  0  0  0  0  0  0  0  0  0
   -1.5533    1.6603    1.7674 C   0  0  0  0  0  0  0  0  0  0  0  0
   -0.7617    0.8384   -1.5288 H   0  0  0  0  0  0  0  0  0  0  0  0
   -1.8336    2.5611   -0.2209 H   0  0  0  0  0  0  0  0  0  0  0  0
   -1.0693    2.5287    2.2217 H   0  0  0  0  0  0  0  0  0  0  0  0
   -1.1084    0.7587    2.1903 H   0  0  0  0  0  0  0  0  0  0  0  0
   -2.6057    1.6950    2.0606 H   0  0  0  0  0  0  0  0  0  0  0  0
  1  2  1  0
  1  4  1  0
  1  5  1  0
  1  6  1  0
  2  3  1  0
  2  7  1  0
  2  8  1  0
  3  9  1  0
 10 11  2  3
 10 13  1  0
 11 12  1  0
 11 14  1  0
 12 15  1  0
 12 16  1  0
 12 17  1  0
M  RAD  1  10   2
M  END
>  <reaction>  (7) 
rmg_rxn_396

>  <mol_properties>  (7) 
{"1": {"label": "*0", "atom_type": "Cs"}, "2": {"label": "*1", "atom_type": "O2s"}, "8": {"label": "*2", "atom_type": "H0"}, "9": {"label": "*3", "atom_type": "Cd"}, "10": {"label": "*4", "atom_type": "Cd"}}

>  <type>  (7) 
unop_3

>  <geom_source>  (7) 
Heuristics

$$$$

     RDKit          3D

 17 15  0  0  0  0  0  0  0  0999 V2000
    0.9571   -1.3330   -0.6304 C   0  0  0  0  0  0  0  0  0  0  0  0
    0.9571   -1.3330    0.8871 C   0  0  0  0  0  0  0  0  0  0  0  0
    0.9571   -0.0298    1.4364 O   0  0  0  0  0  0  0  0  0  0  0  0
    1.8131   -0.7755   -1.0127 H   0  0  0  0  0  0  0  0  0  0  0  0
    1.0055   -2.3536   -1.0157 H   0  0  0  0  0  0  0  0  0  0  0  0
    0.0457   -0.8728   -1.0216 H   0  0  0  0  0  0  0  0  0  0  0  0
    1.8636   -1.8087    1.2639 H   0  0  0  0  0  0  0  0  0  0  0  0
    0.1049   -1.9127    1.2644 H   0  0  0  0  0  0  0  0  0  0  0  0
    0.0188    0.5222    1.0655 H   0  0  0  0  0  0  0  0  0  0  0  0
   -1.0435    1.1470    0.6457 C   0  0  0  0  0  3  0  0  0  0  0  0
   -1.2622    1.3472   -0.6444 C   0  0  0  0  0  0  0  0  0  0  0  0
   -0.8410    0.4242   -1.7420 C   0  0  0  0  0  0  0  0  0  0  0  0
   -1.3752    1.8565    1.3933 H   0  0  0  0  0  0  0  0  0  0  0  0
   -1.7878    2.2473   -0.9528 H   0  0  0  0  0  0  0  0  0  0  0  0
   -1.7060    0.0829   -2.3166 H   0  0  0  0  0  0  0  0  0  0  0  0
   -0.3220   -0.4512   -1.3496 H   0  0  0  0  0  0  0  0  0  0  0  0
   -0.1754    0.9330   -2.4441 H   0  0  0  0  0  0  0  0  0  0  0  0
  1  2  1  0
  1  4  1  0
  1  5  1  0
  1  6  1  0
  2  3  1  0
  2  7  1  0
  2  8  1  0
  3  9  1  0
 10 11  2  3
 10 13  1  0
 11 12  1  0
 11 14  1  0
 12 15  1  0
 12 16  1  0
 12 17  1  0
M  RAD  1  10   2
M  END
>  <reaction>  (8) 
rmg_rxn_396

>  <mol_properties>  (8) 
{"1": {"label": "*0", "atom_type": "Cs"}, "2": {"label": "*1", "atom_type": "O2s"}, "8": {"label": "*2", "atom_type": "H0"}, "9": {"label": "*3", "atom_type": "Cd"}, "10": {"label": "*4", "atom_type": "Cd"}}

>  <type>  (8) 
unop_4

>  <geom_source>  (8) 
Heuristics

$$$$

     RDKit          3D

 17 15  0  0  0  0  0  0  0  0999 V2000
    0.8977   -1.9688   -1.5083 C   0  0  0  0  0  0  0  0  0  0  0  0
    0.8977   -1.9688    0.0092 C   0  0  0  0  0  0  0  0  0  0  0  0
    0.8977   -0.6656    0.5586 O   0  0  0  0  0  0  0  0  0  0  0  0
    1.7538   -1.4112   -1.8906 H   0  0  0  0  0  0  0  0  0  0  0  0
    0.9462   -2.9894   -1.8935 H   0  0  0  0  0  0  0  0  0  0  0  0
   -0.0137   -1.5086   -1.8994 H   0  0  0  0  0  0  0  0  0  0  0  0
    1.8042   -2.4445    0.3861 H   0  0  0  0  0  0  0  0  0  0  0  0
    0.0455   -2.5485    0.3865 H   0  0  0  0  0  0  0  0  0  0  0  0
   -0.0406   -0.1136    0.1877 H   0  0  0  0  0  0  0  0  0  0  0  0
   -1.1028    0.5112   -0.2322 C   0  0  0  0  0  3  0  0  0  0  0  0
   -1.3583    1.7588    0.1294 C   0  0  0  0  0  0  0  0  0  0  0  0
   -0.4997    2.5865    1.0305 C   0  0  0  0  0  0  0  0  0  0  0  0
   -1.7670   -0.0353   -0.8898 H   0  0  0  0  0  0  0  0  0  0  0  0
   -2.2579    2.2391   -0.2469 H   0  0  0  0  0  0  0  0  0  0  0  0
   -0.1635    3.4938    0.5219 H   0  0  0  0  0  0  0  0  0  0  0  0
    0.3794    2.0330    1.3627 H   0  0  0  0  0  0  0  0  0  0  0  0
   -1.0586    2.9072    1.9134 H   0  0  0  0  0  0  0  0  0  0  0  0
  1  2  1  0
  1  4  1  0
  1  5  1  0
  1  6  1  0
  2  3  1  0
  2  7  1  0
  2  8  1  0
  3  9  1  0
 10 11  2  3
 10 13  1  0
 11 12  1  0
 11 14  1  0
 12 15  1  0
 12 16  1  0
 12 17  1  0
M  RAD  1  10   2
M  END
>  <reaction>  (9) 
rmg_rxn_396

>  <mol_properties>  (9) 
{"1": {"label": "*0", "atom_type": "Cs"}, "2": {"label": "*1", "atom_type": "O2s"}, "8": {"label": "*2", "atom_type": "H0"}, "9": {"label": "*3", "atom_type": "Cd"}, "10": {"label": "*4", "atom_type": "Cd"}}

>  <type>  (9) 
unop_5

>  <geom_source>  (9) 
Heuristics

$$$$

     RDKit          3D

 17 15  0  0  0  0  0  0  0  0999 V2000
    0.8411   -1.5856   -0.6587 C   0  0  0  0  0  0  0  0  0  0  0  0
    0.8411   -1.5856    0.8588 C   0  0  0  0  0  0  0  0  0  0  0  0
    0.8411   -0.2824    1.4081 O   0  0  0  0  0  0  0  0  0  0  0  0
    1.6972   -1.0280   -1.0410 H   0  0  0  0  0  0  0  0  0  0  0  0
    0.8895   -2.6061   -1.0439 H   0  0  0  0  0  0  0  0  0  0  0  0
   -0.0703   -1.1254   -1.0499 H   0  0  0  0  0  0  0  0  0  0  0  0
    1.7476   -2.0613    1.2357 H   0  0  0  0  0  0  0  0  0  0  0  0
   -0.0111   -2.1653    1.2361 H   0  0  0  0  0  0  0  0  0  0  0  0
   -0.0972    0.2696    1.0372 H   0  0  0  0  0  0  0  0  0  0  0  0
   -1.1594    0.8945    0.6174 C   0  0  0  0  0  3  0  0  0  0  0  0
   -1.1470    1.6033   -0.5005 C   0  0  0  0  0  0  0  0  0  0  0  0
   -0.4881    1.1871   -1.7760 C   0  0  0  0  0  0  0  0  0  0  0  0
   -1.6561    1.2532    1.5101 H   0  0  0  0  0  0  0  0  0  0  0  0
   -1.6494    2.5671   -0.5149 H   0  0  0  0  0  0  0  0  0  0  0  0
   -1.2158    1.1325   -2.5898 H   0  0  0  0  0  0  0  0  0  0  0  0
   -0.0089    0.2123   -1.6776 H   0  0  0  0  0  0  0  0  0  0  0  0
    0.2699    1.9146   -2.0775 H   0  0  0  0  0  0  0  0  0  0  0  0
  1  2  1  0
  1  4  1  0
  1  5  1  0
  1  6  1  0
  2  3  1  0
  2  7  1  0
  2  8  1  0
  3  9  1  0
 10 11  2  3
 10 13  1  0
 11 12  1  0
 11 14  1  0
 12 15  1  0
 12 16  1  0
 12 17  1  0
M  RAD  1  10   2
M  END
>  <reaction>  (10) 
rmg_rxn_396

>  <mol_properties>  (10) 
{"1": {"label": "*0", "atom_type": "Cs"}, "2": {"label": "*1", "atom_type": "O2s"}, "8": {"label": "*2", "atom_type": "H0"}, "9": {"label": "*3", "atom_type": "Cd"}, "10": {"label": "*4", "atom_type": "Cd"}}

>  <type>  (10) 
unop_6

>  <geom_source>  (10) 
Heuristics

$$$$

     RDKit          3D

 17 15  0  0  0  0  0  0  0  0999 V2000
    0.7714   -1.8253   -0.8165 C   0  0  0  0  0  0  0  0  0  0  0  0
    0.7714   -1.8253    0.7011 C   0  0  0  0  0  0  0  0  0  0  0  0
    0.7714   -0.5221    1.2504 O   0  0  0  0  0  0  0  0  0  0  0  0
    1.6274   -1.2677   -1.1988 H   0  0  0  0  0  0  0  0  0  0  0  0
    0.8198   -2.8459   -1.2017 H   0  0  0  0  0  0  0  0  0  0  0  0
   -0.1400   -1.3651   -1.2076 H   0  0  0  0  0  0  0  0  0  0  0  0
    1.6779   -2.3010    1.0779 H   0  0  0  0  0  0  0  0  0  0  0  0
   -0.0808   -2.4050    1.0783 H   0  0  0  0  0  0  0  0  0  0  0  0
   -0.1669    0.0299    0.8795 H   0  0  0  0  0  0  0  0  0  0  0  0
   -1.2291    0.6548    0.4596 C   0  0  0  0  0  3  0  0  0  0  0  0
   -1.1399    1.7710   -0.2462 C   0  0  0  0  0  0  0  0  0  0  0  0
   -0.2116    1.9895   -1.3972 C   0  0  0  0  0  0  0  0  0  0  0  0
   -1.9244    0.5600    1.2842 H   0  0  0  0  0  0  0  0  0  0  0  0
   -1.7830    2.6079    0.0141 H   0  0  0  0  0  0  0  0  0  0  0  0
   -0.7689    2.2318   -2.3058 H   0  0  0  0  0  0  0  0  0  0  0  0
    0.3963    1.1052   -1.5925 H   0  0  0  0  0  0  0  0  0  0  0  0
    0.4579    2.8313   -1.2025 H   0  0  0  0  0  0  0  0  0  0  0  0
  1  2  1  0
  1  4  1  0
  1  5  1  0
  1  6  1  0
  2  3  1  0
  2  7  1  0
  2  8  1  0
  3  9  1  0
 10 11  2  3
 10 13  1  0
 11 12  1  0
 11 14  1  0
 12 15  1  0
 12 16  1  0
 12 17  1  0
M  RAD  1  10   2
M  END
>  <reaction>  (11) 
rmg_rxn_396

>  <mol_properties>  (11) 
{"1": {"label": "*0", "atom_type": "Cs"}, "2": {"label": "*1", "atom_type": "O2s"}, "8": {"label": "*2", "atom_type": "H0"}, "9": {"label": "*3", "atom_type": "Cd"}, "10": {"label": "*4", "atom_type": "Cd"}}

>  <type>  (11) 
unop_7

>  <geom_source>  (11) 
Heuristics

$$$$

     RDKit          3D

 17 15  0  0  0  0  0  0  0  0999 V2000
    1.4267   -1.2018   -1.5691 C   0  0  0  0  0  0  0  0  0  0  0  0
    1.4267   -1.2018   -0.0516 C   0  0  0  0  0  0  0  0  0  0  0  0
    1.4267    0.1014    0.4977 O   0  0  0  0  0  0  0  0  0  0  0  0
    2.2828   -0.6442   -1.9515 H   0  0  0  0  0  0  0  0  0  0  0  0
    1.4752   -2.2224   -1.9544 H   0  0  0  0  0  0  0  0  0  0  0  0
    0.5153   -0.7416   -1.9603 H   0  0  0  0  0  0  0  0  0  0  0  0
    2.3332   -1.6775    0.3252 H   0  0  0  0  0  0  0  0  0  0  0  0
    0.5746   -1.7815    0.3257 H   0  0  0  0  0  0  0  0  0  0  0  0
    0.4884    0.6534    0.1268 H   0  0  0  0  0  0  0  0  0  0  0  0
   -0.5738    1.2783   -0.2930 C   0  0  0  0  0  3  0  0  0  0  0  0
   -1.7131    1.2324    0.3795 C   0  0  0  0  0  0  0  0  0  0  0  0
   -2.2861    0.0089    1.0191 C   0  0  0  0  0  0  0  0  0  0  0  0
   -0.2128    2.1990   -0.7337 H   0  0  0  0  0  0  0  0  0  0  0  0
   -2.2943    2.1446    0.4876 H   0  0  0  0  0  0  0  0  0  0  0  0
   -2.4137    0.1559    2.0947 H   0  0  0  0  0  0  0  0  0  0  0  0
   -1.6443   -0.8594    0.8648 H   0  0  0  0  0  0  0  0  0  0  0  0
   -3.2746   -0.2166    0.6109 H   0  0  0  0  0  0  0  0  0  0  0  0
  1  2  1  0
  1  4  1  0
  1  5  1  0
  1  6  1  0
  2  3  1  0
  2  7  1  0
  2  8  1  0
  3  9  1  0
 10 11  2  3
 10 13  1  0
 11 12  1  0
 11 14  1  0
 12 15  1  0
 12 16  1  0
 12 17  1  0
M  RAD  1  10   2
M  END
>  <reaction>  (12) 
rmg_rxn_396

>  <mol_properties>  (12) 
{"1": {"label": "*0", "atom_type": "Cs"}, "2": {"label": "*1", "atom_type": "O2s"}, "8": {"label": "*2", "atom_type": "H0"}, "9": {"label": "*3", "atom_type": "Cd"}, "10": {"label": "*4", "atom_type": "Cd"}}

>  <type>  (12) 
unop_8

>  <geom_source>  (12) 
Heuristics

$$$$

     RDKit          3D

 17 15  0  0  0  0  0  0  0  0999 V2000
    1.0923   -1.1236   -0.7174 C   0  0  0  0  0  0  0  0  0  0  0  0
    1.0923   -1.1236    0.8001 C   0  0  0  0  0  0  0  0  0  0  0  0
    1.0923    0.1796    1.3494 O   0  0  0  0  0  0  0  0  0  0  0  0
    1.9484   -0.5660   -1.0998 H   0  0  0  0  0  0  0  0  0  0  0  0
    1.1408   -2.1442   -1.1027 H   0  0  0  0  0  0  0  0  0  0  0  0
    0.1809   -0.6634   -1.1086 H   0  0  0  0  0  0  0  0  0  0  0  0
    1.9988   -1.5993    1.1769 H   0  0  0  0  0  0  0  0  0  0  0  0
    0.2401   -1.7033    1.1773 H   0  0  0  0  0  0  0  0  0  0  0  0
    0.1540    0.7316    0.9785 H   0  0  0  0  0  0  0  0  0  0  0  0
   -0.9082    1.3565    0.5586 C   0  0  0  0  0  3  0  0  0  0  0  0
   -1.4504    1.0833   -0.6176 C   0  0  0  0  0  0  0  0  0  0  0  0
   -1.1966   -0.1550   -1.4154 C   0  0  0  0  0  0  0  0  0  0  0  0
   -1.1340    2.2742    1.0870 H   0  0  0  0  0  0  0  0  0  0  0  0
   -2.1375    1.8019   -1.0570 H   0  0  0  0  0  0  0  0  0  0  0  0
   -2.1268   -0.7010   -1.5927 H   0  0  0  0  0  0  0  0  0  0  0  0
   -0.4989   -0.8211   -0.9064 H   0  0  0  0  0  0  0  0  0  0  0  0
   -0.7829    0.0924   -2.3965 H   0  0  0  0  0  0  0  0  0  0  0  0
  1  2  1  0
  1  4  1  0
  1  5  1  0
  1  6  1  0
  2  3  1  0
  2  7  1  0
  2  8  1  0
  3  9  1  0
 10 11  2  3
 10 13  1  0
 11 12  1  0
 11 14  1  0
 12 15  1  0
 12 16  1  0
 12 17  1  0
M  RAD  1  10   2
M  END
>  <reaction>  (13) 
rmg_rxn_396

>  <mol_properties>  (13) 
{"1": {"label": "*0", "atom_type": "Cs"}, "2": {"label": "*1", "atom_type": "O2s"}, "8": {"label": "*2", "atom_type": "H0"}, "9": {"label": "*3", "atom_type": "Cd"}, "10": {"label": "*4", "atom_type": "Cd"}}

>  <type>  (13) 
unop_9

>  <geom_source>  (13) 
Heuristics

$$$$

     RDKit          3D

 17 15  0  0  0  0  0  0  0  0999 V2000
    1.4192   -1.0302   -1.3489 C   0  0  0  0  0  0  0  0  0  0  0  0
    1.4192   -1.0302    0.1686 C   0  0  0  0  0  0  0  0  0  0  0  0
    1.4192    0.2730    0.7180 O   0  0  0  0  0  0  0  0  0  0  0  0
    2.2753   -0.4726   -1.7312 H   0  0  0  0  0  0  0  0  0  0  0  0
    1.4677   -2.0508   -1.7341 H   0  0  0  0  0  0  0  0  0  0  0  0
    0.5078   -0.5700   -1.7401 H   0  0  0  0  0  0  0  0  0  0  0  0
    2.3257   -1.5059    0.5455 H   0  0  0  0  0  0  0  0  0  0  0  0
    0.5670   -1.6099    0.5459 H   0  0  0  0  0  0  0  0  0  0  0  0
    0.4809    0.8250    0.3471 H   0  0  0  0  0  0  0  0  0  0  0  0
   -0.5813    1.4499   -0.0728 C   0  0  0  0  0  3  0  0  0  0  0  0
   -1.7974    0.9965    0.1877 C   0  0  0  0  0  0  0  0  0  0  0  0
   -2.1680   -0.4454    0.3210 C   0  0  0  0  0  0  0  0  0  0  0  0
   -0.3780    2.5100   -0.1571 H   0  0  0  0  0  0  0  0  0  0  0  0
   -2.6057    1.7114    0.3187 H   0  0  0  0  0  0  0  0  0  0  0  0
   -2.5894   -0.6489    1.3088 H   0  0  0  0  0  0  0  0  0  0  0  0
   -1.3034   -1.0943    0.1760 H   0  0  0  0  0  0  0  0  0  0  0  0
   -2.9313   -0.7201   -0.4115 H   0  0  0  0  0  0  0  0  0  0  0  0
  1  2  1  0
  1  4  1  0
  1  5  1  0
  1  6  1  0
  2  3  1  0
  2  7  1  0
  2  8  1  0
  3  9  1  0
 10 11  2  3
 10 13  1  0
 11 12  1  0
 11 14  1  0
 12 15  1  0
 12 16  1  0
 12 17  1  0
M  RAD  1  10   2
M  END
>  <reaction>  (14) 
rmg_rxn_396

>  <mol_properties>  (14) 
{"1": {"label": "*0", "atom_type": "Cs"}, "2": {"label": "*1", "atom_type": "O2s"}, "8": {"label": "*2", "atom_type": "H0"}, "9": {"label": "*3", "atom_type": "Cd"}, "10": {"label": "*4", "atom_type": "Cd"}}

>  <type>  (14) 
unop_10

>  <geom_source>  (14) 
Heuristics

$$$$

     RDKit          3D

 17 15  0  0  0  0  0  0  0  0999 V2000
    0.7683   -1.9880   -1.1018 C   0  0  0  0  0  0  0  0  0  0  0  0
    0.7683   -1.9880    0.4158 C   0  0  0  0  0  0  0  0  0  0  0  0
    0.7683   -0.6849    0.9651 O   0  0  0  0  0  0  0  0  0  0  0  0
    1.6243   -1.4305   -1.4841 H   0  0  0  0  0  0  0  0  0  0  0  0
    0.8167   -3.0086   -1.4870 H   0  0  0  0  0  0  0  0  0  0  0  0
   -0.1431   -1.5279   -1.4929 H   0  0  0  0  0  0  0  0  0  0  0  0
    1.6748   -2.4638    0.7926 H   0  0  0  0  0  0  0  0  0  0  0  0
   -0.0839   -2.5678    0.7930 H   0  0  0  0  0  0  0  0  0  0  0  0
   -0.1700   -0.1329    0.5942 H   0  0  0  0  0  0  0  0  0  0  0  0
   -1.2322    0.4920    0.1743 C   0  0  0  0  0  3  0  0  0  0  0  0
   -1.2410    1.8055    0.0100 C   0  0  0  0  0  0  0  0  0  0  0  0
   -0.0941    2.6165   -0.5010 C   0  0  0  0  0  0  0  0  0  0  0  0
   -2.0987   -0.0377    0.5498 H   0  0  0  0  0  0  0  0  0  0  0  0
   -2.1429    2.3583    0.2600 H   0  0  0  0  0  0  0  0  0  0  0  0
   -0.3742    3.1573   -1.4087 H   0  0  0  0  0  0  0  0  0  0  0  0
    0.7685    1.9886   -0.7275 H   0  0  0  0  0  0  0  0  0  0  0  0
    0.2095    3.3667    0.2336 H   0  0  0  0  0  0  0  0  0  0  0  0
  1  2  1  0
  1  4  1  0
  1  5  1  0
  1  6  1  0
  2  3  1  0
  2  7  1  0
  2  8  1  0
  3  9  1  0
 10 11  2  3
 10 13  1  0
 11 12  1  0
 11 14  1  0
 12 15  1  0
 12 16  1  0
 12 17  1  0
M  RAD  1  10   2
M  END
>  <reaction>  (15) 
rmg_rxn_396

>  <mol_properties>  (15) 
{"1": {"label": "*0", "atom_type": "Cs"}, "2": {"label": "*1", "atom_type": "O2s"}, "8": {"label": "*2", "atom_type": "H0"}, "9": {"label": "*3", "atom_type": "Cd"}, "10": {"label": "*4", "atom_type": "Cd"}}

>  <type>  (15) 
unop_11

>  <geom_source>  (15) 
Heuristics

$$$$

     RDKit          3D

 17 15  0  0  0  0  0  0  0  0999 V2000
    1.2256   -0.9937   -0.8863 C   0  0  0  0  0  0  0  0  0  0  0  0
    1.2256   -0.9937    0.6312 C   0  0  0  0  0  0  0  0  0  0  0  0
    1.2256    0.3095    1.1805 O   0  0  0  0  0  0  0  0  0  0  0  0
    2.0816   -0.4361   -1.2687 H   0  0  0  0  0  0  0  0  0  0  0  0
    1.2740   -2.0142   -1.2716 H   0  0  0  0  0  0  0  0  0  0  0  0
    0.3141   -0.5335   -1.2775 H   0  0  0  0  0  0  0  0  0  0  0  0
    2.1321   -1.4694    1.0080 H   0  0  0  0  0  0  0  0  0  0  0  0
    0.3734   -1.5734    1.0084 H   0  0  0  0  0  0  0  0  0  0  0  0
    0.2872    0.8615    0.8096 H   0  0  0  0  0  0  0  0  0  0  0  0
   -0.7750    1.4864    0.3897 C   0  0  0  0  0  3  0  0  0  0  0  0
   -1.6464    0.9018   -0.4172 C   0  0  0  0  0  0  0  0  0  0  0  0
   -1.5360   -0.4959   -0.9354 C   0  0  0  0  0  0  0  0  0  0  0  0
   -0.9130    2.5049    0.7302 H   0  0  0  0  0  0  0  0  0  0  0  0
   -2.5186    1.4638   -0.7413 H   0  0  0  0  0  0  0  0  0  0  0  0
   -2.4028   -1.0911   -0.6365 H   0  0  0  0  0  0  0  0  0  0  0  0
   -0.6365   -0.9888   -0.5645 H   0  0  0  0  0  0  0  0  0  0  0  0
   -1.5077   -0.5045   -2.0280 H   0  0  0  0  0  0  0  0  0  0  0  0
  1  2  1  0
  1  4  1  0
  1  5  1  0
  1  6  1  0
  2  3  1  0
  2  7  1  0
  2  8  1  0
  3  9  1  0
 10 11  2  3
 10 13  1  0
 11 12  1  0
 11 14  1  0
 12 15  1  0
 12 16  1  0
 12 17  1  0
M  RAD  1  10   2
M  END
>  <reaction>  (16) 
rmg_rxn_396

>  <mol_properties>  (16) 
{"1": {"label": "*0", "atom_type": "Cs"}, "2": {"label": "*1", "atom_type": "O2s"}, "8": {"label": "*2", "atom_type": "H0"}, "9": {"label": "*3", "atom_type": "Cd"}, "10": {"label": "*4", "atom_type": "Cd"}}

>  <type>  (16) 
unop_12

>  <geom_source>  (16) 
Heuristics

$$$$

     RDKit          3D

 17 15  0  0  0  0  0  0  0  0999 V2000
   -0.9894    1.0648    0.3121 O   0  0  0  0  0  1  0  0  0  0  0  0
   -1.4597   -0.2085    0.6349 C   0  0  0  0  0  0  0  0  0  0  0  0
   -2.4489   -0.6767   -0.4209 C   0  0  0  0  0  0  0  0  0  0  0  0
    1.8089   -0.6644   -0.5238 C   0  0  0  0  0  0  0  0  0  0  0  0
    2.2072    0.6040    0.1634 C   0  0  0  0  0  0  0  0  0  0  0  0
    1.3305    1.5941    0.3413 C   0  0  0  0  0  0  0  0  0  0  0  0
   -0.6032   -0.9133    0.6849 H   0  0  0  0  0  0  0  0  0  0  0  0
   -1.9580   -0.1741    1.6265 H   0  0  0  0  0  0  0  0  0  0  0  0
   -3.3108    0.0221   -0.4711 H   0  0  0  0  0  0  0  0  0  0  0  0
   -1.9538   -0.7183   -1.4142 H   0  0  0  0  0  0  0  0  0  0  0  0
   -2.8215   -1.6900   -0.1614 H   0  0  0  0  0  0  0  0  0  0  0  0
    1.4696   -0.4449   -1.5583 H   0  0  0  0  0  0  0  0  0  0  0  0
    2.6777   -1.3538   -0.5698 H   0  0  0  0  0  0  0  0  0  0  0  0
    0.9879   -1.1583    0.0376 H   0  0  0  0  0  0  0  0  0  0  0  0
    3.2255    0.7199    0.5226 H   0  0  0  0  0  0  0  0  0  0  0  0
    1.6355    2.5074    0.8417 H   0  0  0  0  0  0  0  0  0  0  0  0
    0.2026    1.4902   -0.0456 H   0  0  0  0  0  0  0  0  0  0  0  0
  1  2  1  0
  2  3  1  0
  2  7  1  0
  2  8  1  0
  3  9  1  0
  3 10  1  0
  3 11  1  0
  4  5  1  0
  4 12  1  0
  4 13  1  0
  4 14  1  0
  5  6  2  3
  5 15  1  0
  6 16  1  0
  6 17  1  0
M  RAD  1   1   2
M  END
>  <reaction>  (17) 
rmg_rxn_396

>  <mol_properties>  (17) 
{"1": {"label": "*0", "atom_type": "Cs"}, "2": {"label": "*1", "atom_type": "O2s"}, "8": {"label": "*2", "atom_type": "H0"}, "9": {"label": "*3", "atom_type": "Cd"}, "10": {"label": "*4", "atom_type": "Cd"}}

>  <type>  (17) 
unop_13

>  <geom_source>  (17) 
AutoTST

$$$$

     RDKit          3D

 17 15  0  0  0  0  0  0  0  0999 V2000
    1.3424   -0.9597   -1.1062 C   0  0  0  0  0  0  0  0  0  0  0  0
    1.3424   -0.9597    0.4113 C   0  0  0  0  0  0  0  0  0  0  0  0
    1.3424    0.3435    0.9606 O   0  0  0  0  0  0  0  0  0  0  0  0
    2.1985   -0.4021   -1.4886 H   0  0  0  0  0  0  0  0  0  0  0  0
    1.3909   -1.9803   -1.4915 H   0  0  0  0  0  0  0  0  0  0  0  0
    0.4310   -0.4995   -1.4974 H   0  0  0  0  0  0  0  0  0  0  0  0
    2.2489   -1.4354    0.7881 H   0  0  0  0  0  0  0  0  0  0  0  0
    0.4902   -1.5394    0.7885 H   0  0  0  0  0  0  0  0  0  0  0  0
    0.4041    0.8955    0.5897 H   0  0  0  0  0  0  0  0  0  0  0  0
   -0.6581    1.5204    0.1698 C   0  0  0  0  0  3  0  0  0  0  0  0
   -1.7762    0.8698   -0.1112 C   0  0  0  0  0  0  0  0  0  0  0  0
   -1.8773   -0.6011   -0.3571 C   0  0  0  0  0  0  0  0  0  0  0  0
   -0.6520    2.5900    0.3378 H   0  0  0  0  0  0  0  0  0  0  0  0
   -2.7060    1.4293   -0.1731 H   0  0  0  0  0  0  0  0  0  0  0  0
   -2.5561   -1.0696    0.3602 H   0  0  0  0  0  0  0  0  0  0  0  0
   -0.9040   -1.0866   -0.2767 H   0  0  0  0  0  0  0  0  0  0  0  0
   -2.2811   -0.8021   -1.3528 H   0  0  0  0  0  0  0  0  0  0  0  0
  1  2  1  0
  1  4  1  0
  1  5  1  0
  1  6  1  0
  2  3  1  0
  2  7  1  0
  2  8  1  0
  3  9  1  0
 10 11  2  3
 10 13  1  0
 11 12  1  0
 11 14  1  0
 12 15  1  0
 12 16  1  0
 12 17  1  0
M  RAD  1  10   2
M  END
>  <reaction>  (18) 
rmg_rxn_396

>  <mol_properties>  (18) 
{"1": {"label": "*0", "atom_type": "Cs"}, "2": {"label": "*1", "atom_type": "O2s"}, "8": {"label": "*2", "atom_type": "H0"}, "9": {"label": "*3", "atom_type": "Cd"}, "10": {"label": "*4", "atom_type": "Cd"}}

>  <type>  (18) 
unop_14

>  <geom_source>  (18) 
gaussian_log

$$$$
