
     RDKit          3D

  9  8  0  0  0  0  0  0  0  0999 V2000
   -0.8818   -0.3578    0.1297 C   0  0  0  0  0  0  0  0  0  0  0  0
    0.6153   -0.3021   -0.1188 C   0  0  0  0  0  0  0  0  0  0  0  0
    1.5354   -1.7170    0.5545 S   0  0  0  0  0  0  0  0  0  0  0  0
   -1.1018   -0.3317    1.1984 H   0  0  0  0  0  0  0  0  0  0  0  0
   -1.3114   -1.2723   -0.2799 H   0  0  0  0  0  0  0  0  0  0  0  0
   -1.3767    0.4976   -0.3363 H   0  0  0  0  0  0  0  0  0  0  0  0
    1.0467    0.6194    0.2718 H   0  0  0  0  0  0  0  0  0  0  0  0
    0.8295   -0.3275   -1.1882 H   0  0  0  0  0  0  0  0  0  0  0  0
    1.2306   -1.5077    1.8423 H   0  0  0  0  0  0  0  0  0  0  0  0
  1  2  1  0
  1  4  1  0
  1  5  1  0
  1  6  1  0
  2  3  1  0
  2  7  1  0
  2  8  1  0
  3  9  1  0
M  END
>  <reaction>  (1) 
rmg_rxn_541

>  <mol_properties>  (1) 
{"2": {"label": "donator", "atom_type": "S2s"}, "8": {"label": "d_hydrogen", "atom_type": "H0"}}

>  <type>  (1) 
r1h

$$$$

     RDKit          3D

 11 10  0  0  0  0  0  0  0  0999 V2000
    2.2312    0.7411   -0.3115 C   0  0  0  0  0  3  0  0  0  0  0  0
    0.6426    1.1039   -0.7896 S   0  0  0  0  0  0  0  0  0  0  0  0
    0.9085    2.4168   -2.0061 C   0  0  0  0  0  0  0  0  0  0  0  0
    1.5570    1.9429   -3.2967 C   0  0  0  0  0  0  0  0  0  0  0  0
    2.3707   -0.0938    0.3575 H   0  0  0  0  0  0  0  0  0  0  0  0
    3.0432    1.4267   -0.5066 H   0  0  0  0  0  0  0  0  0  0  0  0
    1.4997    3.2005   -1.5289 H   0  0  0  0  0  0  0  0  0  0  0  0
   -0.0844    2.8269   -2.1951 H   0  0  0  0  0  0  0  0  0  0  0  0
    0.9451    1.1830   -3.7838 H   0  0  0  0  0  0  0  0  0  0  0  0
    1.6803    2.7812   -3.9857 H   0  0  0  0  0  0  0  0  0  0  0  0
    2.5399    1.5119   -3.1043 H   0  0  0  0  0  0  0  0  0  0  0  0
  1  2  1  0
  1  5  1  0
  1  6  1  0
  2  3  1  0
  3  4  1  0
  3  7  1  0
  3  8  1  0
  4  9  1  0
  4 10  1  0
  4 11  1  0
M  RAD  1   1   2
M  END
>  <reaction>  (2) 
rmg_rxn_541

>  <mol_properties>  (2) 
{"0": {"label": "acceptor", "atom_type": "Cs"}}

>  <type>  (2) 
r2

$$$$

     RDKit          3D

 12 11  0  0  0  0  0  0  0  0999 V2000
    1.8075    0.1979    0.4695 C   0  0  0  0  0  0  0  0  0  0  0  0
    1.0072   -0.8859   -0.7259 S   0  0  0  0  0  0  0  0  0  0  0  0
   -0.7258   -0.6904   -0.2447 C   0  0  0  0  0  0  0  0  0  0  0  0
   -1.0856   -1.2776    1.1108 C   0  0  0  0  0  0  0  0  0  0  0  0
    1.7126   -0.1777    1.4878 H   0  0  0  0  0  0  0  0  0  0  0  0
    1.4024    1.2089    0.4095 H   0  0  0  0  0  0  0  0  0  0  0  0
    2.8647    0.2298    0.2095 H   0  0  0  0  0  0  0  0  0  0  0  0
   -1.2866   -1.1892   -1.0369 H   0  0  0  0  0  0  0  0  0  0  0  0
   -0.9814    0.3707   -0.2917 H   0  0  0  0  0  0  0  0  0  0  0  0
   -0.5492   -0.7768    1.9180 H   0  0  0  0  0  0  0  0  0  0  0  0
   -0.8418   -2.3397    1.1503 H   0  0  0  0  0  0  0  0  0  0  0  0
   -2.1545   -1.1604    1.3035 H   0  0  0  0  0  0  0  0  0  0  0  0
  1  2  1  0
  1  5  1  0
  1  6  1  0
  1  7  1  0
  2  3  1  0
  3  4  1  0
  3  8  1  0
  3  9  1  0
  4 10  1  0
  4 11  1  0
  4 12  1  0
M  END
>  <reaction>  (3) 
rmg_rxn_541

>  <mol_properties>  (3) 
{"0": {"label": "a_hydrogen", "atom_type": "H0"}, "1": {"label": "acceptor", "atom_type": "Cs"}}

>  <type>  (3) 
r2h

$$$$

     RDKit          3D

 20 18  0  0  0  0  0  0  0  0999 V2000
   -1.0536   -2.4916   -0.0785 C   0  0  0  0  0  0  0  0  0  0  0  0
   -0.5508   -2.2274    1.3313 C   0  0  0  0  0  0  0  0  0  0  0  0
   -0.9697   -0.5847    1.9811 S   0  0  0  0  0  1  0  0  0  0  0  0
   -0.5869   -1.8078   -0.7883 H   0  0  0  0  0  0  0  0  0  0  0  0
   -2.1344   -2.3561   -0.1360 H   0  0  0  0  0  0  0  0  0  0  0  0
   -0.8159   -3.5137   -0.3847 H   0  0  0  0  0  0  0  0  0  0  0  0
    0.5319   -2.3543    1.3881 H   0  0  0  0  0  0  0  0  0  0  0  0
   -0.9853   -2.9381    2.0363 H   0  0  0  0  0  0  0  0  0  0  0  0
    0.1169    0.1358    1.2178 H   0  0  0  0  0  0  0  0  0  0  0  0
    1.2867    0.7885    0.6173 C   0  0  0  0  0  0  0  0  0  0  0  0
    1.4443    0.4991   -1.0783 S   0  0  0  0  0  0  0  0  0  0  0  0
    0.1981    1.6194   -1.7649 C   0  0  0  0  0  0  0  0  0  0  0  0
   -1.2356    1.1452   -1.5914 C   0  0  0  0  0  0  0  0  0  0  0  0
    2.0796    0.3188    1.1908 H   0  0  0  0  0  0  0  0  0  0  0  0
    1.0680    1.8127    0.9110 H   0  0  0  0  0  0  0  0  0  0  0  0
    0.4563    1.7040   -2.8215 H   0  0  0  0  0  0  0  0  0  0  0  0
    0.3523    2.6011   -1.3135 H   0  0  0  0  0  0  0  0  0  0  0  0
   -1.4899    1.0094   -0.5398 H   0  0  0  0  0  0  0  0  0  0  0  0
   -1.9218    1.8787   -2.0201 H   0  0  0  0  0  0  0  0  0  0  0  0
   -1.3950    0.1924   -2.0971 H   0  0  0  0  0  0  0  0  0  0  0  0
  1  2  1  0
  1  4  1  0
  1  5  1  0
  1  6  1  0
  2  3  1  0
  2  7  1  0
  2  8  1  0
  9 10  1  0
 10 11  1  0
 10 14  1  0
 10 15  1  0
 11 12  1  0
 12 13  1  0
 12 16  1  0
 12 17  1  0
 13 18  1  0
 13 19  1  0
 13 20  1  0
M  RAD  1   3   2
M  END
>  <reaction>  (4) 
rmg_rxn_541

>  <mol_properties>  (4) 
{"1": {"label": "*4", "atom_type": "Cs"}, "2": {"label": "*3", "atom_type": "S2s"}, "8": {"label": "*2", "atom_type": "H0"}, "9": {"label": "*1", "atom_type": "Cs"}, "10": {"label": "*0", "atom_type": "S2s"}}

>  <type>  (4) 
ts

$$$$

     RDKit          3D

 20 18  0  0  0  0  0  0  0  0999 V2000
   -1.0731   -2.6543   -1.5259 C   0  0  0  0  0  0  0  0  0  0  0  0
   -1.0731   -2.6543   -0.0072 C   0  0  0  0  0  0  0  0  0  0  0  0
   -1.0731   -0.9969    0.7377 S   0  0  0  0  0  1  0  0  0  0  0  0
   -0.1664   -2.1888   -1.9167 H   0  0  0  0  0  0  0  0  0  0  0  0
   -1.9290   -2.1031   -1.9160 H   0  0  0  0  0  0  0  0  0  0  0  0
   -1.1161   -3.6776   -1.9062 H   0  0  0  0  0  0  0  0  0  0  0  0
   -0.2298   -3.2204    0.3879 H   0  0  0  0  0  0  0  0  0  0  0  0
   -1.9807   -3.1213    0.3779 H   0  0  0  0  0  0  0  0  0  0  0  0
    0.3367   -0.5149    0.1335 H   0  0  0  0  0  0  0  0  0  0  0  0
    1.4831   -0.1229   -0.3578 C   0  0  0  0  0  0  0  0  0  0  0  0
    1.5298    1.6583   -0.6212 S   0  0  0  0  0  0  0  0  0  0  0  0
    0.5917    2.2320    0.8155 C   0  0  0  0  0  0  0  0  0  0  0  0
   -0.8867    1.8777    0.7998 C   0  0  0  0  0  0  0  0  0  0  0  0
    2.1075   -0.5730   -1.1284 H   0  0  0  0  0  0  0  0  0  0  0  0
    1.8928   -0.3821    0.6193 H   0  0  0  0  0  0  0  0  0  0  0  0
    0.7239    3.3153    0.8124 H   0  0  0  0  0  0  0  0  0  0  0  0
    1.0752    1.8537    1.7191 H   0  0  0  0  0  0  0  0  0  0  0  0
   -1.0388    0.7977    0.8233 H   0  0  0  0  0  0  0  0  0  0  0  0
   -1.3874    2.2998    1.6742 H   0  0  0  0  0  0  0  0  0  0  0  0
   -1.3694    2.2680   -0.0967 H   0  0  0  0  0  0  0  0  0  0  0  0
  1  2  1  0
  1  4  1  0
  1  5  1  0
  1  6  1  0
  2  3  1  0
  2  7  1  0
  2  8  1  0
  9 10  1  0
 10 11  1  0
 10 14  1  0
 10 15  1  0
 11 12  1  0
 12 13  1  0
 12 16  1  0
 12 17  1  0
 13 18  1  0
 13 19  1  0
 13 20  1  0
M  RAD  1   3   2
M  END
>  <reaction>  (5) 
rmg_rxn_541

>  <mol_properties>  (5) 
{"1": {"label": "*4", "atom_type": "Cs"}, "2": {"label": "*3", "atom_type": "S2s"}, "8": {"label": "*2", "atom_type": "H0"}, "9": {"label": "*1", "atom_type": "Cs"}, "10": {"label": "*0", "atom_type": "S2s"}}

>  <type>  (5) 
unop_1

>  <geom_source>  (5) 
Heuristics

$$$$

     RDKit          3D

 20 17  0  0  0  0  0  0  0  0999 V2000
   -0.9300   -1.7724   -0.5052 C   0  0  0  0  0  3  0  0  0  0  0  0
   -0.9300   -1.7724    1.0135 C   0  0  0  0  0  0  0  0  0  0  0  0
   -0.9300   -0.1150    1.7585 S   0  0  0  0  0  0  0  0  0  0  0  0
   -0.0233   -1.3069   -0.8959 H   0  0  0  0  0  0  0  0  0  0  0  0
   -1.7859   -1.2212   -0.8953 H   0  0  0  0  0  0  0  0  0  0  0  0
   -0.9730   -2.7957   -0.8855 H   0  0  0  0  0  0  0  0  0  0  0  0
   -0.0867   -2.3385    1.4086 H   0  0  0  0  0  0  0  0  0  0  0  0
   -1.8376   -2.2394    1.3986 H   0  0  0  0  0  0  0  0  0  0  0  0
    0.4798    0.3670    1.1542 H   0  0  0  0  0  0  0  0  0  0  0  0
    1.6262    0.7590    0.6629 C   0  0  0  0  0  0  0  0  0  0  0  0
    1.6266    0.7477   -1.1383 S   0  0  0  0  0  0  0  0  0  0  0  0
   -0.0850    1.2274   -1.4747 C   0  0  0  0  0  0  0  0  0  0  0  0
   -1.1298    0.1950   -1.0821 C   0  0  0  0  0  0  0  0  0  0  0  0
    2.6508    0.5709    0.9806 H   0  0  0  0  0  0  0  0  0  0  0  0
    1.3150    1.7320    1.0452 H   0  0  0  0  0  0  0  0  0  0  0  0
   -0.1115    1.4059   -2.5510 H   0  0  0  0  0  0  0  0  0  0  0  0
   -0.2791    2.1854   -0.9871 H   0  0  0  0  0  0  0  0  0  0  0  0
   -1.1319    0.0185   -0.0055 H   0  0  0  0  0  0  0  0  0  0  0  0
   -2.1280    0.5402   -1.3611 H   0  0  0  0  0  0  0  0  0  0  0  0
   -0.9413   -0.7563   -1.5806 H   0  0  0  0  0  0  0  0  0  0  0  0
  1  4  1  0
  1  5  1  0
  1  6  1  0
  2  3  2  0
  2  7  1  0
  2  8  1  0
  9 10  1  0
 10 11  1  0
 10 14  1  0
 10 15  1  0
 11 12  1  0
 12 13  1  0
 12 16  1  0
 12 17  1  0
 13 18  1  0
 13 19  1  0
 13 20  1  0
M  RAD  1   1   2
M  END
>  <reaction>  (6) 
rmg_rxn_541

>  <mol_properties>  (6) 
{"1": {"label": "*4", "atom_type": "Cs"}, "2": {"label": "*3", "atom_type": "S2s"}, "8": {"label": "*2", "atom_type": "H0"}, "9": {"label": "*1", "atom_type": "Cs"}, "10": {"label": "*0", "atom_type": "S2s"}}

>  <type>  (6) 
unop_2

>  <geom_source>  (6) 
Heuristics

$$$$

     RDKit          3D

 20 18  0  0  0  0  0  0  0  0999 V2000
   -1.5126   -2.4324   -2.0240 C   0  0  0  0  0  0  0  0  0  0  0  0
   -1.5126   -2.4324   -0.5053 C   0  0  0  0  0  0  0  0  0  0  0  0
   -1.5126   -0.7750    0.2397 S   0  0  0  0  0  1  0  0  0  0  0  0
   -0.6059   -1.9669   -2.4147 H   0  0  0  0  0  0  0  0  0  0  0  0
   -2.3685   -1.8812   -2.4141 H   0  0  0  0  0  0  0  0  0  0  0  0
   -1.5556   -3.4557   -2.4042 H   0  0  0  0  0  0  0  0  0  0  0  0
   -0.6693   -2.9985   -0.1102 H   0  0  0  0  0  0  0  0  0  0  0  0
   -2.4202   -2.8994   -0.1202 H   0  0  0  0  0  0  0  0  0  0  0  0
   -0.1028   -0.2930   -0.3646 H   0  0  0  0  0  0  0  0  0  0  0  0
    1.0436    0.0990   -0.8559 C   0  0  0  0  0  0  0  0  0  0  0  0
    1.4584    1.7754   -0.3439 S   0  0  0  0  0  0  0  0  0  0  0  0
    1.6951    1.5319    1.4331 C   0  0  0  0  0  0  0  0  0  0  0  0
    0.4319    1.1926    2.2082 C   0  0  0  0  0  0  0  0  0  0  0  0
    0.9691    0.1094   -1.9424 H   0  0  0  0  0  0  0  0  0  0  0  0
    1.8283   -0.6011   -0.5663 H   0  0  0  0  0  0  0  0  0  0  0  0
    2.1153    2.4759    1.7840 H   0  0  0  0  0  0  0  0  0  0  0  0
    2.4612    0.7671    1.5795 H   0  0  0  0  0  0  0  0  0  0  0  0
    0.0085    0.2406    1.8847 H   0  0  0  0  0  0  0  0  0  0  0  0
    0.6520    1.1095    3.2750 H   0  0  0  0  0  0  0  0  0  0  0  0
   -0.3263    1.9642    2.0709 H   0  0  0  0  0  0  0  0  0  0  0  0
  1  2  1  0
  1  4  1  0
  1  5  1  0
  1  6  1  0
  2  3  1  0
  2  7  1  0
  2  8  1  0
  9 10  1  0
 10 11  1  0
 10 14  1  0
 10 15  1  0
 11 12  1  0
 12 13  1  0
 12 16  1  0
 12 17  1  0
 13 18  1  0
 13 19  1  0
 13 20  1  0
M  RAD  1   3   2
M  END
>  <reaction>  (7) 
rmg_rxn_541

>  <mol_properties>  (7) 
{"1": {"label": "*4", "atom_type": "Cs"}, "2": {"label": "*3", "atom_type": "S2s"}, "8": {"label": "*2", "atom_type": "H0"}, "9": {"label": "*1", "atom_type": "Cs"}, "10": {"label": "*0", "atom_type": "S2s"}}

>  <type>  (7) 
unop_3

>  <geom_source>  (7) 
Heuristics

$$$$

     RDKit          3D

 20 18  0  0  0  0  0  0  0  0999 V2000
   -1.9425   -1.9593   -2.1054 C   0  0  0  0  0  0  0  0  0  0  0  0
   -1.9425   -1.9593   -0.5868 C   0  0  0  0  0  0  0  0  0  0  0  0
   -1.9425   -0.3020    0.1582 S   0  0  0  0  0  1  0  0  0  0  0  0
   -1.0358   -1.4939   -2.4962 H   0  0  0  0  0  0  0  0  0  0  0  0
   -2.7984   -1.4081   -2.4955 H   0  0  0  0  0  0  0  0  0  0  0  0
   -1.9855   -2.9827   -2.4857 H   0  0  0  0  0  0  0  0  0  0  0  0
   -1.0992   -2.5254   -0.1916 H   0  0  0  0  0  0  0  0  0  0  0  0
   -2.8501   -2.4264   -0.2016 H   0  0  0  0  0  0  0  0  0  0  0  0
   -0.5327    0.1801   -0.4460 H   0  0  0  0  0  0  0  0  0  0  0  0
    0.6137    0.5720   -0.9374 C   0  0  0  0  0  0  0  0  0  0  0  0
    1.4439    1.7485    0.1449 S   0  0  0  0  0  0  0  0  0  0  0  0
    2.5470    0.6414    1.0562 C   0  0  0  0  0  0  0  0  0  0  0  0
    1.8496   -0.3258    1.9995 C   0  0  0  0  0  0  0  0  0  0  0  0
   -0.0193    1.1515   -1.6080 H   0  0  0  0  0  0  0  0  0  0  0  0
    1.3374    0.0154   -1.5341 H   0  0  0  0  0  0  0  0  0  0  0  0
    3.2044    1.3104    1.6142 H   0  0  0  0  0  0  0  0  0  0  0  0
    3.1717    0.1055    0.3379 H   0  0  0  0  0  0  0  0  0  0  0  0
    1.2030   -1.0167    1.4566 H   0  0  0  0  0  0  0  0  0  0  0  0
    2.5855   -0.9222    2.5437 H   0  0  0  0  0  0  0  0  0  0  0  0
    1.2374    0.2125    2.7237 H   0  0  0  0  0  0  0  0  0  0  0  0
  1  2  1  0
  1  4  1  0
  1  5  1  0
  1  6  1  0
  2  3  1  0
  2  7  1  0
  2  8  1  0
  9 10  1  0
 10 11  1  0
 10 14  1  0
 10 15  1  0
 11 12  1  0
 12 13  1  0
 12 16  1  0
 12 17  1  0
 13 18  1  0
 13 19  1  0
 13 20  1  0
M  RAD  1   3   2
M  END
>  <reaction>  (8) 
rmg_rxn_541

>  <mol_properties>  (8) 
{"1": {"label": "*4", "atom_type": "Cs"}, "2": {"label": "*3", "atom_type": "S2s"}, "8": {"label": "*2", "atom_type": "H0"}, "9": {"label": "*1", "atom_type": "Cs"}, "10": {"label": "*0", "atom_type": "S2s"}}

>  <type>  (8) 
unop_4

>  <geom_source>  (8) 
Heuristics

$$$$

     RDKit          3D

 20 18  0  0  0  0  0  0  0  0999 V2000
   -1.9226   -0.9805   -1.2298 C   0  0  0  0  0  0  0  0  0  0  0  0
   -1.9226   -0.9805    0.2889 C   0  0  0  0  0  0  0  0  0  0  0  0
   -1.9226    0.6768    1.0339 S   0  0  0  0  0  1  0  0  0  0  0  0
   -1.0160   -0.5151   -1.6205 H   0  0  0  0  0  0  0  0  0  0  0  0
   -2.7786   -0.4293   -1.6199 H   0  0  0  0  0  0  0  0  0  0  0  0
   -1.9657   -2.0039   -1.6100 H   0  0  0  0  0  0  0  0  0  0  0  0
   -1.0793   -1.5467    0.6840 H   0  0  0  0  0  0  0  0  0  0  0  0
   -2.8302   -1.4476    0.6740 H   0  0  0  0  0  0  0  0  0  0  0  0
   -0.5128    1.1588    0.4297 H   0  0  0  0  0  0  0  0  0  0  0  0
    0.6335    1.5508   -0.0617 C   0  0  0  0  0  0  0  0  0  0  0  0
    1.9911    0.4919    0.4677 S   0  0  0  0  0  0  0  0  0  0  0  0
    2.1534   -0.5877   -0.9750 C   0  0  0  0  0  0  0  0  0  0  0  0
    0.9877   -1.5374   -1.2002 C   0  0  0  0  0  0  0  0  0  0  0  0
    0.5089    2.3130    0.7063 H   0  0  0  0  0  0  0  0  0  0  0  0
    0.8697    2.0421   -1.0064 H   0  0  0  0  0  0  0  0  0  0  0  0
    3.0720   -1.1483   -0.7939 H   0  0  0  0  0  0  0  0  0  0  0  0
    2.3270    0.0344   -1.8561 H   0  0  0  0  0  0  0  0  0  0  0  0
    0.0636   -0.9943   -1.4033 H   0  0  0  0  0  0  0  0  0  0  0  0
    1.1851   -2.1838   -2.0584 H   0  0  0  0  0  0  0  0  0  0  0  0
    0.8251   -2.1662   -0.3242 H   0  0  0  0  0  0  0  0  0  0  0  0
  1  2  1  0
  1  4  1  0
  1  5  1  0
  1  6  1  0
  2  3  1  0
  2  7  1  0
  2  8  1  0
  9 10  1  0
 10 11  1  0
 10 14  1  0
 10 15  1  0
 11 12  1  0
 12 13  1  0
 12 16  1  0
 12 17  1  0
 13 18  1  0
 13 19  1  0
 13 20  1  0
M  RAD  1   3   2
M  END
>  <reaction>  (9) 
rmg_rxn_541

>  <mol_properties>  (9) 
{"1": {"label": "*4", "atom_type": "Cs"}, "2": {"label": "*3", "atom_type": "S2s"}, "8": {"label": "*2", "atom_type": "H0"}, "9": {"label": "*1", "atom_type": "Cs"}, "10": {"label": "*0", "atom_type": "S2s"}}

>  <type>  (9) 
unop_5

>  <geom_source>  (9) 
Heuristics

$$$$

     RDKit          3D

 20 18  0  0  0  0  0  0  0  0999 V2000
   -2.0906   -1.1721   -1.6145 C   0  0  0  0  0  0  0  0  0  0  0  0
   -2.0906   -1.1721   -0.0958 C   0  0  0  0  0  0  0  0  0  0  0  0
   -2.0906    0.4853    0.6492 S   0  0  0  0  0  1  0  0  0  0  0  0
   -1.1839   -0.7066   -2.0052 H   0  0  0  0  0  0  0  0  0  0  0  0
   -2.9465   -0.6209   -2.0046 H   0  0  0  0  0  0  0  0  0  0  0  0
   -2.1336   -2.1954   -1.9948 H   0  0  0  0  0  0  0  0  0  0  0  0
   -1.2473   -1.7382    0.2993 H   0  0  0  0  0  0  0  0  0  0  0  0
   -2.9982   -1.6391    0.2893 H   0  0  0  0  0  0  0  0  0  0  0  0
   -0.6808    0.9673    0.0449 H   0  0  0  0  0  0  0  0  0  0  0  0
    0.4656    1.3593   -0.4464 C   0  0  0  0  0  0  0  0  0  0  0  0
    1.8401    0.9565    0.6458 S   0  0  0  0  0  0  0  0  0  0  0  0
    2.5869   -0.4239   -0.2539 C   0  0  0  0  0  0  0  0  0  0  0  0
    1.7462   -1.6899   -0.3000 C   0  0  0  0  0  0  0  0  0  0  0  0
   -0.0081    2.2529   -0.0424 H   0  0  0  0  0  0  0  0  0  0  0  0
    0.8213    1.5777   -1.4541 H   0  0  0  0  0  0  0  0  0  0  0  0
    3.5282   -0.6105    0.2657 H   0  0  0  0  0  0  0  0  0  0  0  0
    2.8397   -0.0853   -1.2613 H   0  0  0  0  0  0  0  0  0  0  0  0
    0.8090   -1.5276   -0.8343 H   0  0  0  0  0  0  0  0  0  0  0  0
    2.2866   -2.4858   -0.8175 H   0  0  0  0  0  0  0  0  0  0  0  0
    1.5066   -2.0330    0.7070 H   0  0  0  0  0  0  0  0  0  0  0  0
  1  2  1  0
  1  4  1  0
  1  5  1  0
  1  6  1  0
  2  3  1  0
  2  7  1  0
  2  8  1  0
  9 10  1  0
 10 11  1  0
 10 14  1  0
 10 15  1  0
 11 12  1  0
 12 13  1  0
 12 16  1  0
 12 17  1  0
 13 18  1  0
 13 19  1  0
 13 20  1  0
M  RAD  1   3   2
M  END
>  <reaction>  (10) 
rmg_rxn_541

>  <mol_properties>  (10) 
{"1": {"label": "*4", "atom_type": "Cs"}, "2": {"label": "*3", "atom_type": "S2s"}, "8": {"label": "*2", "atom_type": "H0"}, "9": {"label": "*1", "atom_type": "Cs"}, "10": {"label": "*0", "atom_type": "S2s"}}

>  <type>  (10) 
unop_6

>  <geom_source>  (10) 
Heuristics

$$$$

     RDKit          3D

 20 18  0  0  0  0  0  0  0  0999 V2000
   -0.8760   -2.5040   -1.0064 C   0  0  0  0  0  0  0  0  0  0  0  0
   -0.8760   -2.5040    0.5122 C   0  0  0  0  0  0  0  0  0  0  0  0
   -0.8760   -0.8466    1.2572 S   0  0  0  0  0  1  0  0  0  0  0  0
    0.0306   -2.0386   -1.3972 H   0  0  0  0  0  0  0  0  0  0  0  0
   -1.7320   -1.9528   -1.3965 H   0  0  0  0  0  0  0  0  0  0  0  0
   -0.9191   -3.5274   -1.3867 H   0  0  0  0  0  0  0  0  0  0  0  0
   -0.0328   -3.0701    0.9073 H   0  0  0  0  0  0  0  0  0  0  0  0
   -1.7836   -2.9710    0.8974 H   0  0  0  0  0  0  0  0  0  0  0  0
    0.5337   -0.3646    0.6530 H   0  0  0  0  0  0  0  0  0  0  0  0
    1.6801    0.0273    0.1616 C   0  0  0  0  0  0  0  0  0  0  0  0
    1.5045    1.4904   -0.8743 S   0  0  0  0  0  0  0  0  0  0  0  0
    0.0148    2.2275   -0.1597 C   0  0  0  0  0  0  0  0  0  0  0  0
   -1.2643    1.4375   -0.3866 C   0  0  0  0  0  0  0  0  0  0  0  0
    2.6149   -0.4526   -0.1248 H   0  0  0  0  0  0  0  0  0  0  0  0
    1.7371    0.3022    1.2156 H   0  0  0  0  0  0  0  0  0  0  0  0
   -0.0557    3.2097   -0.6299 H   0  0  0  0  0  0  0  0  0  0  0  0
    0.1874    2.3949    0.9059 H   0  0  0  0  0  0  0  0  0  0  0  0
   -1.2201    0.4593    0.0943 H   0  0  0  0  0  0  0  0  0  0  0  0
   -2.1199    1.9720    0.0325 H   0  0  0  0  0  0  0  0  0  0  0  0
   -1.4411    1.2834   -1.4516 H   0  0  0  0  0  0  0  0  0  0  0  0
  1  2  1  0
  1  4  1  0
  1  5  1  0
  1  6  1  0
  2  3  1  0
  2  7  1  0
  2  8  1  0
  9 10  1  0
 10 11  1  0
 10 14  1  0
 10 15  1  0
 11 12  1  0
 12 13  1  0
 12 16  1  0
 12 17  1  0
 13 18  1  0
 13 19  1  0
 13 20  1  0
M  RAD  1   3   2
M  END
>  <reaction>  (11) 
rmg_rxn_541

>  <mol_properties>  (11) 
{"1": {"label": "*4", "atom_type": "Cs"}, "2": {"label": "*3", "atom_type": "S2s"}, "8": {"label": "*2", "atom_type": "H0"}, "9": {"label": "*1", "atom_type": "Cs"}, "10": {"label": "*0", "atom_type": "S2s"}}

>  <type>  (11) 
unop_7

>  <geom_source>  (11) 
Heuristics

$$$$

     RDKit          3D

 20 18  0  0  0  0  0  0  0  0999 V2000
   -0.8457   -2.1639   -0.6619 C   0  0  0  0  0  0  0  0  0  0  0  0
   -0.8457   -2.1639    0.8568 C   0  0  0  0  0  0  0  0  0  0  0  0
   -0.8457   -0.5065    1.6017 S   0  0  0  0  0  1  0  0  0  0  0  0
    0.0609   -1.6984   -1.0527 H   0  0  0  0  0  0  0  0  0  0  0  0
   -1.7017   -1.6127   -1.0520 H   0  0  0  0  0  0  0  0  0  0  0  0
   -0.8888   -3.1872   -1.0422 H   0  0  0  0  0  0  0  0  0  0  0  0
   -0.0025   -2.7300    1.2519 H   0  0  0  0  0  0  0  0  0  0  0  0
   -1.7534   -2.6309    1.2419 H   0  0  0  0  0  0  0  0  0  0  0  0
    0.5640   -0.0245    0.9975 H   0  0  0  0  0  0  0  0  0  0  0  0
    1.7104    0.3675    0.5062 C   0  0  0  0  0  0  0  0  0  0  0  0
    1.5178    1.1744   -1.0927 S   0  0  0  0  0  0  0  0  0  0  0  0
   -0.1697    1.8094   -0.9441 C   0  0  0  0  0  0  0  0  0  0  0  0
   -1.2555    0.7456   -0.9149 C   0  0  0  0  0  0  0  0  0  0  0  0
    2.7419    0.0228    0.5643 H   0  0  0  0  0  0  0  0  0  0  0  0
    1.5307    1.0707    1.3204 H   0  0  0  0  0  0  0  0  0  0  0  0
   -0.2946    2.4574   -1.8132 H   0  0  0  0  0  0  0  0  0  0  0  0
   -0.2235    2.4478   -0.0592 H   0  0  0  0  0  0  0  0  0  0  0  0
   -1.1587    0.1001   -0.0407 H   0  0  0  0  0  0  0  0  0  0  0  0
   -2.2425    1.2117   -0.8723 H   0  0  0  0  0  0  0  0  0  0  0  0
   -1.2077    0.1183   -1.8056 H   0  0  0  0  0  0  0  0  0  0  0  0
  1  2  1  0
  1  4  1  0
  1  5  1  0
  1  6  1  0
  2  3  1  0
  2  7  1  0
  2  8  1  0
  9 10  1  0
 10 11  1  0
 10 14  1  0
 10 15  1  0
 11 12  1  0
 12 13  1  0
 12 16  1  0
 12 17  1  0
 13 18  1  0
 13 19  1  0
 13 20  1  0
M  RAD  1   3   2
M  END
>  <reaction>  (12) 
rmg_rxn_541

>  <mol_properties>  (12) 
{"1": {"label": "*4", "atom_type": "Cs"}, "2": {"label": "*3", "atom_type": "S2s"}, "8": {"label": "*2", "atom_type": "H0"}, "9": {"label": "*1", "atom_type": "Cs"}, "10": {"label": "*0", "atom_type": "S2s"}}

>  <type>  (12) 
unop_8

>  <geom_source>  (12) 
Heuristics

$$$$

     RDKit          3D

 20 18  0  0  0  0  0  0  0  0999 V2000
   -2.1114   -1.5190   -1.9261 C   0  0  0  0  0  0  0  0  0  0  0  0
   -2.1114   -1.5190   -0.4075 C   0  0  0  0  0  0  0  0  0  0  0  0
   -2.1114    0.1383    0.3375 S   0  0  0  0  0  1  0  0  0  0  0  0
   -1.2048   -1.0536   -2.3169 H   0  0  0  0  0  0  0  0  0  0  0  0
   -2.9674   -0.9678   -2.3162 H   0  0  0  0  0  0  0  0  0  0  0  0
   -2.1545   -2.5424   -2.3064 H   0  0  0  0  0  0  0  0  0  0  0  0
   -1.2682   -2.0852   -0.0123 H   0  0  0  0  0  0  0  0  0  0  0  0
   -3.0190   -1.9861   -0.0223 H   0  0  0  0  0  0  0  0  0  0  0  0
   -0.7016    0.6203   -0.2667 H   0  0  0  0  0  0  0  0  0  0  0  0
    0.4447    1.0123   -0.7581 C   0  0  0  0  0  0  0  0  0  0  0  0
    1.6262    1.4277    0.5366 S   0  0  0  0  0  0  0  0  0  0  0  0
    2.7470    0.0115    0.4315 C   0  0  0  0  0  0  0  0  0  0  0  0
    2.1468   -1.3157    0.8674 C   0  0  0  0  0  0  0  0  0  0  0  0
   -0.2366    1.8573   -0.8475 H   0  0  0  0  0  0  0  0  0  0  0  0
    0.9503    0.8685   -1.7138 H   0  0  0  0  0  0  0  0  0  0  0  0
    3.5863    0.2797    1.0752 H   0  0  0  0  0  0  0  0  0  0  0  0
    3.1335   -0.0502   -0.5884 H   0  0  0  0  0  0  0  0  0  0  0  0
    1.3183   -1.6105    0.2218 H   0  0  0  0  0  0  0  0  0  0  0  0
    2.8990   -2.1064    0.8195 H   0  0  0  0  0  0  0  0  0  0  0  0
    1.7738   -1.2551    1.8903 H   0  0  0  0  0  0  0  0  0  0  0  0
  1  2  1  0
  1  4  1  0
  1  5  1  0
  1  6  1  0
  2  3  1  0
  2  7  1  0
  2  8  1  0
  9 10  1  0
 10 11  1  0
 10 14  1  0
 10 15  1  0
 11 12  1  0
 12 13  1  0
 12 16  1  0
 12 17  1  0
 13 18  1  0
 13 19  1  0
 13 20  1  0
M  RAD  1   3   2
M  END
>  <reaction>  (13) 
rmg_rxn_541

>  <mol_properties>  (13) 
{"1": {"label": "*4", "atom_type": "Cs"}, "2": {"label": "*3", "atom_type": "S2s"}, "8": {"label": "*2", "atom_type": "H0"}, "9": {"label": "*1", "atom_type": "Cs"}, "10": {"label": "*0", "atom_type": "S2s"}}

>  <type>  (13) 
unop_9

>  <geom_source>  (13) 
Heuristics

$$$$

     RDKit          3D

 20 14  0  0  0  0  0  0  0  0999 V2000
   -1.1019   -1.4188   -0.5025 C   0  0  0  0  0  2  0  0  0  0  0  0
   -1.1019   -1.4188    1.0162 C   0  0  0  0  0  3  0  0  0  0  0  0
   -1.1019    0.2385    1.7612 S   0  0  0  0  0  1  0  0  0  0  0  0
   -0.1952   -0.9534   -0.8932 H   0  0  0  0  0  0  0  0  0  0  0  0
   -1.9578   -0.8676   -0.8926 H   0  0  0  0  0  0  0  0  0  0  0  0
   -1.1450   -2.4422   -0.8827 H   0  0  0  0  0  0  0  0  0  0  0  0
   -0.2586   -1.9849    1.4113 H   0  0  0  0  0  0  0  0  0  0  0  0
   -2.0095   -1.8859    1.4013 H   0  0  0  0  0  0  0  0  0  0  0  0
    0.3079    0.7206    1.1569 H   0  0  0  0  0  0  0  0  0  0  0  0
    1.4542    1.1125    0.6656 C   0  0  0  0  0  0  0  0  0  0  0  0
    1.8060    0.3402   -0.9232 S   0  0  0  0  0  0  0  0  0  0  0  0
    0.2380    0.6169   -1.7823 C   0  0  0  0  0  3  0  0  0  0  0  0
   -0.9440   -0.1618   -1.2273 C   0  0  0  0  0  2  0  0  0  0  0  0
    2.3782    1.0858    1.2417 H   0  0  0  0  0  0  0  0  0  0  0  0
    1.1546    2.1530    0.5339 H   0  0  0  0  0  0  0  0  0  0  0  0
    0.4371    0.3230   -2.8142 H   0  0  0  0  0  0  0  0  0  0  0  0
    0.0311    1.6895   -1.7898 H   0  0  0  0  0  0  0  0  0  0  0  0
   -1.1709    0.1338   -0.2020 H   0  0  0  0  0  0  0  0  0  0  0  0
   -1.8369    0.0238   -1.8288 H   0  0  0  0  0  0  0  0  0  0  0  0
   -0.7399   -1.2330   -1.2334 H   0  0  0  0  0  0  0  0  0  0  0  0
  1  5  1  0
  1 20  1  0
  2  8  1  0
  2  7  1  0
  2  3  1  0
  9 10  1  0
 10 15  1  0
 10 14  1  0
 10 11  1  0
 11 12  1  0
 12 17  1  0
 12 16  1  0
 13 19  1  0
 13 18  1  0
M  RAD  5   1   3   2   2   3   2  12   2  13   3
M  END
>  <reaction>  (14) 
rmg_rxn_541

>  <mol_properties>  (14) 
{"1": {"label": "*4", "atom_type": "Cs"}, "2": {"label": "*3", "atom_type": "S2s"}, "8": {"label": "*2", "atom_type": "H0"}, "9": {"label": "*1", "atom_type": "Cs"}, "10": {"label": "*0", "atom_type": "S2s"}}

>  <type>  (14) 
unop_10

>  <geom_source>  (14) 
Heuristics

$$$$

     RDKit          3D

 20 17  0  0  0  0  0  0  0  0999 V2000
   -0.9300   -1.7724   -0.5052 C   0  0  0  0  0  3  0  0  0  0  0  0
   -0.9300   -1.7724    1.0135 C   0  0  0  0  0  0  0  0  0  0  0  0
   -0.9300   -0.1150    1.7585 S   0  0  0  0  0  0  0  0  0  0  0  0
   -0.0233   -1.3069   -0.8959 H   0  0  0  0  0  0  0  0  0  0  0  0
   -1.7859   -1.2211   -0.8953 H   0  0  0  0  0  0  0  0  0  0  0  0
   -0.9730   -2.7957   -0.8855 H   0  0  0  0  0  0  0  0  0  0  0  0
   -0.0867   -2.3385    1.4086 H   0  0  0  0  0  0  0  0  0  0  0  0
   -1.8376   -2.2394    1.3986 H   0  0  0  0  0  0  0  0  0  0  0  0
    0.4798    0.3670    1.1542 H   0  0  0  0  0  0  0  0  0  0  0  0
    1.6262    0.7590    0.6629 C   0  0  0  0  0  0  0  0  0  0  0  0
    1.6266    0.7477   -1.1383 S   0  0  0  0  0  0  0  0  0  0  0  0
   -0.0850    1.2274   -1.4748 C   0  0  0  0  0  0  0  0  0  0  0  0
   -1.1298    0.1950   -1.0821 C   0  0  0  0  0  0  0  0  0  0  0  0
    2.6508    0.5709    0.9806 H   0  0  0  0  0  0  0  0  0  0  0  0
    1.3150    1.7320    1.0452 H   0  0  0  0  0  0  0  0  0  0  0  0
   -0.1115    1.4059   -2.5510 H   0  0  0  0  0  0  0  0  0  0  0  0
   -0.2791    2.1854   -0.9871 H   0  0  0  0  0  0  0  0  0  0  0  0
   -1.1319    0.0185   -0.0056 H   0  0  0  0  0  0  0  0  0  0  0  0
   -2.1280    0.5402   -1.3611 H   0  0  0  0  0  0  0  0  0  0  0  0
   -0.9414   -0.7563   -1.5806 H   0  0  0  0  0  0  0  0  0  0  0  0
  1  4  1  0
  1  5  1  0
  1  6  1  0
  2  3  2  0
  2  7  1  0
  2  8  1  0
  9 10  1  0
 10 11  1  0
 10 14  1  0
 10 15  1  0
 11 12  1  0
 12 13  1  0
 12 16  1  0
 12 17  1  0
 13 18  1  0
 13 19  1  0
 13 20  1  0
M  RAD  1   1   2
M  END
>  <reaction>  (15) 
rmg_rxn_541

>  <mol_properties>  (15) 
{"1": {"label": "*4", "atom_type": "Cs"}, "2": {"label": "*3", "atom_type": "S2s"}, "8": {"label": "*2", "atom_type": "H0"}, "9": {"label": "*1", "atom_type": "Cs"}, "10": {"label": "*0", "atom_type": "S2s"}}

>  <type>  (15) 
unop_11

>  <geom_source>  (15) 
gaussian_log

$$$$
