
     RDKit          3D

 18 17  0  0  0  0  0  0  0  0999 V2000
    2.2026   -0.7213   -0.2612 C   0  0  0  0  0  0  0  0  0  0  0  0
    1.5384    0.2638    0.6915 C   0  0  0  0  0  0  0  0  0  0  0  0
    2.2584    1.5946    0.7694 C   0  0  0  0  0  0  0  0  0  0  0  0
    2.2212    2.2185   -0.4893 O   0  0  0  0  0  0  0  0  0  0  0  0
    2.8988    3.4488   -0.5204 C   0  0  0  0  0  0  0  0  0  0  0  0
    2.7981    4.0296   -1.9118 C   0  0  0  0  0  0  0  0  0  0  0  0
    3.2294   -0.9309    0.0486 H   0  0  0  0  0  0  0  0  0  0  0  0
    2.2338   -0.3181   -1.2734 H   0  0  0  0  0  0  0  0  0  0  0  0
    1.6610   -1.6680   -0.2875 H   0  0  0  0  0  0  0  0  0  0  0  0
    1.4990   -0.1566    1.7002 H   0  0  0  0  0  0  0  0  0  0  0  0
    0.5055    0.4455    0.3835 H   0  0  0  0  0  0  0  0  0  0  0  0
    3.3038    1.4410    1.0808 H   0  0  0  0  0  0  0  0  0  0  0  0
    1.7844    2.2410    1.5226 H   0  0  0  0  0  0  0  0  0  0  0  0
    2.4596    4.1376    0.2164 H   0  0  0  0  0  0  0  0  0  0  0  0
    3.9524    3.3035   -0.2397 H   0  0  0  0  0  0  0  0  0  0  0  0
    1.7543    4.1869   -2.1856 H   0  0  0  0  0  0  0  0  0  0  0  0
    3.2472    3.3545   -2.6411 H   0  0  0  0  0  0  0  0  0  0  0  0
    3.3178    4.9878   -1.9600 H   0  0  0  0  0  0  0  0  0  0  0  0
  1  2  1  0
  1  7  1  0
  1  8  1  0
  1  9  1  0
  2  3  1  0
  2 10  1  0
  2 11  1  0
  3  4  1  0
  3 12  1  0
  3 13  1  0
  4  5  1  0
  5  6  1  0
  5 14  1  0
  5 15  1  0
  6 16  1  0
  6 17  1  0
  6 18  1  0
M  END
>  <reaction>  (1) 
rmg_rxn_289

>  <mol_properties>  (1) 
{"4": {"label": "donator", "atom_type": "Cs"}, "13": {"label": "d_hydrogen", "atom_type": "H0"}}

>  <type>  (1) 
r1h

$$$$

     RDKit          3D

 13 13  0  0  0  0  0  0  0  0999 V2000
   -1.1371    0.3608    0.3110 C   0  0  0  0  0  3  0  0  0  0  0  0
   -0.0045    1.3224    0.2943 C   0  0  0  0  0  0  0  0  0  0  0  0
    1.2245    0.6965    0.6137 O   0  0  0  0  0  0  0  0  0  0  0  0
    1.3926   -0.4921   -0.0955 C   0  0  0  0  0  0  0  0  0  0  0  0
    0.4387   -1.4537    0.2351 O   0  0  0  0  0  0  0  0  0  0  0  0
   -0.8659   -1.0349   -0.1206 C   0  0  0  0  0  0  0  0  0  0  0  0
   -2.1544    0.7285    0.3341 H   0  0  0  0  0  0  0  0  0  0  0  0
   -0.1488    2.1272    1.0165 H   0  0  0  0  0  0  0  0  0  0  0  0
    0.0825    1.7949   -0.7036 H   0  0  0  0  0  0  0  0  0  0  0  0
    1.3549   -0.2872   -1.1815 H   0  0  0  0  0  0  0  0  0  0  0  0
    2.3646   -0.8956    0.1787 H   0  0  0  0  0  0  0  0  0  0  0  0
   -1.5620   -1.7401    0.3358 H   0  0  0  0  0  0  0  0  0  0  0  0
   -0.9852   -1.1268   -1.2179 H   0  0  0  0  0  0  0  0  0  0  0  0
  1  2  1  0
  1  6  1  0
  1  7  1  0
  2  3  1  0
  2  8  1  0
  2  9  1  0
  3  4  1  0
  4  5  1  0
  4 10  1  0
  4 11  1  0
  5  6  1  0
  6 12  1  0
  6 13  1  0
M  RAD  1   1   2
M  END
>  <reaction>  (2) 
rmg_rxn_289

>  <mol_properties>  (2) 
{"0": {"label": "acceptor", "atom_type": "Cs"}}

>  <type>  (2) 
r2

$$$$

     RDKit          3D

 14 14  0  0  0  0  0  0  0  0999 V2000
   -1.1778    0.2241    0.1818 C   0  0  0  0  0  0  0  0  0  0  0  0
   -0.5633   -1.1636    0.0678 C   0  0  0  0  0  0  0  0  0  0  0  0
    0.6943   -1.1996    0.7146 O   0  0  0  0  0  0  0  0  0  0  0  0
    1.5547   -0.2288    0.2011 C   0  0  0  0  0  0  0  0  0  0  0  0
    1.0729    1.0696    0.3698 O   0  0  0  0  0  0  0  0  0  0  0  0
   -0.1607    1.2493   -0.2989 C   0  0  0  0  0  0  0  0  0  0  0  0
   -2.0927    0.2866   -0.4117 H   0  0  0  0  0  0  0  0  0  0  0  0
   -1.4303    0.4248    1.2248 H   0  0  0  0  0  0  0  0  0  0  0  0
   -1.1822   -1.9235    0.5431 H   0  0  0  0  0  0  0  0  0  0  0  0
   -0.4389   -1.4347   -0.9919 H   0  0  0  0  0  0  0  0  0  0  0  0
    1.7250   -0.4207   -0.8742 H   0  0  0  0  0  0  0  0  0  0  0  0
    2.4896   -0.3010    0.7524 H   0  0  0  0  0  0  0  0  0  0  0  0
   -0.0080    1.1481   -1.3844 H   0  0  0  0  0  0  0  0  0  0  0  0
   -0.4826    2.2695   -0.0942 H   0  0  0  0  0  0  0  0  0  0  0  0
  1  2  1  0
  1  6  1  0
  1  7  1  0
  1  8  1  0
  2  3  1  0
  2  9  1  0
  2 10  1  0
  3  4  1  0
  4  5  1  0
  4 11  1  0
  4 12  1  0
  5  6  1  0
  6 13  1  0
  6 14  1  0
M  END
>  <reaction>  (3) 
rmg_rxn_289

>  <mol_properties>  (3) 
{"0": {"label": "acceptor", "atom_type": "Cs"}, "13": {"label": "a_hydrogen", "atom_type": "H0"}}

>  <type>  (3) 
r2h

$$$$

     RDKit          3D

 31 30  0  0  0  0  0  0  0  0999 V2000
    0.4880    0.8906    1.0199 C   0  0  0  0  0  3  0  0  0  0  0  0
   -0.2554    2.0943    1.5336 C   0  0  0  0  0  0  0  0  0  0  0  0
   -0.5842    1.9213    2.9084 O   0  0  0  0  0  0  0  0  0  0  0  0
   -1.3033    0.7408    3.1030 C   0  0  0  0  0  0  0  0  0  0  0  0
   -0.5926   -0.4020    2.7366 O   0  0  0  0  0  0  0  0  0  0  0  0
   -0.2600   -0.3728    1.3516 C   0  0  0  0  0  0  0  0  0  0  0  0
    1.5391    0.8695    1.3024 H   0  0  0  0  0  0  0  0  0  0  0  0
    0.3342    3.0074    1.4680 H   0  0  0  0  0  0  0  0  0  0  0  0
   -1.1850    2.2398    0.9619 H   0  0  0  0  0  0  0  0  0  0  0  0
   -2.2461    0.7874    2.5268 H   0  0  0  0  0  0  0  0  0  0  0  0
   -1.5136    0.6632    4.1678 H   0  0  0  0  0  0  0  0  0  0  0  0
   -1.1841   -0.4345    0.7572 H   0  0  0  0  0  0  0  0  0  0  0  0
    0.3269   -1.2687    1.1550 H   0  0  0  0  0  0  0  0  0  0  0  0
    0.6466   -3.0009   -3.4201 C   0  0  0  0  0  0  0  0  0  0  0  0
    1.1479   -2.6759   -2.0194 C   0  0  0  0  0  0  0  0  0  0  0  0
    1.3977   -1.1990   -1.8019 C   0  0  0  0  0  0  0  0  0  0  0  0
    0.1815   -0.4954   -1.9466 O   0  0  0  0  0  0  0  0  0  0  0  0
    0.2783    0.8561   -1.6796 C   0  0  0  0  0  0  0  0  0  0  0  0
   -1.0081    1.5630   -1.9895 C   0  0  0  0  0  0  0  0  0  0  0  0
    1.3682   -2.6822   -4.1762 H   0  0  0  0  0  0  0  0  0  0  0  0
   -0.2968   -2.4938   -3.6219 H   0  0  0  0  0  0  0  0  0  0  0  0
    0.4885   -4.0735   -3.5394 H   0  0  0  0  0  0  0  0  0  0  0  0
    2.0843   -3.2046   -1.8223 H   0  0  0  0  0  0  0  0  0  0  0  0
    0.4274   -3.0201   -1.2727 H   0  0  0  0  0  0  0  0  0  0  0  0
    2.1283   -0.8194   -2.5309 H   0  0  0  0  0  0  0  0  0  0  0  0
    1.8086   -1.0227   -0.7996 H   0  0  0  0  0  0  0  0  0  0  0  0
    0.4758    0.9666   -0.4004 H   0  0  0  0  0  0  0  0  0  0  0  0
    1.1632    1.3122   -2.1418 H   0  0  0  0  0  0  0  0  0  0  0  0
   -1.8312    1.1219   -1.4242 H   0  0  0  0  0  0  0  0  0  0  0  0
   -1.2511    1.4925   -3.0527 H   0  0  0  0  0  0  0  0  0  0  0  0
   -0.9308    2.6178   -1.7225 H   0  0  0  0  0  0  0  0  0  0  0  0
  1  2  1  0
  1  6  1  0
  1  7  1  0
  2  3  1  0
  2  8  1  0
  2  9  1  0
  3  4  1  0
  4  5  1  0
  4 10  1  0
  4 11  1  0
  5  6  1  0
  6 12  1  0
  6 13  1  0
 14 15  1  0
 14 20  1  0
 14 21  1  0
 14 22  1  0
 15 16  1  0
 15 23  1  0
 15 24  1  0
 16 17  1  0
 16 25  1  0
 16 26  1  0
 17 18  1  0
 18 19  1  0
 18 27  1  0
 18 28  1  0
 19 29  1  0
 19 30  1  0
 19 31  1  0
M  RAD  1   1   2
M  END
>  <reaction>  (4) 
rmg_rxn_289

>  <mol_properties>  (4) 
{"0": {"label": "*3", "atom_type": "Cs"}, "1": {"label": "*4", "atom_type": "Cs"}, "16": {"label": "*0", "atom_type": "O2s"}, "17": {"label": "*1", "atom_type": "Cs"}, "26": {"label": "*2", "atom_type": "H0"}}

>  <type>  (4) 
ts

$$$$

     RDKit          3D

 31 30  0  0  0  0  0  0  0  0999 V2000
   -0.0707    0.1216    1.3422 C   0  0  0  0  0  0  0  0  0  0  0  0
    1.1369    0.9274    1.7992 C   0  0  0  0  0  0  0  0  0  0  0  0
    0.7781    1.7940    2.8584 O   0  0  0  0  0  0  0  0  0  0  0  0
   -0.2726    2.6345    2.4898 C   0  0  0  0  0  0  0  0  0  0  0  0
   -1.4338    1.9385    2.1526 O   0  0  0  0  0  0  0  0  0  0  0  0
   -1.2151    1.0812    1.0487 C   0  0  0  0  0  0  0  0  0  0  0  0
   -0.3687   -0.5671    2.1351 H   0  0  0  0  0  0  0  0  0  0  0  0
    1.9351    0.2881    2.1740 H   0  0  0  0  0  0  0  0  0  0  0  0
    1.5348    1.5186    0.9602 H   0  0  0  0  0  0  0  0  0  0  0  0
    0.0411    3.2615    1.6351 H   0  0  0  0  0  0  0  0  0  0  0  0
   -0.5068    3.2563    3.3511 H   0  0  0  0  0  0  0  0  0  0  0  0
   -0.9827    1.6831    0.1569 H   0  0  0  0  0  0  0  0  0  0  0  0
   -2.1519    0.5553    0.8698 H   0  0  0  0  0  0  0  0  0  0  0  0
    1.0222   -3.2599   -3.5156 C   0  0  0  0  0  0  0  0  0  0  0  0
    1.0222   -3.2599   -1.9927 C   0  0  0  0  0  0  0  0  0  0  0  0
    1.0222   -1.8669   -1.3971 C   0  0  0  0  0  0  0  0  0  0  0  0
   -0.1608   -1.2033   -1.7647 O   0  0  0  0  0  0  0  0  0  0  0  0
   -0.2315    0.1148   -1.2838 C   0  0  0  0  0  3  0  0  0  0  0  0
   -1.5349    0.7326   -1.7347 C   0  0  0  0  0  0  0  0  0  0  0  0
    1.9043   -2.7456   -3.9052 H   0  0  0  0  0  0  0  0  0  0  0  0
    0.1395   -2.7502   -3.9016 H   0  0  0  0  0  0  0  0  0  0  0  0
    1.0277   -4.2778   -3.9082 H   0  0  0  0  0  0  0  0  0  0  0  0
    1.9037   -3.7864   -1.6164 H   0  0  0  0  0  0  0  0  0  0  0  0
    0.1478   -3.7979   -1.6174 H   0  0  0  0  0  0  0  0  0  0  0  0
    1.8964   -1.3018   -1.7575 H   0  0  0  0  0  0  0  0  0  0  0  0
    1.0970   -1.9208   -0.3011 H   0  0  0  0  0  0  0  0  0  0  0  0
   -0.1508    0.1182    0.0339 H   0  0  0  0  0  0  0  0  0  0  0  0
    0.6213    0.6978   -1.6617 H   0  0  0  0  0  0  0  0  0  0  0  0
   -2.3812    0.1632   -1.3490 H   0  0  0  0  0  0  0  0  0  0  0  0
   -1.5957    0.7444   -2.8235 H   0  0  0  0  0  0  0  0  0  0  0  0
   -1.6125    1.7586   -1.3716 H   0  0  0  0  0  0  0  0  0  0  0  0
  1  2  1  0
  1  6  1  0
  1  7  1  0
  1 27  1  0
  2  3  1  0
  2  8  1  0
  2  9  1  0
  3  4  1  0
  4  5  1  0
  4 10  1  0
  4 11  1  0
  5  6  1  0
  6 12  1  0
  6 13  1  0
 14 15  1  0
 14 20  1  0
 14 21  1  0
 14 22  1  0
 15 16  1  0
 15 23  1  0
 15 24  1  0
 16 17  1  0
 16 25  1  0
 16 26  1  0
 17 18  1  0
 18 19  1  0
 18 28  1  0
 19 29  1  0
 19 30  1  0
 19 31  1  0
M  RAD  1  18   2
M  END
>  <reaction>  (5) 
rmg_rxn_289

>  <mol_properties>  (5) 
{"0": {"label": "*3", "atom_type": "Cs"}, "1": {"label": "*4", "atom_type": "Cs"}, "16": {"label": "*0", "atom_type": "O2s"}, "17": {"label": "*1", "atom_type": "Cs"}, "26": {"label": "*2", "atom_type": "H0"}}

>  <type>  (5) 
unop_1

>  <geom_source>  (5) 
Heuristics

$$$$

     RDKit          3D

 31 30  0  0  0  0  0  0  0  0999 V2000
   -0.6923    0.7110    1.1888 C   0  0  0  0  0  0  0  0  0  0  0  0
    0.1433   -0.4650    1.6737 C   0  0  0  0  0  0  0  0  0  0  0  0
    0.6986   -0.1835    2.9441 O   0  0  0  0  0  0  0  0  0  0  0  0
    1.4547    0.9887    2.9166 C   0  0  0  0  0  0  0  0  0  0  0  0
    0.7047    2.1121    2.5676 O   0  0  0  0  0  0  0  0  0  0  0  0
    0.1498    1.9760    1.2734 C   0  0  0  0  0  0  0  0  0  0  0  0
   -1.5728    0.8178    1.8254 H   0  0  0  0  0  0  0  0  0  0  0  0
   -0.4528   -1.3696    1.7857 H   0  0  0  0  0  0  0  0  0  0  0  0
    0.9528   -0.6729    0.9572 H   0  0  0  0  0  0  0  0  0  0  0  0
    2.2913    0.8696    2.2038 H   0  0  0  0  0  0  0  0  0  0  0  0
    1.8337    1.1527    3.9229 H   0  0  0  0  0  0  0  0  0  0  0  0
    0.9597    1.9399    0.5287 H   0  0  0  0  0  0  0  0  0  0  0  0
   -0.4416    2.8721    1.0900 H   0  0  0  0  0  0  0  0  0  0  0  0
    0.4005   -2.6705   -3.6690 C   0  0  0  0  0  0  0  0  0  0  0  0
    0.4005   -2.6705   -2.1461 C   0  0  0  0  0  0  0  0  0  0  0  0
    0.4005   -1.2775   -1.5506 C   0  0  0  0  0  0  0  0  0  0  0  0
   -0.7825   -0.6139   -1.9182 O   0  0  0  0  0  0  0  0  0  0  0  0
   -0.8532    0.7042   -1.4373 C   0  0  0  0  0  3  0  0  0  0  0  0
   -2.1565    1.3220   -1.8881 C   0  0  0  0  0  0  0  0  0  0  0  0
    1.2826   -2.1562   -4.0586 H   0  0  0  0  0  0  0  0  0  0  0  0
   -0.4822   -2.1608   -4.0551 H   0  0  0  0  0  0  0  0  0  0  0  0
    0.4060   -3.6884   -4.0617 H   0  0  0  0  0  0  0  0  0  0  0  0
    1.2821   -3.1970   -1.7698 H   0  0  0  0  0  0  0  0  0  0  0  0
   -0.4738   -3.2085   -1.7708 H   0  0  0  0  0  0  0  0  0  0  0  0
    1.2747   -0.7124   -1.9110 H   0  0  0  0  0  0  0  0  0  0  0  0
    0.4753   -1.3314   -0.4545 H   0  0  0  0  0  0  0  0  0  0  0  0
   -0.7725    0.7076   -0.1196 H   0  0  0  0  0  0  0  0  0  0  0  0
   -0.0003    1.2872   -1.8152 H   0  0  0  0  0  0  0  0  0  0  0  0
   -3.0029    0.7526   -1.5024 H   0  0  0  0  0  0  0  0  0  0  0  0
   -2.2173    1.3338   -2.9769 H   0  0  0  0  0  0  0  0  0  0  0  0
   -2.2341    2.3480   -1.5251 H   0  0  0  0  0  0  0  0  0  0  0  0
  1  2  1  0
  1  6  1  0
  1  7  1  0
  1 27  1  0
  2  3  1  0
  2  8  1  0
  2  9  1  0
  3  4  1  0
  4  5  1  0
  4 10  1  0
  4 11  1  0
  5  6  1  0
  6 12  1  0
  6 13  1  0
 14 15  1  0
 14 20  1  0
 14 21  1  0
 14 22  1  0
 15 16  1  0
 15 23  1  0
 15 24  1  0
 16 17  1  0
 16 25  1  0
 16 26  1  0
 17 18  1  0
 18 19  1  0
 18 28  1  0
 19 29  1  0
 19 30  1  0
 19 31  1  0
M  RAD  1  18   2
M  END
>  <reaction>  (6) 
rmg_rxn_289

>  <mol_properties>  (6) 
{"0": {"label": "*3", "atom_type": "Cs"}, "1": {"label": "*4", "atom_type": "Cs"}, "16": {"label": "*0", "atom_type": "O2s"}, "17": {"label": "*1", "atom_type": "Cs"}, "26": {"label": "*2", "atom_type": "H0"}}

>  <type>  (6) 
unop_2

>  <geom_source>  (6) 
Heuristics

$$$$

     RDKit          3D

 31 30  0  0  0  0  0  0  0  0999 V2000
    0.2194    0.3025    1.2210 C   0  0  0  0  0  0  0  0  0  0  0  0
    0.8680    1.5892    1.7110 C   0  0  0  0  0  0  0  0  0  0  0  0
    0.2943    1.9926    2.9396 O   0  0  0  0  0  0  0  0  0  0  0  0
   -1.0883    2.1419    2.8269 C   0  0  0  0  0  0  0  0  0  0  0  0
   -1.7361    0.9588    2.4704 O   0  0  0  0  0  0  0  0  0  0  0  0
   -1.2910    0.4899    1.2121 C   0  0  0  0  0  0  0  0  0  0  0  0
    0.4798   -0.5152    1.8959 H   0  0  0  0  0  0  0  0  0  0  0  0
    1.9353    1.4652    1.8891 H   0  0  0  0  0  0  0  0  0  0  0  0
    0.7343    2.3867    0.9640 H   0  0  0  0  0  0  0  0  0  0  0  0
   -1.3135    2.9238    2.0786 H   0  0  0  0  0  0  0  0  0  0  0  0
   -1.4629    2.4335    3.8055 H   0  0  0  0  0  0  0  0  0  0  0  0
   -1.5767    1.2100    0.4300 H   0  0  0  0  0  0  0  0  0  0  0  0
   -1.8164   -0.4451    1.0222 H   0  0  0  0  0  0  0  0  0  0  0  0
    1.3123   -3.0791   -3.6368 C   0  0  0  0  0  0  0  0  0  0  0  0
    1.3123   -3.0791   -2.1139 C   0  0  0  0  0  0  0  0  0  0  0  0
    1.3123   -1.6860   -1.5184 C   0  0  0  0  0  0  0  0  0  0  0  0
    0.1293   -1.0224   -1.8860 O   0  0  0  0  0  0  0  0  0  0  0  0
    0.0586    0.2956   -1.4051 C   0  0  0  0  0  3  0  0  0  0  0  0
   -1.2447    0.9134   -1.8559 C   0  0  0  0  0  0  0  0  0  0  0  0
    2.1944   -2.5648   -4.0264 H   0  0  0  0  0  0  0  0  0  0  0  0
    0.4296   -2.5694   -4.0229 H   0  0  0  0  0  0  0  0  0  0  0  0
    1.3178   -4.0970   -4.0295 H   0  0  0  0  0  0  0  0  0  0  0  0
    2.1938   -3.6056   -1.7376 H   0  0  0  0  0  0  0  0  0  0  0  0
    0.4379   -3.6171   -1.7386 H   0  0  0  0  0  0  0  0  0  0  0  0
    2.1865   -1.1210   -1.8788 H   0  0  0  0  0  0  0  0  0  0  0  0
    1.3871   -1.7400   -0.4223 H   0  0  0  0  0  0  0  0  0  0  0  0
    0.1393    0.2991   -0.0874 H   0  0  0  0  0  0  0  0  0  0  0  0
    0.9115    0.8786   -1.7830 H   0  0  0  0  0  0  0  0  0  0  0  0
   -2.0911    0.3440   -1.4702 H   0  0  0  0  0  0  0  0  0  0  0  0
   -1.3055    0.9253   -2.9447 H   0  0  0  0  0  0  0  0  0  0  0  0
   -1.3223    1.9394   -1.4929 H   0  0  0  0  0  0  0  0  0  0  0  0
  1  2  1  0
  1  6  1  0
  1  7  1  0
  1 27  1  0
  2  3  1  0
  2  8  1  0
  2  9  1  0
  3  4  1  0
  4  5  1  0
  4 10  1  0
  4 11  1  0
  5  6  1  0
  6 12  1  0
  6 13  1  0
 14 15  1  0
 14 20  1  0
 14 21  1  0
 14 22  1  0
 15 16  1  0
 15 23  1  0
 15 24  1  0
 16 17  1  0
 16 25  1  0
 16 26  1  0
 17 18  1  0
 18 19  1  0
 18 28  1  0
 19 29  1  0
 19 30  1  0
 19 31  1  0
M  RAD  1  18   2
M  END
>  <reaction>  (7) 
rmg_rxn_289

>  <mol_properties>  (7) 
{"0": {"label": "*3", "atom_type": "Cs"}, "1": {"label": "*4", "atom_type": "Cs"}, "16": {"label": "*0", "atom_type": "O2s"}, "17": {"label": "*1", "atom_type": "Cs"}, "26": {"label": "*2", "atom_type": "H0"}}

>  <type>  (7) 
unop_3

>  <geom_source>  (7) 
Heuristics

$$$$

     RDKit          3D

 31 30  0  0  0  0  0  0  0  0999 V2000
   -0.0501    0.8898    0.9301 C   0  0  0  0  0  0  0  0  0  0  0  0
   -1.1927    0.0867    1.5353 C   0  0  0  0  0  0  0  0  0  0  0  0
   -1.4665    0.5339    2.8492 O   0  0  0  0  0  0  0  0  0  0  0  0
   -0.3284    0.4669    3.6534 C   0  0  0  0  0  0  0  0  0  0  0  0
    0.7160    1.2650    3.1858 O   0  0  0  0  0  0  0  0  0  0  0  0
    1.1282    0.8642    1.8932 C   0  0  0  0  0  0  0  0  0  0  0  0
   -0.3723    1.9217    0.7781 H   0  0  0  0  0  0  0  0  0  0  0  0
   -2.1151    0.1991    0.9672 H   0  0  0  0  0  0  0  0  0  0  0  0
   -0.9309   -0.9823    1.5584 H   0  0  0  0  0  0  0  0  0  0  0  0
    0.0127   -0.5825    3.7204 H   0  0  0  0  0  0  0  0  0  0  0  0
   -0.6051    0.8398    4.6370 H   0  0  0  0  0  0  0  0  0  0  0  0
    1.5533   -0.1501    1.9415 H   0  0  0  0  0  0  0  0  0  0  0  0
    1.9178    1.5500    1.5892 H   0  0  0  0  0  0  0  0  0  0  0  0
    1.0428   -2.4917   -3.9277 C   0  0  0  0  0  0  0  0  0  0  0  0
    1.0428   -2.4917   -2.4048 C   0  0  0  0  0  0  0  0  0  0  0  0
    1.0428   -1.0987   -1.8092 C   0  0  0  0  0  0  0  0  0  0  0  0
   -0.1402   -0.4351   -2.1768 O   0  0  0  0  0  0  0  0  0  0  0  0
   -0.2109    0.8830   -1.6959 C   0  0  0  0  0  3  0  0  0  0  0  0
   -1.5143    1.5008   -2.1468 C   0  0  0  0  0  0  0  0  0  0  0  0
    1.9248   -1.9774   -4.3173 H   0  0  0  0  0  0  0  0  0  0  0  0
    0.1601   -1.9821   -4.3137 H   0  0  0  0  0  0  0  0  0  0  0  0
    1.0483   -3.5096   -4.3203 H   0  0  0  0  0  0  0  0  0  0  0  0
    1.9243   -3.0182   -2.0285 H   0  0  0  0  0  0  0  0  0  0  0  0
    0.1684   -3.0297   -2.0295 H   0  0  0  0  0  0  0  0  0  0  0  0
    1.9170   -0.5336   -2.1696 H   0  0  0  0  0  0  0  0  0  0  0  0
    1.1176   -1.1526   -0.7132 H   0  0  0  0  0  0  0  0  0  0  0  0
   -0.1302    0.8864   -0.3783 H   0  0  0  0  0  0  0  0  0  0  0  0
    0.6419    1.4660   -2.0738 H   0  0  0  0  0  0  0  0  0  0  0  0
   -2.3606    0.9314   -1.7611 H   0  0  0  0  0  0  0  0  0  0  0  0
   -1.5751    1.5126   -3.2356 H   0  0  0  0  0  0  0  0  0  0  0  0
   -1.5919    2.5268   -1.7837 H   0  0  0  0  0  0  0  0  0  0  0  0
  1  2  1  0
  1  6  1  0
  1  7  1  0
  1 27  1  0
  2  3  1  0
  2  8  1  0
  2  9  1  0
  3  4  1  0
  4  5  1  0
  4 10  1  0
  4 11  1  0
  5  6  1  0
  6 12  1  0
  6 13  1  0
 14 15  1  0
 14 20  1  0
 14 21  1  0
 14 22  1  0
 15 16  1  0
 15 23  1  0
 15 24  1  0
 16 17  1  0
 16 25  1  0
 16 26  1  0
 17 18  1  0
 18 19  1  0
 18 28  1  0
 19 29  1  0
 19 30  1  0
 19 31  1  0
M  RAD  1  18   2
M  END
>  <reaction>  (8) 
rmg_rxn_289

>  <mol_properties>  (8) 
{"0": {"label": "*3", "atom_type": "Cs"}, "1": {"label": "*4", "atom_type": "Cs"}, "16": {"label": "*0", "atom_type": "O2s"}, "17": {"label": "*1", "atom_type": "Cs"}, "26": {"label": "*2", "atom_type": "H0"}}

>  <type>  (8) 
unop_4

>  <geom_source>  (8) 
Heuristics

$$$$

     RDKit          3D

 31 30  0  0  0  0  0  0  0  0999 V2000
    0.1883    0.6154    1.0119 C   0  0  0  0  0  0  0  0  0  0  0  0
    0.1129    2.0387    1.5459 C   0  0  0  0  0  0  0  0  0  0  0  0
    0.0510    2.0314    2.9593 O   0  0  0  0  0  0  0  0  0  0  0  0
   -1.0257    1.2697    3.4141 C   0  0  0  0  0  0  0  0  0  0  0  0
   -0.9485   -0.0682    3.0259 O   0  0  0  0  0  0  0  0  0  0  0  0
   -0.9500   -0.1939    1.6168 C   0  0  0  0  0  0  0  0  0  0  0  0
    1.1429    0.1701    1.2990 H   0  0  0  0  0  0  0  0  0  0  0  0
    0.9907    2.6230    1.2736 H   0  0  0  0  0  0  0  0  0  0  0  0
   -0.7768    2.5458    1.1422 H   0  0  0  0  0  0  0  0  0  0  0  0
   -1.9694    1.7070    3.0393 H   0  0  0  0  0  0  0  0  0  0  0  0
   -1.0020    1.2929    4.5013 H   0  0  0  0  0  0  0  0  0  0  0  0
   -1.9145    0.1562    1.2181 H   0  0  0  0  0  0  0  0  0  0  0  0
   -0.8561   -1.2564    1.3968 H   0  0  0  0  0  0  0  0  0  0  0  0
    1.2812   -2.7662   -3.8459 C   0  0  0  0  0  0  0  0  0  0  0  0
    1.2812   -2.7662   -2.3229 C   0  0  0  0  0  0  0  0  0  0  0  0
    1.2812   -1.3731   -1.7274 C   0  0  0  0  0  0  0  0  0  0  0  0
    0.0982   -0.7095   -2.0950 O   0  0  0  0  0  0  0  0  0  0  0  0
    0.0275    0.6086   -1.6141 C   0  0  0  0  0  3  0  0  0  0  0  0
   -1.2758    1.2263   -2.0650 C   0  0  0  0  0  0  0  0  0  0  0  0
    2.1633   -2.2518   -4.2355 H   0  0  0  0  0  0  0  0  0  0  0  0
    0.3985   -2.2565   -4.2319 H   0  0  0  0  0  0  0  0  0  0  0  0
    1.2867   -3.7840   -4.2385 H   0  0  0  0  0  0  0  0  0  0  0  0
    2.1627   -3.2926   -1.9467 H   0  0  0  0  0  0  0  0  0  0  0  0
    0.4068   -3.3041   -1.9477 H   0  0  0  0  0  0  0  0  0  0  0  0
    2.1554   -0.8080   -2.0878 H   0  0  0  0  0  0  0  0  0  0  0  0
    1.3560   -1.4270   -0.6314 H   0  0  0  0  0  0  0  0  0  0  0  0
    0.1082    0.6120   -0.2964 H   0  0  0  0  0  0  0  0  0  0  0  0
    0.8804    1.1915   -1.9920 H   0  0  0  0  0  0  0  0  0  0  0  0
   -2.1222    0.6569   -1.6793 H   0  0  0  0  0  0  0  0  0  0  0  0
   -1.3366    1.2382   -3.1538 H   0  0  0  0  0  0  0  0  0  0  0  0
   -1.3534    2.2524   -1.7019 H   0  0  0  0  0  0  0  0  0  0  0  0
  1  2  1  0
  1  6  1  0
  1  7  1  0
  1 27  1  0
  2  3  1  0
  2  8  1  0
  2  9  1  0
  3  4  1  0
  4  5  1  0
  4 10  1  0
  4 11  1  0
  5  6  1  0
  6 12  1  0
  6 13  1  0
 14 15  1  0
 14 20  1  0
 14 21  1  0
 14 22  1  0
 15 16  1  0
 15 23  1  0
 15 24  1  0
 16 17  1  0
 16 25  1  0
 16 26  1  0
 17 18  1  0
 18 19  1  0
 18 28  1  0
 19 29  1  0
 19 30  1  0
 19 31  1  0
M  RAD  1  18   2
M  END
>  <reaction>  (9) 
rmg_rxn_289

>  <mol_properties>  (9) 
{"0": {"label": "*3", "atom_type": "Cs"}, "1": {"label": "*4", "atom_type": "Cs"}, "16": {"label": "*0", "atom_type": "O2s"}, "17": {"label": "*1", "atom_type": "Cs"}, "26": {"label": "*2", "atom_type": "H0"}}

>  <type>  (9) 
unop_5

>  <geom_source>  (9) 
Heuristics

$$$$

     RDKit          3D

 31 30  0  0  0  0  0  0  0  0999 V2000
   -0.0064    0.7349    0.9305 C   0  0  0  0  0  0  0  0  0  0  0  0
   -1.3931    0.6283    1.5487 C   0  0  0  0  0  0  0  0  0  0  0  0
   -1.4436    1.3410    2.7698 O   0  0  0  0  0  0  0  0  0  0  0  0
   -0.4652    0.8927    3.6575 C   0  0  0  0  0  0  0  0  0  0  0  0
    0.8308    1.0592    3.1687 O   0  0  0  0  0  0  0  0  0  0  0  0
    1.0254    0.3286    1.9730 C   0  0  0  0  0  0  0  0  0  0  0  0
    0.1755    1.7663    0.6225 H   0  0  0  0  0  0  0  0  0  0  0  0
   -2.1603    1.0555    0.9044 H   0  0  0  0  0  0  0  0  0  0  0  0
   -1.6447   -0.4280    1.7297 H   0  0  0  0  0  0  0  0  0  0  0  0
   -0.6375   -0.1754    3.8852 H   0  0  0  0  0  0  0  0  0  0  0  0
   -0.5495    1.4919    4.5614 H   0  0  0  0  0  0  0  0  0  0  0  0
    0.9440   -0.7488    2.1838 H   0  0  0  0  0  0  0  0  0  0  0  0
    2.0423    0.5347    1.6416 H   0  0  0  0  0  0  0  0  0  0  0  0
    1.0865   -2.6467   -3.9273 C   0  0  0  0  0  0  0  0  0  0  0  0
    1.0865   -2.6467   -2.4044 C   0  0  0  0  0  0  0  0  0  0  0  0
    1.0865   -1.2536   -1.8089 C   0  0  0  0  0  0  0  0  0  0  0  0
   -0.0965   -0.5900   -2.1765 O   0  0  0  0  0  0  0  0  0  0  0  0
   -0.1672    0.7281   -1.6956 C   0  0  0  0  0  3  0  0  0  0  0  0
   -1.4705    1.3458   -2.1464 C   0  0  0  0  0  0  0  0  0  0  0  0
    1.9686   -2.1323   -4.3169 H   0  0  0  0  0  0  0  0  0  0  0  0
    0.2038   -2.1370   -4.3134 H   0  0  0  0  0  0  0  0  0  0  0  0
    1.0920   -3.6645   -4.3200 H   0  0  0  0  0  0  0  0  0  0  0  0
    1.9680   -3.1731   -2.0281 H   0  0  0  0  0  0  0  0  0  0  0  0
    0.2121   -3.1846   -2.0291 H   0  0  0  0  0  0  0  0  0  0  0  0
    1.9607   -0.6885   -2.1693 H   0  0  0  0  0  0  0  0  0  0  0  0
    1.1613   -1.3075   -0.7128 H   0  0  0  0  0  0  0  0  0  0  0  0
   -0.0865    0.7315   -0.3779 H   0  0  0  0  0  0  0  0  0  0  0  0
    0.6857    1.3110   -2.0735 H   0  0  0  0  0  0  0  0  0  0  0  0
   -2.3169    0.7764   -1.7607 H   0  0  0  0  0  0  0  0  0  0  0  0
   -1.5313    1.3577   -3.2352 H   0  0  0  0  0  0  0  0  0  0  0  0
   -1.5481    2.3719   -1.7834 H   0  0  0  0  0  0  0  0  0  0  0  0
  1  2  1  0
  1  6  1  0
  1  7  1  0
  1 27  1  0
  2  3  1  0
  2  8  1  0
  2  9  1  0
  3  4  1  0
  4  5  1  0
  4 10  1  0
  4 11  1  0
  5  6  1  0
  6 12  1  0
  6 13  1  0
 14 15  1  0
 14 20  1  0
 14 21  1  0
 14 22  1  0
 15 16  1  0
 15 23  1  0
 15 24  1  0
 16 17  1  0
 16 25  1  0
 16 26  1  0
 17 18  1  0
 18 19  1  0
 18 28  1  0
 19 29  1  0
 19 30  1  0
 19 31  1  0
M  RAD  1  18   2
M  END
>  <reaction>  (10) 
rmg_rxn_289

>  <mol_properties>  (10) 
{"0": {"label": "*3", "atom_type": "Cs"}, "1": {"label": "*4", "atom_type": "Cs"}, "16": {"label": "*0", "atom_type": "O2s"}, "17": {"label": "*1", "atom_type": "Cs"}, "26": {"label": "*2", "atom_type": "H0"}}

>  <type>  (10) 
unop_6

>  <geom_source>  (10) 
Heuristics

$$$$

     RDKit          3D

 31 30  0  0  0  0  0  0  0  0999 V2000
   -0.0542    0.6564    0.9339 C   0  0  0  0  0  0  0  0  0  0  0  0
   -1.3047    1.2752    1.5419 C   0  0  0  0  0  0  0  0  0  0  0  0
   -0.9834    1.9607    2.7370 O   0  0  0  0  0  0  0  0  0  0  0  0
   -0.3499    1.1163    3.6493 C   0  0  0  0  0  0  0  0  0  0  0  0
    0.8530    0.5991    3.1676 O   0  0  0  0  0  0  0  0  0  0  0  0
    0.6480   -0.1727    1.9998 C   0  0  0  0  0  0  0  0  0  0  0  0
    0.6139    1.4493    0.5922 H   0  0  0  0  0  0  0  0  0  0  0  0
   -1.7635    2.0046    0.8758 H   0  0  0  0  0  0  0  0  0  0  0  0
   -2.0468    0.4910    1.7568 H   0  0  0  0  0  0  0  0  0  0  0  0
   -1.0286    0.2841    3.9120 H   0  0  0  0  0  0  0  0  0  0  0  0
   -0.1171    1.7092    4.5310 H   0  0  0  0  0  0  0  0  0  0  0  0
    0.0432   -1.0588    2.2469 H   0  0  0  0  0  0  0  0  0  0  0  0
    1.6297   -0.5113    1.6715 H   0  0  0  0  0  0  0  0  0  0  0  0
    1.0387   -2.7252   -3.9239 C   0  0  0  0  0  0  0  0  0  0  0  0
    1.0387   -2.7252   -2.4010 C   0  0  0  0  0  0  0  0  0  0  0  0
    1.0387   -1.3321   -1.8055 C   0  0  0  0  0  0  0  0  0  0  0  0
   -0.1443   -0.6685   -2.1731 O   0  0  0  0  0  0  0  0  0  0  0  0
   -0.2150    0.6495   -1.6922 C   0  0  0  0  0  3  0  0  0  0  0  0
   -1.5183    1.2673   -2.1430 C   0  0  0  0  0  0  0  0  0  0  0  0
    1.9208   -2.2109   -4.3135 H   0  0  0  0  0  0  0  0  0  0  0  0
    0.1560   -2.2155   -4.3100 H   0  0  0  0  0  0  0  0  0  0  0  0
    1.0442   -3.7431   -4.3166 H   0  0  0  0  0  0  0  0  0  0  0  0
    1.9202   -3.2517   -2.0247 H   0  0  0  0  0  0  0  0  0  0  0  0
    0.1643   -3.2632   -2.0257 H   0  0  0  0  0  0  0  0  0  0  0  0
    1.9129   -0.7671   -2.1659 H   0  0  0  0  0  0  0  0  0  0  0  0
    1.1135   -1.3861   -0.7094 H   0  0  0  0  0  0  0  0  0  0  0  0
   -0.1343    0.6530   -0.3745 H   0  0  0  0  0  0  0  0  0  0  0  0
    0.6379    1.2325   -2.0701 H   0  0  0  0  0  0  0  0  0  0  0  0
   -2.3647    0.6979   -1.7573 H   0  0  0  0  0  0  0  0  0  0  0  0
   -1.5791    1.2792   -3.2318 H   0  0  0  0  0  0  0  0  0  0  0  0
   -1.5959    2.2933   -1.7800 H   0  0  0  0  0  0  0  0  0  0  0  0
  1  2  1  0
  1  6  1  0
  1  7  1  0
  1 27  1  0
  2  3  1  0
  2  8  1  0
  2  9  1  0
  3  4  1  0
  4  5  1  0
  4 10  1  0
  4 11  1  0
  5  6  1  0
  6 12  1  0
  6 13  1  0
 14 15  1  0
 14 20  1  0
 14 21  1  0
 14 22  1  0
 15 16  1  0
 15 23  1  0
 15 24  1  0
 16 17  1  0
 16 25  1  0
 16 26  1  0
 17 18  1  0
 18 19  1  0
 18 28  1  0
 19 29  1  0
 19 30  1  0
 19 31  1  0
M  RAD  1  18   2
M  END
>  <reaction>  (11) 
rmg_rxn_289

>  <mol_properties>  (11) 
{"0": {"label": "*3", "atom_type": "Cs"}, "1": {"label": "*4", "atom_type": "Cs"}, "16": {"label": "*0", "atom_type": "O2s"}, "17": {"label": "*1", "atom_type": "Cs"}, "26": {"label": "*2", "atom_type": "H0"}}

>  <type>  (11) 
unop_7

>  <geom_source>  (11) 
Heuristics

$$$$

     RDKit          3D

 31 30  0  0  0  0  0  0  0  0999 V2000
   -0.4113    0.1737    1.3603 C   0  0  0  0  0  0  0  0  0  0  0  0
    1.0405    0.2830    1.8042 C   0  0  0  0  0  0  0  0  0  0  0  0
    1.1683    1.2408    2.8375 O   0  0  0  0  0  0  0  0  0  0  0  0
    0.6730    2.4828    2.4396 C   0  0  0  0  0  0  0  0  0  0  0  0
   -0.6830    2.4487    2.1129 O   0  0  0  0  0  0  0  0  0  0  0  0
   -0.9281    1.5675    1.0336 C   0  0  0  0  0  0  0  0  0  0  0  0
   -1.0069   -0.2540    2.1691 H   0  0  0  0  0  0  0  0  0  0  0  0
    1.4171   -0.6587    2.2012 H   0  0  0  0  0  0  0  0  0  0  0  0
    1.6738    0.5752    0.9525 H   0  0  0  0  0  0  0  0  0  0  0  0
    1.2511    2.8476    1.5707 H   0  0  0  0  0  0  0  0  0  0  0  0
    0.7856    3.1611    3.2824 H   0  0  0  0  0  0  0  0  0  0  0  0
   -0.4332    1.9501    0.1278 H   0  0  0  0  0  0  0  0  0  0  0  0
   -2.0036    1.5733    0.8622 H   0  0  0  0  0  0  0  0  0  0  0  0
    0.6816   -3.2079   -3.4975 C   0  0  0  0  0  0  0  0  0  0  0  0
    0.6816   -3.2079   -1.9746 C   0  0  0  0  0  0  0  0  0  0  0  0
    0.6816   -1.8148   -1.3790 C   0  0  0  0  0  0  0  0  0  0  0  0
   -0.5014   -1.1512   -1.7466 O   0  0  0  0  0  0  0  0  0  0  0  0
   -0.5721    0.1669   -1.2657 C   0  0  0  0  0  3  0  0  0  0  0  0
   -1.8754    0.7846   -1.7166 C   0  0  0  0  0  0  0  0  0  0  0  0
    1.5637   -2.6935   -3.8871 H   0  0  0  0  0  0  0  0  0  0  0  0
   -0.2011   -2.6982   -3.8835 H   0  0  0  0  0  0  0  0  0  0  0  0
    0.6871   -4.2257   -3.8901 H   0  0  0  0  0  0  0  0  0  0  0  0
    1.5631   -3.7343   -1.5983 H   0  0  0  0  0  0  0  0  0  0  0  0
   -0.1928   -3.7458   -1.5993 H   0  0  0  0  0  0  0  0  0  0  0  0
    1.5558   -1.2497   -1.7394 H   0  0  0  0  0  0  0  0  0  0  0  0
    0.7564   -1.8687   -0.2830 H   0  0  0  0  0  0  0  0  0  0  0  0
   -0.4914    0.1703    0.0520 H   0  0  0  0  0  0  0  0  0  0  0  0
    0.2808    0.7498   -1.6436 H   0  0  0  0  0  0  0  0  0  0  0  0
   -2.7218    0.2152   -1.3309 H   0  0  0  0  0  0  0  0  0  0  0  0
   -1.9362    0.7965   -2.8054 H   0  0  0  0  0  0  0  0  0  0  0  0
   -1.9530    1.8107   -1.3535 H   0  0  0  0  0  0  0  0  0  0  0  0
  1  2  1  0
  1  6  1  0
  1  7  1  0
  1 27  1  0
  2  3  1  0
  2  8  1  0
  2  9  1  0
  3  4  1  0
  4  5  1  0
  4 10  1  0
  4 11  1  0
  5  6  1  0
  6 12  1  0
  6 13  1  0
 14 15  1  0
 14 20  1  0
 14 21  1  0
 14 22  1  0
 15 16  1  0
 15 23  1  0
 15 24  1  0
 16 17  1  0
 16 25  1  0
 16 26  1  0
 17 18  1  0
 18 19  1  0
 18 28  1  0
 19 29  1  0
 19 30  1  0
 19 31  1  0
M  RAD  1  18   2
M  END
>  <reaction>  (12) 
rmg_rxn_289

>  <mol_properties>  (12) 
{"0": {"label": "*3", "atom_type": "Cs"}, "1": {"label": "*4", "atom_type": "Cs"}, "16": {"label": "*0", "atom_type": "O2s"}, "17": {"label": "*1", "atom_type": "Cs"}, "26": {"label": "*2", "atom_type": "H0"}}

>  <type>  (12) 
unop_8

>  <geom_source>  (12) 
Heuristics

$$$$

     RDKit          3D

 31 30  0  0  0  0  0  0  0  0999 V2000
   -0.2447    1.0059    0.9621 C   0  0  0  0  0  0  0  0  0  0  0  0
   -0.8283   -0.2781    1.5343 C   0  0  0  0  0  0  0  0  0  0  0  0
   -0.9875   -0.1647    2.9354 O   0  0  0  0  0  0  0  0  0  0  0  0
    0.2198    0.1554    3.5570 C   0  0  0  0  0  0  0  0  0  0  0  0
    0.7451    1.3753    3.1300 O   0  0  0  0  0  0  0  0  0  0  0  0
    1.0140    1.3595    1.7412 C   0  0  0  0  0  0  0  0  0  0  0  0
   -0.9732    1.8126    1.0638 H   0  0  0  0  0  0  0  0  0  0  0  0
   -1.8131   -0.4964    1.1235 H   0  0  0  0  0  0  0  0  0  0  0  0
   -0.1651   -1.1271    1.3078 H   0  0  0  0  0  0  0  0  0  0  0  0
    0.9551   -0.6478    3.3669 H   0  0  0  0  0  0  0  0  0  0  0  0
    0.0213    0.2441    4.6228 H   0  0  0  0  0  0  0  0  0  0  0  0
    1.8069    0.6258    1.5292 H   0  0  0  0  0  0  0  0  0  0  0  0
    1.3883    2.3492    1.4831 H   0  0  0  0  0  0  0  0  0  0  0  0
    0.8481   -2.3757   -3.8956 C   0  0  0  0  0  0  0  0  0  0  0  0
    0.8481   -2.3757   -2.3727 C   0  0  0  0  0  0  0  0  0  0  0  0
    0.8481   -0.9826   -1.7772 C   0  0  0  0  0  0  0  0  0  0  0  0
   -0.3349   -0.3190   -2.1448 O   0  0  0  0  0  0  0  0  0  0  0  0
   -0.4056    0.9990   -1.6639 C   0  0  0  0  0  3  0  0  0  0  0  0
   -1.7089    1.6168   -2.1147 C   0  0  0  0  0  0  0  0  0  0  0  0
    1.7302   -1.8613   -4.2853 H   0  0  0  0  0  0  0  0  0  0  0  0
   -0.0346   -1.8660   -4.2817 H   0  0  0  0  0  0  0  0  0  0  0  0
    0.8536   -3.3935   -4.2883 H   0  0  0  0  0  0  0  0  0  0  0  0
    1.7297   -2.9021   -1.9965 H   0  0  0  0  0  0  0  0  0  0  0  0
   -0.0262   -2.9136   -1.9975 H   0  0  0  0  0  0  0  0  0  0  0  0
    1.7223   -0.4175   -2.1376 H   0  0  0  0  0  0  0  0  0  0  0  0
    0.9229   -1.0365   -0.6812 H   0  0  0  0  0  0  0  0  0  0  0  0
   -0.3249    1.0025   -0.3462 H   0  0  0  0  0  0  0  0  0  0  0  0
    0.4473    1.5820   -2.0418 H   0  0  0  0  0  0  0  0  0  0  0  0
   -2.5553    1.0474   -1.7291 H   0  0  0  0  0  0  0  0  0  0  0  0
   -1.7697    1.6287   -3.2036 H   0  0  0  0  0  0  0  0  0  0  0  0
   -1.7865    2.6429   -1.7517 H   0  0  0  0  0  0  0  0  0  0  0  0
  1  2  1  0
  1  6  1  0
  1  7  1  0
  1 27  1  0
  2  3  1  0
  2  8  1  0
  2  9  1  0
  3  4  1  0
  4  5  1  0
  4 10  1  0
  4 11  1  0
  5  6  1  0
  6 12  1  0
  6 13  1  0
 14 15  1  0
 14 20  1  0
 14 21  1  0
 14 22  1  0
 15 16  1  0
 15 23  1  0
 15 24  1  0
 16 17  1  0
 16 25  1  0
 16 26  1  0
 17 18  1  0
 18 19  1  0
 18 28  1  0
 19 29  1  0
 19 30  1  0
 19 31  1  0
M  RAD  1  18   2
M  END
>  <reaction>  (13) 
rmg_rxn_289

>  <mol_properties>  (13) 
{"0": {"label": "*3", "atom_type": "Cs"}, "1": {"label": "*4", "atom_type": "Cs"}, "16": {"label": "*0", "atom_type": "O2s"}, "17": {"label": "*1", "atom_type": "Cs"}, "26": {"label": "*2", "atom_type": "H0"}}

>  <type>  (13) 
unop_9

>  <geom_source>  (13) 
Heuristics

$$$$

     RDKit          3D

 31 30  0  0  0  0  0  0  0  0999 V2000
   -0.6491    0.4030    1.3038 C   0  0  0  0  0  0  0  0  0  0  0  0
    0.6665   -0.2131    1.7579 C   0  0  0  0  0  0  0  0  0  0  0  0
    1.1771    0.4862    2.8767 O   0  0  0  0  0  0  0  0  0  0  0  0
    1.3321    1.8441    2.5963 C   0  0  0  0  0  0  0  0  0  0  0  0
    0.1309    2.4722    2.2660 O   0  0  0  0  0  0  0  0  0  0  0  0
   -0.4460    1.8987    1.1086 C   0  0  0  0  0  0  0  0  0  0  0  0
   -1.4108    0.2368    2.0681 H   0  0  0  0  0  0  0  0  0  0  0  0
    0.5456   -1.2509    2.0654 H   0  0  0  0  0  0  0  0  0  0  0  0
    1.4006   -0.1803    0.9383 H   0  0  0  0  0  0  0  0  0  0  0  0
    2.0517    1.9680    1.7662 H   0  0  0  0  0  0  0  0  0  0  0  0
    1.7083    2.3199    3.4991 H   0  0  0  0  0  0  0  0  0  0  0  0
    0.2098    2.0801    0.2432 H   0  0  0  0  0  0  0  0  0  0  0  0
   -1.3875    2.4187    0.9370 H   0  0  0  0  0  0  0  0  0  0  0  0
    0.4437   -2.9786   -3.5540 C   0  0  0  0  0  0  0  0  0  0  0  0
    0.4437   -2.9786   -2.0311 C   0  0  0  0  0  0  0  0  0  0  0  0
    0.4437   -1.5855   -1.4355 C   0  0  0  0  0  0  0  0  0  0  0  0
   -0.7393   -0.9219   -1.8031 O   0  0  0  0  0  0  0  0  0  0  0  0
   -0.8100    0.3962   -1.3222 C   0  0  0  0  0  3  0  0  0  0  0  0
   -2.1133    1.0139   -1.7731 C   0  0  0  0  0  0  0  0  0  0  0  0
    1.3258   -2.4642   -3.9436 H   0  0  0  0  0  0  0  0  0  0  0  0
   -0.4390   -2.4689   -3.9400 H   0  0  0  0  0  0  0  0  0  0  0  0
    0.4492   -3.9964   -3.9466 H   0  0  0  0  0  0  0  0  0  0  0  0
    1.3253   -3.5050   -1.6548 H   0  0  0  0  0  0  0  0  0  0  0  0
   -0.4306   -3.5165   -1.6558 H   0  0  0  0  0  0  0  0  0  0  0  0
    1.3179   -1.0204   -1.7959 H   0  0  0  0  0  0  0  0  0  0  0  0
    0.5185   -1.6394   -0.3395 H   0  0  0  0  0  0  0  0  0  0  0  0
   -0.7293    0.3996   -0.0045 H   0  0  0  0  0  0  0  0  0  0  0  0
    0.0429    0.9791   -1.7001 H   0  0  0  0  0  0  0  0  0  0  0  0
   -2.9597    0.4445   -1.3874 H   0  0  0  0  0  0  0  0  0  0  0  0
   -2.1741    1.0258   -2.8619 H   0  0  0  0  0  0  0  0  0  0  0  0
   -2.1909    2.0400   -1.4100 H   0  0  0  0  0  0  0  0  0  0  0  0
  1  2  1  0
  1  6  1  0
  1  7  1  0
  1 27  1  0
  2  3  1  0
  2  8  1  0
  2  9  1  0
  3  4  1  0
  4  5  1  0
  4 10  1  0
  4 11  1  0
  5  6  1  0
  6 12  1  0
  6 13  1  0
 14 15  1  0
 14 20  1  0
 14 21  1  0
 14 22  1  0
 15 16  1  0
 15 23  1  0
 15 24  1  0
 16 17  1  0
 16 25  1  0
 16 26  1  0
 17 18  1  0
 18 19  1  0
 18 28  1  0
 19 29  1  0
 19 30  1  0
 19 31  1  0
M  RAD  1  18   2
M  END
>  <reaction>  (14) 
rmg_rxn_289

>  <mol_properties>  (14) 
{"0": {"label": "*3", "atom_type": "Cs"}, "1": {"label": "*4", "atom_type": "Cs"}, "16": {"label": "*0", "atom_type": "O2s"}, "17": {"label": "*1", "atom_type": "Cs"}, "26": {"label": "*2", "atom_type": "H0"}}

>  <type>  (14) 
unop_10

>  <geom_source>  (14) 
Heuristics

$$$$

     RDKit          3D

 31 30  0  0  0  0  0  0  0  0999 V2000
   -0.0359    0.6824    0.9318 C   0  0  0  0  0  0  0  0  0  0  0  0
   -0.8065    1.8612    1.5090 C   0  0  0  0  0  0  0  0  0  0  0  0
   -0.3343    2.1699    2.8063 O   0  0  0  0  0  0  0  0  0  0  0  0
   -0.4123    1.0613    3.6497 C   0  0  0  0  0  0  0  0  0  0  0  0
    0.3573   -0.0148    3.2067 O   0  0  0  0  0  0  0  0  0  0  0  0
   -0.0710   -0.4620    1.9347 C   0  0  0  0  0  0  0  0  0  0  0  0
    1.0000    0.9778    0.7542 H   0  0  0  0  0  0  0  0  0  0  0  0
   -0.6839    2.7614    0.9083 H   0  0  0  0  0  0  0  0  0  0  0  0
   -1.8801    1.6226    1.5562 H   0  0  0  0  0  0  0  0  0  0  0  0
   -1.4673    0.7444    3.7432 H   0  0  0  0  0  0  0  0  0  0  0  0
   -0.0193    1.3631    4.6179 H   0  0  0  0  0  0  0  0  0  0  0  0
   -1.0929   -0.8640    2.0119 H   0  0  0  0  0  0  0  0  0  0  0  0
    0.5941   -1.2754    1.6480 H   0  0  0  0  0  0  0  0  0  0  0  0
    1.0570   -2.6992   -3.9260 C   0  0  0  0  0  0  0  0  0  0  0  0
    1.0570   -2.6992   -2.4031 C   0  0  0  0  0  0  0  0  0  0  0  0
    1.0570   -1.3061   -1.8076 C   0  0  0  0  0  0  0  0  0  0  0  0
   -0.1260   -0.6425   -2.1752 O   0  0  0  0  0  0  0  0  0  0  0  0
   -0.1967    0.6755   -1.6943 C   0  0  0  0  0  3  0  0  0  0  0  0
   -1.5000    1.2933   -2.1451 C   0  0  0  0  0  0  0  0  0  0  0  0
    1.9391   -2.1849   -4.3156 H   0  0  0  0  0  0  0  0  0  0  0  0
    0.1743   -2.1895   -4.3121 H   0  0  0  0  0  0  0  0  0  0  0  0
    1.0625   -3.7171   -4.3187 H   0  0  0  0  0  0  0  0  0  0  0  0
    1.9385   -3.2257   -2.0268 H   0  0  0  0  0  0  0  0  0  0  0  0
    0.1826   -3.2372   -2.0278 H   0  0  0  0  0  0  0  0  0  0  0  0
    1.9312   -0.7411   -2.1680 H   0  0  0  0  0  0  0  0  0  0  0  0
    1.1318   -1.3601   -0.7115 H   0  0  0  0  0  0  0  0  0  0  0  0
   -0.1160    0.6790   -0.3766 H   0  0  0  0  0  0  0  0  0  0  0  0
    0.6562    1.2585   -2.0722 H   0  0  0  0  0  0  0  0  0  0  0  0
   -2.3464    0.7239   -1.7594 H   0  0  0  0  0  0  0  0  0  0  0  0
   -1.5608    1.3052   -3.2340 H   0  0  0  0  0  0  0  0  0  0  0  0
   -1.5776    2.3193   -1.7821 H   0  0  0  0  0  0  0  0  0  0  0  0
  1  2  1  0
  1  6  1  0
  1  7  1  0
  1 27  1  0
  2  3  1  0
  2  8  1  0
  2  9  1  0
  3  4  1  0
  4  5  1  0
  4 10  1  0
  4 11  1  0
  5  6  1  0
  6 12  1  0
  6 13  1  0
 14 15  1  0
 14 20  1  0
 14 21  1  0
 14 22  1  0
 15 16  1  0
 15 23  1  0
 15 24  1  0
 16 17  1  0
 16 25  1  0
 16 26  1  0
 17 18  1  0
 18 19  1  0
 18 28  1  0
 19 29  1  0
 19 30  1  0
 19 31  1  0
M  RAD  1  18   2
M  END
>  <reaction>  (15) 
rmg_rxn_289

>  <mol_properties>  (15) 
{"0": {"label": "*3", "atom_type": "Cs"}, "1": {"label": "*4", "atom_type": "Cs"}, "16": {"label": "*0", "atom_type": "O2s"}, "17": {"label": "*1", "atom_type": "Cs"}, "26": {"label": "*2", "atom_type": "H0"}}

>  <type>  (15) 
unop_11

>  <geom_source>  (15) 
Heuristics

$$$$

     RDKit          3D

 31 30  0  0  0  0  0  0  0  0999 V2000
   -0.5190    0.9535    1.0544 C   0  0  0  0  0  0  0  0  0  0  0  0
   -0.3785   -0.4670    1.5825 C   0  0  0  0  0  0  0  0  0  0  0  0
   -0.1446   -0.4524    2.9777 O   0  0  0  0  0  0  0  0  0  0  0  0
    0.9794    0.3113    3.2938 C   0  0  0  0  0  0  0  0  0  0  0  0
    0.8549    1.6471    2.9110 O   0  0  0  0  0  0  0  0  0  0  0  0
    0.6844    1.7655    1.5116 C   0  0  0  0  0  0  0  0  0  0  0  0
   -1.4315    1.4006    1.4535 H   0  0  0  0  0  0  0  0  0  0  0  0
   -1.2828   -1.0525    1.4224 H   0  0  0  0  0  0  0  0  0  0  0  0
    0.4555   -0.9766    1.0759 H   0  0  0  0  0  0  0  0  0  0  0  0
    1.8703   -0.1283    2.8089 H   0  0  0  0  0  0  0  0  0  0  0  0
    1.0885    0.2937    4.3759 H   0  0  0  0  0  0  0  0  0  0  0  0
    1.5931    1.4131    1.0000 H   0  0  0  0  0  0  0  0  0  0  0  0
    0.5641    2.8269    1.2992 H   0  0  0  0  0  0  0  0  0  0  0  0
    0.5739   -2.4281   -3.8034 C   0  0  0  0  0  0  0  0  0  0  0  0
    0.5739   -2.4281   -2.2805 C   0  0  0  0  0  0  0  0  0  0  0  0
    0.5739   -1.0350   -1.6850 C   0  0  0  0  0  0  0  0  0  0  0  0
   -0.6091   -0.3714   -2.0526 O   0  0  0  0  0  0  0  0  0  0  0  0
   -0.6798    0.9466   -1.5717 C   0  0  0  0  0  3  0  0  0  0  0  0
   -1.9831    1.5644   -2.0225 C   0  0  0  0  0  0  0  0  0  0  0  0
    1.4560   -1.9137   -4.1930 H   0  0  0  0  0  0  0  0  0  0  0  0
   -0.3088   -1.9184   -4.1895 H   0  0  0  0  0  0  0  0  0  0  0  0
    0.5794   -3.4459   -4.1961 H   0  0  0  0  0  0  0  0  0  0  0  0
    1.4554   -2.9545   -1.9042 H   0  0  0  0  0  0  0  0  0  0  0  0
   -0.3005   -2.9660   -1.9052 H   0  0  0  0  0  0  0  0  0  0  0  0
    1.4481   -0.4699   -2.0454 H   0  0  0  0  0  0  0  0  0  0  0  0
    0.6487   -1.0889   -0.5889 H   0  0  0  0  0  0  0  0  0  0  0  0
   -0.5991    0.9501   -0.2540 H   0  0  0  0  0  0  0  0  0  0  0  0
    0.1731    1.5296   -1.9496 H   0  0  0  0  0  0  0  0  0  0  0  0
   -2.8295    0.9950   -1.6368 H   0  0  0  0  0  0  0  0  0  0  0  0
   -2.0439    1.5763   -3.1113 H   0  0  0  0  0  0  0  0  0  0  0  0
   -2.0607    2.5905   -1.6595 H   0  0  0  0  0  0  0  0  0  0  0  0
  1  2  1  0
  1  6  1  0
  1  7  1  0
  1 27  1  0
  2  3  1  0
  2  8  1  0
  2  9  1  0
  3  4  1  0
  4  5  1  0
  4 10  1  0
  4 11  1  0
  5  6  1  0
  6 12  1  0
  6 13  1  0
 14 15  1  0
 14 20  1  0
 14 21  1  0
 14 22  1  0
 15 16  1  0
 15 23  1  0
 15 24  1  0
 16 17  1  0
 16 25  1  0
 16 26  1  0
 17 18  1  0
 18 19  1  0
 18 28  1  0
 19 29  1  0
 19 30  1  0
 19 31  1  0
M  RAD  1  18   2
M  END
>  <reaction>  (16) 
rmg_rxn_289

>  <mol_properties>  (16) 
{"0": {"label": "*3", "atom_type": "Cs"}, "1": {"label": "*4", "atom_type": "Cs"}, "16": {"label": "*0", "atom_type": "O2s"}, "17": {"label": "*1", "atom_type": "Cs"}, "26": {"label": "*2", "atom_type": "H0"}}

>  <type>  (16) 
unop_12

>  <geom_source>  (16) 
Heuristics

$$$$

     RDKit          3D

 31 28  0  0  0  0  0  0  0  0999 V2000
   -3.1845   -1.0351   -0.1960 O   0  0  0  0  0  0  0  0  0  0  0  0
   -3.0988    1.3076    0.3103 O   0  0  0  0  0  3  0  0  0  0  0  0
    1.5581   -0.1296   -0.6802 O   0  0  0  0  0  0  0  0  0  0  0  0
   -1.1130    0.1664   -0.4303 C   0  0  0  0  0  2  0  0  0  0  0  0
    2.7892    0.7273    1.2419 C   0  0  0  0  0  0  0  0  0  0  0  0
   -2.1802   -0.6819   -1.1214 C   0  0  0  0  0  3  0  0  0  0  0  0
   -1.7733    0.9907    0.6748 C   0  0  0  0  0  0  0  0  0  0  0  0
    1.5738    0.8720    0.3146 C   0  0  0  0  0  0  0  0  0  0  0  0
    4.1063    0.8267    0.4754 C   0  0  0  0  0  0  0  0  0  0  0  0
   -3.8897    0.1247    0.2372 C   0  0  0  0  0  0  0  0  0  0  0  0
   -0.1502   -1.7760   -1.0116 C   0  0  0  0  0  0  0  0  0  0  0  0
    0.9882   -1.2901   -0.1309 C   0  0  0  0  0  3  0  0  0  0  0  0
   -0.6300    0.8348   -1.1759 H   0  0  0  0  0  0  0  0  0  0  0  0
   -0.1944   -0.6098    0.0992 H   0  0  0  0  0  0  0  0  0  0  0  0
    2.7455   -0.2466    1.7751 H   0  0  0  0  0  0  0  0  0  0  0  0
    2.7566    1.5346    2.0051 H   0  0  0  0  0  0  0  0  0  0  0  0
   -1.7099   -1.6063   -1.5167 H   0  0  0  0  0  0  0  0  0  0  0  0
   -2.6194   -0.1336   -1.9869 H   0  0  0  0  0  0  0  0  0  0  0  0
   -1.2027    1.9313    0.8246 H   0  0  0  0  0  0  0  0  0  0  0  0
   -1.7539    0.4326    1.6390 H   0  0  0  0  0  0  0  0  0  0  0  0
    0.6329    0.8913    0.9157 H   0  0  0  0  0  0  0  0  0  0  0  0
    1.6301    1.8593   -0.1917 H   0  0  0  0  0  0  0  0  0  0  0  0
    4.1714    1.7998   -0.0563 H   0  0  0  0  0  0  0  0  0  0  0  0
    4.9556    0.7536    1.1868 H   0  0  0  0  0  0  0  0  0  0  0  0
    4.1907   -0.0009   -0.2604 H   0  0  0  0  0  0  0  0  0  0  0  0
   -4.7382    0.3084   -0.4554 H   0  0  0  0  0  0  0  0  0  0  0  0
   -4.3245   -0.0788    1.2387 H   0  0  0  0  0  0  0  0  0  0  0  0
    0.2286   -2.0149   -2.0279 H   0  0  0  0  0  0  0  0  0  0  0  0
   -0.9302   -0.9894   -1.0841 H   0  0  0  0  0  0  0  0  0  0  0  0
   -0.5990   -2.6880   -0.5661 H   0  0  0  0  0  0  0  0  0  0  0  0
    1.7647   -2.0800   -0.0463 H   0  0  0  0  0  0  0  0  0  0  0  0
  1  6  1  0
  1 10  1  0
  2  7  2  3
  2 10  1  0
  3 12  1  0
  3  8  1  0
  4 13  1  0
  4 14  1  0
  5  9  1  0
  5  8  1  0
  5 15  1  0
  5 16  1  0
  6 17  1  0
  6 18  1  0
  7 19  1  0
  7 20  1  0
  8 21  1  0
  8 22  1  0
  9 23  1  0
  9 24  1  0
  9 25  1  0
 10 26  1  0
 10 27  1  0
 11 12  1  0
 11 28  1  0
 11 29  1  0
 11 30  1  0
 12 31  1  0
M  CHG  2   2   1   6  -1
M  RAD  2   4   3  12   2
M  END
>  <reaction>  (17) 
rmg_rxn_289

>  <mol_properties>  (17) 
{"0": {"label": "*3", "atom_type": "Cs"}, "1": {"label": "*4", "atom_type": "Cs"}, "16": {"label": "*0", "atom_type": "O2s"}, "17": {"label": "*1", "atom_type": "Cs"}, "26": {"label": "*2", "atom_type": "H0"}}

>  <type>  (17) 
unop_13

>  <geom_source>  (17) 
AutoTST

$$$$

     RDKit          3D

 31 30  0  0  0  0  0  0  0  0999 V2000
   -0.6923    0.7110    1.1888 C   0  0  0  0  0  0  0  0  0  0  0  0
    0.1433   -0.4650    1.6737 C   0  0  0  0  0  0  0  0  0  0  0  0
    0.6986   -0.1835    2.9441 O   0  0  0  0  0  0  0  0  0  0  0  0
    1.4547    0.9887    2.9166 C   0  0  0  0  0  0  0  0  0  0  0  0
    0.7047    2.1121    2.5676 O   0  0  0  0  0  0  0  0  0  0  0  0
    0.1498    1.9760    1.2734 C   0  0  0  0  0  0  0  0  0  0  0  0
   -1.5728    0.8178    1.8254 H   0  0  0  0  0  0  0  0  0  0  0  0
   -0.4528   -1.3696    1.7856 H   0  0  0  0  0  0  0  0  0  0  0  0
    0.9528   -0.6729    0.9572 H   0  0  0  0  0  0  0  0  0  0  0  0
    2.2912    0.8696    2.2038 H   0  0  0  0  0  0  0  0  0  0  0  0
    1.8337    1.1527    3.9229 H   0  0  0  0  0  0  0  0  0  0  0  0
    0.9597    1.9399    0.5287 H   0  0  0  0  0  0  0  0  0  0  0  0
   -0.4416    2.8721    1.0900 H   0  0  0  0  0  0  0  0  0  0  0  0
    0.4005   -2.6705   -3.6690 C   0  0  0  0  0  0  0  0  0  0  0  0
    0.4005   -2.6705   -2.1461 C   0  0  0  0  0  0  0  0  0  0  0  0
    0.4005   -1.2775   -1.5506 C   0  0  0  0  0  0  0  0  0  0  0  0
   -0.7825   -0.6139   -1.9182 O   0  0  0  0  0  0  0  0  0  0  0  0
   -0.8532    0.7042   -1.4373 C   0  0  0  0  0  3  0  0  0  0  0  0
   -2.1565    1.3220   -1.8881 C   0  0  0  0  0  0  0  0  0  0  0  0
    1.2826   -2.1562   -4.0586 H   0  0  0  0  0  0  0  0  0  0  0  0
   -0.4822   -2.1608   -4.0551 H   0  0  0  0  0  0  0  0  0  0  0  0
    0.4060   -3.6884   -4.0617 H   0  0  0  0  0  0  0  0  0  0  0  0
    1.2821   -3.1970   -1.7698 H   0  0  0  0  0  0  0  0  0  0  0  0
   -0.4738   -3.2085   -1.7708 H   0  0  0  0  0  0  0  0  0  0  0  0
    1.2747   -0.7124   -1.9110 H   0  0  0  0  0  0  0  0  0  0  0  0
    0.4753   -1.3314   -0.4545 H   0  0  0  0  0  0  0  0  0  0  0  0
   -0.7725    0.7076   -0.1196 H   0  0  0  0  0  0  0  0  0  0  0  0
   -0.0003    1.2872   -1.8152 H   0  0  0  0  0  0  0  0  0  0  0  0
   -3.0029    0.7526   -1.5024 H   0  0  0  0  0  0  0  0  0  0  0  0
   -2.2173    1.3338   -2.9769 H   0  0  0  0  0  0  0  0  0  0  0  0
   -2.2341    2.3480   -1.5251 H   0  0  0  0  0  0  0  0  0  0  0  0
  1  2  1  0
  1  6  1  0
  1  7  1  0
  1 27  1  0
  2  3  1  0
  2  8  1  0
  2  9  1  0
  3  4  1  0
  4  5  1  0
  4 10  1  0
  4 11  1  0
  5  6  1  0
  6 12  1  0
  6 13  1  0
 14 15  1  0
 14 20  1  0
 14 21  1  0
 14 22  1  0
 15 16  1  0
 15 23  1  0
 15 24  1  0
 16 17  1  0
 16 25  1  0
 16 26  1  0
 17 18  1  0
 18 19  1  0
 18 28  1  0
 19 29  1  0
 19 30  1  0
 19 31  1  0
M  RAD  1  18   2
M  END
>  <reaction>  (18) 
rmg_rxn_289

>  <mol_properties>  (18) 
{"0": {"label": "*3", "atom_type": "Cs"}, "1": {"label": "*4", "atom_type": "Cs"}, "16": {"label": "*0", "atom_type": "O2s"}, "17": {"label": "*1", "atom_type": "Cs"}, "26": {"label": "*2", "atom_type": "H0"}}

>  <type>  (18) 
unop_14

>  <geom_source>  (18) 
gaussian_log

$$$$
