
     RDKit          3D

 21 21  0  0  0  0  0  0  0  0999 V2000
    3.6139   -0.5397    0.5515 C   0  0  0  0  0  0  0  0  0  0  0  0
    2.4070    0.0144   -0.1347 C   0  0  0  0  0  0  0  0  0  0  0  0
    1.2506    0.2815    0.4543 C   0  0  0  0  0  0  0  0  0  0  0  0
    0.0329    0.8410   -0.2403 C   0  0  0  0  0  0  0  0  0  0  0  0
   -0.3303    2.1844    0.3346 C   0  0  0  0  0  0  0  0  0  0  0  0
   -1.4891    2.4542    0.9169 C   0  0  0  0  0  0  0  0  0  0  0  0
   -2.5984    1.4582    1.0549 C   0  0  0  0  0  0  0  0  0  0  0  0
   -2.2735    0.1387    0.4267 C   0  0  0  0  0  0  0  0  0  0  0  0
   -1.1144   -0.1302   -0.1554 C   0  0  0  0  0  0  0  0  0  0  0  0
    3.9135   -1.4925    0.1073 H   0  0  0  0  0  0  0  0  0  0  0  0
    4.4659    0.1380    0.4525 H   0  0  0  0  0  0  0  0  0  0  0  0
    3.4280   -0.7016    1.6140 H   0  0  0  0  0  0  0  0  0  0  0  0
    2.5048    0.2071   -1.2014 H   0  0  0  0  0  0  0  0  0  0  0  0
    1.1320    0.0961    1.5201 H   0  0  0  0  0  0  0  0  0  0  0  0
    0.2973    0.9752   -1.2970 H   0  0  0  0  0  0  0  0  0  0  0  0
    0.4331    2.9524    0.2684 H   0  0  0  0  0  0  0  0  0  0  0  0
   -1.6674    3.4467    1.3169 H   0  0  0  0  0  0  0  0  0  0  0  0
   -2.8393    1.3154    2.1155 H   0  0  0  0  0  0  0  0  0  0  0  0
   -3.5159    1.8630    0.6112 H   0  0  0  0  0  0  0  0  0  0  0  0
   -3.0459   -0.6226    0.4555 H   0  0  0  0  0  0  0  0  0  0  0  0
   -0.9427   -1.1088   -0.5913 H   0  0  0  0  0  0  0  0  0  0  0  0
  1  2  1  0
  1 10  1  0
  1 11  1  0
  1 12  1  0
  2  3  2  3
  2 13  1  0
  3  4  1  0
  3 14  1  0
  4  5  1  0
  4  9  1  0
  4 15  1  0
  5  6  2  0
  5 16  1  0
  6  7  1  0
  6 17  1  0
  7  8  1  0
  7 18  1  0
  7 19  1  0
  8  9  2  0
  8 20  1  0
  9 21  1  0
M  END
>  <reaction>  (1) 
rmg_rxn_15724

>  <mol_properties>  (1) 
{"6": {"label": "donator", "atom_type": "Cs"}, "17": {"label": "d_hydrogen", "atom_type": "H0"}}

>  <type>  (1) 
r1h

$$$$

     RDKit          3D

  8  7  0  0  0  0  0  0  0  0999 V2000
    1.7077   -0.1964   -0.0607 C   0  0  0  0  0  3  0  0  0  0  0  0
    0.4209   -0.4565    0.2808 O   0  0  0  0  0  0  0  0  0  0  0  0
   -0.4607    0.4385   -0.2968 N   0  0  0  0  0  0  0  0  0  0  0  0
   -1.6584    0.1416   -0.0244 C   0  0  0  0  0  0  0  0  0  0  0  0
    2.4163   -0.7685    0.5170 H   0  0  0  0  0  0  0  0  0  0  0  0
    1.9214    0.7645   -0.5045 H   0  0  0  0  0  0  0  0  0  0  0  0
   -2.4185    0.7953   -0.4307 H   0  0  0  0  0  0  0  0  0  0  0  0
   -1.9286   -0.7185    0.5831 H   0  0  0  0  0  0  0  0  0  0  0  0
  1  2  1  0
  1  5  1  0
  1  6  1  0
  2  3  1  0
  3  4  2  3
  4  7  1  0
  4  8  1  0
M  RAD  1   1   2
M  END
>  <reaction>  (2) 
rmg_rxn_15724

>  <mol_properties>  (2) 
{"0": {"label": "acceptor", "atom_type": "Cs"}}

>  <type>  (2) 
r2

$$$$

     RDKit          3D

  9  8  0  0  0  0  0  0  0  0999 V2000
   -1.5470   -0.0755   -0.1976 C   0  0  0  0  0  0  0  0  0  0  0  0
   -0.2885    0.4507    0.1749 O   0  0  0  0  0  0  0  0  0  0  0  0
   -0.1502    1.7216   -0.3294 N   0  0  0  0  0  0  0  0  0  0  0  0
    0.9626    2.2353   -0.0219 C   0  0  0  0  0  0  0  0  0  0  0  0
   -1.6392   -0.1356   -1.2844 H   0  0  0  0  0  0  0  0  0  0  0  0
   -2.3597    0.5337    0.2044 H   0  0  0  0  0  0  0  0  0  0  0  0
   -1.5879   -1.0750    0.2318 H   0  0  0  0  0  0  0  0  0  0  0  0
    1.1497    3.2381   -0.3820 H   0  0  0  0  0  0  0  0  0  0  0  0
    1.7060    1.7101    0.5739 H   0  0  0  0  0  0  0  0  0  0  0  0
  1  2  1  0
  1  5  1  0
  1  6  1  0
  1  7  1  0
  2  3  1  0
  3  4  2  3
  4  8  1  0
  4  9  1  0
M  END
>  <reaction>  (3) 
rmg_rxn_15724

>  <mol_properties>  (3) 
{"0": {"label": "acceptor", "atom_type": "Cs"}, "8": {"label": "a_hydrogen", "atom_type": "H0"}}

>  <type>  (3) 
r2h

$$$$

     RDKit          3D

 29 28  0  0  0  0  0  0  0  0999 V2000
    1.2341    2.2877    0.4663 C   0  0  0  0  0  3  0  0  0  0  0  0
    0.2803    1.9908   -0.4797 O   0  0  0  0  0  0  0  0  0  0  0  0
   -0.9823    2.3653   -0.0557 N   0  0  0  0  0  0  0  0  0  0  0  0
   -1.8792    1.9037   -0.8157 C   0  0  0  0  0  0  0  0  0  0  0  0
    2.2192    2.2342    0.0134 H   0  0  0  0  0  0  0  0  0  0  0  0
    1.0116    3.1734    1.0564 H   0  0  0  0  0  0  0  0  0  0  0  0
   -2.8992    2.1653   -0.5676 H   0  0  0  0  0  0  0  0  0  0  0  0
   -1.6602    1.2692   -1.6708 H   0  0  0  0  0  0  0  0  0  0  0  0
   -0.7843   -1.6569   -3.6057 C   0  0  0  0  0  0  0  0  0  0  0  0
   -0.5600   -2.1662   -2.2174 C   0  0  0  0  0  0  0  0  0  0  0  0
   -0.0542   -1.4521   -1.2223 C   0  0  0  0  0  0  0  0  0  0  0  0
    0.1682   -1.9524    0.1868 C   0  0  0  0  0  0  0  0  0  0  0  0
   -0.7386   -1.2179    1.1394 C   0  0  0  0  0  0  0  0  0  0  0  0
   -0.3007   -0.2981    1.9952 C   0  0  0  0  0  0  0  0  0  0  0  0
    1.1187    0.0831    2.0815 C   0  0  0  0  0  0  0  0  0  0  0  0
    2.0376   -0.8697    1.4336 C   0  0  0  0  0  0  0  0  0  0  0  0
    1.6153   -1.7918    0.5719 C   0  0  0  0  0  0  0  0  0  0  0  0
   -0.2275   -2.2495   -4.3362 H   0  0  0  0  0  0  0  0  0  0  0  0
   -1.8397   -1.7231   -3.8837 H   0  0  0  0  0  0  0  0  0  0  0  0
   -0.4683   -0.6170   -3.7023 H   0  0  0  0  0  0  0  0  0  0  0  0
   -0.8379   -3.2018   -2.0314 H   0  0  0  0  0  0  0  0  0  0  0  0
    0.2327   -0.4156   -1.3852 H   0  0  0  0  0  0  0  0  0  0  0  0
   -0.0887   -3.0182    0.2002 H   0  0  0  0  0  0  0  0  0  0  0  0
   -1.7961   -1.4495    1.0772 H   0  0  0  0  0  0  0  0  0  0  0  0
   -1.0049    0.2246    2.6323 H   0  0  0  0  0  0  0  0  0  0  0  0
    1.2243    1.1686    1.4207 H   0  0  0  0  0  0  0  0  0  0  0  0
    1.4354    0.4053    3.0734 H   0  0  0  0  0  0  0  0  0  0  0  0
    3.0955   -0.7867    1.6574 H   0  0  0  0  0  0  0  0  0  0  0  0
    2.3236   -2.4570    0.0907 H   0  0  0  0  0  0  0  0  0  0  0  0
  1  2  1  0
  1  5  1  0
  1  6  1  0
  2  3  1  0
  3  4  2  3
  4  7  1  0
  4  8  1  0
  9 10  1  0
  9 18  1  0
  9 19  1  0
  9 20  1  0
 10 11  2  3
 10 21  1  0
 11 12  1  0
 11 22  1  0
 12 13  1  0
 12 17  1  0
 12 23  1  0
 13 14  2  0
 13 24  1  0
 14 15  1  0
 14 25  1  0
 15 16  1  0
 15 26  1  0
 15 27  1  0
 16 17  2  0
 16 28  1  0
 17 29  1  0
M  RAD  1   1   2
M  END
>  <reaction>  (4) 
rmg_rxn_15724

>  <mol_properties>  (4) 
{"0": {"label": "*3", "atom_type": "Cs"}, "1": {"label": "*4", "atom_type": "O2s"}, "13": {"label": "*0", "atom_type": "Cd"}, "14": {"label": "*1", "atom_type": "Cs"}, "25": {"label": "*2", "atom_type": "H0"}}

>  <type>  (4) 
ts

$$$$

     RDKit          3D

 29 28  0  0  0  0  0  0  0  0999 V2000
   -2.3145   -0.7811   -1.1378 C   0  0  0  0  0  0  0  0  0  0  0  0
   -2.0643   -1.7816   -0.1897 O   0  0  0  0  0  0  0  0  0  0  0  0
   -0.7216   -2.0830   -0.1086 N   0  0  0  0  0  0  0  0  0  0  0  0
   -0.3872   -2.9051    0.7856 C   0  0  0  0  0  0  0  0  0  0  0  0
   -1.6787   -0.8791   -2.0170 H   0  0  0  0  0  0  0  0  0  0  0  0
   -3.3711   -0.8364   -1.3838 H   0  0  0  0  0  0  0  0  0  0  0  0
    0.6588   -3.1475    0.8473 H   0  0  0  0  0  0  0  0  0  0  0  0
   -1.0804   -3.3730    1.4782 H   0  0  0  0  0  0  0  0  0  0  0  0
    3.5951   -1.3195   -0.5796 C   0  0  0  0  0  0  0  0  0  0  0  0
    2.9851   -0.0566   -0.0667 C   0  0  0  0  0  0  0  0  0  0  0  0
    1.6901    0.2043   -0.0935 C   0  0  0  0  0  0  0  0  0  0  0  0
    1.0595    1.4807    0.4280 C   0  0  0  0  0  0  0  0  0  0  0  0
    0.0653    1.1310    1.4923 C   0  0  0  0  0  3  0  0  0  0  0  0
   -1.2597    1.1731    1.2835 C   0  0  0  0  0  0  0  0  0  0  0  0
   -1.8154    1.5611    0.0130 C   0  0  0  0  0  0  0  0  0  0  0  0
   -0.9166    2.2327   -0.8889 C   0  0  0  0  0  0  0  0  0  0  0  0
    0.4135    2.2064   -0.7122 C   0  0  0  0  0  0  0  0  0  0  0  0
    2.8304   -1.9840   -0.9737 H   0  0  0  0  0  0  0  0  0  0  0  0
    4.3130   -1.0990   -1.3695 H   0  0  0  0  0  0  0  0  0  0  0  0
    4.1323   -1.8309    0.2193 H   0  0  0  0  0  0  0  0  0  0  0  0
    3.6829    0.6644    0.3426 H   0  0  0  0  0  0  0  0  0  0  0  0
    0.9883   -0.5147   -0.4925 H   0  0  0  0  0  0  0  0  0  0  0  0
    1.8608    2.0999    0.8550 H   0  0  0  0  0  0  0  0  0  0  0  0
    0.4697    0.8246    2.4454 H   0  0  0  0  0  0  0  0  0  0  0  0
   -1.9457    0.8913    2.0703 H   0  0  0  0  0  0  0  0  0  0  0  0
   -2.0724    0.3465   -0.6180 H   0  0  0  0  0  0  0  0  0  0  0  0
   -2.8480    1.8959    0.0133 H   0  0  0  0  0  0  0  0  0  0  0  0
   -1.3448    2.7515   -1.7357 H   0  0  0  0  0  0  0  0  0  0  0  0
    1.0776    2.7050   -1.4022 H   0  0  0  0  0  0  0  0  0  0  0  0
  1  2  1  0
  1  5  1  0
  1  6  1  0
  1 26  1  0
  2  3  1  0
  3  4  2  3
  4  7  1  0
  4  8  1  0
  9 10  1  0
  9 18  1  0
  9 19  1  0
  9 20  1  0
 10 11  2  3
 10 21  1  0
 11 12  1  0
 11 22  1  0
 12 13  1  0
 12 17  1  0
 12 23  1  0
 13 14  1  0
 13 24  1  0
 14 15  2  0
 14 25  1  0
 15 16  1  0
 15 27  1  0
 16 17  2  0
 16 28  1  0
 17 29  1  0
M  RAD  1  13   2
M  END
>  <reaction>  (5) 
rmg_rxn_15724

>  <mol_properties>  (5) 
{"0": {"label": "*3", "atom_type": "Cs"}, "1": {"label": "*4", "atom_type": "O2s"}, "13": {"label": "*0", "atom_type": "Cd"}, "14": {"label": "*1", "atom_type": "Cs"}, "25": {"label": "*2", "atom_type": "H0"}}

>  <type>  (5) 
unop_1

>  <geom_source>  (5) 
crest_best.xyz

$$$$

     RDKit          3D

 29 28  0  0  0  0  0  0  0  0999 V2000
   -0.1485    2.5106    0.4855 C   0  0  0  0  0  0  0  0  0  0  0  0
   -0.0950    3.3026    1.6557 O   0  0  0  0  0  0  0  0  0  0  0  0
    0.7016    4.4007    1.4358 N   0  0  0  0  0  0  0  0  0  0  0  0
    0.7805    5.1413    2.4565 C   0  0  0  0  0  0  0  0  0  0  0  0
   -0.5769    3.0726   -0.3475 H   0  0  0  0  0  0  0  0  0  0  0  0
    0.8460    2.1520    0.2106 H   0  0  0  0  0  0  0  0  0  0  0  0
    1.3911    6.0296    2.3649 H   0  0  0  0  0  0  0  0  0  0  0  0
    0.2671    4.9124    3.3879 H   0  0  0  0  0  0  0  0  0  0  0  0
   -0.1485   -3.4875   -4.2141 C   0  0  0  0  0  0  0  0  0  0  0  0
   -0.1485   -3.4875   -2.7192 C   0  0  0  0  0  0  0  0  0  0  0  0
   -0.1485   -2.4036   -1.9569 C   0  0  0  0  0  0  0  0  0  0  0  0
   -0.1485   -2.4056   -0.4475 C   0  0  0  0  0  0  0  0  0  0  0  0
   -1.3947   -1.7454    0.0797 C   0  0  0  0  0  3  0  0  0  0  0  0
   -1.3952   -0.6663    0.8480 C   0  0  0  0  0  0  0  0  0  0  0  0
   -0.1485    0.0213    1.3110 C   0  0  0  0  0  0  0  0  0  0  0  0
    1.0982   -0.6663    0.8480 C   0  0  0  0  0  0  0  0  0  0  0  0
    1.0978   -1.7454    0.0797 C   0  0  0  0  0  0  0  0  0  0  0  0
    0.7294   -4.0082   -4.6052 H   0  0  0  0  0  0  0  0  0  0  0  0
   -1.0264   -4.0082   -4.6052 H   0  0  0  0  0  0  0  0  0  0  0  0
   -0.1485   -2.4719   -4.6117 H   0  0  0  0  0  0  0  0  0  0  0  0
   -0.1485   -4.4631   -2.2370 H   0  0  0  0  0  0  0  0  0  0  0  0
   -0.1485   -1.4184   -2.4192 H   0  0  0  0  0  0  0  0  0  0  0  0
   -0.1485   -3.4549   -0.1262 H   0  0  0  0  0  0  0  0  0  0  0  0
   -2.3351   -2.1948   -0.2215 H   0  0  0  0  0  0  0  0  0  0  0  0
   -2.3395   -0.2449    1.1762 H   0  0  0  0  0  0  0  0  0  0  0  0
   -0.1485    1.2706    0.8967 H   0  0  0  0  0  0  0  0  0  0  0  0
   -0.1485    0.0890    2.4056 H   0  0  0  0  0  0  0  0  0  0  0  0
    2.0425   -0.2449    1.1762 H   0  0  0  0  0  0  0  0  0  0  0  0
    2.0382   -2.1948   -0.2215 H   0  0  0  0  0  0  0  0  0  0  0  0
  1  2  1  0
  1  5  1  0
  1  6  1  0
  1 26  1  0
  2  3  1  0
  3  4  2  3
  4  7  1  0
  4  8  1  0
  9 10  1  0
  9 18  1  0
  9 19  1  0
  9 20  1  0
 10 11  2  3
 10 21  1  0
 11 12  1  0
 11 22  1  0
 12 13  1  0
 12 17  1  0
 12 23  1  0
 13 14  1  0
 13 24  1  0
 14 15  2  0
 14 25  1  0
 15 16  1  0
 15 27  1  0
 16 17  2  0
 16 28  1  0
 17 29  1  0
M  RAD  1  13   2
M  END
>  <reaction>  (6) 
rmg_rxn_15724

>  <mol_properties>  (6) 
{"0": {"label": "*3", "atom_type": "Cs"}, "1": {"label": "*4", "atom_type": "O2s"}, "13": {"label": "*0", "atom_type": "Cd"}, "14": {"label": "*1", "atom_type": "Cs"}, "25": {"label": "*2", "atom_type": "H0"}}

>  <type>  (6) 
unop_2

>  <geom_source>  (6) 
Heuristics

$$$$

     RDKit          3D

 29 28  0  0  0  0  0  0  0  0999 V2000
   -0.6828   -2.6923    0.8518 C   0  0  0  0  0  0  0  0  0  0  0  0
    0.5861   -2.5110    0.2798 O   0  0  0  0  0  0  0  0  0  0  0  0
    0.5033   -1.7629   -0.8812 N   0  0  0  0  0  0  0  0  0  0  0  0
    1.5959   -1.4909   -1.4423 C   0  0  0  0  0  0  0  0  0  0  0  0
   -1.4417   -2.9854    0.1538 H   0  0  0  0  0  0  0  0  0  0  0  0
   -0.5709   -3.3817    1.6784 H   0  0  0  0  0  0  0  0  0  0  0  0
    1.5411   -0.9137   -2.3483 H   0  0  0  0  0  0  0  0  0  0  0  0
    2.5669   -1.8104   -1.0778 H   0  0  0  0  0  0  0  0  0  0  0  0
   -3.8117    0.0586   -0.5298 C   0  0  0  0  0  0  0  0  0  0  0  0
   -2.7514    0.9385    0.0467 C   0  0  0  0  0  0  0  0  0  0  0  0
   -1.4585    0.7904   -0.1831 C   0  0  0  0  0  0  0  0  0  0  0  0
   -0.3678    1.6570    0.4246 C   0  0  0  0  0  0  0  0  0  0  0  0
    0.5287    2.1595   -0.6581 C   0  0  0  0  0  3  0  0  0  0  0  0
    1.8269    1.7834   -0.7599 C   0  0  0  0  0  0  0  0  0  0  0  0
    2.4220    0.9366    0.1889 C   0  0  0  0  0  0  0  0  0  0  0  0
    1.6731    0.5026    1.2934 C   0  0  0  0  0  0  0  0  0  0  0  0
    0.3706    0.8472    1.4412 C   0  0  0  0  0  0  0  0  0  0  0  0
   -3.3753   -0.7070   -1.1662 H   0  0  0  0  0  0  0  0  0  0  0  0
   -4.3770   -0.4236    0.2680 H   0  0  0  0  0  0  0  0  0  0  0  0
   -4.5129    0.6493   -1.1188 H   0  0  0  0  0  0  0  0  0  0  0  0
   -3.1072    1.7360    0.6885 H   0  0  0  0  0  0  0  0  0  0  0  0
   -1.0891   -0.0050   -0.8162 H   0  0  0  0  0  0  0  0  0  0  0  0
   -0.8688    2.5042    0.9210 H   0  0  0  0  0  0  0  0  0  0  0  0
    0.0786    2.8134   -1.3905 H   0  0  0  0  0  0  0  0  0  0  0  0
    2.4286    2.1509   -1.5805 H   0  0  0  0  0  0  0  0  0  0  0  0
   -1.1746   -1.7561    1.1415 H   0  0  0  0  0  0  0  0  0  0  0  0
    3.4577    0.6535    0.0894 H   0  0  0  0  0  0  0  0  0  0  0  0
    2.1527   -0.1133    2.0414 H   0  0  0  0  0  0  0  0  0  0  0  0
   -0.1995    0.5144    2.2963 H   0  0  0  0  0  0  0  0  0  0  0  0
  1  2  1  0
  1  5  1  0
  1  6  1  0
  1 26  1  0
  2  3  1  0
  3  4  2  3
  4  7  1  0
  4  8  1  0
  9 10  1  0
  9 18  1  0
  9 19  1  0
  9 20  1  0
 10 11  2  3
 10 21  1  0
 11 12  1  0
 11 22  1  0
 12 13  1  0
 12 17  1  0
 12 23  1  0
 13 14  1  0
 13 24  1  0
 14 15  2  0
 14 25  1  0
 15 16  1  0
 15 27  1  0
 16 17  2  0
 16 28  1  0
 17 29  1  0
M  RAD  1  13   2
M  END
>  <reaction>  (7) 
rmg_rxn_15724

>  <mol_properties>  (7) 
{"0": {"label": "*3", "atom_type": "Cs"}, "1": {"label": "*4", "atom_type": "O2s"}, "13": {"label": "*0", "atom_type": "Cd"}, "14": {"label": "*1", "atom_type": "Cs"}, "25": {"label": "*2", "atom_type": "H0"}}

>  <type>  (7) 
unop_3

>  <geom_source>  (7) 
Heuristics

$$$$

     RDKit          3D

 29 28  0  0  0  0  0  0  0  0999 V2000
    0.7094   -2.6861    0.8572 C   0  0  0  0  0  0  0  0  0  0  0  0
   -0.5590   -2.5160    0.2803 O   0  0  0  0  0  0  0  0  0  0  0  0
   -0.4778   -1.7697   -0.8820 N   0  0  0  0  0  0  0  0  0  0  0  0
   -1.5701   -1.5085   -1.4487 C   0  0  0  0  0  0  0  0  0  0  0  0
    0.5965   -3.3667    1.6912 H   0  0  0  0  0  0  0  0  0  0  0  0
    1.4692   -2.9890    0.1634 H   0  0  0  0  0  0  0  0  0  0  0  0
   -1.5161   -0.9324   -2.3554 H   0  0  0  0  0  0  0  0  0  0  0  0
   -2.5401   -1.8355   -1.0881 H   0  0  0  0  0  0  0  0  0  0  0  0
    3.8057    0.0930   -0.5310 C   0  0  0  0  0  0  0  0  0  0  0  0
    2.7391    0.9638    0.0476 C   0  0  0  0  0  0  0  0  0  0  0  0
    1.4473    0.8054   -0.1815 C   0  0  0  0  0  0  0  0  0  0  0  0
    0.3495    1.6616    0.4281 C   0  0  0  0  0  0  0  0  0  0  0  0
   -0.3829    0.8422    1.4414 C   0  0  0  0  0  3  0  0  0  0  0  0
   -1.6814    0.4843    1.2895 C   0  0  0  0  0  0  0  0  0  0  0  0
   -2.4324    0.9138    0.1846 C   0  0  0  0  0  0  0  0  0  0  0  0
   -1.8443    1.7704   -0.7598 C   0  0  0  0  0  0  0  0  0  0  0  0
   -0.5503    2.1598   -0.6539 C   0  0  0  0  0  0  0  0  0  0  0  0
    3.3746   -0.6742   -1.1692 H   0  0  0  0  0  0  0  0  0  0  0  0
    4.5029    0.6899   -1.1186 H   0  0  0  0  0  0  0  0  0  0  0  0
    4.3742   -0.3873    0.2657 H   0  0  0  0  0  0  0  0  0  0  0  0
    3.0891    1.7633    0.6901 H   0  0  0  0  0  0  0  0  0  0  0  0
    1.0844    0.0076   -0.8154 H   0  0  0  0  0  0  0  0  0  0  0  0
    0.8432    2.5112    0.9274 H   0  0  0  0  0  0  0  0  0  0  0  0
    0.1886    0.5130    2.2969 H   0  0  0  0  0  0  0  0  0  0  0  0
   -2.1563   -0.1387    2.0347 H   0  0  0  0  0  0  0  0  0  0  0  0
    1.1940   -1.7434    1.1412 H   0  0  0  0  0  0  0  0  0  0  0  0
   -3.4646    0.6199    0.0816 H   0  0  0  0  0  0  0  0  0  0  0  0
   -2.4483    2.1350   -1.5800 H   0  0  0  0  0  0  0  0  0  0  0  0
   -0.1057    2.8215   -1.3826 H   0  0  0  0  0  0  0  0  0  0  0  0
  1  2  1  0
  1  5  1  0
  1  6  1  0
  1 26  1  0
  2  3  1  0
  3  4  2  3
  4  7  1  0
  4  8  1  0
  9 10  1  0
  9 18  1  0
  9 19  1  0
  9 20  1  0
 10 11  2  3
 10 21  1  0
 11 12  1  0
 11 22  1  0
 12 13  1  0
 12 17  1  0
 12 23  1  0
 13 14  1  0
 13 24  1  0
 14 15  2  0
 14 25  1  0
 15 16  1  0
 15 27  1  0
 16 17  2  0
 16 28  1  0
 17 29  1  0
M  RAD  1  13   2
M  END
>  <reaction>  (8) 
rmg_rxn_15724

>  <mol_properties>  (8) 
{"0": {"label": "*3", "atom_type": "Cs"}, "1": {"label": "*4", "atom_type": "O2s"}, "13": {"label": "*0", "atom_type": "Cd"}, "14": {"label": "*1", "atom_type": "Cs"}, "25": {"label": "*2", "atom_type": "H0"}}

>  <type>  (8) 
unop_4

>  <geom_source>  (8) 
Heuristics

$$$$

     RDKit          3D

 29 28  0  0  0  0  0  0  0  0999 V2000
   -1.8279   -0.1808    1.3243 C   0  0  0  0  0  0  0  0  0  0  0  0
   -2.9724   -0.0450    0.5253 O   0  0  0  0  0  0  0  0  0  0  0  0
   -2.9416    0.6495   -0.6298 N   0  0  0  0  0  0  0  0  0  0  0  0
   -1.8850    1.1445   -1.1059 C   0  0  0  0  0  0  0  0  0  0  0  0
   -1.2907    0.7588    1.4647 H   0  0  0  0  0  0  0  0  0  0  0  0
   -2.1793   -0.5813    2.2710 H   0  0  0  0  0  0  0  0  0  0  0  0
   -2.0021    1.6859   -2.0285 H   0  0  0  0  0  0  0  0  0  0  0  0
   -0.8833    1.0676   -0.6913 H   0  0  0  0  0  0  0  0  0  0  0  0
    1.2718    3.1996    0.5715 C   0  0  0  0  0  0  0  0  0  0  0  0
    1.5018    1.7250    0.5306 C   0  0  0  0  0  0  0  0  0  0  0  0
    1.8626    1.0564   -0.5513 C   0  0  0  0  0  0  0  0  0  0  0  0
    2.0644   -0.4467   -0.6275 C   0  0  0  0  0  0  0  0  0  0  0  0
    0.9930   -1.0093   -1.5161 C   0  0  0  0  0  3  0  0  0  0  0  0
   -0.0288   -1.7350   -1.0362 C   0  0  0  0  0  0  0  0  0  0  0  0
   -0.1615   -2.0174    0.3686 C   0  0  0  0  0  0  0  0  0  0  0  0
    1.0244   -1.8260    1.1624 C   0  0  0  0  0  0  0  0  0  0  0  0
    2.0607   -1.0975    0.7184 C   0  0  0  0  0  0  0  0  0  0  0  0
    1.4312    3.6482   -0.4061 H   0  0  0  0  0  0  0  0  0  0  0  0
    0.2529    3.4157    0.8941 H   0  0  0  0  0  0  0  0  0  0  0  0
    1.9480    3.6662    1.2874 H   0  0  0  0  0  0  0  0  0  0  0  0
    1.3604    1.2017    1.4681 H   0  0  0  0  0  0  0  0  0  0  0  0
    1.9991    1.5750   -1.4921 H   0  0  0  0  0  0  0  0  0  0  0  0
    3.0447   -0.6033   -1.1043 H   0  0  0  0  0  0  0  0  0  0  0  0
    1.0733   -0.7915   -2.5705 H   0  0  0  0  0  0  0  0  0  0  0  0
   -0.7984   -2.1004   -1.7018 H   0  0  0  0  0  0  0  0  0  0  0  0
   -1.0218   -1.0236    0.8339 H   0  0  0  0  0  0  0  0  0  0  0  0
   -0.8045   -2.8481    0.6401 H   0  0  0  0  0  0  0  0  0  0  0  0
    1.0524   -2.2732    2.1463 H   0  0  0  0  0  0  0  0  0  0  0  0
    2.9447   -0.9611    1.3231 H   0  0  0  0  0  0  0  0  0  0  0  0
  1  2  1  0
  1  5  1  0
  1  6  1  0
  1 26  1  0
  2  3  1  0
  3  4  2  3
  4  7  1  0
  4  8  1  0
  9 10  1  0
  9 18  1  0
  9 19  1  0
  9 20  1  0
 10 11  2  3
 10 21  1  0
 11 12  1  0
 11 22  1  0
 12 13  1  0
 12 17  1  0
 12 23  1  0
 13 14  1  0
 13 24  1  0
 14 15  2  0
 14 25  1  0
 15 16  1  0
 15 27  1  0
 16 17  2  0
 16 28  1  0
 17 29  1  0
M  RAD  1  13   2
M  END
>  <reaction>  (9) 
rmg_rxn_15724

>  <mol_properties>  (9) 
{"0": {"label": "*3", "atom_type": "Cs"}, "1": {"label": "*4", "atom_type": "O2s"}, "13": {"label": "*0", "atom_type": "Cd"}, "14": {"label": "*1", "atom_type": "Cs"}, "25": {"label": "*2", "atom_type": "H0"}}

>  <type>  (9) 
unop_5

>  <geom_source>  (9) 
Heuristics

$$$$

     RDKit          3D

 29 28  0  0  0  0  0  0  0  0999 V2000
    0.4457    2.5955    0.8438 C   0  0  0  0  0  0  0  0  0  0  0  0
   -0.9144    2.9762    0.7738 O   0  0  0  0  0  0  0  0  0  0  0  0
   -1.0113    4.3470    0.7566 N   0  0  0  0  0  0  0  0  0  0  0  0
   -2.2117    4.7367    0.6944 C   0  0  0  0  0  0  0  0  0  0  0  0
    0.9982    2.9585   -0.0257 H   0  0  0  0  0  0  0  0  0  0  0  0
    0.9111    2.9747    1.7563 H   0  0  0  0  0  0  0  0  0  0  0  0
   -2.3739    5.8061    0.6768 H   0  0  0  0  0  0  0  0  0  0  0  0
   -3.0513    4.0457    0.6596 H   0  0  0  0  0  0  0  0  0  0  0  0
    0.4457   -3.4026   -3.8558 C   0  0  0  0  0  0  0  0  0  0  0  0
    0.4457   -3.4026   -2.3609 C   0  0  0  0  0  0  0  0  0  0  0  0
    0.4457   -2.3188   -1.5986 C   0  0  0  0  0  0  0  0  0  0  0  0
    0.4457   -2.3207   -0.0892 C   0  0  0  0  0  0  0  0  0  0  0  0
   -0.8005   -1.6605    0.4380 C   0  0  0  0  0  3  0  0  0  0  0  0
   -0.8010   -0.5815    1.2063 C   0  0  0  0  0  0  0  0  0  0  0  0
    0.4457    0.1062    1.6693 C   0  0  0  0  0  0  0  0  0  0  0  0
    1.6924   -0.5815    1.2063 C   0  0  0  0  0  0  0  0  0  0  0  0
    1.6919   -1.6605    0.4380 C   0  0  0  0  0  0  0  0  0  0  0  0
    1.3236   -3.9233   -4.2469 H   0  0  0  0  0  0  0  0  0  0  0  0
   -0.4322   -3.9233   -4.2469 H   0  0  0  0  0  0  0  0  0  0  0  0
    0.4457   -2.3870   -4.2534 H   0  0  0  0  0  0  0  0  0  0  0  0
    0.4457   -4.3782   -1.8787 H   0  0  0  0  0  0  0  0  0  0  0  0
    0.4457   -1.3335   -2.0609 H   0  0  0  0  0  0  0  0  0  0  0  0
    0.4457   -3.3701    0.2321 H   0  0  0  0  0  0  0  0  0  0  0  0
   -1.7410   -2.1099    0.1368 H   0  0  0  0  0  0  0  0  0  0  0  0
   -1.7453   -0.1600    1.5345 H   0  0  0  0  0  0  0  0  0  0  0  0
    0.4457    1.3555    1.2550 H   0  0  0  0  0  0  0  0  0  0  0  0
    0.4457    0.1739    2.7639 H   0  0  0  0  0  0  0  0  0  0  0  0
    2.6367   -0.1600    1.5345 H   0  0  0  0  0  0  0  0  0  0  0  0
    2.6323   -2.1099    0.1368 H   0  0  0  0  0  0  0  0  0  0  0  0
  1  2  1  0
  1  5  1  0
  1  6  1  0
  1 26  1  0
  2  3  1  0
  3  4  2  3
  4  7  1  0
  4  8  1  0
  9 10  1  0
  9 18  1  0
  9 19  1  0
  9 20  1  0
 10 11  2  3
 10 21  1  0
 11 12  1  0
 11 22  1  0
 12 13  1  0
 12 17  1  0
 12 23  1  0
 13 14  1  0
 13 24  1  0
 14 15  2  0
 14 25  1  0
 15 16  1  0
 15 27  1  0
 16 17  2  0
 16 28  1  0
 17 29  1  0
M  RAD  1  13   2
M  END
>  <reaction>  (10) 
rmg_rxn_15724

>  <mol_properties>  (10) 
{"0": {"label": "*3", "atom_type": "Cs"}, "1": {"label": "*4", "atom_type": "O2s"}, "13": {"label": "*0", "atom_type": "Cd"}, "14": {"label": "*1", "atom_type": "Cs"}, "25": {"label": "*2", "atom_type": "H0"}}

>  <type>  (10) 
unop_6

>  <geom_source>  (10) 
Heuristics

$$$$

     RDKit          3D

 29 28  0  0  0  0  0  0  0  0999 V2000
   -2.3146   -0.7852    1.1352 C   0  0  0  0  0  0  0  0  0  0  0  0
   -2.0610   -1.7848    0.1871 O   0  0  0  0  0  0  0  0  0  0  0  0
   -0.7179   -2.0850    0.1093 N   0  0  0  0  0  0  0  0  0  0  0  0
   -0.3803   -2.9073   -0.7836 C   0  0  0  0  0  0  0  0  0  0  0  0
   -3.3717   -0.8421    1.3789 H   0  0  0  0  0  0  0  0  0  0  0  0
   -1.6806   -0.8829    2.0157 H   0  0  0  0  0  0  0  0  0  0  0  0
    0.6663   -3.1478   -0.8429 H   0  0  0  0  0  0  0  0  0  0  0  0
   -1.0710   -3.3759   -1.4782 H   0  0  0  0  0  0  0  0  0  0  0  0
    3.5948   -1.3161    0.5785 C   0  0  0  0  0  0  0  0  0  0  0  0
    2.9843   -0.0527    0.0673 C   0  0  0  0  0  0  0  0  0  0  0  0
    1.6889    0.2065    0.0922 C   0  0  0  0  0  0  0  0  0  0  0  0
    1.0575    1.4833   -0.4275 C   0  0  0  0  0  0  0  0  0  0  0  0
    0.4107    2.2064    0.7140 C   0  0  0  0  0  3  0  0  0  0  0  0
   -0.9195    2.2305    0.8908 C   0  0  0  0  0  0  0  0  0  0  0  0
   -1.8175    1.5591   -0.0122 C   0  0  0  0  0  0  0  0  0  0  0  0
   -1.2613    1.1742   -1.2834 C   0  0  0  0  0  0  0  0  0  0  0  0
    0.0638    1.1344   -1.4924 C   0  0  0  0  0  0  0  0  0  0  0  0
    4.1346   -1.8248   -0.2204 H   0  0  0  0  0  0  0  0  0  0  0  0
    4.3105   -1.0965    1.3707 H   0  0  0  0  0  0  0  0  0  0  0  0
    2.8300   -1.9825    0.9692 H   0  0  0  0  0  0  0  0  0  0  0  0
    3.6820    0.6700   -0.3392 H   0  0  0  0  0  0  0  0  0  0  0  0
    0.9873   -0.5142    0.4885 H   0  0  0  0  0  0  0  0  0  0  0  0
    1.8584    2.1039   -0.8532 H   0  0  0  0  0  0  0  0  0  0  0  0
    1.0741    2.7048    1.4047 H   0  0  0  0  0  0  0  0  0  0  0  0
   -1.3483    2.7472    1.7386 H   0  0  0  0  0  0  0  0  0  0  0  0
   -2.0731    0.3432    0.6168 H   0  0  0  0  0  0  0  0  0  0  0  0
   -2.8505    1.8928   -0.0119 H   0  0  0  0  0  0  0  0  0  0  0  0
   -1.9470    0.8928   -2.0706 H   0  0  0  0  0  0  0  0  0  0  0  0
    0.4685    0.8303   -2.4461 H   0  0  0  0  0  0  0  0  0  0  0  0
  1  2  1  0
  1  5  1  0
  1  6  1  0
  1 26  1  0
  2  3  1  0
  3  4  2  3
  4  7  1  0
  4  8  1  0
  9 10  1  0
  9 18  1  0
  9 19  1  0
  9 20  1  0
 10 11  2  3
 10 21  1  0
 11 12  1  0
 11 22  1  0
 12 13  1  0
 12 17  1  0
 12 23  1  0
 13 14  1  0
 13 24  1  0
 14 15  2  0
 14 25  1  0
 15 16  1  0
 15 27  1  0
 16 17  2  0
 16 28  1  0
 17 29  1  0
M  RAD  1  13   2
M  END
>  <reaction>  (11) 
rmg_rxn_15724

>  <mol_properties>  (11) 
{"0": {"label": "*3", "atom_type": "Cs"}, "1": {"label": "*4", "atom_type": "O2s"}, "13": {"label": "*0", "atom_type": "Cd"}, "14": {"label": "*1", "atom_type": "Cs"}, "25": {"label": "*2", "atom_type": "H0"}}

>  <type>  (11) 
unop_7

>  <geom_source>  (11) 
Heuristics

$$$$

     RDKit          3D

 29 28  0  0  0  0  0  0  0  0999 V2000
   -0.3204    2.5276    0.6067 C   0  0  0  0  0  0  0  0  0  0  0  0
    0.4059    3.2539    1.5787 O   0  0  0  0  0  0  0  0  0  0  0  0
    0.9563    4.3744    1.0039 N   0  0  0  0  0  0  0  0  0  0  0  0
    1.6173    5.0581    1.8360 C   0  0  0  0  0  0  0  0  0  0  0  0
   -1.1361    3.1287    0.1988 H   0  0  0  0  0  0  0  0  0  0  0  0
    0.3329    2.2000   -0.2051 H   0  0  0  0  0  0  0  0  0  0  0  0
    2.0839    5.9592    1.4611 H   0  0  0  0  0  0  0  0  0  0  0  0
    1.7220    4.7699    2.8798 H   0  0  0  0  0  0  0  0  0  0  0  0
   -0.3204   -3.4704   -4.0928 C   0  0  0  0  0  0  0  0  0  0  0  0
   -0.3204   -3.4704   -2.5979 C   0  0  0  0  0  0  0  0  0  0  0  0
   -0.3204   -2.3866   -1.8357 C   0  0  0  0  0  0  0  0  0  0  0  0
   -0.3204   -2.3885   -0.3262 C   0  0  0  0  0  0  0  0  0  0  0  0
   -1.5666   -1.7283    0.2010 C   0  0  0  0  0  3  0  0  0  0  0  0
   -1.5671   -0.6493    0.9693 C   0  0  0  0  0  0  0  0  0  0  0  0
   -0.3204    0.0383    1.4323 C   0  0  0  0  0  0  0  0  0  0  0  0
    0.9263   -0.6493    0.9693 C   0  0  0  0  0  0  0  0  0  0  0  0
    0.9259   -1.7283    0.2010 C   0  0  0  0  0  0  0  0  0  0  0  0
    0.5575   -3.9912   -4.4840 H   0  0  0  0  0  0  0  0  0  0  0  0
   -1.1983   -3.9912   -4.4840 H   0  0  0  0  0  0  0  0  0  0  0  0
   -0.3204   -2.4548   -4.4905 H   0  0  0  0  0  0  0  0  0  0  0  0
   -0.3204   -4.4461   -2.1158 H   0  0  0  0  0  0  0  0  0  0  0  0
   -0.3204   -1.4013   -2.2980 H   0  0  0  0  0  0  0  0  0  0  0  0
   -0.3204   -3.4379   -0.0049 H   0  0  0  0  0  0  0  0  0  0  0  0
   -2.5070   -2.1778   -0.1003 H   0  0  0  0  0  0  0  0  0  0  0  0
   -2.5113   -0.2278    1.2975 H   0  0  0  0  0  0  0  0  0  0  0  0
   -0.3204    1.2877    1.0179 H   0  0  0  0  0  0  0  0  0  0  0  0
   -0.3204    0.1061    2.5268 H   0  0  0  0  0  0  0  0  0  0  0  0
    1.8706   -0.2278    1.2975 H   0  0  0  0  0  0  0  0  0  0  0  0
    1.8663   -2.1778   -0.1003 H   0  0  0  0  0  0  0  0  0  0  0  0
  1  2  1  0
  1  5  1  0
  1  6  1  0
  1 26  1  0
  2  3  1  0
  3  4  2  3
  4  7  1  0
  4  8  1  0
  9 10  1  0
  9 18  1  0
  9 19  1  0
  9 20  1  0
 10 11  2  3
 10 21  1  0
 11 12  1  0
 11 22  1  0
 12 13  1  0
 12 17  1  0
 12 23  1  0
 13 14  1  0
 13 24  1  0
 14 15  2  0
 14 25  1  0
 15 16  1  0
 15 27  1  0
 16 17  2  0
 16 28  1  0
 17 29  1  0
M  RAD  1  13   2
M  END
>  <reaction>  (12) 
rmg_rxn_15724

>  <mol_properties>  (12) 
{"0": {"label": "*3", "atom_type": "Cs"}, "1": {"label": "*4", "atom_type": "O2s"}, "13": {"label": "*0", "atom_type": "Cd"}, "14": {"label": "*1", "atom_type": "Cs"}, "25": {"label": "*2", "atom_type": "H0"}}

>  <type>  (12) 
unop_8

>  <geom_source>  (12) 
Heuristics

$$$$

     RDKit          3D

 29 28  0  0  0  0  0  0  0  0999 V2000
   -0.0949    2.7860    1.3537 C   0  0  0  0  0  0  0  0  0  0  0  0
   -0.1484    2.7218   -0.0579 O   0  0  0  0  0  0  0  0  0  0  0  0
    0.5285    3.7899   -0.5961 N   0  0  0  0  0  0  0  0  0  0  0  0
    0.5086    3.7761   -1.8595 C   0  0  0  0  0  0  0  0  0  0  0  0
    0.9373    2.7402    1.7081 H   0  0  0  0  0  0  0  0  0  0  0  0
   -0.5668    3.7000    1.7213 H   0  0  0  0  0  0  0  0  0  0  0  0
    1.0209    4.5860   -2.3613 H   0  0  0  0  0  0  0  0  0  0  0  0
    0.0065    2.9972   -2.4293 H   0  0  0  0  0  0  0  0  0  0  0  0
   -0.0949   -3.2120   -3.3459 C   0  0  0  0  0  0  0  0  0  0  0  0
   -0.0949   -3.2120   -1.8510 C   0  0  0  0  0  0  0  0  0  0  0  0
   -0.0949   -2.1282   -1.0887 C   0  0  0  0  0  0  0  0  0  0  0  0
   -0.0949   -2.1301    0.4207 C   0  0  0  0  0  0  0  0  0  0  0  0
   -1.3412   -1.4699    0.9479 C   0  0  0  0  0  3  0  0  0  0  0  0
   -1.3416   -0.3909    1.7162 C   0  0  0  0  0  0  0  0  0  0  0  0
   -0.0949    0.2967    2.1792 C   0  0  0  0  0  0  0  0  0  0  0  0
    1.1518   -0.3909    1.7162 C   0  0  0  0  0  0  0  0  0  0  0  0
    1.1513   -1.4699    0.9479 C   0  0  0  0  0  0  0  0  0  0  0  0
    0.7830   -3.7328   -3.7370 H   0  0  0  0  0  0  0  0  0  0  0  0
   -0.9728   -3.7328   -3.7370 H   0  0  0  0  0  0  0  0  0  0  0  0
   -0.0949   -2.1964   -3.7435 H   0  0  0  0  0  0  0  0  0  0  0  0
   -0.0949   -4.1877   -1.3688 H   0  0  0  0  0  0  0  0  0  0  0  0
   -0.0949   -1.1429   -1.5510 H   0  0  0  0  0  0  0  0  0  0  0  0
   -0.0949   -3.1795    0.7420 H   0  0  0  0  0  0  0  0  0  0  0  0
   -2.2816   -1.9194    0.6467 H   0  0  0  0  0  0  0  0  0  0  0  0
   -2.2859    0.0305    2.0444 H   0  0  0  0  0  0  0  0  0  0  0  0
   -0.0949    1.5461    1.7649 H   0  0  0  0  0  0  0  0  0  0  0  0
   -0.0949    0.3645    3.2738 H   0  0  0  0  0  0  0  0  0  0  0  0
    2.0961    0.0305    2.0444 H   0  0  0  0  0  0  0  0  0  0  0  0
    2.0917   -1.9194    0.6467 H   0  0  0  0  0  0  0  0  0  0  0  0
  1  2  1  0
  1  5  1  0
  1  6  1  0
  1 26  1  0
  2  3  1  0
  3  4  2  3
  4  7  1  0
  4  8  1  0
  9 10  1  0
  9 18  1  0
  9 19  1  0
  9 20  1  0
 10 11  2  3
 10 21  1  0
 11 12  1  0
 11 22  1  0
 12 13  1  0
 12 17  1  0
 12 23  1  0
 13 14  1  0
 13 24  1  0
 14 15  2  0
 14 25  1  0
 15 16  1  0
 15 27  1  0
 16 17  2  0
 16 28  1  0
 17 29  1  0
M  RAD  1  13   2
M  END
>  <reaction>  (13) 
rmg_rxn_15724

>  <mol_properties>  (13) 
{"0": {"label": "*3", "atom_type": "Cs"}, "1": {"label": "*4", "atom_type": "O2s"}, "13": {"label": "*0", "atom_type": "Cd"}, "14": {"label": "*1", "atom_type": "Cs"}, "25": {"label": "*2", "atom_type": "H0"}}

>  <type>  (13) 
unop_9

>  <geom_source>  (13) 
Heuristics

$$$$

     RDKit          3D

 29 28  0  0  0  0  0  0  0  0999 V2000
   -0.5894   -2.7162   -0.8616 C   0  0  0  0  0  0  0  0  0  0  0  0
    0.6663   -2.4936   -0.2752 O   0  0  0  0  0  0  0  0  0  0  0  0
    0.5457   -1.7483    0.8844 N   0  0  0  0  0  0  0  0  0  0  0  0
    1.6222   -1.4425    1.4591 C   0  0  0  0  0  0  0  0  0  0  0  0
   -0.4439   -3.3935   -1.6927 H   0  0  0  0  0  0  0  0  0  0  0  0
   -1.3439   -3.0432   -0.1738 H   0  0  0  0  0  0  0  0  0  0  0  0
    1.5380   -0.8668    2.3638 H   0  0  0  0  0  0  0  0  0  0  0  0
    2.6073   -1.7318    1.1073 H   0  0  0  0  0  0  0  0  0  0  0  0
   -3.8189   -0.0280    0.5304 C   0  0  0  0  0  0  0  0  0  0  0  0
   -2.7791    0.8750   -0.0475 C   0  0  0  0  0  0  0  0  0  0  0  0
   -1.4825    0.7523    0.1764 C   0  0  0  0  0  0  0  0  0  0  0  0
   -0.4122    1.6443   -0.4309 C   0  0  0  0  0  0  0  0  0  0  0  0
    0.3490    0.8515   -1.4440 C   0  0  0  0  0  3  0  0  0  0  0  0
    1.6593    0.5395   -1.2918 C   0  0  0  0  0  0  0  0  0  0  0  0
    2.3939    0.9938   -0.1858 C   0  0  0  0  0  0  0  0  0  0  0  0
    1.7753    1.8273    0.7597 C   0  0  0  0  0  0  0  0  0  0  0  0
    0.4685    2.1710    0.6534 C   0  0  0  0  0  0  0  0  0  0  0  0
   -3.3643   -0.7871    1.1619 H   0  0  0  0  0  0  0  0  0  0  0  0
   -4.5291    0.5463    1.1248 H   0  0  0  0  0  0  0  0  0  0  0  0
   -4.3780   -0.5185   -0.2667 H   0  0  0  0  0  0  0  0  0  0  0  0
   -3.1537    1.6675   -0.6847 H   0  0  0  0  0  0  0  0  0  0  0  0
   -1.0944   -0.0375    0.8053 H   0  0  0  0  0  0  0  0  0  0  0  0
   -0.9329    2.4779   -0.9300 H   0  0  0  0  0  0  0  0  0  0  0  0
   -0.2100    0.5034   -2.3003 H   0  0  0  0  0  0  0  0  0  0  0  0
    2.1562   -0.0656   -2.0372 H   0  0  0  0  0  0  0  0  0  0  0  0
   -1.1124   -1.7961   -1.1483 H   0  0  0  0  0  0  0  0  0  0  0  0
    3.4359    0.7365   -0.0828 H   0  0  0  0  0  0  0  0  0  0  0  0
    2.3653    2.2111    1.5813 H   0  0  0  0  0  0  0  0  0  0  0  0
    0.0001    2.8149    1.3831 H   0  0  0  0  0  0  0  0  0  0  0  0
  1  2  1  0
  1  5  1  0
  1  6  1  0
  1 26  1  0
  2  3  1  0
  3  4  2  3
  4  7  1  0
  4  8  1  0
  9 10  1  0
  9 18  1  0
  9 19  1  0
  9 20  1  0
 10 11  2  3
 10 21  1  0
 11 12  1  0
 11 22  1  0
 12 13  1  0
 12 17  1  0
 12 23  1  0
 13 14  1  0
 13 24  1  0
 14 15  2  0
 14 25  1  0
 15 16  1  0
 15 27  1  0
 16 17  2  0
 16 28  1  0
 17 29  1  0
M  RAD  1  13   2
M  END
>  <reaction>  (14) 
rmg_rxn_15724

>  <mol_properties>  (14) 
{"0": {"label": "*3", "atom_type": "Cs"}, "1": {"label": "*4", "atom_type": "O2s"}, "13": {"label": "*0", "atom_type": "Cd"}, "14": {"label": "*1", "atom_type": "Cs"}, "25": {"label": "*2", "atom_type": "H0"}}

>  <type>  (14) 
unop_10

>  <geom_source>  (14) 
Heuristics

$$$$

     RDKit          3D

 29 28  0  0  0  0  0  0  0  0999 V2000
   -0.3944    2.5469    0.7313 C   0  0  0  0  0  0  0  0  0  0  0  0
    0.8101    3.1103    1.2121 O   0  0  0  0  0  0  0  0  0  0  0  0
    0.8942    4.4256    0.8226 N   0  0  0  0  0  0  0  0  0  0  0  0
    1.9573    4.9738    1.2300 C   0  0  0  0  0  0  0  0  0  0  0  0
   -1.2613    3.0720    1.1387 H   0  0  0  0  0  0  0  0  0  0  0  0
   -0.4305    2.5749   -0.3601 H   0  0  0  0  0  0  0  0  0  0  0  0
    2.0996    6.0128    0.9643 H   0  0  0  0  0  0  0  0  0  0  0  0
    2.7021    4.4428    1.8189 H   0  0  0  0  0  0  0  0  0  0  0  0
   -0.3944   -3.4511   -3.9683 C   0  0  0  0  0  0  0  0  0  0  0  0
   -0.3944   -3.4511   -2.4734 C   0  0  0  0  0  0  0  0  0  0  0  0
   -0.3944   -2.3673   -1.7111 C   0  0  0  0  0  0  0  0  0  0  0  0
   -0.3944   -2.3692   -0.2017 C   0  0  0  0  0  0  0  0  0  0  0  0
   -1.6406   -1.7090    0.3255 C   0  0  0  0  0  3  0  0  0  0  0  0
   -1.6411   -0.6300    1.0938 C   0  0  0  0  0  0  0  0  0  0  0  0
   -0.3944    0.0576    1.5568 C   0  0  0  0  0  0  0  0  0  0  0  0
    0.8523   -0.6300    1.0938 C   0  0  0  0  0  0  0  0  0  0  0  0
    0.8518   -1.7090    0.3255 C   0  0  0  0  0  0  0  0  0  0  0  0
    0.4835   -3.9719   -4.3594 H   0  0  0  0  0  0  0  0  0  0  0  0
   -1.2723   -3.9719   -4.3594 H   0  0  0  0  0  0  0  0  0  0  0  0
   -0.3944   -2.4355   -4.3659 H   0  0  0  0  0  0  0  0  0  0  0  0
   -0.3944   -4.4268   -1.9912 H   0  0  0  0  0  0  0  0  0  0  0  0
   -0.3944   -1.3820   -2.1734 H   0  0  0  0  0  0  0  0  0  0  0  0
   -0.3944   -3.4186    0.1196 H   0  0  0  0  0  0  0  0  0  0  0  0
   -2.5811   -2.1585    0.0243 H   0  0  0  0  0  0  0  0  0  0  0  0
   -2.5854   -0.2085    1.4220 H   0  0  0  0  0  0  0  0  0  0  0  0
   -0.3944    1.3070    1.1425 H   0  0  0  0  0  0  0  0  0  0  0  0
   -0.3944    0.1254    2.6514 H   0  0  0  0  0  0  0  0  0  0  0  0
    1.7966   -0.2085    1.4220 H   0  0  0  0  0  0  0  0  0  0  0  0
    1.7922   -2.1585    0.0243 H   0  0  0  0  0  0  0  0  0  0  0  0
  1  2  1  0
  1  5  1  0
  1  6  1  0
  1 26  1  0
  2  3  1  0
  3  4  2  3
  4  7  1  0
  4  8  1  0
  9 10  1  0
  9 18  1  0
  9 19  1  0
  9 20  1  0
 10 11  2  3
 10 21  1  0
 11 12  1  0
 11 22  1  0
 12 13  1  0
 12 17  1  0
 12 23  1  0
 13 14  1  0
 13 24  1  0
 14 15  2  0
 14 25  1  0
 15 16  1  0
 15 27  1  0
 16 17  2  0
 16 28  1  0
 17 29  1  0
M  RAD  1  13   2
M  END
>  <reaction>  (15) 
rmg_rxn_15724

>  <mol_properties>  (15) 
{"0": {"label": "*3", "atom_type": "Cs"}, "1": {"label": "*4", "atom_type": "O2s"}, "13": {"label": "*0", "atom_type": "Cd"}, "14": {"label": "*1", "atom_type": "Cs"}, "25": {"label": "*2", "atom_type": "H0"}}

>  <type>  (15) 
unop_11

>  <geom_source>  (15) 
Heuristics

$$$$

     RDKit          3D

 29 28  0  0  0  0  0  0  0  0999 V2000
   -0.7319   -2.4479    0.5191 C   0  0  0  0  0  0  0  0  0  0  0  0
   -1.7531   -1.5115    0.7383 O   0  0  0  0  0  0  0  0  0  0  0  0
   -2.2541   -0.7782   -0.2742 N   0  0  0  0  0  0  0  0  0  0  0  0
   -1.7714   -0.7953   -1.4378 C   0  0  0  0  0  0  0  0  0  0  0  0
   -0.6684   -3.0246    1.4377 H   0  0  0  0  0  0  0  0  0  0  0  0
   -0.9315   -3.0935   -0.3396 H   0  0  0  0  0  0  0  0  0  0  0  0
   -2.2676   -0.1694   -2.1584 H   0  0  0  0  0  0  0  0  0  0  0  0
   -0.9059   -1.3606   -1.7725 H   0  0  0  0  0  0  0  0  0  0  0  0
   -2.1823    2.4562    0.4065 C   0  0  0  0  0  0  0  0  0  0  0  0
   -0.8194    1.8658    0.5313 C   0  0  0  0  0  0  0  0  0  0  0  0
    0.1497    2.0283   -0.3516 C   0  0  0  0  0  0  0  0  0  0  0  0
    1.5314    1.4026   -0.2576 C   0  0  0  0  0  0  0  0  0  0  0  0
    1.6710    0.4001   -1.3625 C   0  0  0  0  0  3  0  0  0  0  0  0
    1.7675   -0.9196   -1.1350 C   0  0  0  0  0  0  0  0  0  0  0  0
    1.7169   -1.4688    0.1936 C   0  0  0  0  0  0  0  0  0  0  0  0
    1.8923   -0.5306    1.2710 C   0  0  0  0  0  0  0  0  0  0  0  0
    1.7966    0.7942    1.0804 C   0  0  0  0  0  0  0  0  0  0  0  0
   -2.2668    3.0654   -0.4905 H   0  0  0  0  0  0  0  0  0  0  0  0
   -2.9162    1.6525    0.3631 H   0  0  0  0  0  0  0  0  0  0  0  0
   -2.4082    3.0722    1.2763 H   0  0  0  0  0  0  0  0  0  0  0  0
   -0.6550    1.2612    1.4130 H   0  0  0  0  0  0  0  0  0  0  0  0
   -0.0141    2.6198   -1.2435 H   0  0  0  0  0  0  0  0  0  0  0  0
    2.2516    2.2201   -0.4287 H   0  0  0  0  0  0  0  0  0  0  0  0
    1.6913    0.7911   -2.3692 H   0  0  0  0  0  0  0  0  0  0  0  0
    1.8646   -1.6089   -1.9639 H   0  0  0  0  0  0  0  0  0  0  0  0
    0.3971   -1.9035    0.3421 H   0  0  0  0  0  0  0  0  0  0  0  0
    2.1470   -2.4564    0.3301 H   0  0  0  0  0  0  0  0  0  0  0  0
    2.0824   -0.9281    2.2583 H   0  0  0  0  0  0  0  0  0  0  0  0
    1.9257    1.4822    1.9026 H   0  0  0  0  0  0  0  0  0  0  0  0
  1  2  1  0
  1  5  1  0
  1  6  1  0
  1 26  1  0
  2  3  1  0
  3  4  2  3
  4  7  1  0
  4  8  1  0
  9 10  1  0
  9 18  1  0
  9 19  1  0
  9 20  1  0
 10 11  2  3
 10 21  1  0
 11 12  1  0
 11 22  1  0
 12 13  1  0
 12 17  1  0
 12 23  1  0
 13 14  1  0
 13 24  1  0
 14 15  2  0
 14 25  1  0
 15 16  1  0
 15 27  1  0
 16 17  2  0
 16 28  1  0
 17 29  1  0
M  RAD  1  13   2
M  END
>  <reaction>  (16) 
rmg_rxn_15724

>  <mol_properties>  (16) 
{"0": {"label": "*3", "atom_type": "Cs"}, "1": {"label": "*4", "atom_type": "O2s"}, "13": {"label": "*0", "atom_type": "Cd"}, "14": {"label": "*1", "atom_type": "Cs"}, "25": {"label": "*2", "atom_type": "H0"}}

>  <type>  (16) 
unop_12

>  <geom_source>  (16) 
Heuristics

$$$$

     RDKit          3D

 29 28  0  0  0  0  0  0  0  0999 V2000
    0.7386   -2.4449   -0.5201 C   0  0  0  0  0  0  0  0  0  0  0  0
    1.7581   -1.5063   -0.7384 O   0  0  0  0  0  0  0  0  0  0  0  0
    2.2571   -0.7723    0.2746 N   0  0  0  0  0  0  0  0  0  0  0  0
    1.7740   -0.7908    1.4380 C   0  0  0  0  0  0  0  0  0  0  0  0
    0.6771   -3.0217   -1.4389 H   0  0  0  0  0  0  0  0  0  0  0  0
    0.9390   -3.0901    0.3386 H   0  0  0  0  0  0  0  0  0  0  0  0
    2.2685   -0.1640    2.1588 H   0  0  0  0  0  0  0  0  0  0  0  0
    0.9095   -1.3579    1.7721 H   0  0  0  0  0  0  0  0  0  0  0  0
    2.1756    2.4603   -0.4073 C   0  0  0  0  0  0  0  0  0  0  0  0
    0.8137    1.8676   -0.5317 C   0  0  0  0  0  0  0  0  0  0  0  0
   -0.1547    2.0268    0.3525 C   0  0  0  0  0  0  0  0  0  0  0  0
   -1.5354    1.3986    0.2589 C   0  0  0  0  0  0  0  0  0  0  0  0
   -1.6720    0.3948    1.3631 C   0  0  0  0  0  3  0  0  0  0  0  0
   -1.7648   -0.9249    1.1344 C   0  0  0  0  0  0  0  0  0  0  0  0
   -1.7129   -1.4728   -0.1946 C   0  0  0  0  0  0  0  0  0  0  0  0
   -1.8919   -0.5342   -1.2711 C   0  0  0  0  0  0  0  0  0  0  0  0
   -1.8003    0.7908   -1.0793 C   0  0  0  0  0  0  0  0  0  0  0  0
    2.3986    3.0798   -1.2753 H   0  0  0  0  0  0  0  0  0  0  0  0
    2.2606    3.0664    0.4915 H   0  0  0  0  0  0  0  0  0  0  0  0
    2.9112    1.6581   -0.3681 H   0  0  0  0  0  0  0  0  0  0  0  0
    0.6495    1.2641   -1.4143 H   0  0  0  0  0  0  0  0  0  0  0  0
    0.0089    2.6171    1.2453 H   0  0  0  0  0  0  0  0  0  0  0  0
   -2.2570    2.2145    0.4313 H   0  0  0  0  0  0  0  0  0  0  0  0
   -1.6932    0.7850    2.3701 H   0  0  0  0  0  0  0  0  0  0  0  0
   -1.8597   -1.6153    1.9628 H   0  0  0  0  0  0  0  0  0  0  0  0
   -0.3918   -1.9032   -0.3437 H   0  0  0  0  0  0  0  0  0  0  0  0
   -2.1399   -2.4616   -0.3319 H   0  0  0  0  0  0  0  0  0  0  0  0
   -2.0815   -0.9314   -2.2587 H   0  0  0  0  0  0  0  0  0  0  0  0
   -1.9323    1.4792   -1.9008 H   0  0  0  0  0  0  0  0  0  0  0  0
  1  2  1  0
  1  5  1  0
  1  6  1  0
  1 26  1  0
  2  3  1  0
  3  4  2  3
  4  7  1  0
  4  8  1  0
  9 10  1  0
  9 18  1  0
  9 19  1  0
  9 20  1  0
 10 11  2  3
 10 21  1  0
 11 12  1  0
 11 22  1  0
 12 13  1  0
 12 17  1  0
 12 23  1  0
 13 14  1  0
 13 24  1  0
 14 15  2  0
 14 25  1  0
 15 16  1  0
 15 27  1  0
 16 17  2  0
 16 28  1  0
 17 29  1  0
M  RAD  1  13   2
M  END
>  <reaction>  (17) 
rmg_rxn_15724

>  <mol_properties>  (17) 
{"0": {"label": "*3", "atom_type": "Cs"}, "1": {"label": "*4", "atom_type": "O2s"}, "13": {"label": "*0", "atom_type": "Cd"}, "14": {"label": "*1", "atom_type": "Cs"}, "25": {"label": "*2", "atom_type": "H0"}}

>  <type>  (17) 
unop_13

>  <geom_source>  (17) 
Heuristics

$$$$

     RDKit          3D

 29 28  0  0  0  0  0  0  0  0999 V2000
   -0.3311    2.7629    1.2403 C   0  0  0  0  0  0  0  0  0  0  0  0
    0.3026    2.7476   -0.0237 O   0  0  0  0  0  0  0  0  0  0  0  0
    1.0951    3.8623   -0.1579 N   0  0  0  0  0  0  0  0  0  0  0  0
    1.6844    3.8934   -1.2753 C   0  0  0  0  0  0  0  0  0  0  0  0
    0.4054    2.7482    2.0469 H   0  0  0  0  0  0  0  0  0  0  0  0
   -0.9707    3.6420    1.3461 H   0  0  0  0  0  0  0  0  0  0  0  0
    2.3295    4.7420   -1.4597 H   0  0  0  0  0  0  0  0  0  0  0  0
    1.5605    3.1150   -2.0252 H   0  0  0  0  0  0  0  0  0  0  0  0
   -0.3311   -3.2352   -3.4592 C   0  0  0  0  0  0  0  0  0  0  0  0
   -0.3311   -3.2352   -1.9643 C   0  0  0  0  0  0  0  0  0  0  0  0
   -0.3311   -2.1514   -1.2021 C   0  0  0  0  0  0  0  0  0  0  0  0
   -0.3311   -2.1533    0.3074 C   0  0  0  0  0  0  0  0  0  0  0  0
   -1.5773   -1.4931    0.8346 C   0  0  0  0  0  3  0  0  0  0  0  0
   -1.5778   -0.4141    1.6029 C   0  0  0  0  0  0  0  0  0  0  0  0
   -0.3311    0.2736    2.0659 C   0  0  0  0  0  0  0  0  0  0  0  0
    0.9156   -0.4141    1.6029 C   0  0  0  0  0  0  0  0  0  0  0  0
    0.9151   -1.4931    0.8346 C   0  0  0  0  0  0  0  0  0  0  0  0
    0.5468   -3.7559   -3.8504 H   0  0  0  0  0  0  0  0  0  0  0  0
   -1.2090   -3.7559   -3.8504 H   0  0  0  0  0  0  0  0  0  0  0  0
   -0.3311   -2.2196   -3.8569 H   0  0  0  0  0  0  0  0  0  0  0  0
   -0.3311   -4.2108   -1.4822 H   0  0  0  0  0  0  0  0  0  0  0  0
   -0.3311   -1.1661   -1.6643 H   0  0  0  0  0  0  0  0  0  0  0  0
   -0.3311   -3.2027    0.6287 H   0  0  0  0  0  0  0  0  0  0  0  0
   -2.5177   -1.9425    0.5333 H   0  0  0  0  0  0  0  0  0  0  0  0
   -2.5221    0.0074    1.9311 H   0  0  0  0  0  0  0  0  0  0  0  0
   -0.3311    1.5229    1.6516 H   0  0  0  0  0  0  0  0  0  0  0  0
   -0.3311    0.3413    3.1604 H   0  0  0  0  0  0  0  0  0  0  0  0
    1.8599    0.0074    1.9311 H   0  0  0  0  0  0  0  0  0  0  0  0
    1.8555   -1.9425    0.5333 H   0  0  0  0  0  0  0  0  0  0  0  0
  1  2  1  0
  1  5  1  0
  1  6  1  0
  1 26  1  0
  2  3  1  0
  3  4  2  3
  4  7  1  0
  4  8  1  0
  9 10  1  0
  9 18  1  0
  9 19  1  0
  9 20  1  0
 10 11  2  3
 10 21  1  0
 11 12  1  0
 11 22  1  0
 12 13  1  0
 12 17  1  0
 12 23  1  0
 13 14  1  0
 13 24  1  0
 14 15  2  0
 14 25  1  0
 15 16  1  0
 15 27  1  0
 16 17  2  0
 16 28  1  0
 17 29  1  0
M  RAD  1  13   2
M  END
>  <reaction>  (18) 
rmg_rxn_15724

>  <mol_properties>  (18) 
{"0": {"label": "*3", "atom_type": "Cs"}, "1": {"label": "*4", "atom_type": "O2s"}, "13": {"label": "*0", "atom_type": "Cd"}, "14": {"label": "*1", "atom_type": "Cs"}, "25": {"label": "*2", "atom_type": "H0"}}

>  <type>  (18) 
unop_14

>  <geom_source>  (18) 
Heuristics

$$$$

     RDKit          3D

 29 28  0  0  0  0  0  0  0  0999 V2000
    0.7323   -2.4473   -0.5196 C   0  0  0  0  0  0  0  0  0  0  0  0
    1.7543   -1.5115   -0.7378 O   0  0  0  0  0  0  0  0  0  0  0  0
    2.2541   -0.7777    0.2750 N   0  0  0  0  0  0  0  0  0  0  0  0
    1.7695   -0.7937    1.4378 C   0  0  0  0  0  0  0  0  0  0  0  0
    0.6701   -3.0247   -1.4379 H   0  0  0  0  0  0  0  0  0  0  0  0
    0.9302   -3.0924    0.3399 H   0  0  0  0  0  0  0  0  0  0  0  0
    2.2649   -0.1675    2.1587 H   0  0  0  0  0  0  0  0  0  0  0  0
    0.9032   -1.3582    1.7715 H   0  0  0  0  0  0  0  0  0  0  0  0
    2.1823    2.4549   -0.4078 C   0  0  0  0  0  0  0  0  0  0  0  0
    0.8189    1.8655   -0.5317 C   0  0  0  0  0  0  0  0  0  0  0  0
   -0.1488    2.0270    0.3527 C   0  0  0  0  0  0  0  0  0  0  0  0
   -1.5310    1.4023    0.2595 C   0  0  0  0  0  0  0  0  0  0  0  0
   -1.6701    0.3982    1.3631 C   0  0  0  0  0  3  0  0  0  0  0  0
   -1.7670   -0.9211    1.1338 C   0  0  0  0  0  0  0  0  0  0  0  0
   -1.7168   -1.4685   -0.1956 C   0  0  0  0  0  0  0  0  0  0  0  0
   -1.8932   -0.5288   -1.2715 C   0  0  0  0  0  0  0  0  0  0  0  0
   -1.7978    0.7958   -1.0791 C   0  0  0  0  0  0  0  0  0  0  0  0
    2.9160    1.6508   -0.3686 H   0  0  0  0  0  0  0  0  0  0  0  0
    2.4066    3.0737   -1.2760 H   0  0  0  0  0  0  0  0  0  0  0  0
    2.2690    3.0610    0.4909 H   0  0  0  0  0  0  0  0  0  0  0  0
    0.6530    1.2625   -1.4143 H   0  0  0  0  0  0  0  0  0  0  0  0
    0.0165    2.6169    1.2455 H   0  0  0  0  0  0  0  0  0  0  0  0
   -2.2506    2.2199    0.4325 H   0  0  0  0  0  0  0  0  0  0  0  0
   -1.6896    0.7879    2.3704 H   0  0  0  0  0  0  0  0  0  0  0  0
   -1.8636   -1.6117    1.9617 H   0  0  0  0  0  0  0  0  0  0  0  0
   -0.3969   -1.9026   -0.3445 H   0  0  0  0  0  0  0  0  0  0  0  0
   -2.1467   -2.4560   -0.3333 H   0  0  0  0  0  0  0  0  0  0  0  0
   -2.0841   -0.9249   -2.2593 H   0  0  0  0  0  0  0  0  0  0  0  0
   -1.9280    1.4850   -1.9001 H   0  0  0  0  0  0  0  0  0  0  0  0
  1  2  1  0
  1  5  1  0
  1  6  1  0
  1 26  1  0
  2  3  1  0
  3  4  2  3
  4  7  1  0
  4  8  1  0
  9 10  1  0
  9 18  1  0
  9 19  1  0
  9 20  1  0
 10 11  2  3
 10 21  1  0
 11 12  1  0
 11 22  1  0
 12 13  1  0
 12 17  1  0
 12 23  1  0
 13 14  1  0
 13 24  1  0
 14 15  2  0
 14 25  1  0
 15 16  1  0
 15 27  1  0
 16 17  2  0
 16 28  1  0
 17 29  1  0
M  RAD  1  13   2
M  END
>  <reaction>  (19) 
rmg_rxn_15724

>  <mol_properties>  (19) 
{"0": {"label": "*3", "atom_type": "Cs"}, "1": {"label": "*4", "atom_type": "O2s"}, "13": {"label": "*0", "atom_type": "Cd"}, "14": {"label": "*1", "atom_type": "Cs"}, "25": {"label": "*2", "atom_type": "H0"}}

>  <type>  (19) 
unop_15

>  <geom_source>  (19) 
Heuristics

$$$$

     RDKit          3D

 29 28  0  0  0  0  0  0  0  0999 V2000
   -0.4568    2.6951    1.0418 C   0  0  0  0  0  0  0  0  0  0  0  0
    0.6943    2.8303    0.2317 O   0  0  0  0  0  0  0  0  0  0  0  0
    1.2584    4.0675    0.4314 N   0  0  0  0  0  0  0  0  0  0  0  0
    2.2936    4.2360   -0.2733 C   0  0  0  0  0  0  0  0  0  0  0  0
   -0.2015    2.7788    2.1005 H   0  0  0  0  0  0  0  0  0  0  0  0
   -1.2052    3.4485    0.7861 H   0  0  0  0  0  0  0  0  0  0  0  0
    2.7983    5.1877   -0.1737 H   0  0  0  0  0  0  0  0  0  0  0  0
    2.6720    3.4735   -0.9508 H   0  0  0  0  0  0  0  0  0  0  0  0
   -0.4568   -3.3030   -3.6578 C   0  0  0  0  0  0  0  0  0  0  0  0
   -0.4568   -3.3030   -2.1629 C   0  0  0  0  0  0  0  0  0  0  0  0
   -0.4568   -2.2191   -1.4006 C   0  0  0  0  0  0  0  0  0  0  0  0
   -0.4568   -2.2211    0.1088 C   0  0  0  0  0  0  0  0  0  0  0  0
   -1.7031   -1.5609    0.6360 C   0  0  0  0  0  3  0  0  0  0  0  0
   -1.7035   -0.4818    1.4043 C   0  0  0  0  0  0  0  0  0  0  0  0
   -0.4568    0.2058    1.8673 C   0  0  0  0  0  0  0  0  0  0  0  0
    0.7899   -0.4818    1.4043 C   0  0  0  0  0  0  0  0  0  0  0  0
    0.7894   -1.5609    0.6360 C   0  0  0  0  0  0  0  0  0  0  0  0
    0.4211   -3.8237   -4.0489 H   0  0  0  0  0  0  0  0  0  0  0  0
   -1.3347   -3.8237   -4.0489 H   0  0  0  0  0  0  0  0  0  0  0  0
   -0.4568   -2.2874   -4.0554 H   0  0  0  0  0  0  0  0  0  0  0  0
   -0.4568   -4.2786   -1.6807 H   0  0  0  0  0  0  0  0  0  0  0  0
   -0.4568   -1.2339   -1.8629 H   0  0  0  0  0  0  0  0  0  0  0  0
   -0.4568   -3.2704    0.4301 H   0  0  0  0  0  0  0  0  0  0  0  0
   -2.6435   -2.0103    0.3348 H   0  0  0  0  0  0  0  0  0  0  0  0
   -2.6478   -0.0604    1.7325 H   0  0  0  0  0  0  0  0  0  0  0  0
   -0.4568    1.4551    1.4530 H   0  0  0  0  0  0  0  0  0  0  0  0
   -0.4568    0.2735    2.9619 H   0  0  0  0  0  0  0  0  0  0  0  0
    1.7341   -0.0604    1.7325 H   0  0  0  0  0  0  0  0  0  0  0  0
    1.7298   -2.0103    0.3348 H   0  0  0  0  0  0  0  0  0  0  0  0
  1  2  1  0
  1  5  1  0
  1  6  1  0
  1 26  1  0
  2  3  1  0
  3  4  2  3
  4  7  1  0
  4  8  1  0
  9 10  1  0
  9 18  1  0
  9 19  1  0
  9 20  1  0
 10 11  2  3
 10 21  1  0
 11 12  1  0
 11 22  1  0
 12 13  1  0
 12 17  1  0
 12 23  1  0
 13 14  1  0
 13 24  1  0
 14 15  2  0
 14 25  1  0
 15 16  1  0
 15 27  1  0
 16 17  2  0
 16 28  1  0
 17 29  1  0
M  RAD  1  13   2
M  END
>  <reaction>  (20) 
rmg_rxn_15724

>  <mol_properties>  (20) 
{"0": {"label": "*3", "atom_type": "Cs"}, "1": {"label": "*4", "atom_type": "O2s"}, "13": {"label": "*0", "atom_type": "Cd"}, "14": {"label": "*1", "atom_type": "Cs"}, "25": {"label": "*2", "atom_type": "H0"}}

>  <type>  (20) 
unop_16

>  <geom_source>  (20) 
Heuristics

$$$$

     RDKit          3D

 29 28  0  0  0  0  0  0  0  0999 V2000
    0.7401   -2.4472    0.5143 C   0  0  0  0  0  0  0  0  0  0  0  0
    1.7587   -1.5090    0.7376 O   0  0  0  0  0  0  0  0  0  0  0  0
    2.2587   -0.7709   -0.2720 N   0  0  0  0  0  0  0  0  0  0  0  0
    1.7769   -0.7851   -1.4360 C   0  0  0  0  0  0  0  0  0  0  0  0
    0.9417   -3.0889   -0.3468 H   0  0  0  0  0  0  0  0  0  0  0  0
    0.6777   -3.0277    1.4307 H   0  0  0  0  0  0  0  0  0  0  0  0
    2.2722   -0.1555   -2.1539 H   0  0  0  0  0  0  0  0  0  0  0  0
    0.9131   -1.3512   -1.7734 H   0  0  0  0  0  0  0  0  0  0  0  0
    2.1733    2.4635    0.4058 C   0  0  0  0  0  0  0  0  0  0  0  0
    0.8126    1.8681    0.5312 C   0  0  0  0  0  0  0  0  0  0  0  0
   -0.1581    2.0287   -0.3502 C   0  0  0  0  0  0  0  0  0  0  0  0
   -1.5374    1.3980   -0.2557 C   0  0  0  0  0  0  0  0  0  0  0  0
   -1.7991    0.7870    1.0818 C   0  0  0  0  0  3  0  0  0  0  0  0
   -1.8896   -0.5385    1.2708 C   0  0  0  0  0  0  0  0  0  0  0  0
   -1.7117   -1.4747    0.1921 C   0  0  0  0  0  0  0  0  0  0  0  0
   -1.7654   -0.9240   -1.1357 C   0  0  0  0  0  0  0  0  0  0  0  0
   -1.6742    0.3963   -1.3617 C   0  0  0  0  0  0  0  0  0  0  0  0
    2.2559    3.0711   -0.4923 H   0  0  0  0  0  0  0  0  0  0  0  0
    2.3963    3.0822    1.2744 H   0  0  0  0  0  0  0  0  0  0  0  0
    2.9104    1.6626    0.3646 H   0  0  0  0  0  0  0  0  0  0  0  0
    0.6513    1.2616    1.4122 H   0  0  0  0  0  0  0  0  0  0  0  0
    0.0026    2.6222   -1.2415 H   0  0  0  0  0  0  0  0  0  0  0  0
   -2.2608    2.2131   -0.4250 H   0  0  0  0  0  0  0  0  0  0  0  0
   -1.9301    1.4734    1.9050 H   0  0  0  0  0  0  0  0  0  0  0  0
   -2.0773   -0.9379    2.2578 H   0  0  0  0  0  0  0  0  0  0  0  0
   -0.3904   -1.9053    0.3390 H   0  0  0  0  0  0  0  0  0  0  0  0
   -2.1384   -2.4639    0.3277 H   0  0  0  0  0  0  0  0  0  0  0  0
   -1.8605   -1.6127   -1.9654 H   0  0  0  0  0  0  0  0  0  0  0  0
   -1.6969    0.7886   -2.3679 H   0  0  0  0  0  0  0  0  0  0  0  0
  1  2  1  0
  1  5  1  0
  1  6  1  0
  1 26  1  0
  2  3  1  0
  3  4  2  3
  4  7  1  0
  4  8  1  0
  9 10  1  0
  9 18  1  0
  9 19  1  0
  9 20  1  0
 10 11  2  3
 10 21  1  0
 11 12  1  0
 11 22  1  0
 12 13  1  0
 12 17  1  0
 12 23  1  0
 13 14  1  0
 13 24  1  0
 14 15  2  0
 14 25  1  0
 15 16  1  0
 15 27  1  0
 16 17  2  0
 16 28  1  0
 17 29  1  0
M  RAD  1  13   2
M  END
>  <reaction>  (21) 
rmg_rxn_15724

>  <mol_properties>  (21) 
{"0": {"label": "*3", "atom_type": "Cs"}, "1": {"label": "*4", "atom_type": "O2s"}, "13": {"label": "*0", "atom_type": "Cd"}, "14": {"label": "*1", "atom_type": "Cs"}, "25": {"label": "*2", "atom_type": "H0"}}

>  <type>  (21) 
unop_17

>  <geom_source>  (21) 
Heuristics

$$$$

     RDKit          3D

 29 28  0  0  0  0  0  0  0  0999 V2000
    0.0956    2.5075    0.4704 C   0  0  0  0  0  0  0  0  0  0  0  0
   -0.5381    3.2506    1.4931 O   0  0  0  0  0  0  0  0  0  0  0  0
    0.0949    4.4607    1.6464 N   0  0  0  0  0  0  0  0  0  0  0  0
   -0.4373    5.1629    2.5523 C   0  0  0  0  0  0  0  0  0  0  0  0
    0.0442    3.0348   -0.4848 H   0  0  0  0  0  0  0  0  0  0  0  0
    1.1399    2.3087    0.7218 H   0  0  0  0  0  0  0  0  0  0  0  0
    0.0039    6.1334    2.7356 H   0  0  0  0  0  0  0  0  0  0  0  0
   -1.2959    4.8240    3.1281 H   0  0  0  0  0  0  0  0  0  0  0  0
    0.0956   -3.4905   -4.2291 C   0  0  0  0  0  0  0  0  0  0  0  0
    0.0956   -3.4905   -2.7342 C   0  0  0  0  0  0  0  0  0  0  0  0
    0.0956   -2.4067   -1.9720 C   0  0  0  0  0  0  0  0  0  0  0  0
    0.0956   -2.4086   -0.4625 C   0  0  0  0  0  0  0  0  0  0  0  0
   -1.1506   -1.7484    0.0647 C   0  0  0  0  0  3  0  0  0  0  0  0
   -1.1510   -0.6694    0.8330 C   0  0  0  0  0  0  0  0  0  0  0  0
    0.0956    0.0182    1.2960 C   0  0  0  0  0  0  0  0  0  0  0  0
    1.3423   -0.6694    0.8330 C   0  0  0  0  0  0  0  0  0  0  0  0
    1.3419   -1.7484    0.0647 C   0  0  0  0  0  0  0  0  0  0  0  0
    0.9736   -4.0113   -4.6203 H   0  0  0  0  0  0  0  0  0  0  0  0
   -0.7823   -4.0113   -4.6203 H   0  0  0  0  0  0  0  0  0  0  0  0
    0.0956   -2.4749   -4.6268 H   0  0  0  0  0  0  0  0  0  0  0  0
    0.0956   -4.4662   -2.2521 H   0  0  0  0  0  0  0  0  0  0  0  0
    0.0956   -1.4214   -2.4342 H   0  0  0  0  0  0  0  0  0  0  0  0
    0.0956   -3.4580   -0.1412 H   0  0  0  0  0  0  0  0  0  0  0  0
   -2.0910   -2.1979   -0.2366 H   0  0  0  0  0  0  0  0  0  0  0  0
   -2.0953   -0.2480    1.1612 H   0  0  0  0  0  0  0  0  0  0  0  0
    0.0956    1.2676    0.8817 H   0  0  0  0  0  0  0  0  0  0  0  0
    0.0956    0.0860    2.3905 H   0  0  0  0  0  0  0  0  0  0  0  0
    2.2866   -0.2480    1.1612 H   0  0  0  0  0  0  0  0  0  0  0  0
    2.2823   -2.1979   -0.2366 H   0  0  0  0  0  0  0  0  0  0  0  0
  1  2  1  0
  1  5  1  0
  1  6  1  0
  1 26  1  0
  2  3  1  0
  3  4  2  3
  4  7  1  0
  4  8  1  0
  9 10  1  0
  9 18  1  0
  9 19  1  0
  9 20  1  0
 10 11  2  3
 10 21  1  0
 11 12  1  0
 11 22  1  0
 12 13  1  0
 12 17  1  0
 12 23  1  0
 13 14  1  0
 13 24  1  0
 14 15  2  0
 14 25  1  0
 15 16  1  0
 15 27  1  0
 16 17  2  0
 16 28  1  0
 17 29  1  0
M  RAD  1  13   2
M  END
>  <reaction>  (22) 
rmg_rxn_15724

>  <mol_properties>  (22) 
{"0": {"label": "*3", "atom_type": "Cs"}, "1": {"label": "*4", "atom_type": "O2s"}, "13": {"label": "*0", "atom_type": "Cd"}, "14": {"label": "*1", "atom_type": "Cs"}, "25": {"label": "*2", "atom_type": "H0"}}

>  <type>  (22) 
unop_18

>  <geom_source>  (22) 
Heuristics

$$$$

     RDKit          3D

 29 28  0  0  0  0  0  0  0  0999 V2000
   -2.3145   -0.7811   -1.1378 C   0  0  0  0  0  0  0  0  0  0  0  0
   -2.0643   -1.7816   -0.1897 O   0  0  0  0  0  0  0  0  0  0  0  0
   -0.7216   -2.0830   -0.1086 N   0  0  0  0  0  0  0  0  0  0  0  0
   -0.3872   -2.9051    0.7856 C   0  0  0  0  0  0  0  0  0  0  0  0
   -1.6787   -0.8791   -2.0170 H   0  0  0  0  0  0  0  0  0  0  0  0
   -3.3711   -0.8364   -1.3838 H   0  0  0  0  0  0  0  0  0  0  0  0
    0.6588   -3.1475    0.8473 H   0  0  0  0  0  0  0  0  0  0  0  0
   -1.0804   -3.3730    1.4782 H   0  0  0  0  0  0  0  0  0  0  0  0
    3.5951   -1.3195   -0.5796 C   0  0  0  0  0  0  0  0  0  0  0  0
    2.9851   -0.0566   -0.0667 C   0  0  0  0  0  0  0  0  0  0  0  0
    1.6901    0.2043   -0.0935 C   0  0  0  0  0  0  0  0  0  0  0  0
    1.0595    1.4807    0.4280 C   0  0  0  0  0  0  0  0  0  0  0  0
    0.0653    1.1310    1.4923 C   0  0  0  0  0  3  0  0  0  0  0  0
   -1.2597    1.1731    1.2835 C   0  0  0  0  0  0  0  0  0  0  0  0
   -1.8154    1.5611    0.0130 C   0  0  0  0  0  0  0  0  0  0  0  0
   -0.9166    2.2327   -0.8889 C   0  0  0  0  0  0  0  0  0  0  0  0
    0.4135    2.2064   -0.7122 C   0  0  0  0  0  0  0  0  0  0  0  0
    2.8304   -1.9840   -0.9737 H   0  0  0  0  0  0  0  0  0  0  0  0
    4.3130   -1.0990   -1.3695 H   0  0  0  0  0  0  0  0  0  0  0  0
    4.1323   -1.8309    0.2193 H   0  0  0  0  0  0  0  0  0  0  0  0
    3.6829    0.6644    0.3426 H   0  0  0  0  0  0  0  0  0  0  0  0
    0.9883   -0.5147   -0.4925 H   0  0  0  0  0  0  0  0  0  0  0  0
    1.8608    2.0999    0.8550 H   0  0  0  0  0  0  0  0  0  0  0  0
    0.4697    0.8246    2.4454 H   0  0  0  0  0  0  0  0  0  0  0  0
   -1.9457    0.8913    2.0703 H   0  0  0  0  0  0  0  0  0  0  0  0
   -2.0724    0.3465   -0.6180 H   0  0  0  0  0  0  0  0  0  0  0  0
   -2.8480    1.8959    0.0133 H   0  0  0  0  0  0  0  0  0  0  0  0
   -1.3448    2.7515   -1.7357 H   0  0  0  0  0  0  0  0  0  0  0  0
    1.0776    2.7050   -1.4022 H   0  0  0  0  0  0  0  0  0  0  0  0
  1  2  1  0
  1  5  1  0
  1  6  1  0
  1 26  1  0
  2  3  1  0
  3  4  2  3
  4  7  1  0
  4  8  1  0
  9 10  1  0
  9 18  1  0
  9 19  1  0
  9 20  1  0
 10 11  2  3
 10 21  1  0
 11 12  1  0
 11 22  1  0
 12 13  1  0
 12 17  1  0
 12 23  1  0
 13 14  1  0
 13 24  1  0
 14 15  2  0
 14 25  1  0
 15 16  1  0
 15 27  1  0
 16 17  2  0
 16 28  1  0
 17 29  1  0
M  RAD  1  13   2
M  END
>  <reaction>  (23) 
rmg_rxn_15724

>  <mol_properties>  (23) 
{"0": {"label": "*3", "atom_type": "Cs"}, "1": {"label": "*4", "atom_type": "O2s"}, "13": {"label": "*0", "atom_type": "Cd"}, "14": {"label": "*1", "atom_type": "Cs"}, "25": {"label": "*2", "atom_type": "H0"}}

>  <type>  (23) 
unop_19

>  <geom_source>  (23) 
Heuristics

$$$$

     RDKit          3D

 29 28  0  0  0  0  0  0  0  0999 V2000
    0.1820    2.7532    1.3195 C   0  0  0  0  0  0  0  0  0  0  0  0
   -0.5443    2.7547    0.1062 O   0  0  0  0  0  0  0  0  0  0  0  0
   -0.2570    3.8956   -0.6042 N   0  0  0  0  0  0  0  0  0  0  0  0
   -0.8845    3.9426   -1.6999 C   0  0  0  0  0  0  0  0  0  0  0  0
    1.2578    2.7672    1.1308 H   0  0  0  0  0  0  0  0  0  0  0  0
   -0.0910    3.6102    1.9393 H   0  0  0  0  0  0  0  0  0  0  0  0
   -0.7127    4.8122   -2.3201 H   0  0  0  0  0  0  0  0  0  0  0  0
   -1.5665    3.1574   -2.0190 H   0  0  0  0  0  0  0  0  0  0  0  0
    0.1820   -3.2448   -3.3801 C   0  0  0  0  0  0  0  0  0  0  0  0
    0.1820   -3.2448   -1.8852 C   0  0  0  0  0  0  0  0  0  0  0  0
    0.1820   -2.1610   -1.1229 C   0  0  0  0  0  0  0  0  0  0  0  0
    0.1820   -2.1629    0.3865 C   0  0  0  0  0  0  0  0  0  0  0  0
   -1.0642   -1.5027    0.9137 C   0  0  0  0  0  3  0  0  0  0  0  0
   -1.0647   -0.4237    1.6820 C   0  0  0  0  0  0  0  0  0  0  0  0
    0.1820    0.2639    2.1450 C   0  0  0  0  0  0  0  0  0  0  0  0
    1.4287   -0.4237    1.6820 C   0  0  0  0  0  0  0  0  0  0  0  0
    1.4282   -1.5027    0.9137 C   0  0  0  0  0  0  0  0  0  0  0  0
    1.0599   -3.7656   -3.7712 H   0  0  0  0  0  0  0  0  0  0  0  0
   -0.6959   -3.7656   -3.7712 H   0  0  0  0  0  0  0  0  0  0  0  0
    0.1820   -2.2292   -3.7777 H   0  0  0  0  0  0  0  0  0  0  0  0
    0.1820   -4.2205   -1.4030 H   0  0  0  0  0  0  0  0  0  0  0  0
    0.1820   -1.1757   -1.5852 H   0  0  0  0  0  0  0  0  0  0  0  0
    0.1820   -3.2123    0.7078 H   0  0  0  0  0  0  0  0  0  0  0  0
   -2.0046   -1.9522    0.6125 H   0  0  0  0  0  0  0  0  0  0  0  0
   -2.0090   -0.0022    2.0102 H   0  0  0  0  0  0  0  0  0  0  0  0
    0.1820    1.5133    1.7307 H   0  0  0  0  0  0  0  0  0  0  0  0
    0.1820    0.3317    3.2396 H   0  0  0  0  0  0  0  0  0  0  0  0
    2.3730   -0.0022    2.0102 H   0  0  0  0  0  0  0  0  0  0  0  0
    2.3686   -1.9522    0.6125 H   0  0  0  0  0  0  0  0  0  0  0  0
  1  2  1  0
  1  5  1  0
  1  6  1  0
  1 26  1  0
  2  3  1  0
  3  4  2  3
  4  7  1  0
  4  8  1  0
  9 10  1  0
  9 18  1  0
  9 19  1  0
  9 20  1  0
 10 11  2  3
 10 21  1  0
 11 12  1  0
 11 22  1  0
 12 13  1  0
 12 17  1  0
 12 23  1  0
 13 14  1  0
 13 24  1  0
 14 15  2  0
 14 25  1  0
 15 16  1  0
 15 27  1  0
 16 17  2  0
 16 28  1  0
 17 29  1  0
M  RAD  1  13   2
M  END
>  <reaction>  (24) 
rmg_rxn_15724

>  <mol_properties>  (24) 
{"0": {"label": "*3", "atom_type": "Cs"}, "1": {"label": "*4", "atom_type": "O2s"}, "13": {"label": "*0", "atom_type": "Cd"}, "14": {"label": "*1", "atom_type": "Cs"}, "25": {"label": "*2", "atom_type": "H0"}}

>  <type>  (24) 
unop_20

>  <geom_source>  (24) 
Heuristics

$$$$

     RDKit          3D

 29 28  0  0  0  0  0  0  0  0999 V2000
    0.3241    2.5353    0.5977 C   0  0  0  0  0  0  0  0  0  0  0  0
   -0.8270    3.1278    1.1664 O   0  0  0  0  0  0  0  0  0  0  0  0
   -0.5875    4.4577    1.4172 N   0  0  0  0  0  0  0  0  0  0  0  0
   -1.5907    5.0321    1.9276 C   0  0  0  0  0  0  0  0  0  0  0  0
    0.5815    3.0129   -0.3503 H   0  0  0  0  0  0  0  0  0  0  0  0
    1.1741    2.5986    1.2809 H   0  0  0  0  0  0  0  0  0  0  0  0
   -1.4829    6.0841    2.1557 H   0  0  0  0  0  0  0  0  0  0  0  0
   -2.5228    4.5105    2.1338 H   0  0  0  0  0  0  0  0  0  0  0  0
    0.3241   -3.4627   -4.1018 C   0  0  0  0  0  0  0  0  0  0  0  0
    0.3241   -3.4627   -2.6069 C   0  0  0  0  0  0  0  0  0  0  0  0
    0.3241   -2.3789   -1.8447 C   0  0  0  0  0  0  0  0  0  0  0  0
    0.3241   -2.3809   -0.3352 C   0  0  0  0  0  0  0  0  0  0  0  0
   -0.9221   -1.7206    0.1920 C   0  0  0  0  0  3  0  0  0  0  0  0
   -0.9226   -0.6416    0.9603 C   0  0  0  0  0  0  0  0  0  0  0  0
    0.3241    0.0460    1.4233 C   0  0  0  0  0  0  0  0  0  0  0  0
    1.5708   -0.6416    0.9603 C   0  0  0  0  0  0  0  0  0  0  0  0
    1.5703   -1.7206    0.1920 C   0  0  0  0  0  0  0  0  0  0  0  0
    1.2020   -3.9835   -4.4930 H   0  0  0  0  0  0  0  0  0  0  0  0
   -0.5538   -3.9835   -4.4930 H   0  0  0  0  0  0  0  0  0  0  0  0
    0.3241   -2.4471   -4.4994 H   0  0  0  0  0  0  0  0  0  0  0  0
    0.3241   -4.4384   -2.1247 H   0  0  0  0  0  0  0  0  0  0  0  0
    0.3241   -1.3937   -2.3069 H   0  0  0  0  0  0  0  0  0  0  0  0
    0.3241   -3.4302   -0.0139 H   0  0  0  0  0  0  0  0  0  0  0  0
   -1.8625   -2.1701   -0.1093 H   0  0  0  0  0  0  0  0  0  0  0  0
   -1.8669   -0.2202    1.2885 H   0  0  0  0  0  0  0  0  0  0  0  0
    0.3241    1.2954    1.0090 H   0  0  0  0  0  0  0  0  0  0  0  0
    0.3241    0.1138    2.5179 H   0  0  0  0  0  0  0  0  0  0  0  0
    2.5151   -0.2202    1.2885 H   0  0  0  0  0  0  0  0  0  0  0  0
    2.5107   -2.1701   -0.1093 H   0  0  0  0  0  0  0  0  0  0  0  0
  1  2  1  0
  1  5  1  0
  1  6  1  0
  1 26  1  0
  2  3  1  0
  3  4  2  3
  4  7  1  0
  4  8  1  0
  9 10  1  0
  9 18  1  0
  9 19  1  0
  9 20  1  0
 10 11  2  3
 10 21  1  0
 11 12  1  0
 11 22  1  0
 12 13  1  0
 12 17  1  0
 12 23  1  0
 13 14  1  0
 13 24  1  0
 14 15  2  0
 14 25  1  0
 15 16  1  0
 15 27  1  0
 16 17  2  0
 16 28  1  0
 17 29  1  0
M  RAD  1  13   2
M  END
>  <reaction>  (25) 
rmg_rxn_15724

>  <mol_properties>  (25) 
{"0": {"label": "*3", "atom_type": "Cs"}, "1": {"label": "*4", "atom_type": "O2s"}, "13": {"label": "*0", "atom_type": "Cd"}, "14": {"label": "*1", "atom_type": "Cs"}, "25": {"label": "*2", "atom_type": "H0"}}

>  <type>  (25) 
unop_21

>  <geom_source>  (25) 
Heuristics

$$$$

     RDKit          3D

 29 28  0  0  0  0  0  0  0  0999 V2000
   -0.4549    2.6081    0.8495 C   0  0  0  0  0  0  0  0  0  0  0  0
    0.9051    2.9552    0.6781 O   0  0  0  0  0  0  0  0  0  0  0  0
    1.0580    4.3135    0.8205 N   0  0  0  0  0  0  0  0  0  0  0  0
    2.2606    4.6732    0.6754 C   0  0  0  0  0  0  0  0  0  0  0  0
   -0.8049    2.8808    1.8476 H   0  0  0  0  0  0  0  0  0  0  0  0
   -1.0801    3.0952    0.0978 H   0  0  0  0  0  0  0  0  0  0  0  0
    2.4655    5.7310    0.7728 H   0  0  0  0  0  0  0  0  0  0  0  0
    3.0617    3.9684    0.4630 H   0  0  0  0  0  0  0  0  0  0  0  0
   -0.4549   -3.3899   -3.8501 C   0  0  0  0  0  0  0  0  0  0  0  0
   -0.4549   -3.3899   -2.3552 C   0  0  0  0  0  0  0  0  0  0  0  0
   -0.4549   -2.3061   -1.5930 C   0  0  0  0  0  0  0  0  0  0  0  0
   -0.4549   -2.3080   -0.0835 C   0  0  0  0  0  0  0  0  0  0  0  0
   -1.7011   -1.6478    0.4437 C   0  0  0  0  0  3  0  0  0  0  0  0
   -1.7016   -0.5688    1.2120 C   0  0  0  0  0  0  0  0  0  0  0  0
   -0.4549    0.1188    1.6750 C   0  0  0  0  0  0  0  0  0  0  0  0
    0.7918   -0.5688    1.2120 C   0  0  0  0  0  0  0  0  0  0  0  0
    0.7913   -1.6478    0.4437 C   0  0  0  0  0  0  0  0  0  0  0  0
    0.4230   -3.9107   -4.2412 H   0  0  0  0  0  0  0  0  0  0  0  0
   -1.3328   -3.9107   -4.2412 H   0  0  0  0  0  0  0  0  0  0  0  0
   -0.4549   -2.3743   -4.2477 H   0  0  0  0  0  0  0  0  0  0  0  0
   -0.4549   -4.3655   -1.8730 H   0  0  0  0  0  0  0  0  0  0  0  0
   -0.4549   -1.3208   -2.0552 H   0  0  0  0  0  0  0  0  0  0  0  0
   -0.4549   -3.3574    0.2378 H   0  0  0  0  0  0  0  0  0  0  0  0
   -2.6415   -2.0973    0.1424 H   0  0  0  0  0  0  0  0  0  0  0  0
   -2.6459   -0.1473    1.5402 H   0  0  0  0  0  0  0  0  0  0  0  0
   -0.4549    1.3682    1.2607 H   0  0  0  0  0  0  0  0  0  0  0  0
   -0.4549    0.1866    2.7696 H   0  0  0  0  0  0  0  0  0  0  0  0
    1.7361   -0.1473    1.5402 H   0  0  0  0  0  0  0  0  0  0  0  0
    1.7317   -2.0973    0.1424 H   0  0  0  0  0  0  0  0  0  0  0  0
  1  2  1  0
  1  5  1  0
  1  6  1  0
  1 26  1  0
  2  3  1  0
  3  4  2  3
  4  7  1  0
  4  8  1  0
  9 10  1  0
  9 18  1  0
  9 19  1  0
  9 20  1  0
 10 11  2  3
 10 21  1  0
 11 12  1  0
 11 22  1  0
 12 13  1  0
 12 17  1  0
 12 23  1  0
 13 14  1  0
 13 24  1  0
 14 15  2  0
 14 25  1  0
 15 16  1  0
 15 27  1  0
 16 17  2  0
 16 28  1  0
 17 29  1  0
M  RAD  1  13   2
M  END
>  <reaction>  (26) 
rmg_rxn_15724

>  <mol_properties>  (26) 
{"0": {"label": "*3", "atom_type": "Cs"}, "1": {"label": "*4", "atom_type": "O2s"}, "13": {"label": "*0", "atom_type": "Cd"}, "14": {"label": "*1", "atom_type": "Cs"}, "25": {"label": "*2", "atom_type": "H0"}}

>  <type>  (26) 
unop_22

>  <geom_source>  (26) 
Heuristics

$$$$

     RDKit          3D

 29 28  0  0  0  0  0  0  0  0999 V2000
    0.3944    2.6776    1.1252 C   0  0  0  0  0  0  0  0  0  0  0  0
   -0.8101    2.8420    0.4030 O   0  0  0  0  0  0  0  0  0  0  0  0
   -0.8942    4.1294   -0.0706 N   0  0  0  0  0  0  0  0  0  0  0  0
   -1.9573    4.3255   -0.7249 C   0  0  0  0  0  0  0  0  0  0  0  0
    1.2613    2.8551    0.4848 H   0  0  0  0  0  0  0  0  0  0  0  0
    0.4305    3.3522    1.9836 H   0  0  0  0  0  0  0  0  0  0  0  0
   -2.0996    5.3173   -1.1327 H   0  0  0  0  0  0  0  0  0  0  0  0
   -2.7021    3.5478   -0.8798 H   0  0  0  0  0  0  0  0  0  0  0  0
    0.3944   -3.3205   -3.5743 C   0  0  0  0  0  0  0  0  0  0  0  0
    0.3944   -3.3205   -2.0794 C   0  0  0  0  0  0  0  0  0  0  0  0
    0.3944   -2.2366   -1.3172 C   0  0  0  0  0  0  0  0  0  0  0  0
    0.3944   -2.2386    0.1922 C   0  0  0  0  0  0  0  0  0  0  0  0
   -0.8518   -1.5784    0.7195 C   0  0  0  0  0  3  0  0  0  0  0  0
   -0.8523   -0.4993    1.4878 C   0  0  0  0  0  0  0  0  0  0  0  0
    0.3944    0.1883    1.9508 C   0  0  0  0  0  0  0  0  0  0  0  0
    1.6411   -0.4993    1.4878 C   0  0  0  0  0  0  0  0  0  0  0  0
    1.6406   -1.5784    0.7195 C   0  0  0  0  0  0  0  0  0  0  0  0
    1.2723   -3.8412   -3.9655 H   0  0  0  0  0  0  0  0  0  0  0  0
   -0.4835   -3.8412   -3.9655 H   0  0  0  0  0  0  0  0  0  0  0  0
    0.3944   -2.3049   -3.9720 H   0  0  0  0  0  0  0  0  0  0  0  0
    0.3944   -4.2961   -1.5973 H   0  0  0  0  0  0  0  0  0  0  0  0
    0.3944   -1.2514   -1.7795 H   0  0  0  0  0  0  0  0  0  0  0  0
    0.3944   -3.2879    0.5136 H   0  0  0  0  0  0  0  0  0  0  0  0
   -1.7922   -2.0278    0.4182 H   0  0  0  0  0  0  0  0  0  0  0  0
   -1.7966   -0.0779    1.8160 H   0  0  0  0  0  0  0  0  0  0  0  0
    0.3944    1.4376    1.5364 H   0  0  0  0  0  0  0  0  0  0  0  0
    0.3944    0.2560    3.0453 H   0  0  0  0  0  0  0  0  0  0  0  0
    2.5854   -0.0779    1.8160 H   0  0  0  0  0  0  0  0  0  0  0  0
    2.5811   -2.0278    0.4182 H   0  0  0  0  0  0  0  0  0  0  0  0
  1  2  1  0
  1  5  1  0
  1  6  1  0
  1 26  1  0
  2  3  1  0
  3  4  2  3
  4  7  1  0
  4  8  1  0
  9 10  1  0
  9 18  1  0
  9 19  1  0
  9 20  1  0
 10 11  2  3
 10 21  1  0
 11 12  1  0
 11 22  1  0
 12 13  1  0
 12 17  1  0
 12 23  1  0
 13 14  1  0
 13 24  1  0
 14 15  2  0
 14 25  1  0
 15 16  1  0
 15 27  1  0
 16 17  2  0
 16 28  1  0
 17 29  1  0
M  RAD  1  13   2
M  END
>  <reaction>  (27) 
rmg_rxn_15724

>  <mol_properties>  (27) 
{"0": {"label": "*3", "atom_type": "Cs"}, "1": {"label": "*4", "atom_type": "O2s"}, "13": {"label": "*0", "atom_type": "Cd"}, "14": {"label": "*1", "atom_type": "Cs"}, "25": {"label": "*2", "atom_type": "H0"}}

>  <type>  (27) 
unop_23

>  <geom_source>  (27) 
Heuristics

$$$$

     RDKit          3D

 29 28  0  0  0  0  0  0  0  0999 V2000
    0.5250   -2.7210    0.8748 C   0  0  0  0  0  0  0  0  0  0  0  0
   -0.7187   -2.4799    0.2700 O   0  0  0  0  0  0  0  0  0  0  0  0
   -0.5704   -1.7342   -0.8860 N   0  0  0  0  0  0  0  0  0  0  0  0
   -1.6336   -1.4125   -1.4765 C   0  0  0  0  0  0  0  0  0  0  0  0
    1.0730   -1.8309    1.1169 H   0  0  0  0  0  0  0  0  0  0  0  0
    0.3492   -3.3626    1.7285 H   0  0  0  0  0  0  0  0  0  0  0  0
   -1.5276   -0.8356   -2.3780 H   0  0  0  0  0  0  0  0  0  0  0  0
   -2.6279   -1.6890   -1.1406 H   0  0  0  0  0  0  0  0  0  0  0  0
    3.8230   -0.0847   -0.5292 C   0  0  0  0  0  0  0  0  0  0  0  0
    2.7962    0.8332    0.0487 C   0  0  0  0  0  0  0  0  0  0  0  0
    1.4980    0.7284   -0.1746 C   0  0  0  0  0  0  0  0  0  0  0  0
    0.4402    1.6346    0.4332 C   0  0  0  0  0  0  0  0  0  0  0  0
   -0.3333    0.8509    1.4443 C   0  0  0  0  0  3  0  0  0  0  0  0
   -1.6484    0.5603    1.2918 C   0  0  0  0  0  0  0  0  0  0  0  0
   -2.3761    1.0289    0.1872 C   0  0  0  0  0  0  0  0  0  0  0  0
   -1.7443    1.8538   -0.7571 C   0  0  0  0  0  0  0  0  0  0  0  0
   -0.4321    2.1764   -0.6505 C   0  0  0  0  0  0  0  0  0  0  0  0
    4.3760   -0.5819    0.2680 H   0  0  0  0  0  0  0  0  0  0  0  0
    3.3573   -0.8383   -1.1592 H   0  0  0  0  0  0  0  0  0  0  0  0
    4.5405    0.4790   -1.1250 H   0  0  0  0  0  0  0  0  0  0  0  0
    3.1822    1.6205    0.6856 H   0  0  0  0  0  0  0  0  0  0  0  0
    1.0990   -0.0561   -0.8034 H   0  0  0  0  0  0  0  0  0  0  0  0
    0.9724    2.4596    0.9344 H   0  0  0  0  0  0  0  0  0  0  0  0
    0.2207    0.4915    2.2992 H   0  0  0  0  0  0  0  0  0  0  0  0
   -2.1547   -0.0388    2.0358 H   0  0  0  0  0  0  0  0  0  0  0  0
    1.2787   -3.1279    0.1898 H   0  0  0  0  0  0  0  0  0  0  0  0
   -3.4221    0.7883    0.0839 H   0  0  0  0  0  0  0  0  0  0  0  0
   -2.3282    2.2483   -1.5780 H   0  0  0  0  0  0  0  0  0  0  0  0
    0.0464    2.8138   -1.3794 H   0  0  0  0  0  0  0  0  0  0  0  0
  1  2  1  0
  1  5  1  0
  1  6  1  0
  1 26  1  0
  2  3  1  0
  3  4  2  3
  4  7  1  0
  4  8  1  0
  9 10  1  0
  9 18  1  0
  9 19  1  0
  9 20  1  0
 10 11  2  3
 10 21  1  0
 11 12  1  0
 11 22  1  0
 12 13  1  0
 12 17  1  0
 12 23  1  0
 13 14  1  0
 13 24  1  0
 14 15  2  0
 14 25  1  0
 15 16  1  0
 15 27  1  0
 16 17  2  0
 16 28  1  0
 17 29  1  0
M  RAD  1  13   2
M  END
>  <reaction>  (28) 
rmg_rxn_15724

>  <mol_properties>  (28) 
{"0": {"label": "*3", "atom_type": "Cs"}, "1": {"label": "*4", "atom_type": "O2s"}, "13": {"label": "*0", "atom_type": "Cd"}, "14": {"label": "*1", "atom_type": "Cs"}, "25": {"label": "*2", "atom_type": "H0"}}

>  <type>  (28) 
unop_24

>  <geom_source>  (28) 
Heuristics

$$$$

     RDKit          3D

 29 28  0  0  0  0  0  0  0  0999 V2000
    4.2862    0.2049    0.0207 O   0  0  0  0  0  0  0  0  0  0  0  0
    4.2294    1.5732   -0.1136 N   0  0  0  0  0  0  0  0  0  0  0  0
   -1.9686   -1.2876    0.0414 C   0  0  0  0  0  0  0  0  0  0  0  0
   -4.3460    1.7586   -0.1831 C   0  0  0  0  0  0  0  0  0  0  0  0
    3.3753   -0.4683    0.8727 C   0  0  0  0  0  0  0  0  0  0  0  0
   -2.6008    0.0639    0.2487 C   0  0  0  0  0  0  0  0  0  0  0  0
   -1.1631   -1.2825   -1.2386 C   0  0  0  0  0  3  0  0  0  0  0  0
   -1.1145   -1.6452    1.2376 C   0  0  0  0  0  0  0  0  0  0  0  0
   -3.7438    0.4001   -0.3658 C   0  0  0  0  0  0  0  0  0  0  0  0
    0.1631   -1.0759   -1.2322 C   0  0  0  0  0  0  0  0  0  0  0  0
    0.2119   -1.4388    1.2394 C   0  0  0  0  0  0  0  0  0  0  0  0
    0.9104   -0.8296    0.0521 C   0  0  0  0  0  0  0  0  0  0  0  0
    5.0576    2.1912   -0.8891 C   0  0  0  0  0  0  0  0  0  0  0  0
   -2.7629   -2.0612   -0.0449 H   0  0  0  0  0  0  0  0  0  0  0  0
   -4.5816    1.9274    0.8889 H   0  0  0  0  0  0  0  0  0  0  0  0
   -5.2831    1.8355   -0.7732 H   0  0  0  0  0  0  0  0  0  0  0  0
   -3.6363    2.5377   -0.5331 H   0  0  0  0  0  0  0  0  0  0  0  0
    3.5720   -1.5593    0.8320 H   0  0  0  0  0  0  0  0  0  0  0  0
    3.5040   -0.1129    1.9166 H   0  0  0  0  0  0  0  0  0  0  0  0
    2.1696   -0.2403    0.4853 H   0  0  0  0  0  0  0  0  0  0  0  0
   -1.6778   -1.4073   -2.1867 H   0  0  0  0  0  0  0  0  0  0  0  0
   -2.0913    0.7991    0.8681 H   0  0  0  0  0  0  0  0  0  0  0  0
   -1.5929   -2.0388    2.1295 H   0  0  0  0  0  0  0  0  0  0  0  0
   -4.2478   -0.3150   -1.0105 H   0  0  0  0  0  0  0  0  0  0  0  0
    0.7045   -1.0349   -2.1717 H   0  0  0  0  0  0  0  0  0  0  0  0
    1.0260    0.2632    0.2103 H   0  0  0  0  0  0  0  0  0  0  0  0
    0.7893   -1.6659    2.1297 H   0  0  0  0  0  0  0  0  0  0  0  0
    5.0030    3.2667   -0.9862 H   0  0  0  0  0  0  0  0  0  0  0  0
    5.8078    1.6420   -1.4441 H   0  0  0  0  0  0  0  0  0  0  0  0
  1  5  1  0
  1  2  1  0
  2 13  2  3
  3  6  1  0
  3  7  1  0
  3  8  1  0
  3 14  1  0
  4  9  1  0
  4 15  1  0
  4 16  1  0
  4 17  1  0
  5 18  1  0
  5 19  1  0
  5 20  1  0
  6  9  2  3
  6 22  1  0
  7 10  1  0
  7 21  1  0
  8 11  2  0
  8 23  1  0
  9 24  1  0
 10 12  2  0
 10 25  1  0
 11 12  1  0
 11 27  1  0
 12 26  1  0
 13 28  1  0
 13 29  1  0
M  RAD  1   7   2
M  END
>  <reaction>  (29) 
rmg_rxn_15724

>  <mol_properties>  (29) 
{"0": {"label": "*3", "atom_type": "Cs"}, "1": {"label": "*4", "atom_type": "O2s"}, "13": {"label": "*0", "atom_type": "Cd"}, "14": {"label": "*1", "atom_type": "Cs"}, "25": {"label": "*2", "atom_type": "H0"}}

>  <type>  (29) 
unop_25

>  <geom_source>  (29) 
AutoTST

$$$$

     RDKit          3D

 29 28  0  0  0  0  0  0  0  0999 V2000
    0.4457    2.5955    0.8438 C   0  0  0  0  0  0  0  0  0  0  0  0
   -0.9144    2.9762    0.7738 O   0  0  0  0  0  0  0  0  0  0  0  0
   -1.0113    4.3469    0.7566 N   0  0  0  0  0  0  0  0  0  0  0  0
   -2.2117    4.7367    0.6944 C   0  0  0  0  0  0  0  0  0  0  0  0
    0.9982    2.9585   -0.0257 H   0  0  0  0  0  0  0  0  0  0  0  0
    0.9111    2.9747    1.7563 H   0  0  0  0  0  0  0  0  0  0  0  0
   -2.3739    5.8061    0.6768 H   0  0  0  0  0  0  0  0  0  0  0  0
   -3.0513    4.0457    0.6596 H   0  0  0  0  0  0  0  0  0  0  0  0
    0.4457   -3.4026   -3.8558 C   0  0  0  0  0  0  0  0  0  0  0  0
    0.4457   -3.4026   -2.3609 C   0  0  0  0  0  0  0  0  0  0  0  0
    0.4457   -2.3188   -1.5986 C   0  0  0  0  0  0  0  0  0  0  0  0
    0.4457   -2.3207   -0.0892 C   0  0  0  0  0  0  0  0  0  0  0  0
   -0.8005   -1.6605    0.4380 C   0  0  0  0  0  3  0  0  0  0  0  0
   -0.8010   -0.5815    1.2063 C   0  0  0  0  0  0  0  0  0  0  0  0
    0.4457    0.1062    1.6693 C   0  0  0  0  0  0  0  0  0  0  0  0
    1.6924   -0.5815    1.2063 C   0  0  0  0  0  0  0  0  0  0  0  0
    1.6919   -1.6605    0.4380 C   0  0  0  0  0  0  0  0  0  0  0  0
    1.3236   -3.9233   -4.2469 H   0  0  0  0  0  0  0  0  0  0  0  0
   -0.4322   -3.9233   -4.2469 H   0  0  0  0  0  0  0  0  0  0  0  0
    0.4457   -2.3870   -4.2534 H   0  0  0  0  0  0  0  0  0  0  0  0
    0.4457   -4.3782   -1.8787 H   0  0  0  0  0  0  0  0  0  0  0  0
    0.4457   -1.3335   -2.0609 H   0  0  0  0  0  0  0  0  0  0  0  0
    0.4457   -3.3700    0.2321 H   0  0  0  0  0  0  0  0  0  0  0  0
   -1.7409   -2.1099    0.1368 H   0  0  0  0  0  0  0  0  0  0  0  0
   -1.7453   -0.1600    1.5345 H   0  0  0  0  0  0  0  0  0  0  0  0
    0.4457    1.3555    1.2550 H   0  0  0  0  0  0  0  0  0  0  0  0
    0.4457    0.1739    2.7639 H   0  0  0  0  0  0  0  0  0  0  0  0
    2.6367   -0.1600    1.5345 H   0  0  0  0  0  0  0  0  0  0  0  0
    2.6323   -2.1099    0.1368 H   0  0  0  0  0  0  0  0  0  0  0  0
  1  2  1  0
  1  5  1  0
  1  6  1  0
  1 26  1  0
  2  3  1  0
  3  4  2  3
  4  7  1  0
  4  8  1  0
  9 10  1  0
  9 18  1  0
  9 19  1  0
  9 20  1  0
 10 11  2  3
 10 21  1  0
 11 12  1  0
 11 22  1  0
 12 13  1  0
 12 17  1  0
 12 23  1  0
 13 14  1  0
 13 24  1  0
 14 15  2  0
 14 25  1  0
 15 16  1  0
 15 27  1  0
 16 17  2  0
 16 28  1  0
 17 29  1  0
M  RAD  1  13   2
M  END
>  <reaction>  (30) 
rmg_rxn_15724

>  <mol_properties>  (30) 
{"0": {"label": "*3", "atom_type": "Cs"}, "1": {"label": "*4", "atom_type": "O2s"}, "13": {"label": "*0", "atom_type": "Cd"}, "14": {"label": "*1", "atom_type": "Cs"}, "25": {"label": "*2", "atom_type": "H0"}}

>  <type>  (30) 
unop_26

>  <geom_source>  (30) 
gaussian_log

$$$$
