
     RDKit          3D

 14 14  0  0  0  0  0  0  0  0999 V2000
   -1.1778    0.2241    0.1818 C   0  0  0  0  0  0  0  0  0  0  0  0
   -0.5633   -1.1636    0.0678 C   0  0  0  0  0  0  0  0  0  0  0  0
    0.6943   -1.1996    0.7146 O   0  0  0  0  0  0  0  0  0  0  0  0
    1.5547   -0.2288    0.2011 C   0  0  0  0  0  0  0  0  0  0  0  0
    1.0729    1.0696    0.3698 O   0  0  0  0  0  0  0  0  0  0  0  0
   -0.1607    1.2493   -0.2989 C   0  0  0  0  0  0  0  0  0  0  0  0
   -2.0927    0.2866   -0.4117 H   0  0  0  0  0  0  0  0  0  0  0  0
   -1.4303    0.4248    1.2248 H   0  0  0  0  0  0  0  0  0  0  0  0
   -1.1822   -1.9235    0.5431 H   0  0  0  0  0  0  0  0  0  0  0  0
   -0.4389   -1.4347   -0.9919 H   0  0  0  0  0  0  0  0  0  0  0  0
    1.7250   -0.4207   -0.8742 H   0  0  0  0  0  0  0  0  0  0  0  0
    2.4896   -0.3010    0.7524 H   0  0  0  0  0  0  0  0  0  0  0  0
   -0.0080    1.1481   -1.3844 H   0  0  0  0  0  0  0  0  0  0  0  0
   -0.4826    2.2695   -0.0942 H   0  0  0  0  0  0  0  0  0  0  0  0
  1  2  1  0
  1  6  1  0
  1  7  1  0
  1  8  1  0
  2  3  1  0
  2  9  1  0
  2 10  1  0
  3  4  1  0
  4  5  1  0
  4 11  1  0
  4 12  1  0
  5  6  1  0
  6 13  1  0
  6 14  1  0
M  END
>  <reaction>  (1) 
rmg_rxn_265

>  <mol_properties>  (1) 
{"1": {"label": "donator", "atom_type": "Cs"}, "8": {"label": "d_hydrogen", "atom_type": "H0"}}

>  <type>  (1) 
r1h

$$$$

     RDKit          3D

 17 16  0  0  0  0  0  0  0  0999 V2000
    3.3619    0.3511   -1.0290 C   0  0  0  0  0  3  0  0  0  0  0  0
    2.1806    1.0643   -0.5073 C   0  0  0  0  0  0  0  0  0  0  0  0
    1.4028    0.1998    0.2757 O   0  0  0  0  0  0  0  0  0  0  0  0
    0.2433    0.8081    0.7885 C   0  0  0  0  0  0  0  0  0  0  0  0
   -0.5040   -0.1878    1.6510 C   0  0  0  0  0  0  0  0  0  0  0  0
    0.2852   -0.6298    2.8762 C   0  0  0  0  0  0  0  0  0  0  0  0
    4.1174    0.8902   -1.5820 H   0  0  0  0  0  0  0  0  0  0  0  0
    3.4399   -0.7198   -0.9141 H   0  0  0  0  0  0  0  0  0  0  0  0
    1.5724    1.4684   -1.3398 H   0  0  0  0  0  0  0  0  0  0  0  0
    2.4896    1.9442    0.0856 H   0  0  0  0  0  0  0  0  0  0  0  0
    0.5169    1.6937    1.3835 H   0  0  0  0  0  0  0  0  0  0  0  0
   -0.3954    1.1528   -0.0379 H   0  0  0  0  0  0  0  0  0  0  0  0
   -0.7611   -1.0545    1.0367 H   0  0  0  0  0  0  0  0  0  0  0  0
   -1.4466    0.2743    1.9571 H   0  0  0  0  0  0  0  0  0  0  0  0
    0.5263    0.2245    3.5136 H   0  0  0  0  0  0  0  0  0  0  0  0
    1.2220   -1.1033    2.5825 H   0  0  0  0  0  0  0  0  0  0  0  0
   -0.2849   -1.3427    3.4737 H   0  0  0  0  0  0  0  0  0  0  0  0
  1  2  1  0
  1  7  1  0
  1  8  1  0
  2  3  1  0
  2  9  1  0
  2 10  1  0
  3  4  1  0
  4  5  1  0
  4 11  1  0
  4 12  1  0
  5  6  1  0
  5 13  1  0
  5 14  1  0
  6 15  1  0
  6 16  1  0
  6 17  1  0
M  RAD  1   1   2
M  END
>  <reaction>  (2) 
rmg_rxn_265

>  <mol_properties>  (2) 
{"0": {"label": "acceptor", "atom_type": "Cs"}}

>  <type>  (2) 
r2

$$$$

     RDKit          3D

 18 17  0  0  0  0  0  0  0  0999 V2000
    2.2026   -0.7213   -0.2612 C   0  0  0  0  0  0  0  0  0  0  0  0
    1.5384    0.2638    0.6915 C   0  0  0  0  0  0  0  0  0  0  0  0
    2.2584    1.5946    0.7694 C   0  0  0  0  0  0  0  0  0  0  0  0
    2.2212    2.2185   -0.4893 O   0  0  0  0  0  0  0  0  0  0  0  0
    2.8988    3.4488   -0.5204 C   0  0  0  0  0  0  0  0  0  0  0  0
    2.7981    4.0296   -1.9118 C   0  0  0  0  0  0  0  0  0  0  0  0
    3.2294   -0.9309    0.0486 H   0  0  0  0  0  0  0  0  0  0  0  0
    2.2338   -0.3181   -1.2734 H   0  0  0  0  0  0  0  0  0  0  0  0
    1.6610   -1.6680   -0.2875 H   0  0  0  0  0  0  0  0  0  0  0  0
    1.4990   -0.1566    1.7002 H   0  0  0  0  0  0  0  0  0  0  0  0
    0.5055    0.4455    0.3835 H   0  0  0  0  0  0  0  0  0  0  0  0
    3.3038    1.4410    1.0808 H   0  0  0  0  0  0  0  0  0  0  0  0
    1.7844    2.2410    1.5226 H   0  0  0  0  0  0  0  0  0  0  0  0
    2.4596    4.1376    0.2164 H   0  0  0  0  0  0  0  0  0  0  0  0
    3.9524    3.3035   -0.2397 H   0  0  0  0  0  0  0  0  0  0  0  0
    1.7543    4.1869   -2.1856 H   0  0  0  0  0  0  0  0  0  0  0  0
    3.2472    3.3545   -2.6411 H   0  0  0  0  0  0  0  0  0  0  0  0
    3.3178    4.9878   -1.9600 H   0  0  0  0  0  0  0  0  0  0  0  0
  1  2  1  0
  1  7  1  0
  1  8  1  0
  1  9  1  0
  2  3  1  0
  2 10  1  0
  2 11  1  0
  3  4  1  0
  3 12  1  0
  3 13  1  0
  4  5  1  0
  5  6  1  0
  5 14  1  0
  5 15  1  0
  6 16  1  0
  6 17  1  0
  6 18  1  0
M  END
>  <reaction>  (3) 
rmg_rxn_265

>  <mol_properties>  (3) 
{"0": {"label": "a_hydrogen", "atom_type": "H0"}, "1": {"label": "acceptor", "atom_type": "Cs"}}

>  <type>  (3) 
r2h

$$$$

     RDKit          3D

 31 30  0  0  0  0  0  0  0  0999 V2000
    1.7205    2.1679   -0.7881 C   0  0  0  0  0  0  0  0  0  0  0  0
    0.7556    1.9895    0.3569 C   0  0  0  0  0  0  0  0  0  0  0  0
   -0.5740    1.9984   -0.0703 O   0  0  0  0  0  0  0  0  0  0  0  0
   -0.8752    3.1480   -0.8178 C   0  0  0  0  0  0  0  0  0  0  0  0
   -0.0781    3.2744   -1.9511 O   0  0  0  0  0  0  0  0  0  0  0  0
    1.2908    3.3807   -1.6097 C   0  0  0  0  0  0  0  0  0  0  0  0
    2.7385    2.2958   -0.4155 H   0  0  0  0  0  0  0  0  0  0  0  0
    1.6966    1.2802   -1.4254 H   0  0  0  0  0  0  0  0  0  0  0  0
    0.9192    0.7758    0.8475 H   0  0  0  0  0  0  0  0  0  0  0  0
    0.9192    2.6739    1.1987 H   0  0  0  0  0  0  0  0  0  0  0  0
   -0.7559    4.0380   -0.1757 H   0  0  0  0  0  0  0  0  0  0  0  0
   -1.9059    3.0513   -1.1512 H   0  0  0  0  0  0  0  0  0  0  0  0
    1.4574    4.3047   -1.0368 H   0  0  0  0  0  0  0  0  0  0  0  0
    1.8425    3.4524   -2.5462 H   0  0  0  0  0  0  0  0  0  0  0  0
    0.9816   -0.5443    1.1833 C   0  0  0  0  0  3  0  0  0  0  0  0
   -0.0055   -1.2175    0.2801 C   0  0  0  0  0  0  0  0  0  0  0  0
    0.0171   -2.6093    0.5140 O   0  0  0  0  0  0  0  0  0  0  0  0
   -0.8945   -3.3152   -0.2912 C   0  0  0  0  0  0  0  0  0  0  0  0
   -0.8343   -4.7884    0.0569 C   0  0  0  0  0  0  0  0  0  0  0  0
   -1.2583   -5.0826    1.4897 C   0  0  0  0  0  0  0  0  0  0  0  0
    0.7233   -0.5687    2.2394 H   0  0  0  0  0  0  0  0  0  0  0  0
    2.0198   -0.8139    0.9997 H   0  0  0  0  0  0  0  0  0  0  0  0
    0.2391   -1.0131   -0.7727 H   0  0  0  0  0  0  0  0  0  0  0  0
   -1.0140   -0.8209    0.4563 H   0  0  0  0  0  0  0  0  0  0  0  0
   -1.9136   -2.9297   -0.1303 H   0  0  0  0  0  0  0  0  0  0  0  0
   -0.6523   -3.1639   -1.3534 H   0  0  0  0  0  0  0  0  0  0  0  0
    0.1852   -5.1443   -0.1132 H   0  0  0  0  0  0  0  0  0  0  0  0
   -1.4788   -5.3262   -0.6440 H   0  0  0  0  0  0  0  0  0  0  0  0
   -2.2849   -4.7526    1.6675 H   0  0  0  0  0  0  0  0  0  0  0  0
   -0.6125   -4.5631    2.1976 H   0  0  0  0  0  0  0  0  0  0  0  0
   -1.2086   -6.1515    1.7026 H   0  0  0  0  0  0  0  0  0  0  0  0
  1  2  1  0
  1  6  1  0
  1  7  1  0
  1  8  1  0
  2  3  1  0
  2  9  1  0
  2 10  1  0
  3  4  1  0
  4  5  1  0
  4 11  1  0
  4 12  1  0
  5  6  1  0
  6 13  1  0
  6 14  1  0
 15 16  1  0
 15 21  1  0
 15 22  1  0
 16 17  1  0
 16 23  1  0
 16 24  1  0
 17 18  1  0
 18 19  1  0
 18 25  1  0
 18 26  1  0
 19 20  1  0
 19 27  1  0
 19 28  1  0
 20 29  1  0
 20 30  1  0
 20 31  1  0
M  RAD  1  15   2
M  END
>  <reaction>  (4) 
rmg_rxn_265

>  <mol_properties>  (4) 
{"1": {"label": "*1", "atom_type": "Cs"}, "2": {"label": "*0", "atom_type": "O2s"}, "8": {"label": "*2", "atom_type": "H0"}, "14": {"label": "*3", "atom_type": "Cs"}, "15": {"label": "*4", "atom_type": "Cs"}}

>  <type>  (4) 
ts

$$$$

     RDKit          3D

 31 30  0  0  0  0  0  0  0  0999 V2000
    0.0214    1.3818   -2.7514 C   0  0  0  0  0  0  0  0  0  0  0  0
    0.0214    1.3818   -1.2294 C   0  0  0  0  0  0  0  0  0  0  0  0
   -1.0269    2.1944   -0.7373 O   0  0  0  0  0  0  0  0  0  0  0  0
   -0.9360    3.4940   -1.2366 C   0  0  0  0  0  0  0  0  0  0  0  0
   -1.0269    3.5502   -2.6277 O   0  0  0  0  0  0  0  0  0  0  0  0
    0.0214    2.8235   -3.2395 C   0  0  0  0  0  0  0  0  0  0  0  0
    0.8954    0.8494   -3.1333 H   0  0  0  0  0  0  0  0  0  0  0  0
   -0.8752    0.8757   -3.1144 H   0  0  0  0  0  0  0  0  0  0  0  0
   -0.1693    0.1848   -0.7406 H   0  0  0  0  0  0  0  0  0  0  0  0
    0.9850    1.7578   -0.8527 H   0  0  0  0  0  0  0  0  0  0  0  0
    0.0193    3.9461   -0.9124 H   0  0  0  0  0  0  0  0  0  0  0  0
   -1.7770    4.0545   -0.8346 H   0  0  0  0  0  0  0  0  0  0  0  0
    0.9850    3.3009   -3.0042 H   0  0  0  0  0  0  0  0  0  0  0  0
   -0.1376    2.8894   -4.3150 H   0  0  0  0  0  0  0  0  0  0  0  0
   -0.3604   -1.0144   -0.2509 C   0  0  0  0  0  3  0  0  0  0  0  0
    0.8172   -1.4254    0.6023 C   0  0  0  0  0  0  0  0  0  0  0  0
    0.3441   -2.1123    1.7327 O   0  0  0  0  0  0  0  0  0  0  0  0
    1.3695   -2.5396    2.5935 C   0  0  0  0  0  0  0  0  0  0  0  0
    0.7647   -3.3001    3.7559 C   0  0  0  0  0  0  0  0  0  0  0  0
    0.0464   -4.5734    3.3294 C   0  0  0  0  0  0  0  0  0  0  0  0
   -0.9230   -1.8912   -0.5736 H   0  0  0  0  0  0  0  0  0  0  0  0
   -1.0308   -0.3632    0.3112 H   0  0  0  0  0  0  0  0  0  0  0  0
    1.3930   -0.5414    0.9142 H   0  0  0  0  0  0  0  0  0  0  0  0
    1.4999   -2.0708    0.0301 H   0  0  0  0  0  0  0  0  0  0  0  0
    2.0744   -3.1847    2.0456 H   0  0  0  0  0  0  0  0  0  0  0  0
    1.9375   -1.6719    2.9599 H   0  0  0  0  0  0  0  0  0  0  0  0
    0.0730   -2.6373    4.2822 H   0  0  0  0  0  0  0  0  0  0  0  0
    1.5696   -3.5389    4.4566 H   0  0  0  0  0  0  0  0  0  0  0  0
    0.7324   -5.2566    2.8225 H   0  0  0  0  0  0  0  0  0  0  0  0
   -0.7680   -4.3453    2.6418 H   0  0  0  0  0  0  0  0  0  0  0  0
   -0.3708   -5.0964    4.1911 H   0  0  0  0  0  0  0  0  0  0  0  0
  1  2  1  0
  1  6  1  0
  1  7  1  0
  1  8  1  0
  2  3  1  0
  2  9  1  0
  2 10  1  0
  3  4  1  0
  4  5  1  0
  4 11  1  0
  4 12  1  0
  5  6  1  0
  6 13  1  0
  6 14  1  0
 15 16  1  0
 15 21  1  0
 15 22  1  0
 16 17  1  0
 16 23  1  0
 16 24  1  0
 17 18  1  0
 18 19  1  0
 18 25  1  0
 18 26  1  0
 19 20  1  0
 19 27  1  0
 19 28  1  0
 20 29  1  0
 20 30  1  0
 20 31  1  0
M  RAD  1  15   2
M  END
>  <reaction>  (5) 
rmg_rxn_265

>  <mol_properties>  (5) 
{"1": {"label": "*1", "atom_type": "Cs"}, "2": {"label": "*0", "atom_type": "O2s"}, "8": {"label": "*2", "atom_type": "H0"}, "14": {"label": "*3", "atom_type": "Cs"}, "15": {"label": "*4", "atom_type": "Cs"}}

>  <type>  (5) 
unop_1

>  <geom_source>  (5) 
Heuristics

$$$$

     RDKit          3D

 31 30  0  0  0  0  0  0  0  0999 V2000
    0.1326    1.9918   -1.4671 C   0  0  0  0  0  0  0  0  0  0  0  0
    0.1326    1.9918    0.0549 C   0  0  0  0  0  0  0  0  0  0  0  0
   -0.9157    2.8044    0.5470 O   0  0  0  0  0  0  0  0  0  0  0  0
   -0.8248    4.1040    0.0477 C   0  0  0  0  0  0  0  0  0  0  0  0
   -0.9157    4.1602   -1.3433 O   0  0  0  0  0  0  0  0  0  0  0  0
    0.1326    3.4335   -1.9552 C   0  0  0  0  0  0  0  0  0  0  0  0
    1.0066    1.4594   -1.8490 H   0  0  0  0  0  0  0  0  0  0  0  0
   -0.7640    1.4857   -1.8301 H   0  0  0  0  0  0  0  0  0  0  0  0
   -0.0582    0.7948    0.5437 H   0  0  0  0  0  0  0  0  0  0  0  0
    1.0962    2.3678    0.4316 H   0  0  0  0  0  0  0  0  0  0  0  0
    0.1305    4.5560    0.3719 H   0  0  0  0  0  0  0  0  0  0  0  0
   -1.6659    4.6645    0.4497 H   0  0  0  0  0  0  0  0  0  0  0  0
    1.0962    3.9109   -1.7199 H   0  0  0  0  0  0  0  0  0  0  0  0
   -0.0264    3.4994   -3.0307 H   0  0  0  0  0  0  0  0  0  0  0  0
   -0.2493   -0.4044    1.0334 C   0  0  0  0  0  3  0  0  0  0  0  0
    0.3020   -1.4489    0.0907 C   0  0  0  0  0  0  0  0  0  0  0  0
    0.4681   -2.6547    0.7923 O   0  0  0  0  0  0  0  0  0  0  0  0
    0.9783   -3.6951   -0.0028 C   0  0  0  0  0  0  0  0  0  0  0  0
    1.0840   -4.9570    0.8290 C   0  0  0  0  0  0  0  0  0  0  0  0
   -0.2644   -5.4605    1.3267 C   0  0  0  0  0  0  0  0  0  0  0  0
   -1.2127   -0.7217    1.4341 H   0  0  0  0  0  0  0  0  0  0  0  0
    0.4344   -0.2438    1.8678 H   0  0  0  0  0  0  0  0  0  0  0  0
    1.2663   -1.1209   -0.3251 H   0  0  0  0  0  0  0  0  0  0  0  0
   -0.3815   -1.6002   -0.7578 H   0  0  0  0  0  0  0  0  0  0  0  0
    0.3163   -3.8661   -0.8664 H   0  0  0  0  0  0  0  0  0  0  0  0
    1.9659   -3.4154   -0.3981 H   0  0  0  0  0  0  0  0  0  0  0  0
    1.7468   -4.7603    1.6756 H   0  0  0  0  0  0  0  0  0  0  0  0
    1.5693   -5.7229    0.2178 H   0  0  0  0  0  0  0  0  0  0  0  0
   -0.9300   -5.6843    0.4893 H   0  0  0  0  0  0  0  0  0  0  0  0
   -0.7507   -4.7100    1.9498 H   0  0  0  0  0  0  0  0  0  0  0  0
   -0.1502   -6.3715    1.9161 H   0  0  0  0  0  0  0  0  0  0  0  0
  1  2  1  0
  1  6  1  0
  1  7  1  0
  1  8  1  0
  2  3  1  0
  2  9  1  0
  2 10  1  0
  3  4  1  0
  4  5  1  0
  4 11  1  0
  4 12  1  0
  5  6  1  0
  6 13  1  0
  6 14  1  0
 15 16  1  0
 15 21  1  0
 15 22  1  0
 16 17  1  0
 16 23  1  0
 16 24  1  0
 17 18  1  0
 18 19  1  0
 18 25  1  0
 18 26  1  0
 19 20  1  0
 19 27  1  0
 19 28  1  0
 20 29  1  0
 20 30  1  0
 20 31  1  0
M  RAD  1  15   2
M  END
>  <reaction>  (6) 
rmg_rxn_265

>  <mol_properties>  (6) 
{"1": {"label": "*1", "atom_type": "Cs"}, "2": {"label": "*0", "atom_type": "O2s"}, "8": {"label": "*2", "atom_type": "H0"}, "14": {"label": "*3", "atom_type": "Cs"}, "15": {"label": "*4", "atom_type": "Cs"}}

>  <type>  (6) 
unop_2

>  <geom_source>  (6) 
Heuristics

$$$$

     RDKit          3D

 31 30  0  0  0  0  0  0  0  0999 V2000
    0.3753    1.3536   -2.8458 C   0  0  0  0  0  0  0  0  0  0  0  0
    0.3753    1.3536   -1.3238 C   0  0  0  0  0  0  0  0  0  0  0  0
   -0.6730    2.1662   -0.8317 O   0  0  0  0  0  0  0  0  0  0  0  0
   -0.5821    3.4658   -1.3310 C   0  0  0  0  0  0  0  0  0  0  0  0
   -0.6730    3.5220   -2.7221 O   0  0  0  0  0  0  0  0  0  0  0  0
    0.3753    2.7952   -3.3339 C   0  0  0  0  0  0  0  0  0  0  0  0
    1.2493    0.8211   -3.2277 H   0  0  0  0  0  0  0  0  0  0  0  0
   -0.5213    0.8474   -3.2088 H   0  0  0  0  0  0  0  0  0  0  0  0
    0.1846    0.1566   -0.8350 H   0  0  0  0  0  0  0  0  0  0  0  0
    1.3389    1.7296   -0.9471 H   0  0  0  0  0  0  0  0  0  0  0  0
    0.3733    3.9178   -1.0068 H   0  0  0  0  0  0  0  0  0  0  0  0
   -1.4231    4.0263   -0.9290 H   0  0  0  0  0  0  0  0  0  0  0  0
    1.3389    3.2726   -3.0986 H   0  0  0  0  0  0  0  0  0  0  0  0
    0.2164    2.8612   -4.4094 H   0  0  0  0  0  0  0  0  0  0  0  0
   -0.0065   -1.0426   -0.3453 C   0  0  0  0  0  3  0  0  0  0  0  0
    0.6892   -1.1803    0.9891 C   0  0  0  0  0  0  0  0  0  0  0  0
   -0.0024   -2.1218    1.7694 O   0  0  0  0  0  0  0  0  0  0  0  0
    0.5708   -2.3226    3.0367 C   0  0  0  0  0  0  0  0  0  0  0  0
   -0.2190   -3.3780    3.7834 C   0  0  0  0  0  0  0  0  0  0  0  0
   -0.1816   -4.7427    3.1085 C   0  0  0  0  0  0  0  0  0  0  0  0
   -0.0225   -1.9994   -0.8684 H   0  0  0  0  0  0  0  0  0  0  0  0
   -1.0355   -0.7088   -0.2071 H   0  0  0  0  0  0  0  0  0  0  0  0
    0.7188   -0.2113    1.5090 H   0  0  0  0  0  0  0  0  0  0  0  0
    1.7312   -1.5036    0.8479 H   0  0  0  0  0  0  0  0  0  0  0  0
    1.6194   -2.6420    2.9275 H   0  0  0  0  0  0  0  0  0  0  0  0
    0.5738   -1.3784    3.6009 H   0  0  0  0  0  0  0  0  0  0  0  0
   -1.2524   -3.0351    3.8794 H   0  0  0  0  0  0  0  0  0  0  0  0
    0.1871   -3.4479    4.7963 H   0  0  0  0  0  0  0  0  0  0  0  0
    0.8448   -5.1092    3.0273 H   0  0  0  0  0  0  0  0  0  0  0  0
   -0.5981   -4.6876    2.1027 H   0  0  0  0  0  0  0  0  0  0  0  0
   -0.7553   -5.4772    3.6757 H   0  0  0  0  0  0  0  0  0  0  0  0
  1  2  1  0
  1  6  1  0
  1  7  1  0
  1  8  1  0
  2  3  1  0
  2  9  1  0
  2 10  1  0
  3  4  1  0
  4  5  1  0
  4 11  1  0
  4 12  1  0
  5  6  1  0
  6 13  1  0
  6 14  1  0
 15 16  1  0
 15 21  1  0
 15 22  1  0
 16 17  1  0
 16 23  1  0
 16 24  1  0
 17 18  1  0
 18 19  1  0
 18 25  1  0
 18 26  1  0
 19 20  1  0
 19 27  1  0
 19 28  1  0
 20 29  1  0
 20 30  1  0
 20 31  1  0
M  RAD  1  15   2
M  END
>  <reaction>  (7) 
rmg_rxn_265

>  <mol_properties>  (7) 
{"1": {"label": "*1", "atom_type": "Cs"}, "2": {"label": "*0", "atom_type": "O2s"}, "8": {"label": "*2", "atom_type": "H0"}, "14": {"label": "*3", "atom_type": "Cs"}, "15": {"label": "*4", "atom_type": "Cs"}}

>  <type>  (7) 
unop_3

>  <geom_source>  (7) 
Heuristics

$$$$

     RDKit          3D

 31 30  0  0  0  0  0  0  0  0999 V2000
    1.5933    1.3623   -2.0025 C   0  0  0  0  0  0  0  0  0  0  0  0
    1.5933    1.3623   -0.4805 C   0  0  0  0  0  0  0  0  0  0  0  0
    0.5451    2.1749    0.0116 O   0  0  0  0  0  0  0  0  0  0  0  0
    0.6360    3.4744   -0.4877 C   0  0  0  0  0  0  0  0  0  0  0  0
    0.5451    3.5306   -1.8787 O   0  0  0  0  0  0  0  0  0  0  0  0
    1.5933    2.8039   -2.4906 C   0  0  0  0  0  0  0  0  0  0  0  0
    2.4673    0.8298   -2.3844 H   0  0  0  0  0  0  0  0  0  0  0  0
    0.6968    0.8561   -2.3655 H   0  0  0  0  0  0  0  0  0  0  0  0
    1.4026    0.1653    0.0083 H   0  0  0  0  0  0  0  0  0  0  0  0
    2.5570    1.7382   -0.1038 H   0  0  0  0  0  0  0  0  0  0  0  0
    1.5913    3.9265   -0.1635 H   0  0  0  0  0  0  0  0  0  0  0  0
   -0.2051    4.0349   -0.0857 H   0  0  0  0  0  0  0  0  0  0  0  0
    2.5570    3.2813   -2.2553 H   0  0  0  0  0  0  0  0  0  0  0  0
    1.4344    2.8698   -3.5661 H   0  0  0  0  0  0  0  0  0  0  0  0
    1.2115   -1.0340    0.4980 C   0  0  0  0  0  3  0  0  0  0  0  0
   -0.1189   -1.5821    0.0365 C   0  0  0  0  0  0  0  0  0  0  0  0
   -0.6379   -2.4220    1.0359 O   0  0  0  0  0  0  0  0  0  0  0  0
   -1.8814   -2.9839    0.7000 C   0  0  0  0  0  0  0  0  0  0  0  0
   -2.3739   -3.8376    1.8507 C   0  0  0  0  0  0  0  0  0  0  0  0
   -2.6279   -3.0393    3.1224 C   0  0  0  0  0  0  0  0  0  0  0  0
    1.0907   -0.4628    1.4192 H   0  0  0  0  0  0  0  0  0  0  0  0
    1.9148   -1.8459    0.6863 H   0  0  0  0  0  0  0  0  0  0  0  0
    0.0015   -2.1448   -0.9012 H   0  0  0  0  0  0  0  0  0  0  0  0
   -0.8232   -0.7619   -0.1665 H   0  0  0  0  0  0  0  0  0  0  0  0
   -2.6080   -2.1844    0.4846 H   0  0  0  0  0  0  0  0  0  0  0  0
   -1.7845   -3.5918   -0.2115 H   0  0  0  0  0  0  0  0  0  0  0  0
   -1.6370   -4.6222    2.0410 H   0  0  0  0  0  0  0  0  0  0  0  0
   -3.2925   -4.3367    1.5299 H   0  0  0  0  0  0  0  0  0  0  0  0
   -3.3811   -2.2657    2.9530 H   0  0  0  0  0  0  0  0  0  0  0  0
   -1.7145   -2.5493    3.4596 H   0  0  0  0  0  0  0  0  0  0  0  0
   -2.9858   -3.6845    3.9261 H   0  0  0  0  0  0  0  0  0  0  0  0
  1  2  1  0
  1  6  1  0
  1  7  1  0
  1  8  1  0
  2  3  1  0
  2  9  1  0
  2 10  1  0
  3  4  1  0
  4  5  1  0
  4 11  1  0
  4 12  1  0
  5  6  1  0
  6 13  1  0
  6 14  1  0
 15 16  1  0
 15 21  1  0
 15 22  1  0
 16 17  1  0
 16 23  1  0
 16 24  1  0
 17 18  1  0
 18 19  1  0
 18 25  1  0
 18 26  1  0
 19 20  1  0
 19 27  1  0
 19 28  1  0
 20 29  1  0
 20 30  1  0
 20 31  1  0
M  RAD  1  15   2
M  END
>  <reaction>  (8) 
rmg_rxn_265

>  <mol_properties>  (8) 
{"1": {"label": "*1", "atom_type": "Cs"}, "2": {"label": "*0", "atom_type": "O2s"}, "8": {"label": "*2", "atom_type": "H0"}, "14": {"label": "*3", "atom_type": "Cs"}, "15": {"label": "*4", "atom_type": "Cs"}}

>  <type>  (8) 
unop_4

>  <geom_source>  (8) 
Heuristics

$$$$

     RDKit          3D

 31 30  0  0  0  0  0  0  0  0999 V2000
    0.4516    1.3887   -2.8264 C   0  0  0  0  0  0  0  0  0  0  0  0
    0.4516    1.3887   -1.3044 C   0  0  0  0  0  0  0  0  0  0  0  0
   -0.5967    2.2013   -0.8123 O   0  0  0  0  0  0  0  0  0  0  0  0
   -0.5058    3.5009   -1.3116 C   0  0  0  0  0  0  0  0  0  0  0  0
   -0.5967    3.5571   -2.7027 O   0  0  0  0  0  0  0  0  0  0  0  0
    0.4516    2.8304   -3.3145 C   0  0  0  0  0  0  0  0  0  0  0  0
    1.3256    0.8563   -3.2083 H   0  0  0  0  0  0  0  0  0  0  0  0
   -0.4450    0.8826   -3.1895 H   0  0  0  0  0  0  0  0  0  0  0  0
    0.2608    0.1917   -0.8156 H   0  0  0  0  0  0  0  0  0  0  0  0
    1.4152    1.7647   -0.9277 H   0  0  0  0  0  0  0  0  0  0  0  0
    0.4495    3.9529   -0.9874 H   0  0  0  0  0  0  0  0  0  0  0  0
   -1.3469    4.0614   -0.9096 H   0  0  0  0  0  0  0  0  0  0  0  0
    1.4152    3.3078   -3.0793 H   0  0  0  0  0  0  0  0  0  0  0  0
    0.2926    2.8963   -4.3900 H   0  0  0  0  0  0  0  0  0  0  0  0
    0.0697   -1.0075   -0.3259 C   0  0  0  0  0  3  0  0  0  0  0  0
    0.0768   -0.9635    1.1846 C   0  0  0  0  0  0  0  0  0  0  0  0
   -0.1309   -2.2617    1.6799 O   0  0  0  0  0  0  0  0  0  0  0  0
   -0.1403   -2.3266    3.0837 C   0  0  0  0  0  0  0  0  0  0  0  0
   -0.3303   -3.7654    3.5185 C   0  0  0  0  0  0  0  0  0  0  0  0
    0.8098   -4.6772    3.0852 C   0  0  0  0  0  0  0  0  0  0  0  0
    0.8611   -1.6621   -0.6928 H   0  0  0  0  0  0  0  0  0  0  0  0
   -0.8858   -1.3838   -0.6928 H   0  0  0  0  0  0  0  0  0  0  0  0
   -0.7117   -0.2907    1.5532 H   0  0  0  0  0  0  0  0  0  0  0  0
    1.0358   -0.5707    1.5534 H   0  0  0  0  0  0  0  0  0  0  0  0
    0.8077   -1.9330    3.4835 H   0  0  0  0  0  0  0  0  0  0  0  0
   -0.9496   -1.6976    3.4829 H   0  0  0  0  0  0  0  0  0  0  0  0
   -1.2772   -4.1290    3.1110 H   0  0  0  0  0  0  0  0  0  0  0  0
   -0.4286   -3.7773    4.6075 H   0  0  0  0  0  0  0  0  0  0  0  0
    1.7604   -4.3391    3.5054 H   0  0  0  0  0  0  0  0  0  0  0  0
    0.9072   -4.6844    1.9996 H   0  0  0  0  0  0  0  0  0  0  0  0
    0.6418   -5.7020    3.4196 H   0  0  0  0  0  0  0  0  0  0  0  0
  1  2  1  0
  1  6  1  0
  1  7  1  0
  1  8  1  0
  2  3  1  0
  2  9  1  0
  2 10  1  0
  3  4  1  0
  4  5  1  0
  4 11  1  0
  4 12  1  0
  5  6  1  0
  6 13  1  0
  6 14  1  0
 15 16  1  0
 15 21  1  0
 15 22  1  0
 16 17  1  0
 16 23  1  0
 16 24  1  0
 17 18  1  0
 18 19  1  0
 18 25  1  0
 18 26  1  0
 19 20  1  0
 19 27  1  0
 19 28  1  0
 20 29  1  0
 20 30  1  0
 20 31  1  0
M  RAD  1  15   2
M  END
>  <reaction>  (9) 
rmg_rxn_265

>  <mol_properties>  (9) 
{"1": {"label": "*1", "atom_type": "Cs"}, "2": {"label": "*0", "atom_type": "O2s"}, "8": {"label": "*2", "atom_type": "H0"}, "14": {"label": "*3", "atom_type": "Cs"}, "15": {"label": "*4", "atom_type": "Cs"}}

>  <type>  (9) 
unop_5

>  <geom_source>  (9) 
Heuristics

$$$$

     RDKit          3D

 31 30  0  0  0  0  0  0  0  0999 V2000
    1.4399    1.1040   -2.5175 C   0  0  0  0  0  0  0  0  0  0  0  0
    1.4399    1.1040   -0.9955 C   0  0  0  0  0  0  0  0  0  0  0  0
    0.3916    1.9166   -0.5034 O   0  0  0  0  0  0  0  0  0  0  0  0
    0.4825    3.2162   -1.0027 C   0  0  0  0  0  0  0  0  0  0  0  0
    0.3916    3.2724   -2.3938 O   0  0  0  0  0  0  0  0  0  0  0  0
    1.4399    2.5457   -3.0056 C   0  0  0  0  0  0  0  0  0  0  0  0
    2.3139    0.5716   -2.8994 H   0  0  0  0  0  0  0  0  0  0  0  0
    0.5433    0.5979   -2.8805 H   0  0  0  0  0  0  0  0  0  0  0  0
    1.2492   -0.0930   -0.5067 H   0  0  0  0  0  0  0  0  0  0  0  0
    2.4035    1.4800   -0.6188 H   0  0  0  0  0  0  0  0  0  0  0  0
    1.4379    3.6683   -0.6785 H   0  0  0  0  0  0  0  0  0  0  0  0
   -0.3585    3.7767   -0.6007 H   0  0  0  0  0  0  0  0  0  0  0  0
    2.4035    3.0231   -2.7703 H   0  0  0  0  0  0  0  0  0  0  0  0
    1.2810    2.6116   -4.0811 H   0  0  0  0  0  0  0  0  0  0  0  0
    1.0581   -1.2922   -0.0170 C   0  0  0  0  0  3  0  0  0  0  0  0
   -0.4182   -1.5487    0.1788 C   0  0  0  0  0  0  0  0  0  0  0  0
   -0.6031   -2.2584    1.3771 O   0  0  0  0  0  0  0  0  0  0  0  0
   -1.9511   -2.5463    1.6508 C   0  0  0  0  0  0  0  0  0  0  0  0
   -2.0499   -3.2748    2.9755 C   0  0  0  0  0  0  0  0  0  0  0  0
   -1.5736   -2.4383    4.1556 C   0  0  0  0  0  0  0  0  0  0  0  0
    1.4574   -0.7066    0.8118 H   0  0  0  0  0  0  0  0  0  0  0  0
    1.6060   -2.2337   -0.0685 H   0  0  0  0  0  0  0  0  0  0  0  0
   -0.8234   -2.1260   -0.6655 H   0  0  0  0  0  0  0  0  0  0  0  0
   -0.9718   -0.5989    0.2167 H   0  0  0  0  0  0  0  0  0  0  0  0
   -2.5336   -1.6122    1.6888 H   0  0  0  0  0  0  0  0  0  0  0  0
   -2.3742   -3.1629    0.8442 H   0  0  0  0  0  0  0  0  0  0  0  0
   -1.4663   -4.1966    2.9091 H   0  0  0  0  0  0  0  0  0  0  0  0
   -3.0929   -3.5698    3.1200 H   0  0  0  0  0  0  0  0  0  0  0  0
   -2.1647   -1.5238    4.2487 H   0  0  0  0  0  0  0  0  0  0  0  0
   -0.5298   -2.1510    4.0290 H   0  0  0  0  0  0  0  0  0  0  0  0
   -1.6641   -2.9919    5.0913 H   0  0  0  0  0  0  0  0  0  0  0  0
  1  2  1  0
  1  6  1  0
  1  7  1  0
  1  8  1  0
  2  3  1  0
  2  9  1  0
  2 10  1  0
  3  4  1  0
  4  5  1  0
  4 11  1  0
  4 12  1  0
  5  6  1  0
  6 13  1  0
  6 14  1  0
 15 16  1  0
 15 21  1  0
 15 22  1  0
 16 17  1  0
 16 23  1  0
 16 24  1  0
 17 18  1  0
 18 19  1  0
 18 25  1  0
 18 26  1  0
 19 20  1  0
 19 27  1  0
 19 28  1  0
 20 29  1  0
 20 30  1  0
 20 31  1  0
M  RAD  1  15   2
M  END
>  <reaction>  (10) 
rmg_rxn_265

>  <mol_properties>  (10) 
{"1": {"label": "*1", "atom_type": "Cs"}, "2": {"label": "*0", "atom_type": "O2s"}, "8": {"label": "*2", "atom_type": "H0"}, "14": {"label": "*3", "atom_type": "Cs"}, "15": {"label": "*4", "atom_type": "Cs"}}

>  <type>  (10) 
unop_6

>  <geom_source>  (10) 
Heuristics

$$$$

     RDKit          3D

 31 30  0  0  0  0  0  0  0  0999 V2000
    1.0106    1.0275   -2.8666 C   0  0  0  0  0  0  0  0  0  0  0  0
    1.0106    1.0275   -1.3446 C   0  0  0  0  0  0  0  0  0  0  0  0
   -0.0377    1.8401   -0.8525 O   0  0  0  0  0  0  0  0  0  0  0  0
    0.0532    3.1396   -1.3518 C   0  0  0  0  0  0  0  0  0  0  0  0
   -0.0377    3.1958   -2.7429 O   0  0  0  0  0  0  0  0  0  0  0  0
    1.0106    2.4691   -3.3548 C   0  0  0  0  0  0  0  0  0  0  0  0
    1.8846    0.4950   -3.2485 H   0  0  0  0  0  0  0  0  0  0  0  0
    0.1140    0.5213   -3.2297 H   0  0  0  0  0  0  0  0  0  0  0  0
    0.8199   -0.1696   -0.8558 H   0  0  0  0  0  0  0  0  0  0  0  0
    1.9742    1.4034   -0.9679 H   0  0  0  0  0  0  0  0  0  0  0  0
    1.0086    3.5917   -1.0276 H   0  0  0  0  0  0  0  0  0  0  0  0
   -0.7878    3.7001   -0.9498 H   0  0  0  0  0  0  0  0  0  0  0  0
    1.9742    2.9465   -3.1195 H   0  0  0  0  0  0  0  0  0  0  0  0
    0.8517    2.5350   -4.4302 H   0  0  0  0  0  0  0  0  0  0  0  0
    0.6288   -1.3688   -0.3661 C   0  0  0  0  0  3  0  0  0  0  0  0
   -0.6182   -1.3934    0.4870 C   0  0  0  0  0  0  0  0  0  0  0  0
   -0.3826   -2.1946    1.6167 O   0  0  0  0  0  0  0  0  0  0  0  0
   -1.4894   -2.2806    2.4784 C   0  0  0  0  0  0  0  0  0  0  0  0
   -1.1257   -3.1292    3.6796 C   0  0  0  0  0  0  0  0  0  0  0  0
   -0.0101   -2.5263    4.5229 C   0  0  0  0  0  0  0  0  0  0  0  0
    1.4683   -0.9580    0.1960 H   0  0  0  0  0  0  0  0  0  0  0  0
    0.8911   -2.3769   -0.6887 H   0  0  0  0  0  0  0  0  0  0  0  0
   -1.4681   -1.7932   -0.0858 H   0  0  0  0  0  0  0  0  0  0  0  0
   -0.8899   -0.3746    0.8004 H   0  0  0  0  0  0  0  0  0  0  0  0
   -1.7893   -1.2722    2.8050 H   0  0  0  0  0  0  0  0  0  0  0  0
   -2.3458   -2.7201    1.9464 H   0  0  0  0  0  0  0  0  0  0  0  0
   -0.8351   -4.1225    3.3277 H   0  0  0  0  0  0  0  0  0  0  0  0
   -2.0270   -3.2587    4.2851 H   0  0  0  0  0  0  0  0  0  0  0  0
   -0.2966   -1.5420    4.9017 H   0  0  0  0  0  0  0  0  0  0  0  0
    0.8984   -2.4066    3.9326 H   0  0  0  0  0  0  0  0  0  0  0  0
    0.2209   -3.1605    5.3800 H   0  0  0  0  0  0  0  0  0  0  0  0
  1  2  1  0
  1  6  1  0
  1  7  1  0
  1  8  1  0
  2  3  1  0
  2  9  1  0
  2 10  1  0
  3  4  1  0
  4  5  1  0
  4 11  1  0
  4 12  1  0
  5  6  1  0
  6 13  1  0
  6 14  1  0
 15 16  1  0
 15 21  1  0
 15 22  1  0
 16 17  1  0
 16 23  1  0
 16 24  1  0
 17 18  1  0
 18 19  1  0
 18 25  1  0
 18 26  1  0
 19 20  1  0
 19 27  1  0
 19 28  1  0
 20 29  1  0
 20 30  1  0
 20 31  1  0
M  RAD  1  15   2
M  END
>  <reaction>  (11) 
rmg_rxn_265

>  <mol_properties>  (11) 
{"1": {"label": "*1", "atom_type": "Cs"}, "2": {"label": "*0", "atom_type": "O2s"}, "8": {"label": "*2", "atom_type": "H0"}, "14": {"label": "*3", "atom_type": "Cs"}, "15": {"label": "*4", "atom_type": "Cs"}}

>  <type>  (11) 
unop_7

>  <geom_source>  (11) 
Heuristics

$$$$

     RDKit          3D

 31 30  0  0  0  0  0  0  0  0999 V2000
   -0.2687    1.5720   -2.4029 C   0  0  0  0  0  0  0  0  0  0  0  0
   -0.2687    1.5720   -0.8809 C   0  0  0  0  0  0  0  0  0  0  0  0
   -1.3169    2.3847   -0.3887 O   0  0  0  0  0  0  0  0  0  0  0  0
   -1.2260    3.6842   -0.8881 C   0  0  0  0  0  0  0  0  0  0  0  0
   -1.3169    3.7404   -2.2791 O   0  0  0  0  0  0  0  0  0  0  0  0
   -0.2687    3.0137   -2.8910 C   0  0  0  0  0  0  0  0  0  0  0  0
    0.6053    1.0396   -2.7848 H   0  0  0  0  0  0  0  0  0  0  0  0
   -1.1652    1.0659   -2.7659 H   0  0  0  0  0  0  0  0  0  0  0  0
   -0.4594    0.3750   -0.3920 H   0  0  0  0  0  0  0  0  0  0  0  0
    0.6950    1.9480   -0.5041 H   0  0  0  0  0  0  0  0  0  0  0  0
   -0.2707    4.1363   -0.5639 H   0  0  0  0  0  0  0  0  0  0  0  0
   -2.0671    4.2447   -0.4861 H   0  0  0  0  0  0  0  0  0  0  0  0
    0.6950    3.4911   -2.6557 H   0  0  0  0  0  0  0  0  0  0  0  0
   -0.4276    3.0796   -3.9665 H   0  0  0  0  0  0  0  0  0  0  0  0
   -0.6505   -0.8242    0.0976 C   0  0  0  0  0  3  0  0  0  0  0  0
    0.6730   -1.5268    0.2935 C   0  0  0  0  0  0  0  0  0  0  0  0
    0.6287   -2.2576    1.4925 O   0  0  0  0  0  0  0  0  0  0  0  0
    1.8198   -2.9516    1.7653 C   0  0  0  0  0  0  0  0  0  0  0  0
    1.6604   -3.7362    3.0515 C   0  0  0  0  0  0  0  0  0  0  0  0
    0.5838   -4.8101    2.9680 C   0  0  0  0  0  0  0  0  0  0  0  0
   -1.4639   -1.5488    0.0460 H   0  0  0  0  0  0  0  0  0  0  0  0
   -0.8481   -0.1436    0.9265 H   0  0  0  0  0  0  0  0  0  0  0  0
    1.4946   -0.7960    0.3296 H   0  0  0  0  0  0  0  0  0  0  0  0
    0.8780   -2.2027   -0.5499 H   0  0  0  0  0  0  0  0  0  0  0  0
    2.0551   -3.6339    0.9331 H   0  0  0  0  0  0  0  0  0  0  0  0
    2.6558   -2.2421    1.8527 H   0  0  0  0  0  0  0  0  0  0  0  0
    1.4304   -3.0363    3.8589 H   0  0  0  0  0  0  0  0  0  0  0  0
    2.6263   -4.1896    3.2907 H   0  0  0  0  0  0  0  0  0  0  0  0
    0.8133   -5.5315    2.1797 H   0  0  0  0  0  0  0  0  0  0  0  0
   -0.3868   -4.3673    2.7445 H   0  0  0  0  0  0  0  0  0  0  0  0
    0.5010   -5.3571    3.9083 H   0  0  0  0  0  0  0  0  0  0  0  0
  1  2  1  0
  1  6  1  0
  1  7  1  0
  1  8  1  0
  2  3  1  0
  2  9  1  0
  2 10  1  0
  3  4  1  0
  4  5  1  0
  4 11  1  0
  4 12  1  0
  5  6  1  0
  6 13  1  0
  6 14  1  0
 15 16  1  0
 15 21  1  0
 15 22  1  0
 16 17  1  0
 16 23  1  0
 16 24  1  0
 17 18  1  0
 18 19  1  0
 18 25  1  0
 18 26  1  0
 19 20  1  0
 19 27  1  0
 19 28  1  0
 20 29  1  0
 20 30  1  0
 20 31  1  0
M  RAD  1  15   2
M  END
>  <reaction>  (12) 
rmg_rxn_265

>  <mol_properties>  (12) 
{"1": {"label": "*1", "atom_type": "Cs"}, "2": {"label": "*0", "atom_type": "O2s"}, "8": {"label": "*2", "atom_type": "H0"}, "14": {"label": "*3", "atom_type": "Cs"}, "15": {"label": "*4", "atom_type": "Cs"}}

>  <type>  (12) 
unop_8

>  <geom_source>  (12) 
Heuristics

$$$$

     RDKit          3D

 31 30  0  0  0  0  0  0  0  0999 V2000
    1.3542    1.7007   -1.5236 C   0  0  0  0  0  0  0  0  0  0  0  0
    1.3542    1.7007   -0.0015 C   0  0  0  0  0  0  0  0  0  0  0  0
    0.3059    2.5134    0.4906 O   0  0  0  0  0  0  0  0  0  0  0  0
    0.3968    3.8129   -0.0088 C   0  0  0  0  0  0  0  0  0  0  0  0
    0.3059    3.8691   -1.3998 O   0  0  0  0  0  0  0  0  0  0  0  0
    1.3542    3.1424   -2.0117 C   0  0  0  0  0  0  0  0  0  0  0  0
    2.2282    1.1683   -1.9054 H   0  0  0  0  0  0  0  0  0  0  0  0
    0.4576    1.1946   -1.8866 H   0  0  0  0  0  0  0  0  0  0  0  0
    1.1635    0.5037    0.4873 H   0  0  0  0  0  0  0  0  0  0  0  0
    2.3178    2.0767    0.3752 H   0  0  0  0  0  0  0  0  0  0  0  0
    1.3522    4.2650    0.3155 H   0  0  0  0  0  0  0  0  0  0  0  0
   -0.4442    4.3734    0.3932 H   0  0  0  0  0  0  0  0  0  0  0  0
    2.3178    3.6198   -1.7764 H   0  0  0  0  0  0  0  0  0  0  0  0
    1.1953    3.2083   -3.0871 H   0  0  0  0  0  0  0  0  0  0  0  0
    0.9724   -0.6955    0.9770 C   0  0  0  0  0  3  0  0  0  0  0  0
    0.1238   -1.5169    0.0343 C   0  0  0  0  0  0  0  0  0  0  0  0
   -0.4075   -2.6122    0.7354 O   0  0  0  0  0  0  0  0  0  0  0  0
   -1.2173   -3.4416   -0.0592 C   0  0  0  0  0  0  0  0  0  0  0  0
   -1.7719   -4.5658    0.7916 C   0  0  0  0  0  0  0  0  0  0  0  0
   -2.6805   -4.0767    1.9116 C   0  0  0  0  0  0  0  0  0  0  0  0
    0.3725   -0.3302    1.8113 H   0  0  0  0  0  0  0  0  0  0  0  0
    1.7894   -1.2965    1.3778 H   0  0  0  0  0  0  0  0  0  0  0  0
    0.7262   -1.8717   -0.8151 H   0  0  0  0  0  0  0  0  0  0  0  0
   -0.6917   -0.9061   -0.3803 H   0  0  0  0  0  0  0  0  0  0  0  0
   -2.0418   -2.8548   -0.4942 H   0  0  0  0  0  0  0  0  0  0  0  0
   -0.6302   -3.8499   -0.8948 H   0  0  0  0  0  0  0  0  0  0  0  0
   -0.9345   -5.1318    1.2078 H   0  0  0  0  0  0  0  0  0  0  0  0
   -2.3188   -5.2469    0.1337 H   0  0  0  0  0  0  0  0  0  0  0  0
   -3.5360   -3.5290    1.5083 H   0  0  0  0  0  0  0  0  0  0  0  0
   -2.1409   -3.4082    2.5824 H   0  0  0  0  0  0  0  0  0  0  0  0
   -3.0648   -4.9121    2.4987 H   0  0  0  0  0  0  0  0  0  0  0  0
  1  2  1  0
  1  6  1  0
  1  7  1  0
  1  8  1  0
  2  3  1  0
  2  9  1  0
  2 10  1  0
  3  4  1  0
  4  5  1  0
  4 11  1  0
  4 12  1  0
  5  6  1  0
  6 13  1  0
  6 14  1  0
 15 16  1  0
 15 21  1  0
 15 22  1  0
 16 17  1  0
 16 23  1  0
 16 24  1  0
 17 18  1  0
 18 19  1  0
 18 25  1  0
 18 26  1  0
 19 20  1  0
 19 27  1  0
 19 28  1  0
 20 29  1  0
 20 30  1  0
 20 31  1  0
M  RAD  1  15   2
M  END
>  <reaction>  (13) 
rmg_rxn_265

>  <mol_properties>  (13) 
{"1": {"label": "*1", "atom_type": "Cs"}, "2": {"label": "*0", "atom_type": "O2s"}, "8": {"label": "*2", "atom_type": "H0"}, "14": {"label": "*3", "atom_type": "Cs"}, "15": {"label": "*4", "atom_type": "Cs"}}

>  <type>  (13) 
unop_9

>  <geom_source>  (13) 
Heuristics

$$$$

     RDKit          3D

 31 30  0  0  0  0  0  0  0  0999 V2000
   -0.2565    1.8200   -1.9071 C   0  0  0  0  0  0  0  0  0  0  0  0
   -0.2565    1.8200   -0.3850 C   0  0  0  0  0  0  0  0  0  0  0  0
   -1.3047    2.6326    0.1071 O   0  0  0  0  0  0  0  0  0  0  0  0
   -1.2138    3.9322   -0.3922 C   0  0  0  0  0  0  0  0  0  0  0  0
   -1.3047    3.9884   -1.7833 O   0  0  0  0  0  0  0  0  0  0  0  0
   -0.2565    3.2617   -2.3952 C   0  0  0  0  0  0  0  0  0  0  0  0
    0.6175    1.2876   -2.2889 H   0  0  0  0  0  0  0  0  0  0  0  0
   -1.1530    1.3139   -2.2701 H   0  0  0  0  0  0  0  0  0  0  0  0
   -0.4472    0.6230    0.1038 H   0  0  0  0  0  0  0  0  0  0  0  0
    0.7072    2.1960   -0.0083 H   0  0  0  0  0  0  0  0  0  0  0  0
   -0.2585    4.3842   -0.0680 H   0  0  0  0  0  0  0  0  0  0  0  0
   -2.0549    4.4927    0.0097 H   0  0  0  0  0  0  0  0  0  0  0  0
    0.7072    3.7391   -2.1599 H   0  0  0  0  0  0  0  0  0  0  0  0
   -0.4154    3.3276   -3.4706 H   0  0  0  0  0  0  0  0  0  0  0  0
   -0.6383   -0.5762    0.5935 C   0  0  0  0  0  3  0  0  0  0  0  0
    0.4559   -1.5107    0.1320 C   0  0  0  0  0  0  0  0  0  0  0  0
    0.6892   -2.4694    1.1320 O   0  0  0  0  0  0  0  0  0  0  0  0
    1.6954   -3.3910    0.7954 C   0  0  0  0  0  0  0  0  0  0  0  0
    1.8450   -4.4018    1.9139 C   0  0  0  0  0  0  0  0  0  0  0  0
    0.5933   -5.2411    2.1336 C   0  0  0  0  0  0  0  0  0  0  0  0
   -1.5591   -1.1294    0.7816 H   0  0  0  0  0  0  0  0  0  0  0  0
   -0.3460   -0.0711    1.5147 H   0  0  0  0  0  0  0  0  0  0  0  0
    1.3798   -0.9496   -0.0727 H   0  0  0  0  0  0  0  0  0  0  0  0
    0.1660   -2.0093   -0.8047 H   0  0  0  0  0  0  0  0  0  0  0  0
    1.4353   -3.9031   -0.1446 H   0  0  0  0  0  0  0  0  0  0  0  0
    2.6462   -2.8638    0.6282 H   0  0  0  0  0  0  0  0  0  0  0  0
    2.1048   -3.8680    2.8317 H   0  0  0  0  0  0  0  0  0  0  0  0
    2.6935   -5.0478    1.6720 H   0  0  0  0  0  0  0  0  0  0  0  0
    0.3352   -5.7995    1.2304 H   0  0  0  0  0  0  0  0  0  0  0  0
   -0.2560   -4.6079    2.3902 H   0  0  0  0  0  0  0  0  0  0  0  0
    0.7394   -5.9600    2.9412 H   0  0  0  0  0  0  0  0  0  0  0  0
  1  2  1  0
  1  6  1  0
  1  7  1  0
  1  8  1  0
  2  3  1  0
  2  9  1  0
  2 10  1  0
  3  4  1  0
  4  5  1  0
  4 11  1  0
  4 12  1  0
  5  6  1  0
  6 13  1  0
  6 14  1  0
 15 16  1  0
 15 21  1  0
 15 22  1  0
 16 17  1  0
 16 23  1  0
 16 24  1  0
 17 18  1  0
 18 19  1  0
 18 25  1  0
 18 26  1  0
 19 20  1  0
 19 27  1  0
 19 28  1  0
 20 29  1  0
 20 30  1  0
 20 31  1  0
M  RAD  1  15   2
M  END
>  <reaction>  (14) 
rmg_rxn_265

>  <mol_properties>  (14) 
{"1": {"label": "*1", "atom_type": "Cs"}, "2": {"label": "*0", "atom_type": "O2s"}, "8": {"label": "*2", "atom_type": "H0"}, "14": {"label": "*3", "atom_type": "Cs"}, "15": {"label": "*4", "atom_type": "Cs"}}

>  <type>  (14) 
unop_10

>  <geom_source>  (14) 
Heuristics

$$$$

     RDKit          3D

 31 30  0  0  0  0  0  0  0  0999 V2000
    0.5630    1.1766   -2.9319 C   0  0  0  0  0  0  0  0  0  0  0  0
    0.5630    1.1766   -1.4099 C   0  0  0  0  0  0  0  0  0  0  0  0
   -0.4853    1.9892   -0.9178 O   0  0  0  0  0  0  0  0  0  0  0  0
   -0.3944    3.2888   -1.4171 C   0  0  0  0  0  0  0  0  0  0  0  0
   -0.4853    3.3450   -2.8082 O   0  0  0  0  0  0  0  0  0  0  0  0
    0.5630    2.6183   -3.4200 C   0  0  0  0  0  0  0  0  0  0  0  0
    1.4370    0.6442   -3.3138 H   0  0  0  0  0  0  0  0  0  0  0  0
   -0.3336    0.6705   -3.2950 H   0  0  0  0  0  0  0  0  0  0  0  0
    0.3723   -0.0204   -0.9211 H   0  0  0  0  0  0  0  0  0  0  0  0
    1.5266    1.5526   -1.0332 H   0  0  0  0  0  0  0  0  0  0  0  0
    0.5610    3.7409   -1.0929 H   0  0  0  0  0  0  0  0  0  0  0  0
   -1.2354    3.8493   -1.0151 H   0  0  0  0  0  0  0  0  0  0  0  0
    1.5266    3.0957   -3.1848 H   0  0  0  0  0  0  0  0  0  0  0  0
    0.4041    2.6842   -4.4955 H   0  0  0  0  0  0  0  0  0  0  0  0
    0.1812   -1.2196   -0.4314 C   0  0  0  0  0  3  0  0  0  0  0  0
   -0.5229   -1.1342    0.9029 C   0  0  0  0  0  0  0  0  0  0  0  0
   -0.1593   -2.2448    1.6827 O   0  0  0  0  0  0  0  0  0  0  0  0
   -0.7651   -2.2566    2.9507 C   0  0  0  0  0  0  0  0  0  0  0  0
   -0.2827   -3.4653    3.7263 C   0  0  0  0  0  0  0  0  0  0  0  0
    1.2151   -3.4418    4.0006 C   0  0  0  0  0  0  0  0  0  0  0  0
    1.2630   -1.2219   -0.2932 H   0  0  0  0  0  0  0  0  0  0  0  0
   -0.1008   -2.1340   -0.9545 H   0  0  0  0  0  0  0  0  0  0  0  0
   -1.6138   -1.1161    0.7615 H   0  0  0  0  0  0  0  0  0  0  0  0
   -0.2486   -0.2049    1.4237 H   0  0  0  0  0  0  0  0  0  0  0  0
   -0.5129   -1.3329    3.4951 H   0  0  0  0  0  0  0  0  0  0  0  0
   -1.8595   -2.2844    2.8433 H   0  0  0  0  0  0  0  0  0  0  0  0
   -0.5476   -4.3657    3.1660 H   0  0  0  0  0  0  0  0  0  0  0  0
   -0.8372   -3.5037    4.6681 H   0  0  0  0  0  0  0  0  0  0  0  0
    1.4910   -2.5582    4.5815 H   0  0  0  0  0  0  0  0  0  0  0  0
    1.7781   -3.4186    3.0676 H   0  0  0  0  0  0  0  0  0  0  0  0
    1.5249   -4.3230    4.5644 H   0  0  0  0  0  0  0  0  0  0  0  0
  1  2  1  0
  1  6  1  0
  1  7  1  0
  1  8  1  0
  2  3  1  0
  2  9  1  0
  2 10  1  0
  3  4  1  0
  4  5  1  0
  4 11  1  0
  4 12  1  0
  5  6  1  0
  6 13  1  0
  6 14  1  0
 15 16  1  0
 15 21  1  0
 15 22  1  0
 16 17  1  0
 16 23  1  0
 16 24  1  0
 17 18  1  0
 18 19  1  0
 18 25  1  0
 18 26  1  0
 19 20  1  0
 19 27  1  0
 19 28  1  0
 20 29  1  0
 20 30  1  0
 20 31  1  0
M  RAD  1  15   2
M  END
>  <reaction>  (15) 
rmg_rxn_265

>  <mol_properties>  (15) 
{"1": {"label": "*1", "atom_type": "Cs"}, "2": {"label": "*0", "atom_type": "O2s"}, "8": {"label": "*2", "atom_type": "H0"}, "14": {"label": "*3", "atom_type": "Cs"}, "15": {"label": "*4", "atom_type": "Cs"}}

>  <type>  (15) 
unop_11

>  <geom_source>  (15) 
Heuristics

$$$$

     RDKit          3D

 31 30  0  0  0  0  0  0  0  0999 V2000
    0.7756    1.9581   -1.3056 C   0  0  0  0  0  0  0  0  0  0  0  0
    0.7756    1.9581    0.2165 C   0  0  0  0  0  0  0  0  0  0  0  0
   -0.2727    2.7708    0.7086 O   0  0  0  0  0  0  0  0  0  0  0  0
   -0.1818    4.0703    0.2093 C   0  0  0  0  0  0  0  0  0  0  0  0
   -0.2727    4.1265   -1.1818 O   0  0  0  0  0  0  0  0  0  0  0  0
    0.7756    3.3998   -1.7937 C   0  0  0  0  0  0  0  0  0  0  0  0
    1.6495    1.4257   -1.6874 H   0  0  0  0  0  0  0  0  0  0  0  0
   -0.1210    1.4520   -1.6686 H   0  0  0  0  0  0  0  0  0  0  0  0
    0.5848    0.7611    0.7053 H   0  0  0  0  0  0  0  0  0  0  0  0
    1.7392    2.3341    0.5932 H   0  0  0  0  0  0  0  0  0  0  0  0
    0.7735    4.5224    0.5335 H   0  0  0  0  0  0  0  0  0  0  0  0
   -1.0229    4.6308    0.6112 H   0  0  0  0  0  0  0  0  0  0  0  0
    1.7392    3.8772   -1.5584 H   0  0  0  0  0  0  0  0  0  0  0  0
    0.6166    3.4657   -2.8691 H   0  0  0  0  0  0  0  0  0  0  0  0
    0.3937   -0.4381    1.1950 C   0  0  0  0  0  3  0  0  0  0  0  0
    0.2339   -1.4412    0.0762 C   0  0  0  0  0  0  0  0  0  0  0  0
    0.0316   -2.7157    0.6314 O   0  0  0  0  0  0  0  0  0  0  0  0
   -0.1299   -3.7239   -0.3342 C   0  0  0  0  0  0  0  0  0  0  0  0
   -0.3801   -5.0476    0.3590 C   0  0  0  0  0  0  0  0  0  0  0  0
   -1.6682   -5.0639    1.1713 C   0  0  0  0  0  0  0  0  0  0  0  0
   -0.4989   -0.4188    1.8213 H   0  0  0  0  0  0  0  0  0  0  0  0
    1.2480   -0.6972    1.8214 H   0  0  0  0  0  0  0  0  0  0  0  0
    1.1284   -1.4486   -0.5642 H   0  0  0  0  0  0  0  0  0  0  0  0
   -0.6195   -1.1713   -0.5633 H   0  0  0  0  0  0  0  0  0  0  0  0
   -0.9760   -3.4777   -0.9953 H   0  0  0  0  0  0  0  0  0  0  0  0
    0.7694   -3.7875   -0.9643 H   0  0  0  0  0  0  0  0  0  0  0  0
    0.4737   -5.2680    1.0050 H   0  0  0  0  0  0  0  0  0  0  0  0
   -0.4081   -5.8280   -0.4065 H   0  0  0  0  0  0  0  0  0  0  0  0
   -2.5337   -4.8685    0.5333 H   0  0  0  0  0  0  0  0  0  0  0  0
   -1.6448   -4.2990    1.9475 H   0  0  0  0  0  0  0  0  0  0  0  0
   -1.8178   -6.0324    1.6508 H   0  0  0  0  0  0  0  0  0  0  0  0
  1  2  1  0
  1  6  1  0
  1  7  1  0
  1  8  1  0
  2  3  1  0
  2  9  1  0
  2 10  1  0
  3  4  1  0
  4  5  1  0
  4 11  1  0
  4 12  1  0
  5  6  1  0
  6 13  1  0
  6 14  1  0
 15 16  1  0
 15 21  1  0
 15 22  1  0
 16 17  1  0
 16 23  1  0
 16 24  1  0
 17 18  1  0
 18 19  1  0
 18 25  1  0
 18 26  1  0
 19 20  1  0
 19 27  1  0
 19 28  1  0
 20 29  1  0
 20 30  1  0
 20 31  1  0
M  RAD  1  15   2
M  END
>  <reaction>  (16) 
rmg_rxn_265

>  <mol_properties>  (16) 
{"1": {"label": "*1", "atom_type": "Cs"}, "2": {"label": "*0", "atom_type": "O2s"}, "8": {"label": "*2", "atom_type": "H0"}, "14": {"label": "*3", "atom_type": "Cs"}, "15": {"label": "*4", "atom_type": "Cs"}}

>  <type>  (16) 
unop_12

>  <geom_source>  (16) 
Heuristics

$$$$

     RDKit          3D

 31 30  0  0  0  0  0  0  0  0999 V2000
    2.0028   -0.9351   -0.2872 O   0  0  0  0  0  0  0  0  0  0  0  0
   -3.9764    2.0898   -0.0602 O   0  0  0  0  0  0  0  0  0  0  0  0
   -3.6835   -0.0059    1.0698 O   0  0  0  0  0  0  0  0  0  0  0  0
    4.3839   -0.7022   -0.2054 C   0  0  0  0  0  0  0  0  0  0  0  0
   -3.0899    0.1987   -1.2552 C   0  0  0  0  0  0  0  0  0  0  0  0
    3.0543   -0.3845    0.4772 C   0  0  0  0  0  0  0  0  0  0  0  0
   -4.2022    1.2445   -1.1670 C   0  0  0  0  0  0  0  0  0  0  0  0
    0.7684   -0.6476    0.3344 C   0  0  0  0  0  0  0  0  0  0  0  0
    5.5624   -0.1304    0.5777 C   0  0  0  0  0  0  0  0  0  0  0  0
   -0.3585   -1.2431   -0.4937 C   0  0  0  0  0  0  0  0  0  0  0  0
   -4.0886    1.3571    1.1571 C   0  0  0  0  0  0  0  0  0  0  0  0
   -2.6174   -0.1399    0.1564 C   0  0  0  0  0  3  0  0  0  0  0  0
    4.3853   -0.2715   -1.2304 H   0  0  0  0  0  0  0  0  0  0  0  0
    4.5029   -1.8044   -0.2880 H   0  0  0  0  0  0  0  0  0  0  0  0
   -2.2351    0.5917   -1.8471 H   0  0  0  0  0  0  0  0  0  0  0  0
   -3.4753   -0.7181   -1.7495 H   0  0  0  0  0  0  0  0  0  0  0  0
    0.6043    0.4519    0.4026 H   0  0  0  0  0  0  0  0  0  0  0  0
    0.7230   -1.0948    1.3534 H   0  0  0  0  0  0  0  0  0  0  0  0
    2.9470    0.7226    0.5495 H   0  0  0  0  0  0  0  0  0  0  0  0
    3.0657   -0.8252    1.5010 H   0  0  0  0  0  0  0  0  0  0  0  0
   -5.1989    0.7518   -1.0864 H   0  0  0  0  0  0  0  0  0  0  0  0
   -4.2087    1.8550   -2.0945 H   0  0  0  0  0  0  0  0  0  0  0  0
   -0.3535   -0.8050   -1.5143 H   0  0  0  0  0  0  0  0  0  0  0  0
   -0.2354   -2.3445   -0.5680 H   0  0  0  0  0  0  0  0  0  0  0  0
   -1.4885   -0.9848    0.0675 H   0  0  0  0  0  0  0  0  0  0  0  0
    5.4768    0.9747    0.6522 H   0  0  0  0  0  0  0  0  0  0  0  0
    5.5950   -0.5658    1.5992 H   0  0  0  0  0  0  0  0  0  0  0  0
    6.5106   -0.3785    0.0558 H   0  0  0  0  0  0  0  0  0  0  0  0
   -5.1445    1.3910    1.4994 H   0  0  0  0  0  0  0  0  0  0  0  0
   -3.4778    1.8646    1.9336 H   0  0  0  0  0  0  0  0  0  0  0  0
   -1.7483    0.4879    0.4602 H   0  0  0  0  0  0  0  0  0  0  0  0
  1  8  1  0
  1  6  1  0
  2  7  1  0
  2 11  1  0
  3 12  1  0
  3 11  1  0
  4  9  1  0
  4  6  1  0
  4 13  1  0
  4 14  1  0
  5 12  1  0
  5  7  1  0
  5 15  1  0
  5 16  1  0
  6 19  1  0
  6 20  1  0
  7 21  1  0
  7 22  1  0
  8 10  1  0
  8 17  1  0
  8 18  1  0
  9 26  1  0
  9 27  1  0
  9 28  1  0
 10 23  1  0
 10 24  1  0
 10 25  1  0
 11 29  1  0
 11 30  1  0
 12 31  1  0
M  RAD  1  12   2
M  END
>  <reaction>  (17) 
rmg_rxn_265

>  <mol_properties>  (17) 
{"1": {"label": "*1", "atom_type": "Cs"}, "2": {"label": "*0", "atom_type": "O2s"}, "8": {"label": "*2", "atom_type": "H0"}, "14": {"label": "*3", "atom_type": "Cs"}, "15": {"label": "*4", "atom_type": "Cs"}}

>  <type>  (17) 
unop_13

>  <geom_source>  (17) 
AutoTST

$$$$

     RDKit          3D

 31 30  0  0  0  0  0  0  0  0999 V2000
    0.1326    1.9918   -1.4671 C   0  0  0  0  0  0  0  0  0  0  0  0
    0.1326    1.9918    0.0549 C   0  0  0  0  0  0  0  0  0  0  0  0
   -0.9157    2.8044    0.5470 O   0  0  0  0  0  0  0  0  0  0  0  0
   -0.8248    4.1040    0.0477 C   0  0  0  0  0  0  0  0  0  0  0  0
   -0.9157    4.1602   -1.3433 O   0  0  0  0  0  0  0  0  0  0  0  0
    0.1326    3.4335   -1.9552 C   0  0  0  0  0  0  0  0  0  0  0  0
    1.0066    1.4594   -1.8490 H   0  0  0  0  0  0  0  0  0  0  0  0
   -0.7640    1.4857   -1.8301 H   0  0  0  0  0  0  0  0  0  0  0  0
   -0.0582    0.7948    0.5437 H   0  0  0  0  0  0  0  0  0  0  0  0
    1.0962    2.3678    0.4316 H   0  0  0  0  0  0  0  0  0  0  0  0
    0.1305    4.5560    0.3719 H   0  0  0  0  0  0  0  0  0  0  0  0
   -1.6659    4.6645    0.4497 H   0  0  0  0  0  0  0  0  0  0  0  0
    1.0962    3.9109   -1.7199 H   0  0  0  0  0  0  0  0  0  0  0  0
   -0.0264    3.4994   -3.0307 H   0  0  0  0  0  0  0  0  0  0  0  0
   -0.2493   -0.4044    1.0334 C   0  0  0  0  0  3  0  0  0  0  0  0
    0.3020   -1.4489    0.0907 C   0  0  0  0  0  0  0  0  0  0  0  0
    0.4681   -2.6547    0.7923 O   0  0  0  0  0  0  0  0  0  0  0  0
    0.9783   -3.6951   -0.0027 C   0  0  0  0  0  0  0  0  0  0  0  0
    1.0839   -4.9570    0.8290 C   0  0  0  0  0  0  0  0  0  0  0  0
   -0.2644   -5.4605    1.3267 C   0  0  0  0  0  0  0  0  0  0  0  0
   -1.2127   -0.7217    1.4341 H   0  0  0  0  0  0  0  0  0  0  0  0
    0.4344   -0.2438    1.8678 H   0  0  0  0  0  0  0  0  0  0  0  0
    1.2663   -1.1209   -0.3251 H   0  0  0  0  0  0  0  0  0  0  0  0
   -0.3815   -1.6002   -0.7578 H   0  0  0  0  0  0  0  0  0  0  0  0
    0.3163   -3.8661   -0.8664 H   0  0  0  0  0  0  0  0  0  0  0  0
    1.9659   -3.4154   -0.3982 H   0  0  0  0  0  0  0  0  0  0  0  0
    1.7469   -4.7603    1.6756 H   0  0  0  0  0  0  0  0  0  0  0  0
    1.5693   -5.7229    0.2178 H   0  0  0  0  0  0  0  0  0  0  0  0
   -0.9300   -5.6843    0.4893 H   0  0  0  0  0  0  0  0  0  0  0  0
   -0.7507   -4.7100    1.9498 H   0  0  0  0  0  0  0  0  0  0  0  0
   -0.1502   -6.3715    1.9161 H   0  0  0  0  0  0  0  0  0  0  0  0
  1  2  1  0
  1  6  1  0
  1  7  1  0
  1  8  1  0
  2  3  1  0
  2  9  1  0
  2 10  1  0
  3  4  1  0
  4  5  1  0
  4 11  1  0
  4 12  1  0
  5  6  1  0
  6 13  1  0
  6 14  1  0
 15 16  1  0
 15 21  1  0
 15 22  1  0
 16 17  1  0
 16 23  1  0
 16 24  1  0
 17 18  1  0
 18 19  1  0
 18 25  1  0
 18 26  1  0
 19 20  1  0
 19 27  1  0
 19 28  1  0
 20 29  1  0
 20 30  1  0
 20 31  1  0
M  RAD  1  15   2
M  END
>  <reaction>  (18) 
rmg_rxn_265

>  <mol_properties>  (18) 
{"1": {"label": "*1", "atom_type": "Cs"}, "2": {"label": "*0", "atom_type": "O2s"}, "8": {"label": "*2", "atom_type": "H0"}, "14": {"label": "*3", "atom_type": "Cs"}, "15": {"label": "*4", "atom_type": "Cs"}}

>  <type>  (18) 
unop_14

>  <geom_source>  (18) 
gaussian_log

$$$$
