
     RDKit          3D

 15 14  0  0  0  0  0  0  0  0999 V2000
   -1.2811   -0.4129    1.0228 C   0  0  0  0  0  0  0  0  0  0  0  0
   -1.0023   -0.5809   -0.4650 C   0  0  0  0  0  0  0  0  0  0  0  0
   -2.0576    0.0568   -1.3449 C   0  0  0  0  0  0  0  0  0  0  0  0
   -2.0663    1.4464   -1.1307 O   0  0  0  0  0  0  0  0  0  0  0  0
   -3.0424    2.1072   -1.8849 C   0  0  0  0  0  0  0  0  0  0  0  0
   -2.2382   -0.8657    1.2935 H   0  0  0  0  0  0  0  0  0  0  0  0
   -1.3219    0.6426    1.2914 H   0  0  0  0  0  0  0  0  0  0  0  0
   -0.5042   -0.8881    1.6236 H   0  0  0  0  0  0  0  0  0  0  0  0
   -0.0316   -0.1460   -0.7167 H   0  0  0  0  0  0  0  0  0  0  0  0
   -0.9494   -1.6429   -0.7203 H   0  0  0  0  0  0  0  0  0  0  0  0
   -1.8518   -0.1570   -2.4041 H   0  0  0  0  0  0  0  0  0  0  0  0
   -3.0491   -0.3636   -1.1124 H   0  0  0  0  0  0  0  0  0  0  0  0
   -4.0521    1.7545   -1.6343 H   0  0  0  0  0  0  0  0  0  0  0  0
   -2.8850    1.9634   -2.9626 H   0  0  0  0  0  0  0  0  0  0  0  0
   -2.9730    3.1700   -1.6570 H   0  0  0  0  0  0  0  0  0  0  0  0
  1  2  1  0
  1  6  1  0
  1  7  1  0
  1  8  1  0
  2  3  1  0
  2  9  1  0
  2 10  1  0
  3  4  1  0
  3 11  1  0
  3 12  1  0
  4  5  1  0
  5 13  1  0
  5 14  1  0
  5 15  1  0
M  END
>  <reaction>  (1) 
rmg_rxn_16613

>  <mol_properties>  (1) 
{"1": {"label": "donator", "atom_type": "Cs"}, "8": {"label": "d_hydrogen", "atom_type": "H0"}}

>  <type>  (1) 
r1h

$$$$

     RDKit          3D

  7  6  0  0  0  0  0  0  0  0999 V2000
   -0.8791   -0.0512   -0.1120 C   0  0  0  0  0  0  0  0  0  0  0  0
    0.2559    0.5034    0.6662 C   0  0  0  0  0  3  0  0  0  0  0  0
    1.4643    0.2947    0.5554 N   0  0  0  0  0  0  0  0  0  0  0  0
   -0.5267   -0.7414   -0.8839 H   0  0  0  0  0  0  0  0  0  0  0  0
   -1.5634   -0.5717    0.5592 H   0  0  0  0  0  0  0  0  0  0  0  0
   -1.4369    0.7630   -0.5765 H   0  0  0  0  0  0  0  0  0  0  0  0
    2.0849    0.7820    1.1971 H   0  0  0  0  0  0  0  0  0  0  0  0
  1  2  1  0
  1  4  1  0
  1  5  1  0
  1  6  1  0
  2  3  2  3
  3  7  1  0
M  RAD  1   2   2
M  END
>  <reaction>  (2) 
rmg_rxn_16613

>  <mol_properties>  (2) 
{"1": {"label": "acceptor", "atom_type": "Cd"}}

>  <type>  (2) 
r2

$$$$

     RDKit          3D

  8  7  0  0  0  0  0  0  0  0999 V2000
    0.9548    0.1194   -0.0790 C   0  0  0  0  0  0  0  0  0  0  0  0
   -0.4838   -0.2649    0.0193 C   0  0  0  0  0  0  0  0  0  0  0  0
   -0.8933   -1.1081    0.8664 N   0  0  0  0  0  0  0  0  0  0  0  0
    1.3360   -0.0983   -1.0800 H   0  0  0  0  0  0  0  0  0  0  0  0
    1.0698    1.1948    0.0786 H   0  0  0  0  0  0  0  0  0  0  0  0
    1.5426   -0.4219    0.6602 H   0  0  0  0  0  0  0  0  0  0  0  0
   -1.1575    0.2324   -0.6905 H   0  0  0  0  0  0  0  0  0  0  0  0
   -1.8989   -1.2455    0.7886 H   0  0  0  0  0  0  0  0  0  0  0  0
  1  2  1  0
  1  4  1  0
  1  5  1  0
  1  6  1  0
  2  3  2  3
  2  7  1  0
  3  8  1  0
M  END
>  <reaction>  (3) 
rmg_rxn_16613

>  <mol_properties>  (3) 
{"1": {"label": "acceptor", "atom_type": "Cd"}, "7": {"label": "a_hydrogen", "atom_type": "H0"}}

>  <type>  (3) 
r2h

$$$$

     RDKit          3D

 22 20  0  0  0  0  0  0  0  0999 V2000
   -0.7783   -2.9964    0.7866 C   0  0  0  0  0  0  0  0  0  0  0  0
   -0.8553   -1.5283    0.5422 C   0  0  0  0  0  0  0  0  0  0  0  0
   -1.8377   -0.7962    0.7789 N   0  0  0  0  0  0  0  0  0  0  0  0
   -1.7104   -3.3667    1.2158 H   0  0  0  0  0  0  0  0  0  0  0  0
   -0.5755   -3.5177   -0.1515 H   0  0  0  0  0  0  0  0  0  0  0  0
    0.0499   -3.2183    1.4632 H   0  0  0  0  0  0  0  0  0  0  0  0
   -1.6481    0.1742    0.5223 H   0  0  0  0  0  0  0  0  0  0  0  0
    1.0587   -0.3400   -2.0338 C   0  0  0  0  0  0  0  0  0  0  0  0
    1.2980   -0.2977   -0.5482 C   0  0  0  0  0  3  0  0  0  0  0  0
    1.2410    1.0526    0.1021 C   0  0  0  0  0  0  0  0  0  0  0  0
   -0.0195    1.6435   -0.1348 O   0  0  0  0  0  0  0  0  0  0  0  0
   -0.1252    2.9341    0.4033 C   0  0  0  0  0  0  0  0  0  0  0  0
    1.8324    0.2143   -2.5779 H   0  0  0  0  0  0  0  0  0  0  0  0
    0.0962    0.1071   -2.2854 H   0  0  0  0  0  0  0  0  0  0  0  0
    1.0660   -1.3662   -2.4046 H   0  0  0  0  0  0  0  0  0  0  0  0
    0.2438   -0.9943    0.0227 H   0  0  0  0  0  0  0  0  0  0  0  0
    2.1716   -0.8613   -0.2209 H   0  0  0  0  0  0  0  0  0  0  0  0
    1.4137    0.9630    1.1844 H   0  0  0  0  0  0  0  0  0  0  0  0
    2.0304    1.7118   -0.3000 H   0  0  0  0  0  0  0  0  0  0  0  0
    0.6193    3.6108   -0.0353 H   0  0  0  0  0  0  0  0  0  0  0  0
    0.0103    2.9272    1.4926 H   0  0  0  0  0  0  0  0  0  0  0  0
   -1.1220    3.3068    0.1723 H   0  0  0  0  0  0  0  0  0  0  0  0
  1  2  1  0
  1  4  1  0
  1  5  1  0
  1  6  1  0
  2  3  2  3
  2 16  1  0
  3  7  1  0
  8  9  1  0
  8 13  1  0
  8 14  1  0
  8 15  1  0
  9 10  1  0
  9 17  1  0
 10 11  1  0
 10 18  1  0
 10 19  1  0
 11 12  1  0
 12 20  1  0
 12 21  1  0
 12 22  1  0
M  RAD  1   9   2
M  END
>  <reaction>  (4) 
rmg_rxn_16613

>  <mol_properties>  (4) 
{"1": {"label": "*1", "atom_type": "Cd"}, "2": {"label": "*0", "atom_type": "N3d"}, "8": {"label": "*3", "atom_type": "Cs"}, "9": {"label": "*4", "atom_type": "Cs"}, "15": {"label": "*2", "atom_type": "H0"}}

>  <type>  (4) 
ts

$$$$

     RDKit          3D

 22 20  0  0  0  0  0  0  0  0999 V2000
   -2.9529    0.0768    0.3937 C   0  0  0  0  0  0  0  0  0  0  0  0
   -1.6095    0.5438   -0.0160 C   0  0  0  0  0  3  0  0  0  0  0  0
   -1.3641    1.6451   -0.5331 N   0  0  0  0  0  0  0  0  0  0  0  0
   -3.7164    0.8295    0.1965 H   0  0  0  0  0  0  0  0  0  0  0  0
   -3.1939   -0.8361   -0.1495 H   0  0  0  0  0  0  0  0  0  0  0  0
   -2.9433   -0.1617    1.4565 H   0  0  0  0  0  0  0  0  0  0  0  0
   -0.3978    1.8481   -0.7752 H   0  0  0  0  0  0  0  0  0  0  0  0
   -0.0486   -2.5604   -0.0829 C   0  0  0  0  0  0  0  0  0  0  0  0
    0.3835   -1.1763    0.3412 C   0  0  0  0  0  0  0  0  0  0  0  0
    1.4769   -0.5926   -0.5348 C   0  0  0  0  0  0  0  0  0  0  0  0
    1.6249    0.8120   -0.4141 O   0  0  0  0  0  0  0  0  0  0  0  0
    2.1804    1.2378    0.8044 C   0  0  0  0  0  0  0  0  0  0  0  0
    0.7796   -3.2700   -0.0177 H   0  0  0  0  0  0  0  0  0  0  0  0
   -0.4022   -2.5544   -1.1127 H   0  0  0  0  0  0  0  0  0  0  0  0
   -0.8510   -2.9218    0.5571 H   0  0  0  0  0  0  0  0  0  0  0  0
   -0.6328   -0.3609    0.2005 H   0  0  0  0  0  0  0  0  0  0  0  0
    0.6491   -1.1475    1.3979 H   0  0  0  0  0  0  0  0  0  0  0  0
    2.4479   -1.0792   -0.3312 H   0  0  0  0  0  0  0  0  0  0  0  0
    1.2284   -0.7523   -1.5883 H   0  0  0  0  0  0  0  0  0  0  0  0
    1.4959    1.0788    1.6448 H   0  0  0  0  0  0  0  0  0  0  0  0
    2.3724    2.3045    0.6994 H   0  0  0  0  0  0  0  0  0  0  0  0
    3.1239    0.7178    1.0106 H   0  0  0  0  0  0  0  0  0  0  0  0
  1  2  1  0
  1  4  1  0
  1  5  1  0
  1  6  1  0
  2  3  2  3
  3  7  1  0
  8  9  1  0
  8 13  1  0
  8 14  1  0
  8 15  1  0
  9 10  1  0
  9 16  1  0
  9 17  1  0
 10 11  1  0
 10 18  1  0
 10 19  1  0
 11 12  1  0
 12 20  1  0
 12 21  1  0
 12 22  1  0
M  RAD  1   2   2
M  END
>  <reaction>  (5) 
rmg_rxn_16613

>  <mol_properties>  (5) 
{"1": {"label": "*1", "atom_type": "Cd"}, "2": {"label": "*0", "atom_type": "N3d"}, "8": {"label": "*3", "atom_type": "Cs"}, "9": {"label": "*4", "atom_type": "Cs"}, "15": {"label": "*2", "atom_type": "H0"}}

>  <type>  (5) 
unop_1

>  <geom_source>  (5) 
crest_best.xyz

$$$$

     RDKit          3D

 22 20  0  0  0  0  0  0  0  0999 V2000
   -0.6514   -2.8554    1.2770 C   0  0  0  0  0  0  0  0  0  0  0  0
   -0.9431   -1.6665    0.4234 C   0  0  0  0  0  3  0  0  0  0  0  0
   -1.8650   -0.8506    0.7075 N   0  0  0  0  0  0  0  0  0  0  0  0
   -1.3304   -2.8867    2.1273 H   0  0  0  0  0  0  0  0  0  0  0  0
   -0.7540   -3.7736    0.6930 H   0  0  0  0  0  0  0  0  0  0  0  0
    0.3809   -2.8191    1.6345 H   0  0  0  0  0  0  0  0  0  0  0  0
   -1.9190   -0.1051    0.0166 H   0  0  0  0  0  0  0  0  0  0  0  0
    1.1591   -0.3723   -2.0029 C   0  0  0  0  0  0  0  0  0  0  0  0
    1.1591   -0.3723   -0.4800 C   0  0  0  0  0  0  0  0  0  0  0  0
    1.1591    1.0203    0.1161 C   0  0  0  0  0  0  0  0  0  0  0  0
   -0.0259    1.6838   -0.2481 O   0  0  0  0  0  0  0  0  0  0  0  0
   -0.0867    2.9949    0.2371 C   0  0  0  0  0  0  0  0  0  0  0  0
    2.0415    0.1414   -2.3926 H   0  0  0  0  0  0  0  0  0  0  0  0
    0.2767    0.1376   -2.3893 H   0  0  0  0  0  0  0  0  0  0  0  0
    1.1640   -1.3903   -2.3952 H   0  0  0  0  0  0  0  0  0  0  0  0
    0.1102   -1.0180   -0.0292 H   0  0  0  0  0  0  0  0  0  0  0  0
    2.0409   -0.8984   -0.1037 H   0  0  0  0  0  0  0  0  0  0  0  0
    1.2359    0.9666    1.2121 H   0  0  0  0  0  0  0  0  0  0  0  0
    2.0315    1.5873   -0.2461 H   0  0  0  0  0  0  0  0  0  0  0  0
    0.7372    3.6074   -0.1535 H   0  0  0  0  0  0  0  0  0  0  0  0
   -0.0447    3.0210    1.3346 H   0  0  0  0  0  0  0  0  0  0  0  0
   -1.0324    3.4250   -0.0900 H   0  0  0  0  0  0  0  0  0  0  0  0
  1  2  1  0
  1  4  1  0
  1  5  1  0
  1  6  1  0
  2  3  2  3
  3  7  1  0
  8  9  1  0
  8 13  1  0
  8 14  1  0
  8 15  1  0
  9 10  1  0
  9 16  1  0
  9 17  1  0
 10 11  1  0
 10 18  1  0
 10 19  1  0
 11 12  1  0
 12 20  1  0
 12 21  1  0
 12 22  1  0
M  RAD  1   2   2
M  END
>  <reaction>  (6) 
rmg_rxn_16613

>  <mol_properties>  (6) 
{"1": {"label": "*1", "atom_type": "Cd"}, "2": {"label": "*0", "atom_type": "N3d"}, "8": {"label": "*3", "atom_type": "Cs"}, "9": {"label": "*4", "atom_type": "Cs"}, "15": {"label": "*2", "atom_type": "H0"}}

>  <type>  (6) 
unop_2

>  <geom_source>  (6) 
Heuristics

$$$$

     RDKit          3D

 22 20  0  0  0  0  0  0  0  0999 V2000
   -1.4214   -2.6853   -0.3451 C   0  0  0  0  0  0  0  0  0  0  0  0
   -0.9170   -1.5847    0.5274 C   0  0  0  0  0  3  0  0  0  0  0  0
   -1.2356   -1.5005    1.7472 N   0  0  0  0  0  0  0  0  0  0  0  0
   -2.0671   -3.3529    0.2226 H   0  0  0  0  0  0  0  0  0  0  0  0
   -1.9763   -2.2719   -1.1912 H   0  0  0  0  0  0  0  0  0  0  0  0
   -0.5839   -3.2520   -0.7600 H   0  0  0  0  0  0  0  0  0  0  0  0
   -0.8004   -0.6902    2.1834 H   0  0  0  0  0  0  0  0  0  0  0  0
    1.1852   -0.2905   -1.8988 C   0  0  0  0  0  0  0  0  0  0  0  0
    1.1852   -0.2905   -0.3759 C   0  0  0  0  0  0  0  0  0  0  0  0
    1.1852    1.1021    0.2201 C   0  0  0  0  0  0  0  0  0  0  0  0
    0.0002    1.7656   -0.1440 O   0  0  0  0  0  0  0  0  0  0  0  0
   -0.0606    3.0767    0.3411 C   0  0  0  0  0  0  0  0  0  0  0  0
    2.0676    0.2232   -2.2886 H   0  0  0  0  0  0  0  0  0  0  0  0
    0.3028    0.2194   -2.2853 H   0  0  0  0  0  0  0  0  0  0  0  0
    1.1901   -1.3085   -2.2911 H   0  0  0  0  0  0  0  0  0  0  0  0
    0.1363   -0.9362    0.0748 H   0  0  0  0  0  0  0  0  0  0  0  0
    2.0669   -0.8166    0.0003 H   0  0  0  0  0  0  0  0  0  0  0  0
    1.2620    1.0484    1.3162 H   0  0  0  0  0  0  0  0  0  0  0  0
    2.0576    1.6692   -0.1421 H   0  0  0  0  0  0  0  0  0  0  0  0
    0.7633    3.6892   -0.0495 H   0  0  0  0  0  0  0  0  0  0  0  0
   -0.0186    3.1028    1.4386 H   0  0  0  0  0  0  0  0  0  0  0  0
   -1.0063    3.5068    0.0140 H   0  0  0  0  0  0  0  0  0  0  0  0
  1  2  1  0
  1  4  1  0
  1  5  1  0
  1  6  1  0
  2  3  2  3
  3  7  1  0
  8  9  1  0
  8 13  1  0
  8 14  1  0
  8 15  1  0
  9 10  1  0
  9 16  1  0
  9 17  1  0
 10 11  1  0
 10 18  1  0
 10 19  1  0
 11 12  1  0
 12 20  1  0
 12 21  1  0
 12 22  1  0
M  RAD  1   2   2
M  END
>  <reaction>  (7) 
rmg_rxn_16613

>  <mol_properties>  (7) 
{"1": {"label": "*1", "atom_type": "Cd"}, "2": {"label": "*0", "atom_type": "N3d"}, "8": {"label": "*3", "atom_type": "Cs"}, "9": {"label": "*4", "atom_type": "Cs"}, "15": {"label": "*2", "atom_type": "H0"}}

>  <type>  (7) 
unop_3

>  <geom_source>  (7) 
Heuristics

$$$$

     RDKit          3D

 22 20  0  0  0  0  0  0  0  0999 V2000
   -0.7261   -2.3689    1.7622 C   0  0  0  0  0  0  0  0  0  0  0  0
   -0.9038   -1.6882    0.4461 C   0  0  0  0  0  3  0  0  0  0  0  0
   -2.0187   -1.2178    0.0828 N   0  0  0  0  0  0  0  0  0  0  0  0
   -1.6663   -2.3837    2.3107 H   0  0  0  0  0  0  0  0  0  0  0  0
   -0.3736   -3.3927    1.6130 H   0  0  0  0  0  0  0  0  0  0  0  0
    0.0345   -1.8534    2.3541 H   0  0  0  0  0  0  0  0  0  0  0  0
   -1.9525   -0.7915   -0.8391 H   0  0  0  0  0  0  0  0  0  0  0  0
    1.1985   -0.3940   -1.9802 C   0  0  0  0  0  0  0  0  0  0  0  0
    1.1985   -0.3940   -0.4573 C   0  0  0  0  0  0  0  0  0  0  0  0
    1.1985    0.9986    0.1387 C   0  0  0  0  0  0  0  0  0  0  0  0
    0.0134    1.6621   -0.2254 O   0  0  0  0  0  0  0  0  0  0  0  0
   -0.0474    2.9732    0.2598 C   0  0  0  0  0  0  0  0  0  0  0  0
    2.0809    0.1197   -2.3699 H   0  0  0  0  0  0  0  0  0  0  0  0
    0.3160    0.1159   -2.3666 H   0  0  0  0  0  0  0  0  0  0  0  0
    1.2034   -1.4120   -2.3725 H   0  0  0  0  0  0  0  0  0  0  0  0
    0.1495   -1.0398   -0.0066 H   0  0  0  0  0  0  0  0  0  0  0  0
    2.0802   -0.9201   -0.0811 H   0  0  0  0  0  0  0  0  0  0  0  0
    1.2753    0.9449    1.2348 H   0  0  0  0  0  0  0  0  0  0  0  0
    2.0709    1.5656   -0.2235 H   0  0  0  0  0  0  0  0  0  0  0  0
    0.7765    3.5857   -0.1309 H   0  0  0  0  0  0  0  0  0  0  0  0
   -0.0054    2.9993    1.3572 H   0  0  0  0  0  0  0  0  0  0  0  0
   -0.9930    3.4033   -0.0674 H   0  0  0  0  0  0  0  0  0  0  0  0
  1  2  1  0
  1  4  1  0
  1  5  1  0
  1  6  1  0
  2  3  2  3
  3  7  1  0
  8  9  1  0
  8 13  1  0
  8 14  1  0
  8 15  1  0
  9 10  1  0
  9 16  1  0
  9 17  1  0
 10 11  1  0
 10 18  1  0
 10 19  1  0
 11 12  1  0
 12 20  1  0
 12 21  1  0
 12 22  1  0
M  RAD  1   2   2
M  END
>  <reaction>  (8) 
rmg_rxn_16613

>  <mol_properties>  (8) 
{"1": {"label": "*1", "atom_type": "Cd"}, "2": {"label": "*0", "atom_type": "N3d"}, "8": {"label": "*3", "atom_type": "Cs"}, "9": {"label": "*4", "atom_type": "Cs"}, "15": {"label": "*2", "atom_type": "H0"}}

>  <type>  (8) 
unop_4

>  <geom_source>  (8) 
Heuristics

$$$$

     RDKit          3D

 22 20  0  0  0  0  0  0  0  0999 V2000
   -2.1967   -1.1605    0.0716 C   0  0  0  0  0  0  0  0  0  0  0  0
   -0.8728   -1.7139    0.4816 C   0  0  0  0  0  3  0  0  0  0  0  0
   -0.7066   -2.2947    1.5913 N   0  0  0  0  0  0  0  0  0  0  0  0
   -2.9380   -1.3371    0.8489 H   0  0  0  0  0  0  0  0  0  0  0  0
   -2.1147   -0.0873   -0.1184 H   0  0  0  0  0  0  0  0  0  0  0  0
   -2.5272   -1.6246   -0.8612 H   0  0  0  0  0  0  0  0  0  0  0  0
    0.2564   -2.6058    1.7004 H   0  0  0  0  0  0  0  0  0  0  0  0
    1.2294   -0.4196   -1.9446 C   0  0  0  0  0  0  0  0  0  0  0  0
    1.2294   -0.4196   -0.4217 C   0  0  0  0  0  0  0  0  0  0  0  0
    1.2294    0.9729    0.1743 C   0  0  0  0  0  0  0  0  0  0  0  0
    0.0444    1.6364   -0.1898 O   0  0  0  0  0  0  0  0  0  0  0  0
   -0.0164    2.9475    0.2953 C   0  0  0  0  0  0  0  0  0  0  0  0
    2.1118    0.0940   -2.3344 H   0  0  0  0  0  0  0  0  0  0  0  0
    0.3470    0.0903   -2.3311 H   0  0  0  0  0  0  0  0  0  0  0  0
    1.2344   -1.4376   -2.3369 H   0  0  0  0  0  0  0  0  0  0  0  0
    0.1805   -1.0654    0.0290 H   0  0  0  0  0  0  0  0  0  0  0  0
    2.1112   -0.9458   -0.0455 H   0  0  0  0  0  0  0  0  0  0  0  0
    1.3063    0.9192    1.2704 H   0  0  0  0  0  0  0  0  0  0  0  0
    2.1018    1.5400   -0.1879 H   0  0  0  0  0  0  0  0  0  0  0  0
    0.8075    3.5600   -0.0953 H   0  0  0  0  0  0  0  0  0  0  0  0
    0.0256    2.9736    1.3928 H   0  0  0  0  0  0  0  0  0  0  0  0
   -0.9621    3.3776   -0.0318 H   0  0  0  0  0  0  0  0  0  0  0  0
  1  2  1  0
  1  4  1  0
  1  5  1  0
  1  6  1  0
  2  3  2  3
  3  7  1  0
  8  9  1  0
  8 13  1  0
  8 14  1  0
  8 15  1  0
  9 10  1  0
  9 16  1  0
  9 17  1  0
 10 11  1  0
 10 18  1  0
 10 19  1  0
 11 12  1  0
 12 20  1  0
 12 21  1  0
 12 22  1  0
M  RAD  1   2   2
M  END
>  <reaction>  (9) 
rmg_rxn_16613

>  <mol_properties>  (9) 
{"1": {"label": "*1", "atom_type": "Cd"}, "2": {"label": "*0", "atom_type": "N3d"}, "8": {"label": "*3", "atom_type": "Cs"}, "9": {"label": "*4", "atom_type": "Cs"}, "15": {"label": "*2", "atom_type": "H0"}}

>  <type>  (9) 
unop_5

>  <geom_source>  (9) 
Heuristics

$$$$

     RDKit          3D

 22 20  0  0  0  0  0  0  0  0999 V2000
   -1.0205   -1.7149    1.9611 C   0  0  0  0  0  0  0  0  0  0  0  0
   -0.8982   -1.6396    0.4757 C   0  0  0  0  0  3  0  0  0  0  0  0
   -1.7526   -2.1656   -0.2921 N   0  0  0  0  0  0  0  0  0  0  0  0
   -1.9166   -2.2666    2.2397 H   0  0  0  0  0  0  0  0  0  0  0  0
   -0.1418   -2.2052    2.3878 H   0  0  0  0  0  0  0  0  0  0  0  0
   -1.0626   -0.7095    2.3878 H   0  0  0  0  0  0  0  0  0  0  0  0
   -1.5081   -2.0151   -1.2687 H   0  0  0  0  0  0  0  0  0  0  0  0
    1.2041   -0.3453   -1.9506 C   0  0  0  0  0  0  0  0  0  0  0  0
    1.2041   -0.3453   -0.4277 C   0  0  0  0  0  0  0  0  0  0  0  0
    1.2041    1.0473    0.1684 C   0  0  0  0  0  0  0  0  0  0  0  0
    0.0190    1.7107   -0.1958 O   0  0  0  0  0  0  0  0  0  0  0  0
   -0.0417    3.0218    0.2894 C   0  0  0  0  0  0  0  0  0  0  0  0
    2.0865    0.1684   -2.3403 H   0  0  0  0  0  0  0  0  0  0  0  0
    0.3216    0.1646   -2.3370 H   0  0  0  0  0  0  0  0  0  0  0  0
    1.2090   -1.3633   -2.3429 H   0  0  0  0  0  0  0  0  0  0  0  0
    0.1551   -0.9911    0.0231 H   0  0  0  0  0  0  0  0  0  0  0  0
    2.0858   -0.8714   -0.0514 H   0  0  0  0  0  0  0  0  0  0  0  0
    1.2809    0.9936    1.2644 H   0  0  0  0  0  0  0  0  0  0  0  0
    2.0765    1.6143   -0.1938 H   0  0  0  0  0  0  0  0  0  0  0  0
    0.7821    3.6344   -0.1012 H   0  0  0  0  0  0  0  0  0  0  0  0
    0.0002    3.0479    1.3869 H   0  0  0  0  0  0  0  0  0  0  0  0
   -0.9874    3.4520   -0.0377 H   0  0  0  0  0  0  0  0  0  0  0  0
  1  2  1  0
  1  4  1  0
  1  5  1  0
  1  6  1  0
  2  3  2  3
  3  7  1  0
  8  9  1  0
  8 13  1  0
  8 14  1  0
  8 15  1  0
  9 10  1  0
  9 16  1  0
  9 17  1  0
 10 11  1  0
 10 18  1  0
 10 19  1  0
 11 12  1  0
 12 20  1  0
 12 21  1  0
 12 22  1  0
M  RAD  1   2   2
M  END
>  <reaction>  (10) 
rmg_rxn_16613

>  <mol_properties>  (10) 
{"1": {"label": "*1", "atom_type": "Cd"}, "2": {"label": "*0", "atom_type": "N3d"}, "8": {"label": "*3", "atom_type": "Cs"}, "9": {"label": "*4", "atom_type": "Cs"}, "15": {"label": "*2", "atom_type": "H0"}}

>  <type>  (10) 
unop_6

>  <geom_source>  (10) 
Heuristics

$$$$

     RDKit          3D

 22 20  0  0  0  0  0  0  0  0999 V2000
   -2.1301   -0.8791    0.6607 C   0  0  0  0  0  0  0  0  0  0  0  0
   -0.9086   -1.7072    0.4389 C   0  0  0  0  0  3  0  0  0  0  0  0
   -0.5655   -2.6196    1.2427 N   0  0  0  0  0  0  0  0  0  0  0  0
   -2.6336   -1.1846    1.5762 H   0  0  0  0  0  0  0  0  0  0  0  0
   -1.8623    0.1786    0.7262 H   0  0  0  0  0  0  0  0  0  0  0  0
   -2.8147   -0.9823   -0.1851 H   0  0  0  0  0  0  0  0  0  0  0  0
    0.2891   -3.0774    0.9327 H   0  0  0  0  0  0  0  0  0  0  0  0
    1.1937   -0.4129   -1.9874 C   0  0  0  0  0  0  0  0  0  0  0  0
    1.1937   -0.4129   -0.4645 C   0  0  0  0  0  0  0  0  0  0  0  0
    1.1937    0.9797    0.1316 C   0  0  0  0  0  0  0  0  0  0  0  0
    0.0086    1.6431   -0.2326 O   0  0  0  0  0  0  0  0  0  0  0  0
   -0.0522    2.9542    0.2526 C   0  0  0  0  0  0  0  0  0  0  0  0
    2.0760    0.1007   -2.3771 H   0  0  0  0  0  0  0  0  0  0  0  0
    0.3112    0.0970   -2.3738 H   0  0  0  0  0  0  0  0  0  0  0  0
    1.1986   -1.4309   -2.3797 H   0  0  0  0  0  0  0  0  0  0  0  0
    0.1447   -1.0587   -0.0137 H   0  0  0  0  0  0  0  0  0  0  0  0
    2.0754   -0.9391   -0.0882 H   0  0  0  0  0  0  0  0  0  0  0  0
    1.2705    0.9260    1.2276 H   0  0  0  0  0  0  0  0  0  0  0  0
    2.0660    1.5467   -0.2306 H   0  0  0  0  0  0  0  0  0  0  0  0
    0.7717    3.5668   -0.1380 H   0  0  0  0  0  0  0  0  0  0  0  0
   -0.0102    2.9803    1.3501 H   0  0  0  0  0  0  0  0  0  0  0  0
   -0.9978    3.3844   -0.0745 H   0  0  0  0  0  0  0  0  0  0  0  0
  1  2  1  0
  1  4  1  0
  1  5  1  0
  1  6  1  0
  2  3  2  3
  3  7  1  0
  8  9  1  0
  8 13  1  0
  8 14  1  0
  8 15  1  0
  9 10  1  0
  9 16  1  0
  9 17  1  0
 10 11  1  0
 10 18  1  0
 10 19  1  0
 11 12  1  0
 12 20  1  0
 12 21  1  0
 12 22  1  0
M  RAD  1   2   2
M  END
>  <reaction>  (11) 
rmg_rxn_16613

>  <mol_properties>  (11) 
{"1": {"label": "*1", "atom_type": "Cd"}, "2": {"label": "*0", "atom_type": "N3d"}, "8": {"label": "*3", "atom_type": "Cs"}, "9": {"label": "*4", "atom_type": "Cs"}, "15": {"label": "*2", "atom_type": "H0"}}

>  <type>  (11) 
unop_7

>  <geom_source>  (11) 
Heuristics

$$$$

     RDKit          3D

 22 20  0  0  0  0  0  0  0  0999 V2000
   -1.8726   -0.8718    1.2770 C   0  0  0  0  0  0  0  0  0  0  0  0
   -0.9425   -1.6676    0.4234 C   0  0  0  0  0  3  0  0  0  0  0  0
   -0.6291   -2.8581    0.7075 N   0  0  0  0  0  0  0  0  0  0  0  0
   -2.2064   -1.4639    2.1273 H   0  0  0  0  0  0  0  0  0  0  0  0
   -1.3754    0.0336    1.6345 H   0  0  0  0  0  0  0  0  0  0  0  0
   -2.7387   -0.5499    0.6930 H   0  0  0  0  0  0  0  0  0  0  0  0
    0.0123   -3.2420    0.0166 H   0  0  0  0  0  0  0  0  0  0  0  0
    1.1598   -0.3733   -2.0029 C   0  0  0  0  0  0  0  0  0  0  0  0
    1.1598   -0.3733   -0.4800 C   0  0  0  0  0  0  0  0  0  0  0  0
    1.1598    1.0193    0.1161 C   0  0  0  0  0  0  0  0  0  0  0  0
   -0.0253    1.6827   -0.2481 O   0  0  0  0  0  0  0  0  0  0  0  0
   -0.0861    2.9938    0.2371 C   0  0  0  0  0  0  0  0  0  0  0  0
    2.0421    0.1404   -2.3926 H   0  0  0  0  0  0  0  0  0  0  0  0
    0.2773    0.1366   -2.3893 H   0  0  0  0  0  0  0  0  0  0  0  0
    1.1647   -1.3913   -2.3952 H   0  0  0  0  0  0  0  0  0  0  0  0
    0.1108   -1.0191   -0.0292 H   0  0  0  0  0  0  0  0  0  0  0  0
    2.0415   -0.8994   -0.1037 H   0  0  0  0  0  0  0  0  0  0  0  0
    1.2366    0.9656    1.2121 H   0  0  0  0  0  0  0  0  0  0  0  0
    2.0321    1.5863   -0.2461 H   0  0  0  0  0  0  0  0  0  0  0  0
    0.7378    3.6064   -0.1535 H   0  0  0  0  0  0  0  0  0  0  0  0
   -0.0441    3.0199    1.3346 H   0  0  0  0  0  0  0  0  0  0  0  0
   -1.0317    3.4240   -0.0900 H   0  0  0  0  0  0  0  0  0  0  0  0
  1  2  1  0
  1  4  1  0
  1  5  1  0
  1  6  1  0
  2  3  2  3
  3  7  1  0
  8  9  1  0
  8 13  1  0
  8 14  1  0
  8 15  1  0
  9 10  1  0
  9 16  1  0
  9 17  1  0
 10 11  1  0
 10 18  1  0
 10 19  1  0
 11 12  1  0
 12 20  1  0
 12 21  1  0
 12 22  1  0
M  RAD  1   2   2
M  END
>  <reaction>  (12) 
rmg_rxn_16613

>  <mol_properties>  (12) 
{"1": {"label": "*1", "atom_type": "Cd"}, "2": {"label": "*0", "atom_type": "N3d"}, "8": {"label": "*3", "atom_type": "Cs"}, "9": {"label": "*4", "atom_type": "Cs"}, "15": {"label": "*2", "atom_type": "H0"}}

>  <type>  (12) 
unop_8

>  <geom_source>  (12) 
Heuristics

$$$$

     RDKit          3D

 22 20  0  0  0  0  0  0  0  0999 V2000
   -0.7739   -3.0820    0.6607 C   0  0  0  0  0  0  0  0  0  0  0  0
   -0.9632   -1.6184    0.4389 C   0  0  0  0  0  3  0  0  0  0  0  0
   -1.6234   -0.9012    1.2427 N   0  0  0  0  0  0  0  0  0  0  0  0
   -1.2734   -3.3939    1.5762 H   0  0  0  0  0  0  0  0  0  0  0  0
   -1.1744   -3.6468   -0.1851 H   0  0  0  0  0  0  0  0  0  0  0  0
    0.2911   -3.3191    0.7262 H   0  0  0  0  0  0  0  0  0  0  0  0
   -1.6474    0.0680    0.9327 H   0  0  0  0  0  0  0  0  0  0  0  0
    1.1390   -0.3242   -1.9874 C   0  0  0  0  0  0  0  0  0  0  0  0
    1.1390   -0.3242   -0.4645 C   0  0  0  0  0  0  0  0  0  0  0  0
    1.1390    1.0684    0.1316 C   0  0  0  0  0  0  0  0  0  0  0  0
   -0.0460    1.7319   -0.2326 O   0  0  0  0  0  0  0  0  0  0  0  0
   -0.1068    3.0430    0.2526 C   0  0  0  0  0  0  0  0  0  0  0  0
    2.0214    0.1895   -2.3771 H   0  0  0  0  0  0  0  0  0  0  0  0
    0.2566    0.1857   -2.3738 H   0  0  0  0  0  0  0  0  0  0  0  0
    1.1439   -1.3422   -2.3797 H   0  0  0  0  0  0  0  0  0  0  0  0
    0.0901   -0.9699   -0.0137 H   0  0  0  0  0  0  0  0  0  0  0  0
    2.0207   -0.8503   -0.0882 H   0  0  0  0  0  0  0  0  0  0  0  0
    1.2158    1.0147    1.2276 H   0  0  0  0  0  0  0  0  0  0  0  0
    2.0114    1.6355   -0.2306 H   0  0  0  0  0  0  0  0  0  0  0  0
    0.7171    3.6555   -0.1380 H   0  0  0  0  0  0  0  0  0  0  0  0
   -0.0648    3.0691    1.3501 H   0  0  0  0  0  0  0  0  0  0  0  0
   -1.0525    3.4731   -0.0745 H   0  0  0  0  0  0  0  0  0  0  0  0
  1  2  1  0
  1  4  1  0
  1  5  1  0
  1  6  1  0
  2  3  2  3
  3  7  1  0
  8  9  1  0
  8 13  1  0
  8 14  1  0
  8 15  1  0
  9 10  1  0
  9 16  1  0
  9 17  1  0
 10 11  1  0
 10 18  1  0
 10 19  1  0
 11 12  1  0
 12 20  1  0
 12 21  1  0
 12 22  1  0
M  RAD  1   2   2
M  END
>  <reaction>  (13) 
rmg_rxn_16613

>  <mol_properties>  (13) 
{"1": {"label": "*1", "atom_type": "Cd"}, "2": {"label": "*0", "atom_type": "N3d"}, "8": {"label": "*3", "atom_type": "Cs"}, "9": {"label": "*4", "atom_type": "Cs"}, "15": {"label": "*2", "atom_type": "H0"}}

>  <type>  (13) 
unop_9

>  <geom_source>  (13) 
Heuristics

$$$$

     RDKit          3D

 22 20  0  0  0  0  0  0  0  0999 V2000
   -2.9529    0.0768    0.3937 C   0  0  0  0  0  0  0  0  0  0  0  0
   -1.6095    0.5438   -0.0160 C   0  0  0  0  0  3  0  0  0  0  0  0
   -1.3641    1.6451   -0.5331 N   0  0  0  0  0  0  0  0  0  0  0  0
   -3.7164    0.8295    0.1965 H   0  0  0  0  0  0  0  0  0  0  0  0
   -3.1939   -0.8361   -0.1495 H   0  0  0  0  0  0  0  0  0  0  0  0
   -2.9433   -0.1617    1.4565 H   0  0  0  0  0  0  0  0  0  0  0  0
   -0.3978    1.8481   -0.7752 H   0  0  0  0  0  0  0  0  0  0  0  0
   -0.0486   -2.5604   -0.0829 C   0  0  0  0  0  0  0  0  0  0  0  0
    0.3835   -1.1763    0.3412 C   0  0  0  0  0  0  0  0  0  0  0  0
    1.4769   -0.5926   -0.5348 C   0  0  0  0  0  0  0  0  0  0  0  0
    1.6249    0.8120   -0.4141 O   0  0  0  0  0  0  0  0  0  0  0  0
    2.1804    1.2378    0.8044 C   0  0  0  0  0  0  0  0  0  0  0  0
    0.7796   -3.2700   -0.0177 H   0  0  0  0  0  0  0  0  0  0  0  0
   -0.4022   -2.5544   -1.1127 H   0  0  0  0  0  0  0  0  0  0  0  0
   -0.8510   -2.9218    0.5571 H   0  0  0  0  0  0  0  0  0  0  0  0
   -0.6328   -0.3609    0.2005 H   0  0  0  0  0  0  0  0  0  0  0  0
    0.6491   -1.1475    1.3979 H   0  0  0  0  0  0  0  0  0  0  0  0
    2.4479   -1.0792   -0.3312 H   0  0  0  0  0  0  0  0  0  0  0  0
    1.2284   -0.7523   -1.5883 H   0  0  0  0  0  0  0  0  0  0  0  0
    1.4959    1.0788    1.6448 H   0  0  0  0  0  0  0  0  0  0  0  0
    2.3724    2.3045    0.6994 H   0  0  0  0  0  0  0  0  0  0  0  0
    3.1239    0.7178    1.0106 H   0  0  0  0  0  0  0  0  0  0  0  0
  1  2  1  0
  1  4  1  0
  1  5  1  0
  1  6  1  0
  2  3  2  3
  3  7  1  0
  8  9  1  0
  8 13  1  0
  8 14  1  0
  8 15  1  0
  9 10  1  0
  9 16  1  0
  9 17  1  0
 10 11  1  0
 10 18  1  0
 10 19  1  0
 11 12  1  0
 12 20  1  0
 12 21  1  0
 12 22  1  0
M  RAD  1   2   2
M  END
>  <reaction>  (14) 
rmg_rxn_16613

>  <mol_properties>  (14) 
{"1": {"label": "*1", "atom_type": "Cd"}, "2": {"label": "*0", "atom_type": "N3d"}, "8": {"label": "*3", "atom_type": "Cs"}, "9": {"label": "*4", "atom_type": "Cs"}, "15": {"label": "*2", "atom_type": "H0"}}

>  <type>  (14) 
unop_10

>  <geom_source>  (14) 
Heuristics

$$$$

     RDKit          3D

 22 20  0  0  0  0  0  0  0  0999 V2000
   -2.0675   -1.6359   -0.3451 C   0  0  0  0  0  0  0  0  0  0  0  0
   -0.8577   -1.6811    0.5274 C   0  0  0  0  0  3  0  0  0  0  0  0
   -0.9259   -2.0034    1.7472 N   0  0  0  0  0  0  0  0  0  0  0  0
   -2.9543   -1.9118    0.2226 H   0  0  0  0  0  0  0  0  0  0  0  0
   -2.1963   -0.6329   -0.7600 H   0  0  0  0  0  0  0  0  0  0  0  0
   -1.9483   -2.3175   -1.1912 H   0  0  0  0  0  0  0  0  0  0  0  0
   -0.0065   -1.9797    2.1834 H   0  0  0  0  0  0  0  0  0  0  0  0
    1.2445   -0.3869   -1.8988 C   0  0  0  0  0  0  0  0  0  0  0  0
    1.2445   -0.3869   -0.3759 C   0  0  0  0  0  0  0  0  0  0  0  0
    1.2445    1.0057    0.2201 C   0  0  0  0  0  0  0  0  0  0  0  0
    0.0595    1.6692   -0.1440 O   0  0  0  0  0  0  0  0  0  0  0  0
   -0.0013    2.9803    0.3411 C   0  0  0  0  0  0  0  0  0  0  0  0
    2.1269    0.1268   -2.2886 H   0  0  0  0  0  0  0  0  0  0  0  0
    0.3621    0.1230   -2.2853 H   0  0  0  0  0  0  0  0  0  0  0  0
    1.2495   -1.4048   -2.2911 H   0  0  0  0  0  0  0  0  0  0  0  0
    0.1956   -1.0326    0.0748 H   0  0  0  0  0  0  0  0  0  0  0  0
    2.1263   -0.9130    0.0003 H   0  0  0  0  0  0  0  0  0  0  0  0
    1.3214    0.9520    1.3162 H   0  0  0  0  0  0  0  0  0  0  0  0
    2.1169    1.5728   -0.1421 H   0  0  0  0  0  0  0  0  0  0  0  0
    0.8226    3.5928   -0.0495 H   0  0  0  0  0  0  0  0  0  0  0  0
    0.0407    3.0064    1.4386 H   0  0  0  0  0  0  0  0  0  0  0  0
   -0.9470    3.4104    0.0140 H   0  0  0  0  0  0  0  0  0  0  0  0
  1  2  1  0
  1  4  1  0
  1  5  1  0
  1  6  1  0
  2  3  2  3
  3  7  1  0
  8  9  1  0
  8 13  1  0
  8 14  1  0
  8 15  1  0
  9 10  1  0
  9 16  1  0
  9 17  1  0
 10 11  1  0
 10 18  1  0
 10 19  1  0
 11 12  1  0
 12 20  1  0
 12 21  1  0
 12 22  1  0
M  RAD  1   2   2
M  END
>  <reaction>  (15) 
rmg_rxn_16613

>  <mol_properties>  (15) 
{"1": {"label": "*1", "atom_type": "Cd"}, "2": {"label": "*0", "atom_type": "N3d"}, "8": {"label": "*3", "atom_type": "Cs"}, "9": {"label": "*4", "atom_type": "Cs"}, "15": {"label": "*2", "atom_type": "H0"}}

>  <type>  (15) 
unop_11

>  <geom_source>  (15) 
Heuristics

$$$$

     RDKit          3D

 22 20  0  0  0  0  0  0  0  0999 V2000
   -1.0551   -3.0147    0.0716 C   0  0  0  0  0  0  0  0  0  0  0  0
   -0.9531   -1.5834    0.4816 C   0  0  0  0  0  3  0  0  0  0  0  0
   -1.3969   -1.1736    1.5913 N   0  0  0  0  0  0  0  0  0  0  0  0
   -1.5467   -3.5971    0.8489 H   0  0  0  0  0  0  0  0  0  0  0  0
   -1.6184   -3.1008   -0.8612 H   0  0  0  0  0  0  0  0  0  0  0  0
   -0.0599   -3.4247   -0.1184 H   0  0  0  0  0  0  0  0  0  0  0  0
   -1.2410   -0.1736    1.7004 H   0  0  0  0  0  0  0  0  0  0  0  0
    1.1491   -0.2892   -1.9446 C   0  0  0  0  0  0  0  0  0  0  0  0
    1.1491   -0.2892   -0.4217 C   0  0  0  0  0  0  0  0  0  0  0  0
    1.1491    1.1034    0.1743 C   0  0  0  0  0  0  0  0  0  0  0  0
   -0.0359    1.7668   -0.1898 O   0  0  0  0  0  0  0  0  0  0  0  0
   -0.0967    3.0779    0.2953 C   0  0  0  0  0  0  0  0  0  0  0  0
    2.0315    0.2245   -2.3344 H   0  0  0  0  0  0  0  0  0  0  0  0
    0.2667    0.2207   -2.3311 H   0  0  0  0  0  0  0  0  0  0  0  0
    1.1540   -1.3072   -2.3369 H   0  0  0  0  0  0  0  0  0  0  0  0
    0.1002   -0.9350    0.0290 H   0  0  0  0  0  0  0  0  0  0  0  0
    2.0309   -0.8153   -0.0455 H   0  0  0  0  0  0  0  0  0  0  0  0
    1.2260    1.0497    1.2704 H   0  0  0  0  0  0  0  0  0  0  0  0
    2.0215    1.6704   -0.1879 H   0  0  0  0  0  0  0  0  0  0  0  0
    0.7272    3.6905   -0.0953 H   0  0  0  0  0  0  0  0  0  0  0  0
   -0.0547    3.1041    1.3928 H   0  0  0  0  0  0  0  0  0  0  0  0
   -1.0424    3.5081   -0.0318 H   0  0  0  0  0  0  0  0  0  0  0  0
  1  2  1  0
  1  4  1  0
  1  5  1  0
  1  6  1  0
  2  3  2  3
  3  7  1  0
  8  9  1  0
  8 13  1  0
  8 14  1  0
  8 15  1  0
  9 10  1  0
  9 16  1  0
  9 17  1  0
 10 11  1  0
 10 18  1  0
 10 19  1  0
 11 12  1  0
 12 20  1  0
 12 21  1  0
 12 22  1  0
M  RAD  1   2   2
M  END
>  <reaction>  (16) 
rmg_rxn_16613

>  <mol_properties>  (16) 
{"1": {"label": "*1", "atom_type": "Cd"}, "2": {"label": "*0", "atom_type": "N3d"}, "8": {"label": "*3", "atom_type": "Cs"}, "9": {"label": "*4", "atom_type": "Cs"}, "15": {"label": "*2", "atom_type": "H0"}}

>  <type>  (16) 
unop_12

>  <geom_source>  (16) 
Heuristics

$$$$

     RDKit          3D

 22 20  0  0  0  0  0  0  0  0999 V2000
   -1.4719   -1.1575    1.7622 C   0  0  0  0  0  0  0  0  0  0  0  0
   -0.9442   -1.6227    0.4461 C   0  0  0  0  0  3  0  0  0  0  0  0
   -1.0261   -2.8300    0.0828 N   0  0  0  0  0  0  0  0  0  0  0  0
   -1.9085   -1.9903    2.3107 H   0  0  0  0  0  0  0  0  0  0  0  0
   -0.6691   -0.7105    2.3541 H   0  0  0  0  0  0  0  0  0  0  0  0
   -2.2274   -0.3818    1.6130 H   0  0  0  0  0  0  0  0  0  0  0  0
   -0.6157   -2.9629   -0.8391 H   0  0  0  0  0  0  0  0  0  0  0  0
    1.1581   -0.3284   -1.9802 C   0  0  0  0  0  0  0  0  0  0  0  0
    1.1581   -0.3284   -0.4573 C   0  0  0  0  0  0  0  0  0  0  0  0
    1.1581    1.0642    0.1387 C   0  0  0  0  0  0  0  0  0  0  0  0
   -0.0269    1.7276   -0.2254 O   0  0  0  0  0  0  0  0  0  0  0  0
   -0.0877    3.0387    0.2598 C   0  0  0  0  0  0  0  0  0  0  0  0
    2.0405    0.1853   -2.3699 H   0  0  0  0  0  0  0  0  0  0  0  0
    0.2757    0.1815   -2.3666 H   0  0  0  0  0  0  0  0  0  0  0  0
    1.1630   -1.3464   -2.3725 H   0  0  0  0  0  0  0  0  0  0  0  0
    0.1092   -0.9742   -0.0066 H   0  0  0  0  0  0  0  0  0  0  0  0
    2.0398   -0.8545   -0.0811 H   0  0  0  0  0  0  0  0  0  0  0  0
    1.2349    1.0105    1.2348 H   0  0  0  0  0  0  0  0  0  0  0  0
    2.0305    1.6312   -0.2235 H   0  0  0  0  0  0  0  0  0  0  0  0
    0.7362    3.6513   -0.1309 H   0  0  0  0  0  0  0  0  0  0  0  0
   -0.0457    3.0648    1.3572 H   0  0  0  0  0  0  0  0  0  0  0  0
   -1.0334    3.4689   -0.0674 H   0  0  0  0  0  0  0  0  0  0  0  0
  1  2  1  0
  1  4  1  0
  1  5  1  0
  1  6  1  0
  2  3  2  3
  3  7  1  0
  8  9  1  0
  8 13  1  0
  8 14  1  0
  8 15  1  0
  9 10  1  0
  9 16  1  0
  9 17  1  0
 10 11  1  0
 10 18  1  0
 10 19  1  0
 11 12  1  0
 12 20  1  0
 12 21  1  0
 12 22  1  0
M  RAD  1   2   2
M  END
>  <reaction>  (17) 
rmg_rxn_16613

>  <mol_properties>  (17) 
{"1": {"label": "*1", "atom_type": "Cd"}, "2": {"label": "*0", "atom_type": "N3d"}, "8": {"label": "*3", "atom_type": "Cs"}, "9": {"label": "*4", "atom_type": "Cs"}, "15": {"label": "*2", "atom_type": "H0"}}

>  <type>  (17) 
unop_13

>  <geom_source>  (17) 
Heuristics

$$$$

     RDKit          3D

 22 20  0  0  0  0  0  0  0  0999 V2000
   -1.7856   -2.1859   -0.4944 C   0  0  0  0  0  0  0  0  0  0  0  0
   -0.8758   -1.6258    0.5475 C   0  0  0  0  0  3  0  0  0  0  0  0
   -1.1064   -1.7678    1.7816 N   0  0  0  0  0  0  0  0  0  0  0  0
   -2.6232   -2.7016   -0.0280 H   0  0  0  0  0  0  0  0  0  0  0  0
   -2.1611   -1.3857   -1.1373 H   0  0  0  0  0  0  0  0  0  0  0  0
   -1.2402   -2.8815   -1.1373 H   0  0  0  0  0  0  0  0  0  0  0  0
   -0.3829   -1.3224    2.3422 H   0  0  0  0  0  0  0  0  0  0  0  0
    1.2264   -0.3315   -1.8788 C   0  0  0  0  0  0  0  0  0  0  0  0
    1.2264   -0.3315   -0.3559 C   0  0  0  0  0  0  0  0  0  0  0  0
    1.2264    1.0611    0.2402 C   0  0  0  0  0  0  0  0  0  0  0  0
    0.0414    1.7245   -0.1240 O   0  0  0  0  0  0  0  0  0  0  0  0
   -0.0194    3.0356    0.3612 C   0  0  0  0  0  0  0  0  0  0  0  0
    2.1088    0.1821   -2.2685 H   0  0  0  0  0  0  0  0  0  0  0  0
    0.3440    0.1784   -2.2652 H   0  0  0  0  0  0  0  0  0  0  0  0
    1.2314   -1.3495   -2.2711 H   0  0  0  0  0  0  0  0  0  0  0  0
    0.1775   -0.9773    0.0949 H   0  0  0  0  0  0  0  0  0  0  0  0
    2.1082   -0.8577    0.0204 H   0  0  0  0  0  0  0  0  0  0  0  0
    1.3033    1.0074    1.3362 H   0  0  0  0  0  0  0  0  0  0  0  0
    2.0988    1.6281   -0.1220 H   0  0  0  0  0  0  0  0  0  0  0  0
    0.8045    3.6482   -0.0294 H   0  0  0  0  0  0  0  0  0  0  0  0
    0.0226    3.0617    1.4587 H   0  0  0  0  0  0  0  0  0  0  0  0
   -0.9651    3.4657    0.0341 H   0  0  0  0  0  0  0  0  0  0  0  0
  1  2  1  0
  1  4  1  0
  1  5  1  0
  1  6  1  0
  2  3  2  3
  3  7  1  0
  8  9  1  0
  8 13  1  0
  8 14  1  0
  8 15  1  0
  9 10  1  0
  9 16  1  0
  9 17  1  0
 10 11  1  0
 10 18  1  0
 10 19  1  0
 11 12  1  0
 12 20  1  0
 12 21  1  0
 12 22  1  0
M  RAD  1   2   2
M  END
>  <reaction>  (18) 
rmg_rxn_16613

>  <mol_properties>  (18) 
{"1": {"label": "*1", "atom_type": "Cd"}, "2": {"label": "*0", "atom_type": "N3d"}, "8": {"label": "*3", "atom_type": "Cs"}, "9": {"label": "*4", "atom_type": "Cs"}, "15": {"label": "*2", "atom_type": "H0"}}

>  <type>  (18) 
unop_14

>  <geom_source>  (18) 
Heuristics

$$$$

     RDKit          3D

 22 19  0  0  0  0  0  0  0  0999 V2000
    1.7284    0.3850    1.2135 O   0  0  0  0  0  0  0  0  0  0  0  0
   -2.1806    1.3147   -0.3956 N   0  0  0  0  0  0  0  0  0  0  0  0
    1.7862   -0.5097    0.1230 C   0  0  0  0  0  0  0  0  0  0  0  0
   -0.3799    0.3354   -0.8829 C   0  0  0  0  0  3  0  0  0  0  0  0
   -3.1680   -0.8813   -0.3918 C   0  0  0  0  0  0  0  0  0  0  0  0
    3.0383    0.7313    1.6030 C   0  0  0  0  0  0  0  0  0  0  0  0
    0.3684   -0.8671   -0.3161 C   0  0  0  0  0  2  0  0  0  0  0  0
   -2.0205    0.0562   -0.2106 C   0  0  0  0  0  0  0  0  0  0  0  0
    2.2941   -1.4537    0.4246 H   0  0  0  0  0  0  0  0  0  0  0  0
    2.3310   -0.0619   -0.7404 H   0  0  0  0  0  0  0  0  0  0  0  0
   -3.9846   -0.6179    0.3127 H   0  0  0  0  0  0  0  0  0  0  0  0
   -3.5444   -0.8188   -1.4345 H   0  0  0  0  0  0  0  0  0  0  0  0
   -2.8349   -1.9201   -0.1885 H   0  0  0  0  0  0  0  0  0  0  0  0
    0.1498    0.7364   -1.7731 H   0  0  0  0  0  0  0  0  0  0  0  0
   -0.4686    1.1319   -0.1147 H   0  0  0  0  0  0  0  0  0  0  0  0
   -1.4009    0.0221   -1.1847 H   0  0  0  0  0  0  0  0  0  0  0  0
    3.5748    1.2608    0.7843 H   0  0  0  0  0  0  0  0  0  0  0  0
    2.9784    1.4243    2.4671 H   0  0  0  0  0  0  0  0  0  0  0  0
    3.6129   -0.1641    1.9295 H   0  0  0  0  0  0  0  0  0  0  0  0
    0.4039   -1.6748   -1.0788 H   0  0  0  0  0  0  0  0  0  0  0  0
   -0.8935   -0.3920    0.1249 H   0  0  0  0  0  0  0  0  0  0  0  0
   -1.3903    1.9632   -0.2711 H   0  0  0  0  0  0  0  0  0  0  0  0
  1  6  1  0
  1  3  1  0
  2  8  2  3
  2 22  1  0
  3  7  1  0
  3  9  1  0
  3 10  1  0
  4 14  1  0
  4 15  1  0
  4 16  1  0
  5  8  1  0
  5 11  1  0
  5 12  1  0
  5 13  1  0
  6 17  1  0
  6 18  1  0
  6 19  1  0
  7 20  1  0
  8 21  1  0
M  RAD  2   4   2   7   3
M  END
>  <reaction>  (19) 
rmg_rxn_16613

>  <mol_properties>  (19) 
{"1": {"label": "*1", "atom_type": "Cd"}, "2": {"label": "*0", "atom_type": "N3d"}, "8": {"label": "*3", "atom_type": "Cs"}, "9": {"label": "*4", "atom_type": "Cs"}, "15": {"label": "*2", "atom_type": "H0"}}

>  <type>  (19) 
unop_15

>  <geom_source>  (19) 
AutoTST

$$$$

     RDKit          3D

 22 20  0  0  0  0  0  0  0  0999 V2000
   -1.4214   -2.6853   -0.3451 C   0  0  0  0  0  0  0  0  0  0  0  0
   -0.9171   -1.5847    0.5274 C   0  0  0  0  0  3  0  0  0  0  0  0
   -1.2355   -1.5005    1.7472 N   0  0  0  0  0  0  0  0  0  0  0  0
   -2.0671   -3.3529    0.2226 H   0  0  0  0  0  0  0  0  0  0  0  0
   -1.9763   -2.2719   -1.1912 H   0  0  0  0  0  0  0  0  0  0  0  0
   -0.5839   -3.2520   -0.7600 H   0  0  0  0  0  0  0  0  0  0  0  0
   -0.8004   -0.6902    2.1834 H   0  0  0  0  0  0  0  0  0  0  0  0
    1.1852   -0.2905   -1.8988 C   0  0  0  0  0  0  0  0  0  0  0  0
    1.1852   -0.2905   -0.3759 C   0  0  0  0  0  0  0  0  0  0  0  0
    1.1852    1.1021    0.2201 C   0  0  0  0  0  0  0  0  0  0  0  0
    0.0002    1.7656   -0.1440 O   0  0  0  0  0  0  0  0  0  0  0  0
   -0.0606    3.0767    0.3411 C   0  0  0  0  0  0  0  0  0  0  0  0
    2.0676    0.2232   -2.2885 H   0  0  0  0  0  0  0  0  0  0  0  0
    0.3028    0.2194   -2.2853 H   0  0  0  0  0  0  0  0  0  0  0  0
    1.1901   -1.3084   -2.2912 H   0  0  0  0  0  0  0  0  0  0  0  0
    0.1363   -0.9362    0.0748 H   0  0  0  0  0  0  0  0  0  0  0  0
    2.0669   -0.8166    0.0003 H   0  0  0  0  0  0  0  0  0  0  0  0
    1.2620    1.0484    1.3162 H   0  0  0  0  0  0  0  0  0  0  0  0
    2.0576    1.6691   -0.1421 H   0  0  0  0  0  0  0  0  0  0  0  0
    0.7633    3.6892   -0.0495 H   0  0  0  0  0  0  0  0  0  0  0  0
   -0.0186    3.1028    1.4386 H   0  0  0  0  0  0  0  0  0  0  0  0
   -1.0063    3.5068    0.0140 H   0  0  0  0  0  0  0  0  0  0  0  0
  1  2  1  0
  1  4  1  0
  1  5  1  0
  1  6  1  0
  2  3  2  3
  3  7  1  0
  8  9  1  0
  8 13  1  0
  8 14  1  0
  8 15  1  0
  9 10  1  0
  9 16  1  0
  9 17  1  0
 10 11  1  0
 10 18  1  0
 10 19  1  0
 11 12  1  0
 12 20  1  0
 12 21  1  0
 12 22  1  0
M  RAD  1   2   2
M  END
>  <reaction>  (20) 
rmg_rxn_16613

>  <mol_properties>  (20) 
{"1": {"label": "*1", "atom_type": "Cd"}, "2": {"label": "*0", "atom_type": "N3d"}, "8": {"label": "*3", "atom_type": "Cs"}, "9": {"label": "*4", "atom_type": "Cs"}, "15": {"label": "*2", "atom_type": "H0"}}

>  <type>  (20) 
unop_16

>  <geom_source>  (20) 
gaussian_log

$$$$
