
     RDKit          3D

 18 17  0  0  0  0  0  0  0  0999 V2000
    2.2026   -0.7213   -0.2612 C   0  0  0  0  0  0  0  0  0  0  0  0
    1.5384    0.2638    0.6915 C   0  0  0  0  0  0  0  0  0  0  0  0
    2.2584    1.5946    0.7694 C   0  0  0  0  0  0  0  0  0  0  0  0
    2.2212    2.2185   -0.4893 O   0  0  0  0  0  0  0  0  0  0  0  0
    2.8988    3.4488   -0.5204 C   0  0  0  0  0  0  0  0  0  0  0  0
    2.7981    4.0296   -1.9118 C   0  0  0  0  0  0  0  0  0  0  0  0
    3.2294   -0.9309    0.0486 H   0  0  0  0  0  0  0  0  0  0  0  0
    2.2338   -0.3181   -1.2734 H   0  0  0  0  0  0  0  0  0  0  0  0
    1.6610   -1.6680   -0.2875 H   0  0  0  0  0  0  0  0  0  0  0  0
    1.4990   -0.1566    1.7002 H   0  0  0  0  0  0  0  0  0  0  0  0
    0.5055    0.4455    0.3835 H   0  0  0  0  0  0  0  0  0  0  0  0
    3.3038    1.4410    1.0808 H   0  0  0  0  0  0  0  0  0  0  0  0
    1.7844    2.2410    1.5226 H   0  0  0  0  0  0  0  0  0  0  0  0
    2.4596    4.1376    0.2164 H   0  0  0  0  0  0  0  0  0  0  0  0
    3.9524    3.3035   -0.2397 H   0  0  0  0  0  0  0  0  0  0  0  0
    1.7543    4.1869   -2.1856 H   0  0  0  0  0  0  0  0  0  0  0  0
    3.2472    3.3545   -2.6411 H   0  0  0  0  0  0  0  0  0  0  0  0
    3.3178    4.9878   -1.9600 H   0  0  0  0  0  0  0  0  0  0  0  0
  1  2  1  0
  1  7  1  0
  1  8  1  0
  1  9  1  0
  2  3  1  0
  2 10  1  0
  2 11  1  0
  3  4  1  0
  3 12  1  0
  3 13  1  0
  4  5  1  0
  5  6  1  0
  5 14  1  0
  5 15  1  0
  6 16  1  0
  6 17  1  0
  6 18  1  0
M  END
>  <reaction>  (1) 
rmg_rxn_277

>  <mol_properties>  (1) 
{"4": {"label": "donator", "atom_type": "Cs"}, "13": {"label": "d_hydrogen", "atom_type": "H0"}}

>  <type>  (1) 
r1h

$$$$

     RDKit          3D

 14 13  0  0  0  0  0  0  0  0999 V2000
    2.5796   -0.5432    0.2329 C   0  0  0  0  0  3  0  0  0  0  0  0
    1.2594    0.0982    0.3029 C   0  0  0  0  0  0  0  0  0  0  0  0
   -0.0483   -1.0244    0.9576 S   0  0  0  0  0  0  0  0  0  0  0  0
   -0.0049   -2.3732   -0.2491 C   0  0  0  0  0  0  0  0  0  0  0  0
   -0.3891   -1.9781   -1.6653 C   0  0  0  0  0  0  0  0  0  0  0  0
    2.9359   -0.9798   -0.6903 H   0  0  0  0  0  0  0  0  0  0  0  0
    3.1327   -0.7454    1.1400 H   0  0  0  0  0  0  0  0  0  0  0  0
    0.9347    0.4858   -0.6621 H   0  0  0  0  0  0  0  0  0  0  0  0
    1.2442    0.9220    1.0193 H   0  0  0  0  0  0  0  0  0  0  0  0
    0.9819   -2.8380   -0.2257 H   0  0  0  0  0  0  0  0  0  0  0  0
   -0.7110   -3.1037    0.1493 H   0  0  0  0  0  0  0  0  0  0  0  0
    0.3274   -1.2737   -2.0913 H   0  0  0  0  0  0  0  0  0  0  0  0
   -0.4075   -2.8581   -2.3121 H   0  0  0  0  0  0  0  0  0  0  0  0
   -1.3749   -1.5123   -1.6865 H   0  0  0  0  0  0  0  0  0  0  0  0
  1  2  1  0
  1  6  1  0
  1  7  1  0
  2  3  1  0
  2  8  1  0
  2  9  1  0
  3  4  1  0
  4  5  1  0
  4 10  1  0
  4 11  1  0
  5 12  1  0
  5 13  1  0
  5 14  1  0
M  RAD  1   1   2
M  END
>  <reaction>  (2) 
rmg_rxn_277

>  <mol_properties>  (2) 
{"0": {"label": "acceptor", "atom_type": "Cs"}}

>  <type>  (2) 
r2

$$$$

     RDKit          3D

 15 14  0  0  0  0  0  0  0  0999 V2000
   -2.0554    0.0723   -0.4910 C   0  0  0  0  0  0  0  0  0  0  0  0
   -0.7461   -0.6266   -0.8178 C   0  0  0  0  0  0  0  0  0  0  0  0
    0.3249    0.2591   -1.9782 S   0  0  0  0  0  0  0  0  0  0  0  0
   -0.7172    0.3642   -3.4551 C   0  0  0  0  0  0  0  0  0  0  0  0
   -1.1375   -0.9737   -4.0409 C   0  0  0  0  0  0  0  0  0  0  0  0
   -2.7005    0.1427   -1.3684 H   0  0  0  0  0  0  0  0  0  0  0  0
   -2.6016   -0.4848    0.2733 H   0  0  0  0  0  0  0  0  0  0  0  0
   -1.8758    1.0825   -0.1213 H   0  0  0  0  0  0  0  0  0  0  0  0
   -0.1320   -0.7246    0.0789 H   0  0  0  0  0  0  0  0  0  0  0  0
   -0.9254   -1.6374   -1.1879 H   0  0  0  0  0  0  0  0  0  0  0  0
   -1.5873    0.9874   -3.2422 H   0  0  0  0  0  0  0  0  0  0  0  0
   -0.1021    0.9161   -4.1678 H   0  0  0  0  0  0  0  0  0  0  0  0
   -1.7876   -1.5224   -3.3574 H   0  0  0  0  0  0  0  0  0  0  0  0
   -0.2676   -1.5962   -4.2534 H   0  0  0  0  0  0  0  0  0  0  0  0
   -1.6916   -0.8229   -4.9700 H   0  0  0  0  0  0  0  0  0  0  0  0
  1  2  1  0
  1  6  1  0
  1  7  1  0
  1  8  1  0
  2  3  1  0
  2  9  1  0
  2 10  1  0
  3  4  1  0
  4  5  1  0
  4 11  1  0
  4 12  1  0
  5 13  1  0
  5 14  1  0
  5 15  1  0
M  END
>  <reaction>  (3) 
rmg_rxn_277

>  <mol_properties>  (3) 
{"0": {"label": "acceptor", "atom_type": "Cs"}, "14": {"label": "a_hydrogen", "atom_type": "H0"}}

>  <type>  (3) 
r2h

$$$$

     RDKit          3D

 32 30  0  0  0  0  0  0  0  0999 V2000
   -0.9782   -0.0882    1.6032 C   0  0  0  0  0  3  0  0  0  0  0  0
   -1.0574    1.3338    2.0776 C   0  0  0  0  0  0  0  0  0  0  0  0
    0.1201    2.4851    1.2972 S   0  0  0  0  0  0  0  0  0  0  0  0
    1.6843    1.5988    1.4928 C   0  0  0  0  0  0  0  0  0  0  0  0
    2.1022    1.3506    2.9329 C   0  0  0  0  0  0  0  0  0  0  0  0
   -0.1032   -0.6399    1.9407 H   0  0  0  0  0  0  0  0  0  0  0  0
   -1.8928   -0.6617    1.7370 H   0  0  0  0  0  0  0  0  0  0  0  0
   -0.9359    1.3992    3.1629 H   0  0  0  0  0  0  0  0  0  0  0  0
   -2.0321    1.7644    1.8431 H   0  0  0  0  0  0  0  0  0  0  0  0
    1.6346    0.6623    0.9329 H   0  0  0  0  0  0  0  0  0  0  0  0
    2.4139    2.2327    0.9863 H   0  0  0  0  0  0  0  0  0  0  0  0
    1.3901    0.7031    3.4475 H   0  0  0  0  0  0  0  0  0  0  0  0
    3.0779    0.8605    2.9663 H   0  0  0  0  0  0  0  0  0  0  0  0
    2.1666    2.2880    3.4863 H   0  0  0  0  0  0  0  0  0  0  0  0
    0.3272   -3.3970   -3.3569 C   0  0  0  0  0  0  0  0  0  0  0  0
    0.3654   -3.4128   -1.8346 C   0  0  0  0  0  0  0  0  0  0  0  0
    0.4228   -2.0276   -1.2257 C   0  0  0  0  0  0  0  0  0  0  0  0
   -0.7518   -1.3227   -1.5592 O   0  0  0  0  0  0  0  0  0  0  0  0
   -0.7711   -0.0185   -1.1024 C   0  0  0  0  0  0  0  0  0  0  0  0
   -1.9999    0.7068   -1.5617 C   0  0  0  0  0  0  0  0  0  0  0  0
    1.2144   -2.9058   -3.7642 H   0  0  0  0  0  0  0  0  0  0  0  0
   -0.5492   -2.8576   -3.7162 H   0  0  0  0  0  0  0  0  0  0  0  0
    0.2917   -4.4106   -3.7587 H   0  0  0  0  0  0  0  0  0  0  0  0
    1.2403   -3.9682   -1.4855 H   0  0  0  0  0  0  0  0  0  0  0  0
   -0.5143   -3.9289   -1.4417 H   0  0  0  0  0  0  0  0  0  0  0  0
    1.2997   -1.4802   -1.6032 H   0  0  0  0  0  0  0  0  0  0  0  0
    0.5166   -2.0913   -0.1338 H   0  0  0  0  0  0  0  0  0  0  0  0
   -0.8271   -0.0479    0.1904 H   0  0  0  0  0  0  0  0  0  0  0  0
    0.1643    0.5145   -1.3147 H   0  0  0  0  0  0  0  0  0  0  0  0
   -2.8991    0.1952   -1.2132 H   0  0  0  0  0  0  0  0  0  0  0  0
   -2.0411    0.7634   -2.6524 H   0  0  0  0  0  0  0  0  0  0  0  0
   -1.9935    1.7214   -1.1617 H   0  0  0  0  0  0  0  0  0  0  0  0
  1  2  1  0
  1  6  1  0
  1  7  1  0
  2  3  1  0
  2  8  1  0
  2  9  1  0
  3  4  1  0
  4  5  1  0
  4 10  1  0
  4 11  1  0
  5 12  1  0
  5 13  1  0
  5 14  1  0
 15 16  1  0
 15 21  1  0
 15 22  1  0
 15 23  1  0
 16 17  1  0
 16 24  1  0
 16 25  1  0
 17 18  1  0
 17 26  1  0
 17 27  1  0
 18 19  1  0
 19 20  1  0
 19 28  1  0
 19 29  1  0
 20 30  1  0
 20 31  1  0
 20 32  1  0
M  RAD  1   1   2
M  END
>  <reaction>  (4) 
rmg_rxn_277

>  <mol_properties>  (4) 
{"0": {"label": "*3", "atom_type": "Cs"}, "1": {"label": "*4", "atom_type": "Cs"}, "17": {"label": "*0", "atom_type": "O2s"}, "18": {"label": "*1", "atom_type": "Cs"}, "27": {"label": "*2", "atom_type": "H0"}}

>  <type>  (4) 
ts

$$$$

     RDKit          3D

 32 30  0  0  0  0  0  0  0  0999 V2000
   -1.0126    0.8980    0.9991 C   0  0  0  0  0  0  0  0  0  0  0  0
    0.1903    1.7003    1.4670 C   0  0  0  0  0  0  0  0  0  0  0  0
    1.6842    0.7264    1.7803 S   0  0  0  0  0  0  0  0  0  0  0  0
    1.1364   -0.4037    3.0846 C   0  0  0  0  0  0  0  0  0  0  0  0
    0.6683    0.2707    4.3635 C   0  0  0  0  0  0  0  0  0  0  0  0
   -1.3611    0.2124    1.7733 H   0  0  0  0  0  0  0  0  0  0  0  0
   -1.8418    1.5661    0.7557 H   0  0  0  0  0  0  0  0  0  0  0  0
   -0.0534    2.2873    2.3541 H   0  0  0  0  0  0  0  0  0  0  0  0
    0.4994    2.4086    0.6965 H   0  0  0  0  0  0  0  0  0  0  0  0
    0.3662   -1.0682    2.6896 H   0  0  0  0  0  0  0  0  0  0  0  0
    2.0150   -1.0211    3.2786 H   0  0  0  0  0  0  0  0  0  0  0  0
   -0.2346    0.8605    4.1967 H   0  0  0  0  0  0  0  0  0  0  0  0
    0.4343   -0.4787    5.1230 H   0  0  0  0  0  0  0  0  0  0  0  0
    1.4382    0.9348    4.7578 H   0  0  0  0  0  0  0  0  0  0  0  0
    0.0804   -2.4835   -3.8565 C   0  0  0  0  0  0  0  0  0  0  0  0
    0.0804   -2.4835   -2.3336 C   0  0  0  0  0  0  0  0  0  0  0  0
    0.0804   -1.0904   -1.7381 C   0  0  0  0  0  0  0  0  0  0  0  0
   -1.1026   -0.4268   -2.1057 O   0  0  0  0  0  0  0  0  0  0  0  0
   -1.1733    0.8912   -1.6248 C   0  0  0  0  0  3  0  0  0  0  0  0
   -2.4766    1.5090   -2.0756 C   0  0  0  0  0  0  0  0  0  0  0  0
    0.9625   -1.9692   -4.2462 H   0  0  0  0  0  0  0  0  0  0  0  0
   -0.8023   -1.9738   -4.2426 H   0  0  0  0  0  0  0  0  0  0  0  0
    0.0859   -3.5014   -4.2492 H   0  0  0  0  0  0  0  0  0  0  0  0
    0.9619   -3.0100   -1.9573 H   0  0  0  0  0  0  0  0  0  0  0  0
   -0.7940   -3.0215   -1.9583 H   0  0  0  0  0  0  0  0  0  0  0  0
    0.9546   -0.5254   -2.0985 H   0  0  0  0  0  0  0  0  0  0  0  0
    0.1552   -1.1444   -0.6421 H   0  0  0  0  0  0  0  0  0  0  0  0
   -1.0926    0.8947   -0.3071 H   0  0  0  0  0  0  0  0  0  0  0  0
   -0.3204    1.4742   -2.0027 H   0  0  0  0  0  0  0  0  0  0  0  0
   -3.3230    0.9396   -1.6900 H   0  0  0  0  0  0  0  0  0  0  0  0
   -2.5374    1.5209   -3.1645 H   0  0  0  0  0  0  0  0  0  0  0  0
   -2.5542    2.5350   -1.7126 H   0  0  0  0  0  0  0  0  0  0  0  0
  1  2  1  0
  1  6  1  0
  1  7  1  0
  1 28  1  0
  2  3  1  0
  2  8  1  0
  2  9  1  0
  3  4  1  0
  4  5  1  0
  4 10  1  0
  4 11  1  0
  5 12  1  0
  5 13  1  0
  5 14  1  0
 15 16  1  0
 15 21  1  0
 15 22  1  0
 15 23  1  0
 16 17  1  0
 16 24  1  0
 16 25  1  0
 17 18  1  0
 17 26  1  0
 17 27  1  0
 18 19  1  0
 19 20  1  0
 19 29  1  0
 20 30  1  0
 20 31  1  0
 20 32  1  0
M  RAD  1  19   2
M  END
>  <reaction>  (5) 
rmg_rxn_277

>  <mol_properties>  (5) 
{"0": {"label": "*3", "atom_type": "Cs"}, "1": {"label": "*4", "atom_type": "Cs"}, "17": {"label": "*0", "atom_type": "O2s"}, "18": {"label": "*1", "atom_type": "Cs"}, "27": {"label": "*2", "atom_type": "H0"}}

>  <type>  (5) 
unop_1

>  <geom_source>  (5) 
Heuristics

$$$$

     RDKit          3D

 32 30  0  0  0  0  0  0  0  0999 V2000
    0.0130    1.7578    1.1609 C   0  0  0  0  0  0  0  0  0  0  0  0
    0.8457    0.5871    1.6567 C   0  0  0  0  0  0  0  0  0  0  0  0
    0.0384   -1.0294    1.5402 S   0  0  0  0  0  0  0  0  0  0  0  0
   -1.4187   -0.8048    2.5911 C   0  0  0  0  0  0  0  0  0  0  0  0
   -1.1179   -0.4686    4.0424 C   0  0  0  0  0  0  0  0  0  0  0  0
   -0.8694    1.9125    1.7841 H   0  0  0  0  0  0  0  0  0  0  0  0
    0.5997    2.6786    1.1894 H   0  0  0  0  0  0  0  0  0  0  0  0
    1.1804    0.7530    2.6820 H   0  0  0  0  0  0  0  0  0  0  0  0
    1.7439    0.4729    1.0474 H   0  0  0  0  0  0  0  0  0  0  0  0
   -2.0762   -0.0564    2.1455 H   0  0  0  0  0  0  0  0  0  0  0  0
   -1.9388   -1.7616    2.5212 H   0  0  0  0  0  0  0  0  0  0  0  0
   -0.6338    0.5051    4.1347 H   0  0  0  0  0  0  0  0  0  0  0  0
   -2.0430   -0.4308    4.6219 H   0  0  0  0  0  0  0  0  0  0  0  0
   -0.4608   -1.2167    4.4872 H   0  0  0  0  0  0  0  0  0  0  0  0
    1.1061   -1.6238   -3.6947 C   0  0  0  0  0  0  0  0  0  0  0  0
    1.1061   -1.6238   -2.1718 C   0  0  0  0  0  0  0  0  0  0  0  0
    1.1061   -0.2307   -1.5763 C   0  0  0  0  0  0  0  0  0  0  0  0
   -0.0769    0.4329   -1.9439 O   0  0  0  0  0  0  0  0  0  0  0  0
   -0.1477    1.7509   -1.4630 C   0  0  0  0  0  3  0  0  0  0  0  0
   -1.4510    2.3687   -1.9138 C   0  0  0  0  0  0  0  0  0  0  0  0
    1.9881   -1.1095   -4.0843 H   0  0  0  0  0  0  0  0  0  0  0  0
    0.2233   -1.1141   -4.0808 H   0  0  0  0  0  0  0  0  0  0  0  0
    1.1115   -2.6416   -4.0874 H   0  0  0  0  0  0  0  0  0  0  0  0
    1.9876   -2.1502   -1.7955 H   0  0  0  0  0  0  0  0  0  0  0  0
    0.2317   -2.1617   -1.7965 H   0  0  0  0  0  0  0  0  0  0  0  0
    1.9803    0.3344   -1.9367 H   0  0  0  0  0  0  0  0  0  0  0  0
    1.1808   -0.2846   -0.4802 H   0  0  0  0  0  0  0  0  0  0  0  0
   -0.0670    1.7544   -0.1453 H   0  0  0  0  0  0  0  0  0  0  0  0
    0.7052    2.3339   -1.8409 H   0  0  0  0  0  0  0  0  0  0  0  0
   -2.2973    1.7993   -1.5281 H   0  0  0  0  0  0  0  0  0  0  0  0
   -1.5118    2.3806   -3.0026 H   0  0  0  0  0  0  0  0  0  0  0  0
   -1.5286    3.3947   -1.5508 H   0  0  0  0  0  0  0  0  0  0  0  0
  1  2  1  0
  1  6  1  0
  1  7  1  0
  1 28  1  0
  2  3  1  0
  2  8  1  0
  2  9  1  0
  3  4  1  0
  4  5  1  0
  4 10  1  0
  4 11  1  0
  5 12  1  0
  5 13  1  0
  5 14  1  0
 15 16  1  0
 15 21  1  0
 15 22  1  0
 15 23  1  0
 16 17  1  0
 16 24  1  0
 16 25  1  0
 17 18  1  0
 17 26  1  0
 17 27  1  0
 18 19  1  0
 19 20  1  0
 19 29  1  0
 20 30  1  0
 20 31  1  0
 20 32  1  0
M  RAD  1  19   2
M  END
>  <reaction>  (6) 
rmg_rxn_277

>  <mol_properties>  (6) 
{"0": {"label": "*3", "atom_type": "Cs"}, "1": {"label": "*4", "atom_type": "Cs"}, "17": {"label": "*0", "atom_type": "O2s"}, "18": {"label": "*1", "atom_type": "Cs"}, "27": {"label": "*2", "atom_type": "H0"}}

>  <type>  (6) 
unop_2

>  <geom_source>  (6) 
Heuristics

$$$$

     RDKit          3D

 32 30  0  0  0  0  0  0  0  0999 V2000
   -1.0343    0.4508    1.1119 C   0  0  0  0  0  0  0  0  0  0  0  0
   -0.3878    1.7318    1.6126 C   0  0  0  0  0  0  0  0  0  0  0  0
    1.4227    1.7264    1.6103 S   0  0  0  0  0  0  0  0  0  0  0  0
    1.8017    0.3528    2.7273 C   0  0  0  0  0  0  0  0  0  0  0  0
    1.2764    0.5139    4.1442 C   0  0  0  0  0  0  0  0  0  0  0  0
   -0.8208   -0.3897    1.7743 H   0  0  0  0  0  0  0  0  0  0  0  0
   -2.1196    0.5663    1.0685 H   0  0  0  0  0  0  0  0  0  0  0  0
   -0.7491    1.9869    2.6103 H   0  0  0  0  0  0  0  0  0  0  0  0
   -0.6456    2.5688    0.9615 H   0  0  0  0  0  0  0  0  0  0  0  0
    1.4520   -0.5818    2.2856 H   0  0  0  0  0  0  0  0  0  0  0  0
    2.8922    0.3117    2.7273 H   0  0  0  0  0  0  0  0  0  0  0  0
    0.1853    0.5158    4.1679 H   0  0  0  0  0  0  0  0  0  0  0  0
    1.6162   -0.3140    4.7705 H   0  0  0  0  0  0  0  0  0  0  0  0
    1.6260    1.4480    4.5853 H   0  0  0  0  0  0  0  0  0  0  0  0
    0.0587   -2.9307   -3.7437 C   0  0  0  0  0  0  0  0  0  0  0  0
    0.0587   -2.9307   -2.2208 C   0  0  0  0  0  0  0  0  0  0  0  0
    0.0587   -1.5376   -1.6253 C   0  0  0  0  0  0  0  0  0  0  0  0
   -1.1243   -0.8741   -1.9929 O   0  0  0  0  0  0  0  0  0  0  0  0
   -1.1950    0.4440   -1.5120 C   0  0  0  0  0  3  0  0  0  0  0  0
   -2.4983    1.0618   -1.9629 C   0  0  0  0  0  0  0  0  0  0  0  0
    0.9408   -2.4164   -4.1334 H   0  0  0  0  0  0  0  0  0  0  0  0
   -0.8240   -2.4210   -4.1298 H   0  0  0  0  0  0  0  0  0  0  0  0
    0.0642   -3.9486   -4.1364 H   0  0  0  0  0  0  0  0  0  0  0  0
    0.9402   -3.4572   -1.8446 H   0  0  0  0  0  0  0  0  0  0  0  0
   -0.8157   -3.4687   -1.8456 H   0  0  0  0  0  0  0  0  0  0  0  0
    0.9329   -0.9726   -1.9857 H   0  0  0  0  0  0  0  0  0  0  0  0
    0.1335   -1.5916   -0.5293 H   0  0  0  0  0  0  0  0  0  0  0  0
   -1.1143    0.4474   -0.1943 H   0  0  0  0  0  0  0  0  0  0  0  0
   -0.3422    1.0270   -1.8899 H   0  0  0  0  0  0  0  0  0  0  0  0
   -3.3447    0.4924   -1.5772 H   0  0  0  0  0  0  0  0  0  0  0  0
   -2.5591    1.0736   -3.0517 H   0  0  0  0  0  0  0  0  0  0  0  0
   -2.5760    2.0878   -1.5998 H   0  0  0  0  0  0  0  0  0  0  0  0
  1  2  1  0
  1  6  1  0
  1  7  1  0
  1 28  1  0
  2  3  1  0
  2  8  1  0
  2  9  1  0
  3  4  1  0
  4  5  1  0
  4 10  1  0
  4 11  1  0
  5 12  1  0
  5 13  1  0
  5 14  1  0
 15 16  1  0
 15 21  1  0
 15 22  1  0
 15 23  1  0
 16 17  1  0
 16 24  1  0
 16 25  1  0
 17 18  1  0
 17 26  1  0
 17 27  1  0
 18 19  1  0
 19 20  1  0
 19 29  1  0
 20 30  1  0
 20 31  1  0
 20 32  1  0
M  RAD  1  19   2
M  END
>  <reaction>  (7) 
rmg_rxn_277

>  <mol_properties>  (7) 
{"0": {"label": "*3", "atom_type": "Cs"}, "1": {"label": "*4", "atom_type": "Cs"}, "17": {"label": "*0", "atom_type": "O2s"}, "18": {"label": "*1", "atom_type": "Cs"}, "27": {"label": "*2", "atom_type": "H0"}}

>  <type>  (7) 
unop_3

>  <geom_source>  (7) 
Heuristics

$$$$

     RDKit          3D

 32 30  0  0  0  0  0  0  0  0999 V2000
    0.9713    0.8202    1.6581 C   0  0  0  0  0  0  0  0  0  0  0  0
   -0.1653    0.0208    2.2735 C   0  0  0  0  0  0  0  0  0  0  0  0
   -1.6336   -0.1504    1.2280 S   0  0  0  0  0  0  0  0  0  0  0  0
   -2.1347    1.5729    0.9888 C   0  0  0  0  0  0  0  0  0  0  0  0
   -2.4796    2.3242    2.2641 C   0  0  0  0  0  0  0  0  0  0  0  0
    0.6905    1.8641    1.5090 H   0  0  0  0  0  0  0  0  0  0  0  0
    1.8434    0.8063    2.3157 H   0  0  0  0  0  0  0  0  0  0  0  0
   -0.4543    0.4349    3.2409 H   0  0  0  0  0  0  0  0  0  0  0  0
    0.1467   -1.0094    2.4532 H   0  0  0  0  0  0  0  0  0  0  0  0
   -1.3653    2.0997    0.4219 H   0  0  0  0  0  0  0  0  0  0  0  0
   -3.0093    1.5011    0.3402 H   0  0  0  0  0  0  0  0  0  0  0  0
   -1.6059    2.4414    2.9073 H   0  0  0  0  0  0  0  0  0  0  0  0
   -2.8480    3.3246    2.0264 H   0  0  0  0  0  0  0  0  0  0  0  0
   -3.2484    1.7974    2.8305 H   0  0  0  0  0  0  0  0  0  0  0  0
    2.0644   -2.5613   -3.1975 C   0  0  0  0  0  0  0  0  0  0  0  0
    2.0644   -2.5613   -1.6746 C   0  0  0  0  0  0  0  0  0  0  0  0
    2.0644   -1.1683   -1.0791 C   0  0  0  0  0  0  0  0  0  0  0  0
    0.8814   -0.5047   -1.4467 O   0  0  0  0  0  0  0  0  0  0  0  0
    0.8106    0.8134   -0.9658 C   0  0  0  0  0  3  0  0  0  0  0  0
   -0.4927    1.4312   -1.4166 C   0  0  0  0  0  0  0  0  0  0  0  0
    2.9464   -2.0470   -3.5871 H   0  0  0  0  0  0  0  0  0  0  0  0
    1.1816   -2.0517   -3.5836 H   0  0  0  0  0  0  0  0  0  0  0  0
    2.0698   -3.5792   -3.5902 H   0  0  0  0  0  0  0  0  0  0  0  0
    2.9459   -3.0878   -1.2983 H   0  0  0  0  0  0  0  0  0  0  0  0
    1.1900   -3.0993   -1.2993 H   0  0  0  0  0  0  0  0  0  0  0  0
    2.9386   -0.6032   -1.4395 H   0  0  0  0  0  0  0  0  0  0  0  0
    2.1392   -1.2222    0.0170 H   0  0  0  0  0  0  0  0  0  0  0  0
    0.8914    0.8168    0.3519 H   0  0  0  0  0  0  0  0  0  0  0  0
    1.6635    1.3964   -1.3437 H   0  0  0  0  0  0  0  0  0  0  0  0
   -1.3390    0.8618   -1.0309 H   0  0  0  0  0  0  0  0  0  0  0  0
   -0.5535    1.4430   -2.5054 H   0  0  0  0  0  0  0  0  0  0  0  0
   -0.5703    2.4572   -1.0536 H   0  0  0  0  0  0  0  0  0  0  0  0
  1  2  1  0
  1  6  1  0
  1  7  1  0
  1 28  1  0
  2  3  1  0
  2  8  1  0
  2  9  1  0
  3  4  1  0
  4  5  1  0
  4 10  1  0
  4 11  1  0
  5 12  1  0
  5 13  1  0
  5 14  1  0
 15 16  1  0
 15 21  1  0
 15 22  1  0
 15 23  1  0
 16 17  1  0
 16 24  1  0
 16 25  1  0
 17 18  1  0
 17 26  1  0
 17 27  1  0
 18 19  1  0
 19 20  1  0
 19 29  1  0
 20 30  1  0
 20 31  1  0
 20 32  1  0
M  RAD  1  19   2
M  END
>  <reaction>  (8) 
rmg_rxn_277

>  <mol_properties>  (8) 
{"0": {"label": "*3", "atom_type": "Cs"}, "1": {"label": "*4", "atom_type": "Cs"}, "17": {"label": "*0", "atom_type": "O2s"}, "18": {"label": "*1", "atom_type": "Cs"}, "27": {"label": "*2", "atom_type": "H0"}}

>  <type>  (8) 
unop_4

>  <geom_source>  (8) 
Heuristics

$$$$

     RDKit          3D

 32 30  0  0  0  0  0  0  0  0999 V2000
   -0.7906   -0.0711    1.4241 C   0  0  0  0  0  0  0  0  0  0  0  0
   -0.8649    1.3458    1.9687 C   0  0  0  0  0  0  0  0  0  0  0  0
    0.3587    2.4927    1.2862 S   0  0  0  0  0  0  0  0  0  0  0  0
    1.9210    1.7151    1.7685 C   0  0  0  0  0  0  0  0  0  0  0  0
    2.1240    1.5569    3.2663 C   0  0  0  0  0  0  0  0  0  0  0  0
    0.1434   -0.5593    1.7073 H   0  0  0  0  0  0  0  0  0  0  0  0
   -1.6094   -0.6736    1.8234 H   0  0  0  0  0  0  0  0  0  0  0  0
   -0.7981    1.3491    3.0579 H   0  0  0  0  0  0  0  0  0  0  0  0
   -1.8215    1.8036    1.7111 H   0  0  0  0  0  0  0  0  0  0  0  0
    2.0225    0.7561    1.2576 H   0  0  0  0  0  0  0  0  0  0  0  0
    2.6805    2.3767    1.3486 H   0  0  0  0  0  0  0  0  0  0  0  0
    1.3976    0.8656    3.6969 H   0  0  0  0  0  0  0  0  0  0  0  0
    3.1192    1.1573    3.4734 H   0  0  0  0  0  0  0  0  0  0  0  0
    2.0224    2.5154    3.7764 H   0  0  0  0  0  0  0  0  0  0  0  0
    0.3024   -3.4526   -3.4315 C   0  0  0  0  0  0  0  0  0  0  0  0
    0.3024   -3.4526   -1.9086 C   0  0  0  0  0  0  0  0  0  0  0  0
    0.3024   -2.0595   -1.3131 C   0  0  0  0  0  0  0  0  0  0  0  0
   -0.8806   -1.3959   -1.6807 O   0  0  0  0  0  0  0  0  0  0  0  0
   -0.9513   -0.0779   -1.1998 C   0  0  0  0  0  3  0  0  0  0  0  0
   -2.2546    0.5399   -1.6506 C   0  0  0  0  0  0  0  0  0  0  0  0
    1.1845   -2.9383   -3.8211 H   0  0  0  0  0  0  0  0  0  0  0  0
   -0.5803   -2.9429   -3.8176 H   0  0  0  0  0  0  0  0  0  0  0  0
    0.3079   -4.4705   -3.8242 H   0  0  0  0  0  0  0  0  0  0  0  0
    1.1839   -3.9791   -1.5323 H   0  0  0  0  0  0  0  0  0  0  0  0
   -0.5720   -3.9906   -1.5333 H   0  0  0  0  0  0  0  0  0  0  0  0
    1.1766   -1.4945   -1.6735 H   0  0  0  0  0  0  0  0  0  0  0  0
    0.3772   -2.1135   -0.2170 H   0  0  0  0  0  0  0  0  0  0  0  0
   -0.8706   -0.0745    0.1179 H   0  0  0  0  0  0  0  0  0  0  0  0
   -0.0984    0.5051   -1.5777 H   0  0  0  0  0  0  0  0  0  0  0  0
   -3.1010   -0.0295   -1.2649 H   0  0  0  0  0  0  0  0  0  0  0  0
   -2.3154    0.5518   -2.7394 H   0  0  0  0  0  0  0  0  0  0  0  0
   -2.3322    1.5659   -1.2876 H   0  0  0  0  0  0  0  0  0  0  0  0
  1  2  1  0
  1  6  1  0
  1  7  1  0
  1 28  1  0
  2  3  1  0
  2  8  1  0
  2  9  1  0
  3  4  1  0
  4  5  1  0
  4 10  1  0
  4 11  1  0
  5 12  1  0
  5 13  1  0
  5 14  1  0
 15 16  1  0
 15 21  1  0
 15 22  1  0
 15 23  1  0
 16 17  1  0
 16 24  1  0
 16 25  1  0
 17 18  1  0
 17 26  1  0
 17 27  1  0
 18 19  1  0
 19 20  1  0
 19 29  1  0
 20 30  1  0
 20 31  1  0
 20 32  1  0
M  RAD  1  19   2
M  END
>  <reaction>  (9) 
rmg_rxn_277

>  <mol_properties>  (9) 
{"0": {"label": "*3", "atom_type": "Cs"}, "1": {"label": "*4", "atom_type": "Cs"}, "17": {"label": "*0", "atom_type": "O2s"}, "18": {"label": "*1", "atom_type": "Cs"}, "27": {"label": "*2", "atom_type": "H0"}}

>  <type>  (9) 
unop_5

>  <geom_source>  (9) 
Heuristics

$$$$

     RDKit          3D

 32 30  0  0  0  0  0  0  0  0999 V2000
    0.8721    0.3292    1.7338 C   0  0  0  0  0  0  0  0  0  0  0  0
   -0.5075    0.2231    2.3622 C   0  0  0  0  0  0  0  0  0  0  0  0
   -1.8870    0.5699    1.2419 S   0  0  0  0  0  0  0  0  0  0  0  0
   -1.5532    2.2781    0.7430 C   0  0  0  0  0  0  0  0  0  0  0  0
   -1.5306    3.2863    1.8799 C   0  0  0  0  0  0  0  0  0  0  0  0
    1.0945    1.3532    1.4290 H   0  0  0  0  0  0  0  0  0  0  0  0
    1.6389    0.0268    2.4504 H   0  0  0  0  0  0  0  0  0  0  0  0
   -0.5852    0.8627    3.2430 H   0  0  0  0  0  0  0  0  0  0  0  0
   -0.6962   -0.7980    2.6977 H   0  0  0  0  0  0  0  0  0  0  0  0
   -0.6248    2.3146    0.1707 H   0  0  0  0  0  0  0  0  0  0  0  0
   -2.3611    2.5073    0.0461 H   0  0  0  0  0  0  0  0  0  0  0  0
   -0.7029    3.0967    2.5654 H   0  0  0  0  0  0  0  0  0  0  0  0
   -1.4052    4.2976    1.4867 H   0  0  0  0  0  0  0  0  0  0  0  0
   -2.4585    3.2494    2.4516 H   0  0  0  0  0  0  0  0  0  0  0  0
    1.9651   -3.0523   -3.1219 C   0  0  0  0  0  0  0  0  0  0  0  0
    1.9651   -3.0523   -1.5990 C   0  0  0  0  0  0  0  0  0  0  0  0
    1.9651   -1.6593   -1.0035 C   0  0  0  0  0  0  0  0  0  0  0  0
    0.7821   -0.9957   -1.3711 O   0  0  0  0  0  0  0  0  0  0  0  0
    0.7114    0.3224   -0.8902 C   0  0  0  0  0  3  0  0  0  0  0  0
   -0.5919    0.9402   -1.3410 C   0  0  0  0  0  0  0  0  0  0  0  0
    2.8472   -2.5380   -3.5115 H   0  0  0  0  0  0  0  0  0  0  0  0
    1.0824   -2.5426   -3.5080 H   0  0  0  0  0  0  0  0  0  0  0  0
    1.9706   -4.0702   -3.5145 H   0  0  0  0  0  0  0  0  0  0  0  0
    2.8466   -3.5788   -1.2227 H   0  0  0  0  0  0  0  0  0  0  0  0
    1.0907   -3.5903   -1.2237 H   0  0  0  0  0  0  0  0  0  0  0  0
    2.8393   -1.0942   -1.3638 H   0  0  0  0  0  0  0  0  0  0  0  0
    2.0399   -1.7132    0.0926 H   0  0  0  0  0  0  0  0  0  0  0  0
    0.7921    0.3258    0.4275 H   0  0  0  0  0  0  0  0  0  0  0  0
    1.5643    0.9054   -1.2680 H   0  0  0  0  0  0  0  0  0  0  0  0
   -1.4383    0.3708   -0.9553 H   0  0  0  0  0  0  0  0  0  0  0  0
   -0.6527    0.9520   -2.4298 H   0  0  0  0  0  0  0  0  0  0  0  0
   -0.6695    1.9662   -0.9779 H   0  0  0  0  0  0  0  0  0  0  0  0
  1  2  1  0
  1  6  1  0
  1  7  1  0
  1 28  1  0
  2  3  1  0
  2  8  1  0
  2  9  1  0
  3  4  1  0
  4  5  1  0
  4 10  1  0
  4 11  1  0
  5 12  1  0
  5 13  1  0
  5 14  1  0
 15 16  1  0
 15 21  1  0
 15 22  1  0
 15 23  1  0
 16 17  1  0
 16 24  1  0
 16 25  1  0
 17 18  1  0
 17 26  1  0
 17 27  1  0
 18 19  1  0
 19 20  1  0
 19 29  1  0
 20 30  1  0
 20 31  1  0
 20 32  1  0
M  RAD  1  19   2
M  END
>  <reaction>  (10) 
rmg_rxn_277

>  <mol_properties>  (10) 
{"0": {"label": "*3", "atom_type": "Cs"}, "1": {"label": "*4", "atom_type": "Cs"}, "17": {"label": "*0", "atom_type": "O2s"}, "18": {"label": "*1", "atom_type": "Cs"}, "27": {"label": "*2", "atom_type": "H0"}}

>  <type>  (10) 
unop_6

>  <geom_source>  (10) 
Heuristics

$$$$

     RDKit          3D

 32 30  0  0  0  0  0  0  0  0999 V2000
    0.5188   -0.1033    1.7599 C   0  0  0  0  0  0  0  0  0  0  0  0
   -0.7253    0.5128    2.3781 C   0  0  0  0  0  0  0  0  0  0  0  0
   -1.7612    1.4576    1.2324 S   0  0  0  0  0  0  0  0  0  0  0  0
   -0.6280    2.7549    0.6747 C   0  0  0  0  0  0  0  0  0  0  0  0
   -0.0968    3.6596    1.7743 C   0  0  0  0  0  0  0  0  0  0  0  0
    1.2174    0.6632    1.4202 H   0  0  0  0  0  0  0  0  0  0  0  0
    1.0410   -0.7201    2.4946 H   0  0  0  0  0  0  0  0  0  0  0  0
   -0.4667    1.1382    3.2342 H   0  0  0  0  0  0  0  0  0  0  0  0
   -1.3929   -0.2668    2.7488 H   0  0  0  0  0  0  0  0  0  0  0  0
    0.1905    2.3046    0.1107 H   0  0  0  0  0  0  0  0  0  0  0  0
   -1.2221    3.3294   -0.0379 H   0  0  0  0  0  0  0  0  0  0  0  0
    0.5340    3.1093    2.4744 H   0  0  0  0  0  0  0  0  0  0  0  0
    0.5104    4.4600    1.3457 H   0  0  0  0  0  0  0  0  0  0  0  0
   -0.9151    4.1093    2.3378 H   0  0  0  0  0  0  0  0  0  0  0  0
    1.6118   -3.4848   -3.0958 C   0  0  0  0  0  0  0  0  0  0  0  0
    1.6118   -3.4848   -1.5729 C   0  0  0  0  0  0  0  0  0  0  0  0
    1.6118   -2.0917   -0.9773 C   0  0  0  0  0  0  0  0  0  0  0  0
    0.4288   -1.4281   -1.3449 O   0  0  0  0  0  0  0  0  0  0  0  0
    0.3581   -0.1101   -0.8640 C   0  0  0  0  0  3  0  0  0  0  0  0
   -0.9452    0.5077   -1.3149 C   0  0  0  0  0  0  0  0  0  0  0  0
    2.4939   -2.9705   -3.4854 H   0  0  0  0  0  0  0  0  0  0  0  0
    0.7291   -2.9751   -3.4818 H   0  0  0  0  0  0  0  0  0  0  0  0
    1.6173   -4.5027   -3.4884 H   0  0  0  0  0  0  0  0  0  0  0  0
    2.4933   -4.0113   -1.1966 H   0  0  0  0  0  0  0  0  0  0  0  0
    0.7374   -4.0228   -1.1976 H   0  0  0  0  0  0  0  0  0  0  0  0
    2.4860   -1.5267   -1.3377 H   0  0  0  0  0  0  0  0  0  0  0  0
    1.6866   -2.1457    0.1187 H   0  0  0  0  0  0  0  0  0  0  0  0
    0.4388   -0.1067    0.4537 H   0  0  0  0  0  0  0  0  0  0  0  0
    1.2110    0.4729   -1.2419 H   0  0  0  0  0  0  0  0  0  0  0  0
   -1.7916   -0.0617   -0.9292 H   0  0  0  0  0  0  0  0  0  0  0  0
   -1.0060    0.5196   -2.4037 H   0  0  0  0  0  0  0  0  0  0  0  0
   -1.0228    1.5337   -0.9518 H   0  0  0  0  0  0  0  0  0  0  0  0
  1  2  1  0
  1  6  1  0
  1  7  1  0
  1 28  1  0
  2  3  1  0
  2  8  1  0
  2  9  1  0
  3  4  1  0
  4  5  1  0
  4 10  1  0
  4 11  1  0
  5 12  1  0
  5 13  1  0
  5 14  1  0
 15 16  1  0
 15 21  1  0
 15 22  1  0
 15 23  1  0
 16 17  1  0
 16 24  1  0
 16 25  1  0
 17 18  1  0
 17 26  1  0
 17 27  1  0
 18 19  1  0
 19 20  1  0
 19 29  1  0
 20 30  1  0
 20 31  1  0
 20 32  1  0
M  RAD  1  19   2
M  END
>  <reaction>  (11) 
rmg_rxn_277

>  <mol_properties>  (11) 
{"0": {"label": "*3", "atom_type": "Cs"}, "1": {"label": "*4", "atom_type": "Cs"}, "17": {"label": "*0", "atom_type": "O2s"}, "18": {"label": "*1", "atom_type": "Cs"}, "27": {"label": "*2", "atom_type": "H0"}}

>  <type>  (11) 
unop_7

>  <geom_source>  (11) 
Heuristics

$$$$

     RDKit          3D

 32 30  0  0  0  0  0  0  0  0999 V2000
   -0.8397    1.3075    0.9912 C   0  0  0  0  0  0  0  0  0  0  0  0
    0.6063    1.4164    1.4460 C   0  0  0  0  0  0  0  0  0  0  0  0
    1.4203   -0.1635    1.7920 S   0  0  0  0  0  0  0  0  0  0  0  0
    0.3926   -0.8393    3.1207 C   0  0  0  0  0  0  0  0  0  0  0  0
    0.3312    0.0095    4.3798 C   0  0  0  0  0  0  0  0  0  0  0  0
   -1.4774    0.9051    1.7801 H   0  0  0  0  0  0  0  0  0  0  0  0
   -1.2287    2.2932    0.7265 H   0  0  0  0  0  0  0  0  0  0  0  0
    0.6932    2.0683    2.3168 H   0  0  0  0  0  0  0  0  0  0  0  0
    1.2210    1.8582    0.6600 H   0  0  0  0  0  0  0  0  0  0  0  0
   -0.6089   -1.0423    2.7379 H   0  0  0  0  0  0  0  0  0  0  0  0
    0.8492   -1.8070    3.3350 H   0  0  0  0  0  0  0  0  0  0  0  0
   -0.1600    0.9660    4.1931 H   0  0  0  0  0  0  0  0  0  0  0  0
   -0.2389   -0.5055    5.1562 H   0  0  0  0  0  0  0  0  0  0  0  0
    1.3323    0.2122    4.7620 H   0  0  0  0  0  0  0  0  0  0  0  0
    0.2533   -2.0741   -3.8644 C   0  0  0  0  0  0  0  0  0  0  0  0
    0.2533   -2.0741   -2.3415 C   0  0  0  0  0  0  0  0  0  0  0  0
    0.2533   -0.6810   -1.7460 C   0  0  0  0  0  0  0  0  0  0  0  0
   -0.9297   -0.0174   -2.1136 O   0  0  0  0  0  0  0  0  0  0  0  0
   -1.0004    1.3007   -1.6327 C   0  0  0  0  0  3  0  0  0  0  0  0
   -2.3037    1.9184   -2.0835 C   0  0  0  0  0  0  0  0  0  0  0  0
    1.1354   -1.5597   -4.2541 H   0  0  0  0  0  0  0  0  0  0  0  0
   -0.6294   -1.5644   -4.2505 H   0  0  0  0  0  0  0  0  0  0  0  0
    0.2588   -3.0919   -4.2571 H   0  0  0  0  0  0  0  0  0  0  0  0
    1.1348   -2.6005   -1.9653 H   0  0  0  0  0  0  0  0  0  0  0  0
   -0.6211   -2.6120   -1.9663 H   0  0  0  0  0  0  0  0  0  0  0  0
    1.1275   -0.1159   -2.1064 H   0  0  0  0  0  0  0  0  0  0  0  0
    0.3281   -0.7349   -0.6500 H   0  0  0  0  0  0  0  0  0  0  0  0
   -0.9197    1.3041   -0.3150 H   0  0  0  0  0  0  0  0  0  0  0  0
   -0.1476    1.8836   -2.0106 H   0  0  0  0  0  0  0  0  0  0  0  0
   -3.1501    1.3490   -1.6979 H   0  0  0  0  0  0  0  0  0  0  0  0
   -2.3645    1.9303   -3.1724 H   0  0  0  0  0  0  0  0  0  0  0  0
   -2.3814    2.9445   -1.7205 H   0  0  0  0  0  0  0  0  0  0  0  0
  1  2  1  0
  1  6  1  0
  1  7  1  0
  1 28  1  0
  2  3  1  0
  2  8  1  0
  2  9  1  0
  3  4  1  0
  4  5  1  0
  4 10  1  0
  4 11  1  0
  5 12  1  0
  5 13  1  0
  5 14  1  0
 15 16  1  0
 15 21  1  0
 15 22  1  0
 15 23  1  0
 16 17  1  0
 16 24  1  0
 16 25  1  0
 17 18  1  0
 17 26  1  0
 17 27  1  0
 18 19  1  0
 19 20  1  0
 19 29  1  0
 20 30  1  0
 20 31  1  0
 20 32  1  0
M  RAD  1  19   2
M  END
>  <reaction>  (12) 
rmg_rxn_277

>  <mol_properties>  (12) 
{"0": {"label": "*3", "atom_type": "Cs"}, "1": {"label": "*4", "atom_type": "Cs"}, "17": {"label": "*0", "atom_type": "O2s"}, "18": {"label": "*1", "atom_type": "Cs"}, "27": {"label": "*2", "atom_type": "H0"}}

>  <type>  (12) 
unop_8

>  <geom_source>  (12) 
Heuristics

$$$$

     RDKit          3D

 32 30  0  0  0  0  0  0  0  0999 V2000
    0.8454    1.2778    1.5253 C   0  0  0  0  0  0  0  0  0  0  0  0
    0.2653   -0.0004    2.1078 C   0  0  0  0  0  0  0  0  0  0  0  0
   -1.1931   -0.6403    1.2466 S   0  0  0  0  0  0  0  0  0  0  0  0
   -2.3708    0.7232    1.4257 C   0  0  0  0  0  0  0  0  0  0  0  0
   -2.7212    1.0848    2.8596 C   0  0  0  0  0  0  0  0  0  0  0  0
    0.1515    2.1139    1.6268 H   0  0  0  0  0  0  0  0  0  0  0  0
    1.7646    1.5495    2.0490 H   0  0  0  0  0  0  0  0  0  0  0  0
    0.0365    0.1228    3.1677 H   0  0  0  0  0  0  0  0  0  0  0  0
    0.9878   -0.8149    2.0348 H   0  0  0  0  0  0  0  0  0  0  0  0
   -2.0026    1.5950    0.8824 H   0  0  0  0  0  0  0  0  0  0  0  0
   -3.2566    0.3724    0.8936 H   0  0  0  0  0  0  0  0  0  0  0  0
   -1.8552    1.4767    3.3957 H   0  0  0  0  0  0  0  0  0  0  0  0
   -3.4942    1.8563    2.8774 H   0  0  0  0  0  0  0  0  0  0  0  0
   -3.0890    0.2133    3.4022 H   0  0  0  0  0  0  0  0  0  0  0  0
    1.9385   -2.1037   -3.3303 C   0  0  0  0  0  0  0  0  0  0  0  0
    1.9385   -2.1037   -1.8074 C   0  0  0  0  0  0  0  0  0  0  0  0
    1.9385   -0.7107   -1.2119 C   0  0  0  0  0  0  0  0  0  0  0  0
    0.7555   -0.0471   -1.5795 O   0  0  0  0  0  0  0  0  0  0  0  0
    0.6847    1.2710   -1.0986 C   0  0  0  0  0  3  0  0  0  0  0  0
   -0.6186    1.8888   -1.5494 C   0  0  0  0  0  0  0  0  0  0  0  0
    2.8205   -1.5894   -3.7200 H   0  0  0  0  0  0  0  0  0  0  0  0
    1.0557   -1.5941   -3.7164 H   0  0  0  0  0  0  0  0  0  0  0  0
    1.9439   -3.1216   -3.7230 H   0  0  0  0  0  0  0  0  0  0  0  0
    2.8200   -2.6302   -1.4312 H   0  0  0  0  0  0  0  0  0  0  0  0
    1.0641   -2.6417   -1.4322 H   0  0  0  0  0  0  0  0  0  0  0  0
    2.8127   -0.1456   -1.5723 H   0  0  0  0  0  0  0  0  0  0  0  0
    2.0132   -0.7646   -0.1159 H   0  0  0  0  0  0  0  0  0  0  0  0
    0.7654    1.2744    0.2191 H   0  0  0  0  0  0  0  0  0  0  0  0
    1.5376    1.8540   -1.4765 H   0  0  0  0  0  0  0  0  0  0  0  0
   -1.4649    1.3194   -1.1638 H   0  0  0  0  0  0  0  0  0  0  0  0
   -0.6794    1.9006   -2.6383 H   0  0  0  0  0  0  0  0  0  0  0  0
   -0.6962    2.9148   -1.1864 H   0  0  0  0  0  0  0  0  0  0  0  0
  1  2  1  0
  1  6  1  0
  1  7  1  0
  1 28  1  0
  2  3  1  0
  2  8  1  0
  2  9  1  0
  3  4  1  0
  4  5  1  0
  4 10  1  0
  4 11  1  0
  5 12  1  0
  5 13  1  0
  5 14  1  0
 15 16  1  0
 15 21  1  0
 15 22  1  0
 15 23  1  0
 16 17  1  0
 16 24  1  0
 16 25  1  0
 17 18  1  0
 17 26  1  0
 17 27  1  0
 18 19  1  0
 19 20  1  0
 19 29  1  0
 20 30  1  0
 20 31  1  0
 20 32  1  0
M  RAD  1  19   2
M  END
>  <reaction>  (13) 
rmg_rxn_277

>  <mol_properties>  (13) 
{"0": {"label": "*3", "atom_type": "Cs"}, "1": {"label": "*4", "atom_type": "Cs"}, "17": {"label": "*0", "atom_type": "O2s"}, "18": {"label": "*1", "atom_type": "Cs"}, "27": {"label": "*2", "atom_type": "H0"}}

>  <type>  (13) 
unop_9

>  <geom_source>  (13) 
Heuristics

$$$$

     RDKit          3D

 32 30  0  0  0  0  0  0  0  0999 V2000
   -0.4840    1.6300    1.0436 C   0  0  0  0  0  0  0  0  0  0  0  0
    0.8265    1.0168    1.5086 C   0  0  0  0  0  0  0  0  0  0  0  0
    0.8019   -0.7831    1.7039 S   0  0  0  0  0  0  0  0  0  0  0  0
   -0.4807   -1.0129    2.9610 C   0  0  0  0  0  0  0  0  0  0  0  0
   -0.1999   -0.3412    4.2950 C   0  0  0  0  0  0  0  0  0  0  0  0
   -1.2704    1.5053    1.7899 H   0  0  0  0  0  0  0  0  0  0  0  0
   -0.3610    2.7019    0.8732 H   0  0  0  0  0  0  0  0  0  0  0  0
    1.1653    1.4785    2.4375 H   0  0  0  0  0  0  0  0  0  0  0  0
    1.6106    1.1867    0.7689 H   0  0  0  0  0  0  0  0  0  0  0  0
   -1.4442   -0.6950    2.5594 H   0  0  0  0  0  0  0  0  0  0  0  0
   -0.5331   -2.0961    3.0831 H   0  0  0  0  0  0  0  0  0  0  0  0
   -0.1846    0.7458    4.1995 H   0  0  0  0  0  0  0  0  0  0  0  0
   -0.9779   -0.5955    5.0182 H   0  0  0  0  0  0  0  0  0  0  0  0
    0.7631   -0.6591    4.6960 H   0  0  0  0  0  0  0  0  0  0  0  0
    0.6091   -1.7515   -3.8121 C   0  0  0  0  0  0  0  0  0  0  0  0
    0.6091   -1.7515   -2.2892 C   0  0  0  0  0  0  0  0  0  0  0  0
    0.6091   -0.3585   -1.6937 C   0  0  0  0  0  0  0  0  0  0  0  0
   -0.5739    0.3051   -2.0612 O   0  0  0  0  0  0  0  0  0  0  0  0
   -0.6447    1.6232   -1.5804 C   0  0  0  0  0  3  0  0  0  0  0  0
   -1.9480    2.2410   -2.0312 C   0  0  0  0  0  0  0  0  0  0  0  0
    1.4911   -1.2372   -4.2017 H   0  0  0  0  0  0  0  0  0  0  0  0
   -0.2737   -1.2418   -4.1981 H   0  0  0  0  0  0  0  0  0  0  0  0
    0.6145   -2.7694   -4.2047 H   0  0  0  0  0  0  0  0  0  0  0  0
    1.4906   -2.2780   -1.9129 H   0  0  0  0  0  0  0  0  0  0  0  0
   -0.2653   -2.2895   -1.9139 H   0  0  0  0  0  0  0  0  0  0  0  0
    1.4833    0.2066   -2.0540 H   0  0  0  0  0  0  0  0  0  0  0  0
    0.6838   -0.4124   -0.5976 H   0  0  0  0  0  0  0  0  0  0  0  0
   -0.5640    1.6266   -0.2627 H   0  0  0  0  0  0  0  0  0  0  0  0
    0.2082    2.2062   -1.9582 H   0  0  0  0  0  0  0  0  0  0  0  0
   -2.7943    1.6716   -1.6455 H   0  0  0  0  0  0  0  0  0  0  0  0
   -2.0088    2.2528   -3.1200 H   0  0  0  0  0  0  0  0  0  0  0  0
   -2.0256    3.2670   -1.6681 H   0  0  0  0  0  0  0  0  0  0  0  0
  1  2  1  0
  1  6  1  0
  1  7  1  0
  1 28  1  0
  2  3  1  0
  2  8  1  0
  2  9  1  0
  3  4  1  0
  4  5  1  0
  4 10  1  0
  4 11  1  0
  5 12  1  0
  5 13  1  0
  5 14  1  0
 15 16  1  0
 15 21  1  0
 15 22  1  0
 15 23  1  0
 16 17  1  0
 16 24  1  0
 16 25  1  0
 17 18  1  0
 17 26  1  0
 17 27  1  0
 18 19  1  0
 19 20  1  0
 19 29  1  0
 20 30  1  0
 20 31  1  0
 20 32  1  0
M  RAD  1  19   2
M  END
>  <reaction>  (14) 
rmg_rxn_277

>  <mol_properties>  (14) 
{"0": {"label": "*3", "atom_type": "Cs"}, "1": {"label": "*4", "atom_type": "Cs"}, "17": {"label": "*0", "atom_type": "O2s"}, "18": {"label": "*1", "atom_type": "Cs"}, "27": {"label": "*2", "atom_type": "H0"}}

>  <type>  (14) 
unop_10

>  <geom_source>  (14) 
Heuristics

$$$$

     RDKit          3D

 32 30  0  0  0  0  0  0  0  0999 V2000
   -0.1029   -0.3191    1.6977 C   0  0  0  0  0  0  0  0  0  0  0  0
   -0.8692    0.8544    2.2852 C   0  0  0  0  0  0  0  0  0  0  0  0
   -1.0326    2.2867    1.1898 S   0  0  0  0  0  0  0  0  0  0  0  0
    0.6950    2.7454    0.9011 C   0  0  0  0  0  0  0  0  0  0  0  0
    1.4764    3.1219    2.1490 C   0  0  0  0  0  0  0  0  0  0  0  0
    0.9431   -0.0640    1.5195 H   0  0  0  0  0  0  0  0  0  0  0  0
   -0.1207   -1.1662    2.3869 H   0  0  0  0  0  0  0  0  0  0  0  0
   -0.4317    1.1704    3.2336 H   0  0  0  0  0  0  0  0  0  0  0  0
   -1.9015    0.5692    2.4949 H   0  0  0  0  0  0  0  0  0  0  0  0
    1.1965    1.9458    0.3534 H   0  0  0  0  0  0  0  0  0  0  0  0
    0.6273    3.5970    0.2222 H   0  0  0  0  0  0  0  0  0  0  0  0
    1.5894    2.2701    2.8217 H   0  0  0  0  0  0  0  0  0  0  0  0
    2.4788    3.4620    1.8798 H   0  0  0  0  0  0  0  0  0  0  0  0
    0.9748    3.9209    2.6962 H   0  0  0  0  0  0  0  0  0  0  0  0
    0.9901   -3.7006   -3.1580 C   0  0  0  0  0  0  0  0  0  0  0  0
    0.9901   -3.7006   -1.6351 C   0  0  0  0  0  0  0  0  0  0  0  0
    0.9901   -2.3076   -1.0395 C   0  0  0  0  0  0  0  0  0  0  0  0
   -0.1929   -1.6440   -1.4071 O   0  0  0  0  0  0  0  0  0  0  0  0
   -0.2636   -0.3259   -0.9263 C   0  0  0  0  0  3  0  0  0  0  0  0
   -1.5669    0.2919   -1.3771 C   0  0  0  0  0  0  0  0  0  0  0  0
    1.8722   -3.1863   -3.5476 H   0  0  0  0  0  0  0  0  0  0  0  0
    0.1074   -3.1909   -3.5440 H   0  0  0  0  0  0  0  0  0  0  0  0
    0.9956   -4.7185   -3.5506 H   0  0  0  0  0  0  0  0  0  0  0  0
    1.8716   -4.2271   -1.2588 H   0  0  0  0  0  0  0  0  0  0  0  0
    0.1157   -4.2386   -1.2598 H   0  0  0  0  0  0  0  0  0  0  0  0
    1.8643   -1.7425   -1.3999 H   0  0  0  0  0  0  0  0  0  0  0  0
    1.0649   -2.3615    0.0565 H   0  0  0  0  0  0  0  0  0  0  0  0
   -0.1829   -0.3225    0.3914 H   0  0  0  0  0  0  0  0  0  0  0  0
    0.5893    0.2571   -1.3041 H   0  0  0  0  0  0  0  0  0  0  0  0
   -2.4133   -0.2775   -0.9914 H   0  0  0  0  0  0  0  0  0  0  0  0
   -1.6277    0.3037   -2.4659 H   0  0  0  0  0  0  0  0  0  0  0  0
   -1.6445    1.3179   -1.0140 H   0  0  0  0  0  0  0  0  0  0  0  0
  1  2  1  0
  1  6  1  0
  1  7  1  0
  1 28  1  0
  2  3  1  0
  2  8  1  0
  2  9  1  0
  3  4  1  0
  4  5  1  0
  4 10  1  0
  4 11  1  0
  5 12  1  0
  5 13  1  0
  5 14  1  0
 15 16  1  0
 15 21  1  0
 15 22  1  0
 15 23  1  0
 16 17  1  0
 16 24  1  0
 16 25  1  0
 17 18  1  0
 17 26  1  0
 17 27  1  0
 18 19  1  0
 19 20  1  0
 19 29  1  0
 20 30  1  0
 20 31  1  0
 20 32  1  0
M  RAD  1  19   2
M  END
>  <reaction>  (15) 
rmg_rxn_277

>  <mol_properties>  (15) 
{"0": {"label": "*3", "atom_type": "Cs"}, "1": {"label": "*4", "atom_type": "Cs"}, "17": {"label": "*0", "atom_type": "O2s"}, "18": {"label": "*1", "atom_type": "Cs"}, "27": {"label": "*2", "atom_type": "H0"}}

>  <type>  (15) 
unop_11

>  <geom_source>  (15) 
Heuristics

$$$$

     RDKit          3D

 32 30  0  0  0  0  0  0  0  0999 V2000
    0.5079    1.6241    1.3402 C   0  0  0  0  0  0  0  0  0  0  0  0
    0.6485    0.2100    1.8789 C   0  0  0  0  0  0  0  0  0  0  0  0
   -0.6488   -0.9400    1.3569 S   0  0  0  0  0  0  0  0  0  0  0  0
   -2.1409   -0.1594    2.0221 C   0  0  0  0  0  0  0  0  0  0  0  0
   -2.1596    0.0067    3.5326 C   0  0  0  0  0  0  0  0  0  0  0  0
   -0.3847    2.1141    1.7327 H   0  0  0  0  0  0  0  0  0  0  0  0
    1.3691    2.2285    1.6335 H   0  0  0  0  0  0  0  0  0  0  0  0
    0.7152    0.2124    2.9681 H   0  0  0  0  0  0  0  0  0  0  0  0
    1.5666   -0.2494    1.5089 H   0  0  0  0  0  0  0  0  0  0  0  0
   -2.3042    0.7970    1.5225 H   0  0  0  0  0  0  0  0  0  0  0  0
   -2.9457   -0.8229    1.7015 H   0  0  0  0  0  0  0  0  0  0  0  0
   -1.3864    0.7000    3.8678 H   0  0  0  0  0  0  0  0  0  0  0  0
   -3.1223    0.4076    3.8576 H   0  0  0  0  0  0  0  0  0  0  0  0
   -1.9963   -0.9492    4.0315 H   0  0  0  0  0  0  0  0  0  0  0  0
    1.6009   -1.7574   -3.5154 C   0  0  0  0  0  0  0  0  0  0  0  0
    1.6009   -1.7574   -1.9925 C   0  0  0  0  0  0  0  0  0  0  0  0
    1.6009   -0.3644   -1.3970 C   0  0  0  0  0  0  0  0  0  0  0  0
    0.4179    0.2992   -1.7646 O   0  0  0  0  0  0  0  0  0  0  0  0
    0.3472    1.6173   -1.2837 C   0  0  0  0  0  3  0  0  0  0  0  0
   -0.9561    2.2351   -1.7345 C   0  0  0  0  0  0  0  0  0  0  0  0
    2.4830   -1.2431   -3.9051 H   0  0  0  0  0  0  0  0  0  0  0  0
    0.7182   -1.2477   -3.9015 H   0  0  0  0  0  0  0  0  0  0  0  0
    1.6064   -2.7753   -3.9081 H   0  0  0  0  0  0  0  0  0  0  0  0
    2.4824   -2.2839   -1.6163 H   0  0  0  0  0  0  0  0  0  0  0  0
    0.7265   -2.2954   -1.6173 H   0  0  0  0  0  0  0  0  0  0  0  0
    2.4751    0.2007   -1.7574 H   0  0  0  0  0  0  0  0  0  0  0  0
    1.6757   -0.4183   -0.3010 H   0  0  0  0  0  0  0  0  0  0  0  0
    0.4279    1.6207    0.0340 H   0  0  0  0  0  0  0  0  0  0  0  0
    1.2000    2.2003   -1.6616 H   0  0  0  0  0  0  0  0  0  0  0  0
   -1.8025    1.6657   -1.3489 H   0  0  0  0  0  0  0  0  0  0  0  0
   -1.0169    2.2469   -2.8234 H   0  0  0  0  0  0  0  0  0  0  0  0
   -1.0338    3.2611   -1.3715 H   0  0  0  0  0  0  0  0  0  0  0  0
  1  2  1  0
  1  6  1  0
  1  7  1  0
  1 28  1  0
  2  3  1  0
  2  8  1  0
  2  9  1  0
  3  4  1  0
  4  5  1  0
  4 10  1  0
  4 11  1  0
  5 12  1  0
  5 13  1  0
  5 14  1  0
 15 16  1  0
 15 21  1  0
 15 22  1  0
 15 23  1  0
 16 17  1  0
 16 24  1  0
 16 25  1  0
 17 18  1  0
 17 26  1  0
 17 27  1  0
 18 19  1  0
 19 20  1  0
 19 29  1  0
 20 30  1  0
 20 31  1  0
 20 32  1  0
M  RAD  1  19   2
M  END
>  <reaction>  (16) 
rmg_rxn_277

>  <mol_properties>  (16) 
{"0": {"label": "*3", "atom_type": "Cs"}, "1": {"label": "*4", "atom_type": "Cs"}, "17": {"label": "*0", "atom_type": "O2s"}, "18": {"label": "*1", "atom_type": "Cs"}, "27": {"label": "*2", "atom_type": "H0"}}

>  <type>  (16) 
unop_12

>  <geom_source>  (16) 
Heuristics

$$$$

     RDKit          3D

 32 30  0  0  0  0  0  0  0  0999 V2000
    2.3691   -0.2087    0.3210 S   0  0  0  0  0  0  0  0  0  0  0  0
   -1.5693    0.1494   -0.1679 O   0  0  0  0  0  0  0  0  0  0  0  0
   -3.3989    1.3078    0.8804 C   0  0  0  0  0  0  0  0  0  0  0  0
   -2.9182    0.5308   -0.3456 C   0  0  0  0  0  0  0  0  0  0  0  0
    3.8305    0.8565    0.5606 C   0  0  0  0  0  0  0  0  0  0  0  0
    2.4047   -0.1023   -1.4992 C   0  0  0  0  0  0  0  0  0  0  0  0
   -3.4240    0.4331    2.1322 C   0  0  0  0  0  0  0  0  0  0  0  0
    4.1245    1.0077    2.0453 C   0  0  0  0  0  0  0  0  0  0  0  0
    1.2621   -0.9155   -2.0857 C   0  0  0  0  0  0  0  0  0  0  0  0
   -1.2846   -2.1726   -0.7955 C   0  0  0  0  0  0  0  0  0  0  0  0
   -1.1660   -0.7134   -1.2122 C   0  0  0  0  0  3  0  0  0  0  0  0
   -4.4249    1.6899    0.6882 H   0  0  0  0  0  0  0  0  0  0  0  0
   -2.7320    2.1804    1.0530 H   0  0  0  0  0  0  0  0  0  0  0  0
    4.7109    0.4020    0.0581 H   0  0  0  0  0  0  0  0  0  0  0  0
    3.6384    1.8591    0.1222 H   0  0  0  0  0  0  0  0  0  0  0  0
    3.3701   -0.4992   -1.8796 H   0  0  0  0  0  0  0  0  0  0  0  0
    2.2955    0.9573   -1.8137 H   0  0  0  0  0  0  0  0  0  0  0  0
   -3.0080    1.1970   -1.2332 H   0  0  0  0  0  0  0  0  0  0  0  0
   -3.5801   -0.3540   -0.4918 H   0  0  0  0  0  0  0  0  0  0  0  0
    5.0145    1.6567    2.1851 H   0  0  0  0  0  0  0  0  0  0  0  0
    3.2579    1.4727    2.5613 H   0  0  0  0  0  0  0  0  0  0  0  0
    4.3314    0.0144    2.4972 H   0  0  0  0  0  0  0  0  0  0  0  0
    1.2822   -0.8433   -3.1936 H   0  0  0  0  0  0  0  0  0  0  0  0
    1.3623   -1.9825   -1.7940 H   0  0  0  0  0  0  0  0  0  0  0  0
    0.1355   -0.4605   -1.6590 H   0  0  0  0  0  0  0  0  0  0  0  0
   -4.0979   -0.4372    1.9818 H   0  0  0  0  0  0  0  0  0  0  0  0
   -2.4027    0.0688    2.3728 H   0  0  0  0  0  0  0  0  0  0  0  0
   -3.7986    1.0272    2.9922 H   0  0  0  0  0  0  0  0  0  0  0  0
   -0.8512   -2.8179   -1.5873 H   0  0  0  0  0  0  0  0  0  0  0  0
   -2.3497   -2.4475   -0.6482 H   0  0  0  0  0  0  0  0  0  0  0  0
   -0.7272   -2.3402    0.1498 H   0  0  0  0  0  0  0  0  0  0  0  0
   -1.6561   -0.5158   -2.1948 H   0  0  0  0  0  0  0  0  0  0  0  0
  1  5  1  0
  1  6  1  0
  2 11  1  0
  2  4  1  0
  3  7  1  0
  3  4  1  0
  3 12  1  0
  3 13  1  0
  4 18  1  0
  4 19  1  0
  5  8  1  0
  5 14  1  0
  5 15  1  0
  6  9  1  0
  6 16  1  0
  6 17  1  0
  7 26  1  0
  7 27  1  0
  7 28  1  0
  8 20  1  0
  8 21  1  0
  8 22  1  0
  9 23  1  0
  9 24  1  0
  9 25  1  0
 10 11  1  0
 10 29  1  0
 10 30  1  0
 10 31  1  0
 11 32  1  0
M  RAD  1  11   2
M  END
>  <reaction>  (17) 
rmg_rxn_277

>  <mol_properties>  (17) 
{"0": {"label": "*3", "atom_type": "Cs"}, "1": {"label": "*4", "atom_type": "Cs"}, "17": {"label": "*0", "atom_type": "O2s"}, "18": {"label": "*1", "atom_type": "Cs"}, "27": {"label": "*2", "atom_type": "H0"}}

>  <type>  (17) 
unop_13

>  <geom_source>  (17) 
AutoTST

$$$$

     RDKit          3D

 32 30  0  0  0  0  0  0  0  0999 V2000
    0.0130    1.7578    1.1609 C   0  0  0  0  0  0  0  0  0  0  0  0
    0.8457    0.5871    1.6567 C   0  0  0  0  0  0  0  0  0  0  0  0
    0.0384   -1.0294    1.5401 S   0  0  0  0  0  0  0  0  0  0  0  0
   -1.4187   -0.8048    2.5911 C   0  0  0  0  0  0  0  0  0  0  0  0
   -1.1179   -0.4686    4.0423 C   0  0  0  0  0  0  0  0  0  0  0  0
   -0.8694    1.9125    1.7841 H   0  0  0  0  0  0  0  0  0  0  0  0
    0.5997    2.6786    1.1893 H   0  0  0  0  0  0  0  0  0  0  0  0
    1.1804    0.7530    2.6820 H   0  0  0  0  0  0  0  0  0  0  0  0
    1.7439    0.4729    1.0474 H   0  0  0  0  0  0  0  0  0  0  0  0
   -2.0762   -0.0564    2.1456 H   0  0  0  0  0  0  0  0  0  0  0  0
   -1.9388   -1.7616    2.5213 H   0  0  0  0  0  0  0  0  0  0  0  0
   -0.6339    0.5051    4.1347 H   0  0  0  0  0  0  0  0  0  0  0  0
   -2.0430   -0.4308    4.6219 H   0  0  0  0  0  0  0  0  0  0  0  0
   -0.4608   -1.2167    4.4872 H   0  0  0  0  0  0  0  0  0  0  0  0
    1.1061   -1.6238   -3.6947 C   0  0  0  0  0  0  0  0  0  0  0  0
    1.1061   -1.6238   -2.1718 C   0  0  0  0  0  0  0  0  0  0  0  0
    1.1061   -0.2307   -1.5763 C   0  0  0  0  0  0  0  0  0  0  0  0
   -0.0769    0.4329   -1.9439 O   0  0  0  0  0  0  0  0  0  0  0  0
   -0.1477    1.7509   -1.4630 C   0  0  0  0  0  3  0  0  0  0  0  0
   -1.4510    2.3687   -1.9138 C   0  0  0  0  0  0  0  0  0  0  0  0
    1.9881   -1.1095   -4.0843 H   0  0  0  0  0  0  0  0  0  0  0  0
    0.2233   -1.1141   -4.0808 H   0  0  0  0  0  0  0  0  0  0  0  0
    1.1115   -2.6416   -4.0874 H   0  0  0  0  0  0  0  0  0  0  0  0
    1.9876   -2.1503   -1.7955 H   0  0  0  0  0  0  0  0  0  0  0  0
    0.2317   -2.1618   -1.7965 H   0  0  0  0  0  0  0  0  0  0  0  0
    1.9803    0.3344   -1.9367 H   0  0  0  0  0  0  0  0  0  0  0  0
    1.1808   -0.2846   -0.4802 H   0  0  0  0  0  0  0  0  0  0  0  0
   -0.0670    1.7544   -0.1453 H   0  0  0  0  0  0  0  0  0  0  0  0
    0.7052    2.3339   -1.8409 H   0  0  0  0  0  0  0  0  0  0  0  0
   -2.2973    1.7993   -1.5281 H   0  0  0  0  0  0  0  0  0  0  0  0
   -1.5118    2.3806   -3.0026 H   0  0  0  0  0  0  0  0  0  0  0  0
   -1.5286    3.3948   -1.5508 H   0  0  0  0  0  0  0  0  0  0  0  0
  1  2  1  0
  1  6  1  0
  1  7  1  0
  1 28  1  0
  2  3  1  0
  2  8  1  0
  2  9  1  0
  3  4  1  0
  4  5  1  0
  4 10  1  0
  4 11  1  0
  5 12  1  0
  5 13  1  0
  5 14  1  0
 15 16  1  0
 15 21  1  0
 15 22  1  0
 15 23  1  0
 16 17  1  0
 16 24  1  0
 16 25  1  0
 17 18  1  0
 17 26  1  0
 17 27  1  0
 18 19  1  0
 19 20  1  0
 19 29  1  0
 20 30  1  0
 20 31  1  0
 20 32  1  0
M  RAD  1  19   2
M  END
>  <reaction>  (18) 
rmg_rxn_277

>  <mol_properties>  (18) 
{"0": {"label": "*3", "atom_type": "Cs"}, "1": {"label": "*4", "atom_type": "Cs"}, "17": {"label": "*0", "atom_type": "O2s"}, "18": {"label": "*1", "atom_type": "Cs"}, "27": {"label": "*2", "atom_type": "H0"}}

>  <type>  (18) 
unop_14

>  <geom_source>  (18) 
gaussian_log

$$$$
