
     RDKit          3D

 10  9  0  0  0  0  0  0  0  0999 V2000
    2.0403   -0.0578    0.0120 C   0  0  0  0  0  0  0  0  0  0  0  0
    0.5945   -0.0169    0.1896 C   0  0  0  0  0  0  0  0  0  0  0  0
   -0.5946    0.0168    0.3358 C   0  0  0  0  0  0  0  0  0  0  0  0
   -2.0403    0.0578    0.5137 C   0  0  0  0  0  0  0  0  0  0  0  0
    2.4731    0.9391    0.1118 H   0  0  0  0  0  0  0  0  0  0  0  0
    2.3007   -0.4413   -0.9760 H   0  0  0  0  0  0  0  0  0  0  0  0
    2.5061   -0.7039    0.7582 H   0  0  0  0  0  0  0  0  0  0  0  0
   -2.3734    1.0668    0.7626 H   0  0  0  0  0  0  0  0  0  0  0  0
   -2.3525   -0.6089    1.3193 H   0  0  0  0  0  0  0  0  0  0  0  0
   -2.5538   -0.2516   -0.3983 H   0  0  0  0  0  0  0  0  0  0  0  0
  1  2  1  0
  1  5  1  0
  1  6  1  0
  1  7  1  0
  2  3  3  0
  3  4  1  0
  4  8  1  0
  4  9  1  0
  4 10  1  0
M  END
>  <reaction>  (1) 
rmg_rxn_273

>  <mol_properties>  (1) 
{"3": {"label": "donator", "atom_type": "Cs"}, "9": {"label": "d_hydrogen", "atom_type": "H0"}}

>  <type>  (1) 
r1h

$$$$

     RDKit          3D

 17 16  0  0  0  0  0  0  0  0999 V2000
   -3.2378    0.0781    0.0468 C   0  0  0  0  0  0  0  0  0  0  0  0
   -1.9072   -0.5430    0.2348 C   0  0  0  0  0  3  0  0  0  0  0  0
   -1.5607   -0.7743    1.5229 O   0  0  0  0  0  0  0  0  0  0  0  0
   -0.2678   -1.3170    1.7206 C   0  0  0  0  0  0  0  0  0  0  0  0
    0.0055   -1.4164    3.2061 C   0  0  0  0  0  0  0  0  0  0  0  0
    0.0347   -0.0632    3.9042 C   0  0  0  0  0  0  0  0  0  0  0  0
   -3.2816    1.0982    0.4537 H   0  0  0  0  0  0  0  0  0  0  0  0
   -3.4818    0.1310   -1.0144 H   0  0  0  0  0  0  0  0  0  0  0  0
   -4.0139   -0.5033    0.5509 H   0  0  0  0  0  0  0  0  0  0  0  0
   -1.0896   -0.3480   -0.4562 H   0  0  0  0  0  0  0  0  0  0  0  0
   -0.2142   -2.3036    1.2476 H   0  0  0  0  0  0  0  0  0  0  0  0
    0.4751   -0.6679    1.2371 H   0  0  0  0  0  0  0  0  0  0  0  0
   -0.7555   -2.0574    3.6583 H   0  0  0  0  0  0  0  0  0  0  0  0
    0.9642   -1.9267    3.3334 H   0  0  0  0  0  0  0  0  0  0  0  0
   -0.9209    0.4499    3.7952 H   0  0  0  0  0  0  0  0  0  0  0  0
    0.2399   -0.1765    4.9695 H   0  0  0  0  0  0  0  0  0  0  0  0
    0.8109    0.5782    3.4796 H   0  0  0  0  0  0  0  0  0  0  0  0
  1  2  1  0
  1  7  1  0
  1  8  1  0
  1  9  1  0
  2  3  1  0
  2 10  1  0
  3  4  1  0
  4  5  1  0
  4 11  1  0
  4 12  1  0
  5  6  1  0
  5 13  1  0
  5 14  1  0
  6 15  1  0
  6 16  1  0
  6 17  1  0
M  RAD  1   2   2
M  END
>  <reaction>  (2) 
rmg_rxn_273

>  <mol_properties>  (2) 
{"1": {"label": "acceptor", "atom_type": "Cs"}}

>  <type>  (2) 
r2

$$$$

     RDKit          3D

 18 17  0  0  0  0  0  0  0  0999 V2000
    2.2026   -0.7213   -0.2612 C   0  0  0  0  0  0  0  0  0  0  0  0
    1.5384    0.2638    0.6915 C   0  0  0  0  0  0  0  0  0  0  0  0
    2.2584    1.5946    0.7694 C   0  0  0  0  0  0  0  0  0  0  0  0
    2.2212    2.2185   -0.4893 O   0  0  0  0  0  0  0  0  0  0  0  0
    2.8988    3.4488   -0.5204 C   0  0  0  0  0  0  0  0  0  0  0  0
    2.7981    4.0296   -1.9118 C   0  0  0  0  0  0  0  0  0  0  0  0
    3.2294   -0.9309    0.0486 H   0  0  0  0  0  0  0  0  0  0  0  0
    2.2338   -0.3181   -1.2734 H   0  0  0  0  0  0  0  0  0  0  0  0
    1.6610   -1.6680   -0.2875 H   0  0  0  0  0  0  0  0  0  0  0  0
    1.4990   -0.1566    1.7002 H   0  0  0  0  0  0  0  0  0  0  0  0
    0.5055    0.4455    0.3835 H   0  0  0  0  0  0  0  0  0  0  0  0
    3.3038    1.4410    1.0808 H   0  0  0  0  0  0  0  0  0  0  0  0
    1.7844    2.2410    1.5226 H   0  0  0  0  0  0  0  0  0  0  0  0
    2.4596    4.1376    0.2164 H   0  0  0  0  0  0  0  0  0  0  0  0
    3.9524    3.3035   -0.2397 H   0  0  0  0  0  0  0  0  0  0  0  0
    1.7543    4.1869   -2.1856 H   0  0  0  0  0  0  0  0  0  0  0  0
    3.2472    3.3545   -2.6411 H   0  0  0  0  0  0  0  0  0  0  0  0
    3.3178    4.9878   -1.9600 H   0  0  0  0  0  0  0  0  0  0  0  0
  1  2  1  0
  1  7  1  0
  1  8  1  0
  1  9  1  0
  2  3  1  0
  2 10  1  0
  2 11  1  0
  3  4  1  0
  3 12  1  0
  3 13  1  0
  4  5  1  0
  5  6  1  0
  5 14  1  0
  5 15  1  0
  6 16  1  0
  6 17  1  0
  6 18  1  0
M  END
>  <reaction>  (3) 
rmg_rxn_273

>  <mol_properties>  (3) 
{"0": {"label": "a_hydrogen", "atom_type": "H0"}, "2": {"label": "acceptor", "atom_type": "Cs"}}

>  <type>  (3) 
r2h

$$$$

     RDKit          3D

 27 25  0  0  0  0  0  0  0  0999 V2000
   -0.2200   -1.0342   -4.0964 C   0  0  0  0  0  0  0  0  0  0  0  0
    0.1128   -1.4600   -2.7441 C   0  0  0  0  0  3  0  0  0  0  0  0
    0.3847   -1.8369   -1.6327 C   0  0  0  0  0  0  0  0  0  0  0  0
    0.7171   -2.1921   -0.2950 C   0  0  0  0  0  0  0  0  0  0  0  0
   -1.2369   -1.3314   -4.3599 H   0  0  0  0  0  0  0  0  0  0  0  0
    0.4601   -1.4810   -4.8239 H   0  0  0  0  0  0  0  0  0  0  0  0
   -0.1513    0.0512   -4.1961 H   0  0  0  0  0  0  0  0  0  0  0  0
    1.6091   -2.8063   -0.1907 H   0  0  0  0  0  0  0  0  0  0  0  0
   -0.1130   -2.5652    0.3014 H   0  0  0  0  0  0  0  0  0  0  0  0
    1.0523   -1.0487    0.3689 H   0  0  0  0  0  0  0  0  0  0  0  0
    2.1659   -0.3611    2.2364 C   0  0  0  0  0  0  0  0  0  0  0  0
    1.3046    0.0621    1.0867 C   0  0  0  0  0  0  0  0  0  0  0  0
    0.0987    0.5633    1.5109 O   0  0  0  0  0  0  0  0  0  0  0  0
   -0.7189    1.0753    0.4739 C   0  0  0  0  0  0  0  0  0  0  0  0
   -1.9888    1.6360    1.0767 C   0  0  0  0  0  0  0  0  0  0  0  0
   -1.7432    2.8102    2.0150 C   0  0  0  0  0  0  0  0  0  0  0  0
    1.6441   -1.0948    2.8534 H   0  0  0  0  0  0  0  0  0  0  0  0
    3.0885   -0.8107    1.8671 H   0  0  0  0  0  0  0  0  0  0  0  0
    2.4269    0.4908    2.8704 H   0  0  0  0  0  0  0  0  0  0  0  0
    1.7987    0.7055    0.3477 H   0  0  0  0  0  0  0  0  0  0  0  0
   -0.1699    1.8610   -0.0650 H   0  0  0  0  0  0  0  0  0  0  0  0
   -0.9455    0.2785   -0.2429 H   0  0  0  0  0  0  0  0  0  0  0  0
   -2.6399    1.9417    0.2532 H   0  0  0  0  0  0  0  0  0  0  0  0
   -2.5073    0.8328    1.6065 H   0  0  0  0  0  0  0  0  0  0  0  0
   -1.2478    3.6311    1.4907 H   0  0  0  0  0  0  0  0  0  0  0  0
   -2.6814    3.1904    2.4214 H   0  0  0  0  0  0  0  0  0  0  0  0
   -1.1074    2.5132    2.8492 H   0  0  0  0  0  0  0  0  0  0  0  0
  1  2  1  0
  1  5  1  0
  1  6  1  0
  1  7  1  0
  2  3  2  0
  3  4  2  0
  4  8  1  0
  4  9  1  0
 10 12  1  0
 11 12  1  0
 11 17  1  0
 11 18  1  0
 11 19  1  0
 12 13  1  0
 12 20  1  0
 13 14  1  0
 14 15  1  0
 14 21  1  0
 14 22  1  0
 15 16  1  0
 15 23  1  0
 15 24  1  0
 16 25  1  0
 16 26  1  0
 16 27  1  0
M  RAD  1   2   2
M  END
>  <reaction>  (4) 
rmg_rxn_273

>  <mol_properties>  (4) 
{"2": {"label": "*4", "atom_type": "Cdd"}, "3": {"label": "*3", "atom_type": "Cd"}, "9": {"label": "*2", "atom_type": "H0"}, "11": {"label": "*1", "atom_type": "Cs"}, "12": {"label": "*0", "atom_type": "O2s"}}

>  <type>  (4) 
ts

$$$$

     RDKit          3D

 27 25  0  0  0  0  0  0  0  0999 V2000
    0.4657   -2.0242   -4.4280 C   0  0  0  0  0  0  0  0  0  0  0  0
    0.4657   -2.0242   -2.9707 C   0  0  0  0  0  0  0  0  0  0  0  0
    0.4657   -2.0242   -1.7722 C   0  0  0  0  0  0  0  0  0  0  0  0
    0.4657   -2.0242   -0.3149 C   0  0  0  0  0  0  0  0  0  0  0  0
    1.2563   -2.6680   -4.8172 H   0  0  0  0  0  0  0  0  0  0  0  0
    0.6279   -1.0177   -4.8174 H   0  0  0  0  0  0  0  0  0  0  0  0
   -0.4871   -2.3870   -4.8172 H   0  0  0  0  0  0  0  0  0  0  0  0
    1.2197   -2.7105    0.0743 H   0  0  0  0  0  0  0  0  0  0  0  0
   -0.5056   -2.3340    0.0744 H   0  0  0  0  0  0  0  0  0  0  0  0
    0.7266   -0.8289    0.1523 H   0  0  0  0  0  0  0  0  0  0  0  0
    1.8679   -0.5257    1.4595 C   0  0  0  0  0  0  0  0  0  0  0  0
    0.9895    0.3760    0.6234 C   0  0  0  0  0  3  0  0  0  0  0  0
   -0.0827    0.8269    1.4112 O   0  0  0  0  0  0  0  0  0  0  0  0
   -0.9615    1.6782    0.7198 C   0  0  0  0  0  0  0  0  0  0  0  0
   -2.0563    2.1400    1.6597 C   0  0  0  0  0  0  0  0  0  0  0  0
   -1.5341    2.9686    2.8259 C   0  0  0  0  0  0  0  0  0  0  0  0
    1.3005   -1.3844    1.8201 H   0  0  0  0  0  0  0  0  0  0  0  0
    2.7089   -0.8894    0.8671 H   0  0  0  0  0  0  0  0  0  0  0  0
    2.2592    0.0149    2.3220 H   0  0  0  0  0  0  0  0  0  0  0  0
    1.5662    1.2345    0.2486 H   0  0  0  0  0  0  0  0  0  0  0  0
   -0.4100    2.5468    0.3263 H   0  0  0  0  0  0  0  0  0  0  0  0
   -1.3961    1.1495   -0.1412 H   0  0  0  0  0  0  0  0  0  0  0  0
   -2.7761    2.7218    1.0773 H   0  0  0  0  0  0  0  0  0  0  0  0
   -2.5876    1.2605    2.0325 H   0  0  0  0  0  0  0  0  0  0  0  0
   -1.0207    3.8647    2.4681 H   0  0  0  0  0  0  0  0  0  0  0  0
   -2.3492    3.2875    3.4771 H   0  0  0  0  0  0  0  0  0  0  0  0
   -0.8264    2.3928    3.4223 H   0  0  0  0  0  0  0  0  0  0  0  0
  1  2  1  0
  1  5  1  0
  1  6  1  0
  1  7  1  0
  2  3  3  0
  3  4  1  0
  4  8  1  0
  4  9  1  0
  4 10  1  0
 11 12  1  0
 11 17  1  0
 11 18  1  0
 11 19  1  0
 12 13  1  0
 12 20  1  0
 13 14  1  0
 14 15  1  0
 14 21  1  0
 14 22  1  0
 15 16  1  0
 15 23  1  0
 15 24  1  0
 16 25  1  0
 16 26  1  0
 16 27  1  0
M  RAD  1  12   2
M  END
>  <reaction>  (5) 
rmg_rxn_273

>  <mol_properties>  (5) 
{"2": {"label": "*4", "atom_type": "Cdd"}, "3": {"label": "*3", "atom_type": "Cd"}, "9": {"label": "*2", "atom_type": "H0"}, "11": {"label": "*1", "atom_type": "Cs"}, "12": {"label": "*0", "atom_type": "O2s"}}

>  <type>  (5) 
unop_1

>  <geom_source>  (5) 
Heuristics

$$$$

     RDKit          3D

 27 25  0  0  0  0  0  0  0  0999 V2000
   -0.1703   -2.3039   -3.2038 C   0  0  0  0  0  0  0  0  0  0  0  0
   -0.1703   -2.3039   -1.7466 C   0  0  0  0  0  0  0  0  0  0  0  0
   -0.1703   -2.3039   -0.5481 C   0  0  0  0  0  0  0  0  0  0  0  0
   -0.1703   -2.3039    0.9092 C   0  0  0  0  0  0  0  0  0  0  0  0
    0.6202   -2.9477   -3.5931 H   0  0  0  0  0  0  0  0  0  0  0  0
   -0.0081   -1.2974   -3.5932 H   0  0  0  0  0  0  0  0  0  0  0  0
   -1.1231   -2.6667   -3.5931 H   0  0  0  0  0  0  0  0  0  0  0  0
    0.5836   -2.9902    1.2985 H   0  0  0  0  0  0  0  0  0  0  0  0
   -1.1416   -2.6137    1.2985 H   0  0  0  0  0  0  0  0  0  0  0  0
    0.0905   -1.1086    1.3765 H   0  0  0  0  0  0  0  0  0  0  0  0
   -0.6076    0.0030    3.0099 C   0  0  0  0  0  0  0  0  0  0  0  0
    0.3535    0.0963    1.8475 C   0  0  0  0  0  3  0  0  0  0  0  0
   -0.1092    1.0730    0.9501 O   0  0  0  0  0  0  0  0  0  0  0  0
    0.7219    1.2365   -0.1713 C   0  0  0  0  0  0  0  0  0  0  0  0
    0.1628    2.3328   -1.0550 C   0  0  0  0  0  0  0  0  0  0  0  0
    0.1382    3.6954   -0.3754 C   0  0  0  0  0  0  0  0  0  0  0  0
   -1.6036   -0.2721    2.6611 H   0  0  0  0  0  0  0  0  0  0  0  0
   -0.2683   -0.7515    3.7214 H   0  0  0  0  0  0  0  0  0  0  0  0
   -0.6764    0.9609    3.5267 H   0  0  0  0  0  0  0  0  0  0  0  0
    1.3609    0.3601    2.2018 H   0  0  0  0  0  0  0  0  0  0  0  0
    1.7422    1.4960    0.1530 H   0  0  0  0  0  0  0  0  0  0  0  0
    0.7871    0.2918   -0.7309 H   0  0  0  0  0  0  0  0  0  0  0  0
    0.7712    2.3760   -1.9627 H   0  0  0  0  0  0  0  0  0  0  0  0
   -0.8467    2.0490   -1.3635 H   0  0  0  0  0  0  0  0  0  0  0  0
    1.1452    4.0030   -0.0826 H   0  0  0  0  0  0  0  0  0  0  0  0
   -0.2646    4.4594   -1.0419 H   0  0  0  0  0  0  0  0  0  0  0  0
   -0.4780    3.6675    0.5233 H   0  0  0  0  0  0  0  0  0  0  0  0
  1  2  1  0
  1  5  1  0
  1  6  1  0
  1  7  1  0
  2  3  3  0
  3  4  1  0
  4  8  1  0
  4  9  1  0
  4 10  1  0
 11 12  1  0
 11 17  1  0
 11 18  1  0
 11 19  1  0
 12 13  1  0
 12 20  1  0
 13 14  1  0
 14 15  1  0
 14 21  1  0
 14 22  1  0
 15 16  1  0
 15 23  1  0
 15 24  1  0
 16 25  1  0
 16 26  1  0
 16 27  1  0
M  RAD  1  12   2
M  END
>  <reaction>  (6) 
rmg_rxn_273

>  <mol_properties>  (6) 
{"2": {"label": "*4", "atom_type": "Cdd"}, "3": {"label": "*3", "atom_type": "Cd"}, "9": {"label": "*2", "atom_type": "H0"}, "11": {"label": "*1", "atom_type": "Cs"}, "12": {"label": "*0", "atom_type": "O2s"}}

>  <type>  (6) 
unop_2

>  <geom_source>  (6) 
Heuristics

$$$$

     RDKit          3D

 27 25  0  0  0  0  0  0  0  0999 V2000
    0.2391   -1.8072   -4.7813 C   0  0  0  0  0  0  0  0  0  0  0  0
    0.2391   -1.8072   -3.3240 C   0  0  0  0  0  0  0  0  0  0  0  0
    0.2391   -1.8072   -2.1255 C   0  0  0  0  0  0  0  0  0  0  0  0
    0.2391   -1.8072   -0.6683 C   0  0  0  0  0  0  0  0  0  0  0  0
    1.0296   -2.4510   -5.1706 H   0  0  0  0  0  0  0  0  0  0  0  0
    0.4013   -0.8007   -5.1707 H   0  0  0  0  0  0  0  0  0  0  0  0
   -0.7137   -2.1700   -5.1706 H   0  0  0  0  0  0  0  0  0  0  0  0
    0.9930   -2.4935   -0.2790 H   0  0  0  0  0  0  0  0  0  0  0  0
   -0.7322   -2.1170   -0.2790 H   0  0  0  0  0  0  0  0  0  0  0  0
    0.4999   -0.6119   -0.2010 H   0  0  0  0  0  0  0  0  0  0  0  0
    2.1694    0.0944    0.5083 C   0  0  0  0  0  0  0  0  0  0  0  0
    0.7629    0.5930    0.2700 C   0  0  0  0  0  3  0  0  0  0  0  0
    0.1262    0.7724    1.5094 O   0  0  0  0  0  0  0  0  0  0  0  0
   -1.1948    1.2379    1.3940 C   0  0  0  0  0  0  0  0  0  0  0  0
   -1.7798    1.4362    2.7774 C   0  0  0  0  0  0  0  0  0  0  0  0
   -1.0519    2.5001    3.5883 C   0  0  0  0  0  0  0  0  0  0  0  0
    2.1525   -0.8549    1.0447 H   0  0  0  0  0  0  0  0  0  0  0  0
    2.6844   -0.0530   -0.4423 H   0  0  0  0  0  0  0  0  0  0  0  0
    2.7348    0.8145    1.1010 H   0  0  0  0  0  0  0  0  0  0  0  0
    0.7805    1.5436   -0.2832 H   0  0  0  0  0  0  0  0  0  0  0  0
   -1.2099    2.1884    0.8374 H   0  0  0  0  0  0  0  0  0  0  0  0
   -1.7985    0.5160    0.8246 H   0  0  0  0  0  0  0  0  0  0  0  0
   -2.8330    1.7066    2.6613 H   0  0  0  0  0  0  0  0  0  0  0  0
   -1.7547    0.4795    3.3053 H   0  0  0  0  0  0  0  0  0  0  0  0
   -1.0896    3.4686    3.0832 H   0  0  0  0  0  0  0  0  0  0  0  0
   -1.5030    2.6192    4.5744 H   0  0  0  0  0  0  0  0  0  0  0  0
   -0.0037    2.2331    3.7228 H   0  0  0  0  0  0  0  0  0  0  0  0
  1  2  1  0
  1  5  1  0
  1  6  1  0
  1  7  1  0
  2  3  3  0
  3  4  1  0
  4  8  1  0
  4  9  1  0
  4 10  1  0
 11 12  1  0
 11 17  1  0
 11 18  1  0
 11 19  1  0
 12 13  1  0
 12 20  1  0
 13 14  1  0
 14 15  1  0
 14 21  1  0
 14 22  1  0
 15 16  1  0
 15 23  1  0
 15 24  1  0
 16 25  1  0
 16 26  1  0
 16 27  1  0
M  RAD  1  12   2
M  END
>  <reaction>  (7) 
rmg_rxn_273

>  <mol_properties>  (7) 
{"2": {"label": "*4", "atom_type": "Cdd"}, "3": {"label": "*3", "atom_type": "Cd"}, "9": {"label": "*2", "atom_type": "H0"}, "11": {"label": "*1", "atom_type": "Cs"}, "12": {"label": "*0", "atom_type": "O2s"}}

>  <type>  (7) 
unop_3

>  <geom_source>  (7) 
Heuristics

$$$$

     RDKit          3D

 27 25  0  0  0  0  0  0  0  0999 V2000
   -1.3789   -1.6634   -3.6967 C   0  0  0  0  0  0  0  0  0  0  0  0
   -1.3789   -1.6634   -2.2394 C   0  0  0  0  0  0  0  0  0  0  0  0
   -1.3789   -1.6634   -1.0409 C   0  0  0  0  0  0  0  0  0  0  0  0
   -1.3789   -1.6634    0.4164 C   0  0  0  0  0  0  0  0  0  0  0  0
   -0.5883   -2.3072   -4.0859 H   0  0  0  0  0  0  0  0  0  0  0  0
   -1.2166   -0.6569   -4.0861 H   0  0  0  0  0  0  0  0  0  0  0  0
   -2.3317   -2.0262   -4.0859 H   0  0  0  0  0  0  0  0  0  0  0  0
   -0.6249   -2.3497    0.8057 H   0  0  0  0  0  0  0  0  0  0  0  0
   -2.3502   -1.9733    0.8057 H   0  0  0  0  0  0  0  0  0  0  0  0
   -1.1180   -0.4682    0.8836 H   0  0  0  0  0  0  0  0  0  0  0  0
   -1.7185    1.9506    1.6086 C   0  0  0  0  0  0  0  0  0  0  0  0
   -0.8551    0.7367    1.3547 C   0  0  0  0  0  3  0  0  0  0  0  0
    0.4080    1.1603    0.9088 O   0  0  0  0  0  0  0  0  0  0  0  0
    1.2896    0.0983    0.6445 C   0  0  0  0  0  0  0  0  0  0  0  0
    2.6299    0.6549    0.2096 C   0  0  0  0  0  0  0  0  0  0  0  0
    3.3142    1.4812    1.2904 C   0  0  0  0  0  0  0  0  0  0  0  0
   -1.8367    2.5334    0.6945 H   0  0  0  0  0  0  0  0  0  0  0  0
   -2.7069    1.6456    1.9560 H   0  0  0  0  0  0  0  0  0  0  0  0
   -1.2659    2.5894    2.3678 H   0  0  0  0  0  0  0  0  0  0  0  0
   -0.7479    0.1421    2.2739 H   0  0  0  0  0  0  0  0  0  0  0  0
    1.4124   -0.5204    1.5476 H   0  0  0  0  0  0  0  0  0  0  0  0
    0.8725   -0.5489   -0.1409 H   0  0  0  0  0  0  0  0  0  0  0  0
    3.2655   -0.1866   -0.0797 H   0  0  0  0  0  0  0  0  0  0  0  0
    2.4795    1.2612   -0.6874 H   0  0  0  0  0  0  0  0  0  0  0  0
    3.4928    0.8803    2.1857 H   0  0  0  0  0  0  0  0  0  0  0  0
    4.2769    1.8603    0.9444 H   0  0  0  0  0  0  0  0  0  0  0  0
    2.6954    2.3318    1.5759 H   0  0  0  0  0  0  0  0  0  0  0  0
  1  2  1  0
  1  5  1  0
  1  6  1  0
  1  7  1  0
  2  3  3  0
  3  4  1  0
  4  8  1  0
  4  9  1  0
  4 10  1  0
 11 12  1  0
 11 17  1  0
 11 18  1  0
 11 19  1  0
 12 13  1  0
 12 20  1  0
 13 14  1  0
 14 15  1  0
 14 21  1  0
 14 22  1  0
 15 16  1  0
 15 23  1  0
 15 24  1  0
 16 25  1  0
 16 26  1  0
 16 27  1  0
M  RAD  1  12   2
M  END
>  <reaction>  (8) 
rmg_rxn_273

>  <mol_properties>  (8) 
{"2": {"label": "*4", "atom_type": "Cdd"}, "3": {"label": "*3", "atom_type": "Cd"}, "9": {"label": "*2", "atom_type": "H0"}, "11": {"label": "*1", "atom_type": "Cs"}, "12": {"label": "*0", "atom_type": "O2s"}}

>  <type>  (8) 
unop_4

>  <geom_source>  (8) 
Heuristics

$$$$

     RDKit          3D

 27 25  0  0  0  0  0  0  0  0999 V2000
   -0.1260   -1.5569   -4.9752 C   0  0  0  0  0  0  0  0  0  0  0  0
   -0.1260   -1.5569   -3.5179 C   0  0  0  0  0  0  0  0  0  0  0  0
   -0.1260   -1.5569   -2.3194 C   0  0  0  0  0  0  0  0  0  0  0  0
   -0.1260   -1.5569   -0.8622 C   0  0  0  0  0  0  0  0  0  0  0  0
    0.6645   -2.2008   -5.3645 H   0  0  0  0  0  0  0  0  0  0  0  0
    0.0362   -0.5504   -5.3646 H   0  0  0  0  0  0  0  0  0  0  0  0
   -1.0788   -1.9198   -5.3645 H   0  0  0  0  0  0  0  0  0  0  0  0
    0.6279   -2.2433   -0.4729 H   0  0  0  0  0  0  0  0  0  0  0  0
   -1.0973   -1.8668   -0.4729 H   0  0  0  0  0  0  0  0  0  0  0  0
    0.1349   -0.3617   -0.3949 H   0  0  0  0  0  0  0  0  0  0  0  0
    1.7520    1.3133   -0.4022 C   0  0  0  0  0  0  0  0  0  0  0  0
    0.3978    0.8432    0.0761 C   0  0  0  0  0  3  0  0  0  0  0  0
    0.3928    0.8201    1.4808 O   0  0  0  0  0  0  0  0  0  0  0  0
   -0.8307    0.3947    2.0258 C   0  0  0  0  0  0  0  0  0  0  0  0
   -0.7499    0.4411    3.5379 C   0  0  0  0  0  0  0  0  0  0  0  0
   -0.5384    1.8473    4.0832 C   0  0  0  0  0  0  0  0  0  0  0  0
    2.5358    0.6414   -0.0508 H   0  0  0  0  0  0  0  0  0  0  0  0
    1.7798    1.3388   -1.4927 H   0  0  0  0  0  0  0  0  0  0  0  0
    1.9635    2.3150   -0.0264 H   0  0  0  0  0  0  0  0  0  0  0  0
   -0.3935    1.5137   -0.2904 H   0  0  0  0  0  0  0  0  0  0  0  0
   -1.6456    1.0453    1.6707 H   0  0  0  0  0  0  0  0  0  0  0  0
   -1.0571   -0.6270    1.6873 H   0  0  0  0  0  0  0  0  0  0  0  0
   -1.6759    0.0181    3.9372 H   0  0  0  0  0  0  0  0  0  0  0  0
    0.0631   -0.2134    3.8624 H   0  0  0  0  0  0  0  0  0  0  0  0
   -1.3571    2.5076    3.7863 H   0  0  0  0  0  0  0  0  0  0  0  0
   -0.4906    1.8427    5.1732 H   0  0  0  0  0  0  0  0  0  0  0  0
    0.3901    2.2731    3.7030 H   0  0  0  0  0  0  0  0  0  0  0  0
  1  2  1  0
  1  5  1  0
  1  6  1  0
  1  7  1  0
  2  3  3  0
  3  4  1  0
  4  8  1  0
  4  9  1  0
  4 10  1  0
 11 12  1  0
 11 17  1  0
 11 18  1  0
 11 19  1  0
 12 13  1  0
 12 20  1  0
 13 14  1  0
 14 15  1  0
 14 21  1  0
 14 22  1  0
 15 16  1  0
 15 23  1  0
 15 24  1  0
 16 25  1  0
 16 26  1  0
 16 27  1  0
M  RAD  1  12   2
M  END
>  <reaction>  (9) 
rmg_rxn_273

>  <mol_properties>  (9) 
{"2": {"label": "*4", "atom_type": "Cdd"}, "3": {"label": "*3", "atom_type": "Cd"}, "9": {"label": "*2", "atom_type": "H0"}, "11": {"label": "*1", "atom_type": "Cs"}, "12": {"label": "*0", "atom_type": "O2s"}}

>  <type>  (9) 
unop_5

>  <geom_source>  (9) 
Heuristics

$$$$

     RDKit          3D

 27 25  0  0  0  0  0  0  0  0999 V2000
   -1.3774   -1.4469   -4.1844 C   0  0  0  0  0  0  0  0  0  0  0  0
   -1.3774   -1.4469   -2.7271 C   0  0  0  0  0  0  0  0  0  0  0  0
   -1.3774   -1.4469   -1.5286 C   0  0  0  0  0  0  0  0  0  0  0  0
   -1.3774   -1.4469   -0.0714 C   0  0  0  0  0  0  0  0  0  0  0  0
   -0.5868   -2.0907   -4.5737 H   0  0  0  0  0  0  0  0  0  0  0  0
   -1.2152   -0.4404   -4.5738 H   0  0  0  0  0  0  0  0  0  0  0  0
   -2.3302   -1.8097   -4.5737 H   0  0  0  0  0  0  0  0  0  0  0  0
   -0.6234   -2.1332    0.3179 H   0  0  0  0  0  0  0  0  0  0  0  0
   -2.3487   -1.7568    0.3179 H   0  0  0  0  0  0  0  0  0  0  0  0
   -1.1165   -0.2516    0.3959 H   0  0  0  0  0  0  0  0  0  0  0  0
   -1.4967    2.3192    0.8019 C   0  0  0  0  0  0  0  0  0  0  0  0
   -0.8536    0.9533    0.8670 C   0  0  0  0  0  3  0  0  0  0  0  0
    0.5321    1.1089    1.0379 O   0  0  0  0  0  0  0  0  0  0  0  0
    1.2243   -0.1119    1.1113 C   0  0  0  0  0  0  0  0  0  0  0  0
    2.6981    0.1591    1.3341 C   0  0  0  0  0  0  0  0  0  0  0  0
    2.9849    0.8597    2.6555 C   0  0  0  0  0  0  0  0  0  0  0  0
   -1.0934    2.8920   -0.0338 H   0  0  0  0  0  0  0  0  0  0  0  0
   -2.5754    2.2232    0.6685 H   0  0  0  0  0  0  0  0  0  0  0  0
   -1.3090    2.8741    1.7219 H   0  0  0  0  0  0  0  0  0  0  0  0
   -1.2710    0.3711    1.7017 H   0  0  0  0  0  0  0  0  0  0  0  0
    0.8230   -0.7212    1.9367 H   0  0  0  0  0  0  0  0  0  0  0  0
    1.0777   -0.6827    0.1825 H   0  0  0  0  0  0  0  0  0  0  0  0
    3.2258   -0.7978    1.2932 H   0  0  0  0  0  0  0  0  0  0  0  0
    3.0700    0.7617    0.5014 H   0  0  0  0  0  0  0  0  0  0  0  0
    2.6395    0.2568    3.4991 H   0  0  0  0  0  0  0  0  0  0  0  0
    4.0543    1.0333    2.7839 H   0  0  0  0  0  0  0  0  0  0  0  0
    2.4753    1.8221    2.7008 H   0  0  0  0  0  0  0  0  0  0  0  0
  1  2  1  0
  1  5  1  0
  1  6  1  0
  1  7  1  0
  2  3  3  0
  3  4  1  0
  4  8  1  0
  4  9  1  0
  4 10  1  0
 11 12  1  0
 11 17  1  0
 11 18  1  0
 11 19  1  0
 12 13  1  0
 12 20  1  0
 13 14  1  0
 14 15  1  0
 14 21  1  0
 14 22  1  0
 15 16  1  0
 15 23  1  0
 15 24  1  0
 16 25  1  0
 16 26  1  0
 16 27  1  0
M  RAD  1  12   2
M  END
>  <reaction>  (10) 
rmg_rxn_273

>  <mol_properties>  (10) 
{"2": {"label": "*4", "atom_type": "Cdd"}, "3": {"label": "*3", "atom_type": "Cd"}, "9": {"label": "*2", "atom_type": "H0"}, "11": {"label": "*1", "atom_type": "Cs"}, "12": {"label": "*0", "atom_type": "O2s"}}

>  <type>  (10) 
unop_6

>  <geom_source>  (10) 
Heuristics

$$$$

     RDKit          3D

 27 25  0  0  0  0  0  0  0  0999 V2000
   -1.1099   -1.3250   -4.6444 C   0  0  0  0  0  0  0  0  0  0  0  0
   -1.1099   -1.3250   -3.1872 C   0  0  0  0  0  0  0  0  0  0  0  0
   -1.1099   -1.3250   -1.9887 C   0  0  0  0  0  0  0  0  0  0  0  0
   -1.1099   -1.3250   -0.5314 C   0  0  0  0  0  0  0  0  0  0  0  0
   -0.3193   -1.9689   -5.0337 H   0  0  0  0  0  0  0  0  0  0  0  0
   -0.9477   -0.3185   -5.0339 H   0  0  0  0  0  0  0  0  0  0  0  0
   -2.0627   -1.6879   -5.0337 H   0  0  0  0  0  0  0  0  0  0  0  0
   -0.3559   -2.0114   -0.1421 H   0  0  0  0  0  0  0  0  0  0  0  0
   -2.0812   -1.6349   -0.1421 H   0  0  0  0  0  0  0  0  0  0  0  0
   -0.8490   -0.1298   -0.0642 H   0  0  0  0  0  0  0  0  0  0  0  0
   -0.8420    2.5007   -0.0243 C   0  0  0  0  0  0  0  0  0  0  0  0
   -0.5861    1.0751    0.4069 C   0  0  0  0  0  3  0  0  0  0  0  0
    0.5765    1.0383    1.1947 O   0  0  0  0  0  0  0  0  0  0  0  0
    0.9006   -0.2517    1.6482 C   0  0  0  0  0  0  0  0  0  0  0  0
    2.1401   -0.1819    2.5166 C   0  0  0  0  0  0  0  0  0  0  0  0
    1.9407    0.6458    3.7792 C   0  0  0  0  0  0  0  0  0  0  0  0
   -0.0013    2.8807   -0.6058 H   0  0  0  0  0  0  0  0  0  0  0  0
   -1.7417    2.5539   -0.6392 H   0  0  0  0  0  0  0  0  0  0  0  0
   -0.9777    3.1444    0.8455 H   0  0  0  0  0  0  0  0  0  0  0  0
   -1.4404    0.6880    0.9815 H   0  0  0  0  0  0  0  0  0  0  0  0
    0.0591   -0.6691    2.2236 H   0  0  0  0  0  0  0  0  0  0  0  0
    1.0730   -0.9185    0.7906 H   0  0  0  0  0  0  0  0  0  0  0  0
    2.4253   -1.2047    2.7782 H   0  0  0  0  0  0  0  0  0  0  0  0
    2.9580    0.2325    1.9215 H   0  0  0  0  0  0  0  0  0  0  0  0
    1.1410    0.2286    4.3963 H   0  0  0  0  0  0  0  0  0  0  0  0
    2.8503    0.6693    4.3811 H   0  0  0  0  0  0  0  0  0  0  0  0
    1.6704    1.6718    3.5295 H   0  0  0  0  0  0  0  0  0  0  0  0
  1  2  1  0
  1  5  1  0
  1  6  1  0
  1  7  1  0
  2  3  3  0
  3  4  1  0
  4  8  1  0
  4  9  1  0
  4 10  1  0
 11 12  1  0
 11 17  1  0
 11 18  1  0
 11 19  1  0
 12 13  1  0
 12 20  1  0
 13 14  1  0
 14 15  1  0
 14 21  1  0
 14 22  1  0
 15 16  1  0
 15 23  1  0
 15 24  1  0
 16 25  1  0
 16 26  1  0
 16 27  1  0
M  RAD  1  12   2
M  END
>  <reaction>  (11) 
rmg_rxn_273

>  <mol_properties>  (11) 
{"2": {"label": "*4", "atom_type": "Cdd"}, "3": {"label": "*3", "atom_type": "Cd"}, "9": {"label": "*2", "atom_type": "H0"}, "11": {"label": "*1", "atom_type": "Cs"}, "12": {"label": "*0", "atom_type": "O2s"}}

>  <type>  (11) 
unop_7

>  <geom_source>  (11) 
Heuristics

$$$$

     RDKit          3D

 27 25  0  0  0  0  0  0  0  0999 V2000
    0.4881   -2.2084   -3.9684 C   0  0  0  0  0  0  0  0  0  0  0  0
    0.4881   -2.2084   -2.5112 C   0  0  0  0  0  0  0  0  0  0  0  0
    0.4881   -2.2084   -1.3127 C   0  0  0  0  0  0  0  0  0  0  0  0
    0.4881   -2.2084    0.1446 C   0  0  0  0  0  0  0  0  0  0  0  0
    1.2787   -2.8523   -4.3577 H   0  0  0  0  0  0  0  0  0  0  0  0
    0.6503   -1.2019   -4.3578 H   0  0  0  0  0  0  0  0  0  0  0  0
   -0.4647   -2.5713   -4.3577 H   0  0  0  0  0  0  0  0  0  0  0  0
    1.2421   -2.8947    0.5339 H   0  0  0  0  0  0  0  0  0  0  0  0
   -0.4832   -2.5183    0.5339 H   0  0  0  0  0  0  0  0  0  0  0  0
    0.7490   -1.0132    0.6119 H   0  0  0  0  0  0  0  0  0  0  0  0
    1.2222   -0.7033    2.2822 C   0  0  0  0  0  0  0  0  0  0  0  0
    1.0119    0.1917    1.0829 C   0  0  0  0  0  3  0  0  0  0  0  0
   -0.1829    0.9106    1.2539 O   0  0  0  0  0  0  0  0  0  0  0  0
   -0.4684    1.7773    0.1851 C   0  0  0  0  0  0  0  0  0  0  0  0
   -1.7486    2.5323    0.4793 C   0  0  0  0  0  0  0  0  0  0  0  0
   -1.6456    3.4309    1.7044 C   0  0  0  0  0  0  0  0  0  0  0  0
    0.3929   -1.4038    2.3863 H   0  0  0  0  0  0  0  0  0  0  0  0
    2.1461   -1.2732    2.1713 H   0  0  0  0  0  0  0  0  0  0  0  0
    1.2882   -0.1100    3.1949 H   0  0  0  0  0  0  0  0  0  0  0  0
    1.8556    0.8886    0.9705 H   0  0  0  0  0  0  0  0  0  0  0  0
    0.3638    2.4851    0.0440 H   0  0  0  0  0  0  0  0  0  0  0  0
   -0.5704    1.2025   -0.7471 H   0  0  0  0  0  0  0  0  0  0  0  0
   -1.9986    3.1270   -0.4037 H   0  0  0  0  0  0  0  0  0  0  0  0
   -2.5562    1.8077    0.6122 H   0  0  0  0  0  0  0  0  0  0  0  0
   -0.8570    4.1766    1.5755 H   0  0  0  0  0  0  0  0  0  0  0  0
   -2.5821    3.9616    1.8820 H   0  0  0  0  0  0  0  0  0  0  0  0
   -1.4112    2.8459    2.5937 H   0  0  0  0  0  0  0  0  0  0  0  0
  1  2  1  0
  1  5  1  0
  1  6  1  0
  1  7  1  0
  2  3  3  0
  3  4  1  0
  4  8  1  0
  4  9  1  0
  4 10  1  0
 11 12  1  0
 11 17  1  0
 11 18  1  0
 11 19  1  0
 12 13  1  0
 12 20  1  0
 13 14  1  0
 14 15  1  0
 14 21  1  0
 14 22  1  0
 15 16  1  0
 15 23  1  0
 15 24  1  0
 16 25  1  0
 16 26  1  0
 16 27  1  0
M  RAD  1  12   2
M  END
>  <reaction>  (12) 
rmg_rxn_273

>  <mol_properties>  (12) 
{"2": {"label": "*4", "atom_type": "Cdd"}, "3": {"label": "*3", "atom_type": "Cd"}, "9": {"label": "*2", "atom_type": "H0"}, "11": {"label": "*1", "atom_type": "Cs"}, "12": {"label": "*0", "atom_type": "O2s"}}

>  <type>  (12) 
unop_8

>  <geom_source>  (12) 
Heuristics

$$$$

     RDKit          3D

 27 25  0  0  0  0  0  0  0  0999 V2000
   -1.1263   -1.9204   -3.3103 C   0  0  0  0  0  0  0  0  0  0  0  0
   -1.1263   -1.9204   -1.8531 C   0  0  0  0  0  0  0  0  0  0  0  0
   -1.1263   -1.9204   -0.6546 C   0  0  0  0  0  0  0  0  0  0  0  0
   -1.1263   -1.9204    0.8027 C   0  0  0  0  0  0  0  0  0  0  0  0
   -0.3358   -2.5643   -3.6996 H   0  0  0  0  0  0  0  0  0  0  0  0
   -0.9641   -0.9140   -3.6997 H   0  0  0  0  0  0  0  0  0  0  0  0
   -2.0791   -2.2833   -3.6996 H   0  0  0  0  0  0  0  0  0  0  0  0
   -0.3724   -2.6068    1.1920 H   0  0  0  0  0  0  0  0  0  0  0  0
   -2.0976   -2.2303    1.1920 H   0  0  0  0  0  0  0  0  0  0  0  0
   -0.8654   -0.7252    1.2700 H   0  0  0  0  0  0  0  0  0  0  0  0
   -1.6482    1.4282    2.2798 C   0  0  0  0  0  0  0  0  0  0  0  0
   -0.6025    0.4797    1.7410 C   0  0  0  0  0  3  0  0  0  0  0  0
    0.2251    1.1749    0.8435 O   0  0  0  0  0  0  0  0  0  0  0  0
    1.2366    0.3746    0.2855 C   0  0  0  0  0  0  0  0  0  0  0  0
    2.0954    1.2192   -0.6334 C   0  0  0  0  0  0  0  0  0  0  0  0
    2.8287    2.3385    0.0937 C   0  0  0  0  0  0  0  0  0  0  0  0
   -2.2554    1.8290    1.4675 H   0  0  0  0  0  0  0  0  0  0  0  0
   -2.3045    0.9092    2.9802 H   0  0  0  0  0  0  0  0  0  0  0  0
   -1.1759    2.2622    2.8001 H   0  0  0  0  0  0  0  0  0  0  0  0
    0.0004    0.0652    2.5624 H   0  0  0  0  0  0  0  0  0  0  0  0
    1.8549   -0.0606    1.0865 H   0  0  0  0  0  0  0  0  0  0  0  0
    0.7888   -0.4610   -0.2724 H   0  0  0  0  0  0  0  0  0  0  0  0
    2.8129    0.5569   -1.1258 H   0  0  0  0  0  0  0  0  0  0  0  0
    1.4585    1.6356   -1.4182 H   0  0  0  0  0  0  0  0  0  0  0  0
    3.4880    1.9348    0.8661 H   0  0  0  0  0  0  0  0  0  0  0  0
    3.4400    2.9210   -0.5971 H   0  0  0  0  0  0  0  0  0  0  0  0
    2.1218    3.0135    0.5760 H   0  0  0  0  0  0  0  0  0  0  0  0
  1  2  1  0
  1  5  1  0
  1  6  1  0
  1  7  1  0
  2  3  3  0
  3  4  1  0
  4  8  1  0
  4  9  1  0
  4 10  1  0
 11 12  1  0
 11 17  1  0
 11 18  1  0
 11 19  1  0
 12 13  1  0
 12 20  1  0
 13 14  1  0
 14 15  1  0
 14 21  1  0
 14 22  1  0
 15 16  1  0
 15 23  1  0
 15 24  1  0
 16 25  1  0
 16 26  1  0
 16 27  1  0
M  RAD  1  12   2
M  END
>  <reaction>  (13) 
rmg_rxn_273

>  <mol_properties>  (13) 
{"2": {"label": "*4", "atom_type": "Cdd"}, "3": {"label": "*3", "atom_type": "Cd"}, "9": {"label": "*2", "atom_type": "H0"}, "11": {"label": "*1", "atom_type": "Cs"}, "12": {"label": "*0", "atom_type": "O2s"}}

>  <type>  (13) 
unop_9

>  <geom_source>  (13) 
Heuristics

$$$$

     RDKit          3D

 27 25  0  0  0  0  0  0  0  0999 V2000
    0.2619   -2.3169   -3.5167 C   0  0  0  0  0  0  0  0  0  0  0  0
    0.2619   -2.3169   -2.0594 C   0  0  0  0  0  0  0  0  0  0  0  0
    0.2619   -2.3169   -0.8609 C   0  0  0  0  0  0  0  0  0  0  0  0
    0.2619   -2.3169    0.5964 C   0  0  0  0  0  0  0  0  0  0  0  0
    1.0525   -2.9607   -3.9059 H   0  0  0  0  0  0  0  0  0  0  0  0
    0.4241   -1.3104   -3.9061 H   0  0  0  0  0  0  0  0  0  0  0  0
   -0.6909   -2.6797   -3.9059 H   0  0  0  0  0  0  0  0  0  0  0  0
    1.0159   -3.0032    0.9857 H   0  0  0  0  0  0  0  0  0  0  0  0
   -0.7094   -2.6267    0.9857 H   0  0  0  0  0  0  0  0  0  0  0  0
    0.5228   -1.1216    1.0636 H   0  0  0  0  0  0  0  0  0  0  0  0
    0.3289   -0.5208    2.8423 C   0  0  0  0  0  0  0  0  0  0  0  0
    0.7857    0.0833    1.5347 C   0  0  0  0  0  3  0  0  0  0  0  0
   -0.1860    0.9946    1.0888 O   0  0  0  0  0  0  0  0  0  0  0  0
    0.1488    1.6141   -0.1274 C   0  0  0  0  0  0  0  0  0  0  0  0
   -0.9364    2.6023   -0.5028 C   0  0  0  0  0  0  0  0  0  0  0  0
   -1.0811    3.7412    0.4978 C   0  0  0  0  0  0  0  0  0  0  0  0
   -0.6200   -1.0422    2.7115 H   0  0  0  0  0  0  0  0  0  0  0  0
    1.0692   -1.2339    3.2085 H   0  0  0  0  0  0  0  0  0  0  0  0
    0.1936    0.2562    3.5956 H   0  0  0  0  0  0  0  0  0  0  0  0
    1.7497    0.5970    1.6645 H   0  0  0  0  0  0  0  0  0  0  0  0
    1.1154    2.1332   -0.0300 H   0  0  0  0  0  0  0  0  0  0  0  0
    0.2631    0.8556   -0.9157 H   0  0  0  0  0  0  0  0  0  0  0  0
   -0.7008    2.9999   -1.4939 H   0  0  0  0  0  0  0  0  0  0  0  0
   -1.8818    2.0614   -0.5950 H   0  0  0  0  0  0  0  0  0  0  0  0
   -0.1495    4.3062    0.5824 H   0  0  0  0  0  0  0  0  0  0  0  0
   -1.8664    4.4345    0.1927 H   0  0  0  0  0  0  0  0  0  0  0  0
   -1.3308    3.3569    1.4867 H   0  0  0  0  0  0  0  0  0  0  0  0
  1  2  1  0
  1  5  1  0
  1  6  1  0
  1  7  1  0
  2  3  3  0
  3  4  1  0
  4  8  1  0
  4  9  1  0
  4 10  1  0
 11 12  1  0
 11 17  1  0
 11 18  1  0
 11 19  1  0
 12 13  1  0
 12 20  1  0
 13 14  1  0
 14 15  1  0
 14 21  1  0
 14 22  1  0
 15 16  1  0
 15 23  1  0
 15 24  1  0
 16 25  1  0
 16 26  1  0
 16 27  1  0
M  RAD  1  12   2
M  END
>  <reaction>  (14) 
rmg_rxn_273

>  <mol_properties>  (14) 
{"2": {"label": "*4", "atom_type": "Cdd"}, "3": {"label": "*3", "atom_type": "Cd"}, "9": {"label": "*2", "atom_type": "H0"}, "11": {"label": "*1", "atom_type": "Cs"}, "12": {"label": "*0", "atom_type": "O2s"}}

>  <type>  (14) 
unop_10

>  <geom_source>  (14) 
Heuristics

$$$$

     RDKit          3D

 27 25  0  0  0  0  0  0  0  0999 V2000
   -0.6353   -1.3523   -4.9422 C   0  0  0  0  0  0  0  0  0  0  0  0
   -0.6353   -1.3523   -3.4849 C   0  0  0  0  0  0  0  0  0  0  0  0
   -0.6353   -1.3523   -2.2864 C   0  0  0  0  0  0  0  0  0  0  0  0
   -0.6353   -1.3523   -0.8292 C   0  0  0  0  0  0  0  0  0  0  0  0
    0.1552   -1.9961   -5.3315 H   0  0  0  0  0  0  0  0  0  0  0  0
   -0.4731   -0.3458   -5.3316 H   0  0  0  0  0  0  0  0  0  0  0  0
   -1.5881   -1.7151   -5.3315 H   0  0  0  0  0  0  0  0  0  0  0  0
    0.1186   -2.0386   -0.4399 H   0  0  0  0  0  0  0  0  0  0  0  0
   -1.6066   -1.6622   -0.4398 H   0  0  0  0  0  0  0  0  0  0  0  0
   -0.3745   -0.1571   -0.3619 H   0  0  0  0  0  0  0  0  0  0  0  0
    0.3630    2.2982   -0.5944 C   0  0  0  0  0  0  0  0  0  0  0  0
   -0.1115    1.0479    0.1092 C   0  0  0  0  0  3  0  0  0  0  0  0
    0.5420    0.9456    1.3485 O   0  0  0  0  0  0  0  0  0  0  0  0
    0.1654   -0.1912    2.0839 C   0  0  0  0  0  0  0  0  0  0  0  0
    0.8906   -0.1915    3.4141 C   0  0  0  0  0  0  0  0  0  0  0  0
    0.5228    0.9938    4.2967 C   0  0  0  0  0  0  0  0  0  0  0  0
    1.4405    2.2590   -0.7582 H   0  0  0  0  0  0  0  0  0  0  0  0
   -0.1317    2.3986   -1.5617 H   0  0  0  0  0  0  0  0  0  0  0  0
    0.1378    3.1820    0.0037 H   0  0  0  0  0  0  0  0  0  0  0  0
   -1.2004    1.0821    0.2615 H   0  0  0  0  0  0  0  0  0  0  0  0
   -0.9239   -0.1879    2.2474 H   0  0  0  0  0  0  0  0  0  0  0  0
    0.4082   -1.1020    1.5171 H   0  0  0  0  0  0  0  0  0  0  0  0
    0.6547   -1.1289    3.9254 H   0  0  0  0  0  0  0  0  0  0  0  0
    1.9668   -0.1972    3.2228 H   0  0  0  0  0  0  0  0  0  0  0  0
   -0.5478    0.9988    4.5162 H   0  0  0  0  0  0  0  0  0  0  0  0
    1.0589    0.9576    5.2463 H   0  0  0  0  0  0  0  0  0  0  0  0
    0.7678    1.9339    3.8025 H   0  0  0  0  0  0  0  0  0  0  0  0
  1  2  1  0
  1  5  1  0
  1  6  1  0
  1  7  1  0
  2  3  3  0
  3  4  1  0
  4  8  1  0
  4  9  1  0
  4 10  1  0
 11 12  1  0
 11 17  1  0
 11 18  1  0
 11 19  1  0
 12 13  1  0
 12 20  1  0
 13 14  1  0
 14 15  1  0
 14 21  1  0
 14 22  1  0
 15 16  1  0
 15 23  1  0
 15 24  1  0
 16 25  1  0
 16 26  1  0
 16 27  1  0
M  RAD  1  12   2
M  END
>  <reaction>  (15) 
rmg_rxn_273

>  <mol_properties>  (15) 
{"2": {"label": "*4", "atom_type": "Cdd"}, "3": {"label": "*3", "atom_type": "Cd"}, "9": {"label": "*2", "atom_type": "H0"}, "11": {"label": "*1", "atom_type": "Cs"}, "12": {"label": "*0", "atom_type": "O2s"}}

>  <type>  (15) 
unop_11

>  <geom_source>  (15) 
Heuristics

$$$$

     RDKit          3D

 27 25  0  0  0  0  0  0  0  0999 V2000
   -0.6846   -2.1573   -3.1277 C   0  0  0  0  0  0  0  0  0  0  0  0
   -0.6846   -2.1573   -1.6705 C   0  0  0  0  0  0  0  0  0  0  0  0
   -0.6846   -2.1573   -0.4720 C   0  0  0  0  0  0  0  0  0  0  0  0
   -0.6846   -2.1573    0.9853 C   0  0  0  0  0  0  0  0  0  0  0  0
    0.1059   -2.8011   -3.5170 H   0  0  0  0  0  0  0  0  0  0  0  0
   -0.5224   -1.1508   -3.5172 H   0  0  0  0  0  0  0  0  0  0  0  0
   -1.6374   -2.5201   -3.5170 H   0  0  0  0  0  0  0  0  0  0  0  0
    0.0693   -2.8436    1.3746 H   0  0  0  0  0  0  0  0  0  0  0  0
   -1.6559   -2.4671    1.3746 H   0  0  0  0  0  0  0  0  0  0  0  0
   -0.4237   -0.9620    1.4525 H   0  0  0  0  0  0  0  0  0  0  0  0
   -1.3046    0.7367    2.7788 C   0  0  0  0  0  0  0  0  0  0  0  0
   -0.1608    0.2429    1.9236 C   0  0  0  0  0  3  0  0  0  0  0  0
    0.0351    1.1405    0.8608 O   0  0  0  0  0  0  0  0  0  0  0  0
    1.0843    0.7673    0.0036 C   0  0  0  0  0  0  0  0  0  0  0  0
    1.2418    1.8125   -1.0818 C   0  0  0  0  0  0  0  0  0  0  0  0
    1.6357    3.1811   -0.5423 C   0  0  0  0  0  0  0  0  0  0  0  0
   -2.2205    0.8031    2.1906 H   0  0  0  0  0  0  0  0  0  0  0  0
   -1.4760    0.0536    3.6122 H   0  0  0  0  0  0  0  0  0  0  0  0
   -1.0817    1.7256    3.1812 H   0  0  0  0  0  0  0  0  0  0  0  0
    0.7594    0.1630    2.5210 H   0  0  0  0  0  0  0  0  0  0  0  0
    2.0206    0.6731    0.5762 H   0  0  0  0  0  0  0  0  0  0  0  0
    0.8731   -0.2160   -0.4417 H   0  0  0  0  0  0  0  0  0  0  0  0
    1.9972    1.4541   -1.7865 H   0  0  0  0  0  0  0  0  0  0  0  0
    0.3014    1.8835   -1.6344 H   0  0  0  0  0  0  0  0  0  0  0  0
    2.5873    3.1298   -0.0073 H   0  0  0  0  0  0  0  0  0  0  0  0
    1.7451    3.9053   -1.3509 H   0  0  0  0  0  0  0  0  0  0  0  0
    0.8817    3.5547    0.1505 H   0  0  0  0  0  0  0  0  0  0  0  0
  1  2  1  0
  1  5  1  0
  1  6  1  0
  1  7  1  0
  2  3  3  0
  3  4  1  0
  4  8  1  0
  4  9  1  0
  4 10  1  0
 11 12  1  0
 11 17  1  0
 11 18  1  0
 11 19  1  0
 12 13  1  0
 12 20  1  0
 13 14  1  0
 14 15  1  0
 14 21  1  0
 14 22  1  0
 15 16  1  0
 15 23  1  0
 15 24  1  0
 16 25  1  0
 16 26  1  0
 16 27  1  0
M  RAD  1  12   2
M  END
>  <reaction>  (16) 
rmg_rxn_273

>  <mol_properties>  (16) 
{"2": {"label": "*4", "atom_type": "Cdd"}, "3": {"label": "*3", "atom_type": "Cd"}, "9": {"label": "*2", "atom_type": "H0"}, "11": {"label": "*1", "atom_type": "Cs"}, "12": {"label": "*0", "atom_type": "O2s"}}

>  <type>  (16) 
unop_12

>  <geom_source>  (16) 
Heuristics

$$$$

     RDKit          3D

 27 25  0  0  0  0  0  0  0  0999 V2000
   -1.7601   -0.1491    0.5108 O   0  0  0  0  0  0  0  0  0  0  0  0
   -2.8851    1.5192   -0.8057 C   0  0  0  0  0  0  0  0  0  0  0  0
   -1.9177    0.3346   -0.8058 C   0  0  0  0  0  0  0  0  0  0  0  0
   -0.8925   -1.2601    0.4946 C   0  0  0  0  0  3  0  0  0  0  0  0
   -2.3271    2.7100   -0.0287 C   0  0  0  0  0  0  0  0  0  0  0  0
   -0.6280   -1.7091    1.9222 C   0  0  0  0  0  0  0  0  0  0  0  0
    4.9223   -0.1593    0.3197 C   0  0  0  0  0  0  0  0  0  0  0  0
    1.1712   -1.1828   -1.0770 C   0  0  0  0  0  0  0  0  0  0  0  0
    3.5939   -0.5218   -0.1749 C   0  0  0  0  0  0  0  0  0  0  0  0
    2.4994   -0.8204   -0.5825 C   0  0  0  0  0  0  0  0  0  0  0  0
   -3.8538    1.2078   -0.3580 H   0  0  0  0  0  0  0  0  0  0  0  0
   -3.0748    1.8323   -1.8553 H   0  0  0  0  0  0  0  0  0  0  0  0
   -1.3526   -2.1083   -0.0616 H   0  0  0  0  0  0  0  0  0  0  0  0
    0.3033   -0.9356   -0.0749 H   0  0  0  0  0  0  0  0  0  0  0  0
   -2.3473   -0.4554   -1.4639 H   0  0  0  0  0  0  0  0  0  0  0  0
   -0.9427    0.6679   -1.2299 H   0  0  0  0  0  0  0  0  0  0  0  0
    0.0564   -2.5832    1.9172 H   0  0  0  0  0  0  0  0  0  0  0  0
   -1.5811   -1.9976    2.4142 H   0  0  0  0  0  0  0  0  0  0  0  0
   -0.1543   -0.8844    2.4953 H   0  0  0  0  0  0  0  0  0  0  0  0
   -2.1668    2.4389    1.0364 H   0  0  0  0  0  0  0  0  0  0  0  0
   -3.0487    3.5527   -0.0735 H   0  0  0  0  0  0  0  0  0  0  0  0
   -1.3645    3.0434   -0.4716 H   0  0  0  0  0  0  0  0  0  0  0  0
    4.8867   -0.0395    1.4221 H   0  0  0  0  0  0  0  0  0  0  0  0
    5.2426    0.7955   -0.1458 H   0  0  0  0  0  0  0  0  0  0  0  0
    5.6454   -0.9590    0.0580 H   0  0  0  0  0  0  0  0  0  0  0  0
    1.2600   -2.0265   -1.7921 H   0  0  0  0  0  0  0  0  0  0  0  0
    0.7162   -0.3102   -1.5893 H   0  0  0  0  0  0  0  0  0  0  0  0
  1  4  1  0
  1  3  1  0
  2  5  1  0
  2  3  1  0
  2 11  1  0
  2 12  1  0
  3 15  1  0
  3 16  1  0
  4  6  1  0
  4 13  1  0
  5 20  1  0
  5 21  1  0
  5 22  1  0
  6 17  1  0
  6 18  1  0
  6 19  1  0
  7  9  1  0
  7 23  1  0
  7 24  1  0
  7 25  1  0
  8 10  1  0
  8 14  1  0
  8 26  1  0
  8 27  1  0
  9 10  3  0
M  RAD  1   4   2
M  END
>  <reaction>  (17) 
rmg_rxn_273

>  <mol_properties>  (17) 
{"2": {"label": "*4", "atom_type": "Cdd"}, "3": {"label": "*3", "atom_type": "Cd"}, "9": {"label": "*2", "atom_type": "H0"}, "11": {"label": "*1", "atom_type": "Cs"}, "12": {"label": "*0", "atom_type": "O2s"}}

>  <type>  (17) 
unop_13

>  <geom_source>  (17) 
AutoTST

$$$$

     RDKit          3D

 27 25  0  0  0  0  0  0  0  0999 V2000
   -0.1703   -2.3039   -3.2038 C   0  0  0  0  0  0  0  0  0  0  0  0
   -0.1703   -2.3039   -1.7466 C   0  0  0  0  0  0  0  0  0  0  0  0
   -0.1703   -2.3039   -0.5481 C   0  0  0  0  0  0  0  0  0  0  0  0
   -0.1703   -2.3039    0.9092 C   0  0  0  0  0  0  0  0  0  0  0  0
    0.6202   -2.9477   -3.5931 H   0  0  0  0  0  0  0  0  0  0  0  0
   -0.0081   -1.2974   -3.5932 H   0  0  0  0  0  0  0  0  0  0  0  0
   -1.1231   -2.6667   -3.5931 H   0  0  0  0  0  0  0  0  0  0  0  0
    0.5836   -2.9902    1.2985 H   0  0  0  0  0  0  0  0  0  0  0  0
   -1.1416   -2.6137    1.2985 H   0  0  0  0  0  0  0  0  0  0  0  0
    0.0905   -1.1086    1.3765 H   0  0  0  0  0  0  0  0  0  0  0  0
   -0.6076    0.0030    3.0099 C   0  0  0  0  0  0  0  0  0  0  0  0
    0.3535    0.0963    1.8475 C   0  0  0  0  0  3  0  0  0  0  0  0
   -0.1092    1.0730    0.9501 O   0  0  0  0  0  0  0  0  0  0  0  0
    0.7219    1.2365   -0.1713 C   0  0  0  0  0  0  0  0  0  0  0  0
    0.1628    2.3328   -1.0550 C   0  0  0  0  0  0  0  0  0  0  0  0
    0.1382    3.6954   -0.3754 C   0  0  0  0  0  0  0  0  0  0  0  0
   -1.6036   -0.2721    2.6611 H   0  0  0  0  0  0  0  0  0  0  0  0
   -0.2683   -0.7515    3.7214 H   0  0  0  0  0  0  0  0  0  0  0  0
   -0.6764    0.9609    3.5267 H   0  0  0  0  0  0  0  0  0  0  0  0
    1.3609    0.3601    2.2018 H   0  0  0  0  0  0  0  0  0  0  0  0
    1.7422    1.4960    0.1530 H   0  0  0  0  0  0  0  0  0  0  0  0
    0.7871    0.2918   -0.7309 H   0  0  0  0  0  0  0  0  0  0  0  0
    0.7712    2.3760   -1.9627 H   0  0  0  0  0  0  0  0  0  0  0  0
   -0.8467    2.0490   -1.3635 H   0  0  0  0  0  0  0  0  0  0  0  0
    1.1452    4.0030   -0.0826 H   0  0  0  0  0  0  0  0  0  0  0  0
   -0.2646    4.4594   -1.0419 H   0  0  0  0  0  0  0  0  0  0  0  0
   -0.4780    3.6675    0.5232 H   0  0  0  0  0  0  0  0  0  0  0  0
  1  2  1  0
  1  5  1  0
  1  6  1  0
  1  7  1  0
  2  3  3  0
  3  4  1  0
  4  8  1  0
  4  9  1  0
  4 10  1  0
 11 12  1  0
 11 17  1  0
 11 18  1  0
 11 19  1  0
 12 13  1  0
 12 20  1  0
 13 14  1  0
 14 15  1  0
 14 21  1  0
 14 22  1  0
 15 16  1  0
 15 23  1  0
 15 24  1  0
 16 25  1  0
 16 26  1  0
 16 27  1  0
M  RAD  1  12   2
M  END
>  <reaction>  (18) 
rmg_rxn_273

>  <mol_properties>  (18) 
{"2": {"label": "*4", "atom_type": "Cdd"}, "3": {"label": "*3", "atom_type": "Cd"}, "9": {"label": "*2", "atom_type": "H0"}, "11": {"label": "*1", "atom_type": "Cs"}, "12": {"label": "*0", "atom_type": "O2s"}}

>  <type>  (18) 
unop_14

>  <geom_source>  (18) 
gaussian_log

$$$$
