
     RDKit          3D

 14 14  0  0  0  0  0  0  0  0999 V2000
   -1.1778    0.2241    0.1818 C   0  0  0  0  0  0  0  0  0  0  0  0
   -0.5633   -1.1636    0.0678 C   0  0  0  0  0  0  0  0  0  0  0  0
    0.6943   -1.1996    0.7146 O   0  0  0  0  0  0  0  0  0  0  0  0
    1.5547   -0.2288    0.2011 C   0  0  0  0  0  0  0  0  0  0  0  0
    1.0729    1.0696    0.3698 O   0  0  0  0  0  0  0  0  0  0  0  0
   -0.1607    1.2493   -0.2989 C   0  0  0  0  0  0  0  0  0  0  0  0
   -2.0927    0.2866   -0.4117 H   0  0  0  0  0  0  0  0  0  0  0  0
   -1.4303    0.4248    1.2248 H   0  0  0  0  0  0  0  0  0  0  0  0
   -1.1822   -1.9235    0.5431 H   0  0  0  0  0  0  0  0  0  0  0  0
   -0.4389   -1.4347   -0.9919 H   0  0  0  0  0  0  0  0  0  0  0  0
    1.7250   -0.4207   -0.8742 H   0  0  0  0  0  0  0  0  0  0  0  0
    2.4896   -0.3010    0.7524 H   0  0  0  0  0  0  0  0  0  0  0  0
   -0.0080    1.1481   -1.3844 H   0  0  0  0  0  0  0  0  0  0  0  0
   -0.4826    2.2695   -0.0942 H   0  0  0  0  0  0  0  0  0  0  0  0
  1  2  1  0
  1  6  1  0
  1  7  1  0
  1  8  1  0
  2  3  1  0
  2  9  1  0
  2 10  1  0
  3  4  1  0
  4  5  1  0
  4 11  1  0
  4 12  1  0
  5  6  1  0
  6 13  1  0
  6 14  1  0
M  END
>  <reaction>  (1) 
rmg_rxn_237

>  <mol_properties>  (1) 
{"3": {"label": "donator", "atom_type": "Cs"}, "10": {"label": "d_hydrogen", "atom_type": "H0"}}

>  <type>  (1) 
r1h

$$$$

     RDKit          3D

 17 16  0  0  0  0  0  0  0  0999 V2000
    2.3128   -0.1525    1.1777 C   0  0  0  0  0  3  0  0  0  0  0  0
    1.7469    0.7266    0.1254 C   0  0  0  0  0  0  0  0  0  0  0  0
    1.6374    2.1830    0.5408 C   0  0  0  0  0  0  0  0  0  0  0  0
    2.9245    2.6874    0.7877 O   0  0  0  0  0  0  0  0  0  0  0  0
    2.9227    4.0197    1.2361 C   0  0  0  0  0  0  0  0  0  0  0  0
    4.3491    4.4603    1.4693 C   0  0  0  0  0  0  0  0  0  0  0  0
    2.1393   -1.2196    1.1557 H   0  0  0  0  0  0  0  0  0  0  0  0
    3.0313    0.2400    1.8838 H   0  0  0  0  0  0  0  0  0  0  0  0
    0.7555    0.3746   -0.1764 H   0  0  0  0  0  0  0  0  0  0  0  0
    2.3678    0.6841   -0.7826 H   0  0  0  0  0  0  0  0  0  0  0  0
    1.0170    2.2718    1.4449 H   0  0  0  0  0  0  0  0  0  0  0  0
    1.1499    2.7653   -0.2546 H   0  0  0  0  0  0  0  0  0  0  0  0
    2.4379    4.6655    0.4891 H   0  0  0  0  0  0  0  0  0  0  0  0
    2.3377    4.1015    2.1638 H   0  0  0  0  0  0  0  0  0  0  0  0
    4.9261    4.3920    0.5465 H   0  0  0  0  0  0  0  0  0  0  0  0
    4.3728    5.4939    1.8180 H   0  0  0  0  0  0  0  0  0  0  0  0
    4.8260    3.8299    2.2206 H   0  0  0  0  0  0  0  0  0  0  0  0
  1  2  1  0
  1  7  1  0
  1  8  1  0
  2  3  1  0
  2  9  1  0
  2 10  1  0
  3  4  1  0
  3 11  1  0
  3 12  1  0
  4  5  1  0
  5  6  1  0
  5 13  1  0
  5 14  1  0
  6 15  1  0
  6 16  1  0
  6 17  1  0
M  RAD  1   1   2
M  END
>  <reaction>  (2) 
rmg_rxn_237

>  <mol_properties>  (2) 
{"0": {"label": "acceptor", "atom_type": "Cs"}}

>  <type>  (2) 
r2

$$$$

     RDKit          3D

 18 17  0  0  0  0  0  0  0  0999 V2000
    2.2026   -0.7213   -0.2612 C   0  0  0  0  0  0  0  0  0  0  0  0
    1.5384    0.2638    0.6915 C   0  0  0  0  0  0  0  0  0  0  0  0
    2.2584    1.5946    0.7694 C   0  0  0  0  0  0  0  0  0  0  0  0
    2.2212    2.2185   -0.4893 O   0  0  0  0  0  0  0  0  0  0  0  0
    2.8988    3.4488   -0.5204 C   0  0  0  0  0  0  0  0  0  0  0  0
    2.7981    4.0296   -1.9118 C   0  0  0  0  0  0  0  0  0  0  0  0
    3.2294   -0.9309    0.0486 H   0  0  0  0  0  0  0  0  0  0  0  0
    2.2338   -0.3181   -1.2734 H   0  0  0  0  0  0  0  0  0  0  0  0
    1.6610   -1.6680   -0.2875 H   0  0  0  0  0  0  0  0  0  0  0  0
    1.4990   -0.1566    1.7002 H   0  0  0  0  0  0  0  0  0  0  0  0
    0.5055    0.4455    0.3835 H   0  0  0  0  0  0  0  0  0  0  0  0
    3.3038    1.4410    1.0808 H   0  0  0  0  0  0  0  0  0  0  0  0
    1.7844    2.2410    1.5226 H   0  0  0  0  0  0  0  0  0  0  0  0
    2.4596    4.1376    0.2164 H   0  0  0  0  0  0  0  0  0  0  0  0
    3.9524    3.3035   -0.2397 H   0  0  0  0  0  0  0  0  0  0  0  0
    1.7543    4.1869   -2.1856 H   0  0  0  0  0  0  0  0  0  0  0  0
    3.2472    3.3545   -2.6411 H   0  0  0  0  0  0  0  0  0  0  0  0
    3.3178    4.9878   -1.9600 H   0  0  0  0  0  0  0  0  0  0  0  0
  1  2  1  0
  1  7  1  0
  1  8  1  0
  1  9  1  0
  2  3  1  0
  2 10  1  0
  2 11  1  0
  3  4  1  0
  3 12  1  0
  3 13  1  0
  4  5  1  0
  5  6  1  0
  5 14  1  0
  5 15  1  0
  6 16  1  0
  6 17  1  0
  6 18  1  0
M  END
>  <reaction>  (3) 
rmg_rxn_237

>  <mol_properties>  (3) 
{"0": {"label": "a_hydrogen", "atom_type": "H0"}, "1": {"label": "acceptor", "atom_type": "Cs"}}

>  <type>  (3) 
r2h

$$$$

     RDKit          3D

 31 30  0  0  0  0  0  0  0  0999 V2000
    0.3238   -2.3181   -0.1928 C   0  0  0  0  0  0  0  0  0  0  0  0
   -0.5055   -1.7156    0.9285 C   0  0  0  0  0  0  0  0  0  0  0  0
   -1.8569   -1.5832    0.5122 O   0  0  0  0  0  0  0  0  0  0  0  0
   -1.9765   -0.8395   -0.6440 C   0  0  0  0  0  0  0  0  0  0  0  0
   -1.2503   -1.3036   -1.7209 O   0  0  0  0  0  0  0  0  0  0  0  0
    0.1337   -1.4658   -1.4366 C   0  0  0  0  0  0  0  0  0  0  0  0
    1.3787   -2.3428    0.0867 H   0  0  0  0  0  0  0  0  0  0  0  0
   -0.0063   -3.3412   -0.3854 H   0  0  0  0  0  0  0  0  0  0  0  0
   -0.5184   -2.3478    1.8153 H   0  0  0  0  0  0  0  0  0  0  0  0
   -0.1094   -0.7282    1.1963 H   0  0  0  0  0  0  0  0  0  0  0  0
   -1.6335    0.3998   -0.3604 H   0  0  0  0  0  0  0  0  0  0  0  0
   -3.0268   -0.7967   -0.9259 H   0  0  0  0  0  0  0  0  0  0  0  0
    0.5959   -0.4848   -1.2829 H   0  0  0  0  0  0  0  0  0  0  0  0
    0.5699   -1.9306   -2.3199 H   0  0  0  0  0  0  0  0  0  0  0  0
   -1.4688    1.7682   -0.0494 C   0  0  0  0  0  3  0  0  0  0  0  0
   -0.3596    2.3594   -0.8873 C   0  0  0  0  0  0  0  0  0  0  0  0
    0.9617    2.4881   -0.1582 C   0  0  0  0  0  0  0  0  0  0  0  0
    1.4293    1.2168    0.2254 O   0  0  0  0  0  0  0  0  0  0  0  0
    2.6376    1.2668    0.9429 C   0  0  0  0  0  0  0  0  0  0  0  0
    3.0763   -0.1412    1.2709 C   0  0  0  0  0  0  0  0  0  0  0  0
   -1.2923    1.7664    1.0247 H   0  0  0  0  0  0  0  0  0  0  0  0
   -2.4652    2.1300   -0.2942 H   0  0  0  0  0  0  0  0  0  0  0  0
   -0.6336    3.3639   -1.2277 H   0  0  0  0  0  0  0  0  0  0  0  0
   -0.2076    1.7694   -1.7983 H   0  0  0  0  0  0  0  0  0  0  0  0
    0.8344    3.1194    0.7342 H   0  0  0  0  0  0  0  0  0  0  0  0
    1.7055    2.9763   -0.8041 H   0  0  0  0  0  0  0  0  0  0  0  0
    3.4060    1.7775    0.3449 H   0  0  0  0  0  0  0  0  0  0  0  0
    2.5007    1.8519    1.8635 H   0  0  0  0  0  0  0  0  0  0  0  0
    3.2288   -0.7164    0.3566 H   0  0  0  0  0  0  0  0  0  0  0  0
    4.0140   -0.1247    1.8280 H   0  0  0  0  0  0  0  0  0  0  0  0
    2.3244   -0.6474    1.8778 H   0  0  0  0  0  0  0  0  0  0  0  0
  1  2  1  0
  1  6  1  0
  1  7  1  0
  1  8  1  0
  2  3  1  0
  2  9  1  0
  2 10  1  0
  3  4  1  0
  4  5  1  0
  4 11  1  0
  4 12  1  0
  5  6  1  0
  6 13  1  0
  6 14  1  0
 15 16  1  0
 15 21  1  0
 15 22  1  0
 16 17  1  0
 16 23  1  0
 16 24  1  0
 17 18  1  0
 17 25  1  0
 17 26  1  0
 18 19  1  0
 19 20  1  0
 19 27  1  0
 19 28  1  0
 20 29  1  0
 20 30  1  0
 20 31  1  0
M  RAD  1  15   2
M  END
>  <reaction>  (4) 
rmg_rxn_237

>  <mol_properties>  (4) 
{"2": {"label": "*0", "atom_type": "O2s"}, "3": {"label": "*1", "atom_type": "Cs"}, "10": {"label": "*2", "atom_type": "H0"}, "14": {"label": "*3", "atom_type": "Cs"}, "15": {"label": "*4", "atom_type": "Cs"}}

>  <type>  (4) 
ts

$$$$

     RDKit          3D

 31 30  0  0  0  0  0  0  0  0999 V2000
   -1.4204   -2.9210   -1.5181 C   0  0  0  0  0  0  0  0  0  0  0  0
   -1.4204   -2.9210    0.0039 C   0  0  0  0  0  0  0  0  0  0  0  0
   -2.4687   -2.1084    0.4960 O   0  0  0  0  0  0  0  0  0  0  0  0
   -2.3778   -0.8088   -0.0033 C   0  0  0  0  0  3  0  0  0  0  0  0
   -2.4687   -0.7526   -1.3943 O   0  0  0  0  0  0  0  0  0  0  0  0
   -1.4204   -1.4794   -2.0062 C   0  0  0  0  0  0  0  0  0  0  0  0
   -0.5464   -3.4535   -1.9000 H   0  0  0  0  0  0  0  0  0  0  0  0
   -2.3170   -3.4272   -1.8811 H   0  0  0  0  0  0  0  0  0  0  0  0
   -1.5793   -3.9185    0.4113 H   0  0  0  0  0  0  0  0  0  0  0  0
   -0.4568   -2.5450    0.3806 H   0  0  0  0  0  0  0  0  0  0  0  0
   -1.2314   -0.2664    0.3858 H   0  0  0  0  0  0  0  0  0  0  0  0
   -3.2188   -0.2483    0.3987 H   0  0  0  0  0  0  0  0  0  0  0  0
   -0.4568   -1.0020   -1.7709 H   0  0  0  0  0  0  0  0  0  0  0  0
   -1.5793   -1.4134   -3.0817 H   0  0  0  0  0  0  0  0  0  0  0  0
   -0.1000    0.2690    0.7697 C   0  0  0  0  0  0  0  0  0  0  0  0
    0.7538    0.6640   -0.4279 C   0  0  0  0  0  0  0  0  0  0  0  0
    1.4626    1.9900   -0.2425 C   0  0  0  0  0  0  0  0  0  0  0  0
    2.3616    1.8911    0.8332 O   0  0  0  0  0  0  0  0  0  0  0  0
    3.0414    3.0908    1.1020 C   0  0  0  0  0  0  0  0  0  0  0  0
    3.9755    2.8746    2.2700 C   0  0  0  0  0  0  0  0  0  0  0  0
    0.5120    0.1784    1.6671 H   0  0  0  0  0  0  0  0  0  0  0  0
   -0.8708    1.0193    0.9631 H   0  0  0  0  0  0  0  0  0  0  0  0
    0.1327    0.7373   -1.3250 H   0  0  0  0  0  0  0  0  0  0  0  0
    1.5041   -0.1063   -0.6242 H   0  0  0  0  0  0  0  0  0  0  0  0
    0.7281    2.7869   -0.0450 H   0  0  0  0  0  0  0  0  0  0  0  0
    2.0041    2.2645   -1.1597 H   0  0  0  0  0  0  0  0  0  0  0  0
    3.6051    3.4099    0.2128 H   0  0  0  0  0  0  0  0  0  0  0  0
    2.3186    3.8880    1.3302 H   0  0  0  0  0  0  0  0  0  0  0  0
    4.7012    2.0939    2.0395 H   0  0  0  0  0  0  0  0  0  0  0  0
    4.5160    3.7948    2.4972 H   0  0  0  0  0  0  0  0  0  0  0  0
    3.4159    2.5733    3.1563 H   0  0  0  0  0  0  0  0  0  0  0  0
  1  2  1  0
  1  6  1  0
  1  7  1  0
  1  8  1  0
  2  3  1  0
  2  9  1  0
  2 10  1  0
  3  4  1  0
  4  5  1  0
  4 12  1  0
  5  6  1  0
  6 13  1  0
  6 14  1  0
 11 15  1  0
 15 16  1  0
 15 21  1  0
 15 22  1  0
 16 17  1  0
 16 23  1  0
 16 24  1  0
 17 18  1  0
 17 25  1  0
 17 26  1  0
 18 19  1  0
 19 20  1  0
 19 27  1  0
 19 28  1  0
 20 29  1  0
 20 30  1  0
 20 31  1  0
M  RAD  1   4   2
M  END
>  <reaction>  (5) 
rmg_rxn_237

>  <mol_properties>  (5) 
{"2": {"label": "*0", "atom_type": "O2s"}, "3": {"label": "*1", "atom_type": "Cs"}, "10": {"label": "*2", "atom_type": "H0"}, "14": {"label": "*3", "atom_type": "Cs"}, "15": {"label": "*4", "atom_type": "Cs"}}

>  <type>  (5) 
unop_1

>  <geom_source>  (5) 
Heuristics

$$$$

     RDKit          3D

 31 30  0  0  0  0  0  0  0  0999 V2000
   -1.5861   -2.2916   -2.0036 C   0  0  0  0  0  0  0  0  0  0  0  0
   -1.5861   -2.2916   -0.4816 C   0  0  0  0  0  0  0  0  0  0  0  0
   -2.6344   -1.4790    0.0105 O   0  0  0  0  0  0  0  0  0  0  0  0
   -2.5435   -0.1795   -0.4888 C   0  0  0  0  0  3  0  0  0  0  0  0
   -2.6344   -0.1233   -1.8798 O   0  0  0  0  0  0  0  0  0  0  0  0
   -1.5861   -0.8500   -2.4917 C   0  0  0  0  0  0  0  0  0  0  0  0
   -0.7121   -2.8241   -2.3855 H   0  0  0  0  0  0  0  0  0  0  0  0
   -2.4827   -2.7978   -2.3666 H   0  0  0  0  0  0  0  0  0  0  0  0
   -1.7451   -3.2892   -0.0742 H   0  0  0  0  0  0  0  0  0  0  0  0
   -0.6225   -1.9157   -0.1048 H   0  0  0  0  0  0  0  0  0  0  0  0
   -1.3971    0.3630   -0.0997 H   0  0  0  0  0  0  0  0  0  0  0  0
   -3.3846    0.3810   -0.0868 H   0  0  0  0  0  0  0  0  0  0  0  0
   -0.6225   -0.3726   -2.2564 H   0  0  0  0  0  0  0  0  0  0  0  0
   -1.7451   -0.7841   -3.5672 H   0  0  0  0  0  0  0  0  0  0  0  0
   -0.2658    0.8984    0.2842 C   0  0  0  0  0  0  0  0  0  0  0  0
    0.8135   -0.1628    0.4528 C   0  0  0  0  0  0  0  0  0  0  0  0
    2.2161    0.4098    0.4581 C   0  0  0  0  0  0  0  0  0  0  0  0
    2.3657    1.2651    1.5631 O   0  0  0  0  0  0  0  0  0  0  0  0
    3.6309    1.8722    1.6292 C   0  0  0  0  0  0  0  0  0  0  0  0
    3.6835    2.7660    2.8465 C   0  0  0  0  0  0  0  0  0  0  0  0
   -0.2231    1.6247    1.0958 H   0  0  0  0  0  0  0  0  0  0  0  0
   -0.1374    1.4386   -0.6571 H   0  0  0  0  0  0  0  0  0  0  0  0
    0.7520   -0.8941   -0.3579 H   0  0  0  0  0  0  0  0  0  0  0  0
    0.6586   -0.7106    1.3859 H   0  0  0  0  0  0  0  0  0  0  0  0
    2.4005    0.9665   -0.4744 H   0  0  0  0  0  0  0  0  0  0  0  0
    2.9585   -0.4002    0.5075 H   0  0  0  0  0  0  0  0  0  0  0  0
    4.4143    1.1017    1.6839 H   0  0  0  0  0  0  0  0  0  0  0  0
    3.8145    2.4560    0.7152 H   0  0  0  0  0  0  0  0  0  0  0  0
    3.5153    2.1856    3.7543 H   0  0  0  0  0  0  0  0  0  0  0  0
    4.6593    3.2489    2.9191 H   0  0  0  0  0  0  0  0  0  0  0  0
    2.9173    3.5397    2.7859 H   0  0  0  0  0  0  0  0  0  0  0  0
  1  2  1  0
  1  6  1  0
  1  7  1  0
  1  8  1  0
  2  3  1  0
  2  9  1  0
  2 10  1  0
  3  4  1  0
  4  5  1  0
  4 12  1  0
  5  6  1  0
  6 13  1  0
  6 14  1  0
 11 15  1  0
 15 16  1  0
 15 21  1  0
 15 22  1  0
 16 17  1  0
 16 23  1  0
 16 24  1  0
 17 18  1  0
 17 25  1  0
 17 26  1  0
 18 19  1  0
 19 20  1  0
 19 27  1  0
 19 28  1  0
 20 29  1  0
 20 30  1  0
 20 31  1  0
M  RAD  1   4   2
M  END
>  <reaction>  (6) 
rmg_rxn_237

>  <mol_properties>  (6) 
{"2": {"label": "*0", "atom_type": "O2s"}, "3": {"label": "*1", "atom_type": "Cs"}, "10": {"label": "*2", "atom_type": "H0"}, "14": {"label": "*3", "atom_type": "Cs"}, "15": {"label": "*4", "atom_type": "Cs"}}

>  <type>  (6) 
unop_2

>  <geom_source>  (6) 
Heuristics

$$$$

     RDKit          3D

 31 30  0  0  0  0  0  0  0  0999 V2000
   -1.4264   -2.9083   -1.6240 C   0  0  0  0  0  0  0  0  0  0  0  0
   -1.4264   -2.9083   -0.1020 C   0  0  0  0  0  0  0  0  0  0  0  0
   -2.4747   -2.0957    0.3901 O   0  0  0  0  0  0  0  0  0  0  0  0
   -2.3838   -0.7961   -0.1092 C   0  0  0  0  0  3  0  0  0  0  0  0
   -2.4747   -0.7399   -1.5003 O   0  0  0  0  0  0  0  0  0  0  0  0
   -1.4264   -1.4666   -2.1121 C   0  0  0  0  0  0  0  0  0  0  0  0
   -0.5524   -3.4407   -2.0059 H   0  0  0  0  0  0  0  0  0  0  0  0
   -2.3230   -3.4144   -1.9870 H   0  0  0  0  0  0  0  0  0  0  0  0
   -1.5854   -3.9058    0.3053 H   0  0  0  0  0  0  0  0  0  0  0  0
   -0.4628   -2.5323    0.2747 H   0  0  0  0  0  0  0  0  0  0  0  0
   -1.2374   -0.2536    0.2799 H   0  0  0  0  0  0  0  0  0  0  0  0
   -3.2249   -0.2356    0.2928 H   0  0  0  0  0  0  0  0  0  0  0  0
   -0.4628   -0.9892   -1.8768 H   0  0  0  0  0  0  0  0  0  0  0  0
   -1.5854   -1.4007   -3.1876 H   0  0  0  0  0  0  0  0  0  0  0  0
   -0.1061    0.2817    0.6638 C   0  0  0  0  0  0  0  0  0  0  0  0
    0.3940    1.2965   -0.3557 C   0  0  0  0  0  0  0  0  0  0  0  0
    1.2221    2.4039    0.2632 C   0  0  0  0  0  0  0  0  0  0  0  0
    2.3825    1.8542    0.8343 O   0  0  0  0  0  0  0  0  0  0  0  0
    3.1975    2.8085    1.4657 C   0  0  0  0  0  0  0  0  0  0  0  0
    4.4094    2.1145    2.0428 C   0  0  0  0  0  0  0  0  0  0  0  0
    0.7297   -0.1956    1.1754 H   0  0  0  0  0  0  0  0  0  0  0  0
   -0.7311    0.7642    1.4194 H   0  0  0  0  0  0  0  0  0  0  0  0
   -0.4516    1.7580   -0.8732 H   0  0  0  0  0  0  0  0  0  0  0  0
    0.9972    0.7966   -1.1180 H   0  0  0  0  0  0  0  0  0  0  0  0
    0.6363    2.9275    1.0353 H   0  0  0  0  0  0  0  0  0  0  0  0
    1.4956    3.1474   -0.4998 H   0  0  0  0  0  0  0  0  0  0  0  0
    3.5036    3.5783    0.7417 H   0  0  0  0  0  0  0  0  0  0  0  0
    2.6317    3.3180    2.2596 H   0  0  0  0  0  0  0  0  0  0  0  0
    4.9785    1.6207    1.2544 H   0  0  0  0  0  0  0  0  0  0  0  0
    5.0588    2.8376    2.5387 H   0  0  0  0  0  0  0  0  0  0  0  0
    4.1076    1.3620    2.7721 H   0  0  0  0  0  0  0  0  0  0  0  0
  1  2  1  0
  1  6  1  0
  1  7  1  0
  1  8  1  0
  2  3  1  0
  2  9  1  0
  2 10  1  0
  3  4  1  0
  4  5  1  0
  4 12  1  0
  5  6  1  0
  6 13  1  0
  6 14  1  0
 11 15  1  0
 15 16  1  0
 15 21  1  0
 15 22  1  0
 16 17  1  0
 16 23  1  0
 16 24  1  0
 17 18  1  0
 17 25  1  0
 17 26  1  0
 18 19  1  0
 19 20  1  0
 19 27  1  0
 19 28  1  0
 20 29  1  0
 20 30  1  0
 20 31  1  0
M  RAD  1   4   2
M  END
>  <reaction>  (7) 
rmg_rxn_237

>  <mol_properties>  (7) 
{"2": {"label": "*0", "atom_type": "O2s"}, "3": {"label": "*1", "atom_type": "Cs"}, "10": {"label": "*2", "atom_type": "H0"}, "14": {"label": "*3", "atom_type": "Cs"}, "15": {"label": "*4", "atom_type": "Cs"}}

>  <type>  (7) 
unop_3

>  <geom_source>  (7) 
Heuristics

$$$$

     RDKit          3D

 31 30  0  0  0  0  0  0  0  0999 V2000
   -0.6000   -3.1709   -2.2793 C   0  0  0  0  0  0  0  0  0  0  0  0
   -0.6000   -3.1709   -0.7572 C   0  0  0  0  0  0  0  0  0  0  0  0
   -1.6483   -2.3582   -0.2651 O   0  0  0  0  0  0  0  0  0  0  0  0
   -1.5574   -1.0587   -0.7644 C   0  0  0  0  0  3  0  0  0  0  0  0
   -1.6483   -1.0025   -2.1555 O   0  0  0  0  0  0  0  0  0  0  0  0
   -0.6000   -1.7292   -2.7674 C   0  0  0  0  0  0  0  0  0  0  0  0
    0.2740   -3.7033   -2.6611 H   0  0  0  0  0  0  0  0  0  0  0  0
   -1.4966   -3.6770   -2.6423 H   0  0  0  0  0  0  0  0  0  0  0  0
   -0.7590   -4.1684   -0.3499 H   0  0  0  0  0  0  0  0  0  0  0  0
    0.3636   -2.7949   -0.3805 H   0  0  0  0  0  0  0  0  0  0  0  0
   -0.4110   -0.5162   -0.3754 H   0  0  0  0  0  0  0  0  0  0  0  0
   -2.3984   -0.4982   -0.3625 H   0  0  0  0  0  0  0  0  0  0  0  0
    0.3636   -1.2518   -2.5321 H   0  0  0  0  0  0  0  0  0  0  0  0
   -0.7590   -1.6633   -3.8428 H   0  0  0  0  0  0  0  0  0  0  0  0
    0.7204    0.0191    0.0086 C   0  0  0  0  0  0  0  0  0  0  0  0
    0.8139    0.0724    1.5277 C   0  0  0  0  0  0  0  0  0  0  0  0
    1.6142    1.2550    2.0339 C   0  0  0  0  0  0  0  0  0  0  0  0
    0.9687    2.4471    1.6633 O   0  0  0  0  0  0  0  0  0  0  0  0
    1.6618    3.6021    2.0622 C   0  0  0  0  0  0  0  0  0  0  0  0
    0.8857    4.8192    1.6153 C   0  0  0  0  0  0  0  0  0  0  0  0
    0.2398    0.9168   -0.3804 H   0  0  0  0  0  0  0  0  0  0  0  0
    1.7141   -0.0513   -0.4407 H   0  0  0  0  0  0  0  0  0  0  0  0
    1.2836   -0.8389    1.9079 H   0  0  0  0  0  0  0  0  0  0  0  0
   -0.1873    0.1185    1.9639 H   0  0  0  0  0  0  0  0  0  0  0  0
    2.6310    1.2322    1.6108 H   0  0  0  0  0  0  0  0  0  0  0  0
    1.7143    1.2072    3.1282 H   0  0  0  0  0  0  0  0  0  0  0  0
    1.7869    3.6058    3.1552 H   0  0  0  0  0  0  0  0  0  0  0  0
    2.6696    3.6053    1.6212 H   0  0  0  0  0  0  0  0  0  0  0  0
   -0.1087    4.8240    2.0630 H   0  0  0  0  0  0  0  0  0  0  0  0
    1.4058    5.7303    1.9153 H   0  0  0  0  0  0  0  0  0  0  0  0
    0.7747    4.8245    0.5304 H   0  0  0  0  0  0  0  0  0  0  0  0
  1  2  1  0
  1  6  1  0
  1  7  1  0
  1  8  1  0
  2  3  1  0
  2  9  1  0
  2 10  1  0
  3  4  1  0
  4  5  1  0
  4 12  1  0
  5  6  1  0
  6 13  1  0
  6 14  1  0
 11 15  1  0
 15 16  1  0
 15 21  1  0
 15 22  1  0
 16 17  1  0
 16 23  1  0
 16 24  1  0
 17 18  1  0
 17 25  1  0
 17 26  1  0
 18 19  1  0
 19 20  1  0
 19 27  1  0
 19 28  1  0
 20 29  1  0
 20 30  1  0
 20 31  1  0
M  RAD  1   4   2
M  END
>  <reaction>  (8) 
rmg_rxn_237

>  <mol_properties>  (8) 
{"2": {"label": "*0", "atom_type": "O2s"}, "3": {"label": "*1", "atom_type": "Cs"}, "10": {"label": "*2", "atom_type": "H0"}, "14": {"label": "*3", "atom_type": "Cs"}, "15": {"label": "*4", "atom_type": "Cs"}}

>  <type>  (8) 
unop_4

>  <geom_source>  (8) 
Heuristics

$$$$

     RDKit          3D

 31 30  0  0  0  0  0  0  0  0999 V2000
   -1.4795   -2.8063   -1.3329 C   0  0  0  0  0  0  0  0  0  0  0  0
   -1.4795   -2.8063    0.1891 C   0  0  0  0  0  0  0  0  0  0  0  0
   -2.5278   -1.9937    0.6812 O   0  0  0  0  0  0  0  0  0  0  0  0
   -2.4369   -0.6941    0.1819 C   0  0  0  0  0  3  0  0  0  0  0  0
   -2.5278   -0.6379   -1.2091 O   0  0  0  0  0  0  0  0  0  0  0  0
   -1.4795   -1.3646   -1.8210 C   0  0  0  0  0  0  0  0  0  0  0  0
   -0.6055   -3.3387   -1.7148 H   0  0  0  0  0  0  0  0  0  0  0  0
   -2.3761   -3.3124   -1.6959 H   0  0  0  0  0  0  0  0  0  0  0  0
   -1.6385   -3.8038    0.5965 H   0  0  0  0  0  0  0  0  0  0  0  0
   -0.5159   -2.4303    0.5658 H   0  0  0  0  0  0  0  0  0  0  0  0
   -1.2905   -0.1516    0.5710 H   0  0  0  0  0  0  0  0  0  0  0  0
   -3.2780   -0.1336    0.5839 H   0  0  0  0  0  0  0  0  0  0  0  0
   -0.5159   -0.8872   -1.5857 H   0  0  0  0  0  0  0  0  0  0  0  0
   -1.6385   -1.2987   -2.8965 H   0  0  0  0  0  0  0  0  0  0  0  0
   -0.1591    0.3837    0.9549 C   0  0  0  0  0  0  0  0  0  0  0  0
   -0.0198    1.8064    0.4297 C   0  0  0  0  0  0  0  0  0  0  0  0
    1.2724    2.4739    0.8537 C   0  0  0  0  0  0  0  0  0  0  0  0
    2.3603    1.7720    0.3070 O   0  0  0  0  0  0  0  0  0  0  0  0
    3.6072    2.3018    0.6785 C   0  0  0  0  0  0  0  0  0  0  0  0
    4.7009    1.4767    0.0408 C   0  0  0  0  0  0  0  0  0  0  0  0
    0.6553   -0.2432    0.5921 H   0  0  0  0  0  0  0  0  0  0  0  0
   -0.1344    0.3675    2.0474 H   0  0  0  0  0  0  0  0  0  0  0  0
   -0.8495    2.4225    0.7874 H   0  0  0  0  0  0  0  0  0  0  0  0
   -0.0704    1.8100   -0.6622 H   0  0  0  0  0  0  0  0  0  0  0  0
    1.3485    2.4863    1.9526 H   0  0  0  0  0  0  0  0  0  0  0  0
    1.2912    3.5195    0.5129 H   0  0  0  0  0  0  0  0  0  0  0  0
    3.6800    3.3513    0.3564 H   0  0  0  0  0  0  0  0  0  0  0  0
    3.7072    2.2919    1.7739 H   0  0  0  0  0  0  0  0  0  0  0  0
    4.6107    1.4973   -1.0459 H   0  0  0  0  0  0  0  0  0  0  0  0
    5.6806    1.8708    0.3153 H   0  0  0  0  0  0  0  0  0  0  0  0
    4.6391    0.4394    0.3716 H   0  0  0  0  0  0  0  0  0  0  0  0
  1  2  1  0
  1  6  1  0
  1  7  1  0
  1  8  1  0
  2  3  1  0
  2  9  1  0
  2 10  1  0
  3  4  1  0
  4  5  1  0
  4 12  1  0
  5  6  1  0
  6 13  1  0
  6 14  1  0
 11 15  1  0
 15 16  1  0
 15 21  1  0
 15 22  1  0
 16 17  1  0
 16 23  1  0
 16 24  1  0
 17 18  1  0
 17 25  1  0
 17 26  1  0
 18 19  1  0
 19 20  1  0
 19 27  1  0
 19 28  1  0
 20 29  1  0
 20 30  1  0
 20 31  1  0
M  RAD  1   4   2
M  END
>  <reaction>  (9) 
rmg_rxn_237

>  <mol_properties>  (9) 
{"2": {"label": "*0", "atom_type": "O2s"}, "3": {"label": "*1", "atom_type": "Cs"}, "10": {"label": "*2", "atom_type": "H0"}, "14": {"label": "*3", "atom_type": "Cs"}, "15": {"label": "*4", "atom_type": "Cs"}}

>  <type>  (9) 
unop_5

>  <geom_source>  (9) 
Heuristics

$$$$

     RDKit          3D

 31 30  0  0  0  0  0  0  0  0999 V2000
   -0.5381   -3.3961   -1.7787 C   0  0  0  0  0  0  0  0  0  0  0  0
   -0.5381   -3.3961   -0.2566 C   0  0  0  0  0  0  0  0  0  0  0  0
   -1.5864   -2.5835    0.2355 O   0  0  0  0  0  0  0  0  0  0  0  0
   -1.4955   -1.2839   -0.2638 C   0  0  0  0  0  3  0  0  0  0  0  0
   -1.5864   -1.2277   -1.6549 O   0  0  0  0  0  0  0  0  0  0  0  0
   -0.5381   -1.9544   -2.2668 C   0  0  0  0  0  0  0  0  0  0  0  0
    0.3359   -3.9285   -2.1605 H   0  0  0  0  0  0  0  0  0  0  0  0
   -1.4347   -3.9022   -2.1417 H   0  0  0  0  0  0  0  0  0  0  0  0
   -0.6970   -4.3936    0.1507 H   0  0  0  0  0  0  0  0  0  0  0  0
    0.4255   -3.0201    0.1201 H   0  0  0  0  0  0  0  0  0  0  0  0
   -0.3491   -0.7414    0.1252 H   0  0  0  0  0  0  0  0  0  0  0  0
   -2.3365   -0.7234    0.1381 H   0  0  0  0  0  0  0  0  0  0  0  0
    0.4255   -1.4770   -2.0315 H   0  0  0  0  0  0  0  0  0  0  0  0
   -0.6970   -1.8885   -3.3422 H   0  0  0  0  0  0  0  0  0  0  0  0
    0.7823   -0.2061    0.5092 C   0  0  0  0  0  0  0  0  0  0  0  0
    0.6240    0.5128    1.8424 C   0  0  0  0  0  0  0  0  0  0  0  0
    1.4019    1.8107    1.9152 C   0  0  0  0  0  0  0  0  0  0  0  0
    0.9045    2.7064    0.9533 O   0  0  0  0  0  0  0  0  0  0  0  0
    1.5932    3.9305    0.9244 C   0  0  0  0  0  0  0  0  0  0  0  0
    0.9816    4.8129   -0.1390 C   0  0  0  0  0  0  0  0  0  0  0  0
    0.4315    0.4201   -0.3111 H   0  0  0  0  0  0  0  0  0  0  0  0
    1.8306   -0.4506    0.3204 H   0  0  0  0  0  0  0  0  0  0  0  0
    0.9647   -0.1297    2.6591 H   0  0  0  0  0  0  0  0  0  0  0  0
   -0.4310    0.7294    2.0289 H   0  0  0  0  0  0  0  0  0  0  0  0
    2.4716    1.6209    1.7328 H   0  0  0  0  0  0  0  0  0  0  0  0
    1.3147    2.2518    2.9190 H   0  0  0  0  0  0  0  0  0  0  0  0
    1.5340    4.4176    1.9090 H   0  0  0  0  0  0  0  0  0  0  0  0
    2.6586    3.7561    0.7133 H   0  0  0  0  0  0  0  0  0  0  0  0
   -0.0712    4.9977    0.0769 H   0  0  0  0  0  0  0  0  0  0  0  0
    1.5011    5.7716   -0.1795 H   0  0  0  0  0  0  0  0  0  0  0  0
    1.0539    4.3377   -1.1179 H   0  0  0  0  0  0  0  0  0  0  0  0
  1  2  1  0
  1  6  1  0
  1  7  1  0
  1  8  1  0
  2  3  1  0
  2  9  1  0
  2 10  1  0
  3  4  1  0
  4  5  1  0
  4 12  1  0
  5  6  1  0
  6 13  1  0
  6 14  1  0
 11 15  1  0
 15 16  1  0
 15 21  1  0
 15 22  1  0
 16 17  1  0
 16 23  1  0
 16 24  1  0
 17 18  1  0
 17 25  1  0
 17 26  1  0
 18 19  1  0
 19 20  1  0
 19 27  1  0
 19 28  1  0
 20 29  1  0
 20 30  1  0
 20 31  1  0
M  RAD  1   4   2
M  END
>  <reaction>  (10) 
rmg_rxn_237

>  <mol_properties>  (10) 
{"2": {"label": "*0", "atom_type": "O2s"}, "3": {"label": "*1", "atom_type": "Cs"}, "10": {"label": "*2", "atom_type": "H0"}, "14": {"label": "*3", "atom_type": "Cs"}, "15": {"label": "*4", "atom_type": "Cs"}}

>  <type>  (10) 
unop_6

>  <geom_source>  (10) 
Heuristics

$$$$

     RDKit          3D

 31 30  0  0  0  0  0  0  0  0999 V2000
   -0.7285   -3.3519   -1.2572 C   0  0  0  0  0  0  0  0  0  0  0  0
   -0.7285   -3.3519    0.2649 C   0  0  0  0  0  0  0  0  0  0  0  0
   -1.7768   -2.5393    0.7570 O   0  0  0  0  0  0  0  0  0  0  0  0
   -1.6858   -1.2398    0.2577 C   0  0  0  0  0  3  0  0  0  0  0  0
   -1.7768   -1.1836   -1.1334 O   0  0  0  0  0  0  0  0  0  0  0  0
   -0.7285   -1.9103   -1.7453 C   0  0  0  0  0  0  0  0  0  0  0  0
    0.1455   -3.8844   -1.6390 H   0  0  0  0  0  0  0  0  0  0  0  0
   -1.6250   -3.8581   -1.6202 H   0  0  0  0  0  0  0  0  0  0  0  0
   -0.8874   -4.3494    0.6722 H   0  0  0  0  0  0  0  0  0  0  0  0
    0.2352   -2.9760    0.6416 H   0  0  0  0  0  0  0  0  0  0  0  0
   -0.5394   -0.6973    0.6467 H   0  0  0  0  0  0  0  0  0  0  0  0
   -2.5269   -0.6793    0.6596 H   0  0  0  0  0  0  0  0  0  0  0  0
    0.2352   -1.4329   -1.5100 H   0  0  0  0  0  0  0  0  0  0  0  0
   -0.8874   -1.8444   -2.8207 H   0  0  0  0  0  0  0  0  0  0  0  0
    0.5919   -0.1619    1.0307 C   0  0  0  0  0  0  0  0  0  0  0  0
    0.3511    1.0899    1.8638 C   0  0  0  0  0  0  0  0  0  0  0  0
    1.3355    2.2022    1.5657 C   0  0  0  0  0  0  0  0  0  0  0  0
    1.1826    2.6140    0.2308 O   0  0  0  0  0  0  0  0  0  0  0  0
    2.0838    3.6235   -0.1465 C   0  0  0  0  0  0  0  0  0  0  0  0
    1.8348    3.9889   -1.5915 C   0  0  0  0  0  0  0  0  0  0  0  0
    0.5067    0.0600   -0.0331 H   0  0  0  0  0  0  0  0  0  0  0  0
    1.5923   -0.5634    1.2109 H   0  0  0  0  0  0  0  0  0  0  0  0
    0.4241    0.8529    2.9289 H   0  0  0  0  0  0  0  0  0  0  0  0
   -0.6606    1.4663    1.6917 H   0  0  0  0  0  0  0  0  0  0  0  0
    2.3657    1.8502    1.7336 H   0  0  0  0  0  0  0  0  0  0  0  0
    1.1663    3.0527    2.2423 H   0  0  0  0  0  0  0  0  0  0  0  0
    1.9536    4.5037    0.5005 H   0  0  0  0  0  0  0  0  0  0  0  0
    3.1176    3.2727   -0.0112 H   0  0  0  0  0  0  0  0  0  0  0  0
    0.8144    4.3500   -1.7240 H   0  0  0  0  0  0  0  0  0  0  0  0
    2.5243    4.7734   -1.9073 H   0  0  0  0  0  0  0  0  0  0  0  0
    1.9790    3.1206   -2.2355 H   0  0  0  0  0  0  0  0  0  0  0  0
  1  2  1  0
  1  6  1  0
  1  7  1  0
  1  8  1  0
  2  3  1  0
  2  9  1  0
  2 10  1  0
  3  4  1  0
  4  5  1  0
  4 12  1  0
  5  6  1  0
  6 13  1  0
  6 14  1  0
 11 15  1  0
 15 16  1  0
 15 21  1  0
 15 22  1  0
 16 17  1  0
 16 23  1  0
 16 24  1  0
 17 18  1  0
 17 25  1  0
 17 26  1  0
 18 19  1  0
 19 20  1  0
 19 27  1  0
 19 28  1  0
 20 29  1  0
 20 30  1  0
 20 31  1  0
M  RAD  1   4   2
M  END
>  <reaction>  (11) 
rmg_rxn_237

>  <mol_properties>  (11) 
{"2": {"label": "*0", "atom_type": "O2s"}, "3": {"label": "*1", "atom_type": "Cs"}, "10": {"label": "*2", "atom_type": "H0"}, "14": {"label": "*3", "atom_type": "Cs"}, "15": {"label": "*4", "atom_type": "Cs"}}

>  <type>  (11) 
unop_7

>  <geom_source>  (11) 
Heuristics

$$$$

     RDKit          3D

 31 30  0  0  0  0  0  0  0  0999 V2000
   -1.5430   -2.7192   -1.4448 C   0  0  0  0  0  0  0  0  0  0  0  0
   -1.5430   -2.7192    0.0772 C   0  0  0  0  0  0  0  0  0  0  0  0
   -2.5913   -1.9066    0.5693 O   0  0  0  0  0  0  0  0  0  0  0  0
   -2.5003   -0.6070    0.0700 C   0  0  0  0  0  3  0  0  0  0  0  0
   -2.5913   -0.5508   -1.3210 O   0  0  0  0  0  0  0  0  0  0  0  0
   -1.5430   -1.2775   -1.9329 C   0  0  0  0  0  0  0  0  0  0  0  0
   -0.6690   -3.2516   -1.8267 H   0  0  0  0  0  0  0  0  0  0  0  0
   -2.4395   -3.2253   -1.8078 H   0  0  0  0  0  0  0  0  0  0  0  0
   -1.7019   -3.7167    0.4846 H   0  0  0  0  0  0  0  0  0  0  0  0
   -0.5793   -2.3432    0.4539 H   0  0  0  0  0  0  0  0  0  0  0  0
   -1.3539   -0.0645    0.4591 H   0  0  0  0  0  0  0  0  0  0  0  0
   -3.3414   -0.0465    0.4720 H   0  0  0  0  0  0  0  0  0  0  0  0
   -0.5793   -0.8001   -1.6976 H   0  0  0  0  0  0  0  0  0  0  0  0
   -1.7019   -1.2116   -3.0084 H   0  0  0  0  0  0  0  0  0  0  0  0
   -0.2226    0.4708    0.8430 C   0  0  0  0  0  0  0  0  0  0  0  0
    0.8831    0.2003   -0.1687 C   0  0  0  0  0  0  0  0  0  0  0  0
    1.7998    1.3876   -0.3808 C   0  0  0  0  0  0  0  0  0  0  0  0
    2.4655    1.6826    0.8212 O   0  0  0  0  0  0  0  0  0  0  0  0
    3.3149    2.7976    0.7274 C   0  0  0  0  0  0  0  0  0  0  0  0
    3.9757    3.0254    2.0672 C   0  0  0  0  0  0  0  0  0  0  0  0
    0.1980    0.7242    1.8161 H   0  0  0  0  0  0  0  0  0  0  0  0
   -0.8500    1.3056    0.5206 H   0  0  0  0  0  0  0  0  0  0  0  0
    0.4502   -0.0674   -1.1366 H   0  0  0  0  0  0  0  0  0  0  0  0
    1.4872   -0.6514    0.1544 H   0  0  0  0  0  0  0  0  0  0  0  0
    1.2160    2.2618   -0.7101 H   0  0  0  0  0  0  0  0  0  0  0  0
    2.5324    1.1673   -1.1711 H   0  0  0  0  0  0  0  0  0  0  0  0
    4.0732    2.6271   -0.0512 H   0  0  0  0  0  0  0  0  0  0  0  0
    2.7373    3.6845    0.4278 H   0  0  0  0  0  0  0  0  0  0  0  0
    4.5598    2.1519    2.3587 H   0  0  0  0  0  0  0  0  0  0  0  0
    4.6421    3.8881    2.0183 H   0  0  0  0  0  0  0  0  0  0  0  0
    3.2254    3.2100    2.8368 H   0  0  0  0  0  0  0  0  0  0  0  0
  1  2  1  0
  1  6  1  0
  1  7  1  0
  1  8  1  0
  2  3  1  0
  2  9  1  0
  2 10  1  0
  3  4  1  0
  4  5  1  0
  4 12  1  0
  5  6  1  0
  6 13  1  0
  6 14  1  0
 11 15  1  0
 15 16  1  0
 15 21  1  0
 15 22  1  0
 16 17  1  0
 16 23  1  0
 16 24  1  0
 17 18  1  0
 17 25  1  0
 17 26  1  0
 18 19  1  0
 19 20  1  0
 19 27  1  0
 19 28  1  0
 20 29  1  0
 20 30  1  0
 20 31  1  0
M  RAD  1   4   2
M  END
>  <reaction>  (12) 
rmg_rxn_237

>  <mol_properties>  (12) 
{"2": {"label": "*0", "atom_type": "O2s"}, "3": {"label": "*1", "atom_type": "Cs"}, "10": {"label": "*2", "atom_type": "H0"}, "14": {"label": "*3", "atom_type": "Cs"}, "15": {"label": "*4", "atom_type": "Cs"}}

>  <type>  (12) 
unop_8

>  <geom_source>  (12) 
Heuristics

$$$$

     RDKit          3D

 31 30  0  0  0  0  0  0  0  0999 V2000
   -0.8955   -2.7786   -2.5358 C   0  0  0  0  0  0  0  0  0  0  0  0
   -0.8955   -2.7786   -1.0138 C   0  0  0  0  0  0  0  0  0  0  0  0
   -1.9438   -1.9660   -0.5217 O   0  0  0  0  0  0  0  0  0  0  0  0
   -1.8529   -0.6664   -1.0210 C   0  0  0  0  0  3  0  0  0  0  0  0
   -1.9438   -0.6102   -2.4121 O   0  0  0  0  0  0  0  0  0  0  0  0
   -0.8955   -1.3369   -3.0239 C   0  0  0  0  0  0  0  0  0  0  0  0
   -0.0215   -3.3110   -2.9177 H   0  0  0  0  0  0  0  0  0  0  0  0
   -1.7921   -3.2847   -2.8988 H   0  0  0  0  0  0  0  0  0  0  0  0
   -1.0544   -3.7761   -0.6065 H   0  0  0  0  0  0  0  0  0  0  0  0
    0.0681   -2.4026   -0.6371 H   0  0  0  0  0  0  0  0  0  0  0  0
   -0.7065   -0.1239   -0.6320 H   0  0  0  0  0  0  0  0  0  0  0  0
   -2.6939   -0.1059   -0.6190 H   0  0  0  0  0  0  0  0  0  0  0  0
    0.0681   -0.8595   -2.7886 H   0  0  0  0  0  0  0  0  0  0  0  0
   -1.0544   -1.2710   -4.0994 H   0  0  0  0  0  0  0  0  0  0  0  0
    0.4249    0.4114   -0.2480 C   0  0  0  0  0  0  0  0  0  0  0  0
    0.8721   -0.1550    1.0930 C   0  0  0  0  0  0  0  0  0  0  0  0
    1.9119    0.7026    1.7848 C   0  0  0  0  0  0  0  0  0  0  0  0
    1.3562    1.9584    2.0832 O   0  0  0  0  0  0  0  0  0  0  0  0
    2.2644    2.8367    2.6974 C   0  0  0  0  0  0  0  0  0  0  0  0
    1.5683    4.1495    2.9722 C   0  0  0  0  0  0  0  0  0  0  0  0
   -0.0136    1.4013   -0.1221 H   0  0  0  0  0  0  0  0  0  0  0  0
    1.2709    0.5036   -0.9337 H   0  0  0  0  0  0  0  0  0  0  0  0
    1.2965   -1.1537    0.9570 H   0  0  0  0  0  0  0  0  0  0  0  0
    0.0128   -0.2642    1.7597 H   0  0  0  0  0  0  0  0  0  0  0  0
    2.7923    0.8272    1.1346 H   0  0  0  0  0  0  0  0  0  0  0  0
    2.2547    0.2148    2.7092 H   0  0  0  0  0  0  0  0  0  0  0  0
    2.6375    2.3961    3.6339 H   0  0  0  0  0  0  0  0  0  0  0  0
    3.1352    2.9927    2.0437 H   0  0  0  0  0  0  0  0  0  0  0  0
    0.7129    3.9978    3.6314 H   0  0  0  0  0  0  0  0  0  0  0  0
    2.2555    4.8490    3.4507 H   0  0  0  0  0  0  0  0  0  0  0  0
    1.2117    4.5948    2.0427 H   0  0  0  0  0  0  0  0  0  0  0  0
  1  2  1  0
  1  6  1  0
  1  7  1  0
  1  8  1  0
  2  3  1  0
  2  9  1  0
  2 10  1  0
  3  4  1  0
  4  5  1  0
  4 12  1  0
  5  6  1  0
  6 13  1  0
  6 14  1  0
 11 15  1  0
 15 16  1  0
 15 21  1  0
 15 22  1  0
 16 17  1  0
 16 23  1  0
 16 24  1  0
 17 18  1  0
 17 25  1  0
 17 26  1  0
 18 19  1  0
 19 20  1  0
 19 27  1  0
 19 28  1  0
 20 29  1  0
 20 30  1  0
 20 31  1  0
M  RAD  1   4   2
M  END
>  <reaction>  (13) 
rmg_rxn_237

>  <mol_properties>  (13) 
{"2": {"label": "*0", "atom_type": "O2s"}, "3": {"label": "*1", "atom_type": "Cs"}, "10": {"label": "*2", "atom_type": "H0"}, "14": {"label": "*3", "atom_type": "Cs"}, "15": {"label": "*4", "atom_type": "Cs"}}

>  <type>  (13) 
unop_9

>  <geom_source>  (13) 
Heuristics

$$$$

     RDKit          3D

 31 30  0  0  0  0  0  0  0  0999 V2000
   -1.6454   -2.4435   -1.6098 C   0  0  0  0  0  0  0  0  0  0  0  0
   -1.6454   -2.4435   -0.0877 C   0  0  0  0  0  0  0  0  0  0  0  0
   -2.6937   -1.6309    0.4044 O   0  0  0  0  0  0  0  0  0  0  0  0
   -2.6028   -0.3314   -0.0950 C   0  0  0  0  0  3  0  0  0  0  0  0
   -2.6937   -0.2752   -1.4860 O   0  0  0  0  0  0  0  0  0  0  0  0
   -1.6454   -1.0019   -2.0979 C   0  0  0  0  0  0  0  0  0  0  0  0
   -0.7715   -2.9760   -1.9916 H   0  0  0  0  0  0  0  0  0  0  0  0
   -2.5420   -2.9497   -1.9728 H   0  0  0  0  0  0  0  0  0  0  0  0
   -1.8044   -3.4411    0.3196 H   0  0  0  0  0  0  0  0  0  0  0  0
   -0.6818   -2.0676    0.2890 H   0  0  0  0  0  0  0  0  0  0  0  0
   -1.4564    0.2111    0.2941 H   0  0  0  0  0  0  0  0  0  0  0  0
   -3.4439    0.2291    0.3070 H   0  0  0  0  0  0  0  0  0  0  0  0
   -0.6818   -0.5245   -1.8626 H   0  0  0  0  0  0  0  0  0  0  0  0
   -1.8044   -0.9360   -3.1733 H   0  0  0  0  0  0  0  0  0  0  0  0
   -0.3251    0.7465    0.6780 C   0  0  0  0  0  0  0  0  0  0  0  0
    0.8631   -0.0571    0.1664 C   0  0  0  0  0  0  0  0  0  0  0  0
    2.0799    0.7978   -0.1230 C   0  0  0  0  0  0  0  0  0  0  0  0
    2.5250    1.3932    1.0697 O   0  0  0  0  0  0  0  0  0  0  0  0
    3.6343    2.2363    0.8901 C   0  0  0  0  0  0  0  0  0  0  0  0
    4.0277    2.8214    2.2267 C   0  0  0  0  0  0  0  0  0  0  0  0
   -0.0723    1.2619    1.6046 H   0  0  0  0  0  0  0  0  0  0  0  0
   -0.6299    1.4996   -0.0529 H   0  0  0  0  0  0  0  0  0  0  0  0
    0.5940   -0.5816   -0.7547 H   0  0  0  0  0  0  0  0  0  0  0  0
    1.1415   -0.8215    0.8964 H   0  0  0  0  0  0  0  0  0  0  0  0
    1.8278    1.5771   -0.8596 H   0  0  0  0  0  0  0  0  0  0  0  0
    2.8823    0.1840   -0.5580 H   0  0  0  0  0  0  0  0  0  0  0  0
    4.4713    1.6682    0.4578 H   0  0  0  0  0  0  0  0  0  0  0  0
    3.3849    3.0371    0.1783 H   0  0  0  0  0  0  0  0  0  0  0  0
    4.2884    2.0288    2.9289 H   0  0  0  0  0  0  0  0  0  0  0  0
    4.8895    3.4807    2.1119 H   0  0  0  0  0  0  0  0  0  0  0  0
    3.2038    3.3978    2.6489 H   0  0  0  0  0  0  0  0  0  0  0  0
  1  2  1  0
  1  6  1  0
  1  7  1  0
  1  8  1  0
  2  3  1  0
  2  9  1  0
  2 10  1  0
  3  4  1  0
  4  5  1  0
  4 12  1  0
  5  6  1  0
  6 13  1  0
  6 14  1  0
 11 15  1  0
 15 16  1  0
 15 21  1  0
 15 22  1  0
 16 17  1  0
 16 23  1  0
 16 24  1  0
 17 18  1  0
 17 25  1  0
 17 26  1  0
 18 19  1  0
 19 20  1  0
 19 27  1  0
 19 28  1  0
 20 29  1  0
 20 30  1  0
 20 31  1  0
M  RAD  1   4   2
M  END
>  <reaction>  (14) 
rmg_rxn_237

>  <mol_properties>  (14) 
{"2": {"label": "*0", "atom_type": "O2s"}, "3": {"label": "*1", "atom_type": "Cs"}, "10": {"label": "*2", "atom_type": "H0"}, "14": {"label": "*3", "atom_type": "Cs"}, "15": {"label": "*4", "atom_type": "Cs"}}

>  <type>  (14) 
unop_10

>  <geom_source>  (14) 
Heuristics

$$$$

     RDKit          3D

 31 30  0  0  0  0  0  0  0  0999 V2000
   -1.1310   -3.0562   -1.0086 C   0  0  0  0  0  0  0  0  0  0  0  0
   -1.1310   -3.0562    0.5135 C   0  0  0  0  0  0  0  0  0  0  0  0
   -2.1793   -2.2436    1.0056 O   0  0  0  0  0  0  0  0  0  0  0  0
   -2.0884   -0.9440    0.5063 C   0  0  0  0  0  3  0  0  0  0  0  0
   -2.1793   -0.8878   -0.8848 O   0  0  0  0  0  0  0  0  0  0  0  0
   -1.1310   -1.6145   -1.4967 C   0  0  0  0  0  0  0  0  0  0  0  0
   -0.2570   -3.5886   -1.3904 H   0  0  0  0  0  0  0  0  0  0  0  0
   -2.0276   -3.5623   -1.3716 H   0  0  0  0  0  0  0  0  0  0  0  0
   -1.2899   -4.0537    0.9208 H   0  0  0  0  0  0  0  0  0  0  0  0
   -0.1674   -2.6802    0.8902 H   0  0  0  0  0  0  0  0  0  0  0  0
   -0.9419   -0.4015    0.8953 H   0  0  0  0  0  0  0  0  0  0  0  0
   -2.9294   -0.3835    0.9082 H   0  0  0  0  0  0  0  0  0  0  0  0
   -0.1674   -1.1371   -1.2614 H   0  0  0  0  0  0  0  0  0  0  0  0
   -1.2899   -1.5486   -2.5721 H   0  0  0  0  0  0  0  0  0  0  0  0
    0.1894    0.1338    1.2793 C   0  0  0  0  0  0  0  0  0  0  0  0
    0.0575    1.6433    1.4322 C   0  0  0  0  0  0  0  0  0  0  0  0
    1.3587    2.3819    1.1943 C   0  0  0  0  0  0  0  0  0  0  0  0
    1.7717    2.1817   -0.1340 O   0  0  0  0  0  0  0  0  0  0  0  0
    2.9942    2.8043   -0.4361 C   0  0  0  0  0  0  0  0  0  0  0  0
    3.3432    2.5262   -1.8799 C   0  0  0  0  0  0  0  0  0  0  0  0
    0.5214   -0.1248    0.2738 H   0  0  0  0  0  0  0  0  0  0  0  0
    0.9189   -0.2673    1.9873 H   0  0  0  0  0  0  0  0  0  0  0  0
   -0.2901    1.8905    2.4391 H   0  0  0  0  0  0  0  0  0  0  0  0
   -0.6920    2.0270    0.7352 H   0  0  0  0  0  0  0  0  0  0  0  0
    2.1332    2.0158    1.8868 H   0  0  0  0  0  0  0  0  0  0  0  0
    1.2281    3.4566    1.3886 H   0  0  0  0  0  0  0  0  0  0  0  0
    2.9169    3.8877   -0.2611 H   0  0  0  0  0  0  0  0  0  0  0  0
    3.7829    2.4245    0.2301 H   0  0  0  0  0  0  0  0  0  0  0  0
    2.5685    2.9147   -2.5419 H   0  0  0  0  0  0  0  0  0  0  0  0
    4.2908    3.0015   -2.1381 H   0  0  0  0  0  0  0  0  0  0  0  0
    3.4354    1.4531   -2.0508 H   0  0  0  0  0  0  0  0  0  0  0  0
  1  2  1  0
  1  6  1  0
  1  7  1  0
  1  8  1  0
  2  3  1  0
  2  9  1  0
  2 10  1  0
  3  4  1  0
  4  5  1  0
  4 12  1  0
  5  6  1  0
  6 13  1  0
  6 14  1  0
 11 15  1  0
 15 16  1  0
 15 21  1  0
 15 22  1  0
 16 17  1  0
 16 23  1  0
 16 24  1  0
 17 18  1  0
 17 25  1  0
 17 26  1  0
 18 19  1  0
 19 20  1  0
 19 27  1  0
 19 28  1  0
 20 29  1  0
 20 30  1  0
 20 31  1  0
M  RAD  1   4   2
M  END
>  <reaction>  (15) 
rmg_rxn_237

>  <mol_properties>  (15) 
{"2": {"label": "*0", "atom_type": "O2s"}, "3": {"label": "*1", "atom_type": "Cs"}, "10": {"label": "*2", "atom_type": "H0"}, "14": {"label": "*3", "atom_type": "Cs"}, "15": {"label": "*4", "atom_type": "Cs"}}

>  <type>  (15) 
unop_11

>  <geom_source>  (15) 
Heuristics

$$$$

     RDKit          3D

 31 30  0  0  0  0  0  0  0  0999 V2000
   -1.2981   -2.4156   -2.4122 C   0  0  0  0  0  0  0  0  0  0  0  0
   -1.2981   -2.4156   -0.8901 C   0  0  0  0  0  0  0  0  0  0  0  0
   -2.3464   -1.6030   -0.3980 O   0  0  0  0  0  0  0  0  0  0  0  0
   -2.2555   -0.3035   -0.8974 C   0  0  0  0  0  3  0  0  0  0  0  0
   -2.3464   -0.2473   -2.2884 O   0  0  0  0  0  0  0  0  0  0  0  0
   -1.2981   -0.9740   -2.9003 C   0  0  0  0  0  0  0  0  0  0  0  0
   -0.4241   -2.9481   -2.7940 H   0  0  0  0  0  0  0  0  0  0  0  0
   -2.1947   -2.9218   -2.7752 H   0  0  0  0  0  0  0  0  0  0  0  0
   -1.4570   -3.4132   -0.4828 H   0  0  0  0  0  0  0  0  0  0  0  0
   -0.3345   -2.0397   -0.5134 H   0  0  0  0  0  0  0  0  0  0  0  0
   -1.1091    0.2390   -0.5083 H   0  0  0  0  0  0  0  0  0  0  0  0
   -3.0965    0.2570   -0.4954 H   0  0  0  0  0  0  0  0  0  0  0  0
   -0.3345   -0.4966   -2.6650 H   0  0  0  0  0  0  0  0  0  0  0  0
   -1.4570   -0.9081   -3.9757 H   0  0  0  0  0  0  0  0  0  0  0  0
    0.0223    0.7743   -0.1243 C   0  0  0  0  0  0  0  0  0  0  0  0
    0.8303   -0.2001    0.7223 C   0  0  0  0  0  0  0  0  0  0  0  0
    2.1548    0.3707    1.1864 C   0  0  0  0  0  0  0  0  0  0  0  0
    1.9185    1.4755    2.0221 O   0  0  0  0  0  0  0  0  0  0  0  0
    3.0967    2.0933    2.4736 C   0  0  0  0  0  0  0  0  0  0  0  0
    2.7301    3.2624    3.3581 C   0  0  0  0  0  0  0  0  0  0  0  0
   -0.2028    1.6802    0.4385 H   0  0  0  0  0  0  0  0  0  0  0  0
    0.5768    1.0647   -1.0202 H   0  0  0  0  0  0  0  0  0  0  0  0
    1.0375   -1.1107    0.1534 H   0  0  0  0  0  0  0  0  0  0  0  0
    0.2545   -0.5001    1.6016 H   0  0  0  0  0  0  0  0  0  0  0  0
    2.7581    0.6798    0.3181 H   0  0  0  0  0  0  0  0  0  0  0  0
    2.7303   -0.3937    1.7288 H   0  0  0  0  0  0  0  0  0  0  0  0
    3.7110    1.3690    3.0289 H   0  0  0  0  0  0  0  0  0  0  0  0
    3.6943    2.4333    1.6149 H   0  0  0  0  0  0  0  0  0  0  0  0
    2.1493    2.9244    4.2170 H   0  0  0  0  0  0  0  0  0  0  0  0
    3.6313    3.7585    3.7219 H   0  0  0  0  0  0  0  0  0  0  0  0
    2.1341    3.9886    2.8041 H   0  0  0  0  0  0  0  0  0  0  0  0
  1  2  1  0
  1  6  1  0
  1  7  1  0
  1  8  1  0
  2  3  1  0
  2  9  1  0
  2 10  1  0
  3  4  1  0
  4  5  1  0
  4 12  1  0
  5  6  1  0
  6 13  1  0
  6 14  1  0
 11 15  1  0
 15 16  1  0
 15 21  1  0
 15 22  1  0
 16 17  1  0
 16 23  1  0
 16 24  1  0
 17 18  1  0
 17 25  1  0
 17 26  1  0
 18 19  1  0
 19 20  1  0
 19 27  1  0
 19 28  1  0
 20 29  1  0
 20 30  1  0
 20 31  1  0
M  RAD  1   4   2
M  END
>  <reaction>  (16) 
rmg_rxn_237

>  <mol_properties>  (16) 
{"2": {"label": "*0", "atom_type": "O2s"}, "3": {"label": "*1", "atom_type": "Cs"}, "10": {"label": "*2", "atom_type": "H0"}, "14": {"label": "*3", "atom_type": "Cs"}, "15": {"label": "*4", "atom_type": "Cs"}}

>  <type>  (16) 
unop_12

>  <geom_source>  (16) 
Heuristics

$$$$

     RDKit          3D

 31 30  0  0  0  0  0  0  0  0999 V2000
   -1.9794    0.3403   -0.7884 O   0  0  0  0  0  0  0  0  0  0  0  0
    2.0557    1.5208    0.3032 O   0  0  0  0  0  0  0  0  0  0  0  0
    1.6408   -0.8347    0.5164 O   0  0  0  0  0  0  0  0  0  0  0  0
    3.7109   -0.0652   -0.4376 C   0  0  0  0  0  0  0  0  0  0  0  0
   -1.7932   -1.7756    0.3934 C   0  0  0  0  0  0  0  0  0  0  0  0
   -2.3134   -1.0349   -0.8440 C   0  0  0  0  0  0  0  0  0  0  0  0
    3.3880    1.1006    0.4996 C   0  0  0  0  0  0  0  0  0  0  0  0
    2.4476   -0.9053   -0.6373 C   0  0  0  0  0  0  0  0  0  0  0  0
   -3.0514    1.0908   -0.2570 C   0  0  0  0  0  0  0  0  0  0  0  0
   -0.2746   -1.6812    0.5165 C   0  0  0  0  0  0  0  0  0  0  0  0
   -2.6058    2.5324   -0.0681 C   0  0  0  0  0  0  0  0  0  0  0  0
    1.1461    0.4897    0.6775 C   0  0  0  0  0  3  0  0  0  0  0  0
   -2.2609   -1.3582    1.3100 H   0  0  0  0  0  0  0  0  0  0  0  0
   -2.0816   -2.8464    0.3197 H   0  0  0  0  0  0  0  0  0  0  0  0
    4.0602    0.3173   -1.4213 H   0  0  0  0  0  0  0  0  0  0  0  0
    4.5192   -0.6842    0.0091 H   0  0  0  0  0  0  0  0  0  0  0  0
   -1.8349   -1.4701   -1.7472 H   0  0  0  0  0  0  0  0  0  0  0  0
   -3.4079   -1.2213   -0.9592 H   0  0  0  0  0  0  0  0  0  0  0  0
   -3.9155    1.0798   -0.9590 H   0  0  0  0  0  0  0  0  0  0  0  0
   -3.3723    0.6934    0.7326 H   0  0  0  0  0  0  0  0  0  0  0  0
    3.5509    0.8059    1.5622 H   0  0  0  0  0  0  0  0  0  0  0  0
    4.0716    1.9483    0.2825 H   0  0  0  0  0  0  0  0  0  0  0  0
    1.8825   -0.5586   -1.5338 H   0  0  0  0  0  0  0  0  0  0  0  0
    2.7328   -1.9635   -0.8161 H   0  0  0  0  0  0  0  0  0  0  0  0
    0.0626   -2.2619    1.4008 H   0  0  0  0  0  0  0  0  0  0  0  0
    0.2141   -2.0983   -0.3896 H   0  0  0  0  0  0  0  0  0  0  0  0
    0.0806   -0.4748    0.6685 H   0  0  0  0  0  0  0  0  0  0  0  0
   -2.2972    2.9660   -1.0430 H   0  0  0  0  0  0  0  0  0  0  0  0
   -1.7491    2.5752    0.6376 H   0  0  0  0  0  0  0  0  0  0  0  0
   -3.4432    3.1336    0.3448 H   0  0  0  0  0  0  0  0  0  0  0  0
    0.8169    0.6402    1.7271 H   0  0  0  0  0  0  0  0  0  0  0  0
  1  9  1  0
  1  6  1  0
  2  7  1  0
  2 12  1  0
  3  8  1  0
  3 12  1  0
  4  7  1  0
  4  8  1  0
  4 15  1  0
  4 16  1  0
  5 10  1  0
  5  6  1  0
  5 13  1  0
  5 14  1  0
  6 17  1  0
  6 18  1  0
  7 21  1  0
  7 22  1  0
  8 23  1  0
  8 24  1  0
  9 11  1  0
  9 19  1  0
  9 20  1  0
 10 25  1  0
 10 26  1  0
 10 27  1  0
 11 28  1  0
 11 29  1  0
 11 30  1  0
 12 31  1  0
M  RAD  1  12   2
M  END
>  <reaction>  (17) 
rmg_rxn_237

>  <mol_properties>  (17) 
{"2": {"label": "*0", "atom_type": "O2s"}, "3": {"label": "*1", "atom_type": "Cs"}, "10": {"label": "*2", "atom_type": "H0"}, "14": {"label": "*3", "atom_type": "Cs"}, "15": {"label": "*4", "atom_type": "Cs"}}

>  <type>  (17) 
unop_13

>  <geom_source>  (17) 
AutoTST

$$$$

     RDKit          3D

 31 30  0  0  0  0  0  0  0  0999 V2000
   -1.5861   -2.2916   -2.0036 C   0  0  0  0  0  0  0  0  0  0  0  0
   -1.5861   -2.2916   -0.4816 C   0  0  0  0  0  0  0  0  0  0  0  0
   -2.6344   -1.4790    0.0105 O   0  0  0  0  0  0  0  0  0  0  0  0
   -2.5435   -0.1795   -0.4888 C   0  0  0  0  0  3  0  0  0  0  0  0
   -2.6344   -0.1233   -1.8798 O   0  0  0  0  0  0  0  0  0  0  0  0
   -1.5861   -0.8500   -2.4917 C   0  0  0  0  0  0  0  0  0  0  0  0
   -0.7121   -2.8241   -2.3855 H   0  0  0  0  0  0  0  0  0  0  0  0
   -2.4827   -2.7978   -2.3666 H   0  0  0  0  0  0  0  0  0  0  0  0
   -1.7451   -3.2891   -0.0742 H   0  0  0  0  0  0  0  0  0  0  0  0
   -0.6225   -1.9157   -0.1048 H   0  0  0  0  0  0  0  0  0  0  0  0
   -1.3971    0.3630   -0.0997 H   0  0  0  0  0  0  0  0  0  0  0  0
   -3.3846    0.3810   -0.0868 H   0  0  0  0  0  0  0  0  0  0  0  0
   -0.6225   -0.3726   -2.2564 H   0  0  0  0  0  0  0  0  0  0  0  0
   -1.7451   -0.7841   -3.5672 H   0  0  0  0  0  0  0  0  0  0  0  0
   -0.2657    0.8984    0.2842 C   0  0  0  0  0  0  0  0  0  0  0  0
    0.8135   -0.1628    0.4528 C   0  0  0  0  0  0  0  0  0  0  0  0
    2.2161    0.4098    0.4581 C   0  0  0  0  0  0  0  0  0  0  0  0
    2.3657    1.2651    1.5631 O   0  0  0  0  0  0  0  0  0  0  0  0
    3.6309    1.8722    1.6292 C   0  0  0  0  0  0  0  0  0  0  0  0
    3.6835    2.7660    2.8465 C   0  0  0  0  0  0  0  0  0  0  0  0
   -0.2231    1.6247    1.0958 H   0  0  0  0  0  0  0  0  0  0  0  0
   -0.1374    1.4386   -0.6571 H   0  0  0  0  0  0  0  0  0  0  0  0
    0.7520   -0.8941   -0.3579 H   0  0  0  0  0  0  0  0  0  0  0  0
    0.6586   -0.7106    1.3859 H   0  0  0  0  0  0  0  0  0  0  0  0
    2.4005    0.9665   -0.4744 H   0  0  0  0  0  0  0  0  0  0  0  0
    2.9585   -0.4002    0.5075 H   0  0  0  0  0  0  0  0  0  0  0  0
    4.4143    1.1017    1.6839 H   0  0  0  0  0  0  0  0  0  0  0  0
    3.8145    2.4560    0.7152 H   0  0  0  0  0  0  0  0  0  0  0  0
    3.5153    2.1856    3.7543 H   0  0  0  0  0  0  0  0  0  0  0  0
    4.6593    3.2489    2.9191 H   0  0  0  0  0  0  0  0  0  0  0  0
    2.9173    3.5397    2.7859 H   0  0  0  0  0  0  0  0  0  0  0  0
  1  2  1  0
  1  6  1  0
  1  7  1  0
  1  8  1  0
  2  3  1  0
  2  9  1  0
  2 10  1  0
  3  4  1  0
  4  5  1  0
  4 12  1  0
  5  6  1  0
  6 13  1  0
  6 14  1  0
 11 15  1  0
 15 16  1  0
 15 21  1  0
 15 22  1  0
 16 17  1  0
 16 23  1  0
 16 24  1  0
 17 18  1  0
 17 25  1  0
 17 26  1  0
 18 19  1  0
 19 20  1  0
 19 27  1  0
 19 28  1  0
 20 29  1  0
 20 30  1  0
 20 31  1  0
M  RAD  1   4   2
M  END
>  <reaction>  (18) 
rmg_rxn_237

>  <mol_properties>  (18) 
{"2": {"label": "*0", "atom_type": "O2s"}, "3": {"label": "*1", "atom_type": "Cs"}, "10": {"label": "*2", "atom_type": "H0"}, "14": {"label": "*3", "atom_type": "Cs"}, "15": {"label": "*4", "atom_type": "Cs"}}

>  <type>  (18) 
unop_14

>  <geom_source>  (18) 
gaussian_log

$$$$
