
     RDKit          3D

  5  4  0  0  0  0  0  0  0  0999 V2000
   -0.4583    0.0384    0.1517 N   0  0  0  0  0  0  0  0  0  0  0  0
    0.7454   -0.3487    0.5322 N   0  0  0  0  0  0  0  0  0  0  0  0
    0.7566   -1.0388    1.5193 O   0  0  0  0  0  0  0  0  0  0  0  0
   -1.2688   -0.2521    0.6850 H   0  0  0  0  0  0  0  0  0  0  0  0
   -0.5137    0.6154   -0.6670 H   0  0  0  0  0  0  0  0  0  0  0  0
  1  2  1  0
  1  4  1  0
  1  5  1  0
  2  3  2  0
M  END
>  <reaction>  (1) 
rmg_rxn_1478

>  <mol_properties>  (1) 
{"0": {"label": "donator", "atom_type": "N3s"}, "3": {"label": "d_hydrogen", "atom_type": "H0"}}

>  <type>  (1) 
r1h

$$$$

     RDKit          3D

 17 16  0  0  0  0  0  0  0  0999 V2000
    2.3128   -0.1525    1.1777 C   0  0  0  0  0  3  0  0  0  0  0  0
    1.7469    0.7266    0.1254 C   0  0  0  0  0  0  0  0  0  0  0  0
    1.6374    2.1830    0.5408 C   0  0  0  0  0  0  0  0  0  0  0  0
    2.9245    2.6874    0.7877 O   0  0  0  0  0  0  0  0  0  0  0  0
    2.9227    4.0197    1.2361 C   0  0  0  0  0  0  0  0  0  0  0  0
    4.3491    4.4603    1.4693 C   0  0  0  0  0  0  0  0  0  0  0  0
    2.1393   -1.2196    1.1557 H   0  0  0  0  0  0  0  0  0  0  0  0
    3.0313    0.2400    1.8838 H   0  0  0  0  0  0  0  0  0  0  0  0
    0.7555    0.3746   -0.1764 H   0  0  0  0  0  0  0  0  0  0  0  0
    2.3678    0.6841   -0.7826 H   0  0  0  0  0  0  0  0  0  0  0  0
    1.0170    2.2718    1.4449 H   0  0  0  0  0  0  0  0  0  0  0  0
    1.1499    2.7653   -0.2546 H   0  0  0  0  0  0  0  0  0  0  0  0
    2.4379    4.6655    0.4891 H   0  0  0  0  0  0  0  0  0  0  0  0
    2.3377    4.1015    2.1638 H   0  0  0  0  0  0  0  0  0  0  0  0
    4.9261    4.3920    0.5465 H   0  0  0  0  0  0  0  0  0  0  0  0
    4.3728    5.4939    1.8180 H   0  0  0  0  0  0  0  0  0  0  0  0
    4.8260    3.8299    2.2206 H   0  0  0  0  0  0  0  0  0  0  0  0
  1  2  1  0
  1  7  1  0
  1  8  1  0
  2  3  1  0
  2  9  1  0
  2 10  1  0
  3  4  1  0
  3 11  1  0
  3 12  1  0
  4  5  1  0
  5  6  1  0
  5 13  1  0
  5 14  1  0
  6 15  1  0
  6 16  1  0
  6 17  1  0
M  RAD  1   1   2
M  END
>  <reaction>  (2) 
rmg_rxn_1478

>  <mol_properties>  (2) 
{"0": {"label": "acceptor", "atom_type": "Cs"}}

>  <type>  (2) 
r2

$$$$

     RDKit          3D

 18 17  0  0  0  0  0  0  0  0999 V2000
    2.2026   -0.7213   -0.2612 C   0  0  0  0  0  0  0  0  0  0  0  0
    1.5384    0.2638    0.6915 C   0  0  0  0  0  0  0  0  0  0  0  0
    2.2584    1.5946    0.7694 C   0  0  0  0  0  0  0  0  0  0  0  0
    2.2212    2.2185   -0.4893 O   0  0  0  0  0  0  0  0  0  0  0  0
    2.8988    3.4488   -0.5204 C   0  0  0  0  0  0  0  0  0  0  0  0
    2.7981    4.0296   -1.9118 C   0  0  0  0  0  0  0  0  0  0  0  0
    3.2294   -0.9309    0.0486 H   0  0  0  0  0  0  0  0  0  0  0  0
    2.2338   -0.3181   -1.2734 H   0  0  0  0  0  0  0  0  0  0  0  0
    1.6610   -1.6680   -0.2875 H   0  0  0  0  0  0  0  0  0  0  0  0
    1.4990   -0.1566    1.7002 H   0  0  0  0  0  0  0  0  0  0  0  0
    0.5055    0.4455    0.3835 H   0  0  0  0  0  0  0  0  0  0  0  0
    3.3038    1.4410    1.0808 H   0  0  0  0  0  0  0  0  0  0  0  0
    1.7844    2.2410    1.5226 H   0  0  0  0  0  0  0  0  0  0  0  0
    2.4596    4.1376    0.2164 H   0  0  0  0  0  0  0  0  0  0  0  0
    3.9524    3.3035   -0.2397 H   0  0  0  0  0  0  0  0  0  0  0  0
    1.7543    4.1869   -2.1856 H   0  0  0  0  0  0  0  0  0  0  0  0
    3.2472    3.3545   -2.6411 H   0  0  0  0  0  0  0  0  0  0  0  0
    3.3178    4.9878   -1.9600 H   0  0  0  0  0  0  0  0  0  0  0  0
  1  2  1  0
  1  7  1  0
  1  8  1  0
  1  9  1  0
  2  3  1  0
  2 10  1  0
  2 11  1  0
  3  4  1  0
  3 12  1  0
  3 13  1  0
  4  5  1  0
  5  6  1  0
  5 14  1  0
  5 15  1  0
  6 16  1  0
  6 17  1  0
  6 18  1  0
M  END
>  <reaction>  (3) 
rmg_rxn_1478

>  <mol_properties>  (3) 
{"0": {"label": "a_hydrogen", "atom_type": "H0"}, "1": {"label": "acceptor", "atom_type": "Cs"}}

>  <type>  (3) 
r2h

$$$$

     RDKit          3D

 22 20  0  0  0  0  0  0  0  0999 V2000
    1.5923    0.2482    0.6555 N   0  0  0  0  0  0  0  0  0  0  0  0
    1.4428    1.0569   -0.3351 N   0  0  0  0  0  0  0  0  0  0  0  0
    1.3539    0.6087   -1.4518 O   0  0  0  0  0  0  0  0  0  0  0  0
    1.1961   -0.9173    0.4422 H   0  0  0  0  0  0  0  0  0  0  0  0
    1.3714    0.6907    1.5401 H   0  0  0  0  0  0  0  0  0  0  0  0
    0.7394   -2.1642    0.1203 C   0  0  0  0  0  3  0  0  0  0  0  0
   -0.7458   -2.2550    0.3338 C   0  0  0  0  0  0  0  0  0  0  0  0
   -1.5515   -1.2230   -0.4345 C   0  0  0  0  0  0  0  0  0  0  0  0
   -1.4280    0.0211    0.2050 O   0  0  0  0  0  0  0  0  0  0  0  0
   -2.0144    1.0779   -0.5202 C   0  0  0  0  0  0  0  0  0  0  0  0
   -1.8269    2.3629    0.2514 C   0  0  0  0  0  0  0  0  0  0  0  0
    1.3475   -2.7678    0.7923 H   0  0  0  0  0  0  0  0  0  0  0  0
    1.0613   -2.2436   -0.9154 H   0  0  0  0  0  0  0  0  0  0  0  0
   -0.9948   -2.1725    1.3945 H   0  0  0  0  0  0  0  0  0  0  0  0
   -1.0788   -3.2508    0.0139 H   0  0  0  0  0  0  0  0  0  0  0  0
   -2.6093   -1.5200   -0.4719 H   0  0  0  0  0  0  0  0  0  0  0  0
   -1.1862   -1.1549   -1.4693 H   0  0  0  0  0  0  0  0  0  0  0  0
   -1.5424    1.1521   -1.5088 H   0  0  0  0  0  0  0  0  0  0  0  0
   -3.0837    0.8728   -0.6753 H   0  0  0  0  0  0  0  0  0  0  0  0
   -0.7656    2.5870    0.3663 H   0  0  0  0  0  0  0  0  0  0  0  0
   -2.2952    3.1922   -0.2808 H   0  0  0  0  0  0  0  0  0  0  0  0
   -2.2801    2.2864    1.2407 H   0  0  0  0  0  0  0  0  0  0  0  0
  1  2  1  0
  1  4  1  0
  1  5  1  0
  2  3  2  0
  6  7  1  0
  6 12  1  0
  6 13  1  0
  7  8  1  0
  7 14  1  0
  7 15  1  0
  8  9  1  0
  8 16  1  0
  8 17  1  0
  9 10  1  0
 10 11  1  0
 10 18  1  0
 10 19  1  0
 11 20  1  0
 11 21  1  0
 11 22  1  0
M  RAD  1   6   2
M  END
>  <reaction>  (4) 
rmg_rxn_1478

>  <mol_properties>  (4) 
{"0": {"label": "*1", "atom_type": "N3s"}, "1": {"label": "*0", "atom_type": "N3d"}, "3": {"label": "*2", "atom_type": "H0"}, "5": {"label": "*3", "atom_type": "Cs"}, "6": {"label": "*4", "atom_type": "Cs"}}

>  <type>  (4) 
ts

$$$$

     RDKit          3D

 22 20  0  0  0  0  0  0  0  0999 V2000
    1.3732   -0.2310    0.3984 N   0  0  0  0  0  0  0  0  0  0  0  0
    2.2968   -0.9994    0.0655 N   0  0  0  0  0  0  0  0  0  0  0  0
    3.4068   -0.6855   -0.3055 O   0  0  0  0  0  0  0  0  0  0  0  0
    1.1494    0.9530    0.1326 H   0  0  0  0  0  0  0  0  0  0  0  0
    0.4755   -0.6723    0.5950 H   0  0  0  0  0  0  0  0  0  0  0  0
    0.7038    2.1410   -0.1562 C   0  0  0  0  0  3  0  0  0  0  0  0
   -0.7170    2.2322    0.3501 C   0  0  0  0  0  0  0  0  0  0  0  0
   -1.6616    1.2346   -0.3174 C   0  0  0  0  0  0  0  0  0  0  0  0
   -1.4228   -0.0647    0.1843 O   0  0  0  0  0  0  0  0  0  0  0  0
   -2.2630   -1.0478   -0.3807 C   0  0  0  0  0  0  0  0  0  0  0  0
   -1.8814   -2.4061    0.1866 C   0  0  0  0  0  0  0  0  0  0  0  0
    0.7736    2.2447   -1.2341 H   0  0  0  0  0  0  0  0  0  0  0  0
    1.3658    2.8385    0.3445 H   0  0  0  0  0  0  0  0  0  0  0  0
   -1.1146    3.2366    0.1648 H   0  0  0  0  0  0  0  0  0  0  0  0
   -0.7408    2.0601    1.4278 H   0  0  0  0  0  0  0  0  0  0  0  0
   -1.5168    1.2437   -1.4090 H   0  0  0  0  0  0  0  0  0  0  0  0
   -2.7074    1.5136   -0.1139 H   0  0  0  0  0  0  0  0  0  0  0  0
   -3.3134   -0.8163   -0.1450 H   0  0  0  0  0  0  0  0  0  0  0  0
   -2.1551   -1.0457   -1.4768 H   0  0  0  0  0  0  0  0  0  0  0  0
   -0.8681   -2.6697   -0.1068 H   0  0  0  0  0  0  0  0  0  0  0  0
   -1.9375   -2.3824    1.2717 H   0  0  0  0  0  0  0  0  0  0  0  0
   -2.5624   -3.1652   -0.1868 H   0  0  0  0  0  0  0  0  0  0  0  0
  1  2  1  0
  1  4  1  0
  1  5  1  0
  2  3  2  0
  6  7  1  0
  6 12  1  0
  6 13  1  0
  7  8  1  0
  7 14  1  0
  7 15  1  0
  8  9  1  0
  8 16  1  0
  8 17  1  0
  9 10  1  0
 10 11  1  0
 10 18  1  0
 10 19  1  0
 11 20  1  0
 11 21  1  0
 11 22  1  0
M  RAD  1   6   2
M  END
>  <reaction>  (5) 
rmg_rxn_1478

>  <mol_properties>  (5) 
{"0": {"label": "*1", "atom_type": "N3s"}, "1": {"label": "*0", "atom_type": "N3d"}, "3": {"label": "*2", "atom_type": "H0"}, "5": {"label": "*3", "atom_type": "Cs"}, "6": {"label": "*4", "atom_type": "Cs"}}

>  <type>  (5) 
unop_1

>  <geom_source>  (5) 
crest_best.xyz

$$$$

     RDKit          3D

 22 20  0  0  0  0  0  0  0  0999 V2000
    0.2613   -2.6729    1.7105 N   0  0  0  0  0  0  0  0  0  0  0  0
    0.2613   -3.8757    1.1657 N   0  0  0  0  0  0  0  0  0  0  0  0
    0.2613   -3.8757   -0.0388 O   0  0  0  0  0  0  0  0  0  0  0  0
    0.2613   -1.6903    0.9952 H   0  0  0  0  0  0  0  0  0  0  0  0
    0.2613   -2.6265    2.7126 H   0  0  0  0  0  0  0  0  0  0  0  0
    0.2613   -0.6318    0.2248 C   0  0  0  0  0  3  0  0  0  0  0  0
   -0.9692    0.2295    0.4766 C   0  0  0  0  0  0  0  0  0  0  0  0
   -0.6698    1.7145    0.4622 C   0  0  0  0  0  0  0  0  0  0  0  0
   -0.2164    2.0858   -0.8152 O   0  0  0  0  0  0  0  0  0  0  0  0
    0.1207    3.4461   -0.9120 C   0  0  0  0  0  0  0  0  0  0  0  0
    0.5937    3.7358   -2.3177 C   0  0  0  0  0  0  0  0  0  0  0  0
    0.6980   -0.4060   -0.7480 H   0  0  0  0  0  0  0  0  0  0  0  0
    1.0250   -0.4521    0.9857 H   0  0  0  0  0  0  0  0  0  0  0  0
   -1.4077   -0.0156    1.4480 H   0  0  0  0  0  0  0  0  0  0  0  0
   -1.7331    0.0220   -0.2771 H   0  0  0  0  0  0  0  0  0  0  0  0
    0.0973    1.9528    1.2160 H   0  0  0  0  0  0  0  0  0  0  0  0
   -1.5720    2.2879    0.7213 H   0  0  0  0  0  0  0  0  0  0  0  0
   -0.7527    4.0676   -0.6646 H   0  0  0  0  0  0  0  0  0  0  0  0
    0.9080    3.6898   -0.1835 H   0  0  0  0  0  0  0  0  0  0  0  0
   -0.1911    3.5075   -3.0396 H   0  0  0  0  0  0  0  0  0  0  0  0
    0.8612    4.7889   -2.4171 H   0  0  0  0  0  0  0  0  0  0  0  0
    1.4691    3.1314   -2.5584 H   0  0  0  0  0  0  0  0  0  0  0  0
  1  2  1  0
  1  4  1  0
  1  5  1  0
  2  3  2  0
  6  7  1  0
  6 12  1  0
  6 13  1  0
  7  8  1  0
  7 14  1  0
  7 15  1  0
  8  9  1  0
  8 16  1  0
  8 17  1  0
  9 10  1  0
 10 11  1  0
 10 18  1  0
 10 19  1  0
 11 20  1  0
 11 21  1  0
 11 22  1  0
M  RAD  1   6   2
M  END
>  <reaction>  (6) 
rmg_rxn_1478

>  <mol_properties>  (6) 
{"0": {"label": "*1", "atom_type": "N3s"}, "1": {"label": "*0", "atom_type": "N3d"}, "3": {"label": "*2", "atom_type": "H0"}, "5": {"label": "*3", "atom_type": "Cs"}, "6": {"label": "*4", "atom_type": "Cs"}}

>  <type>  (6) 
unop_2

>  <geom_source>  (6) 
Heuristics

$$$$

     RDKit          3D

 22 20  0  0  0  0  0  0  0  0999 V2000
    1.3729    0.2297    0.4028 N   0  0  0  0  0  0  0  0  0  0  0  0
    2.2941    0.9992    0.0656 N   0  0  0  0  0  0  0  0  0  0  0  0
    3.4031    0.6866   -0.3092 O   0  0  0  0  0  0  0  0  0  0  0  0
    1.1495   -0.9542    0.1363 H   0  0  0  0  0  0  0  0  0  0  0  0
    0.4750    0.6701    0.6012 H   0  0  0  0  0  0  0  0  0  0  0  0
    0.7043   -2.1422   -0.1532 C   0  0  0  0  0  3  0  0  0  0  0  0
   -0.7181   -2.2328    0.3488 C   0  0  0  0  0  0  0  0  0  0  0  0
   -1.6601   -1.2338   -0.3204 C   0  0  0  0  0  0  0  0  0  0  0  0
   -1.4226    0.0645    0.1846 O   0  0  0  0  0  0  0  0  0  0  0  0
   -2.2593    1.0492   -0.3828 C   0  0  0  0  0  0  0  0  0  0  0  0
   -1.8794    2.4062    0.1888 C   0  0  0  0  0  0  0  0  0  0  0  0
    1.3645   -2.8399    0.3494 H   0  0  0  0  0  0  0  0  0  0  0  0
    0.7772   -2.2459   -1.2309 H   0  0  0  0  0  0  0  0  0  0  0  0
   -0.7450   -2.0618    1.4266 H   0  0  0  0  0  0  0  0  0  0  0  0
   -1.1159   -3.2367    0.1612 H   0  0  0  0  0  0  0  0  0  0  0  0
   -2.7067   -1.5128   -0.1212 H   0  0  0  0  0  0  0  0  0  0  0  0
   -1.5113   -1.2410   -1.4114 H   0  0  0  0  0  0  0  0  0  0  0  0
   -2.1460    1.0489   -1.4784 H   0  0  0  0  0  0  0  0  0  0  0  0
   -3.3110    0.8181   -0.1526 H   0  0  0  0  0  0  0  0  0  0  0  0
   -0.8645    2.6695   -0.0992 H   0  0  0  0  0  0  0  0  0  0  0  0
   -2.5581    3.1664   -0.1867 H   0  0  0  0  0  0  0  0  0  0  0  0
   -1.9408    2.3806    1.2736 H   0  0  0  0  0  0  0  0  0  0  0  0
  1  2  1  0
  1  4  1  0
  1  5  1  0
  2  3  2  0
  6  7  1  0
  6 12  1  0
  6 13  1  0
  7  8  1  0
  7 14  1  0
  7 15  1  0
  8  9  1  0
  8 16  1  0
  8 17  1  0
  9 10  1  0
 10 11  1  0
 10 18  1  0
 10 19  1  0
 11 20  1  0
 11 21  1  0
 11 22  1  0
M  RAD  1   6   2
M  END
>  <reaction>  (7) 
rmg_rxn_1478

>  <mol_properties>  (7) 
{"0": {"label": "*1", "atom_type": "N3s"}, "1": {"label": "*0", "atom_type": "N3d"}, "3": {"label": "*2", "atom_type": "H0"}, "5": {"label": "*3", "atom_type": "Cs"}, "6": {"label": "*4", "atom_type": "Cs"}}

>  <type>  (7) 
unop_3

>  <geom_source>  (7) 
Heuristics

$$$$

     RDKit          3D

 22 20  0  0  0  0  0  0  0  0999 V2000
    0.1195   -2.0801    2.5880 N   0  0  0  0  0  0  0  0  0  0  0  0
    0.1195   -3.2830    2.0432 N   0  0  0  0  0  0  0  0  0  0  0  0
    0.1195   -3.2830    0.8387 O   0  0  0  0  0  0  0  0  0  0  0  0
    0.1195   -1.0975    1.8727 H   0  0  0  0  0  0  0  0  0  0  0  0
    0.1195   -2.0338    3.5901 H   0  0  0  0  0  0  0  0  0  0  0  0
    0.1195   -0.0390    1.1023 C   0  0  0  0  0  3  0  0  0  0  0  0
   -0.5910   -0.3200   -0.2151 C   0  0  0  0  0  0  0  0  0  0  0  0
   -1.0111    0.9391   -0.9455 C   0  0  0  0  0  0  0  0  0  0  0  0
    0.1320    1.6783   -1.2946 O   0  0  0  0  0  0  0  0  0  0  0  0
   -0.1648    2.8861   -1.9480 C   0  0  0  0  0  0  0  0  0  0  0  0
    1.1275    3.5976   -2.2754 C   0  0  0  0  0  0  0  0  0  0  0  0
    1.0231    0.5475    0.9363 H   0  0  0  0  0  0  0  0  0  0  0  0
   -0.5263    0.5239    1.7809 H   0  0  0  0  0  0  0  0  0  0  0  0
   -1.4872   -0.9211   -0.0386 H   0  0  0  0  0  0  0  0  0  0  0  0
    0.0572   -0.9036   -0.8740 H   0  0  0  0  0  0  0  0  0  0  0  0
   -1.6687    1.5467   -0.3038 H   0  0  0  0  0  0  0  0  0  0  0  0
   -1.5826    0.6827   -1.8496 H   0  0  0  0  0  0  0  0  0  0  0  0
   -0.7364    2.6852   -2.8662 H   0  0  0  0  0  0  0  0  0  0  0  0
   -0.7974    3.5147   -1.3041 H   0  0  0  0  0  0  0  0  0  0  0  0
    1.7493    2.9807   -2.9251 H   0  0  0  0  0  0  0  0  0  0  0  0
    0.9215    4.5401   -2.7850 H   0  0  0  0  0  0  0  0  0  0  0  0
    1.6876    3.8111   -1.3644 H   0  0  0  0  0  0  0  0  0  0  0  0
  1  2  1  0
  1  4  1  0
  1  5  1  0
  2  3  2  0
  6  7  1  0
  6 12  1  0
  6 13  1  0
  7  8  1  0
  7 14  1  0
  7 15  1  0
  8  9  1  0
  8 16  1  0
  8 17  1  0
  9 10  1  0
 10 11  1  0
 10 18  1  0
 10 19  1  0
 11 20  1  0
 11 21  1  0
 11 22  1  0
M  RAD  1   6   2
M  END
>  <reaction>  (8) 
rmg_rxn_1478

>  <mol_properties>  (8) 
{"0": {"label": "*1", "atom_type": "N3s"}, "1": {"label": "*0", "atom_type": "N3d"}, "3": {"label": "*2", "atom_type": "H0"}, "5": {"label": "*3", "atom_type": "Cs"}, "6": {"label": "*4", "atom_type": "Cs"}}

>  <type>  (8) 
unop_4

>  <geom_source>  (8) 
Heuristics

$$$$

     RDKit          3D

 22 20  0  0  0  0  0  0  0  0999 V2000
    1.3734    0.2306    0.3992 N   0  0  0  0  0  0  0  0  0  0  0  0
    2.2966    0.9992    0.0656 N   0  0  0  0  0  0  0  0  0  0  0  0
    3.4063    0.6856   -0.3062 O   0  0  0  0  0  0  0  0  0  0  0  0
    1.1495   -0.9532    0.1326 H   0  0  0  0  0  0  0  0  0  0  0  0
    0.4757    0.6717    0.5964 H   0  0  0  0  0  0  0  0  0  0  0  0
    0.7037   -2.1412   -0.1559 C   0  0  0  0  0  3  0  0  0  0  0  0
   -0.7173   -2.2323    0.3500 C   0  0  0  0  0  0  0  0  0  0  0  0
   -1.6615   -1.2344   -0.3178 C   0  0  0  0  0  0  0  0  0  0  0  0
   -1.4228    0.0647    0.1844 O   0  0  0  0  0  0  0  0  0  0  0  0
   -2.2620    1.0483   -0.3815 C   0  0  0  0  0  0  0  0  0  0  0  0
   -1.8812    2.4061    0.1872 C   0  0  0  0  0  0  0  0  0  0  0  0
    1.3654   -2.8389    0.3449 H   0  0  0  0  0  0  0  0  0  0  0  0
    0.7738   -2.2446   -1.2338 H   0  0  0  0  0  0  0  0  0  0  0  0
   -0.7415   -2.0604    1.4277 H   0  0  0  0  0  0  0  0  0  0  0  0
   -1.1151   -3.2365    0.1643 H   0  0  0  0  0  0  0  0  0  0  0  0
   -2.7075   -1.5133   -0.1148 H   0  0  0  0  0  0  0  0  0  0  0  0
   -1.5163   -1.2432   -1.4093 H   0  0  0  0  0  0  0  0  0  0  0  0
   -2.1522    1.0466   -1.4774 H   0  0  0  0  0  0  0  0  0  0  0  0
   -3.3128    0.8167   -0.1477 H   0  0  0  0  0  0  0  0  0  0  0  0
   -1.9394    2.3819    1.2722 H   0  0  0  0  0  0  0  0  0  0  0  0
   -0.8673    2.6697   -0.1041 H   0  0  0  0  0  0  0  0  0  0  0  0
   -2.5615    3.1654   -0.1873 H   0  0  0  0  0  0  0  0  0  0  0  0
  1  2  1  0
  1  4  1  0
  1  5  1  0
  2  3  2  0
  6  7  1  0
  6 12  1  0
  6 13  1  0
  7  8  1  0
  7 14  1  0
  7 15  1  0
  8  9  1  0
  8 16  1  0
  8 17  1  0
  9 10  1  0
 10 11  1  0
 10 18  1  0
 10 19  1  0
 11 20  1  0
 11 21  1  0
 11 22  1  0
M  RAD  1   6   2
M  END
>  <reaction>  (9) 
rmg_rxn_1478

>  <mol_properties>  (9) 
{"0": {"label": "*1", "atom_type": "N3s"}, "1": {"label": "*0", "atom_type": "N3d"}, "3": {"label": "*2", "atom_type": "H0"}, "5": {"label": "*3", "atom_type": "Cs"}, "6": {"label": "*4", "atom_type": "Cs"}}

>  <type>  (9) 
unop_5

>  <geom_source>  (9) 
Heuristics

$$$$

     RDKit          3D

 22 20  0  0  0  0  0  0  0  0999 V2000
    0.1557   -2.6569    1.8018 N   0  0  0  0  0  0  0  0  0  0  0  0
    0.1557   -3.8598    1.2571 N   0  0  0  0  0  0  0  0  0  0  0  0
    0.1557   -3.8598    0.0526 O   0  0  0  0  0  0  0  0  0  0  0  0
    0.1557   -1.6743    1.0866 H   0  0  0  0  0  0  0  0  0  0  0  0
    0.1557   -2.6106    2.8039 H   0  0  0  0  0  0  0  0  0  0  0  0
    0.1556   -0.6158    0.3162 C   0  0  0  0  0  3  0  0  0  0  0  0
   -0.5548    0.5515    0.9885 C   0  0  0  0  0  0  0  0  0  0  0  0
   -0.0268    1.9022    0.5503 C   0  0  0  0  0  0  0  0  0  0  0  0
   -0.2631    2.0707   -0.8248 O   0  0  0  0  0  0  0  0  0  0  0  0
    0.2277    3.2869   -1.3284 C   0  0  0  0  0  0  0  0  0  0  0  0
   -0.0768    3.3647   -2.8065 C   0  0  0  0  0  0  0  0  0  0  0  0
    0.0399   -0.5664   -0.7665 H   0  0  0  0  0  0  0  0  0  0  0  0
    1.2252   -0.6024    0.5406 H   0  0  0  0  0  0  0  0  0  0  0  0
   -0.4449    0.4838    2.0744 H   0  0  0  0  0  0  0  0  0  0  0  0
   -1.6261    0.5118    0.7754 H   0  0  0  0  0  0  0  0  0  0  0  0
    1.0532    1.9707    0.7561 H   0  0  0  0  0  0  0  0  0  0  0  0
   -0.5192    2.7061    1.1168 H   0  0  0  0  0  0  0  0  0  0  0  0
   -0.2379    4.1290   -0.7951 H   0  0  0  0  0  0  0  0  0  0  0  0
    1.3119    3.3539   -1.1551 H   0  0  0  0  0  0  0  0  0  0  0  0
   -1.1524    3.3122   -2.9784 H   0  0  0  0  0  0  0  0  0  0  0  0
    0.2954    4.3032   -3.2203 H   0  0  0  0  0  0  0  0  0  0  0  0
    0.3973    2.5390   -3.3383 H   0  0  0  0  0  0  0  0  0  0  0  0
  1  2  1  0
  1  4  1  0
  1  5  1  0
  2  3  2  0
  6  7  1  0
  6 12  1  0
  6 13  1  0
  7  8  1  0
  7 14  1  0
  7 15  1  0
  8  9  1  0
  8 16  1  0
  8 17  1  0
  9 10  1  0
 10 11  1  0
 10 18  1  0
 10 19  1  0
 11 20  1  0
 11 21  1  0
 11 22  1  0
M  RAD  1   6   2
M  END
>  <reaction>  (10) 
rmg_rxn_1478

>  <mol_properties>  (10) 
{"0": {"label": "*1", "atom_type": "N3s"}, "1": {"label": "*0", "atom_type": "N3d"}, "3": {"label": "*2", "atom_type": "H0"}, "5": {"label": "*3", "atom_type": "Cs"}, "6": {"label": "*4", "atom_type": "Cs"}}

>  <type>  (10) 
unop_6

>  <geom_source>  (10) 
Heuristics

$$$$

     RDKit          3D

 22 20  0  0  0  0  0  0  0  0999 V2000
   -1.1598   -2.2930    1.3748 N   0  0  0  0  0  0  0  0  0  0  0  0
   -1.1598   -3.4958    0.8300 N   0  0  0  0  0  0  0  0  0  0  0  0
   -1.1598   -3.4958   -0.3745 O   0  0  0  0  0  0  0  0  0  0  0  0
   -1.1598   -1.3104    0.6596 H   0  0  0  0  0  0  0  0  0  0  0  0
   -1.1598   -2.2467    2.3769 H   0  0  0  0  0  0  0  0  0  0  0  0
   -1.1598   -0.2519   -0.1109 C   0  0  0  0  0  3  0  0  0  0  0  0
    0.0707   -0.2268   -1.0078 C   0  0  0  0  0  0  0  0  0  0  0  0
    0.5442    1.1758   -1.3301 C   0  0  0  0  0  0  0  0  0  0  0  0
    0.9406    1.8174   -0.1443 O   0  0  0  0  0  0  0  0  0  0  0  0
    1.3636    3.1422   -0.3434 C   0  0  0  0  0  0  0  0  0  0  0  0
    1.7638    3.7351    0.9877 C   0  0  0  0  0  0  0  0  0  0  0  0
   -0.9544    0.2396    0.8401 H   0  0  0  0  0  0  0  0  0  0  0  0
   -1.9971    0.2677   -0.5835 H   0  0  0  0  0  0  0  0  0  0  0  0
   -0.1418   -0.7352   -1.9524 H   0  0  0  0  0  0  0  0  0  0  0  0
    0.8920   -0.7701   -0.5334 H   0  0  0  0  0  0  0  0  0  0  0  0
   -0.2651    1.7464   -1.8125 H   0  0  0  0  0  0  0  0  0  0  0  0
    1.3861    1.1409   -2.0371 H   0  0  0  0  0  0  0  0  0  0  0  0
    2.2112    3.1640   -1.0444 H   0  0  0  0  0  0  0  0  0  0  0  0
    0.5526    3.7302   -0.7979 H   0  0  0  0  0  0  0  0  0  0  0  0
    2.5772    3.1609    1.4327 H   0  0  0  0  0  0  0  0  0  0  0  0
    2.0972    4.7658    0.8576 H   0  0  0  0  0  0  0  0  0  0  0  0
    0.9198    3.7282    1.6784 H   0  0  0  0  0  0  0  0  0  0  0  0
  1  2  1  0
  1  4  1  0
  1  5  1  0
  2  3  2  0
  6  7  1  0
  6 12  1  0
  6 13  1  0
  7  8  1  0
  7 14  1  0
  7 15  1  0
  8  9  1  0
  8 16  1  0
  8 17  1  0
  9 10  1  0
 10 11  1  0
 10 18  1  0
 10 19  1  0
 11 20  1  0
 11 21  1  0
 11 22  1  0
M  RAD  1   6   2
M  END
>  <reaction>  (11) 
rmg_rxn_1478

>  <mol_properties>  (11) 
{"0": {"label": "*1", "atom_type": "N3s"}, "1": {"label": "*0", "atom_type": "N3d"}, "3": {"label": "*2", "atom_type": "H0"}, "5": {"label": "*3", "atom_type": "Cs"}, "6": {"label": "*4", "atom_type": "Cs"}}

>  <type>  (11) 
unop_7

>  <geom_source>  (11) 
Heuristics

$$$$

     RDKit          3D

 22 20  0  0  0  0  0  0  0  0999 V2000
    1.3732   -0.2302    0.4003 N   0  0  0  0  0  0  0  0  0  0  0  0
    2.2960   -0.9990    0.0659 N   0  0  0  0  0  0  0  0  0  0  0  0
    3.4053   -0.6856   -0.3071 O   0  0  0  0  0  0  0  0  0  0  0  0
    1.1493    0.9535    0.1334 H   0  0  0  0  0  0  0  0  0  0  0  0
    0.4757   -0.6712    0.5983 H   0  0  0  0  0  0  0  0  0  0  0  0
    0.7036    2.1414   -0.1558 C   0  0  0  0  0  3  0  0  0  0  0  0
   -0.7176    2.2323    0.3496 C   0  0  0  0  0  0  0  0  0  0  0  0
   -1.6616    1.2342   -0.3179 C   0  0  0  0  0  0  0  0  0  0  0  0
   -1.4228   -0.0648    0.1846 O   0  0  0  0  0  0  0  0  0  0  0  0
   -2.2610   -1.0487   -0.3820 C   0  0  0  0  0  0  0  0  0  0  0  0
   -1.8803   -2.4063    0.1873 C   0  0  0  0  0  0  0  0  0  0  0  0
    0.7739    2.2445   -1.2337 H   0  0  0  0  0  0  0  0  0  0  0  0
    1.3651    2.8393    0.3448 H   0  0  0  0  0  0  0  0  0  0  0  0
   -1.1154    3.2365    0.1637 H   0  0  0  0  0  0  0  0  0  0  0  0
   -0.7420    2.0608    1.4274 H   0  0  0  0  0  0  0  0  0  0  0  0
   -1.5161    1.2428   -1.4094 H   0  0  0  0  0  0  0  0  0  0  0  0
   -2.7076    1.5130   -0.1152 H   0  0  0  0  0  0  0  0  0  0  0  0
   -3.3121   -0.8175   -0.1493 H   0  0  0  0  0  0  0  0  0  0  0  0
   -2.1500   -1.0472   -1.4778 H   0  0  0  0  0  0  0  0  0  0  0  0
   -1.9397   -2.3820    1.2723 H   0  0  0  0  0  0  0  0  0  0  0  0
   -2.5597   -3.1660   -0.1879 H   0  0  0  0  0  0  0  0  0  0  0  0
   -0.8659   -2.6695   -0.1028 H   0  0  0  0  0  0  0  0  0  0  0  0
  1  2  1  0
  1  4  1  0
  1  5  1  0
  2  3  2  0
  6  7  1  0
  6 12  1  0
  6 13  1  0
  7  8  1  0
  7 14  1  0
  7 15  1  0
  8  9  1  0
  8 16  1  0
  8 17  1  0
  9 10  1  0
 10 11  1  0
 10 18  1  0
 10 19  1  0
 11 20  1  0
 11 21  1  0
 11 22  1  0
M  RAD  1   6   2
M  END
>  <reaction>  (12) 
rmg_rxn_1478

>  <mol_properties>  (12) 
{"0": {"label": "*1", "atom_type": "N3s"}, "1": {"label": "*0", "atom_type": "N3d"}, "3": {"label": "*2", "atom_type": "H0"}, "5": {"label": "*3", "atom_type": "Cs"}, "6": {"label": "*4", "atom_type": "Cs"}}

>  <type>  (12) 
unop_8

>  <geom_source>  (12) 
Heuristics

$$$$

     RDKit          3D

 22 20  0  0  0  0  0  0  0  0999 V2000
    0.5495   -2.6031    1.6943 N   0  0  0  0  0  0  0  0  0  0  0  0
    0.5495   -3.8059    1.1495 N   0  0  0  0  0  0  0  0  0  0  0  0
    0.5495   -3.8059   -0.0550 O   0  0  0  0  0  0  0  0  0  0  0  0
    0.5495   -1.6204    0.9791 H   0  0  0  0  0  0  0  0  0  0  0  0
    0.5495   -2.5567    2.6964 H   0  0  0  0  0  0  0  0  0  0  0  0
    0.5495   -0.5619    0.2086 C   0  0  0  0  0  3  0  0  0  0  0  0
    0.5495    0.7174    1.0349 C   0  0  0  0  0  0  0  0  0  0  0  0
    0.5570    1.9734    0.1877 C   0  0  0  0  0  0  0  0  0  0  0  0
   -0.6224    2.0281   -0.5745 O   0  0  0  0  0  0  0  0  0  0  0  0
   -0.6860    3.1473   -1.4211 C   0  0  0  0  0  0  0  0  0  0  0  0
   -1.9860    3.1076   -2.1906 C   0  0  0  0  0  0  0  0  0  0  0  0
   -0.3304   -0.6072   -0.4330 H   0  0  0  0  0  0  0  0  0  0  0  0
    1.4344   -0.6128   -0.4308 H   0  0  0  0  0  0  0  0  0  0  0  0
    1.4282    0.7453    1.6852 H   0  0  0  0  0  0  0  0  0  0  0  0
   -0.3277    0.7433    1.6864 H   0  0  0  0  0  0  0  0  0  0  0  0
    1.4343    1.9747   -0.4785 H   0  0  0  0  0  0  0  0  0  0  0  0
    0.6315    2.8646    0.8280 H   0  0  0  0  0  0  0  0  0  0  0  0
   -0.6187    4.0711   -0.8275 H   0  0  0  0  0  0  0  0  0  0  0  0
    0.1700    3.1437   -2.1120 H   0  0  0  0  0  0  0  0  0  0  0  0
   -2.8354    3.1251   -1.5068 H   0  0  0  0  0  0  0  0  0  0  0  0
   -2.0581    3.9694   -2.8558 H   0  0  0  0  0  0  0  0  0  0  0  0
   -2.0467    2.1995   -2.7915 H   0  0  0  0  0  0  0  0  0  0  0  0
  1  2  1  0
  1  4  1  0
  1  5  1  0
  2  3  2  0
  6  7  1  0
  6 12  1  0
  6 13  1  0
  7  8  1  0
  7 14  1  0
  7 15  1  0
  8  9  1  0
  8 16  1  0
  8 17  1  0
  9 10  1  0
 10 11  1  0
 10 18  1  0
 10 19  1  0
 11 20  1  0
 11 21  1  0
 11 22  1  0
M  RAD  1   6   2
M  END
>  <reaction>  (13) 
rmg_rxn_1478

>  <mol_properties>  (13) 
{"0": {"label": "*1", "atom_type": "N3s"}, "1": {"label": "*0", "atom_type": "N3d"}, "3": {"label": "*2", "atom_type": "H0"}, "5": {"label": "*3", "atom_type": "Cs"}, "6": {"label": "*4", "atom_type": "Cs"}}

>  <type>  (13) 
unop_9

>  <geom_source>  (13) 
Heuristics

$$$$

     RDKit          3D

 22 20  0  0  0  0  0  0  0  0999 V2000
    1.3735   -0.2297    0.3975 N   0  0  0  0  0  0  0  0  0  0  0  0
    2.2985   -0.9973    0.0665 N   0  0  0  0  0  0  0  0  0  0  0  0
    3.4081   -0.6824   -0.3046 O   0  0  0  0  0  0  0  0  0  0  0  0
    1.1480    0.9535    0.1298 H   0  0  0  0  0  0  0  0  0  0  0  0
    0.4765   -0.6720    0.5949 H   0  0  0  0  0  0  0  0  0  0  0  0
    0.7008    2.1408   -0.1596 C   0  0  0  0  0  3  0  0  0  0  0  0
   -0.7187    2.2316    0.3503 C   0  0  0  0  0  0  0  0  0  0  0  0
   -1.6649    1.2338   -0.3145 C   0  0  0  0  0  0  0  0  0  0  0  0
   -1.4227   -0.0658    0.1847 O   0  0  0  0  0  0  0  0  0  0  0  0
   -2.2632   -1.0495   -0.3792 C   0  0  0  0  0  0  0  0  0  0  0  0
   -1.8767   -2.4081    0.1839 C   0  0  0  0  0  0  0  0  0  0  0  0
    0.7676    2.2426   -1.2379 H   0  0  0  0  0  0  0  0  0  0  0  0
    1.3636    2.8397    0.3380 H   0  0  0  0  0  0  0  0  0  0  0  0
   -1.1172    3.2358    0.1657 H   0  0  0  0  0  0  0  0  0  0  0  0
   -0.7396    2.0598    1.4281 H   0  0  0  0  0  0  0  0  0  0  0  0
   -1.5243    1.2442   -1.4067 H   0  0  0  0  0  0  0  0  0  0  0  0
   -2.7102    1.5114   -0.1067 H   0  0  0  0  0  0  0  0  0  0  0  0
   -3.3131   -0.8205   -0.1392 H   0  0  0  0  0  0  0  0  0  0  0  0
   -2.1592   -1.0449   -1.4757 H   0  0  0  0  0  0  0  0  0  0  0  0
   -2.5575   -3.1677   -0.1889 H   0  0  0  0  0  0  0  0  0  0  0  0
   -0.8639   -2.6689   -0.1136 H   0  0  0  0  0  0  0  0  0  0  0  0
   -1.9291   -2.3868    1.2693 H   0  0  0  0  0  0  0  0  0  0  0  0
  1  2  1  0
  1  4  1  0
  1  5  1  0
  2  3  2  0
  6  7  1  0
  6 12  1  0
  6 13  1  0
  7  8  1  0
  7 14  1  0
  7 15  1  0
  8  9  1  0
  8 16  1  0
  8 17  1  0
  9 10  1  0
 10 11  1  0
 10 18  1  0
 10 19  1  0
 11 20  1  0
 11 21  1  0
 11 22  1  0
M  RAD  1   6   2
M  END
>  <reaction>  (14) 
rmg_rxn_1478

>  <mol_properties>  (14) 
{"0": {"label": "*1", "atom_type": "N3s"}, "1": {"label": "*0", "atom_type": "N3d"}, "3": {"label": "*2", "atom_type": "H0"}, "5": {"label": "*3", "atom_type": "Cs"}, "6": {"label": "*4", "atom_type": "Cs"}}

>  <type>  (14) 
unop_10

>  <geom_source>  (14) 
Heuristics

$$$$

     RDKit          3D

 22 20  0  0  0  0  0  0  0  0999 V2000
   -0.7557   -2.5234    0.8162 N   0  0  0  0  0  0  0  0  0  0  0  0
   -0.7557   -3.7262    0.2715 N   0  0  0  0  0  0  0  0  0  0  0  0
   -0.7557   -3.7262   -0.9330 O   0  0  0  0  0  0  0  0  0  0  0  0
   -0.7557   -1.5408    0.1010 H   0  0  0  0  0  0  0  0  0  0  0  0
   -0.7557   -2.4770    1.8183 H   0  0  0  0  0  0  0  0  0  0  0  0
   -0.7557   -0.4823   -0.6694 C   0  0  0  0  0  3  0  0  0  0  0  0
    0.6652   -0.0391   -0.9920 C   0  0  0  0  0  0  0  0  0  0  0  0
    0.8311    1.4668   -1.0037 C   0  0  0  0  0  0  0  0  0  0  0  0
    0.5705    1.9740    0.2807 O   0  0  0  0  0  0  0  0  0  0  0  0
    0.6665    3.3736    0.3559 C   0  0  0  0  0  0  0  0  0  0  0  0
    0.3683    3.8107    1.7714 C   0  0  0  0  0  0  0  0  0  0  0  0
   -1.0585   -0.1224    0.3139 H   0  0  0  0  0  0  0  0  0  0  0  0
   -1.4628   -0.0883   -1.4037 H   0  0  0  0  0  0  0  0  0  0  0  0
    0.9638   -0.4179   -1.9734 H   0  0  0  0  0  0  0  0  0  0  0  0
    1.3638   -0.4597   -0.2641 H   0  0  0  0  0  0  0  0  0  0  0  0
    0.1388    1.9176   -1.7323 H   0  0  0  0  0  0  0  0  0  0  0  0
    1.8519    1.7354   -1.3131 H   0  0  0  0  0  0  0  0  0  0  0  0
    1.6750    3.6970    0.0581 H   0  0  0  0  0  0  0  0  0  0  0  0
   -0.0423    3.8360   -0.3467 H   0  0  0  0  0  0  0  0  0  0  0  0
    1.0791    3.3635    2.4672 H   0  0  0  0  0  0  0  0  0  0  0  0
    0.4376    4.8964    1.8543 H   0  0  0  0  0  0  0  0  0  0  0  0
   -0.6371    3.5041    2.0622 H   0  0  0  0  0  0  0  0  0  0  0  0
  1  2  1  0
  1  4  1  0
  1  5  1  0
  2  3  2  0
  6  7  1  0
  6 12  1  0
  6 13  1  0
  7  8  1  0
  7 14  1  0
  7 15  1  0
  8  9  1  0
  8 16  1  0
  8 17  1  0
  9 10  1  0
 10 11  1  0
 10 18  1  0
 10 19  1  0
 11 20  1  0
 11 21  1  0
 11 22  1  0
M  RAD  1   6   2
M  END
>  <reaction>  (15) 
rmg_rxn_1478

>  <mol_properties>  (15) 
{"0": {"label": "*1", "atom_type": "N3s"}, "1": {"label": "*0", "atom_type": "N3d"}, "3": {"label": "*2", "atom_type": "H0"}, "5": {"label": "*3", "atom_type": "Cs"}, "6": {"label": "*4", "atom_type": "Cs"}}

>  <type>  (15) 
unop_11

>  <geom_source>  (15) 
Heuristics

$$$$

     RDKit          3D

 22 20  0  0  0  0  0  0  0  0999 V2000
    1.3732   -0.2307    0.4000 N   0  0  0  0  0  0  0  0  0  0  0  0
    2.2959   -0.9995    0.0654 N   0  0  0  0  0  0  0  0  0  0  0  0
    3.4055   -0.6860   -0.3068 O   0  0  0  0  0  0  0  0  0  0  0  0
    1.1495    0.9532    0.1338 H   0  0  0  0  0  0  0  0  0  0  0  0
    0.4754   -0.6717    0.5971 H   0  0  0  0  0  0  0  0  0  0  0  0
    0.7043    2.1413   -0.1551 C   0  0  0  0  0  3  0  0  0  0  0  0
   -0.7171    2.2324    0.3496 C   0  0  0  0  0  0  0  0  0  0  0  0
   -1.6610    1.2345   -0.3184 C   0  0  0  0  0  0  0  0  0  0  0  0
   -1.4227   -0.0645    0.1843 O   0  0  0  0  0  0  0  0  0  0  0  0
   -2.2622   -1.0481   -0.3812 C   0  0  0  0  0  0  0  0  0  0  0  0
   -1.8810   -2.4060    0.1872 C   0  0  0  0  0  0  0  0  0  0  0  0
    0.7752    2.2449   -1.2330 H   0  0  0  0  0  0  0  0  0  0  0  0
    1.3657    2.8389    0.3461 H   0  0  0  0  0  0  0  0  0  0  0  0
   -1.1147    3.2367    0.1634 H   0  0  0  0  0  0  0  0  0  0  0  0
   -0.7420    2.0607    1.4273 H   0  0  0  0  0  0  0  0  0  0  0  0
   -1.5150    1.2429   -1.4099 H   0  0  0  0  0  0  0  0  0  0  0  0
   -2.7071    1.5135   -0.1163 H   0  0  0  0  0  0  0  0  0  0  0  0
   -3.3129   -0.8165   -0.1468 H   0  0  0  0  0  0  0  0  0  0  0  0
   -2.1530   -1.0464   -1.4771 H   0  0  0  0  0  0  0  0  0  0  0  0
   -0.8673   -2.6696   -0.1050 H   0  0  0  0  0  0  0  0  0  0  0  0
   -1.9382   -2.3816    1.2723 H   0  0  0  0  0  0  0  0  0  0  0  0
   -2.5615   -3.1653   -0.1866 H   0  0  0  0  0  0  0  0  0  0  0  0
  1  2  1  0
  1  4  1  0
  1  5  1  0
  2  3  2  0
  6  7  1  0
  6 12  1  0
  6 13  1  0
  7  8  1  0
  7 14  1  0
  7 15  1  0
  8  9  1  0
  8 16  1  0
  8 17  1  0
  9 10  1  0
 10 11  1  0
 10 18  1  0
 10 19  1  0
 11 20  1  0
 11 21  1  0
 11 22  1  0
M  RAD  1   6   2
M  END
>  <reaction>  (16) 
rmg_rxn_1478

>  <mol_properties>  (16) 
{"0": {"label": "*1", "atom_type": "N3s"}, "1": {"label": "*0", "atom_type": "N3d"}, "3": {"label": "*2", "atom_type": "H0"}, "5": {"label": "*3", "atom_type": "Cs"}, "6": {"label": "*4", "atom_type": "Cs"}}

>  <type>  (16) 
unop_12

>  <geom_source>  (16) 
Heuristics

$$$$

     RDKit          3D

 22 20  0  0  0  0  0  0  0  0999 V2000
   -0.0578   -2.6479    0.6307 N   0  0  0  0  0  0  0  0  0  0  0  0
   -0.0578   -3.8507    0.0859 N   0  0  0  0  0  0  0  0  0  0  0  0
   -0.0578   -3.8507   -1.1186 O   0  0  0  0  0  0  0  0  0  0  0  0
   -0.0578   -1.6653   -0.0845 H   0  0  0  0  0  0  0  0  0  0  0  0
   -0.0578   -2.6016    1.6328 H   0  0  0  0  0  0  0  0  0  0  0  0
   -0.0578   -0.6068   -0.8550 C   0  0  0  0  0  3  0  0  0  0  0  0
    1.1727    0.2544   -0.6031 C   0  0  0  0  0  0  0  0  0  0  0  0
    0.8761    1.7398   -0.6323 C   0  0  0  0  0  0  0  0  0  0  0  0
   -0.0141    2.0575    0.4077 O   0  0  0  0  0  0  0  0  0  0  0  0
   -0.3748    3.4149    0.4359 C   0  0  0  0  0  0  0  0  0  0  0  0
   -1.3292    3.6455    1.5846 C   0  0  0  0  0  0  0  0  0  0  0  0
   -0.8204   -0.4210   -0.0987 H   0  0  0  0  0  0  0  0  0  0  0  0
   -0.4938   -0.3869   -1.8327 H   0  0  0  0  0  0  0  0  0  0  0  0
    1.9366    0.0493   -1.3583 H   0  0  0  0  0  0  0  0  0  0  0  0
    1.6118    0.0071    0.3668 H   0  0  0  0  0  0  0  0  0  0  0  0
    0.4339    2.0179   -1.6021 H   0  0  0  0  0  0  0  0  0  0  0  0
    1.8058    2.3166   -0.5196 H   0  0  0  0  0  0  0  0  0  0  0  0
    0.5235    4.0395    0.5512 H   0  0  0  0  0  0  0  0  0  0  0  0
   -0.8451    3.6975   -0.5175 H   0  0  0  0  0  0  0  0  0  0  0  0
   -0.8589    3.3787    2.5316 H   0  0  0  0  0  0  0  0  0  0  0  0
   -1.6233    4.6954    1.6268 H   0  0  0  0  0  0  0  0  0  0  0  0
   -2.2270    3.0384    1.4631 H   0  0  0  0  0  0  0  0  0  0  0  0
  1  2  1  0
  1  4  1  0
  1  5  1  0
  2  3  2  0
  6  7  1  0
  6 12  1  0
  6 13  1  0
  7  8  1  0
  7 14  1  0
  7 15  1  0
  8  9  1  0
  8 16  1  0
  8 17  1  0
  9 10  1  0
 10 11  1  0
 10 18  1  0
 10 19  1  0
 11 20  1  0
 11 21  1  0
 11 22  1  0
M  RAD  1   6   2
M  END
>  <reaction>  (17) 
rmg_rxn_1478

>  <mol_properties>  (17) 
{"0": {"label": "*1", "atom_type": "N3s"}, "1": {"label": "*0", "atom_type": "N3d"}, "3": {"label": "*2", "atom_type": "H0"}, "5": {"label": "*3", "atom_type": "Cs"}, "6": {"label": "*4", "atom_type": "Cs"}}

>  <type>  (17) 
unop_13

>  <geom_source>  (17) 
Heuristics

$$$$

     RDKit          3D

 22 20  0  0  0  0  0  0  0  0999 V2000
   -1.3733    0.2303   -0.3995 N   0  0  0  0  0  0  0  0  0  0  0  0
   -2.2967    0.9988   -0.0658 N   0  0  0  0  0  0  0  0  0  0  0  0
   -3.4062    0.6848    0.3064 O   0  0  0  0  0  0  0  0  0  0  0  0
   -1.1490   -0.9533   -0.1327 H   0  0  0  0  0  0  0  0  0  0  0  0
   -0.4758    0.6718   -0.5969 H   0  0  0  0  0  0  0  0  0  0  0  0
   -0.7032   -2.1411    0.1564 C   0  0  0  0  0  3  0  0  0  0  0  0
    0.7177   -2.2322   -0.3497 C   0  0  0  0  0  0  0  0  0  0  0  0
    1.6622   -1.2342    0.3173 C   0  0  0  0  0  0  0  0  0  0  0  0
    1.4227    0.0650   -0.1844 O   0  0  0  0  0  0  0  0  0  0  0  0
    2.2625    1.0486    0.3806 C   0  0  0  0  0  0  0  0  0  0  0  0
    1.8795    2.4067   -0.1862 C   0  0  0  0  0  0  0  0  0  0  0  0
   -1.3650   -2.8391   -0.3438 H   0  0  0  0  0  0  0  0  0  0  0  0
   -0.7729   -2.2441    1.2344 H   0  0  0  0  0  0  0  0  0  0  0  0
    0.7415   -2.0606   -1.4275 H   0  0  0  0  0  0  0  0  0  0  0  0
    1.1155   -3.2364   -0.1639 H   0  0  0  0  0  0  0  0  0  0  0  0
    2.7081   -1.5128    0.1135 H   0  0  0  0  0  0  0  0  0  0  0  0
    1.5178   -1.2432    1.4090 H   0  0  0  0  0  0  0  0  0  0  0  0
    2.1550    1.0460    1.4767 H   0  0  0  0  0  0  0  0  0  0  0  0
    3.3129    0.8179    0.1443 H   0  0  0  0  0  0  0  0  0  0  0  0
    0.8661    2.6694    0.1077 H   0  0  0  0  0  0  0  0  0  0  0  0
    2.5602    3.1661    0.1873 H   0  0  0  0  0  0  0  0  0  0  0  0
    1.9351    2.3833   -1.2714 H   0  0  0  0  0  0  0  0  0  0  0  0
  1  2  1  0
  1  4  1  0
  1  5  1  0
  2  3  2  0
  6  7  1  0
  6 12  1  0
  6 13  1  0
  7  8  1  0
  7 14  1  0
  7 15  1  0
  8  9  1  0
  8 16  1  0
  8 17  1  0
  9 10  1  0
 10 11  1  0
 10 18  1  0
 10 19  1  0
 11 20  1  0
 11 21  1  0
 11 22  1  0
M  RAD  1   6   2
M  END
>  <reaction>  (18) 
rmg_rxn_1478

>  <mol_properties>  (18) 
{"0": {"label": "*1", "atom_type": "N3s"}, "1": {"label": "*0", "atom_type": "N3d"}, "3": {"label": "*2", "atom_type": "H0"}, "5": {"label": "*3", "atom_type": "Cs"}, "6": {"label": "*4", "atom_type": "Cs"}}

>  <type>  (18) 
unop_14

>  <geom_source>  (18) 
Heuristics

$$$$

     RDKit          3D

 22 20  0  0  0  0  0  0  0  0999 V2000
    0.5051   -2.5481    1.8861 N   0  0  0  0  0  0  0  0  0  0  0  0
    0.5051   -3.7509    1.3413 N   0  0  0  0  0  0  0  0  0  0  0  0
    0.5051   -3.7509    0.1368 O   0  0  0  0  0  0  0  0  0  0  0  0
    0.5051   -1.5655    1.1709 H   0  0  0  0  0  0  0  0  0  0  0  0
    0.5051   -2.5018    2.8882 H   0  0  0  0  0  0  0  0  0  0  0  0
    0.5051   -0.5070    0.4004 C   0  0  0  0  0  3  0  0  0  0  0  0
   -0.9158   -0.0638    0.0779 C   0  0  0  0  0  0  0  0  0  0  0  0
   -1.0851    1.4417    0.0807 C   0  0  0  0  0  0  0  0  0  0  0  0
   -0.2867    2.0020   -0.9309 O   0  0  0  0  0  0  0  0  0  0  0  0
   -0.3537    3.4044   -0.9796 C   0  0  0  0  0  0  0  0  0  0  0  0
    0.5373    3.9001   -2.0949 C   0  0  0  0  0  0  0  0  0  0  0  0
    1.2092   -0.1075   -0.3294 H   0  0  0  0  0  0  0  0  0  0  0  0
    0.8088   -0.1529    1.3888 H   0  0  0  0  0  0  0  0  0  0  0  0
   -1.6151   -0.4822    0.8071 H   0  0  0  0  0  0  0  0  0  0  0  0
   -1.2144   -0.4449   -0.9021 H   0  0  0  0  0  0  0  0  0  0  0  0
   -0.7929    1.8530    1.0599 H   0  0  0  0  0  0  0  0  0  0  0  0
   -2.1398    1.7070   -0.0836 H   0  0  0  0  0  0  0  0  0  0  0  0
   -1.3928    3.7248   -1.1464 H   0  0  0  0  0  0  0  0  0  0  0  0
   -0.0352    3.8284   -0.0158 H   0  0  0  0  0  0  0  0  0  0  0  0
    0.2139    3.4912   -3.0527 H   0  0  0  0  0  0  0  0  0  0  0  0
    0.5009    4.9891   -2.1523 H   0  0  0  0  0  0  0  0  0  0  0  0
    1.5704    3.5963   -1.9223 H   0  0  0  0  0  0  0  0  0  0  0  0
  1  2  1  0
  1  4  1  0
  1  5  1  0
  2  3  2  0
  6  7  1  0
  6 12  1  0
  6 13  1  0
  7  8  1  0
  7 14  1  0
  7 15  1  0
  8  9  1  0
  8 16  1  0
  8 17  1  0
  9 10  1  0
 10 11  1  0
 10 18  1  0
 10 19  1  0
 11 20  1  0
 11 21  1  0
 11 22  1  0
M  RAD  1   6   2
M  END
>  <reaction>  (19) 
rmg_rxn_1478

>  <mol_properties>  (19) 
{"0": {"label": "*1", "atom_type": "N3s"}, "1": {"label": "*0", "atom_type": "N3d"}, "3": {"label": "*2", "atom_type": "H0"}, "5": {"label": "*3", "atom_type": "Cs"}, "6": {"label": "*4", "atom_type": "Cs"}}

>  <type>  (19) 
unop_15

>  <geom_source>  (19) 
Heuristics

$$$$

     RDKit          3D

 22 20  0  0  0  0  0  0  0  0999 V2000
    1.3732   -0.2310    0.3984 N   0  0  0  0  0  0  0  0  0  0  0  0
    2.2968   -0.9994    0.0655 N   0  0  0  0  0  0  0  0  0  0  0  0
    3.4068   -0.6855   -0.3055 O   0  0  0  0  0  0  0  0  0  0  0  0
    1.1494    0.9530    0.1326 H   0  0  0  0  0  0  0  0  0  0  0  0
    0.4755   -0.6723    0.5950 H   0  0  0  0  0  0  0  0  0  0  0  0
    0.7038    2.1410   -0.1562 C   0  0  0  0  0  3  0  0  0  0  0  0
   -0.7170    2.2322    0.3501 C   0  0  0  0  0  0  0  0  0  0  0  0
   -1.6616    1.2346   -0.3174 C   0  0  0  0  0  0  0  0  0  0  0  0
   -1.4228   -0.0647    0.1843 O   0  0  0  0  0  0  0  0  0  0  0  0
   -2.2630   -1.0478   -0.3807 C   0  0  0  0  0  0  0  0  0  0  0  0
   -1.8814   -2.4061    0.1866 C   0  0  0  0  0  0  0  0  0  0  0  0
    0.7736    2.2447   -1.2341 H   0  0  0  0  0  0  0  0  0  0  0  0
    1.3658    2.8385    0.3445 H   0  0  0  0  0  0  0  0  0  0  0  0
   -1.1146    3.2366    0.1648 H   0  0  0  0  0  0  0  0  0  0  0  0
   -0.7408    2.0601    1.4278 H   0  0  0  0  0  0  0  0  0  0  0  0
   -1.5168    1.2437   -1.4090 H   0  0  0  0  0  0  0  0  0  0  0  0
   -2.7074    1.5136   -0.1139 H   0  0  0  0  0  0  0  0  0  0  0  0
   -3.3134   -0.8163   -0.1450 H   0  0  0  0  0  0  0  0  0  0  0  0
   -2.1551   -1.0457   -1.4768 H   0  0  0  0  0  0  0  0  0  0  0  0
   -0.8681   -2.6697   -0.1068 H   0  0  0  0  0  0  0  0  0  0  0  0
   -1.9375   -2.3824    1.2717 H   0  0  0  0  0  0  0  0  0  0  0  0
   -2.5624   -3.1652   -0.1868 H   0  0  0  0  0  0  0  0  0  0  0  0
  1  2  1  0
  1  4  1  0
  1  5  1  0
  2  3  2  0
  6  7  1  0
  6 12  1  0
  6 13  1  0
  7  8  1  0
  7 14  1  0
  7 15  1  0
  8  9  1  0
  8 16  1  0
  8 17  1  0
  9 10  1  0
 10 11  1  0
 10 18  1  0
 10 19  1  0
 11 20  1  0
 11 21  1  0
 11 22  1  0
M  RAD  1   6   2
M  END
>  <reaction>  (20) 
rmg_rxn_1478

>  <mol_properties>  (20) 
{"0": {"label": "*1", "atom_type": "N3s"}, "1": {"label": "*0", "atom_type": "N3d"}, "3": {"label": "*2", "atom_type": "H0"}, "5": {"label": "*3", "atom_type": "Cs"}, "6": {"label": "*4", "atom_type": "Cs"}}

>  <type>  (20) 
unop_16

>  <geom_source>  (20) 
Heuristics

$$$$

     RDKit          3D

 22 20  0  0  0  0  0  0  0  0999 V2000
   -1.0857   -2.0680    2.0643 N   0  0  0  0  0  0  0  0  0  0  0  0
   -1.0857   -3.2709    1.5196 N   0  0  0  0  0  0  0  0  0  0  0  0
   -1.0857   -3.2709    0.3151 O   0  0  0  0  0  0  0  0  0  0  0  0
   -1.0857   -1.0854    1.3491 H   0  0  0  0  0  0  0  0  0  0  0  0
   -1.0857   -2.0217    3.0664 H   0  0  0  0  0  0  0  0  0  0  0  0
   -1.0857   -0.0269    0.5787 C   0  0  0  0  0  3  0  0  0  0  0  0
   -0.3753   -0.3079   -0.7387 C   0  0  0  0  0  0  0  0  0  0  0  0
    0.0316    0.9514   -1.4763 C   0  0  0  0  0  0  0  0  0  0  0  0
    0.9623    1.6646   -0.7016 O   0  0  0  0  0  0  0  0  0  0  0  0
    1.3710    2.8709   -1.2943 C   0  0  0  0  0  0  0  0  0  0  0  0
    2.3644    3.5538   -0.3831 C   0  0  0  0  0  0  0  0  0  0  0  0
   -0.4421    0.5402    1.2511 H   0  0  0  0  0  0  0  0  0  0  0  0
   -1.9957    0.5555    0.4142 H   0  0  0  0  0  0  0  0  0  0  0  0
   -1.0240   -0.8896   -1.3995 H   0  0  0  0  0  0  0  0  0  0  0  0
    0.5191   -0.9108   -0.5617 H   0  0  0  0  0  0  0  0  0  0  0  0
   -0.8531    1.5783   -1.6704 H   0  0  0  0  0  0  0  0  0  0  0  0
    0.4721    0.6966   -2.4514 H   0  0  0  0  0  0  0  0  0  0  0  0
    1.8244    2.6716   -2.2767 H   0  0  0  0  0  0  0  0  0  0  0  0
    0.4985    3.5185   -1.4661 H   0  0  0  0  0  0  0  0  0  0  0  0
    3.2361    2.9182   -0.2233 H   0  0  0  0  0  0  0  0  0  0  0  0
    2.6972    4.4948   -0.8240 H   0  0  0  0  0  0  0  0  0  0  0  0
    1.9111    3.7660    0.5858 H   0  0  0  0  0  0  0  0  0  0  0  0
  1  2  1  0
  1  4  1  0
  1  5  1  0
  2  3  2  0
  6  7  1  0
  6 12  1  0
  6 13  1  0
  7  8  1  0
  7 14  1  0
  7 15  1  0
  8  9  1  0
  8 16  1  0
  8 17  1  0
  9 10  1  0
 10 11  1  0
 10 18  1  0
 10 19  1  0
 11 20  1  0
 11 21  1  0
 11 22  1  0
M  RAD  1   6   2
M  END
>  <reaction>  (21) 
rmg_rxn_1478

>  <mol_properties>  (21) 
{"0": {"label": "*1", "atom_type": "N3s"}, "1": {"label": "*0", "atom_type": "N3d"}, "3": {"label": "*2", "atom_type": "H0"}, "5": {"label": "*3", "atom_type": "Cs"}, "6": {"label": "*4", "atom_type": "Cs"}}

>  <type>  (21) 
unop_17

>  <geom_source>  (21) 
Heuristics

$$$$

     RDKit          3D

 22 20  0  0  0  0  0  0  0  0999 V2000
    0.5122   -2.3135    2.2626 N   0  0  0  0  0  0  0  0  0  0  0  0
    0.5122   -3.5163    1.7178 N   0  0  0  0  0  0  0  0  0  0  0  0
    0.5122   -3.5163    0.5133 O   0  0  0  0  0  0  0  0  0  0  0  0
    0.5122   -1.3309    1.5474 H   0  0  0  0  0  0  0  0  0  0  0  0
    0.5122   -2.2672    3.2647 H   0  0  0  0  0  0  0  0  0  0  0  0
    0.5122   -0.2724    0.7769 C   0  0  0  0  0  3  0  0  0  0  0  0
   -0.7183   -0.2473   -0.1200 C   0  0  0  0  0  0  0  0  0  0  0  0
   -1.2006    1.1550   -0.4301 C   0  0  0  0  0  0  0  0  0  0  0  0
   -0.2072    1.8407   -1.1497 O   0  0  0  0  0  0  0  0  0  0  0  0
   -0.5552    3.1678   -1.4516 C   0  0  0  0  0  0  0  0  0  0  0  0
    0.5764    3.8093   -2.2207 C   0  0  0  0  0  0  0  0  0  0  0  0
    1.3438    0.2519    0.3063 H   0  0  0  0  0  0  0  0  0  0  0  0
    0.3069    0.2141    1.7338 H   0  0  0  0  0  0  0  0  0  0  0  0
   -1.5412   -0.7886    0.3550 H   0  0  0  0  0  0  0  0  0  0  0  0
   -0.5058   -0.7578   -1.0629 H   0  0  0  0  0  0  0  0  0  0  0  0
   -1.4250    1.6928    0.5046 H   0  0  0  0  0  0  0  0  0  0  0  0
   -2.1303    1.1173   -1.0169 H   0  0  0  0  0  0  0  0  0  0  0  0
   -1.4821    3.1872   -2.0440 H   0  0  0  0  0  0  0  0  0  0  0  0
   -0.7529    3.7238   -0.5233 H   0  0  0  0  0  0  0  0  0  0  0  0
    0.7640    3.2668   -3.1480 H   0  0  0  0  0  0  0  0  0  0  0  0
    0.3280    4.8427   -2.4673 H   0  0  0  0  0  0  0  0  0  0  0  0
    1.4920    3.8046   -1.6282 H   0  0  0  0  0  0  0  0  0  0  0  0
  1  2  1  0
  1  4  1  0
  1  5  1  0
  2  3  2  0
  6  7  1  0
  6 12  1  0
  6 13  1  0
  7  8  1  0
  7 14  1  0
  7 15  1  0
  8  9  1  0
  8 16  1  0
  8 17  1  0
  9 10  1  0
 10 11  1  0
 10 18  1  0
 10 19  1  0
 11 20  1  0
 11 21  1  0
 11 22  1  0
M  RAD  1   6   2
M  END
>  <reaction>  (22) 
rmg_rxn_1478

>  <mol_properties>  (22) 
{"0": {"label": "*1", "atom_type": "N3s"}, "1": {"label": "*0", "atom_type": "N3d"}, "3": {"label": "*2", "atom_type": "H0"}, "5": {"label": "*3", "atom_type": "Cs"}, "6": {"label": "*4", "atom_type": "Cs"}}

>  <type>  (22) 
unop_18

>  <geom_source>  (22) 
Heuristics

$$$$

     RDKit          3D

 22 20  0  0  0  0  0  0  0  0999 V2000
    0.5832   -2.6381    0.9884 N   0  0  0  0  0  0  0  0  0  0  0  0
    0.5832   -3.8409    0.4437 N   0  0  0  0  0  0  0  0  0  0  0  0
    0.5832   -3.8409   -0.7608 O   0  0  0  0  0  0  0  0  0  0  0  0
    0.5832   -1.6555    0.2732 H   0  0  0  0  0  0  0  0  0  0  0  0
    0.5832   -2.5918    1.9905 H   0  0  0  0  0  0  0  0  0  0  0  0
    0.5832   -0.5970   -0.4972 C   0  0  0  0  0  3  0  0  0  0  0  0
    1.2937    0.5703    0.1751 C   0  0  0  0  0  0  0  0  0  0  0  0
    0.7757    1.9212   -0.2743 C   0  0  0  0  0  0  0  0  0  0  0  0
   -0.5737    2.0494    0.0965 O   0  0  0  0  0  0  0  0  0  0  0  0
   -1.1501    3.2634   -0.3130 C   0  0  0  0  0  0  0  0  0  0  0  0
   -2.5935    3.2968    0.1331 C   0  0  0  0  0  0  0  0  0  0  0  0
   -0.4842   -0.5777   -0.2774 H   0  0  0  0  0  0  0  0  0  0  0  0
    0.7034   -0.5533   -1.5826 H   0  0  0  0  0  0  0  0  0  0  0  0
    2.3653    0.5327   -0.0396 H   0  0  0  0  0  0  0  0  0  0  0  0
    1.1855    0.5005    1.2605 H   0  0  0  0  0  0  0  0  0  0  0  0
    0.8752    2.0198   -1.3669 H   0  0  0  0  0  0  0  0  0  0  0  0
    1.3683    2.7277    0.1820 H   0  0  0  0  0  0  0  0  0  0  0  0
   -0.5940    4.1078    0.1207 H   0  0  0  0  0  0  0  0  0  0  0  0
   -1.0834    3.3598   -1.4067 H   0  0  0  0  0  0  0  0  0  0  0  0
   -2.6599    3.2152    1.2186 H   0  0  0  0  0  0  0  0  0  0  0  0
   -3.0626    4.2328   -0.1739 H   0  0  0  0  0  0  0  0  0  0  0  0
   -3.1492    2.4690   -0.3088 H   0  0  0  0  0  0  0  0  0  0  0  0
  1  2  1  0
  1  4  1  0
  1  5  1  0
  2  3  2  0
  6  7  1  0
  6 12  1  0
  6 13  1  0
  7  8  1  0
  7 14  1  0
  7 15  1  0
  8  9  1  0
  8 16  1  0
  8 17  1  0
  9 10  1  0
 10 11  1  0
 10 18  1  0
 10 19  1  0
 11 20  1  0
 11 21  1  0
 11 22  1  0
M  RAD  1   6   2
M  END
>  <reaction>  (23) 
rmg_rxn_1478

>  <mol_properties>  (23) 
{"0": {"label": "*1", "atom_type": "N3s"}, "1": {"label": "*0", "atom_type": "N3d"}, "3": {"label": "*2", "atom_type": "H0"}, "5": {"label": "*3", "atom_type": "Cs"}, "6": {"label": "*4", "atom_type": "Cs"}}

>  <type>  (23) 
unop_19

>  <geom_source>  (23) 
Heuristics

$$$$

     RDKit          3D

 22 20  0  0  0  0  0  0  0  0999 V2000
   -0.5495   -1.9775    2.5537 N   0  0  0  0  0  0  0  0  0  0  0  0
   -0.5495   -3.1803    2.0090 N   0  0  0  0  0  0  0  0  0  0  0  0
   -0.5495   -3.1803    0.8045 O   0  0  0  0  0  0  0  0  0  0  0  0
   -0.5495   -0.9949    1.8385 H   0  0  0  0  0  0  0  0  0  0  0  0
   -0.5495   -1.9312    3.5558 H   0  0  0  0  0  0  0  0  0  0  0  0
   -0.5495    0.0636    1.0681 C   0  0  0  0  0  3  0  0  0  0  0  0
   -0.5495   -0.3294   -0.4033 C   0  0  0  0  0  0  0  0  0  0  0  0
   -0.5570    0.8628   -1.3381 C   0  0  0  0  0  0  0  0  0  0  0  0
    0.6224    1.6049   -1.1558 O   0  0  0  0  0  0  0  0  0  0  0  0
    0.6860    2.7546   -1.9606 C   0  0  0  0  0  0  0  0  0  0  0  0
    1.9860    3.4746   -1.6863 C   0  0  0  0  0  0  0  0  0  0  0  0
    0.3304    0.6602    1.3083 H   0  0  0  0  0  0  0  0  0  0  0  0
   -1.4344    0.6565    1.3130 H   0  0  0  0  0  0  0  0  0  0  0  0
   -1.4282   -0.9397   -0.6297 H   0  0  0  0  0  0  0  0  0  0  0  0
    0.3277   -0.9414   -0.6282 H   0  0  0  0  0  0  0  0  0  0  0  0
   -1.4343    1.4972   -1.1345 H   0  0  0  0  0  0  0  0  0  0  0  0
   -0.6315    0.5275   -2.3830 H   0  0  0  0  0  0  0  0  0  0  0  0
    0.6187    2.4737   -3.0222 H   0  0  0  0  0  0  0  0  0  0  0  0
   -0.1700    3.4109   -1.7448 H   0  0  0  0  0  0  0  0  0  0  0  0
    2.8354    2.8294   -1.9131 H   0  0  0  0  0  0  0  0  0  0  0  0
    2.0581    4.3726   -2.3019 H   0  0  0  0  0  0  0  0  0  0  0  0
    2.0467    3.7673   -0.6375 H   0  0  0  0  0  0  0  0  0  0  0  0
  1  2  1  0
  1  4  1  0
  1  5  1  0
  2  3  2  0
  6  7  1  0
  6 12  1  0
  6 13  1  0
  7  8  1  0
  7 14  1  0
  7 15  1  0
  8  9  1  0
  8 16  1  0
  8 17  1  0
  9 10  1  0
 10 11  1  0
 10 18  1  0
 10 19  1  0
 11 20  1  0
 11 21  1  0
 11 22  1  0
M  RAD  1   6   2
M  END
>  <reaction>  (24) 
rmg_rxn_1478

>  <mol_properties>  (24) 
{"0": {"label": "*1", "atom_type": "N3s"}, "1": {"label": "*0", "atom_type": "N3d"}, "3": {"label": "*2", "atom_type": "H0"}, "5": {"label": "*3", "atom_type": "Cs"}, "6": {"label": "*4", "atom_type": "Cs"}}

>  <type>  (24) 
unop_20

>  <geom_source>  (24) 
Heuristics

$$$$

     RDKit          3D

 22 20  0  0  0  0  0  0  0  0999 V2000
    0.1195   -2.0802    2.5880 N   0  0  0  0  0  0  0  0  0  0  0  0
    0.1195   -3.2830    2.0432 N   0  0  0  0  0  0  0  0  0  0  0  0
    0.1195   -3.2830    0.8387 O   0  0  0  0  0  0  0  0  0  0  0  0
    0.1195   -1.0975    1.8727 H   0  0  0  0  0  0  0  0  0  0  0  0
    0.1195   -2.0338    3.5901 H   0  0  0  0  0  0  0  0  0  0  0  0
    0.1195   -0.0390    1.1023 C   0  0  0  0  0  3  0  0  0  0  0  0
   -0.5909   -0.3200   -0.2151 C   0  0  0  0  0  0  0  0  0  0  0  0
   -1.0111    0.9391   -0.9455 C   0  0  0  0  0  0  0  0  0  0  0  0
    0.1320    1.6784   -1.2946 O   0  0  0  0  0  0  0  0  0  0  0  0
   -0.1648    2.8861   -1.9480 C   0  0  0  0  0  0  0  0  0  0  0  0
    1.1275    3.5976   -2.2754 C   0  0  0  0  0  0  0  0  0  0  0  0
    1.0231    0.5475    0.9363 H   0  0  0  0  0  0  0  0  0  0  0  0
   -0.5263    0.5239    1.7809 H   0  0  0  0  0  0  0  0  0  0  0  0
   -1.4872   -0.9211   -0.0386 H   0  0  0  0  0  0  0  0  0  0  0  0
    0.0572   -0.9036   -0.8740 H   0  0  0  0  0  0  0  0  0  0  0  0
   -1.6687    1.5467   -0.3038 H   0  0  0  0  0  0  0  0  0  0  0  0
   -1.5826    0.6827   -1.8496 H   0  0  0  0  0  0  0  0  0  0  0  0
   -0.7365    2.6852   -2.8662 H   0  0  0  0  0  0  0  0  0  0  0  0
   -0.7974    3.5147   -1.3041 H   0  0  0  0  0  0  0  0  0  0  0  0
    1.7493    2.9807   -2.9251 H   0  0  0  0  0  0  0  0  0  0  0  0
    0.9215    4.5401   -2.7850 H   0  0  0  0  0  0  0  0  0  0  0  0
    1.6876    3.8111   -1.3644 H   0  0  0  0  0  0  0  0  0  0  0  0
  1  2  1  0
  1  4  1  0
  1  5  1  0
  2  3  2  0
  6  7  1  0
  6 12  1  0
  6 13  1  0
  7  8  1  0
  7 14  1  0
  7 15  1  0
  8  9  1  0
  8 16  1  0
  8 17  1  0
  9 10  1  0
 10 11  1  0
 10 18  1  0
 10 19  1  0
 11 20  1  0
 11 21  1  0
 11 22  1  0
M  RAD  1   6   2
M  END
>  <reaction>  (25) 
rmg_rxn_1478

>  <mol_properties>  (25) 
{"0": {"label": "*1", "atom_type": "N3s"}, "1": {"label": "*0", "atom_type": "N3d"}, "3": {"label": "*2", "atom_type": "H0"}, "5": {"label": "*3", "atom_type": "Cs"}, "6": {"label": "*4", "atom_type": "Cs"}}

>  <type>  (25) 
unop_21

>  <geom_source>  (25) 
gaussian_log

$$$$
