
     RDKit          3D

 18 17  0  0  0  0  0  0  0  0999 V2000
    2.2026   -0.7213   -0.2612 C   0  0  0  0  0  0  0  0  0  0  0  0
    1.5384    0.2638    0.6915 C   0  0  0  0  0  0  0  0  0  0  0  0
    2.2584    1.5946    0.7694 C   0  0  0  0  0  0  0  0  0  0  0  0
    2.2212    2.2185   -0.4893 O   0  0  0  0  0  0  0  0  0  0  0  0
    2.8988    3.4488   -0.5204 C   0  0  0  0  0  0  0  0  0  0  0  0
    2.7981    4.0296   -1.9118 C   0  0  0  0  0  0  0  0  0  0  0  0
    3.2294   -0.9309    0.0486 H   0  0  0  0  0  0  0  0  0  0  0  0
    2.2338   -0.3181   -1.2734 H   0  0  0  0  0  0  0  0  0  0  0  0
    1.6610   -1.6680   -0.2875 H   0  0  0  0  0  0  0  0  0  0  0  0
    1.4990   -0.1566    1.7002 H   0  0  0  0  0  0  0  0  0  0  0  0
    0.5055    0.4455    0.3835 H   0  0  0  0  0  0  0  0  0  0  0  0
    3.3038    1.4410    1.0808 H   0  0  0  0  0  0  0  0  0  0  0  0
    1.7844    2.2410    1.5226 H   0  0  0  0  0  0  0  0  0  0  0  0
    2.4596    4.1376    0.2164 H   0  0  0  0  0  0  0  0  0  0  0  0
    3.9524    3.3035   -0.2397 H   0  0  0  0  0  0  0  0  0  0  0  0
    1.7543    4.1869   -2.1856 H   0  0  0  0  0  0  0  0  0  0  0  0
    3.2472    3.3545   -2.6411 H   0  0  0  0  0  0  0  0  0  0  0  0
    3.3178    4.9878   -1.9600 H   0  0  0  0  0  0  0  0  0  0  0  0
  1  2  1  0
  1  7  1  0
  1  8  1  0
  1  9  1  0
  2  3  1  0
  2 10  1  0
  2 11  1  0
  3  4  1  0
  3 12  1  0
  3 13  1  0
  4  5  1  0
  5  6  1  0
  5 14  1  0
  5 15  1  0
  6 16  1  0
  6 17  1  0
  6 18  1  0
M  END
>  <reaction>  (1) 
rmg_rxn_287

>  <mol_properties>  (1) 
{"4": {"label": "donator", "atom_type": "Cs"}, "13": {"label": "d_hydrogen", "atom_type": "H0"}}

>  <type>  (1) 
r1h

$$$$

     RDKit          3D

 17 16  0  0  0  0  0  0  0  0999 V2000
    3.3619    0.3511   -1.0290 C   0  0  0  0  0  3  0  0  0  0  0  0
    2.1806    1.0643   -0.5073 C   0  0  0  0  0  0  0  0  0  0  0  0
    1.4028    0.1998    0.2757 O   0  0  0  0  0  0  0  0  0  0  0  0
    0.2433    0.8081    0.7885 C   0  0  0  0  0  0  0  0  0  0  0  0
   -0.5040   -0.1878    1.6510 C   0  0  0  0  0  0  0  0  0  0  0  0
    0.2852   -0.6298    2.8762 C   0  0  0  0  0  0  0  0  0  0  0  0
    4.1174    0.8902   -1.5820 H   0  0  0  0  0  0  0  0  0  0  0  0
    3.4399   -0.7198   -0.9141 H   0  0  0  0  0  0  0  0  0  0  0  0
    1.5724    1.4684   -1.3398 H   0  0  0  0  0  0  0  0  0  0  0  0
    2.4896    1.9442    0.0856 H   0  0  0  0  0  0  0  0  0  0  0  0
    0.5169    1.6937    1.3835 H   0  0  0  0  0  0  0  0  0  0  0  0
   -0.3954    1.1528   -0.0379 H   0  0  0  0  0  0  0  0  0  0  0  0
   -0.7611   -1.0545    1.0367 H   0  0  0  0  0  0  0  0  0  0  0  0
   -1.4466    0.2743    1.9571 H   0  0  0  0  0  0  0  0  0  0  0  0
    0.5263    0.2245    3.5136 H   0  0  0  0  0  0  0  0  0  0  0  0
    1.2220   -1.1033    2.5825 H   0  0  0  0  0  0  0  0  0  0  0  0
   -0.2849   -1.3427    3.4737 H   0  0  0  0  0  0  0  0  0  0  0  0
  1  2  1  0
  1  7  1  0
  1  8  1  0
  2  3  1  0
  2  9  1  0
  2 10  1  0
  3  4  1  0
  4  5  1  0
  4 11  1  0
  4 12  1  0
  5  6  1  0
  5 13  1  0
  5 14  1  0
  6 15  1  0
  6 16  1  0
  6 17  1  0
M  RAD  1   1   2
M  END
>  <reaction>  (2) 
rmg_rxn_287

>  <mol_properties>  (2) 
{"0": {"label": "acceptor", "atom_type": "Cs"}}

>  <type>  (2) 
r2

$$$$

     RDKit          3D

 18 17  0  0  0  0  0  0  0  0999 V2000
    2.2026   -0.7213   -0.2612 C   0  0  0  0  0  0  0  0  0  0  0  0
    1.5384    0.2638    0.6915 C   0  0  0  0  0  0  0  0  0  0  0  0
    2.2584    1.5946    0.7694 C   0  0  0  0  0  0  0  0  0  0  0  0
    2.2212    2.2185   -0.4893 O   0  0  0  0  0  0  0  0  0  0  0  0
    2.8988    3.4488   -0.5204 C   0  0  0  0  0  0  0  0  0  0  0  0
    2.7981    4.0296   -1.9118 C   0  0  0  0  0  0  0  0  0  0  0  0
    3.2294   -0.9309    0.0486 H   0  0  0  0  0  0  0  0  0  0  0  0
    2.2338   -0.3181   -1.2734 H   0  0  0  0  0  0  0  0  0  0  0  0
    1.6610   -1.6680   -0.2875 H   0  0  0  0  0  0  0  0  0  0  0  0
    1.4990   -0.1566    1.7002 H   0  0  0  0  0  0  0  0  0  0  0  0
    0.5055    0.4455    0.3835 H   0  0  0  0  0  0  0  0  0  0  0  0
    3.3038    1.4410    1.0808 H   0  0  0  0  0  0  0  0  0  0  0  0
    1.7844    2.2410    1.5226 H   0  0  0  0  0  0  0  0  0  0  0  0
    2.4596    4.1376    0.2164 H   0  0  0  0  0  0  0  0  0  0  0  0
    3.9524    3.3035   -0.2397 H   0  0  0  0  0  0  0  0  0  0  0  0
    1.7543    4.1869   -2.1856 H   0  0  0  0  0  0  0  0  0  0  0  0
    3.2472    3.3545   -2.6411 H   0  0  0  0  0  0  0  0  0  0  0  0
    3.3178    4.9878   -1.9600 H   0  0  0  0  0  0  0  0  0  0  0  0
  1  2  1  0
  1  7  1  0
  1  8  1  0
  1  9  1  0
  2  3  1  0
  2 10  1  0
  2 11  1  0
  3  4  1  0
  3 12  1  0
  3 13  1  0
  4  5  1  0
  5  6  1  0
  5 14  1  0
  5 15  1  0
  6 16  1  0
  6 17  1  0
  6 18  1  0
M  END
>  <reaction>  (3) 
rmg_rxn_287

>  <mol_properties>  (3) 
{"0": {"label": "acceptor", "atom_type": "Cs"}, "17": {"label": "a_hydrogen", "atom_type": "H0"}}

>  <type>  (3) 
r2h

$$$$

     RDKit          3D

 35 33  0  0  0  0  0  0  0  0999 V2000
   -1.2833    0.6317    0.4065 C   0  0  0  0  0  3  0  0  0  0  0  0
   -0.0109    1.3185    0.7846 C   0  0  0  0  0  0  0  0  0  0  0  0
   -0.0163    1.6314    2.1609 O   0  0  0  0  0  0  0  0  0  0  0  0
    1.1577    2.2797    2.5830 C   0  0  0  0  0  0  0  0  0  0  0  0
    1.0808    2.5360    4.0742 C   0  0  0  0  0  0  0  0  0  0  0  0
    1.0106    1.2572    4.8982 C   0  0  0  0  0  0  0  0  0  0  0  0
   -1.4248   -0.3519    0.8481 H   0  0  0  0  0  0  0  0  0  0  0  0
   -2.1751    1.2511    0.4610 H   0  0  0  0  0  0  0  0  0  0  0  0
    0.1146    2.2409    0.1975 H   0  0  0  0  0  0  0  0  0  0  0  0
    0.8529    0.6741    0.5586 H   0  0  0  0  0  0  0  0  0  0  0  0
    2.0353    1.6547    2.3520 H   0  0  0  0  0  0  0  0  0  0  0  0
    1.2799    3.2279    2.0388 H   0  0  0  0  0  0  0  0  0  0  0  0
    0.2058    3.1597    4.2745 H   0  0  0  0  0  0  0  0  0  0  0  0
    1.9593    3.1207    4.3609 H   0  0  0  0  0  0  0  0  0  0  0  0
    1.8912    0.6334    4.7250 H   0  0  0  0  0  0  0  0  0  0  0  0
    0.1292    0.6742    4.6314 H   0  0  0  0  0  0  0  0  0  0  0  0
    0.9629    1.4798    5.9652 H   0  0  0  0  0  0  0  0  0  0  0  0
    0.7679   -3.5394   -3.4832 C   0  0  0  0  0  0  0  0  0  0  0  0
    0.6677   -3.1797   -2.0069 C   0  0  0  0  0  0  0  0  0  0  0  0
    0.4601   -1.6995   -1.7663 C   0  0  0  0  0  0  0  0  0  0  0  0
   -0.7739   -1.3055   -2.3254 O   0  0  0  0  0  0  0  0  0  0  0  0
   -1.0267    0.0494   -2.2364 C   0  0  0  0  0  0  0  0  0  0  0  0
   -2.3285    0.4024   -2.8929 C   0  0  0  0  0  0  0  0  0  0  0  0
    1.6044   -3.0186   -3.9557 H   0  0  0  0  0  0  0  0  0  0  0  0
   -0.1432   -3.2598   -4.0124 H   0  0  0  0  0  0  0  0  0  0  0  0
    0.9231   -4.6109   -3.6159 H   0  0  0  0  0  0  0  0  0  0  0  0
    1.5802   -3.4780   -1.4836 H   0  0  0  0  0  0  0  0  0  0  0  0
   -0.1564   -3.7262   -1.5414 H   0  0  0  0  0  0  0  0  0  0  0  0
    1.2741   -1.1190   -2.2259 H   0  0  0  0  0  0  0  0  0  0  0  0
    0.4627   -1.4805   -0.6909 H   0  0  0  0  0  0  0  0  0  0  0  0
   -1.1420    0.3547   -0.9881 H   0  0  0  0  0  0  0  0  0  0  0  0
   -0.1753    0.6522   -2.5819 H   0  0  0  0  0  0  0  0  0  0  0  0
   -3.1470   -0.1582   -2.4386 H   0  0  0  0  0  0  0  0  0  0  0  0
   -2.3075    0.1720   -3.9610 H   0  0  0  0  0  0  0  0  0  0  0  0
   -2.5302    1.4677   -2.7731 H   0  0  0  0  0  0  0  0  0  0  0  0
  1  2  1  0
  1  7  1  0
  1  8  1  0
  2  3  1  0
  2  9  1  0
  2 10  1  0
  3  4  1  0
  4  5  1  0
  4 11  1  0
  4 12  1  0
  5  6  1  0
  5 13  1  0
  5 14  1  0
  6 15  1  0
  6 16  1  0
  6 17  1  0
 18 19  1  0
 18 24  1  0
 18 25  1  0
 18 26  1  0
 19 20  1  0
 19 27  1  0
 19 28  1  0
 20 21  1  0
 20 29  1  0
 20 30  1  0
 21 22  1  0
 22 23  1  0
 22 31  1  0
 22 32  1  0
 23 33  1  0
 23 34  1  0
 23 35  1  0
M  RAD  1   1   2
M  END
>  <reaction>  (4) 
rmg_rxn_287

>  <mol_properties>  (4) 
{"0": {"label": "*3", "atom_type": "Cs"}, "1": {"label": "*4", "atom_type": "Cs"}, "20": {"label": "*0", "atom_type": "O2s"}, "21": {"label": "*1", "atom_type": "Cs"}, "30": {"label": "*2", "atom_type": "H0"}}

>  <type>  (4) 
ts

$$$$

     RDKit          3D

 35 33  0  0  0  0  0  0  0  0999 V2000
   -0.6678   -0.0334    0.6529 C   0  0  0  0  0  0  0  0  0  0  0  0
    0.5323    0.7676    1.1019 C   0  0  0  0  0  0  0  0  0  0  0  0
    0.1854    1.5079    2.2443 O   0  0  0  0  0  0  0  0  0  0  0  0
    1.2414    2.2901    2.7423 C   0  0  0  0  0  0  0  0  0  0  0  0
    0.7831    3.0165    3.9903 C   0  0  0  0  0  0  0  0  0  0  0  0
    0.4132    2.0752    5.1289 C   0  0  0  0  0  0  0  0  0  0  0  0
   -0.9870   -0.7174    1.4401 H   0  0  0  0  0  0  0  0  0  0  0  0
   -1.5009    0.6282    0.4133 H   0  0  0  0  0  0  0  0  0  0  0  0
    0.8631    1.4459    0.3014 H   0  0  0  0  0  0  0  0  0  0  0  0
    1.3765    0.1003    1.3299 H   0  0  0  0  0  0  0  0  0  0  0  0
    2.1060    1.6482    2.9746 H   0  0  0  0  0  0  0  0  0  0  0  0
    1.5661    3.0120    1.9785 H   0  0  0  0  0  0  0  0  0  0  0  0
   -0.0720    3.6462    3.7311 H   0  0  0  0  0  0  0  0  0  0  0  0
    1.5877    3.6877    4.3032 H   0  0  0  0  0  0  0  0  0  0  0  0
    1.2666    1.4554    5.4149 H   0  0  0  0  0  0  0  0  0  0  0  0
   -0.3987    1.4111    4.8326 H   0  0  0  0  0  0  0  0  0  0  0  0
    0.0937    2.6324    6.0108 H   0  0  0  0  0  0  0  0  0  0  0  0
    0.4252   -3.4150   -4.2035 C   0  0  0  0  0  0  0  0  0  0  0  0
    0.4252   -3.4150   -2.6806 C   0  0  0  0  0  0  0  0  0  0  0  0
    0.4252   -2.0219   -2.0850 C   0  0  0  0  0  0  0  0  0  0  0  0
   -0.7578   -1.3583   -2.4526 O   0  0  0  0  0  0  0  0  0  0  0  0
   -0.8285   -0.0403   -1.9717 C   0  0  0  0  0  3  0  0  0  0  0  0
   -2.1319    0.5775   -2.4226 C   0  0  0  0  0  0  0  0  0  0  0  0
    1.3072   -2.9006   -4.5931 H   0  0  0  0  0  0  0  0  0  0  0  0
   -0.4575   -2.9053   -4.5895 H   0  0  0  0  0  0  0  0  0  0  0  0
    0.4307   -4.4328   -4.5961 H   0  0  0  0  0  0  0  0  0  0  0  0
    1.3067   -3.9414   -2.3043 H   0  0  0  0  0  0  0  0  0  0  0  0
   -0.4492   -3.9529   -2.3053 H   0  0  0  0  0  0  0  0  0  0  0  0
    1.2994   -1.4568   -2.4454 H   0  0  0  0  0  0  0  0  0  0  0  0
    0.5000   -2.0758   -0.9890 H   0  0  0  0  0  0  0  0  0  0  0  0
   -0.7478   -0.0368   -0.6540 H   0  0  0  0  0  0  0  0  0  0  0  0
    0.0243    0.5427   -2.3496 H   0  0  0  0  0  0  0  0  0  0  0  0
   -2.9782    0.0081   -2.0369 H   0  0  0  0  0  0  0  0  0  0  0  0
   -2.1927    0.5894   -3.5114 H   0  0  0  0  0  0  0  0  0  0  0  0
   -2.2095    1.6036   -2.0595 H   0  0  0  0  0  0  0  0  0  0  0  0
  1  2  1  0
  1  7  1  0
  1  8  1  0
  1 31  1  0
  2  3  1  0
  2  9  1  0
  2 10  1  0
  3  4  1  0
  4  5  1  0
  4 11  1  0
  4 12  1  0
  5  6  1  0
  5 13  1  0
  5 14  1  0
  6 15  1  0
  6 16  1  0
  6 17  1  0
 18 19  1  0
 18 24  1  0
 18 25  1  0
 18 26  1  0
 19 20  1  0
 19 27  1  0
 19 28  1  0
 20 21  1  0
 20 29  1  0
 20 30  1  0
 21 22  1  0
 22 23  1  0
 22 32  1  0
 23 33  1  0
 23 34  1  0
 23 35  1  0
M  RAD  1  22   2
M  END
>  <reaction>  (5) 
rmg_rxn_287

>  <mol_properties>  (5) 
{"0": {"label": "*3", "atom_type": "Cs"}, "1": {"label": "*4", "atom_type": "Cs"}, "20": {"label": "*0", "atom_type": "O2s"}, "21": {"label": "*1", "atom_type": "Cs"}, "30": {"label": "*2", "atom_type": "H0"}}

>  <type>  (5) 
unop_1

>  <geom_source>  (5) 
Heuristics

$$$$

     RDKit          3D

 35 33  0  0  0  0  0  0  0  0999 V2000
   -0.7676    1.3859    0.5606 C   0  0  0  0  0  0  0  0  0  0  0  0
    0.0628    0.2169    1.0374 C   0  0  0  0  0  0  0  0  0  0  0  0
    0.4806    0.4616    2.3561 O   0  0  0  0  0  0  0  0  0  0  0  0
    1.2632   -0.5748    2.8931 C   0  0  0  0  0  0  0  0  0  0  0  0
    1.6298   -0.2374    4.3239 C   0  0  0  0  0  0  0  0  0  0  0  0
    0.4202   -0.1343    5.2433 C   0  0  0  0  0  0  0  0  0  0  0  0
   -1.6442    1.5164    1.1960 H   0  0  0  0  0  0  0  0  0  0  0  0
   -0.1830    2.3062    0.5877 H   0  0  0  0  0  0  0  0  0  0  0  0
    0.9384    0.0764    0.3863 H   0  0  0  0  0  0  0  0  0  0  0  0
   -0.5233   -0.7131    0.9965 H   0  0  0  0  0  0  0  0  0  0  0  0
    0.7035   -1.5229    2.8599 H   0  0  0  0  0  0  0  0  0  0  0  0
    2.1721   -0.7104    2.2885 H   0  0  0  0  0  0  0  0  0  0  0  0
    2.1850    0.7041    4.3272 H   0  0  0  0  0  0  0  0  0  0  0  0
    2.3136   -1.0098    4.6868 H   0  0  0  0  0  0  0  0  0  0  0  0
   -0.1316   -1.0773    5.2684 H   0  0  0  0  0  0  0  0  0  0  0  0
   -0.2614    0.6435    4.8989 H   0  0  0  0  0  0  0  0  0  0  0  0
    0.7221    0.1040    6.2642 H   0  0  0  0  0  0  0  0  0  0  0  0
    0.3254   -1.9956   -4.2958 C   0  0  0  0  0  0  0  0  0  0  0  0
    0.3254   -1.9956   -2.7729 C   0  0  0  0  0  0  0  0  0  0  0  0
    0.3254   -0.6025   -2.1773 C   0  0  0  0  0  0  0  0  0  0  0  0
   -0.8576    0.0611   -2.5449 O   0  0  0  0  0  0  0  0  0  0  0  0
   -0.9283    1.3791   -2.0640 C   0  0  0  0  0  3  0  0  0  0  0  0
   -2.2316    1.9969   -2.5149 C   0  0  0  0  0  0  0  0  0  0  0  0
    1.2075   -1.4813   -4.6854 H   0  0  0  0  0  0  0  0  0  0  0  0
   -0.5573   -1.4859   -4.6818 H   0  0  0  0  0  0  0  0  0  0  0  0
    0.3309   -3.0135   -4.6884 H   0  0  0  0  0  0  0  0  0  0  0  0
    1.2069   -2.5221   -2.3966 H   0  0  0  0  0  0  0  0  0  0  0  0
   -0.5490   -2.5336   -2.3976 H   0  0  0  0  0  0  0  0  0  0  0  0
    1.1996   -0.0375   -2.5377 H   0  0  0  0  0  0  0  0  0  0  0  0
    0.4002   -0.6565   -1.0813 H   0  0  0  0  0  0  0  0  0  0  0  0
   -0.8476    1.3825   -0.7463 H   0  0  0  0  0  0  0  0  0  0  0  0
   -0.0755    1.9621   -2.4419 H   0  0  0  0  0  0  0  0  0  0  0  0
   -3.0780    1.4275   -2.1292 H   0  0  0  0  0  0  0  0  0  0  0  0
   -2.2924    2.0088   -3.6037 H   0  0  0  0  0  0  0  0  0  0  0  0
   -2.3093    3.0229   -2.1518 H   0  0  0  0  0  0  0  0  0  0  0  0
  1  2  1  0
  1  7  1  0
  1  8  1  0
  1 31  1  0
  2  3  1  0
  2  9  1  0
  2 10  1  0
  3  4  1  0
  4  5  1  0
  4 11  1  0
  4 12  1  0
  5  6  1  0
  5 13  1  0
  5 14  1  0
  6 15  1  0
  6 16  1  0
  6 17  1  0
 18 19  1  0
 18 24  1  0
 18 25  1  0
 18 26  1  0
 19 20  1  0
 19 27  1  0
 19 28  1  0
 20 21  1  0
 20 29  1  0
 20 30  1  0
 21 22  1  0
 22 23  1  0
 22 32  1  0
 23 33  1  0
 23 34  1  0
 23 35  1  0
M  RAD  1  22   2
M  END
>  <reaction>  (6) 
rmg_rxn_287

>  <mol_properties>  (6) 
{"0": {"label": "*3", "atom_type": "Cs"}, "1": {"label": "*4", "atom_type": "Cs"}, "20": {"label": "*0", "atom_type": "O2s"}, "21": {"label": "*1", "atom_type": "Cs"}, "30": {"label": "*2", "atom_type": "H0"}}

>  <type>  (6) 
unop_2

>  <geom_source>  (6) 
Heuristics

$$$$

     RDKit          3D

 35 33  0  0  0  0  0  0  0  0999 V2000
   -0.3135   -0.0837    0.5701 C   0  0  0  0  0  0  0  0  0  0  0  0
    0.3309    1.1954    1.0519 C   0  0  0  0  0  0  0  0  0  0  0  0
   -0.1500    1.4924    2.3380 O   0  0  0  0  0  0  0  0  0  0  0  0
    0.3939    2.6709    2.8769 C   0  0  0  0  0  0  0  0  0  0  0  0
   -0.1533    2.8834    4.2736 C   0  0  0  0  0  0  0  0  0  0  0  0
    0.2433    1.7805    5.2461 C   0  0  0  0  0  0  0  0  0  0  0  0
   -0.0741   -0.9088    1.2418 H   0  0  0  0  0  0  0  0  0  0  0  0
   -1.3979    0.0255    0.5321 H   0  0  0  0  0  0  0  0  0  0  0  0
    0.1018    2.0237    0.3651 H   0  0  0  0  0  0  0  0  0  0  0  0
    1.4255    1.0889    1.0766 H   0  0  0  0  0  0  0  0  0  0  0  0
    1.4925    2.5962    2.9087 H   0  0  0  0  0  0  0  0  0  0  0  0
    0.1429    3.5278    2.2347 H   0  0  0  0  0  0  0  0  0  0  0  0
   -1.2422    2.9562    4.2125 H   0  0  0  0  0  0  0  0  0  0  0  0
    0.2093    3.8504    4.6332 H   0  0  0  0  0  0  0  0  0  0  0  0
    1.3303    1.7122    5.3355 H   0  0  0  0  0  0  0  0  0  0  0  0
   -0.1262    0.8135    4.9047 H   0  0  0  0  0  0  0  0  0  0  0  0
   -0.1631    1.9693    6.2408 H   0  0  0  0  0  0  0  0  0  0  0  0
    0.7795   -3.4652   -4.2862 C   0  0  0  0  0  0  0  0  0  0  0  0
    0.7795   -3.4652   -2.7633 C   0  0  0  0  0  0  0  0  0  0  0  0
    0.7795   -2.0722   -2.1678 C   0  0  0  0  0  0  0  0  0  0  0  0
   -0.4035   -1.4086   -2.5354 O   0  0  0  0  0  0  0  0  0  0  0  0
   -0.4742   -0.0905   -2.0545 C   0  0  0  0  0  3  0  0  0  0  0  0
   -1.7776    0.5273   -2.5053 C   0  0  0  0  0  0  0  0  0  0  0  0
    1.6615   -2.9509   -4.6758 H   0  0  0  0  0  0  0  0  0  0  0  0
   -0.1032   -2.9556   -4.6723 H   0  0  0  0  0  0  0  0  0  0  0  0
    0.7850   -4.4831   -4.6789 H   0  0  0  0  0  0  0  0  0  0  0  0
    1.6610   -3.9917   -2.3870 H   0  0  0  0  0  0  0  0  0  0  0  0
   -0.0949   -4.0032   -2.3880 H   0  0  0  0  0  0  0  0  0  0  0  0
    1.6537   -1.5071   -2.5282 H   0  0  0  0  0  0  0  0  0  0  0  0
    0.8543   -2.1261   -1.0718 H   0  0  0  0  0  0  0  0  0  0  0  0
   -0.3935   -0.0871   -0.7368 H   0  0  0  0  0  0  0  0  0  0  0  0
    0.3786    0.4925   -2.4324 H   0  0  0  0  0  0  0  0  0  0  0  0
   -2.6239   -0.0421   -2.1197 H   0  0  0  0  0  0  0  0  0  0  0  0
   -1.8384    0.5391   -3.5942 H   0  0  0  0  0  0  0  0  0  0  0  0
   -1.8552    1.5533   -2.1423 H   0  0  0  0  0  0  0  0  0  0  0  0
  1  2  1  0
  1  7  1  0
  1  8  1  0
  1 31  1  0
  2  3  1  0
  2  9  1  0
  2 10  1  0
  3  4  1  0
  4  5  1  0
  4 11  1  0
  4 12  1  0
  5  6  1  0
  5 13  1  0
  5 14  1  0
  6 15  1  0
  6 16  1  0
  6 17  1  0
 18 19  1  0
 18 24  1  0
 18 25  1  0
 18 26  1  0
 19 20  1  0
 19 27  1  0
 19 28  1  0
 20 21  1  0
 20 29  1  0
 20 30  1  0
 21 22  1  0
 22 23  1  0
 22 32  1  0
 23 33  1  0
 23 34  1  0
 23 35  1  0
M  RAD  1  22   2
M  END
>  <reaction>  (7) 
rmg_rxn_287

>  <mol_properties>  (7) 
{"0": {"label": "*3", "atom_type": "Cs"}, "1": {"label": "*4", "atom_type": "Cs"}, "20": {"label": "*0", "atom_type": "O2s"}, "21": {"label": "*1", "atom_type": "Cs"}, "30": {"label": "*2", "atom_type": "H0"}}

>  <type>  (7) 
unop_3

>  <geom_source>  (7) 
Heuristics

$$$$

     RDKit          3D

 35 33  0  0  0  0  0  0  0  0999 V2000
    0.8251    0.8619    0.6278 C   0  0  0  0  0  0  0  0  0  0  0  0
   -0.3110    0.0636    1.2241 C   0  0  0  0  0  0  0  0  0  0  0  0
   -0.6594    0.6225    2.4650 O   0  0  0  0  0  0  0  0  0  0  0  0
   -1.7140   -0.0529    3.1028 C   0  0  0  0  0  0  0  0  0  0  0  0
   -2.0405    0.6446    4.4075 C   0  0  0  0  0  0  0  0  0  0  0  0
   -2.5390    2.0707    4.2155 C   0  0  0  0  0  0  0  0  0  0  0  0
    0.5269    1.9008    0.4822 H   0  0  0  0  0  0  0  0  0  0  0  0
    1.6933    0.8424    1.2875 H   0  0  0  0  0  0  0  0  0  0  0  0
   -0.0145   -0.9875    1.3560 H   0  0  0  0  0  0  0  0  0  0  0  0
   -1.1815    0.0723    0.5516 H   0  0  0  0  0  0  0  0  0  0  0  0
   -2.6004   -0.0659    2.4491 H   0  0  0  0  0  0  0  0  0  0  0  0
   -1.4305   -1.0990    3.2903 H   0  0  0  0  0  0  0  0  0  0  0  0
   -1.1464    0.6411    5.0363 H   0  0  0  0  0  0  0  0  0  0  0  0
   -2.7958    0.0487    4.9274 H   0  0  0  0  0  0  0  0  0  0  0  0
   -3.4473    2.0874    3.6079 H   0  0  0  0  0  0  0  0  0  0  0  0
   -1.7874    2.6778    3.7111 H   0  0  0  0  0  0  0  0  0  0  0  0
   -2.7689    2.5387    5.1738 H   0  0  0  0  0  0  0  0  0  0  0  0
    1.9181   -2.5196   -4.2285 C   0  0  0  0  0  0  0  0  0  0  0  0
    1.9181   -2.5196   -2.7056 C   0  0  0  0  0  0  0  0  0  0  0  0
    1.9181   -1.1265   -2.1101 C   0  0  0  0  0  0  0  0  0  0  0  0
    0.7351   -0.4630   -2.4777 O   0  0  0  0  0  0  0  0  0  0  0  0
    0.6644    0.8551   -1.9968 C   0  0  0  0  0  3  0  0  0  0  0  0
   -0.6390    1.4729   -2.4476 C   0  0  0  0  0  0  0  0  0  0  0  0
    2.8001   -2.0053   -4.6181 H   0  0  0  0  0  0  0  0  0  0  0  0
    1.0354   -2.0099   -4.6146 H   0  0  0  0  0  0  0  0  0  0  0  0
    1.9236   -3.5375   -4.6212 H   0  0  0  0  0  0  0  0  0  0  0  0
    2.7996   -3.0461   -2.3293 H   0  0  0  0  0  0  0  0  0  0  0  0
    1.0437   -3.0576   -2.3303 H   0  0  0  0  0  0  0  0  0  0  0  0
    2.7923   -0.5615   -2.4705 H   0  0  0  0  0  0  0  0  0  0  0  0
    1.9929   -1.1805   -1.0140 H   0  0  0  0  0  0  0  0  0  0  0  0
    0.7451    0.8585   -0.6791 H   0  0  0  0  0  0  0  0  0  0  0  0
    1.5172    1.4381   -2.3747 H   0  0  0  0  0  0  0  0  0  0  0  0
   -1.4853    0.9035   -2.0619 H   0  0  0  0  0  0  0  0  0  0  0  0
   -0.6998    1.4847   -3.5364 H   0  0  0  0  0  0  0  0  0  0  0  0
   -0.7166    2.4989   -2.0846 H   0  0  0  0  0  0  0  0  0  0  0  0
  1  2  1  0
  1  7  1  0
  1  8  1  0
  1 31  1  0
  2  3  1  0
  2  9  1  0
  2 10  1  0
  3  4  1  0
  4  5  1  0
  4 11  1  0
  4 12  1  0
  5  6  1  0
  5 13  1  0
  5 14  1  0
  6 15  1  0
  6 16  1  0
  6 17  1  0
 18 19  1  0
 18 24  1  0
 18 25  1  0
 18 26  1  0
 19 20  1  0
 19 27  1  0
 19 28  1  0
 20 21  1  0
 20 29  1  0
 20 30  1  0
 21 22  1  0
 22 23  1  0
 22 32  1  0
 23 33  1  0
 23 34  1  0
 23 35  1  0
M  RAD  1  22   2
M  END
>  <reaction>  (8) 
rmg_rxn_287

>  <mol_properties>  (8) 
{"0": {"label": "*3", "atom_type": "Cs"}, "1": {"label": "*4", "atom_type": "Cs"}, "20": {"label": "*0", "atom_type": "O2s"}, "21": {"label": "*1", "atom_type": "Cs"}, "30": {"label": "*2", "atom_type": "H0"}}

>  <type>  (8) 
unop_4

>  <geom_source>  (8) 
Heuristics

$$$$

     RDKit          3D

 35 33  0  0  0  0  0  0  0  0999 V2000
   -0.2489   -0.0432    0.5299 C   0  0  0  0  0  0  0  0  0  0  0  0
   -0.3243    1.3716    1.0555 C   0  0  0  0  0  0  0  0  0  0  0  0
   -0.2368    1.3430    2.4573 O   0  0  0  0  0  0  0  0  0  0  0  0
   -0.2968    2.6183    3.0446 C   0  0  0  0  0  0  0  0  0  0  0  0
   -0.1555    2.4862    4.5472 C   0  0  0  0  0  0  0  0  0  0  0  0
    1.1898    1.9140    4.9740 C   0  0  0  0  0  0  0  0  0  0  0  0
    0.6931   -0.5093    0.8209 H   0  0  0  0  0  0  0  0  0  0  0  0
   -1.0674   -0.6432    0.9292 H   0  0  0  0  0  0  0  0  0  0  0  0
   -1.2680    1.8462    0.7481 H   0  0  0  0  0  0  0  0  0  0  0  0
    0.4935    1.9797    0.6413 H   0  0  0  0  0  0  0  0  0  0  0  0
    0.5087    3.2539    2.6437 H   0  0  0  0  0  0  0  0  0  0  0  0
   -1.2516    3.1028    2.7926 H   0  0  0  0  0  0  0  0  0  0  0  0
   -0.9667    1.8543    4.9179 H   0  0  0  0  0  0  0  0  0  0  0  0
   -0.2995    3.4771    4.9868 H   0  0  0  0  0  0  0  0  0  0  0  0
    2.0100    2.5492    4.6303 H   0  0  0  0  0  0  0  0  0  0  0  0
    1.3373    0.9195    4.5531 H   0  0  0  0  0  0  0  0  0  0  0  0
    1.2576    1.8385    6.0602 H   0  0  0  0  0  0  0  0  0  0  0  0
    0.8440   -3.4247   -4.3264 C   0  0  0  0  0  0  0  0  0  0  0  0
    0.8440   -3.4247   -2.8035 C   0  0  0  0  0  0  0  0  0  0  0  0
    0.8440   -2.0317   -2.2080 C   0  0  0  0  0  0  0  0  0  0  0  0
   -0.3390   -1.3681   -2.5756 O   0  0  0  0  0  0  0  0  0  0  0  0
   -0.4097   -0.0500   -2.0947 C   0  0  0  0  0  3  0  0  0  0  0  0
   -1.7130    0.5678   -2.5455 C   0  0  0  0  0  0  0  0  0  0  0  0
    1.7261   -2.9104   -4.7160 H   0  0  0  0  0  0  0  0  0  0  0  0
   -0.0387   -2.9150   -4.7125 H   0  0  0  0  0  0  0  0  0  0  0  0
    0.8495   -4.4426   -4.7191 H   0  0  0  0  0  0  0  0  0  0  0  0
    1.7255   -3.9512   -2.4272 H   0  0  0  0  0  0  0  0  0  0  0  0
   -0.0304   -3.9627   -2.4282 H   0  0  0  0  0  0  0  0  0  0  0  0
    1.7182   -1.4666   -2.5683 H   0  0  0  0  0  0  0  0  0  0  0  0
    0.9188   -2.0856   -1.1119 H   0  0  0  0  0  0  0  0  0  0  0  0
   -0.3290   -0.0466   -0.7770 H   0  0  0  0  0  0  0  0  0  0  0  0
    0.4432    0.5330   -2.4725 H   0  0  0  0  0  0  0  0  0  0  0  0
   -2.5594   -0.0016   -2.1598 H   0  0  0  0  0  0  0  0  0  0  0  0
   -1.7738    0.5796   -3.6343 H   0  0  0  0  0  0  0  0  0  0  0  0
   -1.7906    1.5938   -2.1824 H   0  0  0  0  0  0  0  0  0  0  0  0
  1  2  1  0
  1  7  1  0
  1  8  1  0
  1 31  1  0
  2  3  1  0
  2  9  1  0
  2 10  1  0
  3  4  1  0
  4  5  1  0
  4 11  1  0
  4 12  1  0
  5  6  1  0
  5 13  1  0
  5 14  1  0
  6 15  1  0
  6 16  1  0
  6 17  1  0
 18 19  1  0
 18 24  1  0
 18 25  1  0
 18 26  1  0
 19 20  1  0
 19 27  1  0
 19 28  1  0
 20 21  1  0
 20 29  1  0
 20 30  1  0
 21 22  1  0
 22 23  1  0
 22 32  1  0
 23 33  1  0
 23 34  1  0
 23 35  1  0
M  RAD  1  22   2
M  END
>  <reaction>  (9) 
rmg_rxn_287

>  <mol_properties>  (9) 
{"0": {"label": "*3", "atom_type": "Cs"}, "1": {"label": "*4", "atom_type": "Cs"}, "20": {"label": "*0", "atom_type": "O2s"}, "21": {"label": "*1", "atom_type": "Cs"}, "30": {"label": "*2", "atom_type": "H0"}}

>  <type>  (9) 
unop_5

>  <geom_source>  (9) 
Heuristics

$$$$

     RDKit          3D

 35 33  0  0  0  0  0  0  0  0999 V2000
    0.7629    0.2735    0.6996 C   0  0  0  0  0  0  0  0  0  0  0  0
   -0.6159    0.1675    1.3089 C   0  0  0  0  0  0  0  0  0  0  0  0
   -0.6812    1.0009    2.4379 O   0  0  0  0  0  0  0  0  0  0  0  0
   -1.9317    0.9730    3.0784 C   0  0  0  0  0  0  0  0  0  0  0  0
   -1.9150    1.9283    4.2542 C   0  0  0  0  0  0  0  0  0  0  0  0
   -1.7104    3.3803    3.8429 C   0  0  0  0  0  0  0  0  0  0  0  0
    0.9699    1.3012    0.3990 H   0  0  0  0  0  0  0  0  0  0  0  0
    1.5230   -0.0346    1.4183 H   0  0  0  0  0  0  0  0  0  0  0  0
   -0.8299   -0.8724    1.5973 H   0  0  0  0  0  0  0  0  0  0  0  0
   -1.3829    0.4651    0.5787 H   0  0  0  0  0  0  0  0  0  0  0  0
   -2.7230    1.2614    2.3684 H   0  0  0  0  0  0  0  0  0  0  0  0
   -2.1555   -0.0482    3.4202 H   0  0  0  0  0  0  0  0  0  0  0  0
   -1.1243    1.6182    4.9422 H   0  0  0  0  0  0  0  0  0  0  0  0
   -2.8621    1.8189    4.7898 H   0  0  0  0  0  0  0  0  0  0  0  0
   -2.5079    3.7116    3.1730 H   0  0  0  0  0  0  0  0  0  0  0  0
   -0.7616    3.5036    3.3208 H   0  0  0  0  0  0  0  0  0  0  0  0
   -1.7093    4.0385    4.7130 H   0  0  0  0  0  0  0  0  0  0  0  0
    1.8559   -3.1081   -4.1567 C   0  0  0  0  0  0  0  0  0  0  0  0
    1.8559   -3.1081   -2.6338 C   0  0  0  0  0  0  0  0  0  0  0  0
    1.8559   -1.7150   -2.0383 C   0  0  0  0  0  0  0  0  0  0  0  0
    0.6729   -1.0514   -2.4059 O   0  0  0  0  0  0  0  0  0  0  0  0
    0.6021    0.2666   -1.9250 C   0  0  0  0  0  3  0  0  0  0  0  0
   -0.7012    0.8844   -2.3759 C   0  0  0  0  0  0  0  0  0  0  0  0
    2.7379   -2.5938   -4.5464 H   0  0  0  0  0  0  0  0  0  0  0  0
    0.9731   -2.5984   -4.5428 H   0  0  0  0  0  0  0  0  0  0  0  0
    1.8613   -4.1259   -4.5494 H   0  0  0  0  0  0  0  0  0  0  0  0
    2.7374   -3.6346   -2.2576 H   0  0  0  0  0  0  0  0  0  0  0  0
    0.9815   -3.6461   -2.2586 H   0  0  0  0  0  0  0  0  0  0  0  0
    2.7301   -1.1499   -2.3987 H   0  0  0  0  0  0  0  0  0  0  0  0
    1.9306   -1.7689   -0.9423 H   0  0  0  0  0  0  0  0  0  0  0  0
    0.6828    0.2701   -0.6073 H   0  0  0  0  0  0  0  0  0  0  0  0
    1.4550    0.8496   -2.3029 H   0  0  0  0  0  0  0  0  0  0  0  0
   -1.5475    0.3150   -1.9902 H   0  0  0  0  0  0  0  0  0  0  0  0
   -0.7620    0.8963   -3.4647 H   0  0  0  0  0  0  0  0  0  0  0  0
   -0.7788    1.9104   -2.0128 H   0  0  0  0  0  0  0  0  0  0  0  0
  1  2  1  0
  1  7  1  0
  1  8  1  0
  1 31  1  0
  2  3  1  0
  2  9  1  0
  2 10  1  0
  3  4  1  0
  4  5  1  0
  4 11  1  0
  4 12  1  0
  5  6  1  0
  5 13  1  0
  5 14  1  0
  6 15  1  0
  6 16  1  0
  6 17  1  0
 18 19  1  0
 18 24  1  0
 18 25  1  0
 18 26  1  0
 19 20  1  0
 19 27  1  0
 19 28  1  0
 20 21  1  0
 20 29  1  0
 20 30  1  0
 21 22  1  0
 22 23  1  0
 22 32  1  0
 23 33  1  0
 23 34  1  0
 23 35  1  0
M  RAD  1  22   2
M  END
>  <reaction>  (10) 
rmg_rxn_287

>  <mol_properties>  (10) 
{"0": {"label": "*3", "atom_type": "Cs"}, "1": {"label": "*4", "atom_type": "Cs"}, "20": {"label": "*0", "atom_type": "O2s"}, "21": {"label": "*1", "atom_type": "Cs"}, "30": {"label": "*2", "atom_type": "H0"}}

>  <type>  (10) 
unop_6

>  <geom_source>  (10) 
Heuristics

$$$$

     RDKit          3D

 35 33  0  0  0  0  0  0  0  0999 V2000
    0.3817   -0.1339    0.7262 C   0  0  0  0  0  0  0  0  0  0  0  0
   -0.8617    0.4813    1.3253 C   0  0  0  0  0  0  0  0  0  0  0  0
   -0.4940    1.2747    2.4248 O   0  0  0  0  0  0  0  0  0  0  0  0
   -1.5872    1.8948    3.0537 C   0  0  0  0  0  0  0  0  0  0  0  0
   -1.0873    2.7547    4.1965 C   0  0  0  0  0  0  0  0  0  0  0  0
   -0.1908    3.8973    3.7382 C   0  0  0  0  0  0  0  0  0  0  0  0
    1.0702    0.6436    0.3930 H   0  0  0  0  0  0  0  0  0  0  0  0
    0.8938   -0.7545    1.4623 H   0  0  0  0  0  0  0  0  0  0  0  0
   -1.5624   -0.3037    1.6467 H   0  0  0  0  0  0  0  0  0  0  0  0
   -1.3851    1.0959    0.5780 H   0  0  0  0  0  0  0  0  0  0  0  0
   -2.1360    2.5142    2.3267 H   0  0  0  0  0  0  0  0  0  0  0  0
   -2.2866    1.1327    3.4277 H   0  0  0  0  0  0  0  0  0  0  0  0
   -0.5500    2.1160    4.9023 H   0  0  0  0  0  0  0  0  0  0  0  0
   -1.9587    3.1495    4.7263 H   0  0  0  0  0  0  0  0  0  0  0  0
   -0.7232    4.5583    3.0498 H   0  0  0  0  0  0  0  0  0  0  0  0
    0.6891    3.5141    3.2215 H   0  0  0  0  0  0  0  0  0  0  0  0
    0.1451    4.4970    4.5854 H   0  0  0  0  0  0  0  0  0  0  0  0
    1.4747   -3.5154   -4.1301 C   0  0  0  0  0  0  0  0  0  0  0  0
    1.4747   -3.5154   -2.6072 C   0  0  0  0  0  0  0  0  0  0  0  0
    1.4747   -2.1224   -2.0117 C   0  0  0  0  0  0  0  0  0  0  0  0
    0.2917   -1.4588   -2.3793 O   0  0  0  0  0  0  0  0  0  0  0  0
    0.2210   -0.1407   -1.8984 C   0  0  0  0  0  3  0  0  0  0  0  0
   -1.0824    0.4771   -2.3492 C   0  0  0  0  0  0  0  0  0  0  0  0
    2.3568   -3.0011   -4.5198 H   0  0  0  0  0  0  0  0  0  0  0  0
    0.5920   -3.0057   -4.5162 H   0  0  0  0  0  0  0  0  0  0  0  0
    1.4802   -4.5333   -4.5228 H   0  0  0  0  0  0  0  0  0  0  0  0
    2.3562   -4.0419   -2.2310 H   0  0  0  0  0  0  0  0  0  0  0  0
    0.6003   -4.0534   -2.2320 H   0  0  0  0  0  0  0  0  0  0  0  0
    2.3489   -1.5573   -2.3721 H   0  0  0  0  0  0  0  0  0  0  0  0
    1.5495   -2.1763   -0.9157 H   0  0  0  0  0  0  0  0  0  0  0  0
    0.3017   -0.1373   -0.5807 H   0  0  0  0  0  0  0  0  0  0  0  0
    1.0738    0.4423   -2.2763 H   0  0  0  0  0  0  0  0  0  0  0  0
   -1.9287   -0.0923   -1.9636 H   0  0  0  0  0  0  0  0  0  0  0  0
   -1.1432    0.4889   -3.4381 H   0  0  0  0  0  0  0  0  0  0  0  0
   -1.1600    1.5031   -1.9862 H   0  0  0  0  0  0  0  0  0  0  0  0
  1  2  1  0
  1  7  1  0
  1  8  1  0
  1 31  1  0
  2  3  1  0
  2  9  1  0
  2 10  1  0
  3  4  1  0
  4  5  1  0
  4 11  1  0
  4 12  1  0
  5  6  1  0
  5 13  1  0
  5 14  1  0
  6 15  1  0
  6 16  1  0
  6 17  1  0
 18 19  1  0
 18 24  1  0
 18 25  1  0
 18 26  1  0
 19 20  1  0
 19 27  1  0
 19 28  1  0
 20 21  1  0
 20 29  1  0
 20 30  1  0
 21 22  1  0
 22 23  1  0
 22 32  1  0
 23 33  1  0
 23 34  1  0
 23 35  1  0
M  RAD  1  22   2
M  END
>  <reaction>  (11) 
rmg_rxn_287

>  <mol_properties>  (11) 
{"0": {"label": "*3", "atom_type": "Cs"}, "1": {"label": "*4", "atom_type": "Cs"}, "20": {"label": "*0", "atom_type": "O2s"}, "21": {"label": "*1", "atom_type": "Cs"}, "30": {"label": "*2", "atom_type": "H0"}}

>  <type>  (11) 
unop_7

>  <geom_source>  (11) 
Heuristics

$$$$

     RDKit          3D

 35 33  0  0  0  0  0  0  0  0999 V2000
   -1.0112    0.3179    0.6714 C   0  0  0  0  0  0  0  0  0  0  0  0
    0.4316    0.4266    1.1074 C   0  0  0  0  0  0  0  0  0  0  0  0
    0.5077    1.2719    2.2268 O   0  0  0  0  0  0  0  0  0  0  0  0
    1.8165    1.4374    2.7112 C   0  0  0  0  0  0  0  0  0  0  0  0
    1.7897    2.3290    3.9357 C   0  0  0  0  0  0  0  0  0  0  0  0
    1.0083    1.7283    5.0966 C   0  0  0  0  0  0  0  0  0  0  0  0
   -1.6230   -0.0946    1.4745 H   0  0  0  0  0  0  0  0  0  0  0  0
   -1.4058    1.2998    0.4080 H   0  0  0  0  0  0  0  0  0  0  0  0
    1.0506    0.8280    0.2913 H   0  0  0  0  0  0  0  0  0  0  0  0
    0.8329   -0.5661    1.3596 H   0  0  0  0  0  0  0  0  0  0  0  0
    2.2482    0.4567    2.9671 H   0  0  0  0  0  0  0  0  0  0  0  0
    2.4521    1.8806    1.9306 H   0  0  0  0  0  0  0  0  0  0  0  0
    1.3601    3.2937    3.6534 H   0  0  0  0  0  0  0  0  0  0  0  0
    2.8239    2.5185    4.2362 H   0  0  0  0  0  0  0  0  0  0  0  0
    1.4417    0.7738    5.4056 H   0  0  0  0  0  0  0  0  0  0  0  0
   -0.0286    1.5491    4.8124 H   0  0  0  0  0  0  0  0  0  0  0  0
    1.0151    2.3942    5.9608 H   0  0  0  0  0  0  0  0  0  0  0  0
    0.0818   -3.0637   -4.1849 C   0  0  0  0  0  0  0  0  0  0  0  0
    0.0818   -3.0637   -2.6620 C   0  0  0  0  0  0  0  0  0  0  0  0
    0.0818   -1.6706   -2.0664 C   0  0  0  0  0  0  0  0  0  0  0  0
   -1.1012   -1.0070   -2.4340 O   0  0  0  0  0  0  0  0  0  0  0  0
   -1.1719    0.3111   -1.9531 C   0  0  0  0  0  3  0  0  0  0  0  0
   -2.4752    0.9289   -2.4040 C   0  0  0  0  0  0  0  0  0  0  0  0
    0.9639   -2.5493   -4.5745 H   0  0  0  0  0  0  0  0  0  0  0  0
   -0.8009   -2.5540   -4.5709 H   0  0  0  0  0  0  0  0  0  0  0  0
    0.0873   -4.0815   -4.5775 H   0  0  0  0  0  0  0  0  0  0  0  0
    0.9633   -3.5901   -2.2857 H   0  0  0  0  0  0  0  0  0  0  0  0
   -0.7926   -3.6016   -2.2867 H   0  0  0  0  0  0  0  0  0  0  0  0
    0.9560   -1.1055   -2.4268 H   0  0  0  0  0  0  0  0  0  0  0  0
    0.1566   -1.7245   -0.9704 H   0  0  0  0  0  0  0  0  0  0  0  0
   -1.0912    0.3145   -0.6355 H   0  0  0  0  0  0  0  0  0  0  0  0
   -0.3191    0.8940   -2.3310 H   0  0  0  0  0  0  0  0  0  0  0  0
   -3.3216    0.3594   -2.0183 H   0  0  0  0  0  0  0  0  0  0  0  0
   -2.5361    0.9407   -3.4928 H   0  0  0  0  0  0  0  0  0  0  0  0
   -2.5529    1.9549   -2.0409 H   0  0  0  0  0  0  0  0  0  0  0  0
  1  2  1  0
  1  7  1  0
  1  8  1  0
  1 31  1  0
  2  3  1  0
  2  9  1  0
  2 10  1  0
  3  4  1  0
  4  5  1  0
  4 11  1  0
  4 12  1  0
  5  6  1  0
  5 13  1  0
  5 14  1  0
  6 15  1  0
  6 16  1  0
  6 17  1  0
 18 19  1  0
 18 24  1  0
 18 25  1  0
 18 26  1  0
 19 20  1  0
 19 27  1  0
 19 28  1  0
 20 21  1  0
 20 29  1  0
 20 30  1  0
 21 22  1  0
 22 23  1  0
 22 32  1  0
 23 33  1  0
 23 34  1  0
 23 35  1  0
M  RAD  1  22   2
M  END
>  <reaction>  (12) 
rmg_rxn_287

>  <mol_properties>  (12) 
{"0": {"label": "*3", "atom_type": "Cs"}, "1": {"label": "*4", "atom_type": "Cs"}, "20": {"label": "*0", "atom_type": "O2s"}, "21": {"label": "*1", "atom_type": "Cs"}, "30": {"label": "*2", "atom_type": "H0"}}

>  <type>  (12) 
unop_8

>  <geom_source>  (12) 
Heuristics

$$$$

     RDKit          3D

 35 33  0  0  0  0  0  0  0  0999 V2000
    0.4892    1.3932    0.5509 C   0  0  0  0  0  0  0  0  0  0  0  0
   -0.0912    0.1168    1.1143 C   0  0  0  0  0  0  0  0  0  0  0  0
   -0.3761    0.3075    2.4767 O   0  0  0  0  0  0  0  0  0  0  0  0
   -0.9240   -0.8294    3.0949 C   0  0  0  0  0  0  0  0  0  0  0  0
   -1.2315   -0.5136    4.5444 C   0  0  0  0  0  0  0  0  0  0  0  0
   -2.2831    0.5755    4.7097 C   0  0  0  0  0  0  0  0  0  0  0  0
   -0.2198    2.2150    0.6573 H   0  0  0  0  0  0  0  0  0  0  0  0
    1.4068    1.6602    1.0762 H   0  0  0  0  0  0  0  0  0  0  0  0
    0.6184   -0.7149    0.9922 H   0  0  0  0  0  0  0  0  0  0  0  0
   -1.0092   -0.1592    0.5747 H   0  0  0  0  0  0  0  0  0  0  0  0
   -1.8438   -1.1342    2.5711 H   0  0  0  0  0  0  0  0  0  0  0  0
   -0.2169   -1.6694    3.0295 H   0  0  0  0  0  0  0  0  0  0  0  0
   -0.3032   -0.2172    5.0396 H   0  0  0  0  0  0  0  0  0  0  0  0
   -1.5667   -1.4365    5.0257 H   0  0  0  0  0  0  0  0  0  0  0  0
   -3.2250    0.2821    4.2395 H   0  0  0  0  0  0  0  0  0  0  0  0
   -1.9525    1.5049    4.2461 H   0  0  0  0  0  0  0  0  0  0  0  0
   -2.4824    0.7721    5.7641 H   0  0  0  0  0  0  0  0  0  0  0  0
    1.5822   -1.9884   -4.3054 C   0  0  0  0  0  0  0  0  0  0  0  0
    1.5822   -1.9884   -2.7825 C   0  0  0  0  0  0  0  0  0  0  0  0
    1.5822   -0.5953   -2.1870 C   0  0  0  0  0  0  0  0  0  0  0  0
    0.3992    0.0683   -2.5546 O   0  0  0  0  0  0  0  0  0  0  0  0
    0.3285    1.3864   -2.0737 C   0  0  0  0  0  3  0  0  0  0  0  0
   -0.9748    2.0042   -2.5246 C   0  0  0  0  0  0  0  0  0  0  0  0
    2.4643   -1.4740   -4.6951 H   0  0  0  0  0  0  0  0  0  0  0  0
    0.6995   -1.4787   -4.6915 H   0  0  0  0  0  0  0  0  0  0  0  0
    1.5877   -3.0062   -4.6981 H   0  0  0  0  0  0  0  0  0  0  0  0
    2.4637   -2.5148   -2.4063 H   0  0  0  0  0  0  0  0  0  0  0  0
    0.7078   -2.5263   -2.4073 H   0  0  0  0  0  0  0  0  0  0  0  0
    2.4564   -0.0302   -2.5474 H   0  0  0  0  0  0  0  0  0  0  0  0
    1.6570   -0.6492   -1.0910 H   0  0  0  0  0  0  0  0  0  0  0  0
    0.4092    1.3898   -0.7560 H   0  0  0  0  0  0  0  0  0  0  0  0
    1.1813    1.9693   -2.4516 H   0  0  0  0  0  0  0  0  0  0  0  0
   -1.8212    1.4347   -2.1389 H   0  0  0  0  0  0  0  0  0  0  0  0
   -1.0357    2.0160   -3.6134 H   0  0  0  0  0  0  0  0  0  0  0  0
   -1.0525    3.0302   -2.1615 H   0  0  0  0  0  0  0  0  0  0  0  0
  1  2  1  0
  1  7  1  0
  1  8  1  0
  1 31  1  0
  2  3  1  0
  2  9  1  0
  2 10  1  0
  3  4  1  0
  4  5  1  0
  4 11  1  0
  4 12  1  0
  5  6  1  0
  5 13  1  0
  5 14  1  0
  6 15  1  0
  6 16  1  0
  6 17  1  0
 18 19  1  0
 18 24  1  0
 18 25  1  0
 18 26  1  0
 19 20  1  0
 19 27  1  0
 19 28  1  0
 20 21  1  0
 20 29  1  0
 20 30  1  0
 21 22  1  0
 22 23  1  0
 22 32  1  0
 23 33  1  0
 23 34  1  0
 23 35  1  0
M  RAD  1  22   2
M  END
>  <reaction>  (13) 
rmg_rxn_287

>  <mol_properties>  (13) 
{"0": {"label": "*3", "atom_type": "Cs"}, "1": {"label": "*4", "atom_type": "Cs"}, "20": {"label": "*0", "atom_type": "O2s"}, "21": {"label": "*1", "atom_type": "Cs"}, "30": {"label": "*2", "atom_type": "H0"}}

>  <type>  (13) 
unop_9

>  <geom_source>  (13) 
Heuristics

$$$$

     RDKit          3D

 35 33  0  0  0  0  0  0  0  0999 V2000
   -1.0825    0.8662    0.6309 C   0  0  0  0  0  0  0  0  0  0  0  0
    0.2250    0.2538    1.0770 C   0  0  0  0  0  0  0  0  0  0  0  0
    0.6344    0.8712    2.2706 O   0  0  0  0  0  0  0  0  0  0  0  0
    1.8475    0.3673    2.7700 C   0  0  0  0  0  0  0  0  0  0  0  0
    2.1827    1.0648    4.0724 C   0  0  0  0  0  0  0  0  0  0  0  0
    1.1608    0.8046    5.1711 C   0  0  0  0  0  0  0  0  0  0  0  0
   -1.8511    0.7220    1.3910 H   0  0  0  0  0  0  0  0  0  0  0  0
   -0.9643    1.9367    0.4598 H   0  0  0  0  0  0  0  0  0  0  0  0
    0.9954    0.3859    0.3028 H   0  0  0  0  0  0  0  0  0  0  0  0
    0.1083   -0.8284    1.2359 H   0  0  0  0  0  0  0  0  0  0  0  0
    1.7631   -0.7188    2.9337 H   0  0  0  0  0  0  0  0  0  0  0  0
    2.6504    0.5256    2.0351 H   0  0  0  0  0  0  0  0  0  0  0  0
    2.2627    2.1380    3.8809 H   0  0  0  0  0  0  0  0  0  0  0  0
    3.1722    0.7251    4.3907 H   0  0  0  0  0  0  0  0  0  0  0  0
    1.0876   -0.2637    5.3901 H   0  0  0  0  0  0  0  0  0  0  0  0
    0.1729    1.1532    4.8700 H   0  0  0  0  0  0  0  0  0  0  0  0
    1.4370    1.3171    6.0938 H   0  0  0  0  0  0  0  0  0  0  0  0
    0.0105   -2.5154   -4.2255 C   0  0  0  0  0  0  0  0  0  0  0  0
    0.0105   -2.5154   -2.7026 C   0  0  0  0  0  0  0  0  0  0  0  0
    0.0105   -1.1223   -2.1070 C   0  0  0  0  0  0  0  0  0  0  0  0
   -1.1725   -0.4587   -2.4746 O   0  0  0  0  0  0  0  0  0  0  0  0
   -1.2432    0.8594   -1.9937 C   0  0  0  0  0  3  0  0  0  0  0  0
   -2.5465    1.4771   -2.4446 C   0  0  0  0  0  0  0  0  0  0  0  0
    0.8926   -2.0010   -4.6151 H   0  0  0  0  0  0  0  0  0  0  0  0
   -0.8722   -2.0057   -4.6115 H   0  0  0  0  0  0  0  0  0  0  0  0
    0.0160   -3.5332   -4.6181 H   0  0  0  0  0  0  0  0  0  0  0  0
    0.8920   -3.0418   -2.3263 H   0  0  0  0  0  0  0  0  0  0  0  0
   -0.8639   -3.0533   -2.3273 H   0  0  0  0  0  0  0  0  0  0  0  0
    0.8847   -0.5572   -2.4674 H   0  0  0  0  0  0  0  0  0  0  0  0
    0.0853   -1.1762   -1.0110 H   0  0  0  0  0  0  0  0  0  0  0  0
   -1.1625    0.8628   -0.6760 H   0  0  0  0  0  0  0  0  0  0  0  0
   -0.3904    1.4423   -2.3716 H   0  0  0  0  0  0  0  0  0  0  0  0
   -3.3929    0.9077   -2.0589 H   0  0  0  0  0  0  0  0  0  0  0  0
   -2.6073    1.4890   -3.5334 H   0  0  0  0  0  0  0  0  0  0  0  0
   -2.6242    2.5032   -2.0815 H   0  0  0  0  0  0  0  0  0  0  0  0
  1  2  1  0
  1  7  1  0
  1  8  1  0
  1 31  1  0
  2  3  1  0
  2  9  1  0
  2 10  1  0
  3  4  1  0
  4  5  1  0
  4 11  1  0
  4 12  1  0
  5  6  1  0
  5 13  1  0
  5 14  1  0
  6 15  1  0
  6 16  1  0
  6 17  1  0
 18 19  1  0
 18 24  1  0
 18 25  1  0
 18 26  1  0
 19 20  1  0
 19 27  1  0
 19 28  1  0
 20 21  1  0
 20 29  1  0
 20 30  1  0
 21 22  1  0
 22 23  1  0
 22 32  1  0
 23 33  1  0
 23 34  1  0
 23 35  1  0
M  RAD  1  22   2
M  END
>  <reaction>  (14) 
rmg_rxn_287

>  <mol_properties>  (14) 
{"0": {"label": "*3", "atom_type": "Cs"}, "1": {"label": "*4", "atom_type": "Cs"}, "20": {"label": "*0", "atom_type": "O2s"}, "21": {"label": "*1", "atom_type": "Cs"}, "30": {"label": "*2", "atom_type": "H0"}}

>  <type>  (14) 
unop_10

>  <geom_source>  (14) 
Heuristics

$$$$

     RDKit          3D

 35 33  0  0  0  0  0  0  0  0999 V2000
   -0.0849   -0.2011    0.6590 C   0  0  0  0  0  0  0  0  0  0  0  0
   -0.8513    0.9707    1.2275 C   0  0  0  0  0  0  0  0  0  0  0  0
   -0.2686    1.3478    2.4490 O   0  0  0  0  0  0  0  0  0  0  0  0
   -0.9131    2.4368    3.0601 C   0  0  0  0  0  0  0  0  0  0  0  0
   -0.1914    2.7912    4.3442 C   0  0  0  0  0  0  0  0  0  0  0  0
    1.2421    3.2527    4.1174 C   0  0  0  0  0  0  0  0  0  0  0  0
    0.9579    0.0700    0.4903 H   0  0  0  0  0  0  0  0  0  0  0  0
   -0.1136   -1.0465    1.3473 H   0  0  0  0  0  0  0  0  0  0  0  0
   -1.9065    0.7011    1.3827 H   0  0  0  0  0  0  0  0  0  0  0  0
   -0.8336    1.8182    0.5265 H   0  0  0  0  0  0  0  0  0  0  0  0
   -0.9166    3.3014    2.3776 H   0  0  0  0  0  0  0  0  0  0  0  0
   -1.9622    2.1820    3.2703 H   0  0  0  0  0  0  0  0  0  0  0  0
   -0.2050    1.9185    5.0022 H   0  0  0  0  0  0  0  0  0  0  0  0
   -0.7643    3.5756    4.8464 H   0  0  0  0  0  0  0  0  0  0  0  0
    1.2695    4.1400    3.4799 H   0  0  0  0  0  0  0  0  0  0  0  0
    1.8265    2.4722    3.6304 H   0  0  0  0  0  0  0  0  0  0  0  0
    1.7277    3.5040    5.0615 H   0  0  0  0  0  0  0  0  0  0  0  0
    1.0081   -3.5826   -4.1973 C   0  0  0  0  0  0  0  0  0  0  0  0
    1.0081   -3.5826   -2.6744 C   0  0  0  0  0  0  0  0  0  0  0  0
    1.0081   -2.1896   -2.0788 C   0  0  0  0  0  0  0  0  0  0  0  0
   -0.1749   -1.5260   -2.4464 O   0  0  0  0  0  0  0  0  0  0  0  0
   -0.2457   -0.2079   -1.9655 C   0  0  0  0  0  3  0  0  0  0  0  0
   -1.5490    0.4099   -2.4164 C   0  0  0  0  0  0  0  0  0  0  0  0
    1.8901   -3.0683   -4.5869 H   0  0  0  0  0  0  0  0  0  0  0  0
    0.1253   -3.0729   -4.5833 H   0  0  0  0  0  0  0  0  0  0  0  0
    1.0135   -4.6005   -4.5899 H   0  0  0  0  0  0  0  0  0  0  0  0
    1.8896   -4.1091   -2.2981 H   0  0  0  0  0  0  0  0  0  0  0  0
    0.1337   -4.1206   -2.2991 H   0  0  0  0  0  0  0  0  0  0  0  0
    1.8823   -1.6245   -2.4392 H   0  0  0  0  0  0  0  0  0  0  0  0
    1.0828   -2.2435   -0.9828 H   0  0  0  0  0  0  0  0  0  0  0  0
   -0.1650   -0.2045   -0.6478 H   0  0  0  0  0  0  0  0  0  0  0  0
    0.6072    0.3751   -2.3434 H   0  0  0  0  0  0  0  0  0  0  0  0
   -2.3953   -0.1595   -2.0307 H   0  0  0  0  0  0  0  0  0  0  0  0
   -1.6098    0.4217   -3.5052 H   0  0  0  0  0  0  0  0  0  0  0  0
   -1.6266    1.4359   -2.0533 H   0  0  0  0  0  0  0  0  0  0  0  0
  1  2  1  0
  1  7  1  0
  1  8  1  0
  1 31  1  0
  2  3  1  0
  2  9  1  0
  2 10  1  0
  3  4  1  0
  4  5  1  0
  4 11  1  0
  4 12  1  0
  5  6  1  0
  5 13  1  0
  5 14  1  0
  6 15  1  0
  6 16  1  0
  6 17  1  0
 18 19  1  0
 18 24  1  0
 18 25  1  0
 18 26  1  0
 19 20  1  0
 19 27  1  0
 19 28  1  0
 20 21  1  0
 20 29  1  0
 20 30  1  0
 21 22  1  0
 22 23  1  0
 22 32  1  0
 23 33  1  0
 23 34  1  0
 23 35  1  0
M  RAD  1  22   2
M  END
>  <reaction>  (15) 
rmg_rxn_287

>  <mol_properties>  (15) 
{"0": {"label": "*3", "atom_type": "Cs"}, "1": {"label": "*4", "atom_type": "Cs"}, "20": {"label": "*0", "atom_type": "O2s"}, "21": {"label": "*1", "atom_type": "Cs"}, "30": {"label": "*2", "atom_type": "H0"}}

>  <type>  (15) 
unop_11

>  <geom_source>  (15) 
Heuristics

$$$$

     RDKit          3D

 35 33  0  0  0  0  0  0  0  0999 V2000
   -0.1439    1.6091    0.5192 C   0  0  0  0  0  0  0  0  0  0  0  0
   -0.0045    0.1970    1.0389 C   0  0  0  0  0  0  0  0  0  0  0  0
    0.0796    0.2329    2.4408 O   0  0  0  0  0  0  0  0  0  0  0  0
    0.2113   -1.0394    3.0230 C   0  0  0  0  0  0  0  0  0  0  0  0
    0.2544   -0.8994    4.5309 C   0  0  0  0  0  0  0  0  0  0  0  0
   -1.0289   -0.3246    5.1157 C   0  0  0  0  0  0  0  0  0  0  0  0
   -1.0436    2.0770    0.9205 H   0  0  0  0  0  0  0  0  0  0  0  0
    0.7170    2.2109    0.8125 H   0  0  0  0  0  0  0  0  0  0  0  0
    0.8948   -0.2794    0.6212 H   0  0  0  0  0  0  0  0  0  0  0  0
   -0.8666   -0.4129    0.7308 H   0  0  0  0  0  0  0  0  0  0  0  0
   -0.6369   -1.6767    2.7267 H   0  0  0  0  0  0  0  0  0  0  0  0
    1.1283   -1.5254    2.6588 H   0  0  0  0  0  0  0  0  0  0  0  0
    1.1046   -0.2659    4.7966 H   0  0  0  0  0  0  0  0  0  0  0  0
    0.4512   -1.8881    4.9548 H   0  0  0  0  0  0  0  0  0  0  0  0
   -1.8848   -0.9613    4.8779 H   0  0  0  0  0  0  0  0  0  0  0  0
   -1.2271    0.6678    4.7108 H   0  0  0  0  0  0  0  0  0  0  0  0
   -0.9637   -0.2435    6.2017 H   0  0  0  0  0  0  0  0  0  0  0  0
    0.9491   -1.7725   -4.3371 C   0  0  0  0  0  0  0  0  0  0  0  0
    0.9491   -1.7725   -2.8142 C   0  0  0  0  0  0  0  0  0  0  0  0
    0.9491   -0.3794   -2.2187 C   0  0  0  0  0  0  0  0  0  0  0  0
   -0.2339    0.2842   -2.5863 O   0  0  0  0  0  0  0  0  0  0  0  0
   -0.3046    1.6023   -2.1054 C   0  0  0  0  0  3  0  0  0  0  0  0
   -1.6080    2.2200   -2.5562 C   0  0  0  0  0  0  0  0  0  0  0  0
    1.8312   -1.2581   -4.7267 H   0  0  0  0  0  0  0  0  0  0  0  0
    0.0664   -1.2628   -4.7232 H   0  0  0  0  0  0  0  0  0  0  0  0
    0.9546   -2.7903   -4.7298 H   0  0  0  0  0  0  0  0  0  0  0  0
    1.8306   -2.2989   -2.4379 H   0  0  0  0  0  0  0  0  0  0  0  0
    0.0747   -2.3104   -2.4389 H   0  0  0  0  0  0  0  0  0  0  0  0
    1.8233    0.1857   -2.5791 H   0  0  0  0  0  0  0  0  0  0  0  0
    1.0239   -0.4333   -1.1226 H   0  0  0  0  0  0  0  0  0  0  0  0
   -0.2239    1.6057   -0.7877 H   0  0  0  0  0  0  0  0  0  0  0  0
    0.5482    2.1852   -2.4833 H   0  0  0  0  0  0  0  0  0  0  0  0
   -2.4543    1.6506   -2.1705 H   0  0  0  0  0  0  0  0  0  0  0  0
   -1.6688    2.2319   -3.6450 H   0  0  0  0  0  0  0  0  0  0  0  0
   -1.6856    3.2461   -2.1932 H   0  0  0  0  0  0  0  0  0  0  0  0
  1  2  1  0
  1  7  1  0
  1  8  1  0
  1 31  1  0
  2  3  1  0
  2  9  1  0
  2 10  1  0
  3  4  1  0
  4  5  1  0
  4 11  1  0
  4 12  1  0
  5  6  1  0
  5 13  1  0
  5 14  1  0
  6 15  1  0
  6 16  1  0
  6 17  1  0
 18 19  1  0
 18 24  1  0
 18 25  1  0
 18 26  1  0
 19 20  1  0
 19 27  1  0
 19 28  1  0
 20 21  1  0
 20 29  1  0
 20 30  1  0
 21 22  1  0
 22 23  1  0
 22 32  1  0
 23 33  1  0
 23 34  1  0
 23 35  1  0
M  RAD  1  22   2
M  END
>  <reaction>  (16) 
rmg_rxn_287

>  <mol_properties>  (16) 
{"0": {"label": "*3", "atom_type": "Cs"}, "1": {"label": "*4", "atom_type": "Cs"}, "20": {"label": "*0", "atom_type": "O2s"}, "21": {"label": "*1", "atom_type": "Cs"}, "30": {"label": "*2", "atom_type": "H0"}}

>  <type>  (16) 
unop_12

>  <geom_source>  (16) 
Heuristics

$$$$

     RDKit          3D

 35 33  0  0  0  0  0  0  0  0999 V2000
    2.3766    0.5559    0.4778 O   0  0  0  0  0  0  0  0  0  0  0  0
   -2.3561   -0.0486    0.4370 O   0  0  0  0  0  0  0  0  0  0  0  0
    4.6040   -0.1268    1.0801 C   0  0  0  0  0  0  0  0  0  0  0  0
   -3.9808    1.4407   -0.5903 C   0  0  0  0  0  0  0  0  0  0  0  0
    3.1142   -0.4694    1.1123 C   0  0  0  0  0  0  0  0  0  0  0  0
   -3.7365    0.1370    0.1794 C   0  0  0  0  0  0  0  0  0  0  0  0
    1.0194    0.1798    0.3414 C   0  0  0  0  0  0  0  0  0  0  0  0
    5.1501   -0.1058   -0.3461 C   0  0  0  0  0  0  0  0  0  0  0  0
   -3.5186    2.6639    0.1987 C   0  0  0  0  0  0  0  0  0  0  0  0
    0.7669   -0.3894   -1.0492 C   0  0  0  0  0  0  0  0  0  0  0  0
   -1.7303   -2.3007   -0.2036 C   0  0  0  0  0  0  0  0  0  0  0  0
   -1.7499   -0.8253   -0.5775 C   0  0  0  0  0  3  0  0  0  0  0  0
    5.1634   -0.8862    1.6682 H   0  0  0  0  0  0  0  0  0  0  0  0
    4.7678    0.8658    1.5529 H   0  0  0  0  0  0  0  0  0  0  0  0
   -5.0685    1.5378   -0.7970 H   0  0  0  0  0  0  0  0  0  0  0  0
   -3.4497    1.4105   -1.5654 H   0  0  0  0  0  0  0  0  0  0  0  0
    2.9613   -1.4543    0.6137 H   0  0  0  0  0  0  0  0  0  0  0  0
    2.8021   -0.5537    2.1777 H   0  0  0  0  0  0  0  0  0  0  0  0
    0.6712   -0.5424    1.1176 H   0  0  0  0  0  0  0  0  0  0  0  0
    0.3968    1.0916    0.4577 H   0  0  0  0  0  0  0  0  0  0  0  0
   -4.2657    0.1934    1.1546 H   0  0  0  0  0  0  0  0  0  0  0  0
   -4.1997   -0.7167   -0.3691 H   0  0  0  0  0  0  0  0  0  0  0  0
    5.0070   -1.0959   -0.8292 H   0  0  0  0  0  0  0  0  0  0  0  0
    4.6362    0.6735   -0.9480 H   0  0  0  0  0  0  0  0  0  0  0  0
    6.2361    0.1243   -0.3239 H   0  0  0  0  0  0  0  0  0  0  0  0
    1.3401   -1.3290   -1.1929 H   0  0  0  0  0  0  0  0  0  0  0  0
    1.0734    0.3463   -1.8227 H   0  0  0  0  0  0  0  0  0  0  0  0
   -0.4880   -0.6435   -1.1876 H   0  0  0  0  0  0  0  0  0  0  0  0
   -3.7435    3.5847   -0.3796 H   0  0  0  0  0  0  0  0  0  0  0  0
   -2.4236    2.6193    0.3785 H   0  0  0  0  0  0  0  0  0  0  0  0
   -4.0494    2.7186    1.1730 H   0  0  0  0  0  0  0  0  0  0  0  0
   -2.7642   -2.7020   -0.1581 H   0  0  0  0  0  0  0  0  0  0  0  0
   -1.2409   -2.4317    0.7841 H   0  0  0  0  0  0  0  0  0  0  0  0
   -1.1564   -2.8663   -0.9666 H   0  0  0  0  0  0  0  0  0  0  0  0
   -2.1649   -0.6554   -1.5980 H   0  0  0  0  0  0  0  0  0  0  0  0
  1  7  1  0
  1  5  1  0
  2 12  1  0
  2  6  1  0
  3  8  1  0
  3  5  1  0
  3 13  1  0
  3 14  1  0
  4  9  1  0
  4  6  1  0
  4 15  1  0
  4 16  1  0
  5 17  1  0
  5 18  1  0
  6 21  1  0
  6 22  1  0
  7 10  1  0
  7 19  1  0
  7 20  1  0
  8 23  1  0
  8 24  1  0
  8 25  1  0
  9 29  1  0
  9 30  1  0
  9 31  1  0
 10 26  1  0
 10 27  1  0
 10 28  1  0
 11 12  1  0
 11 32  1  0
 11 33  1  0
 11 34  1  0
 12 35  1  0
M  RAD  1  12   2
M  END
>  <reaction>  (17) 
rmg_rxn_287

>  <mol_properties>  (17) 
{"0": {"label": "*3", "atom_type": "Cs"}, "1": {"label": "*4", "atom_type": "Cs"}, "20": {"label": "*0", "atom_type": "O2s"}, "21": {"label": "*1", "atom_type": "Cs"}, "30": {"label": "*2", "atom_type": "H0"}}

>  <type>  (17) 
unop_13

>  <geom_source>  (17) 
AutoTST

$$$$

     RDKit          3D

 35 33  0  0  0  0  0  0  0  0999 V2000
   -0.7676    1.3859    0.5606 C   0  0  0  0  0  0  0  0  0  0  0  0
    0.0628    0.2169    1.0373 C   0  0  0  0  0  0  0  0  0  0  0  0
    0.4806    0.4616    2.3561 O   0  0  0  0  0  0  0  0  0  0  0  0
    1.2632   -0.5748    2.8931 C   0  0  0  0  0  0  0  0  0  0  0  0
    1.6298   -0.2374    4.3239 C   0  0  0  0  0  0  0  0  0  0  0  0
    0.4202   -0.1343    5.2433 C   0  0  0  0  0  0  0  0  0  0  0  0
   -1.6442    1.5164    1.1960 H   0  0  0  0  0  0  0  0  0  0  0  0
   -0.1830    2.3062    0.5877 H   0  0  0  0  0  0  0  0  0  0  0  0
    0.9384    0.0764    0.3863 H   0  0  0  0  0  0  0  0  0  0  0  0
   -0.5233   -0.7131    0.9965 H   0  0  0  0  0  0  0  0  0  0  0  0
    0.7035   -1.5229    2.8599 H   0  0  0  0  0  0  0  0  0  0  0  0
    2.1721   -0.7104    2.2885 H   0  0  0  0  0  0  0  0  0  0  0  0
    2.1850    0.7041    4.3272 H   0  0  0  0  0  0  0  0  0  0  0  0
    2.3136   -1.0098    4.6868 H   0  0  0  0  0  0  0  0  0  0  0  0
   -0.1316   -1.0773    5.2684 H   0  0  0  0  0  0  0  0  0  0  0  0
   -0.2614    0.6435    4.8989 H   0  0  0  0  0  0  0  0  0  0  0  0
    0.7221    0.1040    6.2642 H   0  0  0  0  0  0  0  0  0  0  0  0
    0.3254   -1.9956   -4.2958 C   0  0  0  0  0  0  0  0  0  0  0  0
    0.3254   -1.9956   -2.7729 C   0  0  0  0  0  0  0  0  0  0  0  0
    0.3254   -0.6026   -2.1773 C   0  0  0  0  0  0  0  0  0  0  0  0
   -0.8576    0.0611   -2.5449 O   0  0  0  0  0  0  0  0  0  0  0  0
   -0.9283    1.3791   -2.0640 C   0  0  0  0  0  3  0  0  0  0  0  0
   -2.2316    1.9969   -2.5149 C   0  0  0  0  0  0  0  0  0  0  0  0
    1.2075   -1.4813   -4.6854 H   0  0  0  0  0  0  0  0  0  0  0  0
   -0.5573   -1.4859   -4.6818 H   0  0  0  0  0  0  0  0  0  0  0  0
    0.3309   -3.0135   -4.6884 H   0  0  0  0  0  0  0  0  0  0  0  0
    1.2069   -2.5221   -2.3966 H   0  0  0  0  0  0  0  0  0  0  0  0
   -0.5490   -2.5336   -2.3976 H   0  0  0  0  0  0  0  0  0  0  0  0
    1.1996   -0.0375   -2.5377 H   0  0  0  0  0  0  0  0  0  0  0  0
    0.4002   -0.6565   -1.0813 H   0  0  0  0  0  0  0  0  0  0  0  0
   -0.8476    1.3825   -0.7463 H   0  0  0  0  0  0  0  0  0  0  0  0
   -0.0755    1.9621   -2.4419 H   0  0  0  0  0  0  0  0  0  0  0  0
   -3.0780    1.4275   -2.1292 H   0  0  0  0  0  0  0  0  0  0  0  0
   -2.2925    2.0088   -3.6037 H   0  0  0  0  0  0  0  0  0  0  0  0
   -2.3093    3.0229   -2.1518 H   0  0  0  0  0  0  0  0  0  0  0  0
  1  2  1  0
  1  7  1  0
  1  8  1  0
  1 31  1  0
  2  3  1  0
  2  9  1  0
  2 10  1  0
  3  4  1  0
  4  5  1  0
  4 11  1  0
  4 12  1  0
  5  6  1  0
  5 13  1  0
  5 14  1  0
  6 15  1  0
  6 16  1  0
  6 17  1  0
 18 19  1  0
 18 24  1  0
 18 25  1  0
 18 26  1  0
 19 20  1  0
 19 27  1  0
 19 28  1  0
 20 21  1  0
 20 29  1  0
 20 30  1  0
 21 22  1  0
 22 23  1  0
 22 32  1  0
 23 33  1  0
 23 34  1  0
 23 35  1  0
M  RAD  1  22   2
M  END
>  <reaction>  (18) 
rmg_rxn_287

>  <mol_properties>  (18) 
{"0": {"label": "*3", "atom_type": "Cs"}, "1": {"label": "*4", "atom_type": "Cs"}, "20": {"label": "*0", "atom_type": "O2s"}, "21": {"label": "*1", "atom_type": "Cs"}, "30": {"label": "*2", "atom_type": "H0"}}

>  <type>  (18) 
unop_14

>  <geom_source>  (18) 
gaussian_log

$$$$
