
     RDKit          3D

  9  8  0  0  0  0  0  0  0  0999 V2000
   -1.0314    0.2323   -0.1227 C   0  0  0  0  0  0  0  0  0  0  0  0
    0.3094   -0.4511    0.0063 C   0  0  0  0  0  0  0  0  0  0  0  0
    0.3197   -1.7698    0.6841 N   0  0  0  0  0  0  0  0  0  0  0  0
   -0.7498   -2.1455    1.0557 O   0  0  0  0  0  0  0  0  0  0  0  0
   -1.4744    0.4198    0.8552 H   0  0  0  0  0  0  0  0  0  0  0  0
   -0.9073    1.1865   -0.6350 H   0  0  0  0  0  0  0  0  0  0  0  0
   -1.7319   -0.3778   -0.6927 H   0  0  0  0  0  0  0  0  0  0  0  0
    1.0375    0.1401    0.5713 H   0  0  0  0  0  0  0  0  0  0  0  0
    0.7826   -0.6494   -0.9609 H   0  0  0  0  0  0  0  0  0  0  0  0
  1  2  1  0
  1  5  1  0
  1  6  1  0
  1  7  1  0
  2  3  1  0
  2  8  1  0
  2  9  1  0
  3  4  2  0
M  END
>  <reaction>  (1) 
rmg_rxn_61

>  <mol_properties>  (1) 
{"1": {"label": "donator", "atom_type": "Cs"}, "7": {"label": "d_hydrogen", "atom_type": "H0"}}

>  <type>  (1) 
r1h

$$$$

     RDKit          3D

 14 13  0  0  0  0  0  0  0  0999 V2000
    2.6194    0.1388   -0.2451 C   0  0  0  0  0  0  0  0  0  0  0  0
    1.2416   -0.4914   -0.3670 C   0  0  0  0  0  0  0  0  0  0  0  0
    0.9567   -1.8675    0.7732 S   0  0  0  0  0  0  0  0  0  0  0  0
    1.9992   -3.0673    0.1320 C   0  0  0  0  0  3  0  0  0  0  0  0
    2.1769   -4.3519    0.8615 C   0  0  0  0  0  0  0  0  0  0  0  0
    3.4009   -0.5920   -0.4552 H   0  0  0  0  0  0  0  0  0  0  0  0
    2.7219    0.9635   -0.9540 H   0  0  0  0  0  0  0  0  0  0  0  0
    2.7821    0.5262    0.7612 H   0  0  0  0  0  0  0  0  0  0  0  0
    1.0587   -0.8507   -1.3815 H   0  0  0  0  0  0  0  0  0  0  0  0
    0.4587    0.2313   -0.1333 H   0  0  0  0  0  0  0  0  0  0  0  0
    2.2677   -2.9922   -0.9152 H   0  0  0  0  0  0  0  0  0  0  0  0
    1.3745   -5.0711    0.6500 H   0  0  0  0  0  0  0  0  0  0  0  0
    3.1173   -4.8269    0.5747 H   0  0  0  0  0  0  0  0  0  0  0  0
    2.1945   -4.1971    1.9428 H   0  0  0  0  0  0  0  0  0  0  0  0
  1  2  1  0
  1  6  1  0
  1  7  1  0
  1  8  1  0
  2  3  1  0
  2  9  1  0
  2 10  1  0
  3  4  1  0
  4  5  1  0
  4 11  1  0
  5 12  1  0
  5 13  1  0
  5 14  1  0
M  RAD  1   4   2
M  END
>  <reaction>  (2) 
rmg_rxn_61

>  <mol_properties>  (2) 
{"3": {"label": "acceptor", "atom_type": "Cs"}}

>  <type>  (2) 
r2

$$$$

     RDKit          3D

 15 14  0  0  0  0  0  0  0  0999 V2000
   -2.0554    0.0723   -0.4910 C   0  0  0  0  0  0  0  0  0  0  0  0
   -0.7461   -0.6266   -0.8178 C   0  0  0  0  0  0  0  0  0  0  0  0
    0.3249    0.2591   -1.9782 S   0  0  0  0  0  0  0  0  0  0  0  0
   -0.7172    0.3642   -3.4551 C   0  0  0  0  0  0  0  0  0  0  0  0
   -1.1375   -0.9737   -4.0409 C   0  0  0  0  0  0  0  0  0  0  0  0
   -2.7005    0.1427   -1.3684 H   0  0  0  0  0  0  0  0  0  0  0  0
   -2.6016   -0.4848    0.2733 H   0  0  0  0  0  0  0  0  0  0  0  0
   -1.8758    1.0825   -0.1213 H   0  0  0  0  0  0  0  0  0  0  0  0
   -0.1320   -0.7246    0.0789 H   0  0  0  0  0  0  0  0  0  0  0  0
   -0.9254   -1.6374   -1.1879 H   0  0  0  0  0  0  0  0  0  0  0  0
   -1.5873    0.9874   -3.2422 H   0  0  0  0  0  0  0  0  0  0  0  0
   -0.1021    0.9161   -4.1678 H   0  0  0  0  0  0  0  0  0  0  0  0
   -1.7876   -1.5224   -3.3574 H   0  0  0  0  0  0  0  0  0  0  0  0
   -0.2676   -1.5962   -4.2534 H   0  0  0  0  0  0  0  0  0  0  0  0
   -1.6916   -0.8229   -4.9700 H   0  0  0  0  0  0  0  0  0  0  0  0
  1  2  1  0
  1  6  1  0
  1  7  1  0
  1  8  1  0
  2  3  1  0
  2  9  1  0
  2 10  1  0
  3  4  1  0
  4  5  1  0
  4 11  1  0
  4 12  1  0
  5 13  1  0
  5 14  1  0
  5 15  1  0
M  END
>  <reaction>  (3) 
rmg_rxn_61

>  <mol_properties>  (3) 
{"0": {"label": "a_hydrogen", "atom_type": "H0"}, "4": {"label": "acceptor", "atom_type": "Cs"}}

>  <type>  (3) 
r2h

$$$$

     RDKit          3D

 23 21  0  0  0  0  0  0  0  0999 V2000
   -2.3721    0.9383   -0.5476 C   0  0  0  0  0  0  0  0  0  0  0  0
   -1.3050    0.2408   -1.3749 C   0  0  0  0  0  0  0  0  0  0  0  0
   -1.4560   -1.1474   -1.4850 N   0  0  0  0  0  0  0  0  0  0  0  0
   -1.6446   -1.9365   -0.5740 O   0  0  0  0  0  0  0  0  0  0  0  0
   -2.4170    0.5111    0.4544 H   0  0  0  0  0  0  0  0  0  0  0  0
   -2.1250    1.9976   -0.4633 H   0  0  0  0  0  0  0  0  0  0  0  0
   -3.3572    0.8481   -1.0070 H   0  0  0  0  0  0  0  0  0  0  0  0
   -0.2457    0.4464   -0.8183 H   0  0  0  0  0  0  0  0  0  0  0  0
   -1.1900    0.6528   -2.3757 H   0  0  0  0  0  0  0  0  0  0  0  0
    2.2974   -2.2288    1.6145 C   0  0  0  0  0  0  0  0  0  0  0  0
    1.6656   -1.9911    0.2515 C   0  0  0  0  0  0  0  0  0  0  0  0
    2.1891   -0.4650   -0.5725 S   0  0  0  0  0  0  0  0  0  0  0  0
    1.0769    0.7426    0.0028 C   0  0  0  0  0  3  0  0  0  0  0  0
    0.5977    0.7930    1.4246 C   0  0  0  0  0  0  0  0  0  0  0  0
    2.0215   -1.4523    2.3274 H   0  0  0  0  0  0  0  0  0  0  0  0
    1.9653   -3.1894    2.0150 H   0  0  0  0  0  0  0  0  0  0  0  0
    3.3855   -2.2467    1.5431 H   0  0  0  0  0  0  0  0  0  0  0  0
    0.5751   -2.0005    0.2975 H   0  0  0  0  0  0  0  0  0  0  0  0
    1.9537   -2.7819   -0.4422 H   0  0  0  0  0  0  0  0  0  0  0  0
    1.3507    1.7015   -0.4311 H   0  0  0  0  0  0  0  0  0  0  0  0
    1.4208    0.9862    2.1212 H   0  0  0  0  0  0  0  0  0  0  0  0
   -0.1343    1.5938    1.5418 H   0  0  0  0  0  0  0  0  0  0  0  0
    0.1176   -0.1395    1.7239 H   0  0  0  0  0  0  0  0  0  0  0  0
  1  2  1  0
  1  5  1  0
  1  6  1  0
  1  7  1  0
  2  3  1  0
  2  8  1  0
  2  9  1  0
  3  4  2  0
 10 11  1  0
 10 15  1  0
 10 16  1  0
 10 17  1  0
 11 12  1  0
 11 18  1  0
 11 19  1  0
 12 13  1  0
 13 14  1  0
 13 20  1  0
 14 21  1  0
 14 22  1  0
 14 23  1  0
M  RAD  1  13   2
M  END
>  <reaction>  (4) 
rmg_rxn_61

>  <mol_properties>  (4) 
{"1": {"label": "*1", "atom_type": "Cs"}, "2": {"label": "*0", "atom_type": "N3d"}, "7": {"label": "*2", "atom_type": "H0"}, "11": {"label": "*4", "atom_type": "S2s"}, "12": {"label": "*3", "atom_type": "Cs"}}

>  <type>  (4) 
ts

$$$$

     RDKit          3D

 23 21  0  0  0  0  0  0  0  0999 V2000
   -1.6828    0.2145   -2.7598 C   0  0  0  0  0  0  0  0  0  0  0  0
   -1.6828    0.2145   -1.2493 C   0  0  0  0  0  0  0  0  0  0  0  0
   -1.6828    1.5405   -0.5857 N   0  0  0  0  0  0  0  0  0  0  0  0
   -1.6828    2.4700   -1.3334 O   0  0  0  0  0  1  0  0  0  0  0  0
   -0.8027    0.7219   -3.1542 H   0  0  0  0  0  0  0  0  0  0  0  0
   -1.6828   -0.8126   -3.1250 H   0  0  0  0  0  0  0  0  0  0  0  0
   -2.5629    0.7219   -3.1542 H   0  0  0  0  0  0  0  0  0  0  0  0
   -0.6374   -0.3943   -0.7367 H   0  0  0  0  0  0  0  0  0  0  0  0
   -2.5540   -0.2928   -0.8221 H   0  0  0  0  0  0  0  0  0  0  0  0
    0.6782   -1.2929    3.0149 C   0  0  0  0  0  0  0  0  0  0  0  0
    1.7815   -0.6329    2.2046 C   0  0  0  0  0  0  0  0  0  0  0  0
    1.2170    0.2884    0.7518 S   0  0  0  0  0  0  0  0  0  0  0  0
    0.4046   -1.0010   -0.2258 C   0  0  0  0  0  0  0  0  0  0  0  0
    1.3051   -2.1505   -0.6471 C   0  0  0  0  0  0  0  0  0  0  0  0
    0.1777   -2.0769    2.4440 H   0  0  0  0  0  0  0  0  0  0  0  0
    1.0930   -1.7558    3.9130 H   0  0  0  0  0  0  0  0  0  0  0  0
   -0.0732   -0.5625    3.3171 H   0  0  0  0  0  0  0  0  0  0  0  0
    2.5335   -1.3635    1.9018 H   0  0  0  0  0  0  0  0  0  0  0  0
    2.2973    0.1189    2.8042 H   0  0  0  0  0  0  0  0  0  0  0  0
   -0.4705   -1.3683    0.3129 H   0  0  0  0  0  0  0  0  0  0  0  0
    1.6536   -2.7215    0.2151 H   0  0  0  0  0  0  0  0  0  0  0  0
    0.7611   -2.8388   -1.2978 H   0  0  0  0  0  0  0  0  0  0  0  0
    2.1795   -1.7830   -1.1853 H   0  0  0  0  0  0  0  0  0  0  0  0
  1  2  1  0
  1  5  1  0
  1  6  1  0
  1  7  1  0
  2  3  2  3
  2  9  1  0
  3  4  1  0
  8 13  1  0
 10 11  1  0
 10 15  1  0
 10 16  1  0
 10 17  1  0
 11 12  1  0
 11 18  1  0
 11 19  1  0
 12 13  1  0
 13 14  1  0
 13 20  1  0
 14 21  1  0
 14 22  1  0
 14 23  1  0
M  RAD  1   4   2
M  END
>  <reaction>  (5) 
rmg_rxn_61

>  <mol_properties>  (5) 
{"1": {"label": "*1", "atom_type": "Cs"}, "2": {"label": "*0", "atom_type": "N3d"}, "7": {"label": "*2", "atom_type": "H0"}, "11": {"label": "*4", "atom_type": "S2s"}, "12": {"label": "*3", "atom_type": "Cs"}}

>  <type>  (5) 
unop_1

>  <geom_source>  (5) 
Heuristics

$$$$

     RDKit          3D

 23 21  0  0  0  0  0  0  0  0999 V2000
   -2.1109    0.3670   -1.8997 C   0  0  0  0  0  0  0  0  0  0  0  0
   -2.1109    0.3670   -0.3892 C   0  0  0  0  0  0  0  0  0  0  0  0
   -2.1109    1.6929    0.2744 N   0  0  0  0  0  0  0  0  0  0  0  0
   -2.1109    2.6225   -0.4733 O   0  0  0  0  0  1  0  0  0  0  0  0
   -1.2308    0.8743   -2.2942 H   0  0  0  0  0  0  0  0  0  0  0  0
   -2.1109   -0.6602   -2.2650 H   0  0  0  0  0  0  0  0  0  0  0  0
   -2.9911    0.8743   -2.2942 H   0  0  0  0  0  0  0  0  0  0  0  0
   -1.0655   -0.2418    0.1234 H   0  0  0  0  0  0  0  0  0  0  0  0
   -2.9821   -0.1403    0.0380 H   0  0  0  0  0  0  0  0  0  0  0  0
    2.9771    0.0646    1.5423 C   0  0  0  0  0  0  0  0  0  0  0  0
    2.7807   -0.8739    0.3632 C   0  0  0  0  0  0  0  0  0  0  0  0
    1.2749   -0.5871   -0.6003 S   0  0  0  0  0  0  0  0  0  0  0  0
   -0.0235   -0.8486    0.6343 C   0  0  0  0  0  0  0  0  0  0  0  0
   -0.0500   -2.2359    1.2542 C   0  0  0  0  0  0  0  0  0  0  0  0
    2.2057   -0.0799    2.3006 H   0  0  0  0  0  0  0  0  0  0  0  0
    3.9427   -0.1215    2.0177 H   0  0  0  0  0  0  0  0  0  0  0  0
    2.9443    1.1061    1.2206 H   0  0  0  0  0  0  0  0  0  0  0  0
    2.8134   -1.9162    0.6847 H   0  0  0  0  0  0  0  0  0  0  0  0
    3.5831   -0.7443   -0.3650 H   0  0  0  0  0  0  0  0  0  0  0  0
    0.0469   -0.0786    1.4043 H   0  0  0  0  0  0  0  0  0  0  0  0
    0.8486   -2.4274    1.8431 H   0  0  0  0  0  0  0  0  0  0  0  0
   -0.9076   -2.3353    1.9233 H   0  0  0  0  0  0  0  0  0  0  0  0
   -0.1203   -3.0051    0.4843 H   0  0  0  0  0  0  0  0  0  0  0  0
  1  2  1  0
  1  5  1  0
  1  6  1  0
  1  7  1  0
  2  3  2  3
  2  9  1  0
  3  4  1  0
  8 13  1  0
 10 11  1  0
 10 15  1  0
 10 16  1  0
 10 17  1  0
 11 12  1  0
 11 18  1  0
 11 19  1  0
 12 13  1  0
 13 14  1  0
 13 20  1  0
 14 21  1  0
 14 22  1  0
 14 23  1  0
M  RAD  1   4   2
M  END
>  <reaction>  (6) 
rmg_rxn_61

>  <mol_properties>  (6) 
{"1": {"label": "*1", "atom_type": "Cs"}, "2": {"label": "*0", "atom_type": "N3d"}, "7": {"label": "*2", "atom_type": "H0"}, "11": {"label": "*4", "atom_type": "S2s"}, "12": {"label": "*3", "atom_type": "Cs"}}

>  <type>  (6) 
unop_2

>  <geom_source>  (6) 
Heuristics

$$$$

     RDKit          3D

 23 21  0  0  0  0  0  0  0  0999 V2000
   -1.5811    0.4545   -2.8207 C   0  0  0  0  0  0  0  0  0  0  0  0
   -1.5811    0.4545   -1.3102 C   0  0  0  0  0  0  0  0  0  0  0  0
   -1.5811    1.7805   -0.6466 N   0  0  0  0  0  0  0  0  0  0  0  0
   -1.5811    2.7100   -1.3943 O   0  0  0  0  0  1  0  0  0  0  0  0
   -0.7009    0.9619   -3.2152 H   0  0  0  0  0  0  0  0  0  0  0  0
   -1.5811   -0.5726   -3.1860 H   0  0  0  0  0  0  0  0  0  0  0  0
   -2.4612    0.9619   -3.2152 H   0  0  0  0  0  0  0  0  0  0  0  0
   -0.5356   -0.1543   -0.7976 H   0  0  0  0  0  0  0  0  0  0  0  0
   -2.4523   -0.0528   -0.8830 H   0  0  0  0  0  0  0  0  0  0  0  0
    0.7896   -2.4373    2.5011 C   0  0  0  0  0  0  0  0  0  0  0  0
    1.6010   -1.1720    2.2766 C   0  0  0  0  0  0  0  0  0  0  0  0
    0.7778    0.0985    1.2835 S   0  0  0  0  0  0  0  0  0  0  0  0
    0.5063   -0.7610   -0.2867 C   0  0  0  0  0  0  0  0  0  0  0  0
    1.7694   -1.2392   -0.9836 C   0  0  0  0  0  0  0  0  0  0  0  0
    0.6179   -2.9728    1.5659 H   0  0  0  0  0  0  0  0  0  0  0  0
    1.3216   -3.1141    3.1733 H   0  0  0  0  0  0  0  0  0  0  0  0
   -0.1810   -2.2046    2.9407 H   0  0  0  0  0  0  0  0  0  0  0  0
    2.5722   -1.4044    1.8366 H   0  0  0  0  0  0  0  0  0  0  0  0
    1.7978   -0.6718    3.2263 H   0  0  0  0  0  0  0  0  0  0  0  0
   -0.1908   -1.5864   -0.1333 H   0  0  0  0  0  0  0  0  0  0  0  0
    2.2793   -2.0092   -0.4021 H   0  0  0  0  0  0  0  0  0  0  0  0
    1.5247   -1.6715   -1.9563 H   0  0  0  0  0  0  0  0  0  0  0  0
    2.4659   -0.4141   -1.1366 H   0  0  0  0  0  0  0  0  0  0  0  0
  1  2  1  0
  1  5  1  0
  1  6  1  0
  1  7  1  0
  2  3  2  3
  2  9  1  0
  3  4  1  0
  8 13  1  0
 10 11  1  0
 10 15  1  0
 10 16  1  0
 10 17  1  0
 11 12  1  0
 11 18  1  0
 11 19  1  0
 12 13  1  0
 13 14  1  0
 13 20  1  0
 14 21  1  0
 14 22  1  0
 14 23  1  0
M  RAD  1   4   2
M  END
>  <reaction>  (7) 
rmg_rxn_61

>  <mol_properties>  (7) 
{"1": {"label": "*1", "atom_type": "Cs"}, "2": {"label": "*0", "atom_type": "N3d"}, "7": {"label": "*2", "atom_type": "H0"}, "11": {"label": "*4", "atom_type": "S2s"}, "12": {"label": "*3", "atom_type": "Cs"}}

>  <type>  (7) 
unop_3

>  <geom_source>  (7) 
Heuristics

$$$$

     RDKit          3D

 23 21  0  0  0  0  0  0  0  0999 V2000
   -1.4315    1.1976   -2.1973 C   0  0  0  0  0  0  0  0  0  0  0  0
   -1.4315    1.1976   -0.6868 C   0  0  0  0  0  0  0  0  0  0  0  0
   -1.4315    2.5235   -0.0232 N   0  0  0  0  0  0  0  0  0  0  0  0
   -1.4315    3.4531   -0.7709 O   0  0  0  0  0  1  0  0  0  0  0  0
   -0.5514    1.7049   -2.5918 H   0  0  0  0  0  0  0  0  0  0  0  0
   -1.4315    0.1704   -2.5626 H   0  0  0  0  0  0  0  0  0  0  0  0
   -2.3116    1.7049   -2.5918 H   0  0  0  0  0  0  0  0  0  0  0  0
   -0.3861    0.5888   -0.1742 H   0  0  0  0  0  0  0  0  0  0  0  0
   -2.3027    0.6902   -0.2597 H   0  0  0  0  0  0  0  0  0  0  0  0
    2.7336   -2.3354    1.3237 C   0  0  0  0  0  0  0  0  0  0  0  0
    1.2837   -2.6774    1.0231 C   0  0  0  0  0  0  0  0  0  0  0  0
    0.5283   -1.7062   -0.3052 S   0  0  0  0  0  0  0  0  0  0  0  0
    0.6559   -0.0180    0.3366 C   0  0  0  0  0  0  0  0  0  0  0  0
   -0.0713    0.2268    1.6485 C   0  0  0  0  0  0  0  0  0  0  0  0
    2.8319   -1.3217    1.7157 H   0  0  0  0  0  0  0  0  0  0  0  0
    3.1356   -3.0179    2.0758 H   0  0  0  0  0  0  0  0  0  0  0  0
    3.3461   -2.4112    0.4245 H   0  0  0  0  0  0  0  0  0  0  0  0
    0.6705   -2.6016    1.9226 H   0  0  0  0  0  0  0  0  0  0  0  0
    1.1998   -3.7071    0.6714 H   0  0  0  0  0  0  0  0  0  0  0  0
    1.7076    0.2622    0.4155 H   0  0  0  0  0  0  0  0  0  0  0  0
    0.3717   -0.3474    2.4639 H   0  0  0  0  0  0  0  0  0  0  0  0
   -0.0134    1.2827    1.9222 H   0  0  0  0  0  0  0  0  0  0  0  0
   -1.1223   -0.0534    1.5693 H   0  0  0  0  0  0  0  0  0  0  0  0
  1  2  1  0
  1  5  1  0
  1  6  1  0
  1  7  1  0
  2  3  2  3
  2  9  1  0
  3  4  1  0
  8 13  1  0
 10 11  1  0
 10 15  1  0
 10 16  1  0
 10 17  1  0
 11 12  1  0
 11 18  1  0
 11 19  1  0
 12 13  1  0
 13 14  1  0
 13 20  1  0
 14 21  1  0
 14 22  1  0
 14 23  1  0
M  RAD  1   4   2
M  END
>  <reaction>  (8) 
rmg_rxn_61

>  <mol_properties>  (8) 
{"1": {"label": "*1", "atom_type": "Cs"}, "2": {"label": "*0", "atom_type": "N3d"}, "7": {"label": "*2", "atom_type": "H0"}, "11": {"label": "*4", "atom_type": "S2s"}, "12": {"label": "*3", "atom_type": "Cs"}}

>  <type>  (8) 
unop_4

>  <geom_source>  (8) 
Heuristics

$$$$

     RDKit          3D

 23 21  0  0  0  0  0  0  0  0999 V2000
   -1.5875    0.5749   -2.7957 C   0  0  0  0  0  0  0  0  0  0  0  0
   -1.5875    0.5749   -1.2852 C   0  0  0  0  0  0  0  0  0  0  0  0
   -1.5875    1.9008   -0.6216 N   0  0  0  0  0  0  0  0  0  0  0  0
   -1.5875    2.8304   -1.3693 O   0  0  0  0  0  1  0  0  0  0  0  0
   -0.7073    1.0822   -3.1902 H   0  0  0  0  0  0  0  0  0  0  0  0
   -1.5875   -0.4523   -3.1610 H   0  0  0  0  0  0  0  0  0  0  0  0
   -2.4676    1.0822   -3.1902 H   0  0  0  0  0  0  0  0  0  0  0  0
   -0.5420   -0.0339   -0.7726 H   0  0  0  0  0  0  0  0  0  0  0  0
   -2.4587    0.0675   -0.8581 H   0  0  0  0  0  0  0  0  0  0  0  0
    1.7834   -2.8384    1.7838 C   0  0  0  0  0  0  0  0  0  0  0  0
    1.6869   -1.3759    2.1854 C   0  0  0  0  0  0  0  0  0  0  0  0
    0.2494   -0.4948    1.5255 S   0  0  0  0  0  0  0  0  0  0  0  0
    0.4999   -0.6407   -0.2618 C   0  0  0  0  0  0  0  0  0  0  0  0
    1.7849   -0.0187   -0.7828 C   0  0  0  0  0  0  0  0  0  0  0  0
    1.9385   -2.9482    0.7092 H   0  0  0  0  0  0  0  0  0  0  0  0
    2.6281   -3.3143    2.2870 H   0  0  0  0  0  0  0  0  0  0  0  0
    0.8732   -3.3765    2.0509 H   0  0  0  0  0  0  0  0  0  0  0  0
    2.5974   -0.8371    1.9182 H   0  0  0  0  0  0  0  0  0  0  0  0
    1.5733   -1.2842    3.2669 H   0  0  0  0  0  0  0  0  0  0  0  0
    0.4276   -1.6895   -0.5544 H   0  0  0  0  0  0  0  0  0  0  0  0
    2.6645   -0.5385   -0.3991 H   0  0  0  0  0  0  0  0  0  0  0  0
    1.8193   -0.0776   -1.8729 H   0  0  0  0  0  0  0  0  0  0  0  0
    1.8569    1.0293   -0.4901 H   0  0  0  0  0  0  0  0  0  0  0  0
  1  2  1  0
  1  5  1  0
  1  6  1  0
  1  7  1  0
  2  3  2  3
  2  9  1  0
  3  4  1  0
  8 13  1  0
 10 11  1  0
 10 15  1  0
 10 16  1  0
 10 17  1  0
 11 12  1  0
 11 18  1  0
 11 19  1  0
 12 13  1  0
 13 14  1  0
 13 20  1  0
 14 21  1  0
 14 22  1  0
 14 23  1  0
M  RAD  1   4   2
M  END
>  <reaction>  (9) 
rmg_rxn_61

>  <mol_properties>  (9) 
{"1": {"label": "*1", "atom_type": "Cs"}, "2": {"label": "*0", "atom_type": "N3d"}, "7": {"label": "*2", "atom_type": "H0"}, "11": {"label": "*4", "atom_type": "S2s"}, "12": {"label": "*3", "atom_type": "Cs"}}

>  <type>  (9) 
unop_5

>  <geom_source>  (9) 
Heuristics

$$$$

     RDKit          3D

 23 21  0  0  0  0  0  0  0  0999 V2000
   -1.3063    1.0722   -2.5246 C   0  0  0  0  0  0  0  0  0  0  0  0
   -1.3063    1.0722   -1.0141 C   0  0  0  0  0  0  0  0  0  0  0  0
   -1.3063    2.3982   -0.3506 N   0  0  0  0  0  0  0  0  0  0  0  0
   -1.3063    3.3277   -1.0983 O   0  0  0  0  0  1  0  0  0  0  0  0
   -0.4262    1.5796   -2.9191 H   0  0  0  0  0  0  0  0  0  0  0  0
   -1.3063    0.0451   -2.8899 H   0  0  0  0  0  0  0  0  0  0  0  0
   -2.1864    1.5796   -2.9191 H   0  0  0  0  0  0  0  0  0  0  0  0
   -0.2608    0.4634   -0.5016 H   0  0  0  0  0  0  0  0  0  0  0  0
   -2.1775    0.5649   -0.5870 H   0  0  0  0  0  0  0  0  0  0  0  0
    2.5458   -2.2853    1.7296 C   0  0  0  0  0  0  0  0  0  0  0  0
    1.0280   -2.3621    1.7281 C   0  0  0  0  0  0  0  0  0  0  0  0
    0.2385   -1.8625    0.1772 S   0  0  0  0  0  0  0  0  0  0  0  0
    0.7811   -0.1433    0.0093 C   0  0  0  0  0  0  0  0  0  0  0  0
    0.3537    0.7781    1.1397 C   0  0  0  0  0  0  0  0  0  0  0  0
    2.8938   -1.2555    1.6330 H   0  0  0  0  0  0  0  0  0  0  0  0
    2.9439   -2.6790    2.6675 H   0  0  0  0  0  0  0  0  0  0  0  0
    2.9658   -2.8630    0.9055 H   0  0  0  0  0  0  0  0  0  0  0  0
    0.6074   -1.7841    2.5526 H   0  0  0  0  0  0  0  0  0  0  0  0
    0.6982   -3.3931    1.8667 H   0  0  0  0  0  0  0  0  0  0  0  0
    1.8633   -0.1157   -0.1284 H   0  0  0  0  0  0  0  0  0  0  0  0
    0.8222    0.4958    2.0840 H   0  0  0  0  0  0  0  0  0  0  0  0
    0.6492    1.8068    0.9220 H   0  0  0  0  0  0  0  0  0  0  0  0
   -0.7278    0.7502    1.2771 H   0  0  0  0  0  0  0  0  0  0  0  0
  1  2  1  0
  1  5  1  0
  1  6  1  0
  1  7  1  0
  2  3  2  3
  2  9  1  0
  3  4  1  0
  8 13  1  0
 10 11  1  0
 10 15  1  0
 10 16  1  0
 10 17  1  0
 11 12  1  0
 11 18  1  0
 11 19  1  0
 12 13  1  0
 13 14  1  0
 13 20  1  0
 14 21  1  0
 14 22  1  0
 14 23  1  0
M  RAD  1   4   2
M  END
>  <reaction>  (10) 
rmg_rxn_61

>  <mol_properties>  (10) 
{"1": {"label": "*1", "atom_type": "Cs"}, "2": {"label": "*0", "atom_type": "N3d"}, "7": {"label": "*2", "atom_type": "H0"}, "11": {"label": "*4", "atom_type": "S2s"}, "12": {"label": "*3", "atom_type": "Cs"}}

>  <type>  (10) 
unop_6

>  <geom_source>  (10) 
Heuristics

$$$$

     RDKit          3D

 23 21  0  0  0  0  0  0  0  0999 V2000
   -1.3445    0.8312   -2.7495 C   0  0  0  0  0  0  0  0  0  0  0  0
   -1.3445    0.8312   -1.2390 C   0  0  0  0  0  0  0  0  0  0  0  0
   -1.3445    2.1571   -0.5754 N   0  0  0  0  0  0  0  0  0  0  0  0
   -1.3445    3.0867   -1.3231 O   0  0  0  0  0  1  0  0  0  0  0  0
   -0.4644    1.3386   -3.1440 H   0  0  0  0  0  0  0  0  0  0  0  0
   -1.3445   -0.1960   -3.1148 H   0  0  0  0  0  0  0  0  0  0  0  0
   -2.2246    1.3386   -3.1440 H   0  0  0  0  0  0  0  0  0  0  0  0
   -0.2991    0.2224   -0.7264 H   0  0  0  0  0  0  0  0  0  0  0  0
   -2.2157    0.3239   -0.8119 H   0  0  0  0  0  0  0  0  0  0  0  0
    2.5923   -2.1299    1.8326 C   0  0  0  0  0  0  0  0  0  0  0  0
    1.1466   -1.8137    2.1786 C   0  0  0  0  0  0  0  0  0  0  0  0
    0.0224   -1.7273    0.7620 S   0  0  0  0  0  0  0  0  0  0  0  0
    0.7429   -0.3844   -0.2156 C   0  0  0  0  0  0  0  0  0  0  0  0
    0.8071    0.9602    0.4898 C   0  0  0  0  0  0  0  0  0  0  0  0
    3.0467   -1.3298    1.2457 H   0  0  0  0  0  0  0  0  0  0  0  0
    3.1835   -2.2441    2.7438 H   0  0  0  0  0  0  0  0  0  0  0  0
    2.6618   -3.0533    1.2565 H   0  0  0  0  0  0  0  0  0  0  0  0
    1.0766   -0.8897    2.7549 H   0  0  0  0  0  0  0  0  0  0  0  0
    0.7215   -2.6042    2.7993 H   0  0  0  0  0  0  0  0  0  0  0  0
    1.7290   -0.6844   -0.5738 H   0  0  0  0  0  0  0  0  0  0  0  0
    1.4835    0.9303    1.3458 H   0  0  0  0  0  0  0  0  0  0  0  0
    1.1765    1.7287   -0.1928 H   0  0  0  0  0  0  0  0  0  0  0  0
   -0.1785    1.2597    0.8478 H   0  0  0  0  0  0  0  0  0  0  0  0
  1  2  1  0
  1  5  1  0
  1  6  1  0
  1  7  1  0
  2  3  2  3
  2  9  1  0
  3  4  1  0
  8 13  1  0
 10 11  1  0
 10 15  1  0
 10 16  1  0
 10 17  1  0
 11 12  1  0
 11 18  1  0
 11 19  1  0
 12 13  1  0
 13 14  1  0
 13 20  1  0
 14 21  1  0
 14 22  1  0
 14 23  1  0
M  RAD  1   4   2
M  END
>  <reaction>  (11) 
rmg_rxn_61

>  <mol_properties>  (11) 
{"1": {"label": "*1", "atom_type": "Cs"}, "2": {"label": "*0", "atom_type": "N3d"}, "7": {"label": "*2", "atom_type": "H0"}, "11": {"label": "*4", "atom_type": "S2s"}, "12": {"label": "*3", "atom_type": "Cs"}}

>  <type>  (11) 
unop_7

>  <geom_source>  (11) 
Heuristics

$$$$

     RDKit          3D

 23 21  0  0  0  0  0  0  0  0999 V2000
   -1.8777    0.0542   -2.5352 C   0  0  0  0  0  0  0  0  0  0  0  0
   -1.8777    0.0542   -1.0247 C   0  0  0  0  0  0  0  0  0  0  0  0
   -1.8777    1.3801   -0.3611 N   0  0  0  0  0  0  0  0  0  0  0  0
   -1.8777    2.3097   -1.1088 O   0  0  0  0  0  1  0  0  0  0  0  0
   -0.9976    0.5616   -2.9297 H   0  0  0  0  0  0  0  0  0  0  0  0
   -1.8777   -0.9730   -2.9004 H   0  0  0  0  0  0  0  0  0  0  0  0
   -2.7578    0.5616   -2.9297 H   0  0  0  0  0  0  0  0  0  0  0  0
   -0.8323   -0.5546   -0.5121 H   0  0  0  0  0  0  0  0  0  0  0  0
   -2.7489   -0.4531   -0.5975 H   0  0  0  0  0  0  0  0  0  0  0  0
    1.2672   -0.2367    2.9464 C   0  0  0  0  0  0  0  0  0  0  0  0
    2.2104   -0.2385    1.7548 C   0  0  0  0  0  0  0  0  0  0  0  0
    1.4371    0.1591    0.1667 S   0  0  0  0  0  0  0  0  0  0  0  0
    0.2097   -1.1614   -0.0012 C   0  0  0  0  0  0  0  0  0  0  0  0
    0.7812   -2.5692   -0.0304 C   0  0  0  0  0  0  0  0  0  0  0  0
    0.5208   -1.0288    2.8662 H   0  0  0  0  0  0  0  0  0  0  0  0
    1.8245   -0.4041    3.8708 H   0  0  0  0  0  0  0  0  0  0  0  0
    0.7423    0.7159    3.0262 H   0  0  0  0  0  0  0  0  0  0  0  0
    2.7357   -1.1916    1.6746 H   0  0  0  0  0  0  0  0  0  0  0  0
    2.9739    0.5324    1.8717 H   0  0  0  0  0  0  0  0  0  0  0  0
   -0.5412   -1.0614    0.7843 H   0  0  0  0  0  0  0  0  0  0  0  0
    1.2492   -2.8301    0.9203 H   0  0  0  0  0  0  0  0  0  0  0  0
   -0.0126   -3.2964   -0.2152 H   0  0  0  0  0  0  0  0  0  0  0  0
    1.5316   -2.6687   -0.8154 H   0  0  0  0  0  0  0  0  0  0  0  0
  1  2  1  0
  1  5  1  0
  1  6  1  0
  1  7  1  0
  2  3  2  3
  2  9  1  0
  3  4  1  0
  8 13  1  0
 10 11  1  0
 10 15  1  0
 10 16  1  0
 10 17  1  0
 11 12  1  0
 11 18  1  0
 11 19  1  0
 12 13  1  0
 13 14  1  0
 13 20  1  0
 14 21  1  0
 14 22  1  0
 14 23  1  0
M  RAD  1   4   2
M  END
>  <reaction>  (12) 
rmg_rxn_61

>  <mol_properties>  (12) 
{"1": {"label": "*1", "atom_type": "Cs"}, "2": {"label": "*0", "atom_type": "N3d"}, "7": {"label": "*2", "atom_type": "H0"}, "11": {"label": "*4", "atom_type": "S2s"}, "12": {"label": "*3", "atom_type": "Cs"}}

>  <type>  (12) 
unop_8

>  <geom_source>  (12) 
Heuristics

$$$$

     RDKit          3D

 23 21  0  0  0  0  0  0  0  0999 V2000
   -1.6934    1.1030   -1.8942 C   0  0  0  0  0  0  0  0  0  0  0  0
   -1.6934    1.1030   -0.3837 C   0  0  0  0  0  0  0  0  0  0  0  0
   -1.6934    2.4289    0.2798 N   0  0  0  0  0  0  0  0  0  0  0  0
   -1.6934    3.3585   -0.4679 O   0  0  0  0  0  1  0  0  0  0  0  0
   -0.8133    1.6103   -2.2887 H   0  0  0  0  0  0  0  0  0  0  0  0
   -1.6934    0.0758   -2.2595 H   0  0  0  0  0  0  0  0  0  0  0  0
   -2.5736    1.6103   -2.2887 H   0  0  0  0  0  0  0  0  0  0  0  0
   -0.6480    0.4942    0.1289 H   0  0  0  0  0  0  0  0  0  0  0  0
   -2.5646    0.5956    0.0434 H   0  0  0  0  0  0  0  0  0  0  0  0
    3.1288   -1.8757    0.9113 C   0  0  0  0  0  0  0  0  0  0  0  0
    1.8622   -2.4996    0.3494 C   0  0  0  0  0  0  0  0  0  0  0  0
    0.8073   -1.3709   -0.5948 S   0  0  0  0  0  0  0  0  0  0  0  0
    0.3939   -0.1126    0.6397 C   0  0  0  0  0  0  0  0  0  0  0  0
   -0.3477   -0.6305    1.8609 C   0  0  0  0  0  0  0  0  0  0  0  0
    2.9012   -1.1161    1.6611 H   0  0  0  0  0  0  0  0  0  0  0  0
    3.7447   -2.6380    1.3937 H   0  0  0  0  0  0  0  0  0  0  0  0
    3.7152   -1.4058    0.1209 H   0  0  0  0  0  0  0  0  0  0  0  0
    1.2751   -2.9698    1.1400 H   0  0  0  0  0  0  0  0  0  0  0  0
    2.1093   -3.2843   -0.3676 H   0  0  0  0  0  0  0  0  0  0  0  0
    1.2996    0.4219    0.9310 H   0  0  0  0  0  0  0  0  0  0  0  0
    0.2731   -1.3107    2.4465 H   0  0  0  0  0  0  0  0  0  0  0  0
   -0.6294    0.1992    2.5130 H   0  0  0  0  0  0  0  0  0  0  0  0
   -1.2526   -1.1647    1.5694 H   0  0  0  0  0  0  0  0  0  0  0  0
  1  2  1  0
  1  5  1  0
  1  6  1  0
  1  7  1  0
  2  3  2  3
  2  9  1  0
  3  4  1  0
  8 13  1  0
 10 11  1  0
 10 15  1  0
 10 16  1  0
 10 17  1  0
 11 12  1  0
 11 18  1  0
 11 19  1  0
 12 13  1  0
 13 14  1  0
 13 20  1  0
 14 21  1  0
 14 22  1  0
 14 23  1  0
M  RAD  1   4   2
M  END
>  <reaction>  (13) 
rmg_rxn_61

>  <mol_properties>  (13) 
{"1": {"label": "*1", "atom_type": "Cs"}, "2": {"label": "*0", "atom_type": "N3d"}, "7": {"label": "*2", "atom_type": "H0"}, "11": {"label": "*4", "atom_type": "S2s"}, "12": {"label": "*3", "atom_type": "Cs"}}

>  <type>  (13) 
unop_9

>  <geom_source>  (13) 
Heuristics

$$$$

     RDKit          3D

 23 21  0  0  0  0  0  0  0  0999 V2000
   -2.0550    0.0954   -2.2063 C   0  0  0  0  0  0  0  0  0  0  0  0
   -2.0550    0.0954   -0.6958 C   0  0  0  0  0  0  0  0  0  0  0  0
   -2.0550    1.4213   -0.0323 N   0  0  0  0  0  0  0  0  0  0  0  0
   -2.0550    2.3509   -0.7800 O   0  0  0  0  0  1  0  0  0  0  0  0
   -1.1749    0.6028   -2.6008 H   0  0  0  0  0  0  0  0  0  0  0  0
   -2.0550   -0.9318   -2.5716 H   0  0  0  0  0  0  0  0  0  0  0  0
   -2.9351    0.6028   -2.6008 H   0  0  0  0  0  0  0  0  0  0  0  0
   -1.0096   -0.5134   -0.1833 H   0  0  0  0  0  0  0  0  0  0  0  0
   -2.9262   -0.4119   -0.2687 H   0  0  0  0  0  0  0  0  0  0  0  0
    2.1538    0.2988    2.3644 C   0  0  0  0  0  0  0  0  0  0  0  0
    2.6273   -0.2904    1.0459 C   0  0  0  0  0  0  0  0  0  0  0  0
    1.4377   -0.1760   -0.3142 S   0  0  0  0  0  0  0  0  0  0  0  0
    0.0324   -1.1202    0.3276 C   0  0  0  0  0  0  0  0  0  0  0  0
    0.3294   -2.5758    0.6477 C   0  0  0  0  0  0  0  0  0  0  0  0
    1.3083   -0.2591    2.7704 H   0  0  0  0  0  0  0  0  0  0  0  0
    2.9559    0.2630    3.1049 H   0  0  0  0  0  0  0  0  0  0  0  0
    1.8447    1.3370    2.2382 H   0  0  0  0  0  0  0  0  0  0  0  0
    2.9365   -1.3294    1.1717 H   0  0  0  0  0  0  0  0  0  0  0  0
    3.4977    0.2539    0.6758 H   0  0  0  0  0  0  0  0  0  0  0  0
   -0.3840   -0.6069    1.1960 H   0  0  0  0  0  0  0  0  0  0  0  0
    1.0426   -2.6668    1.4687 H   0  0  0  0  0  0  0  0  0  0  0  0
   -0.5850   -3.0913    0.9496 H   0  0  0  0  0  0  0  0  0  0  0  0
    0.7455   -3.0883   -0.2203 H   0  0  0  0  0  0  0  0  0  0  0  0
  1  2  1  0
  1  5  1  0
  1  6  1  0
  1  7  1  0
  2  3  2  3
  2  9  1  0
  3  4  1  0
  8 13  1  0
 10 11  1  0
 10 15  1  0
 10 16  1  0
 10 17  1  0
 11 12  1  0
 11 18  1  0
 11 19  1  0
 12 13  1  0
 13 14  1  0
 13 20  1  0
 14 21  1  0
 14 22  1  0
 14 23  1  0
M  RAD  1   4   2
M  END
>  <reaction>  (14) 
rmg_rxn_61

>  <mol_properties>  (14) 
{"1": {"label": "*1", "atom_type": "Cs"}, "2": {"label": "*0", "atom_type": "N3d"}, "7": {"label": "*2", "atom_type": "H0"}, "11": {"label": "*4", "atom_type": "S2s"}, "12": {"label": "*3", "atom_type": "Cs"}}

>  <type>  (14) 
unop_10

>  <geom_source>  (14) 
Heuristics

$$$$

     RDKit          3D

 23 21  0  0  0  0  0  0  0  0999 V2000
   -1.4935    0.6301   -2.8134 C   0  0  0  0  0  0  0  0  0  0  0  0
   -1.4935    0.6301   -1.3030 C   0  0  0  0  0  0  0  0  0  0  0  0
   -1.4935    1.9561   -0.6394 N   0  0  0  0  0  0  0  0  0  0  0  0
   -1.4935    2.8856   -1.3871 O   0  0  0  0  0  1  0  0  0  0  0  0
   -0.6134    1.1375   -3.2079 H   0  0  0  0  0  0  0  0  0  0  0  0
   -1.4935   -0.3970   -3.1787 H   0  0  0  0  0  0  0  0  0  0  0  0
   -2.3736    1.1375   -3.2079 H   0  0  0  0  0  0  0  0  0  0  0  0
   -0.4481    0.0213   -0.7904 H   0  0  0  0  0  0  0  0  0  0  0  0
   -2.3647    0.1228   -0.8758 H   0  0  0  0  0  0  0  0  0  0  0  0
    2.5451   -2.3384    1.6651 C   0  0  0  0  0  0  0  0  0  0  0  0
    1.5023   -1.4055    2.2583 C   0  0  0  0  0  0  0  0  0  0  0  0
   -0.0197   -1.2457    1.2908 S   0  0  0  0  0  0  0  0  0  0  0  0
    0.5939   -0.5854   -0.2795 C   0  0  0  0  0  0  0  0  0  0  0  0
    1.2990    0.7571   -0.1797 C   0  0  0  0  0  0  0  0  0  0  0  0
    2.9310   -1.9560    0.7186 H   0  0  0  0  0  0  0  0  0  0  0  0
    3.3925   -2.4414    2.3466 H   0  0  0  0  0  0  0  0  0  0  0  0
    2.1242   -3.3280    1.4838 H   0  0  0  0  0  0  0  0  0  0  0  0
    1.9231   -0.4151    2.4398 H   0  0  0  0  0  0  0  0  0  0  0  0
    1.1582   -1.7823    3.2228 H   0  0  0  0  0  0  0  0  0  0  0  0
    1.2337   -1.3273   -0.7603 H   0  0  0  0  0  0  0  0  0  0  0  0
    2.2222    0.6815    0.3973 H   0  0  0  0  0  0  0  0  0  0  0  0
    1.5638    1.1207   -1.1751 H   0  0  0  0  0  0  0  0  0  0  0  0
    0.6594    1.4981    0.3010 H   0  0  0  0  0  0  0  0  0  0  0  0
  1  2  1  0
  1  5  1  0
  1  6  1  0
  1  7  1  0
  2  3  2  3
  2  9  1  0
  3  4  1  0
  8 13  1  0
 10 11  1  0
 10 15  1  0
 10 16  1  0
 10 17  1  0
 11 12  1  0
 11 18  1  0
 11 19  1  0
 12 13  1  0
 13 14  1  0
 13 20  1  0
 14 21  1  0
 14 22  1  0
 14 23  1  0
M  RAD  1   4   2
M  END
>  <reaction>  (15) 
rmg_rxn_61

>  <mol_properties>  (15) 
{"1": {"label": "*1", "atom_type": "Cs"}, "2": {"label": "*0", "atom_type": "N3d"}, "7": {"label": "*2", "atom_type": "H0"}, "11": {"label": "*4", "atom_type": "S2s"}, "12": {"label": "*3", "atom_type": "Cs"}}

>  <type>  (15) 
unop_11

>  <geom_source>  (15) 
Heuristics

$$$$

     RDKit          3D

 23 21  0  0  0  0  0  0  0  0999 V2000
   -1.9744    0.7753   -1.7684 C   0  0  0  0  0  0  0  0  0  0  0  0
   -1.9744    0.7753   -0.2580 C   0  0  0  0  0  0  0  0  0  0  0  0
   -1.9744    2.1012    0.4056 N   0  0  0  0  0  0  0  0  0  0  0  0
   -1.9744    3.0308   -0.3421 O   0  0  0  0  0  1  0  0  0  0  0  0
   -1.0943    1.2826   -2.1629 H   0  0  0  0  0  0  0  0  0  0  0  0
   -1.9744   -0.2519   -2.1337 H   0  0  0  0  0  0  0  0  0  0  0  0
   -2.8546    1.2826   -2.1629 H   0  0  0  0  0  0  0  0  0  0  0  0
   -0.9290    0.1665    0.2546 H   0  0  0  0  0  0  0  0  0  0  0  0
   -2.8456    0.2680    0.1692 H   0  0  0  0  0  0  0  0  0  0  0  0
    3.3452   -0.8721    0.9340 C   0  0  0  0  0  0  0  0  0  0  0  0
    2.4904   -1.7807    0.0660 C   0  0  0  0  0  0  0  0  0  0  0  0
    1.0483   -0.9849   -0.6860 S   0  0  0  0  0  0  0  0  0  0  0  0
    0.1130   -0.4403    0.7655 C   0  0  0  0  0  0  0  0  0  0  0  0
   -0.3270   -1.5543    1.7009 C   0  0  0  0  0  0  0  0  0  0  0  0
    2.8002   -0.5354    1.8175 H   0  0  0  0  0  0  0  0  0  0  0  0
    4.2333   -1.4053    1.2805 H   0  0  0  0  0  0  0  0  0  0  0  0
    3.6654    0.0095    0.3777 H   0  0  0  0  0  0  0  0  0  0  0  0
    2.1696   -2.6629    0.6224 H   0  0  0  0  0  0  0  0  0  0  0  0
    3.0639   -2.1402   -0.7900 H   0  0  0  0  0  0  0  0  0  0  0  0
    0.6854    0.3173    1.3033 H   0  0  0  0  0  0  0  0  0  0  0  0
    0.5286   -2.0450    2.1679 H   0  0  0  0  0  0  0  0  0  0  0  0
   -0.9513   -1.1519    2.5018 H   0  0  0  0  0  0  0  0  0  0  0  0
   -0.8990   -2.3112    1.1630 H   0  0  0  0  0  0  0  0  0  0  0  0
  1  2  1  0
  1  5  1  0
  1  6  1  0
  1  7  1  0
  2  3  2  3
  2  9  1  0
  3  4  1  0
  8 13  1  0
 10 11  1  0
 10 15  1  0
 10 16  1  0
 10 17  1  0
 11 12  1  0
 11 18  1  0
 11 19  1  0
 12 13  1  0
 13 14  1  0
 13 20  1  0
 14 21  1  0
 14 22  1  0
 14 23  1  0
M  RAD  1   4   2
M  END
>  <reaction>  (16) 
rmg_rxn_61

>  <mol_properties>  (16) 
{"1": {"label": "*1", "atom_type": "Cs"}, "2": {"label": "*0", "atom_type": "N3d"}, "7": {"label": "*2", "atom_type": "H0"}, "11": {"label": "*4", "atom_type": "S2s"}, "12": {"label": "*3", "atom_type": "Cs"}}

>  <type>  (16) 
unop_12

>  <geom_source>  (16) 
Heuristics

$$$$

     RDKit          3D

 23 21  0  0  0  0  0  0  0  0999 V2000
   -0.7416    0.7267   -0.0820 S   0  0  0  0  0  0  0  0  0  0  0  0
    3.4009   -0.6492    2.1186 O   0  0  0  0  0  1  0  0  0  0  0  0
    3.5059   -0.8107    0.9408 N   0  0  0  0  0  0  0  0  0  0  0  0
   -0.0287   -0.9514    0.0512 C   0  0  0  0  0  0  0  0  0  0  0  0
   -2.4402    0.2524    0.3926 C   0  0  0  0  0  0  0  0  0  0  0  0
   -0.1878   -1.7113   -1.2578 C   0  0  0  0  0  0  0  0  0  0  0  0
   -3.3467    1.4733    0.3575 C   0  0  0  0  0  0  0  0  0  0  0  0
    2.6151    1.2377   -0.0347 C   0  0  0  0  0  0  0  0  0  0  0  0
    2.5148   -0.2800    0.0402 C   0  0  0  0  0  0  0  0  0  0  0  0
   -0.4938   -1.5209    0.8838 H   0  0  0  0  0  0  0  0  0  0  0  0
    1.2899   -0.8290    0.3173 H   0  0  0  0  0  0  0  0  0  0  0  0
   -2.8328   -0.5107   -0.3112 H   0  0  0  0  0  0  0  0  0  0  0  0
   -2.4369   -0.1681    1.4208 H   0  0  0  0  0  0  0  0  0  0  0  0
   -1.2609   -1.8656   -1.4933 H   0  0  0  0  0  0  0  0  0  0  0  0
    0.3032   -2.7029   -1.1701 H   0  0  0  0  0  0  0  0  0  0  0  0
    0.2931   -1.1477   -2.0849 H   0  0  0  0  0  0  0  0  0  0  0  0
   -3.3721    1.9011   -0.6672 H   0  0  0  0  0  0  0  0  0  0  0  0
   -4.3776    1.1811    0.6488 H   0  0  0  0  0  0  0  0  0  0  0  0
   -2.9787    2.2436    1.0681 H   0  0  0  0  0  0  0  0  0  0  0  0
    1.8549    1.6223   -0.7459 H   0  0  0  0  0  0  0  0  0  0  0  0
    3.6248    1.5388   -0.3864 H   0  0  0  0  0  0  0  0  0  0  0  0
    2.4240    1.6820    0.9647 H   0  0  0  0  0  0  0  0  0  0  0  0
    2.6713   -0.7116   -0.9708 H   0  0  0  0  0  0  0  0  0  0  0  0
  1  4  1  0
  1  5  1  0
  2  3  1  0
  3  9  2  3
  4  6  1  0
  4 10  1  0
  4 11  1  0
  5  7  1  0
  5 12  1  0
  5 13  1  0
  6 14  1  0
  6 15  1  0
  6 16  1  0
  7 17  1  0
  7 18  1  0
  7 19  1  0
  8  9  1  0
  8 20  1  0
  8 21  1  0
  8 22  1  0
  9 23  1  0
M  RAD  1   2   2
M  END
>  <reaction>  (17) 
rmg_rxn_61

>  <mol_properties>  (17) 
{"1": {"label": "*1", "atom_type": "Cs"}, "2": {"label": "*0", "atom_type": "N3d"}, "7": {"label": "*2", "atom_type": "H0"}, "11": {"label": "*4", "atom_type": "S2s"}, "12": {"label": "*3", "atom_type": "Cs"}}

>  <type>  (17) 
unop_13

>  <geom_source>  (17) 
AutoTST

$$$$

     RDKit          3D

 23 21  0  0  0  0  0  0  0  0999 V2000
   -2.1109    0.3670   -1.8997 C   0  0  0  0  0  0  0  0  0  0  0  0
   -2.1109    0.3670   -0.3892 C   0  0  0  0  0  0  0  0  0  0  0  0
   -2.1109    1.6929    0.2744 N   0  0  0  0  0  0  0  0  0  0  0  0
   -2.1109    2.6225   -0.4733 O   0  0  0  0  0  1  0  0  0  0  0  0
   -1.2308    0.8743   -2.2942 H   0  0  0  0  0  0  0  0  0  0  0  0
   -2.1109   -0.6602   -2.2650 H   0  0  0  0  0  0  0  0  0  0  0  0
   -2.9911    0.8743   -2.2942 H   0  0  0  0  0  0  0  0  0  0  0  0
   -1.0655   -0.2418    0.1234 H   0  0  0  0  0  0  0  0  0  0  0  0
   -2.9821   -0.1403    0.0379 H   0  0  0  0  0  0  0  0  0  0  0  0
    2.9771    0.0646    1.5423 C   0  0  0  0  0  0  0  0  0  0  0  0
    2.7807   -0.8739    0.3632 C   0  0  0  0  0  0  0  0  0  0  0  0
    1.2749   -0.5871   -0.6002 S   0  0  0  0  0  0  0  0  0  0  0  0
   -0.0235   -0.8486    0.6343 C   0  0  0  0  0  0  0  0  0  0  0  0
   -0.0500   -2.2359    1.2542 C   0  0  0  0  0  0  0  0  0  0  0  0
    2.2057   -0.0799    2.3006 H   0  0  0  0  0  0  0  0  0  0  0  0
    3.9427   -0.1215    2.0177 H   0  0  0  0  0  0  0  0  0  0  0  0
    2.9443    1.1061    1.2206 H   0  0  0  0  0  0  0  0  0  0  0  0
    2.8133   -1.9162    0.6847 H   0  0  0  0  0  0  0  0  0  0  0  0
    3.5831   -0.7443   -0.3650 H   0  0  0  0  0  0  0  0  0  0  0  0
    0.0469   -0.0786    1.4043 H   0  0  0  0  0  0  0  0  0  0  0  0
    0.8486   -2.4274    1.8431 H   0  0  0  0  0  0  0  0  0  0  0  0
   -0.9076   -2.3353    1.9233 H   0  0  0  0  0  0  0  0  0  0  0  0
   -0.1203   -3.0051    0.4843 H   0  0  0  0  0  0  0  0  0  0  0  0
  1  2  1  0
  1  5  1  0
  1  6  1  0
  1  7  1  0
  2  3  2  3
  2  9  1  0
  3  4  1  0
  8 13  1  0
 10 11  1  0
 10 15  1  0
 10 16  1  0
 10 17  1  0
 11 12  1  0
 11 18  1  0
 11 19  1  0
 12 13  1  0
 13 14  1  0
 13 20  1  0
 14 21  1  0
 14 22  1  0
 14 23  1  0
M  RAD  1   4   2
M  END
>  <reaction>  (18) 
rmg_rxn_61

>  <mol_properties>  (18) 
{"1": {"label": "*1", "atom_type": "Cs"}, "2": {"label": "*0", "atom_type": "N3d"}, "7": {"label": "*2", "atom_type": "H0"}, "11": {"label": "*4", "atom_type": "S2s"}, "12": {"label": "*3", "atom_type": "Cs"}}

>  <type>  (18) 
unop_14

>  <geom_source>  (18) 
gaussian_log

$$$$
