
     RDKit          3D

 12 11  0  0  0  0  0  0  0  0999 V2000
    1.8075    0.1979    0.4695 C   0  0  0  0  0  0  0  0  0  0  0  0
    1.0072   -0.8859   -0.7259 S   0  0  0  0  0  0  0  0  0  0  0  0
   -0.7258   -0.6904   -0.2447 C   0  0  0  0  0  0  0  0  0  0  0  0
   -1.0856   -1.2776    1.1108 C   0  0  0  0  0  0  0  0  0  0  0  0
    1.7126   -0.1777    1.4878 H   0  0  0  0  0  0  0  0  0  0  0  0
    1.4024    1.2089    0.4095 H   0  0  0  0  0  0  0  0  0  0  0  0
    2.8647    0.2298    0.2095 H   0  0  0  0  0  0  0  0  0  0  0  0
   -1.2866   -1.1892   -1.0369 H   0  0  0  0  0  0  0  0  0  0  0  0
   -0.9814    0.3707   -0.2917 H   0  0  0  0  0  0  0  0  0  0  0  0
   -0.5492   -0.7768    1.9180 H   0  0  0  0  0  0  0  0  0  0  0  0
   -0.8418   -2.3397    1.1503 H   0  0  0  0  0  0  0  0  0  0  0  0
   -2.1545   -1.1604    1.3035 H   0  0  0  0  0  0  0  0  0  0  0  0
  1  2  1  0
  1  5  1  0
  1  6  1  0
  1  7  1  0
  2  3  1  0
  3  4  1  0
  3  8  1  0
  3  9  1  0
  4 10  1  0
  4 11  1  0
  4 12  1  0
M  END
>  <reaction>  (1) 
rmg_rxn_653

>  <mol_properties>  (1) 
{"0": {"label": "donator", "atom_type": "Cs"}, "4": {"label": "d_hydrogen", "atom_type": "H0"}}

>  <type>  (1) 
r1h

$$$$

     RDKit          3D

 14 13  0  0  0  0  0  0  0  0999 V2000
    2.6694    0.2813   -0.6046 C   0  0  0  0  0  3  0  0  0  0  0  0
    1.5626   -0.5075   -0.0103 C   0  0  0  0  0  0  0  0  0  0  0  0
    0.5522   -0.8487   -0.9278 O   0  0  0  0  0  0  0  0  0  0  0  0
    0.9505   -1.8204   -1.8682 C   0  0  0  0  0  0  0  0  0  0  0  0
   -0.2101   -2.1029   -2.7930 C   0  0  0  0  0  0  0  0  0  0  0  0
    2.4666    0.9443   -1.4355 H   0  0  0  0  0  0  0  0  0  0  0  0
    3.6339    0.3312   -0.1179 H   0  0  0  0  0  0  0  0  0  0  0  0
    1.0573    0.0741    0.7733 H   0  0  0  0  0  0  0  0  0  0  0  0
    1.9580   -1.4106    0.4809 H   0  0  0  0  0  0  0  0  0  0  0  0
    1.8195   -1.4649   -2.4379 H   0  0  0  0  0  0  0  0  0  0  0  0
    1.2587   -2.7372   -1.3440 H   0  0  0  0  0  0  0  0  0  0  0  0
   -0.5051   -1.1971   -3.3238 H   0  0  0  0  0  0  0  0  0  0  0  0
    0.0686   -2.8601   -3.5276 H   0  0  0  0  0  0  0  0  0  0  0  0
   -1.0699   -2.4661   -2.2289 H   0  0  0  0  0  0  0  0  0  0  0  0
  1  2  1  0
  1  6  1  0
  1  7  1  0
  2  3  1  0
  2  8  1  0
  2  9  1  0
  3  4  1  0
  4  5  1  0
  4 10  1  0
  4 11  1  0
  5 12  1  0
  5 13  1  0
  5 14  1  0
M  RAD  1   1   2
M  END
>  <reaction>  (2) 
rmg_rxn_653

>  <mol_properties>  (2) 
{"0": {"label": "acceptor", "atom_type": "Cs"}}

>  <type>  (2) 
r2

$$$$

     RDKit          3D

 15 14  0  0  0  0  0  0  0  0999 V2000
    2.4145    0.0817    0.4065 C   0  0  0  0  0  0  0  0  0  0  0  0
    1.1257   -0.2220   -0.3219 C   0  0  0  0  0  0  0  0  0  0  0  0
    1.0983   -1.5879   -0.6512 O   0  0  0  0  0  0  0  0  0  0  0  0
   -0.0685   -1.9694   -1.3352 C   0  0  0  0  0  0  0  0  0  0  0  0
    0.0024   -3.4478   -1.6403 C   0  0  0  0  0  0  0  0  0  0  0  0
    3.2736   -0.1534   -0.2229 H   0  0  0  0  0  0  0  0  0  0  0  0
    2.4581    1.1389    0.6728 H   0  0  0  0  0  0  0  0  0  0  0  0
    2.4855   -0.5095    1.3201 H   0  0  0  0  0  0  0  0  0  0  0  0
    0.2597    0.0294    0.3083 H   0  0  0  0  0  0  0  0  0  0  0  0
    1.0482    0.3858   -1.2356 H   0  0  0  0  0  0  0  0  0  0  0  0
   -0.9535   -1.7457   -0.7211 H   0  0  0  0  0  0  0  0  0  0  0  0
   -0.1650   -1.3894   -2.2650 H   0  0  0  0  0  0  0  0  0  0  0  0
    0.0831   -4.0247   -0.7183 H   0  0  0  0  0  0  0  0  0  0  0  0
   -0.8950   -3.7674   -2.1724 H   0  0  0  0  0  0  0  0  0  0  0  0
    0.8712   -3.6686   -2.2613 H   0  0  0  0  0  0  0  0  0  0  0  0
  1  2  1  0
  1  6  1  0
  1  7  1  0
  1  8  1  0
  2  3  1  0
  2  9  1  0
  2 10  1  0
  3  4  1  0
  4  5  1  0
  4 11  1  0
  4 12  1  0
  5 13  1  0
  5 14  1  0
  5 15  1  0
M  END
>  <reaction>  (3) 
rmg_rxn_653

>  <mol_properties>  (3) 
{"0": {"label": "a_hydrogen", "atom_type": "H0"}, "1": {"label": "acceptor", "atom_type": "Cs"}}

>  <type>  (3) 
r2h

$$$$

     RDKit          3D

 26 24  0  0  0  0  0  0  0  0999 V2000
   -0.1785    0.9215    1.6270 C   0  0  0  0  0  0  0  0  0  0  0  0
   -1.7600    0.2770    2.0706 S   0  0  0  0  0  0  0  0  0  0  0  0
   -1.7287   -1.3430    1.2652 C   0  0  0  0  0  0  0  0  0  0  0  0
   -1.7097   -1.3077   -0.2540 C   0  0  0  0  0  0  0  0  0  0  0  0
   -0.1658    1.4183    0.4292 H   0  0  0  0  0  0  0  0  0  0  0  0
    0.6127    0.1724    1.6247 H   0  0  0  0  0  0  0  0  0  0  0  0
    0.0659    1.7665    2.2678 H   0  0  0  0  0  0  0  0  0  0  0  0
   -2.6282   -1.8410    1.6317 H   0  0  0  0  0  0  0  0  0  0  0  0
   -0.8716   -1.8980    1.6529 H   0  0  0  0  0  0  0  0  0  0  0  0
   -0.7891   -0.8605   -0.6292 H   0  0  0  0  0  0  0  0  0  0  0  0
   -2.5558   -0.7365   -0.6388 H   0  0  0  0  0  0  0  0  0  0  0  0
   -1.7733   -2.3241   -0.6505 H   0  0  0  0  0  0  0  0  0  0  0  0
   -0.0234    1.9680   -0.8535 C   0  0  0  0  0  3  0  0  0  0  0  0
    1.3060    1.4945   -1.3442 C   0  0  0  0  0  0  0  0  0  0  0  0
    1.3190    0.0869   -1.3495 O   0  0  0  0  0  0  0  0  0  0  0  0
    2.5255   -0.4654   -1.8130 C   0  0  0  0  0  0  0  0  0  0  0  0
    2.4219   -1.9719   -1.7559 C   0  0  0  0  0  0  0  0  0  0  0  0
   -0.8789    1.5643   -1.3896 H   0  0  0  0  0  0  0  0  0  0  0  0
   -0.0867    3.0415   -0.6940 H   0  0  0  0  0  0  0  0  0  0  0  0
    2.1121    1.8756   -0.6985 H   0  0  0  0  0  0  0  0  0  0  0  0
    1.5098    1.8698   -2.3616 H   0  0  0  0  0  0  0  0  0  0  0  0
    2.7203   -0.1307   -2.8421 H   0  0  0  0  0  0  0  0  0  0  0  0
    3.3620   -0.1125   -1.1924 H   0  0  0  0  0  0  0  0  0  0  0  0
    1.5980   -2.3215   -2.3791 H   0  0  0  0  0  0  0  0  0  0  0  0
    3.3457   -2.4294   -2.1129 H   0  0  0  0  0  0  0  0  0  0  0  0
    2.2440   -2.3043   -0.7323 H   0  0  0  0  0  0  0  0  0  0  0  0
  1  2  1  0
  1  5  1  0
  1  6  1  0
  1  7  1  0
  2  3  1  0
  3  4  1  0
  3  8  1  0
  3  9  1  0
  4 10  1  0
  4 11  1  0
  4 12  1  0
 13 14  1  0
 13 18  1  0
 13 19  1  0
 14 15  1  0
 14 20  1  0
 14 21  1  0
 15 16  1  0
 16 17  1  0
 16 22  1  0
 16 23  1  0
 17 24  1  0
 17 25  1  0
 17 26  1  0
M  RAD  1  13   2
M  END
>  <reaction>  (4) 
rmg_rxn_653

>  <mol_properties>  (4) 
{"0": {"label": "*1", "atom_type": "Cs"}, "1": {"label": "*0", "atom_type": "S2s"}, "4": {"label": "*2", "atom_type": "H0"}, "12": {"label": "*3", "atom_type": "Cs"}, "13": {"label": "*4", "atom_type": "Cs"}}

>  <type>  (4) 
ts

$$$$

     RDKit          3D

 26 24  0  0  0  0  0  0  0  0999 V2000
    0.1219   -0.6833    1.0811 C   0  0  0  0  0  0  0  0  0  0  0  0
   -1.5212   -1.2622    1.5389 S   0  0  0  0  0  0  0  0  0  0  0  0
   -1.5212   -2.9023    0.7753 C   0  0  0  0  0  0  0  0  0  0  0  0
   -1.5212   -2.9023   -0.7451 C   0  0  0  0  0  0  0  0  0  0  0  0
    0.2368   -0.5077   -0.2093 H   0  0  0  0  0  0  0  0  0  0  0  0
    0.8889   -1.3764    1.4292 H   0  0  0  0  0  0  0  0  0  0  0  0
    0.2684    0.2760    1.5755 H   0  0  0  0  0  0  0  0  0  0  0  0
   -2.4252   -3.3803    1.1562 H   0  0  0  0  0  0  0  0  0  0  0  0
   -0.6720   -3.4672    1.1665 H   0  0  0  0  0  0  0  0  0  0  0  0
   -0.6142   -2.4461   -1.1444 H   0  0  0  0  0  0  0  0  0  0  0  0
   -2.3772   -2.3491   -1.1328 H   0  0  0  0  0  0  0  0  0  0  0  0
   -1.5696   -3.9255   -1.1246 H   0  0  0  0  0  0  0  0  0  0  0  0
    0.3517   -0.3318   -1.5010 C   0  0  0  0  0  3  0  0  0  0  0  0
    0.6951    1.1068   -1.8110 C   0  0  0  0  0  0  0  0  0  0  0  0
    1.2408    1.7038   -0.6617 O   0  0  0  0  0  0  0  0  0  0  0  0
    1.5940    3.0507   -0.8517 C   0  0  0  0  0  0  0  0  0  0  0  0
    2.1671    3.5944    0.4365 C   0  0  0  0  0  0  0  0  0  0  0  0
    1.2443   -0.8814   -1.2000 H   0  0  0  0  0  0  0  0  0  0  0  0
   -0.0745   -0.8167   -2.3806 H   0  0  0  0  0  0  0  0  0  0  0  0
   -0.2032    1.6565   -2.1287 H   0  0  0  0  0  0  0  0  0  0  0  0
    1.4167    1.1596   -2.6397 H   0  0  0  0  0  0  0  0  0  0  0  0
    2.3298    3.1344   -1.6653 H   0  0  0  0  0  0  0  0  0  0  0  0
    0.7098    3.6312   -1.1543 H   0  0  0  0  0  0  0  0  0  0  0  0
    3.0523    3.0289    0.7296 H   0  0  0  0  0  0  0  0  0  0  0  0
    2.4491    4.6412    0.3126 H   0  0  0  0  0  0  0  0  0  0  0  0
    1.4333    3.5255    1.2402 H   0  0  0  0  0  0  0  0  0  0  0  0
  1  2  1  0
  1  5  1  0
  1  6  1  0
  1  7  1  0
  2  3  1  0
  3  4  1  0
  3  8  1  0
  3  9  1  0
  4 10  1  0
  4 11  1  0
  4 12  1  0
 13 14  1  0
 13 18  1  0
 13 19  1  0
 14 15  1  0
 14 20  1  0
 14 21  1  0
 15 16  1  0
 16 17  1  0
 16 22  1  0
 16 23  1  0
 17 24  1  0
 17 25  1  0
 17 26  1  0
M  RAD  1  13   2
M  END
>  <reaction>  (5) 
rmg_rxn_653

>  <mol_properties>  (5) 
{"0": {"label": "*1", "atom_type": "Cs"}, "1": {"label": "*0", "atom_type": "S2s"}, "4": {"label": "*2", "atom_type": "H0"}, "12": {"label": "*3", "atom_type": "Cs"}, "13": {"label": "*4", "atom_type": "Cs"}}

>  <type>  (5) 
unop_1

>  <geom_source>  (5) 
Heuristics

$$$$

     RDKit          3D

 26 24  0  0  0  0  0  0  0  0999 V2000
    1.5788   -0.2240    1.3770 C   0  0  0  0  0  0  0  0  0  0  0  0
   -0.0643   -0.8029    1.8348 S   0  0  0  0  0  0  0  0  0  0  0  0
   -0.0643   -2.4430    1.0712 C   0  0  0  0  0  0  0  0  0  0  0  0
   -0.0643   -2.4430   -0.4492 C   0  0  0  0  0  0  0  0  0  0  0  0
    1.6937   -0.0484    0.0866 H   0  0  0  0  0  0  0  0  0  0  0  0
    2.3458   -0.9171    1.7251 H   0  0  0  0  0  0  0  0  0  0  0  0
    1.7253    0.7354    1.8714 H   0  0  0  0  0  0  0  0  0  0  0  0
   -0.9683   -2.9210    1.4521 H   0  0  0  0  0  0  0  0  0  0  0  0
    0.7850   -3.0078    1.4624 H   0  0  0  0  0  0  0  0  0  0  0  0
    0.8427   -1.9868   -0.8485 H   0  0  0  0  0  0  0  0  0  0  0  0
   -0.9203   -1.8898   -0.8369 H   0  0  0  0  0  0  0  0  0  0  0  0
   -0.1127   -3.4662   -0.8287 H   0  0  0  0  0  0  0  0  0  0  0  0
    1.8086    0.1275   -1.2050 C   0  0  0  0  0  3  0  0  0  0  0  0
    0.4768    0.5104   -1.8079 C   0  0  0  0  0  0  0  0  0  0  0  0
   -0.1585    1.4350   -0.9614 O   0  0  0  0  0  0  0  0  0  0  0  0
   -1.4119    1.8536   -1.4398 C   0  0  0  0  0  0  0  0  0  0  0  0
   -2.0062    2.8403   -0.4617 C   0  0  0  0  0  0  0  0  0  0  0  0
    2.4439    1.0067   -1.0923 H   0  0  0  0  0  0  0  0  0  0  0  0
    2.3212   -0.5913   -1.8463 H   0  0  0  0  0  0  0  0  0  0  0  0
   -0.1576   -0.3794   -1.9349 H   0  0  0  0  0  0  0  0  0  0  0  0
    0.6192    0.9514   -2.8056 H   0  0  0  0  0  0  0  0  0  0  0  0
   -1.2995    2.3158   -2.4318 H   0  0  0  0  0  0  0  0  0  0  0  0
   -2.0762    0.9851   -1.5611 H   0  0  0  0  0  0  0  0  0  0  0  0
   -1.3554    3.7085   -0.3520 H   0  0  0  0  0  0  0  0  0  0  0  0
   -2.9818    3.1799   -0.8131 H   0  0  0  0  0  0  0  0  0  0  0  0
   -2.1317    2.3786    0.5182 H   0  0  0  0  0  0  0  0  0  0  0  0
  1  2  1  0
  1  5  1  0
  1  6  1  0
  1  7  1  0
  2  3  1  0
  3  4  1  0
  3  8  1  0
  3  9  1  0
  4 10  1  0
  4 11  1  0
  4 12  1  0
 13 14  1  0
 13 18  1  0
 13 19  1  0
 14 15  1  0
 14 20  1  0
 14 21  1  0
 15 16  1  0
 16 17  1  0
 16 22  1  0
 16 23  1  0
 17 24  1  0
 17 25  1  0
 17 26  1  0
M  RAD  1  13   2
M  END
>  <reaction>  (6) 
rmg_rxn_653

>  <mol_properties>  (6) 
{"0": {"label": "*1", "atom_type": "Cs"}, "1": {"label": "*0", "atom_type": "S2s"}, "4": {"label": "*2", "atom_type": "H0"}, "12": {"label": "*3", "atom_type": "Cs"}, "13": {"label": "*4", "atom_type": "Cs"}}

>  <type>  (6) 
unop_2

>  <geom_source>  (6) 
Heuristics

$$$$

     RDKit          3D

 26 24  0  0  0  0  0  0  0  0999 V2000
   -0.4319   -0.2405    1.1378 C   0  0  0  0  0  0  0  0  0  0  0  0
   -2.0750   -0.8193    1.5956 S   0  0  0  0  0  0  0  0  0  0  0  0
   -2.0750   -2.4594    0.8320 C   0  0  0  0  0  0  0  0  0  0  0  0
   -2.0750   -2.4594   -0.6884 C   0  0  0  0  0  0  0  0  0  0  0  0
   -0.3170   -0.0648   -0.1526 H   0  0  0  0  0  0  0  0  0  0  0  0
    0.3351   -0.9335    1.4859 H   0  0  0  0  0  0  0  0  0  0  0  0
   -0.2854    0.7189    1.6322 H   0  0  0  0  0  0  0  0  0  0  0  0
   -2.9790   -2.9374    1.2129 H   0  0  0  0  0  0  0  0  0  0  0  0
   -1.2257   -3.0243    1.2232 H   0  0  0  0  0  0  0  0  0  0  0  0
   -1.1680   -2.0032   -1.0877 H   0  0  0  0  0  0  0  0  0  0  0  0
   -2.9310   -1.9062   -1.0761 H   0  0  0  0  0  0  0  0  0  0  0  0
   -2.1234   -3.4827   -1.0679 H   0  0  0  0  0  0  0  0  0  0  0  0
   -0.2021    0.1110   -1.4443 C   0  0  0  0  0  3  0  0  0  0  0  0
    0.7907    1.2105   -1.7426 C   0  0  0  0  0  0  0  0  0  0  0  0
    1.7759    1.2204   -0.7405 O   0  0  0  0  0  0  0  0  0  0  0  0
    2.7504    2.2149   -0.9316 C   0  0  0  0  0  0  0  0  0  0  0  0
    3.7560    2.1395    0.1939 C   0  0  0  0  0  0  0  0  0  0  0  0
    0.2968   -0.8584   -1.4215 H   0  0  0  0  0  0  0  0  0  0  0  0
   -0.9781    0.0842   -2.2108 H   0  0  0  0  0  0  0  0  0  0  0  0
    0.2839    2.1863   -1.7801 H   0  0  0  0  0  0  0  0  0  0  0  0
    1.2574    1.0505   -2.7259 H   0  0  0  0  0  0  0  0  0  0  0  0
    3.2482    2.0708   -1.9020 H   0  0  0  0  0  0  0  0  0  0  0  0
    2.2746    3.2065   -0.9561 H   0  0  0  0  0  0  0  0  0  0  0  0
    4.2389    1.1619    0.2101 H   0  0  0  0  0  0  0  0  0  0  0  0
    4.5240    2.9040    0.0664 H   0  0  0  0  0  0  0  0  0  0  0  0
    3.2659    2.2969    1.1553 H   0  0  0  0  0  0  0  0  0  0  0  0
  1  2  1  0
  1  5  1  0
  1  6  1  0
  1  7  1  0
  2  3  1  0
  3  4  1  0
  3  8  1  0
  3  9  1  0
  4 10  1  0
  4 11  1  0
  4 12  1  0
 13 14  1  0
 13 18  1  0
 13 19  1  0
 14 15  1  0
 14 20  1  0
 14 21  1  0
 15 16  1  0
 16 17  1  0
 16 22  1  0
 16 23  1  0
 17 24  1  0
 17 25  1  0
 17 26  1  0
M  RAD  1  13   2
M  END
>  <reaction>  (7) 
rmg_rxn_653

>  <mol_properties>  (7) 
{"0": {"label": "*1", "atom_type": "Cs"}, "1": {"label": "*0", "atom_type": "S2s"}, "4": {"label": "*2", "atom_type": "H0"}, "12": {"label": "*3", "atom_type": "Cs"}, "13": {"label": "*4", "atom_type": "Cs"}}

>  <type>  (7) 
unop_3

>  <geom_source>  (7) 
Heuristics

$$$$

     RDKit          3D

 26 24  0  0  0  0  0  0  0  0999 V2000
    1.2685    1.1602    1.9505 C   0  0  0  0  0  0  0  0  0  0  0  0
   -0.3746    0.5814    2.4083 S   0  0  0  0  0  0  0  0  0  0  0  0
   -0.3746   -1.0588    1.6447 C   0  0  0  0  0  0  0  0  0  0  0  0
   -0.3746   -1.0588    0.1243 C   0  0  0  0  0  0  0  0  0  0  0  0
    1.3834    1.3359    0.6601 H   0  0  0  0  0  0  0  0  0  0  0  0
    2.0355    0.4672    2.2986 H   0  0  0  0  0  0  0  0  0  0  0  0
    1.4150    2.1196    2.4449 H   0  0  0  0  0  0  0  0  0  0  0  0
   -1.2786   -1.5367    2.0256 H   0  0  0  0  0  0  0  0  0  0  0  0
    0.4747   -1.6236    2.0359 H   0  0  0  0  0  0  0  0  0  0  0  0
    0.5324   -0.6026   -0.2750 H   0  0  0  0  0  0  0  0  0  0  0  0
   -1.2305   -0.5055   -0.2634 H   0  0  0  0  0  0  0  0  0  0  0  0
   -0.4230   -2.0820   -0.2552 H   0  0  0  0  0  0  0  0  0  0  0  0
    1.4983    1.5117   -0.6316 C   0  0  0  0  0  3  0  0  0  0  0  0
    1.2479    0.2154   -1.3667 C   0  0  0  0  0  0  0  0  0  0  0  0
   -0.1153    0.1347   -1.6986 O   0  0  0  0  0  0  0  0  0  0  0  0
   -0.4485   -1.0431   -2.3890 C   0  0  0  0  0  0  0  0  0  0  0  0
   -1.9281   -1.0302   -2.6963 C   0  0  0  0  0  0  0  0  0  0  0  0
    1.2299    2.3637   -1.2571 H   0  0  0  0  0  0  0  0  0  0  0  0
    2.5525    1.5965   -0.3631 H   0  0  0  0  0  0  0  0  0  0  0  0
    1.5329   -0.6429   -0.7404 H   0  0  0  0  0  0  0  0  0  0  0  0
    1.8598    0.1669   -2.2797 H   0  0  0  0  0  0  0  0  0  0  0  0
    0.1364   -1.1116   -3.3182 H   0  0  0  0  0  0  0  0  0  0  0  0
   -0.1904   -1.9214   -1.7789 H   0  0  0  0  0  0  0  0  0  0  0  0
   -2.1826   -0.1679   -3.3135 H   0  0  0  0  0  0  0  0  0  0  0  0
   -2.2105   -1.9371   -3.2334 H   0  0  0  0  0  0  0  0  0  0  0  0
   -2.5092   -0.9773   -1.7750 H   0  0  0  0  0  0  0  0  0  0  0  0
  1  2  1  0
  1  5  1  0
  1  6  1  0
  1  7  1  0
  2  3  1  0
  3  4  1  0
  3  8  1  0
  3  9  1  0
  4 10  1  0
  4 11  1  0
  4 12  1  0
 13 14  1  0
 13 18  1  0
 13 19  1  0
 14 15  1  0
 14 20  1  0
 14 21  1  0
 15 16  1  0
 16 17  1  0
 16 22  1  0
 16 23  1  0
 17 24  1  0
 17 25  1  0
 17 26  1  0
M  RAD  1  13   2
M  END
>  <reaction>  (8) 
rmg_rxn_653

>  <mol_properties>  (8) 
{"0": {"label": "*1", "atom_type": "Cs"}, "1": {"label": "*0", "atom_type": "S2s"}, "4": {"label": "*2", "atom_type": "H0"}, "12": {"label": "*3", "atom_type": "Cs"}, "13": {"label": "*4", "atom_type": "Cs"}}

>  <type>  (8) 
unop_4

>  <geom_source>  (8) 
Heuristics

$$$$

     RDKit          3D

 26 24  0  0  0  0  0  0  0  0999 V2000
   -0.6341    0.5171    1.4117 C   0  0  0  0  0  0  0  0  0  0  0  0
   -2.2772   -0.0618    1.8695 S   0  0  0  0  0  0  0  0  0  0  0  0
   -2.2772   -1.7019    1.1059 C   0  0  0  0  0  0  0  0  0  0  0  0
   -2.2772   -1.7019   -0.4145 C   0  0  0  0  0  0  0  0  0  0  0  0
   -0.5193    0.6927    0.1213 H   0  0  0  0  0  0  0  0  0  0  0  0
    0.1329   -0.1760    1.7598 H   0  0  0  0  0  0  0  0  0  0  0  0
   -0.4876    1.4764    1.9061 H   0  0  0  0  0  0  0  0  0  0  0  0
   -3.1813   -2.1799    1.4868 H   0  0  0  0  0  0  0  0  0  0  0  0
   -1.4280   -2.2668    1.4971 H   0  0  0  0  0  0  0  0  0  0  0  0
   -1.3702   -1.2457   -0.8138 H   0  0  0  0  0  0  0  0  0  0  0  0
   -3.1332   -1.1487   -0.8022 H   0  0  0  0  0  0  0  0  0  0  0  0
   -2.3257   -2.7251   -0.7940 H   0  0  0  0  0  0  0  0  0  0  0  0
   -0.4043    0.8686   -1.1704 C   0  0  0  0  0  3  0  0  0  0  0  0
    0.9843    1.3534   -1.5172 C   0  0  0  0  0  0  0  0  0  0  0  0
    1.9213    0.3947   -1.0954 O   0  0  0  0  0  0  0  0  0  0  0  0
    3.2497    0.7577   -1.3757 C   0  0  0  0  0  0  0  0  0  0  0  0
    4.1712   -0.3346   -0.8846 C   0  0  0  0  0  0  0  0  0  0  0  0
   -0.6128   -0.0800   -1.6664 H   0  0  0  0  0  0  0  0  0  0  0  0
   -1.1502    1.5984   -1.4892 H   0  0  0  0  0  0  0  0  0  0  0  0
    1.1880    2.3176   -1.0282 H   0  0  0  0  0  0  0  0  0  0  0  0
    1.0752    1.5151   -2.6016 H   0  0  0  0  0  0  0  0  0  0  0  0
    3.3765    0.9100   -2.4579 H   0  0  0  0  0  0  0  0  0  0  0  0
    3.4893    1.7125   -0.8845 H   0  0  0  0  0  0  0  0  0  0  0  0
    3.9442   -1.2783   -1.3819 H   0  0  0  0  0  0  0  0  0  0  0  0
    5.2103   -0.0741   -1.0920 H   0  0  0  0  0  0  0  0  0  0  0  0
    4.0569   -0.4762    0.1906 H   0  0  0  0  0  0  0  0  0  0  0  0
  1  2  1  0
  1  5  1  0
  1  6  1  0
  1  7  1  0
  2  3  1  0
  3  4  1  0
  3  8  1  0
  3  9  1  0
  4 10  1  0
  4 11  1  0
  4 12  1  0
 13 14  1  0
 13 18  1  0
 13 19  1  0
 14 15  1  0
 14 20  1  0
 14 21  1  0
 15 16  1  0
 16 17  1  0
 16 22  1  0
 16 23  1  0
 17 24  1  0
 17 25  1  0
 17 26  1  0
M  RAD  1  13   2
M  END
>  <reaction>  (9) 
rmg_rxn_653

>  <mol_properties>  (9) 
{"0": {"label": "*1", "atom_type": "Cs"}, "1": {"label": "*0", "atom_type": "S2s"}, "4": {"label": "*2", "atom_type": "H0"}, "12": {"label": "*3", "atom_type": "Cs"}, "13": {"label": "*4", "atom_type": "Cs"}}

>  <type>  (9) 
unop_5

>  <geom_source>  (9) 
Heuristics

$$$$

     RDKit          3D

 26 24  0  0  0  0  0  0  0  0999 V2000
    0.7436    1.3921    2.0043 C   0  0  0  0  0  0  0  0  0  0  0  0
   -0.8995    0.8133    2.4620 S   0  0  0  0  0  0  0  0  0  0  0  0
   -0.8995   -0.8268    1.6984 C   0  0  0  0  0  0  0  0  0  0  0  0
   -0.8995   -0.8268    0.1780 C   0  0  0  0  0  0  0  0  0  0  0  0
    0.8585    1.5678    0.7138 H   0  0  0  0  0  0  0  0  0  0  0  0
    1.5106    0.6991    2.3524 H   0  0  0  0  0  0  0  0  0  0  0  0
    0.8901    2.3515    2.4986 H   0  0  0  0  0  0  0  0  0  0  0  0
   -1.8035   -1.3048    2.0793 H   0  0  0  0  0  0  0  0  0  0  0  0
   -0.0502   -1.3917    2.0897 H   0  0  0  0  0  0  0  0  0  0  0  0
    0.0075   -0.3707   -0.2213 H   0  0  0  0  0  0  0  0  0  0  0  0
   -1.7554   -0.2736   -0.2097 H   0  0  0  0  0  0  0  0  0  0  0  0
   -0.9479   -1.8501   -0.2015 H   0  0  0  0  0  0  0  0  0  0  0  0
    0.9734    1.7436   -0.5778 C   0  0  0  0  0  3  0  0  0  0  0  0
    1.4519    0.4746   -1.2444 C   0  0  0  0  0  0  0  0  0  0  0  0
    0.3471   -0.1952   -1.7974 O   0  0  0  0  0  0  0  0  0  0  0  0
    0.6929   -1.3945   -2.4431 C   0  0  0  0  0  0  0  0  0  0  0  0
   -0.5596   -2.0316   -2.9990 C   0  0  0  0  0  0  0  0  0  0  0  0
    0.4845    2.3951   -1.3029 H   0  0  0  0  0  0  0  0  0  0  0  0
    1.8159    2.2816   -0.1403 H   0  0  0  0  0  0  0  0  0  0  0  0
    1.9581   -0.1752   -0.5152 H   0  0  0  0  0  0  0  0  0  0  0  0
    2.1830    0.7069   -2.0330 H   0  0  0  0  0  0  0  0  0  0  0  0
    1.4120   -1.1919   -3.2507 H   0  0  0  0  0  0  0  0  0  0  0  0
    1.1871   -2.0740   -1.7329 H   0  0  0  0  0  0  0  0  0  0  0  0
   -1.0423   -1.3648   -3.7142 H   0  0  0  0  0  0  0  0  0  0  0  0
   -0.3152   -2.9664   -3.5060 H   0  0  0  0  0  0  0  0  0  0  0  0
   -1.2671   -2.2464   -2.1974 H   0  0  0  0  0  0  0  0  0  0  0  0
  1  2  1  0
  1  5  1  0
  1  6  1  0
  1  7  1  0
  2  3  1  0
  3  4  1  0
  3  8  1  0
  3  9  1  0
  4 10  1  0
  4 11  1  0
  4 12  1  0
 13 14  1  0
 13 18  1  0
 13 19  1  0
 14 15  1  0
 14 20  1  0
 14 21  1  0
 15 16  1  0
 16 17  1  0
 16 22  1  0
 16 23  1  0
 17 24  1  0
 17 25  1  0
 17 26  1  0
M  RAD  1  13   2
M  END
>  <reaction>  (10) 
rmg_rxn_653

>  <mol_properties>  (10) 
{"0": {"label": "*1", "atom_type": "Cs"}, "1": {"label": "*0", "atom_type": "S2s"}, "4": {"label": "*2", "atom_type": "H0"}, "12": {"label": "*3", "atom_type": "Cs"}, "13": {"label": "*4", "atom_type": "Cs"}}

>  <type>  (10) 
unop_6

>  <geom_source>  (10) 
Heuristics

$$$$

     RDKit          3D

 26 24  0  0  0  0  0  0  0  0999 V2000
    0.1759    1.3692    1.9533 C   0  0  0  0  0  0  0  0  0  0  0  0
   -1.4672    0.7903    2.4111 S   0  0  0  0  0  0  0  0  0  0  0  0
   -1.4672   -0.8498    1.6474 C   0  0  0  0  0  0  0  0  0  0  0  0
   -1.4672   -0.8498    0.1270 C   0  0  0  0  0  0  0  0  0  0  0  0
    0.2907    1.5448    0.6629 H   0  0  0  0  0  0  0  0  0  0  0  0
    0.9429    0.6761    2.3014 H   0  0  0  0  0  0  0  0  0  0  0  0
    0.3223    2.3286    2.4476 H   0  0  0  0  0  0  0  0  0  0  0  0
   -2.3713   -1.3278    2.0283 H   0  0  0  0  0  0  0  0  0  0  0  0
   -0.6180   -1.4147    2.0387 H   0  0  0  0  0  0  0  0  0  0  0  0
   -0.5603   -0.3936   -0.2723 H   0  0  0  0  0  0  0  0  0  0  0  0
   -2.3232   -0.2966   -0.2607 H   0  0  0  0  0  0  0  0  0  0  0  0
   -1.5157   -1.8730   -0.2525 H   0  0  0  0  0  0  0  0  0  0  0  0
    0.4057    1.7207   -0.6288 C   0  0  0  0  0  3  0  0  0  0  0  0
    1.4973    0.8381   -1.1882 C   0  0  0  0  0  0  0  0  0  0  0  0
    0.9120   -0.3018   -1.7653 O   0  0  0  0  0  0  0  0  0  0  0  0
    1.8527   -1.1888   -2.3161 C   0  0  0  0  0  0  0  0  0  0  0  0
    1.1234   -2.3732   -2.9069 C   0  0  0  0  0  0  0  0  0  0  0  0
   -0.2787    2.0296   -1.4197 H   0  0  0  0  0  0  0  0  0  0  0  0
    0.8373    2.6140   -0.1746 H   0  0  0  0  0  0  0  0  0  0  0  0
    2.1955    0.5392   -0.3923 H   0  0  0  0  0  0  0  0  0  0  0  0
    2.0824    1.3828   -1.9440 H   0  0  0  0  0  0  0  0  0  0  0  0
    2.4434   -0.6763   -3.0898 H   0  0  0  0  0  0  0  0  0  0  0  0
    2.5565   -1.5199   -1.5381 H   0  0  0  0  0  0  0  0  0  0  0  0
    0.4361   -2.0477   -3.6885 H   0  0  0  0  0  0  0  0  0  0  0  0
    1.8351   -3.0770   -3.3414 H   0  0  0  0  0  0  0  0  0  0  0  0
    0.5492   -2.8908   -2.1377 H   0  0  0  0  0  0  0  0  0  0  0  0
  1  2  1  0
  1  5  1  0
  1  6  1  0
  1  7  1  0
  2  3  1  0
  3  4  1  0
  3  8  1  0
  3  9  1  0
  4 10  1  0
  4 11  1  0
  4 12  1  0
 13 14  1  0
 13 18  1  0
 13 19  1  0
 14 15  1  0
 14 20  1  0
 14 21  1  0
 15 16  1  0
 16 17  1  0
 16 22  1  0
 16 23  1  0
 17 24  1  0
 17 25  1  0
 17 26  1  0
M  RAD  1  13   2
M  END
>  <reaction>  (11) 
rmg_rxn_653

>  <mol_properties>  (11) 
{"0": {"label": "*1", "atom_type": "Cs"}, "1": {"label": "*0", "atom_type": "S2s"}, "4": {"label": "*2", "atom_type": "H0"}, "12": {"label": "*3", "atom_type": "Cs"}, "13": {"label": "*4", "atom_type": "Cs"}}

>  <type>  (11) 
unop_7

>  <geom_source>  (11) 
Heuristics

$$$$

     RDKit          3D

 26 24  0  0  0  0  0  0  0  0999 V2000
    0.7276   -0.7644    1.1250 C   0  0  0  0  0  0  0  0  0  0  0  0
   -0.9155   -1.3432    1.5827 S   0  0  0  0  0  0  0  0  0  0  0  0
   -0.9155   -2.9834    0.8191 C   0  0  0  0  0  0  0  0  0  0  0  0
   -0.9155   -2.9834   -0.7013 C   0  0  0  0  0  0  0  0  0  0  0  0
    0.8425   -0.5887   -0.1655 H   0  0  0  0  0  0  0  0  0  0  0  0
    1.4947   -1.4574    1.4731 H   0  0  0  0  0  0  0  0  0  0  0  0
    0.8741    0.1950    1.6193 H   0  0  0  0  0  0  0  0  0  0  0  0
   -1.8195   -3.4613    1.2000 H   0  0  0  0  0  0  0  0  0  0  0  0
   -0.0662   -3.5482    1.2104 H   0  0  0  0  0  0  0  0  0  0  0  0
   -0.0085   -2.5272   -1.1006 H   0  0  0  0  0  0  0  0  0  0  0  0
   -1.7714   -2.4301   -1.0890 H   0  0  0  0  0  0  0  0  0  0  0  0
   -0.9639   -4.0066   -1.0808 H   0  0  0  0  0  0  0  0  0  0  0  0
    0.9574   -0.4129   -1.4571 C   0  0  0  0  0  3  0  0  0  0  0  0
    0.5720    0.9984   -1.8357 C   0  0  0  0  0  0  0  0  0  0  0  0
    0.6673    1.8184   -0.6984 O   0  0  0  0  0  0  0  0  0  0  0  0
    0.3264    3.1581   -0.9514 C   0  0  0  0  0  0  0  0  0  0  0  0
    0.4614    3.9492    0.3290 C   0  0  0  0  0  0  0  0  0  0  0  0
    1.9798   -0.4412   -1.0786 H   0  0  0  0  0  0  0  0  0  0  0  0
    0.8908   -1.0691   -2.3264 H   0  0  0  0  0  0  0  0  0  0  0  0
   -0.4543    1.0235   -2.2314 H   0  0  0  0  0  0  0  0  0  0  0  0
    1.2336    1.3780   -2.6284 H   0  0  0  0  0  0  0  0  0  0  0  0
    0.9841    3.5720   -1.7301 H   0  0  0  0  0  0  0  0  0  0  0  0
   -0.7037    3.2174   -1.3330 H   0  0  0  0  0  0  0  0  0  0  0  0
    1.4858    3.9032    0.7004 H   0  0  0  0  0  0  0  0  0  0  0  0
    0.2013    4.9948    0.1566 H   0  0  0  0  0  0  0  0  0  0  0  0
   -0.2011    3.5489    1.0972 H   0  0  0  0  0  0  0  0  0  0  0  0
  1  2  1  0
  1  5  1  0
  1  6  1  0
  1  7  1  0
  2  3  1  0
  3  4  1  0
  3  8  1  0
  3  9  1  0
  4 10  1  0
  4 11  1  0
  4 12  1  0
 13 14  1  0
 13 18  1  0
 13 19  1  0
 14 15  1  0
 14 20  1  0
 14 21  1  0
 15 16  1  0
 16 17  1  0
 16 22  1  0
 16 23  1  0
 17 24  1  0
 17 25  1  0
 17 26  1  0
M  RAD  1  13   2
M  END
>  <reaction>  (12) 
rmg_rxn_653

>  <mol_properties>  (12) 
{"0": {"label": "*1", "atom_type": "Cs"}, "1": {"label": "*0", "atom_type": "S2s"}, "4": {"label": "*2", "atom_type": "H0"}, "12": {"label": "*3", "atom_type": "Cs"}, "13": {"label": "*4", "atom_type": "Cs"}}

>  <type>  (12) 
unop_8

>  <geom_source>  (12) 
Heuristics

$$$$

     RDKit          3D

 26 24  0  0  0  0  0  0  0  0999 V2000
    1.6212    0.7291    1.7978 C   0  0  0  0  0  0  0  0  0  0  0  0
   -0.0219    0.1503    2.2556 S   0  0  0  0  0  0  0  0  0  0  0  0
   -0.0219   -1.4898    1.4920 C   0  0  0  0  0  0  0  0  0  0  0  0
   -0.0219   -1.4898   -0.0284 C   0  0  0  0  0  0  0  0  0  0  0  0
    1.7360    0.9048    0.5074 H   0  0  0  0  0  0  0  0  0  0  0  0
    2.3882    0.0361    2.1459 H   0  0  0  0  0  0  0  0  0  0  0  0
    1.7677    1.6885    2.2922 H   0  0  0  0  0  0  0  0  0  0  0  0
   -0.9260   -1.9678    1.8729 H   0  0  0  0  0  0  0  0  0  0  0  0
    0.8273   -2.0547    1.8832 H   0  0  0  0  0  0  0  0  0  0  0  0
    0.8851   -1.0337   -0.4277 H   0  0  0  0  0  0  0  0  0  0  0  0
   -0.8779   -0.9366   -0.4161 H   0  0  0  0  0  0  0  0  0  0  0  0
   -0.0703   -2.5131   -0.4079 H   0  0  0  0  0  0  0  0  0  0  0  0
    1.8510    1.0806   -0.7843 C   0  0  0  0  0  3  0  0  0  0  0  0
    0.9512    0.1234   -1.5310 C   0  0  0  0  0  0  0  0  0  0  0  0
   -0.3678    0.6061   -1.4844 O   0  0  0  0  0  0  0  0  0  0  0  0
   -1.2844   -0.2211   -2.1557 C   0  0  0  0  0  0  0  0  0  0  0  0
   -2.6644    0.3848   -2.0458 C   0  0  0  0  0  0  0  0  0  0  0  0
    1.8149    2.0717   -1.2380 H   0  0  0  0  0  0  0  0  0  0  0  0
    2.8825    0.7256   -0.8071 H   0  0  0  0  0  0  0  0  0  0  0  0
    0.9997   -0.8796   -1.0816 H   0  0  0  0  0  0  0  0  0  0  0  0
    1.2780    0.0254   -2.5769 H   0  0  0  0  0  0  0  0  0  0  0  0
   -0.9930   -0.3246   -3.2114 H   0  0  0  0  0  0  0  0  0  0  0  0
   -1.2713   -1.2295   -1.7162 H   0  0  0  0  0  0  0  0  0  0  0  0
   -2.6822    1.3786   -2.4944 H   0  0  0  0  0  0  0  0  0  0  0  0
   -3.3944   -0.2417   -2.5608 H   0  0  0  0  0  0  0  0  0  0  0  0
   -2.9603    0.4742   -1.0000 H   0  0  0  0  0  0  0  0  0  0  0  0
  1  2  1  0
  1  5  1  0
  1  6  1  0
  1  7  1  0
  2  3  1  0
  3  4  1  0
  3  8  1  0
  3  9  1  0
  4 10  1  0
  4 11  1  0
  4 12  1  0
 13 14  1  0
 13 18  1  0
 13 19  1  0
 14 15  1  0
 14 20  1  0
 14 21  1  0
 15 16  1  0
 16 17  1  0
 16 22  1  0
 16 23  1  0
 17 24  1  0
 17 25  1  0
 17 26  1  0
M  RAD  1  13   2
M  END
>  <reaction>  (13) 
rmg_rxn_653

>  <mol_properties>  (13) 
{"0": {"label": "*1", "atom_type": "Cs"}, "1": {"label": "*0", "atom_type": "S2s"}, "4": {"label": "*2", "atom_type": "H0"}, "12": {"label": "*3", "atom_type": "Cs"}, "13": {"label": "*4", "atom_type": "Cs"}}

>  <type>  (13) 
unop_9

>  <geom_source>  (13) 
Heuristics

$$$$

     RDKit          3D

 26 24  0  0  0  0  0  0  0  0999 V2000
    1.2372   -0.5778    1.2251 C   0  0  0  0  0  0  0  0  0  0  0  0
   -0.4059   -1.1566    1.6829 S   0  0  0  0  0  0  0  0  0  0  0  0
   -0.4059   -2.7967    0.9193 C   0  0  0  0  0  0  0  0  0  0  0  0
   -0.4059   -2.7967   -0.6011 C   0  0  0  0  0  0  0  0  0  0  0  0
    1.3521   -0.4021   -0.0653 H   0  0  0  0  0  0  0  0  0  0  0  0
    2.0043   -1.2708    1.5732 H   0  0  0  0  0  0  0  0  0  0  0  0
    1.3837    0.3816    1.7195 H   0  0  0  0  0  0  0  0  0  0  0  0
   -1.3099   -3.2747    1.3002 H   0  0  0  0  0  0  0  0  0  0  0  0
    0.4434   -3.3616    1.3105 H   0  0  0  0  0  0  0  0  0  0  0  0
    0.5011   -2.3406   -1.0004 H   0  0  0  0  0  0  0  0  0  0  0  0
   -1.2618   -2.2435   -0.9888 H   0  0  0  0  0  0  0  0  0  0  0  0
   -0.4543   -3.8200   -0.9806 H   0  0  0  0  0  0  0  0  0  0  0  0
    1.4670   -0.2263   -1.3570 C   0  0  0  0  0  3  0  0  0  0  0  0
    0.4684    0.7986   -1.8427 C   0  0  0  0  0  0  0  0  0  0  0  0
    0.1881    1.6944   -0.7968 O   0  0  0  0  0  0  0  0  0  0  0  0
   -0.7364    2.6909   -1.1538 C   0  0  0  0  0  0  0  0  0  0  0  0
   -0.9663    3.5957    0.0345 C   0  0  0  0  0  0  0  0  0  0  0  0
    2.3914    0.2598   -1.0430 H   0  0  0  0  0  0  0  0  0  0  0  0
    1.7003   -0.9341   -2.1539 H   0  0  0  0  0  0  0  0  0  0  0  0
   -0.4581    0.3059   -2.1731 H   0  0  0  0  0  0  0  0  0  0  0  0
    0.8699    1.3462   -2.7083 H   0  0  0  0  0  0  0  0  0  0  0  0
   -0.3540    3.2685   -2.0085 H   0  0  0  0  0  0  0  0  0  0  0  0
   -1.6820    2.2282   -1.4732 H   0  0  0  0  0  0  0  0  0  0  0  0
   -0.0321    4.0663    0.3428 H   0  0  0  0  0  0  0  0  0  0  0  0
   -1.6823    4.3789   -0.2197 H   0  0  0  0  0  0  0  0  0  0  0  0
   -1.3593    3.0266    0.8777 H   0  0  0  0  0  0  0  0  0  0  0  0
  1  2  1  0
  1  5  1  0
  1  6  1  0
  1  7  1  0
  2  3  1  0
  3  4  1  0
  3  8  1  0
  3  9  1  0
  4 10  1  0
  4 11  1  0
  4 12  1  0
 13 14  1  0
 13 18  1  0
 13 19  1  0
 14 15  1  0
 14 20  1  0
 14 21  1  0
 15 16  1  0
 16 17  1  0
 16 22  1  0
 16 23  1  0
 17 24  1  0
 17 25  1  0
 17 26  1  0
M  RAD  1  13   2
M  END
>  <reaction>  (14) 
rmg_rxn_653

>  <mol_properties>  (14) 
{"0": {"label": "*1", "atom_type": "Cs"}, "1": {"label": "*0", "atom_type": "S2s"}, "4": {"label": "*2", "atom_type": "H0"}, "12": {"label": "*3", "atom_type": "Cs"}, "13": {"label": "*4", "atom_type": "Cs"}}

>  <type>  (14) 
unop_10

>  <geom_source>  (14) 
Heuristics

$$$$

     RDKit          3D

 26 24  0  0  0  0  0  0  0  0999 V2000
   -0.3272    1.0982    1.7699 C   0  0  0  0  0  0  0  0  0  0  0  0
   -1.9704    0.5194    2.2277 S   0  0  0  0  0  0  0  0  0  0  0  0
   -1.9704   -1.1207    1.4640 C   0  0  0  0  0  0  0  0  0  0  0  0
   -1.9704   -1.1207   -0.0563 C   0  0  0  0  0  0  0  0  0  0  0  0
   -0.2124    1.2739    0.4795 H   0  0  0  0  0  0  0  0  0  0  0  0
    0.4398    0.4052    2.1180 H   0  0  0  0  0  0  0  0  0  0  0  0
   -0.1808    2.0576    2.2642 H   0  0  0  0  0  0  0  0  0  0  0  0
   -2.8744   -1.5987    1.8450 H   0  0  0  0  0  0  0  0  0  0  0  0
   -1.1211   -1.6856    1.8553 H   0  0  0  0  0  0  0  0  0  0  0  0
   -1.0634   -0.6646   -0.4556 H   0  0  0  0  0  0  0  0  0  0  0  0
   -2.8263   -0.5675   -0.4441 H   0  0  0  0  0  0  0  0  0  0  0  0
   -2.0188   -2.1440   -0.4359 H   0  0  0  0  0  0  0  0  0  0  0  0
   -0.0974    1.4497   -0.8122 C   0  0  0  0  0  3  0  0  0  0  0  0
    1.3273    1.2091   -1.2546 C   0  0  0  0  0  0  0  0  0  0  0  0
    1.4884   -0.1546   -1.5537 O   0  0  0  0  0  0  0  0  0  0  0  0
    2.7887   -0.4790   -1.9769 C   0  0  0  0  0  0  0  0  0  0  0  0
    2.8541   -1.9598   -2.2711 C   0  0  0  0  0  0  0  0  0  0  0  0
   -0.7952    1.1705   -1.6024 H   0  0  0  0  0  0  0  0  0  0  0  0
   -0.2464    2.5041   -0.5741 H   0  0  0  0  0  0  0  0  0  0  0  0
    2.0309    1.5050   -0.4623 H   0  0  0  0  0  0  0  0  0  0  0  0
    1.5628    1.8178   -2.1402 H   0  0  0  0  0  0  0  0  0  0  0  0
    3.0473    0.1029   -2.8740 H   0  0  0  0  0  0  0  0  0  0  0  0
    3.5154   -0.2098   -1.1961 H   0  0  0  0  0  0  0  0  0  0  0  0
    2.1444   -2.2252   -3.0554 H   0  0  0  0  0  0  0  0  0  0  0  0
    3.8566   -2.2354   -2.6022 H   0  0  0  0  0  0  0  0  0  0  0  0
    2.6123   -2.5377   -1.3785 H   0  0  0  0  0  0  0  0  0  0  0  0
  1  2  1  0
  1  5  1  0
  1  6  1  0
  1  7  1  0
  2  3  1  0
  3  4  1  0
  3  8  1  0
  3  9  1  0
  4 10  1  0
  4 11  1  0
  4 12  1  0
 13 14  1  0
 13 18  1  0
 13 19  1  0
 14 15  1  0
 14 20  1  0
 14 21  1  0
 15 16  1  0
 16 17  1  0
 16 22  1  0
 16 23  1  0
 17 24  1  0
 17 25  1  0
 17 26  1  0
M  RAD  1  13   2
M  END
>  <reaction>  (15) 
rmg_rxn_653

>  <mol_properties>  (15) 
{"0": {"label": "*1", "atom_type": "Cs"}, "1": {"label": "*0", "atom_type": "S2s"}, "4": {"label": "*2", "atom_type": "H0"}, "12": {"label": "*3", "atom_type": "Cs"}, "13": {"label": "*4", "atom_type": "Cs"}}

>  <type>  (15) 
unop_11

>  <geom_source>  (15) 
Heuristics

$$$$

     RDKit          3D

 26 24  0  0  0  0  0  0  0  0999 V2000
    1.7206    0.2290    1.5821 C   0  0  0  0  0  0  0  0  0  0  0  0
    0.0775   -0.3498    2.0398 S   0  0  0  0  0  0  0  0  0  0  0  0
    0.0775   -1.9899    1.2762 C   0  0  0  0  0  0  0  0  0  0  0  0
    0.0775   -1.9899   -0.2442 C   0  0  0  0  0  0  0  0  0  0  0  0
    1.8355    0.4047    0.2917 H   0  0  0  0  0  0  0  0  0  0  0  0
    2.4876   -0.4640    1.9302 H   0  0  0  0  0  0  0  0  0  0  0  0
    1.8671    1.1884    2.0764 H   0  0  0  0  0  0  0  0  0  0  0  0
   -0.8265   -2.4679    1.6571 H   0  0  0  0  0  0  0  0  0  0  0  0
    0.9267   -2.5548    1.6675 H   0  0  0  0  0  0  0  0  0  0  0  0
    0.9845   -1.5337   -0.6435 H   0  0  0  0  0  0  0  0  0  0  0  0
   -0.7785   -1.4367   -0.6319 H   0  0  0  0  0  0  0  0  0  0  0  0
    0.0291   -3.0132   -0.6237 H   0  0  0  0  0  0  0  0  0  0  0  0
    1.9504    0.5805   -1.0000 C   0  0  0  0  0  3  0  0  0  0  0  0
    0.6548    0.2379   -1.6984 C   0  0  0  0  0  0  0  0  0  0  0  0
   -0.3635    1.0723   -1.2065 O   0  0  0  0  0  0  0  0  0  0  0  0
   -1.6142    0.8281   -1.7990 C   0  0  0  0  0  0  0  0  0  0  0  0
   -2.6325    1.7725   -1.2033 C   0  0  0  0  0  0  0  0  0  0  0  0
    2.2193    1.6215   -1.1828 H   0  0  0  0  0  0  0  0  0  0  0  0
    2.7572   -0.0560   -1.3666 H   0  0  0  0  0  0  0  0  0  0  0  0
    0.3922   -0.8163   -1.5256 H   0  0  0  0  0  0  0  0  0  0  0  0
    0.7571    0.3719   -2.7855 H   0  0  0  0  0  0  0  0  0  0  0  0
   -1.5479    0.9714   -2.8877 H   0  0  0  0  0  0  0  0  0  0  0  0
   -1.9128   -0.2168   -1.6279 H   0  0  0  0  0  0  0  0  0  0  0  0
   -2.3450    2.8086   -1.3852 H   0  0  0  0  0  0  0  0  0  0  0  0
   -3.6134    1.6009   -1.6492 H   0  0  0  0  0  0  0  0  0  0  0  0
   -2.7097    1.6211   -0.1261 H   0  0  0  0  0  0  0  0  0  0  0  0
  1  2  1  0
  1  5  1  0
  1  6  1  0
  1  7  1  0
  2  3  1  0
  3  4  1  0
  3  8  1  0
  3  9  1  0
  4 10  1  0
  4 11  1  0
  4 12  1  0
 13 14  1  0
 13 18  1  0
 13 19  1  0
 14 15  1  0
 14 20  1  0
 14 21  1  0
 15 16  1  0
 16 17  1  0
 16 22  1  0
 16 23  1  0
 17 24  1  0
 17 25  1  0
 17 26  1  0
M  RAD  1  13   2
M  END
>  <reaction>  (16) 
rmg_rxn_653

>  <mol_properties>  (16) 
{"0": {"label": "*1", "atom_type": "Cs"}, "1": {"label": "*0", "atom_type": "S2s"}, "4": {"label": "*2", "atom_type": "H0"}, "12": {"label": "*3", "atom_type": "Cs"}, "13": {"label": "*4", "atom_type": "Cs"}}

>  <type>  (16) 
unop_12

>  <geom_source>  (16) 
Heuristics

$$$$

     RDKit          3D

 26 24  0  0  0  0  0  0  0  0999 V2000
   -2.1679   -0.1168   -1.2237 S   0  0  0  0  0  0  0  0  0  0  0  0
    1.9697   -0.2505   -0.5726 O   0  0  0  0  0  0  0  0  0  0  0  0
    1.2645   -0.0929    0.6406 C   0  0  0  0  0  0  0  0  0  0  0  0
    2.8852    0.8132   -0.7560 C   0  0  0  0  0  0  0  0  0  0  0  0
   -3.2502    0.2211    0.2034 C   0  0  0  0  0  0  0  0  0  0  0  0
    0.3924   -1.3159    0.8712 C   0  0  0  0  0  0  0  0  0  0  0  0
    4.2784    0.3959   -0.2984 C   0  0  0  0  0  0  0  0  0  0  0  0
   -3.8585    1.6096    0.0772 C   0  0  0  0  0  0  0  0  0  0  0  0
   -1.6890   -1.7640   -0.6228 C   0  0  0  0  0  3  0  0  0  0  0  0
    0.6032    0.8011    0.5895 H   0  0  0  0  0  0  0  0  0  0  0  0
    1.9617    0.0073    1.5033 H   0  0  0  0  0  0  0  0  0  0  0  0
    2.5848    1.7603   -0.2474 H   0  0  0  0  0  0  0  0  0  0  0  0
    2.9323    1.0411   -1.8418 H   0  0  0  0  0  0  0  0  0  0  0  0
   -4.0650   -0.5334    0.2410 H   0  0  0  0  0  0  0  0  0  0  0  0
   -2.6581    0.1643    1.1419 H   0  0  0  0  0  0  0  0  0  0  0  0
    1.0249   -2.2263    0.9405 H   0  0  0  0  0  0  0  0  0  0  0  0
   -0.1776   -1.1991    1.8171 H   0  0  0  0  0  0  0  0  0  0  0  0
   -0.4491   -1.4512   -0.1188 H   0  0  0  0  0  0  0  0  0  0  0  0
    4.5957   -0.5228   -0.8360 H   0  0  0  0  0  0  0  0  0  0  0  0
    4.2834    0.1984    0.7938 H   0  0  0  0  0  0  0  0  0  0  0  0
    5.0029    1.2085   -0.5170 H   0  0  0  0  0  0  0  0  0  0  0  0
   -4.4643    1.6789   -0.8512 H   0  0  0  0  0  0  0  0  0  0  0  0
   -3.0565    2.3776    0.0507 H   0  0  0  0  0  0  0  0  0  0  0  0
   -4.5163    1.8093    0.9492 H   0  0  0  0  0  0  0  0  0  0  0  0
   -0.8685   -2.1614   -1.2546 H   0  0  0  0  0  0  0  0  0  0  0  0
   -2.5580   -2.4521   -0.6791 H   0  0  0  0  0  0  0  0  0  0  0  0
  1  9  1  0
  1  5  1  0
  2  3  1  0
  2  4  1  0
  3  6  1  0
  3 10  1  0
  3 11  1  0
  4  7  1  0
  4 12  1  0
  4 13  1  0
  5  8  1  0
  5 14  1  0
  5 15  1  0
  6 16  1  0
  6 17  1  0
  6 18  1  0
  7 19  1  0
  7 20  1  0
  7 21  1  0
  8 22  1  0
  8 23  1  0
  8 24  1  0
  9 25  1  0
  9 26  1  0
M  RAD  1   9   2
M  END
>  <reaction>  (17) 
rmg_rxn_653

>  <mol_properties>  (17) 
{"0": {"label": "*1", "atom_type": "Cs"}, "1": {"label": "*0", "atom_type": "S2s"}, "4": {"label": "*2", "atom_type": "H0"}, "12": {"label": "*3", "atom_type": "Cs"}, "13": {"label": "*4", "atom_type": "Cs"}}

>  <type>  (17) 
unop_13

>  <geom_source>  (17) 
AutoTST

$$$$

     RDKit          3D

 26 24  0  0  0  0  0  0  0  0999 V2000
    1.5788   -0.2240    1.3770 C   0  0  0  0  0  0  0  0  0  0  0  0
   -0.0643   -0.8028    1.8348 S   0  0  0  0  0  0  0  0  0  0  0  0
   -0.0643   -2.4430    1.0712 C   0  0  0  0  0  0  0  0  0  0  0  0
   -0.0643   -2.4430   -0.4492 C   0  0  0  0  0  0  0  0  0  0  0  0
    1.6937   -0.0483    0.0866 H   0  0  0  0  0  0  0  0  0  0  0  0
    2.3458   -0.9171    1.7251 H   0  0  0  0  0  0  0  0  0  0  0  0
    1.7253    0.7354    1.8714 H   0  0  0  0  0  0  0  0  0  0  0  0
   -0.9683   -2.9209    1.4521 H   0  0  0  0  0  0  0  0  0  0  0  0
    0.7850   -3.0078    1.4624 H   0  0  0  0  0  0  0  0  0  0  0  0
    0.8427   -1.9868   -0.8485 H   0  0  0  0  0  0  0  0  0  0  0  0
   -0.9203   -1.8898   -0.8369 H   0  0  0  0  0  0  0  0  0  0  0  0
   -0.1127   -3.4662   -0.8287 H   0  0  0  0  0  0  0  0  0  0  0  0
    1.8086    0.1275   -1.2050 C   0  0  0  0  0  3  0  0  0  0  0  0
    0.4768    0.5104   -1.8078 C   0  0  0  0  0  0  0  0  0  0  0  0
   -0.1585    1.4350   -0.9614 O   0  0  0  0  0  0  0  0  0  0  0  0
   -1.4119    1.8536   -1.4398 C   0  0  0  0  0  0  0  0  0  0  0  0
   -2.0062    2.8403   -0.4617 C   0  0  0  0  0  0  0  0  0  0  0  0
    2.4439    1.0067   -1.0922 H   0  0  0  0  0  0  0  0  0  0  0  0
    2.3212   -0.5913   -1.8463 H   0  0  0  0  0  0  0  0  0  0  0  0
   -0.1575   -0.3794   -1.9349 H   0  0  0  0  0  0  0  0  0  0  0  0
    0.6191    0.9514   -2.8056 H   0  0  0  0  0  0  0  0  0  0  0  0
   -1.2995    2.3158   -2.4318 H   0  0  0  0  0  0  0  0  0  0  0  0
   -2.0762    0.9851   -1.5611 H   0  0  0  0  0  0  0  0  0  0  0  0
   -1.3554    3.7085   -0.3520 H   0  0  0  0  0  0  0  0  0  0  0  0
   -2.9818    3.1799   -0.8131 H   0  0  0  0  0  0  0  0  0  0  0  0
   -2.1317    2.3786    0.5182 H   0  0  0  0  0  0  0  0  0  0  0  0
  1  2  1  0
  1  5  1  0
  1  6  1  0
  1  7  1  0
  2  3  1  0
  3  4  1  0
  3  8  1  0
  3  9  1  0
  4 10  1  0
  4 11  1  0
  4 12  1  0
 13 14  1  0
 13 18  1  0
 13 19  1  0
 14 15  1  0
 14 20  1  0
 14 21  1  0
 15 16  1  0
 16 17  1  0
 16 22  1  0
 16 23  1  0
 17 24  1  0
 17 25  1  0
 17 26  1  0
M  RAD  1  13   2
M  END
>  <reaction>  (18) 
rmg_rxn_653

>  <mol_properties>  (18) 
{"0": {"label": "*1", "atom_type": "Cs"}, "1": {"label": "*0", "atom_type": "S2s"}, "4": {"label": "*2", "atom_type": "H0"}, "12": {"label": "*3", "atom_type": "Cs"}, "13": {"label": "*4", "atom_type": "Cs"}}

>  <type>  (18) 
unop_14

>  <geom_source>  (18) 
gaussian_log

$$$$
