
     RDKit          3D

 14 13  0  0  0  0  0  0  0  0999 V2000
    1.8106   -0.5953    0.5577 C   0  0  0  0  0  0  0  0  0  0  0  0
    0.5197    0.2064    0.6554 C   0  0  0  0  0  0  0  0  0  0  0  0
   -0.5206   -0.2080   -0.3788 C   0  0  0  0  0  0  0  0  0  0  0  0
   -1.8114    0.5937   -0.2812 C   0  0  0  0  0  0  0  0  0  0  0  0
    2.2725   -0.4752   -0.4251 H   0  0  0  0  0  0  0  0  0  0  0  0
    1.6214   -1.6612    0.7052 H   0  0  0  0  0  0  0  0  0  0  0  0
    2.5364   -0.2784    1.3084 H   0  0  0  0  0  0  0  0  0  0  0  0
    0.0930    0.0950    1.6574 H   0  0  0  0  0  0  0  0  0  0  0  0
    0.7393    1.2723    0.5354 H   0  0  0  0  0  0  0  0  0  0  0  0
   -0.7402   -1.2739   -0.2588 H   0  0  0  0  0  0  0  0  0  0  0  0
   -0.0938   -0.0965   -1.3808 H   0  0  0  0  0  0  0  0  0  0  0  0
   -1.6222    1.6596   -0.4287 H   0  0  0  0  0  0  0  0  0  0  0  0
   -2.2734    0.4736    0.7017 H   0  0  0  0  0  0  0  0  0  0  0  0
   -2.5373    0.2768   -1.0318 H   0  0  0  0  0  0  0  0  0  0  0  0
  1  2  1  0
  1  5  1  0
  1  6  1  0
  1  7  1  0
  2  3  1  0
  2  8  1  0
  2  9  1  0
  3  4  1  0
  3 10  1  0
  3 11  1  0
  4 12  1  0
  4 13  1  0
  4 14  1  0
M  END
>  <reaction>  (1) 
rmg_rxn_28

>  <mol_properties>  (1) 
{"3": {"label": "donator", "atom_type": "Cs"}, "12": {"label": "d_hydrogen", "atom_type": "H0"}}

>  <type>  (1) 
r1h

$$$$

     RDKit          3D

  9  8  0  0  0  0  0  0  0  0999 V2000
    1.3246   -0.8124   -0.0809 C   0  0  0  0  0  2  0  0  0  0  0  0
    0.4082    0.3080    0.1518 C   0  0  0  0  0  0  0  0  0  0  0  0
   -1.0545   -0.0277   -0.1520 C   0  0  0  0  0  0  0  0  0  0  0  0
    2.3933   -0.9471    0.0203 H   0  0  0  0  0  0  0  0  0  0  0  0
    0.4898    0.6406    1.1970 H   0  0  0  0  0  0  0  0  0  0  0  0
    0.7134    1.1680   -0.4624 H   0  0  0  0  0  0  0  0  0  0  0  0
   -1.4014   -0.8515    0.4727 H   0  0  0  0  0  0  0  0  0  0  0  0
   -1.1767   -0.3214   -1.1952 H   0  0  0  0  0  0  0  0  0  0  0  0
   -1.6915    0.8372    0.0370 H   0  0  0  0  0  0  0  0  0  0  0  0
  1  2  1  0
  1  4  1  0
  2  3  1  0
  2  5  1  0
  2  6  1  0
  3  7  1  0
  3  8  1  0
  3  9  1  0
M  RAD  1   1   3
M  END
>  <reaction>  (2) 
rmg_rxn_28

>  <mol_properties>  (2) 
{"0": {"label": "acceptor", "atom_type": "Cs"}}

>  <type>  (2) 
r2

$$$$

     RDKit          3D

 10  9  0  0  0  0  0  0  0  0999 V2000
    1.4352    0.2660   -0.1351 C   0  0  0  0  0  3  0  0  0  0  0  0
    0.2236   -0.3243    0.4850 C   0  0  0  0  0  0  0  0  0  0  0  0
   -0.8893    0.6872    0.7364 C   0  0  0  0  0  0  0  0  0  0  0  0
    2.3577   -0.2958   -0.1940 H   0  0  0  0  0  0  0  0  0  0  0  0
    1.3935    1.2286   -0.6287 H   0  0  0  0  0  0  0  0  0  0  0  0
   -0.1633   -1.1318   -0.1556 H   0  0  0  0  0  0  0  0  0  0  0  0
    0.4945   -0.8215    1.4240 H   0  0  0  0  0  0  0  0  0  0  0  0
   -1.1991    1.1627   -0.1967 H   0  0  0  0  0  0  0  0  0  0  0  0
   -1.7660    0.2103    1.1768 H   0  0  0  0  0  0  0  0  0  0  0  0
   -0.5545    1.4732    1.4159 H   0  0  0  0  0  0  0  0  0  0  0  0
  1  2  1  0
  1  4  1  0
  1  5  1  0
  2  3  1  0
  2  6  1  0
  2  7  1  0
  3  8  1  0
  3  9  1  0
  3 10  1  0
M  RAD  1   1   2
M  END
>  <reaction>  (3) 
rmg_rxn_28

>  <mol_properties>  (3) 
{"0": {"label": "acceptor", "atom_type": "Cs"}, "9": {"label": "a_hydrogen", "atom_type": "H0"}}

>  <type>  (3) 
r2h

$$$$

     RDKit          3D

 23 21  0  0  0  0  0  0  0  0999 V2000
   -0.5446    0.0067    2.0204 C   0  0  0  0  0  2  0  0  0  0  0  0
   -1.9001    0.0542    1.4321 C   0  0  0  0  0  0  0  0  0  0  0  0
   -2.1683   -1.0825    0.4330 C   0  0  0  0  0  0  0  0  0  0  0  0
   -0.2328   -0.6650    2.8135 H   0  0  0  0  0  0  0  0  0  0  0  0
   -2.6567    0.0147    2.2253 H   0  0  0  0  0  0  0  0  0  0  0  0
   -2.0413    1.0120    0.9204 H   0  0  0  0  0  0  0  0  0  0  0  0
   -2.0492   -2.0566    0.9103 H   0  0  0  0  0  0  0  0  0  0  0  0
   -1.4713   -1.0330   -0.4052 H   0  0  0  0  0  0  0  0  0  0  0  0
   -3.1838   -1.0182    0.0372 H   0  0  0  0  0  0  0  0  0  0  0  0
    1.0974   -0.9133   -2.3778 C   0  0  0  0  0  0  0  0  0  0  0  0
    1.4158   -0.4006   -0.9807 C   0  0  0  0  0  0  0  0  0  0  0  0
    0.9434    1.0307   -0.7501 C   0  0  0  0  0  0  0  0  0  0  0  0
    1.1732    1.5083    0.6615 C   0  0  0  0  0  0  0  0  0  0  0  0
    1.5618   -0.2862   -3.1427 H   0  0  0  0  0  0  0  0  0  0  0  0
    0.0195   -0.9096   -2.5591 H   0  0  0  0  0  0  0  0  0  0  0  0
    1.4550   -1.9343   -2.5202 H   0  0  0  0  0  0  0  0  0  0  0  0
    0.9511   -1.0507   -0.2328 H   0  0  0  0  0  0  0  0  0  0  0  0
    2.4944   -0.4537   -0.8030 H   0  0  0  0  0  0  0  0  0  0  0  0
   -0.1245    1.1011   -0.9874 H   0  0  0  0  0  0  0  0  0  0  0  0
    1.4505    1.6967   -1.4596 H   0  0  0  0  0  0  0  0  0  0  0  0
    2.1810    1.3360    1.0395 H   0  0  0  0  0  0  0  0  0  0  0  0
    0.4080    0.7685    1.4176 H   0  0  0  0  0  0  0  0  0  0  0  0
    0.8403    2.5254    0.8615 H   0  0  0  0  0  0  0  0  0  0  0  0
  1  2  1  0
  1  4  1  0
  2  3  1  0
  2  5  1  0
  2  6  1  0
  3  7  1  0
  3  8  1  0
  3  9  1  0
 10 11  1  0
 10 14  1  0
 10 15  1  0
 10 16  1  0
 11 12  1  0
 11 17  1  0
 11 18  1  0
 12 13  1  0
 12 19  1  0
 12 20  1  0
 13 21  1  0
 13 22  1  0
 13 23  1  0
M  RAD  1   1   3
M  END
>  <reaction>  (4) 
rmg_rxn_28

>  <mol_properties>  (4) 
{"0": {"label": "*3", "atom_type": "Cs"}, "1": {"label": "*4", "atom_type": "Cs"}, "11": {"label": "*0", "atom_type": "Cs"}, "12": {"label": "*1", "atom_type": "Cs"}, "21": {"label": "*2", "atom_type": "H0"}}

>  <type>  (4) 
ts

$$$$

     RDKit          3D

 23 21  0  0  0  0  0  0  0  0999 V2000
   -1.1506    0.0242    1.1343 C   0  0  0  0  0  3  0  0  0  0  0  0
   -1.0118   -1.1715    2.0014 C   0  0  0  0  0  0  0  0  0  0  0  0
   -1.6950   -1.0266    3.3568 C   0  0  0  0  0  0  0  0  0  0  0  0
   -1.9117    0.7683    1.3322 H   0  0  0  0  0  0  0  0  0  0  0  0
   -1.4228   -2.0524    1.4846 H   0  0  0  0  0  0  0  0  0  0  0  0
    0.0505   -1.4038    2.1424 H   0  0  0  0  0  0  0  0  0  0  0  0
   -2.7631   -0.8351    3.2341 H   0  0  0  0  0  0  0  0  0  0  0  0
   -1.2695   -0.1940    3.9200 H   0  0  0  0  0  0  0  0  0  0  0  0
   -1.5834   -1.9318    3.9554 H   0  0  0  0  0  0  0  0  0  0  0  0
    0.9545   -0.1522   -3.4431 C   0  0  0  0  0  0  0  0  0  0  0  0
    0.9545   -0.1522   -1.9204 C   0  0  0  0  0  0  0  0  0  0  0  0
    0.9545    1.2502   -1.3230 C   0  0  0  0  0  0  0  0  0  0  0  0
    0.9545    1.2502    0.1997 C   0  0  0  0  0  3  0  0  0  0  0  0
    1.8360    0.3611   -3.8344 H   0  0  0  0  0  0  0  0  0  0  0  0
    0.0730    0.3611   -3.8344 H   0  0  0  0  0  0  0  0  0  0  0  0
    0.9545   -1.1673   -3.8434 H   0  0  0  0  0  0  0  0  0  0  0  0
    0.0795   -0.6981   -1.5530 H   0  0  0  0  0  0  0  0  0  0  0  0
    1.8295   -0.6981   -1.5530 H   0  0  0  0  0  0  0  0  0  0  0  0
    0.0795    1.7961   -1.6903 H   0  0  0  0  0  0  0  0  0  0  0  0
    1.8295    1.7961   -1.6903 H   0  0  0  0  0  0  0  0  0  0  0  0
    1.8360    0.7368    0.5911 H   0  0  0  0  0  0  0  0  0  0  0  0
   -0.1033    0.6341    0.6694 H   0  0  0  0  0  0  0  0  0  0  0  0
    0.9545    2.2653    0.6001 H   0  0  0  0  0  0  0  0  0  0  0  0
  1  2  1  0
  1  4  1  0
  1 22  1  0
  2  3  1  0
  2  5  1  0
  2  6  1  0
  3  7  1  0
  3  8  1  0
  3  9  1  0
 10 11  1  0
 10 14  1  0
 10 15  1  0
 10 16  1  0
 11 12  1  0
 11 17  1  0
 11 18  1  0
 12 13  1  0
 12 19  1  0
 12 20  1  0
 13 21  1  0
 13 23  1  0
M  RAD  2   1   2  13   2
M  END
>  <reaction>  (5) 
rmg_rxn_28

>  <mol_properties>  (5) 
{"0": {"label": "*3", "atom_type": "Cs"}, "1": {"label": "*4", "atom_type": "Cs"}, "11": {"label": "*0", "atom_type": "Cs"}, "12": {"label": "*1", "atom_type": "Cs"}, "21": {"label": "*2", "atom_type": "H0"}}

>  <type>  (5) 
unop_1

>  <geom_source>  (5) 
Heuristics

$$$$

     RDKit          3D

 23 21  0  0  0  0  0  0  0  0999 V2000
   -0.9240    0.1791    1.6808 C   0  0  0  0  0  3  0  0  0  0  0  0
   -1.5584   -0.9274    0.9231 C   0  0  0  0  0  0  0  0  0  0  0  0
   -2.2473   -1.9592    1.8096 C   0  0  0  0  0  0  0  0  0  0  0  0
   -1.1996    0.3779    2.7086 H   0  0  0  0  0  0  0  0  0  0  0  0
   -2.2929   -0.5160    0.2138 H   0  0  0  0  0  0  0  0  0  0  0  0
   -0.8091   -1.4195    0.2918 H   0  0  0  0  0  0  0  0  0  0  0  0
   -3.0256   -1.4912    2.4164 H   0  0  0  0  0  0  0  0  0  0  0  0
   -1.5326   -2.4285    2.4882 H   0  0  0  0  0  0  0  0  0  0  0  0
   -2.7140   -2.7449    1.2138 H   0  0  0  0  0  0  0  0  0  0  0  0
    1.1812    0.0027   -2.8966 C   0  0  0  0  0  0  0  0  0  0  0  0
    1.1812    0.0027   -1.3739 C   0  0  0  0  0  0  0  0  0  0  0  0
    1.1812    1.4051   -0.7765 C   0  0  0  0  0  0  0  0  0  0  0  0
    1.1812    1.4051    0.7462 C   0  0  0  0  0  3  0  0  0  0  0  0
    2.0627    0.5160   -3.2880 H   0  0  0  0  0  0  0  0  0  0  0  0
    0.2996    0.5160   -3.2880 H   0  0  0  0  0  0  0  0  0  0  0  0
    1.1812   -1.0124   -3.2970 H   0  0  0  0  0  0  0  0  0  0  0  0
    0.3061   -0.5432   -1.0066 H   0  0  0  0  0  0  0  0  0  0  0  0
    2.0562   -0.5432   -1.0066 H   0  0  0  0  0  0  0  0  0  0  0  0
    0.3061    1.9509   -1.1438 H   0  0  0  0  0  0  0  0  0  0  0  0
    2.0562    1.9509   -1.1438 H   0  0  0  0  0  0  0  0  0  0  0  0
    2.0627    0.8917    1.1375 H   0  0  0  0  0  0  0  0  0  0  0  0
    0.1233    0.7890    1.2158 H   0  0  0  0  0  0  0  0  0  0  0  0
    1.1812    2.4202    1.1465 H   0  0  0  0  0  0  0  0  0  0  0  0
  1  2  1  0
  1  4  1  0
  1 22  1  0
  2  3  1  0
  2  5  1  0
  2  6  1  0
  3  7  1  0
  3  8  1  0
  3  9  1  0
 10 11  1  0
 10 14  1  0
 10 15  1  0
 10 16  1  0
 11 12  1  0
 11 17  1  0
 11 18  1  0
 12 13  1  0
 12 19  1  0
 12 20  1  0
 13 21  1  0
 13 23  1  0
M  RAD  2   1   2  13   2
M  END
>  <reaction>  (6) 
rmg_rxn_28

>  <mol_properties>  (6) 
{"0": {"label": "*3", "atom_type": "Cs"}, "1": {"label": "*4", "atom_type": "Cs"}, "11": {"label": "*0", "atom_type": "Cs"}, "12": {"label": "*1", "atom_type": "Cs"}, "21": {"label": "*2", "atom_type": "H0"}}

>  <type>  (6) 
unop_2

>  <geom_source>  (6) 
Heuristics

$$$$

     RDKit          3D

 23 21  0  0  0  0  0  0  0  0999 V2000
   -1.0502   -0.1471    1.0745 C   0  0  0  0  0  3  0  0  0  0  0  0
   -1.0016   -0.8559    2.3769 C   0  0  0  0  0  0  0  0  0  0  0  0
   -2.1656   -0.5164    3.3016 C   0  0  0  0  0  0  0  0  0  0  0  0
   -1.9690    0.3035    0.7215 H   0  0  0  0  0  0  0  0  0  0  0  0
   -0.9848   -1.9433    2.2055 H   0  0  0  0  0  0  0  0  0  0  0  0
   -0.0513   -0.6400    2.8794 H   0  0  0  0  0  0  0  0  0  0  0  0
   -3.1195   -0.7639    2.8309 H   0  0  0  0  0  0  0  0  0  0  0  0
   -2.1769    0.5492    3.5378 H   0  0  0  0  0  0  0  0  0  0  0  0
   -2.1009   -1.0699    4.2394 H   0  0  0  0  0  0  0  0  0  0  0  0
    1.0550   -0.3236   -3.5029 C   0  0  0  0  0  0  0  0  0  0  0  0
    1.0550   -0.3236   -1.9802 C   0  0  0  0  0  0  0  0  0  0  0  0
    1.0550    1.0788   -1.3828 C   0  0  0  0  0  0  0  0  0  0  0  0
    1.0550    1.0788    0.1399 C   0  0  0  0  0  3  0  0  0  0  0  0
    1.9365    0.1898   -3.8942 H   0  0  0  0  0  0  0  0  0  0  0  0
    0.1734    0.1898   -3.8942 H   0  0  0  0  0  0  0  0  0  0  0  0
    1.0550   -1.3387   -3.9032 H   0  0  0  0  0  0  0  0  0  0  0  0
    0.1799   -0.8695   -1.6129 H   0  0  0  0  0  0  0  0  0  0  0  0
    1.9300   -0.8695   -1.6129 H   0  0  0  0  0  0  0  0  0  0  0  0
    0.1799    1.6247   -1.7501 H   0  0  0  0  0  0  0  0  0  0  0  0
    1.9300    1.6247   -1.7501 H   0  0  0  0  0  0  0  0  0  0  0  0
    1.9365    0.5654    0.5313 H   0  0  0  0  0  0  0  0  0  0  0  0
   -0.0029    0.4628    0.6095 H   0  0  0  0  0  0  0  0  0  0  0  0
    1.0550    2.0939    0.5403 H   0  0  0  0  0  0  0  0  0  0  0  0
  1  2  1  0
  1  4  1  0
  1 22  1  0
  2  3  1  0
  2  5  1  0
  2  6  1  0
  3  7  1  0
  3  8  1  0
  3  9  1  0
 10 11  1  0
 10 14  1  0
 10 15  1  0
 10 16  1  0
 11 12  1  0
 11 17  1  0
 11 18  1  0
 12 13  1  0
 12 19  1  0
 12 20  1  0
 13 21  1  0
 13 23  1  0
M  RAD  2   1   2  13   2
M  END
>  <reaction>  (7) 
rmg_rxn_28

>  <mol_properties>  (7) 
{"0": {"label": "*3", "atom_type": "Cs"}, "1": {"label": "*4", "atom_type": "Cs"}, "11": {"label": "*0", "atom_type": "Cs"}, "12": {"label": "*1", "atom_type": "Cs"}, "21": {"label": "*2", "atom_type": "H0"}}

>  <type>  (7) 
unop_3

>  <geom_source>  (7) 
Heuristics

$$$$

     RDKit          3D

 23 21  0  0  0  0  0  0  0  0999 V2000
   -0.6549   -0.3713    1.5372 C   0  0  0  0  0  3  0  0  0  0  0  0
   -2.0207    0.1099    1.2149 C   0  0  0  0  0  0  0  0  0  0  0  0
   -3.0854   -0.3703    2.1951 C   0  0  0  0  0  0  0  0  0  0  0  0
   -0.4178   -0.7498    2.5233 H   0  0  0  0  0  0  0  0  0  0  0  0
   -2.0280    1.2104    1.1878 H   0  0  0  0  0  0  0  0  0  0  0  0
   -2.2882   -0.1939    0.1959 H   0  0  0  0  0  0  0  0  0  0  0  0
   -2.8546   -0.0406    3.2104 H   0  0  0  0  0  0  0  0  0  0  0  0
   -3.1433   -1.4603    2.2036 H   0  0  0  0  0  0  0  0  0  0  0  0
   -4.0702    0.0185    1.9322 H   0  0  0  0  0  0  0  0  0  0  0  0
    1.4502   -0.5478   -3.0402 C   0  0  0  0  0  0  0  0  0  0  0  0
    1.4502   -0.5478   -1.5175 C   0  0  0  0  0  0  0  0  0  0  0  0
    1.4502    0.8546   -0.9201 C   0  0  0  0  0  0  0  0  0  0  0  0
    1.4502    0.8546    0.6026 C   0  0  0  0  0  3  0  0  0  0  0  0
    2.3318   -0.0344   -3.4316 H   0  0  0  0  0  0  0  0  0  0  0  0
    0.5687   -0.0344   -3.4316 H   0  0  0  0  0  0  0  0  0  0  0  0
    1.4502   -1.5629   -3.4406 H   0  0  0  0  0  0  0  0  0  0  0  0
    0.5752   -1.0937   -1.1502 H   0  0  0  0  0  0  0  0  0  0  0  0
    2.3253   -1.0937   -1.1502 H   0  0  0  0  0  0  0  0  0  0  0  0
    0.5752    1.4005   -1.2874 H   0  0  0  0  0  0  0  0  0  0  0  0
    2.3253    1.4005   -1.2874 H   0  0  0  0  0  0  0  0  0  0  0  0
    2.3318    0.3412    0.9939 H   0  0  0  0  0  0  0  0  0  0  0  0
    0.3924    0.2386    1.0722 H   0  0  0  0  0  0  0  0  0  0  0  0
    1.4502    1.8697    1.0029 H   0  0  0  0  0  0  0  0  0  0  0  0
  1  2  1  0
  1  4  1  0
  1 22  1  0
  2  3  1  0
  2  5  1  0
  2  6  1  0
  3  7  1  0
  3  8  1  0
  3  9  1  0
 10 11  1  0
 10 14  1  0
 10 15  1  0
 10 16  1  0
 11 12  1  0
 11 17  1  0
 11 18  1  0
 12 13  1  0
 12 19  1  0
 12 20  1  0
 13 21  1  0
 13 23  1  0
M  RAD  2   1   2  13   2
M  END
>  <reaction>  (8) 
rmg_rxn_28

>  <mol_properties>  (8) 
{"0": {"label": "*3", "atom_type": "Cs"}, "1": {"label": "*4", "atom_type": "Cs"}, "11": {"label": "*0", "atom_type": "Cs"}, "12": {"label": "*1", "atom_type": "Cs"}, "21": {"label": "*2", "atom_type": "H0"}}

>  <type>  (8) 
unop_4

>  <geom_source>  (8) 
Heuristics

$$$$

     RDKit          3D

 23 21  0  0  0  0  0  0  0  0999 V2000
   -0.9383   -0.1871    1.1137 C   0  0  0  0  0  3  0  0  0  0  0  0
   -1.1574   -0.3147    2.5754 C   0  0  0  0  0  0  0  0  0  0  0  0
   -2.5544   -0.8023    2.9440 C   0  0  0  0  0  0  0  0  0  0  0  0
   -1.5921   -0.6845    0.4087 H   0  0  0  0  0  0  0  0  0  0  0  0
   -0.4125   -1.0040    3.0020 H   0  0  0  0  0  0  0  0  0  0  0  0
   -0.9572    0.6463    3.0639 H   0  0  0  0  0  0  0  0  0  0  0  0
   -2.7544   -1.7788    2.4977 H   0  0  0  0  0  0  0  0  0  0  0  0
   -3.3163   -0.1087    2.5837 H   0  0  0  0  0  0  0  0  0  0  0  0
   -2.6682   -0.8980    4.0247 H   0  0  0  0  0  0  0  0  0  0  0  0
    1.1669   -0.3635   -3.4636 C   0  0  0  0  0  0  0  0  0  0  0  0
    1.1669   -0.3635   -1.9409 C   0  0  0  0  0  0  0  0  0  0  0  0
    1.1669    1.0388   -1.3436 C   0  0  0  0  0  0  0  0  0  0  0  0
    1.1669    1.0388    0.1791 C   0  0  0  0  0  3  0  0  0  0  0  0
    2.0484    0.1498   -3.8550 H   0  0  0  0  0  0  0  0  0  0  0  0
    0.2854    0.1498   -3.8550 H   0  0  0  0  0  0  0  0  0  0  0  0
    1.1669   -1.3786   -3.8640 H   0  0  0  0  0  0  0  0  0  0  0  0
    0.2918   -0.9094   -1.5736 H   0  0  0  0  0  0  0  0  0  0  0  0
    2.0419   -0.9094   -1.5736 H   0  0  0  0  0  0  0  0  0  0  0  0
    0.2918    1.5847   -1.7109 H   0  0  0  0  0  0  0  0  0  0  0  0
    2.0419    1.5847   -1.7109 H   0  0  0  0  0  0  0  0  0  0  0  0
    2.0484    0.5255    0.5705 H   0  0  0  0  0  0  0  0  0  0  0  0
    0.1091    0.4228    0.6488 H   0  0  0  0  0  0  0  0  0  0  0  0
    1.1669    2.0539    0.5795 H   0  0  0  0  0  0  0  0  0  0  0  0
  1  2  1  0
  1  4  1  0
  1 22  1  0
  2  3  1  0
  2  5  1  0
  2  6  1  0
  3  7  1  0
  3  8  1  0
  3  9  1  0
 10 11  1  0
 10 14  1  0
 10 15  1  0
 10 16  1  0
 11 12  1  0
 11 17  1  0
 11 18  1  0
 12 13  1  0
 12 19  1  0
 12 20  1  0
 13 21  1  0
 13 23  1  0
M  RAD  2   1   2  13   2
M  END
>  <reaction>  (9) 
rmg_rxn_28

>  <mol_properties>  (9) 
{"0": {"label": "*3", "atom_type": "Cs"}, "1": {"label": "*4", "atom_type": "Cs"}, "11": {"label": "*0", "atom_type": "Cs"}, "12": {"label": "*1", "atom_type": "Cs"}, "21": {"label": "*2", "atom_type": "H0"}}

>  <type>  (9) 
unop_5

>  <geom_source>  (9) 
Heuristics

$$$$

     RDKit          3D

 23 21  0  0  0  0  0  0  0  0999 V2000
   -0.7260   -0.4304    1.3383 C   0  0  0  0  0  3  0  0  0  0  0  0
   -1.9805    0.3131    1.6107 C   0  0  0  0  0  0  0  0  0  0  0  0
   -2.8043   -0.2746    2.7513 C   0  0  0  0  0  0  0  0  0  0  0  0
   -0.3120   -1.1090    2.0732 H   0  0  0  0  0  0  0  0  0  0  0  0
   -1.7449    1.3633    1.8421 H   0  0  0  0  0  0  0  0  0  0  0  0
   -2.5872    0.3600    0.6985 H   0  0  0  0  0  0  0  0  0  0  0  0
   -2.2270   -0.2907    3.6782 H   0  0  0  0  0  0  0  0  0  0  0  0
   -3.1035   -1.3001    2.5270 H   0  0  0  0  0  0  0  0  0  0  0  0
   -3.7080    0.3100    2.9294 H   0  0  0  0  0  0  0  0  0  0  0  0
    1.3791   -0.6069   -3.2391 C   0  0  0  0  0  0  0  0  0  0  0  0
    1.3791   -0.6069   -1.7164 C   0  0  0  0  0  0  0  0  0  0  0  0
    1.3791    0.7955   -1.1190 C   0  0  0  0  0  0  0  0  0  0  0  0
    1.3791    0.7955    0.4037 C   0  0  0  0  0  3  0  0  0  0  0  0
    2.2607   -0.0935   -3.6305 H   0  0  0  0  0  0  0  0  0  0  0  0
    0.4976   -0.0935   -3.6305 H   0  0  0  0  0  0  0  0  0  0  0  0
    1.3791   -1.6220   -3.6395 H   0  0  0  0  0  0  0  0  0  0  0  0
    0.5041   -1.1528   -1.3491 H   0  0  0  0  0  0  0  0  0  0  0  0
    2.2542   -1.1528   -1.3491 H   0  0  0  0  0  0  0  0  0  0  0  0
    0.5041    1.3414   -1.4863 H   0  0  0  0  0  0  0  0  0  0  0  0
    2.2542    1.3414   -1.4863 H   0  0  0  0  0  0  0  0  0  0  0  0
    2.2607    0.2822    0.7950 H   0  0  0  0  0  0  0  0  0  0  0  0
    0.3213    0.1795    0.8733 H   0  0  0  0  0  0  0  0  0  0  0  0
    1.3791    1.8106    0.8040 H   0  0  0  0  0  0  0  0  0  0  0  0
  1  2  1  0
  1  4  1  0
  1 22  1  0
  2  3  1  0
  2  5  1  0
  2  6  1  0
  3  7  1  0
  3  8  1  0
  3  9  1  0
 10 11  1  0
 10 14  1  0
 10 15  1  0
 10 16  1  0
 11 12  1  0
 11 17  1  0
 11 18  1  0
 12 13  1  0
 12 19  1  0
 12 20  1  0
 13 21  1  0
 13 23  1  0
M  RAD  2   1   2  13   2
M  END
>  <reaction>  (10) 
rmg_rxn_28

>  <mol_properties>  (10) 
{"0": {"label": "*3", "atom_type": "Cs"}, "1": {"label": "*4", "atom_type": "Cs"}, "11": {"label": "*0", "atom_type": "Cs"}, "12": {"label": "*1", "atom_type": "Cs"}, "21": {"label": "*2", "atom_type": "H0"}}

>  <type>  (10) 
unop_6

>  <geom_source>  (10) 
Heuristics

$$$$

     RDKit          3D

 23 21  0  0  0  0  0  0  0  0999 V2000
   -0.8386   -0.3727    1.1770 C   0  0  0  0  0  3  0  0  0  0  0  0
   -1.8101    0.3382    2.0440 C   0  0  0  0  0  0  0  0  0  0  0  0
   -2.4468   -0.5514    3.1062 C   0  0  0  0  0  0  0  0  0  0  0  0
   -0.4147   -1.3216    1.4799 H   0  0  0  0  0  0  0  0  0  0  0  0
   -1.3126    1.1870    2.5379 H   0  0  0  0  0  0  0  0  0  0  0  0
   -2.5905    0.7966    1.4252 H   0  0  0  0  0  0  0  0  0  0  0  0
   -1.6843   -0.9841    3.7574 H   0  0  0  0  0  0  0  0  0  0  0  0
   -2.9978   -1.3736    2.6459 H   0  0  0  0  0  0  0  0  0  0  0  0
   -3.1406    0.0125    3.7313 H   0  0  0  0  0  0  0  0  0  0  0  0
    1.2666   -0.5491   -3.4004 C   0  0  0  0  0  0  0  0  0  0  0  0
    1.2666   -0.5491   -1.8777 C   0  0  0  0  0  0  0  0  0  0  0  0
    1.2666    0.8532   -1.2803 C   0  0  0  0  0  0  0  0  0  0  0  0
    1.2666    0.8532    0.2424 C   0  0  0  0  0  3  0  0  0  0  0  0
    2.1481   -0.0358   -3.7917 H   0  0  0  0  0  0  0  0  0  0  0  0
    0.3850   -0.0358   -3.7918 H   0  0  0  0  0  0  0  0  0  0  0  0
    1.2666   -1.5642   -3.8007 H   0  0  0  0  0  0  0  0  0  0  0  0
    0.3915   -1.0950   -1.5104 H   0  0  0  0  0  0  0  0  0  0  0  0
    2.1416   -1.0950   -1.5104 H   0  0  0  0  0  0  0  0  0  0  0  0
    0.3915    1.3991   -1.6476 H   0  0  0  0  0  0  0  0  0  0  0  0
    2.1416    1.3991   -1.6476 H   0  0  0  0  0  0  0  0  0  0  0  0
    2.1481    0.3399    0.6338 H   0  0  0  0  0  0  0  0  0  0  0  0
    0.2087    0.2372    0.7120 H   0  0  0  0  0  0  0  0  0  0  0  0
    1.2666    1.8683    0.6428 H   0  0  0  0  0  0  0  0  0  0  0  0
  1  2  1  0
  1  4  1  0
  1 22  1  0
  2  3  1  0
  2  5  1  0
  2  6  1  0
  3  7  1  0
  3  8  1  0
  3  9  1  0
 10 11  1  0
 10 14  1  0
 10 15  1  0
 10 16  1  0
 11 12  1  0
 11 17  1  0
 11 18  1  0
 12 13  1  0
 12 19  1  0
 12 20  1  0
 13 21  1  0
 13 23  1  0
M  RAD  2   1   2  13   2
M  END
>  <reaction>  (11) 
rmg_rxn_28

>  <mol_properties>  (11) 
{"0": {"label": "*3", "atom_type": "Cs"}, "1": {"label": "*4", "atom_type": "Cs"}, "11": {"label": "*0", "atom_type": "Cs"}, "12": {"label": "*1", "atom_type": "Cs"}, "21": {"label": "*2", "atom_type": "H0"}}

>  <type>  (11) 
unop_7

>  <geom_source>  (11) 
Heuristics

$$$$

     RDKit          3D

 23 21  0  0  0  0  0  0  0  0999 V2000
   -1.1573    0.1796    1.2982 C   0  0  0  0  0  3  0  0  0  0  0  0
   -1.1297   -1.2785    1.5705 C   0  0  0  0  0  0  0  0  0  0  0  0
   -1.5600   -1.6442    2.9869 C   0  0  0  0  0  0  0  0  0  0  0  0
   -1.7177    0.8528    1.9344 H   0  0  0  0  0  0  0  0  0  0  0  0
   -1.7795   -1.8011    0.8518 H   0  0  0  0  0  0  0  0  0  0  0  0
   -0.1255   -1.6719    1.3729 H   0  0  0  0  0  0  0  0  0  0  0  0
   -2.5753   -1.2943    3.1861 H   0  0  0  0  0  0  0  0  0  0  0  0
   -0.8988   -1.1864    3.7250 H   0  0  0  0  0  0  0  0  0  0  0  0
   -1.5415   -2.7241    3.1401 H   0  0  0  0  0  0  0  0  0  0  0  0
    0.9478    0.0031   -3.2792 C   0  0  0  0  0  0  0  0  0  0  0  0
    0.9478    0.0031   -1.7565 C   0  0  0  0  0  0  0  0  0  0  0  0
    0.9478    1.4055   -1.1591 C   0  0  0  0  0  0  0  0  0  0  0  0
    0.9478    1.4055    0.3636 C   0  0  0  0  0  3  0  0  0  0  0  0
    1.8294    0.5165   -3.6706 H   0  0  0  0  0  0  0  0  0  0  0  0
    0.0663    0.5165   -3.6706 H   0  0  0  0  0  0  0  0  0  0  0  0
    0.9478   -1.0120   -3.6796 H   0  0  0  0  0  0  0  0  0  0  0  0
    0.0728   -0.5427   -1.3892 H   0  0  0  0  0  0  0  0  0  0  0  0
    1.8229   -0.5427   -1.3892 H   0  0  0  0  0  0  0  0  0  0  0  0
    0.0728    1.9514   -1.5265 H   0  0  0  0  0  0  0  0  0  0  0  0
    1.8229    1.9514   -1.5265 H   0  0  0  0  0  0  0  0  0  0  0  0
    1.8294    0.8922    0.7549 H   0  0  0  0  0  0  0  0  0  0  0  0
   -0.1100    0.7895    0.8332 H   0  0  0  0  0  0  0  0  0  0  0  0
    0.9478    2.4206    0.7639 H   0  0  0  0  0  0  0  0  0  0  0  0
  1  2  1  0
  1  4  1  0
  1 22  1  0
  2  3  1  0
  2  5  1  0
  2  6  1  0
  3  7  1  0
  3  8  1  0
  3  9  1  0
 10 11  1  0
 10 14  1  0
 10 15  1  0
 10 16  1  0
 11 12  1  0
 11 17  1  0
 11 18  1  0
 12 13  1  0
 12 19  1  0
 12 20  1  0
 13 21  1  0
 13 23  1  0
M  RAD  2   1   2  13   2
M  END
>  <reaction>  (12) 
rmg_rxn_28

>  <mol_properties>  (12) 
{"0": {"label": "*3", "atom_type": "Cs"}, "1": {"label": "*4", "atom_type": "Cs"}, "11": {"label": "*0", "atom_type": "Cs"}, "12": {"label": "*1", "atom_type": "Cs"}, "21": {"label": "*2", "atom_type": "H0"}}

>  <type>  (12) 
unop_8

>  <geom_source>  (12) 
Heuristics

$$$$

     RDKit          3D

 23 21  0  0  0  0  0  0  0  0999 V2000
   -0.6652   -0.2055    1.6991 C   0  0  0  0  0  3  0  0  0  0  0  0
   -1.9407   -0.2112    0.9415 C   0  0  0  0  0  0  0  0  0  0  0  0
   -3.1007   -0.8447    1.7018 C   0  0  0  0  0  0  0  0  0  0  0  0
   -0.6561   -0.3488    2.7721 H   0  0  0  0  0  0  0  0  0  0  0  0
   -2.2120    0.8197    0.6668 H   0  0  0  0  0  0  0  0  0  0  0  0
   -1.7985   -0.7248   -0.0167 H   0  0  0  0  0  0  0  0  0  0  0  0
   -3.2819   -0.3183    2.6414 H   0  0  0  0  0  0  0  0  0  0  0  0
   -2.8862   -1.8881    1.9402 H   0  0  0  0  0  0  0  0  0  0  0  0
   -4.0213   -0.8138    1.1174 H   0  0  0  0  0  0  0  0  0  0  0  0
    1.4399   -0.3820   -2.8783 C   0  0  0  0  0  0  0  0  0  0  0  0
    1.4399   -0.3820   -1.3556 C   0  0  0  0  0  0  0  0  0  0  0  0
    1.4399    1.0204   -0.7582 C   0  0  0  0  0  0  0  0  0  0  0  0
    1.4399    1.0204    0.7645 C   0  0  0  0  0  3  0  0  0  0  0  0
    2.3215    0.1314   -3.2696 H   0  0  0  0  0  0  0  0  0  0  0  0
    0.5584    0.1314   -3.2696 H   0  0  0  0  0  0  0  0  0  0  0  0
    1.4399   -1.3971   -3.2786 H   0  0  0  0  0  0  0  0  0  0  0  0
    0.5649   -0.9278   -0.9882 H   0  0  0  0  0  0  0  0  0  0  0  0
    2.3150   -0.9278   -0.9882 H   0  0  0  0  0  0  0  0  0  0  0  0
    0.5649    1.5663   -1.1255 H   0  0  0  0  0  0  0  0  0  0  0  0
    2.3150    1.5663   -1.1255 H   0  0  0  0  0  0  0  0  0  0  0  0
    2.3215    0.5071    1.1559 H   0  0  0  0  0  0  0  0  0  0  0  0
    0.3821    0.4044    1.2342 H   0  0  0  0  0  0  0  0  0  0  0  0
    1.4399    2.0355    1.1649 H   0  0  0  0  0  0  0  0  0  0  0  0
  1  2  1  0
  1  4  1  0
  1 22  1  0
  2  3  1  0
  2  5  1  0
  2  6  1  0
  3  7  1  0
  3  8  1  0
  3  9  1  0
 10 11  1  0
 10 14  1  0
 10 15  1  0
 10 16  1  0
 11 12  1  0
 11 17  1  0
 11 18  1  0
 12 13  1  0
 12 19  1  0
 12 20  1  0
 13 21  1  0
 13 23  1  0
M  RAD  2   1   2  13   2
M  END
>  <reaction>  (13) 
rmg_rxn_28

>  <mol_properties>  (13) 
{"0": {"label": "*3", "atom_type": "Cs"}, "1": {"label": "*4", "atom_type": "Cs"}, "11": {"label": "*0", "atom_type": "Cs"}, "12": {"label": "*1", "atom_type": "Cs"}, "21": {"label": "*2", "atom_type": "H0"}}

>  <type>  (13) 
unop_9

>  <geom_source>  (13) 
Heuristics

$$$$

     RDKit          3D

 23 21  0  0  0  0  0  0  0  0999 V2000
   -1.0726    0.2414    1.5051 C   0  0  0  0  0  3  0  0  0  0  0  0
   -1.3280   -1.1840    1.1828 C   0  0  0  0  0  0  0  0  0  0  0  0
   -1.7719   -2.0124    2.3836 C   0  0  0  0  0  0  0  0  0  0  0  0
   -1.4635    0.6842    2.4123 H   0  0  0  0  0  0  0  0  0  0  0  0
   -2.0947   -1.2533    0.3958 H   0  0  0  0  0  0  0  0  0  0  0  0
   -0.4308   -1.6277    0.7352 H   0  0  0  0  0  0  0  0  0  0  0  0
   -2.6886   -1.6066    2.8169 H   0  0  0  0  0  0  0  0  0  0  0  0
   -1.0063   -2.0110    3.1617 H   0  0  0  0  0  0  0  0  0  0  0  0
   -1.9647   -3.0482    2.1007 H   0  0  0  0  0  0  0  0  0  0  0  0
    1.0326    0.0649   -3.0723 C   0  0  0  0  0  0  0  0  0  0  0  0
    1.0326    0.0649   -1.5496 C   0  0  0  0  0  0  0  0  0  0  0  0
    1.0326    1.4673   -0.9522 C   0  0  0  0  0  0  0  0  0  0  0  0
    1.0326    1.4673    0.5705 C   0  0  0  0  0  3  0  0  0  0  0  0
    1.9141    0.5783   -3.4636 H   0  0  0  0  0  0  0  0  0  0  0  0
    0.1511    0.5783   -3.4636 H   0  0  0  0  0  0  0  0  0  0  0  0
    1.0326   -0.9502   -3.4726 H   0  0  0  0  0  0  0  0  0  0  0  0
    0.1576   -0.4809   -1.1823 H   0  0  0  0  0  0  0  0  0  0  0  0
    1.9076   -0.4809   -1.1823 H   0  0  0  0  0  0  0  0  0  0  0  0
    0.1576    2.0132   -1.3195 H   0  0  0  0  0  0  0  0  0  0  0  0
    1.9076    2.0132   -1.3195 H   0  0  0  0  0  0  0  0  0  0  0  0
    1.9141    0.9540    0.9619 H   0  0  0  0  0  0  0  0  0  0  0  0
   -0.0252    0.8513    1.0401 H   0  0  0  0  0  0  0  0  0  0  0  0
    1.0326    2.4824    0.9709 H   0  0  0  0  0  0  0  0  0  0  0  0
  1  2  1  0
  1  4  1  0
  1 22  1  0
  2  3  1  0
  2  5  1  0
  2  6  1  0
  3  7  1  0
  3  8  1  0
  3  9  1  0
 10 11  1  0
 10 14  1  0
 10 15  1  0
 10 16  1  0
 11 12  1  0
 11 17  1  0
 11 18  1  0
 12 13  1  0
 12 19  1  0
 12 20  1  0
 13 21  1  0
 13 23  1  0
M  RAD  2   1   2  13   2
M  END
>  <reaction>  (14) 
rmg_rxn_28

>  <mol_properties>  (14) 
{"0": {"label": "*3", "atom_type": "Cs"}, "1": {"label": "*4", "atom_type": "Cs"}, "11": {"label": "*0", "atom_type": "Cs"}, "12": {"label": "*1", "atom_type": "Cs"}, "21": {"label": "*2", "atom_type": "H0"}}

>  <type>  (14) 
unop_10

>  <geom_source>  (14) 
Heuristics

$$$$

     RDKit          3D

 23 21  0  0  0  0  0  0  0  0999 V2000
   -0.9269   -0.2420    1.1104 C   0  0  0  0  0  3  0  0  0  0  0  0
   -1.5194    0.1500    2.4128 C   0  0  0  0  0  0  0  0  0  0  0  0
   -2.3012   -0.9699    3.0907 C   0  0  0  0  0  0  0  0  0  0  0  0
   -0.8084   -1.2851    0.8457 H   0  0  0  0  0  0  0  0  0  0  0  0
   -0.7243    0.4945    3.0918 H   0  0  0  0  0  0  0  0  0  0  0  0
   -2.1652    1.0254    2.2758 H   0  0  0  0  0  0  0  0  0  0  0  0
   -1.6605   -1.8358    3.2713 H   0  0  0  0  0  0  0  0  0  0  0  0
   -3.1345   -1.2964    2.4656 H   0  0  0  0  0  0  0  0  0  0  0  0
   -2.7054   -0.6459    4.0508 H   0  0  0  0  0  0  0  0  0  0  0  0
    1.1783   -0.4185   -3.4670 C   0  0  0  0  0  0  0  0  0  0  0  0
    1.1783   -0.4185   -1.9443 C   0  0  0  0  0  0  0  0  0  0  0  0
    1.1783    0.9839   -1.3469 C   0  0  0  0  0  0  0  0  0  0  0  0
    1.1783    0.9839    0.1758 C   0  0  0  0  0  3  0  0  0  0  0  0
    2.0598    0.0949   -3.8583 H   0  0  0  0  0  0  0  0  0  0  0  0
    0.2968    0.0949   -3.8583 H   0  0  0  0  0  0  0  0  0  0  0  0
    1.1783   -1.4336   -3.8673 H   0  0  0  0  0  0  0  0  0  0  0  0
    0.3033   -0.9644   -1.5769 H   0  0  0  0  0  0  0  0  0  0  0  0
    2.0533   -0.9644   -1.5769 H   0  0  0  0  0  0  0  0  0  0  0  0
    0.3033    1.5298   -1.7142 H   0  0  0  0  0  0  0  0  0  0  0  0
    2.0533    1.5298   -1.7142 H   0  0  0  0  0  0  0  0  0  0  0  0
    2.0598    0.4705    0.5672 H   0  0  0  0  0  0  0  0  0  0  0  0
    0.1205    0.3679    0.6455 H   0  0  0  0  0  0  0  0  0  0  0  0
    1.1783    1.9990    0.5762 H   0  0  0  0  0  0  0  0  0  0  0  0
  1  2  1  0
  1  4  1  0
  1 22  1  0
  2  3  1  0
  2  5  1  0
  2  6  1  0
  3  7  1  0
  3  8  1  0
  3  9  1  0
 10 11  1  0
 10 14  1  0
 10 15  1  0
 10 16  1  0
 11 12  1  0
 11 17  1  0
 11 18  1  0
 12 13  1  0
 12 19  1  0
 12 20  1  0
 13 21  1  0
 13 23  1  0
M  RAD  2   1   2  13   2
M  END
>  <reaction>  (15) 
rmg_rxn_28

>  <mol_properties>  (15) 
{"0": {"label": "*3", "atom_type": "Cs"}, "1": {"label": "*4", "atom_type": "Cs"}, "11": {"label": "*0", "atom_type": "Cs"}, "12": {"label": "*1", "atom_type": "Cs"}, "21": {"label": "*2", "atom_type": "H0"}}

>  <type>  (15) 
unop_11

>  <geom_source>  (15) 
Heuristics

$$$$

     RDKit          3D

 23 21  0  0  0  0  0  0  0  0999 V2000
   -0.7665    0.0078    1.7561 C   0  0  0  0  0  3  0  0  0  0  0  0
   -1.7743   -0.5791    0.8392 C   0  0  0  0  0  0  0  0  0  0  0  0
   -2.7787   -1.4899    1.5367 C   0  0  0  0  0  0  0  0  0  0  0  0
   -0.9335    0.0272    2.8256 H   0  0  0  0  0  0  0  0  0  0  0  0
   -2.3186    0.2270    0.3235 H   0  0  0  0  0  0  0  0  0  0  0  0
   -1.2676   -1.1285    0.0368 H   0  0  0  0  0  0  0  0  0  0  0  0
   -3.3215   -0.9460    2.3128 H   0  0  0  0  0  0  0  0  0  0  0  0
   -2.2746   -2.3337    2.0115 H   0  0  0  0  0  0  0  0  0  0  0  0
   -3.5103   -1.8866    0.8313 H   0  0  0  0  0  0  0  0  0  0  0  0
    1.3386   -0.1687   -2.8212 C   0  0  0  0  0  0  0  0  0  0  0  0
    1.3386   -0.1687   -1.2985 C   0  0  0  0  0  0  0  0  0  0  0  0
    1.3386    1.2337   -0.7012 C   0  0  0  0  0  0  0  0  0  0  0  0
    1.3386    1.2337    0.8215 C   0  0  0  0  0  3  0  0  0  0  0  0
    2.2201    0.3447   -3.2126 H   0  0  0  0  0  0  0  0  0  0  0  0
    0.4571    0.3447   -3.2126 H   0  0  0  0  0  0  0  0  0  0  0  0
    1.3386   -1.1838   -3.2216 H   0  0  0  0  0  0  0  0  0  0  0  0
    0.4636   -0.7146   -0.9312 H   0  0  0  0  0  0  0  0  0  0  0  0
    2.2137   -0.7146   -0.9312 H   0  0  0  0  0  0  0  0  0  0  0  0
    0.4636    1.7796   -1.0685 H   0  0  0  0  0  0  0  0  0  0  0  0
    2.2137    1.7796   -1.0685 H   0  0  0  0  0  0  0  0  0  0  0  0
    2.2201    0.7203    1.2129 H   0  0  0  0  0  0  0  0  0  0  0  0
    0.2808    0.6177    1.2912 H   0  0  0  0  0  0  0  0  0  0  0  0
    1.3386    2.2488    1.2219 H   0  0  0  0  0  0  0  0  0  0  0  0
  1  2  1  0
  1  4  1  0
  1 22  1  0
  2  3  1  0
  2  5  1  0
  2  6  1  0
  3  7  1  0
  3  8  1  0
  3  9  1  0
 10 11  1  0
 10 14  1  0
 10 15  1  0
 10 16  1  0
 11 12  1  0
 11 17  1  0
 11 18  1  0
 12 13  1  0
 12 19  1  0
 12 20  1  0
 13 21  1  0
 13 23  1  0
M  RAD  2   1   2  13   2
M  END
>  <reaction>  (16) 
rmg_rxn_28

>  <mol_properties>  (16) 
{"0": {"label": "*3", "atom_type": "Cs"}, "1": {"label": "*4", "atom_type": "Cs"}, "11": {"label": "*0", "atom_type": "Cs"}, "12": {"label": "*1", "atom_type": "Cs"}, "21": {"label": "*2", "atom_type": "H0"}}

>  <type>  (16) 
unop_12

>  <geom_source>  (16) 
Heuristics

$$$$

     RDKit          3D

 23 21  0  0  0  0  0  0  0  0999 V2000
   -2.4561    0.0435    0.1141 C   0  0  0  0  0  0  0  0  0  0  0  0
   -2.0177   -1.4090   -0.1076 C   0  0  0  0  0  0  0  0  0  0  0  0
    1.8121    0.6884   -0.2114 C   0  0  0  0  0  0  0  0  0  0  0  0
   -1.5879    1.0346   -0.6602 C   0  0  0  0  0  0  0  0  0  0  0  0
    3.0608    1.4529    0.2110 C   0  0  0  0  0  0  0  0  0  0  0  0
    1.7049   -0.6292    0.5410 C   0  0  0  0  0  2  0  0  0  0  0  0
   -0.6502   -1.6858    0.5067 C   0  0  0  0  0  0  0  0  0  0  0  0
   -2.4247    0.2892    1.1980 H   0  0  0  0  0  0  0  0  0  0  0  0
   -3.5081    0.1536   -0.2276 H   0  0  0  0  0  0  0  0  0  0  0  0
    0.9138    1.3030    0.0090 H   0  0  0  0  0  0  0  0  0  0  0  0
    1.8472    0.4886   -1.3038 H   0  0  0  0  0  0  0  0  0  0  0  0
   -1.9847   -1.6320   -1.1959 H   0  0  0  0  0  0  0  0  0  0  0  0
   -2.7635   -2.0881    0.3592 H   0  0  0  0  0  0  0  0  0  0  0  0
    3.0320    1.6645    1.3014 H   0  0  0  0  0  0  0  0  0  0  0  0
    3.9725    0.8634   -0.0247 H   0  0  0  0  0  0  0  0  0  0  0  0
    3.1096    2.4170   -0.3377 H   0  0  0  0  0  0  0  0  0  0  0  0
   -0.5362    0.9917   -0.3064 H   0  0  0  0  0  0  0  0  0  0  0  0
   -1.6195    0.8088   -1.7474 H   0  0  0  0  0  0  0  0  0  0  0  0
   -1.9704    2.0648   -0.5013 H   0  0  0  0  0  0  0  0  0  0  0  0
    2.5572   -1.2939    0.2841 H   0  0  0  0  0  0  0  0  0  0  0  0
    0.5293   -1.2557    0.2083 H   0  0  0  0  0  0  0  0  0  0  0  0
   -0.6826   -1.5427    1.6077 H   0  0  0  0  0  0  0  0  0  0  0  0
   -0.3378   -2.7276    0.2834 H   0  0  0  0  0  0  0  0  0  0  0  0
  1  4  1  0
  1  2  1  0
  1  8  1  0
  1  9  1  0
  2  7  1  0
  2 12  1  0
  2 13  1  0
  3  6  1  0
  3  5  1  0
  3 10  1  0
  3 11  1  0
  4 17  1  0
  4 18  1  0
  4 19  1  0
  5 14  1  0
  5 15  1  0
  5 16  1  0
  6 20  1  0
  7 21  1  0
  7 22  1  0
  7 23  1  0
M  RAD  1   6   3
M  END
>  <reaction>  (17) 
rmg_rxn_28

>  <mol_properties>  (17) 
{"0": {"label": "*3", "atom_type": "Cs"}, "1": {"label": "*4", "atom_type": "Cs"}, "11": {"label": "*0", "atom_type": "Cs"}, "12": {"label": "*1", "atom_type": "Cs"}, "21": {"label": "*2", "atom_type": "H0"}}

>  <type>  (17) 
unop_13

>  <geom_source>  (17) 
AutoTST

$$$$

     RDKit          3D

 23 21  0  0  0  0  0  0  0  0999 V2000
   -0.9240    0.1791    1.6808 C   0  0  0  0  0  3  0  0  0  0  0  0
   -1.5584   -0.9274    0.9231 C   0  0  0  0  0  0  0  0  0  0  0  0
   -2.2473   -1.9592    1.8096 C   0  0  0  0  0  0  0  0  0  0  0  0
   -1.1996    0.3779    2.7086 H   0  0  0  0  0  0  0  0  0  0  0  0
   -2.2929   -0.5161    0.2137 H   0  0  0  0  0  0  0  0  0  0  0  0
   -0.8091   -1.4195    0.2918 H   0  0  0  0  0  0  0  0  0  0  0  0
   -3.0256   -1.4912    2.4163 H   0  0  0  0  0  0  0  0  0  0  0  0
   -1.5326   -2.4285    2.4882 H   0  0  0  0  0  0  0  0  0  0  0  0
   -2.7140   -2.7449    1.2138 H   0  0  0  0  0  0  0  0  0  0  0  0
    1.1811    0.0027   -2.8966 C   0  0  0  0  0  0  0  0  0  0  0  0
    1.1811    0.0027   -1.3739 C   0  0  0  0  0  0  0  0  0  0  0  0
    1.1811    1.4051   -0.7765 C   0  0  0  0  0  0  0  0  0  0  0  0
    1.1811    1.4051    0.7462 C   0  0  0  0  0  3  0  0  0  0  0  0
    2.0627    0.5160   -3.2880 H   0  0  0  0  0  0  0  0  0  0  0  0
    0.2996    0.5160   -3.2880 H   0  0  0  0  0  0  0  0  0  0  0  0
    1.1811   -1.0124   -3.2970 H   0  0  0  0  0  0  0  0  0  0  0  0
    0.3061   -0.5432   -1.0066 H   0  0  0  0  0  0  0  0  0  0  0  0
    2.0562   -0.5432   -1.0066 H   0  0  0  0  0  0  0  0  0  0  0  0
    0.3061    1.9509   -1.1439 H   0  0  0  0  0  0  0  0  0  0  0  0
    2.0562    1.9509   -1.1439 H   0  0  0  0  0  0  0  0  0  0  0  0
    2.0627    0.8917    1.1375 H   0  0  0  0  0  0  0  0  0  0  0  0
    0.1233    0.7890    1.2158 H   0  0  0  0  0  0  0  0  0  0  0  0
    1.1811    2.4202    1.1465 H   0  0  0  0  0  0  0  0  0  0  0  0
  1  2  1  0
  1  4  1  0
  1 22  1  0
  2  3  1  0
  2  5  1  0
  2  6  1  0
  3  7  1  0
  3  8  1  0
  3  9  1  0
 10 11  1  0
 10 14  1  0
 10 15  1  0
 10 16  1  0
 11 12  1  0
 11 17  1  0
 11 18  1  0
 12 13  1  0
 12 19  1  0
 12 20  1  0
 13 21  1  0
 13 23  1  0
M  RAD  2   1   2  13   2
M  END
>  <reaction>  (18) 
rmg_rxn_28

>  <mol_properties>  (18) 
{"0": {"label": "*3", "atom_type": "Cs"}, "1": {"label": "*4", "atom_type": "Cs"}, "11": {"label": "*0", "atom_type": "Cs"}, "12": {"label": "*1", "atom_type": "Cs"}, "21": {"label": "*2", "atom_type": "H0"}}

>  <type>  (18) 
unop_14

>  <geom_source>  (18) 
gaussian_log

$$$$
