
     RDKit          3D

  6  5  0  0  0  0  0  0  0  0999 V2000
   -0.4901    0.0045    0.0014 C   0  0  0  0  0  0  0  0  0  0  0  0
    0.9645   -0.0089   -0.0027 C   0  0  0  0  0  0  0  0  0  0  0  0
    2.1108   -0.0195   -0.0059 N   0  0  0  0  0  0  0  0  0  0  0  0
   -0.8700   -0.6407   -0.7900 H   0  0  0  0  0  0  0  0  0  0  0  0
   -0.8625   -0.3540    0.9604 H   0  0  0  0  0  0  0  0  0  0  0  0
   -0.8530    1.0185   -0.1631 H   0  0  0  0  0  0  0  0  0  0  0  0
  1  2  1  0
  1  4  1  0
  1  5  1  0
  1  6  1  0
  2  3  3  0
M  END
>  <reaction>  (1) 
rmg_rxn_201

>  <mol_properties>  (1) 
{"0": {"label": "donator", "atom_type": "Cs"}, "3": {"label": "d_hydrogen", "atom_type": "H0"}}

>  <type>  (1) 
r1h

$$$$

     RDKit          3D

 13 13  0  0  0  0  0  0  0  0999 V2000
   -1.1371    0.3608    0.3110 C   0  0  0  0  0  3  0  0  0  0  0  0
   -0.0045    1.3224    0.2943 C   0  0  0  0  0  0  0  0  0  0  0  0
    1.2245    0.6965    0.6137 O   0  0  0  0  0  0  0  0  0  0  0  0
    1.3926   -0.4921   -0.0955 C   0  0  0  0  0  0  0  0  0  0  0  0
    0.4387   -1.4537    0.2351 O   0  0  0  0  0  0  0  0  0  0  0  0
   -0.8659   -1.0349   -0.1206 C   0  0  0  0  0  0  0  0  0  0  0  0
   -2.1544    0.7285    0.3341 H   0  0  0  0  0  0  0  0  0  0  0  0
   -0.1488    2.1272    1.0165 H   0  0  0  0  0  0  0  0  0  0  0  0
    0.0825    1.7949   -0.7036 H   0  0  0  0  0  0  0  0  0  0  0  0
    1.3549   -0.2872   -1.1815 H   0  0  0  0  0  0  0  0  0  0  0  0
    2.3646   -0.8956    0.1787 H   0  0  0  0  0  0  0  0  0  0  0  0
   -1.5620   -1.7401    0.3358 H   0  0  0  0  0  0  0  0  0  0  0  0
   -0.9852   -1.1268   -1.2179 H   0  0  0  0  0  0  0  0  0  0  0  0
  1  2  1  0
  1  6  1  0
  1  7  1  0
  2  3  1  0
  2  8  1  0
  2  9  1  0
  3  4  1  0
  4  5  1  0
  4 10  1  0
  4 11  1  0
  5  6  1  0
  6 12  1  0
  6 13  1  0
M  RAD  1   1   2
M  END
>  <reaction>  (2) 
rmg_rxn_201

>  <mol_properties>  (2) 
{"0": {"label": "acceptor", "atom_type": "Cs"}}

>  <type>  (2) 
r2

$$$$

     RDKit          3D

 14 14  0  0  0  0  0  0  0  0999 V2000
   -1.1778    0.2241    0.1818 C   0  0  0  0  0  0  0  0  0  0  0  0
   -0.5633   -1.1636    0.0678 C   0  0  0  0  0  0  0  0  0  0  0  0
    0.6943   -1.1996    0.7146 O   0  0  0  0  0  0  0  0  0  0  0  0
    1.5547   -0.2288    0.2011 C   0  0  0  0  0  0  0  0  0  0  0  0
    1.0729    1.0696    0.3698 O   0  0  0  0  0  0  0  0  0  0  0  0
   -0.1607    1.2493   -0.2989 C   0  0  0  0  0  0  0  0  0  0  0  0
   -2.0927    0.2866   -0.4117 H   0  0  0  0  0  0  0  0  0  0  0  0
   -1.4303    0.4248    1.2248 H   0  0  0  0  0  0  0  0  0  0  0  0
   -1.1822   -1.9235    0.5431 H   0  0  0  0  0  0  0  0  0  0  0  0
   -0.4389   -1.4347   -0.9919 H   0  0  0  0  0  0  0  0  0  0  0  0
    1.7250   -0.4207   -0.8742 H   0  0  0  0  0  0  0  0  0  0  0  0
    2.4896   -0.3010    0.7524 H   0  0  0  0  0  0  0  0  0  0  0  0
   -0.0080    1.1481   -1.3844 H   0  0  0  0  0  0  0  0  0  0  0  0
   -0.4826    2.2695   -0.0942 H   0  0  0  0  0  0  0  0  0  0  0  0
  1  2  1  0
  1  6  1  0
  1  7  1  0
  1  8  1  0
  2  3  1  0
  2  9  1  0
  2 10  1  0
  3  4  1  0
  4  5  1  0
  4 11  1  0
  4 12  1  0
  5  6  1  0
  6 13  1  0
  6 14  1  0
M  END
>  <reaction>  (3) 
rmg_rxn_201

>  <mol_properties>  (3) 
{"0": {"label": "a_hydrogen", "atom_type": "H0"}, "1": {"label": "acceptor", "atom_type": "Cs"}}

>  <type>  (3) 
r2h

$$$$

     RDKit          3D

 19 18  0  0  0  0  0  0  0  0999 V2000
    1.4714    2.1001   -0.3404 C   0  0  0  0  0  0  0  0  0  0  0  0
    2.0004    1.2666   -1.3707 C   0  0  0  0  0  0  0  0  0  0  0  0
    2.3809    0.5380   -2.1767 N   0  0  0  0  0  0  0  0  0  0  0  0
    0.5842    1.3498    0.3078 H   0  0  0  0  0  0  0  0  0  0  0  0
    2.1991    2.3775    0.4168 H   0  0  0  0  0  0  0  0  0  0  0  0
    0.8965    2.9441   -0.7104 H   0  0  0  0  0  0  0  0  0  0  0  0
   -0.2850    0.4720    0.8709 C   0  0  0  0  0  3  0  0  0  0  0  0
   -1.2312    0.0736   -0.2352 C   0  0  0  0  0  0  0  0  0  0  0  0
   -1.9636   -1.0753    0.1622 O   0  0  0  0  0  0  0  0  0  0  0  0
   -1.1065   -2.1198    0.5175 C   0  0  0  0  0  0  0  0  0  0  0  0
   -0.2929   -1.8020    1.6080 O   0  0  0  0  0  0  0  0  0  0  0  0
    0.5543   -0.7030    1.3099 C   0  0  0  0  0  0  0  0  0  0  0  0
   -0.7479    1.0268    1.6848 H   0  0  0  0  0  0  0  0  0  0  0  0
   -1.9603    0.8511   -0.4565 H   0  0  0  0  0  0  0  0  0  0  0  0
   -0.6657   -0.1493   -1.1521 H   0  0  0  0  0  0  0  0  0  0  0  0
   -0.4757   -2.3898   -0.3471 H   0  0  0  0  0  0  0  0  0  0  0  0
   -1.7296   -2.9598    0.8154 H   0  0  0  0  0  0  0  0  0  0  0  0
    1.2550   -0.9847    0.5100 H   0  0  0  0  0  0  0  0  0  0  0  0
    1.1241   -0.4905    2.2127 H   0  0  0  0  0  0  0  0  0  0  0  0
  1  2  1  0
  1  4  1  0
  1  5  1  0
  1  6  1  0
  2  3  3  0
  7  8  1  0
  7 12  1  0
  7 13  1  0
  8  9  1  0
  8 14  1  0
  8 15  1  0
  9 10  1  0
 10 11  1  0
 10 16  1  0
 10 17  1  0
 11 12  1  0
 12 18  1  0
 12 19  1  0
M  RAD  1   7   2
M  END
>  <reaction>  (4) 
rmg_rxn_201

>  <mol_properties>  (4) 
{"0": {"label": "*1", "atom_type": "Cs"}, "1": {"label": "*0", "atom_type": "Ct"}, "3": {"label": "*2", "atom_type": "H0"}, "6": {"label": "*3", "atom_type": "Cs"}, "7": {"label": "*4", "atom_type": "Cs"}}

>  <type>  (4) 
ts

$$$$

     RDKit          3D

 19 18  0  0  0  0  0  0  0  0999 V2000
    1.3884    1.0861   -1.1988 C   0  0  0  0  0  0  0  0  0  0  0  0
    1.3884    1.0861   -2.6535 C   0  0  0  0  0  0  0  0  0  0  0  0
    1.3884    1.0861   -3.7999 N   0  0  0  0  0  0  0  0  0  0  0  0
    0.4354    0.3102   -0.7528 H   0  0  0  0  0  0  0  0  0  0  0  0
    2.3455    0.7215   -0.8271 H   0  0  0  0  0  0  0  0  0  0  0  0
    1.2257    2.0971   -0.8271 H   0  0  0  0  0  0  0  0  0  0  0  0
   -0.5201   -0.4677   -0.3055 C   0  0  0  0  0  3  0  0  0  0  0  0
    0.0603   -1.5875    0.5463 C   0  0  0  0  0  0  0  0  0  0  0  0
   -0.6845   -1.7345    1.7400 O   0  0  0  0  0  0  0  0  0  0  0  0
   -0.7342   -0.5376    2.4553 C   0  0  0  0  0  0  0  0  0  0  0  0
   -1.3462    0.4957    1.7453 O   0  0  0  0  0  0  0  0  0  0  0  0
   -0.6433    0.7839    0.5518 C   0  0  0  0  0  0  0  0  0  0  0  0
   -1.5086   -0.7601   -0.6651 H   0  0  0  0  0  0  0  0  0  0  0  0
    0.0253   -2.5484    0.0347 H   0  0  0  0  0  0  0  0  0  0  0  0
    1.1102   -1.3674    0.7935 H   0  0  0  0  0  0  0  0  0  0  0  0
    0.2913   -0.2340    2.7350 H   0  0  0  0  0  0  0  0  0  0  0  0
   -1.3331   -0.7174    3.3453 H   0  0  0  0  0  0  0  0  0  0  0  0
    0.3571    1.1709    0.7994 H   0  0  0  0  0  0  0  0  0  0  0  0
   -1.1974    1.5724    0.0443 H   0  0  0  0  0  0  0  0  0  0  0  0
  1  2  1  0
  1  4  1  0
  1  5  1  0
  1  6  1  0
  2  3  3  0
  7  8  1  0
  7 12  1  0
  7 13  1  0
  8  9  1  0
  8 14  1  0
  8 15  1  0
  9 10  1  0
 10 11  1  0
 10 16  1  0
 10 17  1  0
 11 12  1  0
 12 18  1  0
 12 19  1  0
M  RAD  1   7   2
M  END
>  <reaction>  (5) 
rmg_rxn_201

>  <mol_properties>  (5) 
{"0": {"label": "*1", "atom_type": "Cs"}, "1": {"label": "*0", "atom_type": "Ct"}, "3": {"label": "*2", "atom_type": "H0"}, "6": {"label": "*3", "atom_type": "Cs"}, "7": {"label": "*4", "atom_type": "Cs"}}

>  <type>  (5) 
unop_1

>  <geom_source>  (5) 
Heuristics

$$$$

     RDKit          3D

 19 18  0  0  0  0  0  0  0  0999 V2000
    1.3196    2.0257   -0.4718 C   0  0  0  0  0  0  0  0  0  0  0  0
    1.3196    2.0257   -1.9264 C   0  0  0  0  0  0  0  0  0  0  0  0
    1.3196    2.0257   -3.0729 N   0  0  0  0  0  0  0  0  0  0  0  0
    0.3666    1.2499   -0.0257 H   0  0  0  0  0  0  0  0  0  0  0  0
    2.2766    1.6612   -0.1001 H   0  0  0  0  0  0  0  0  0  0  0  0
    1.1568    3.0368   -0.1001 H   0  0  0  0  0  0  0  0  0  0  0  0
   -0.5890    0.4720    0.4216 C   0  0  0  0  0  3  0  0  0  0  0  0
   -0.8535   -0.6627   -0.5577 C   0  0  0  0  0  0  0  0  0  0  0  0
   -1.4260   -1.7687    0.1136 O   0  0  0  0  0  0  0  0  0  0  0  0
   -0.6156   -2.1959    1.1659 C   0  0  0  0  0  0  0  0  0  0  0  0
   -0.4232   -1.2139    2.1380 O   0  0  0  0  0  0  0  0  0  0  0  0
    0.2128   -0.0729    1.5950 C   0  0  0  0  0  0  0  0  0  0  0  0
   -1.5397    0.8677    0.7841 H   0  0  0  0  0  0  0  0  0  0  0  0
   -1.5555   -0.3720   -1.3380 H   0  0  0  0  0  0  0  0  0  0  0  0
    0.0870   -0.9721   -1.0388 H   0  0  0  0  0  0  0  0  0  0  0  0
    0.3649   -2.5159    0.7679 H   0  0  0  0  0  0  0  0  0  0  0  0
   -1.1216   -3.0309    1.6453 H   0  0  0  0  0  0  0  0  0  0  0  0
    1.2284   -0.3407    1.2653 H   0  0  0  0  0  0  0  0  0  0  0  0
    0.2974    0.6530    2.4026 H   0  0  0  0  0  0  0  0  0  0  0  0
  1  2  1  0
  1  4  1  0
  1  5  1  0
  1  6  1  0
  2  3  3  0
  7  8  1  0
  7 12  1  0
  7 13  1  0
  8  9  1  0
  8 14  1  0
  8 15  1  0
  9 10  1  0
 10 11  1  0
 10 16  1  0
 10 17  1  0
 11 12  1  0
 12 18  1  0
 12 19  1  0
M  RAD  1   7   2
M  END
>  <reaction>  (6) 
rmg_rxn_201

>  <mol_properties>  (6) 
{"0": {"label": "*1", "atom_type": "Cs"}, "1": {"label": "*0", "atom_type": "Ct"}, "3": {"label": "*2", "atom_type": "H0"}, "6": {"label": "*3", "atom_type": "Cs"}, "7": {"label": "*4", "atom_type": "Cs"}}

>  <type>  (6) 
unop_2

>  <geom_source>  (6) 
Heuristics

$$$$

     RDKit          3D

 19 18  0  0  0  0  0  0  0  0999 V2000
    1.8157    0.8875   -1.0436 C   0  0  0  0  0  0  0  0  0  0  0  0
    1.8157    0.8875   -2.4982 C   0  0  0  0  0  0  0  0  0  0  0  0
    1.8157    0.8875   -3.6447 N   0  0  0  0  0  0  0  0  0  0  0  0
    0.8626    0.1116   -0.5975 H   0  0  0  0  0  0  0  0  0  0  0  0
    2.7727    0.5229   -0.6719 H   0  0  0  0  0  0  0  0  0  0  0  0
    1.6529    1.8985   -0.6719 H   0  0  0  0  0  0  0  0  0  0  0  0
   -0.0929   -0.6662   -0.1502 C   0  0  0  0  0  3  0  0  0  0  0  0
    0.2961   -1.2689    1.1922 C   0  0  0  0  0  0  0  0  0  0  0  0
   -0.8430   -1.4025    2.0203 O   0  0  0  0  0  0  0  0  0  0  0  0
   -1.4899   -0.1782    2.1913 C   0  0  0  0  0  0  0  0  0  0  0  0
   -1.9486    0.3671    0.9919 O   0  0  0  0  0  0  0  0  0  0  0  0
   -0.8795    0.6128    0.0985 C   0  0  0  0  0  0  0  0  0  0  0  0
   -0.7162   -1.3747   -0.6993 H   0  0  0  0  0  0  0  0  0  0  0  0
    0.7230   -2.2650    1.0831 H   0  0  0  0  0  0  0  0  0  0  0  0
    1.0397   -0.6287    1.6912 H   0  0  0  0  0  0  0  0  0  0  0  0
   -0.8018    0.5357    2.6800 H   0  0  0  0  0  0  0  0  0  0  0  0
   -2.3601   -0.3571    2.8189 H   0  0  0  0  0  0  0  0  0  0  0  0
   -0.2187    1.3854    0.5207 H   0  0  0  0  0  0  0  0  0  0  0  0
   -1.3199    1.0048   -0.8172 H   0  0  0  0  0  0  0  0  0  0  0  0
  1  2  1  0
  1  4  1  0
  1  5  1  0
  1  6  1  0
  2  3  3  0
  7  8  1  0
  7 12  1  0
  7 13  1  0
  8  9  1  0
  8 14  1  0
  8 15  1  0
  9 10  1  0
 10 11  1  0
 10 16  1  0
 10 17  1  0
 11 12  1  0
 12 18  1  0
 12 19  1  0
M  RAD  1   7   2
M  END
>  <reaction>  (7) 
rmg_rxn_201

>  <mol_properties>  (7) 
{"0": {"label": "*1", "atom_type": "Cs"}, "1": {"label": "*0", "atom_type": "Ct"}, "3": {"label": "*2", "atom_type": "H0"}, "6": {"label": "*3", "atom_type": "Cs"}, "7": {"label": "*4", "atom_type": "Cs"}}

>  <type>  (7) 
unop_3

>  <geom_source>  (7) 
Heuristics

$$$$

     RDKit          3D

 19 18  0  0  0  0  0  0  0  0999 V2000
    2.1612    1.5320   -0.4077 C   0  0  0  0  0  0  0  0  0  0  0  0
    2.1612    1.5320   -1.8624 C   0  0  0  0  0  0  0  0  0  0  0  0
    2.1612    1.5320   -3.0088 N   0  0  0  0  0  0  0  0  0  0  0  0
    1.2082    0.7562    0.0383 H   0  0  0  0  0  0  0  0  0  0  0  0
    3.1182    1.1675   -0.0361 H   0  0  0  0  0  0  0  0  0  0  0  0
    1.9984    2.5431   -0.0360 H   0  0  0  0  0  0  0  0  0  0  0  0
    0.2526   -0.0217    0.4856 C   0  0  0  0  0  3  0  0  0  0  0  0
   -1.1036    0.4667   -0.0030 C   0  0  0  0  0  0  0  0  0  0  0  0
   -2.1255    0.0462    0.8803 O   0  0  0  0  0  0  0  0  0  0  0  0
   -2.1204   -1.3403    1.0356 C   0  0  0  0  0  0  0  0  0  0  0  0
   -0.9264   -1.8235    1.5716 O   0  0  0  0  0  0  0  0  0  0  0  0
    0.1716   -1.5214    0.7321 C   0  0  0  0  0  0  0  0  0  0  0  0
    0.5070    0.4862    1.4179 H   0  0  0  0  0  0  0  0  0  0  0  0
   -1.1538    1.5538   -0.0457 H   0  0  0  0  0  0  0  0  0  0  0  0
   -1.3049    0.0731   -1.0112 H   0  0  0  0  0  0  0  0  0  0  0  0
   -2.3044   -1.8203    0.0569 H   0  0  0  0  0  0  0  0  0  0  0  0
   -2.9140   -1.5902    1.7363 H   0  0  0  0  0  0  0  0  0  0  0  0
    0.0600   -2.0549   -0.2243 H   0  0  0  0  0  0  0  0  0  0  0  0
    1.0619   -1.9008    1.2317 H   0  0  0  0  0  0  0  0  0  0  0  0
  1  2  1  0
  1  4  1  0
  1  5  1  0
  1  6  1  0
  2  3  3  0
  7  8  1  0
  7 12  1  0
  7 13  1  0
  8  9  1  0
  8 14  1  0
  8 15  1  0
  9 10  1  0
 10 11  1  0
 10 16  1  0
 10 17  1  0
 11 12  1  0
 12 18  1  0
 12 19  1  0
M  RAD  1   7   2
M  END
>  <reaction>  (8) 
rmg_rxn_201

>  <mol_properties>  (8) 
{"0": {"label": "*1", "atom_type": "Cs"}, "1": {"label": "*0", "atom_type": "Ct"}, "3": {"label": "*2", "atom_type": "H0"}, "6": {"label": "*3", "atom_type": "Cs"}, "7": {"label": "*4", "atom_type": "Cs"}}

>  <type>  (8) 
unop_4

>  <geom_source>  (8) 
Heuristics

$$$$

     RDKit          3D

 19 18  0  0  0  0  0  0  0  0999 V2000
    2.1431    1.1443   -0.7379 C   0  0  0  0  0  0  0  0  0  0  0  0
    2.1431    1.1443   -2.1925 C   0  0  0  0  0  0  0  0  0  0  0  0
    2.1431    1.1443   -3.3390 N   0  0  0  0  0  0  0  0  0  0  0  0
    1.1901    0.3685   -0.2918 H   0  0  0  0  0  0  0  0  0  0  0  0
    3.1002    0.7798   -0.3662 H   0  0  0  0  0  0  0  0  0  0  0  0
    1.9804    2.1554   -0.3662 H   0  0  0  0  0  0  0  0  0  0  0  0
    0.2346   -0.4094    0.1555 C   0  0  0  0  0  3  0  0  0  0  0  0
    0.2240   -0.4180    1.6775 C   0  0  0  0  0  0  0  0  0  0  0  0
   -0.8953   -1.1376    2.1578 O   0  0  0  0  0  0  0  0  0  0  0  0
   -2.0865   -0.6153    1.6531 C   0  0  0  0  0  0  0  0  0  0  0  0
   -2.1601   -0.6744    0.2612 O   0  0  0  0  0  0  0  0  0  0  0  0
   -1.1210    0.0746   -0.3393 C   0  0  0  0  0  0  0  0  0  0  0  0
    0.4149   -1.4215   -0.2120 H   0  0  0  0  0  0  0  0  0  0  0  0
    1.1084   -0.9031    2.0882 H   0  0  0  0  0  0  0  0  0  0  0  0
    0.1887    0.6137    2.0598 H   0  0  0  0  0  0  0  0  0  0  0  0
   -2.1959    0.4343    1.9825 H   0  0  0  0  0  0  0  0  0  0  0  0
   -2.8983   -1.2232    2.0461 H   0  0  0  0  0  0  0  0  0  0  0  0
   -1.2510    1.1410   -0.0989 H   0  0  0  0  0  0  0  0  0  0  0  0
   -1.2287   -0.0471   -1.4162 H   0  0  0  0  0  0  0  0  0  0  0  0
  1  2  1  0
  1  4  1  0
  1  5  1  0
  1  6  1  0
  2  3  3  0
  7  8  1  0
  7 12  1  0
  7 13  1  0
  8  9  1  0
  8 14  1  0
  8 15  1  0
  9 10  1  0
 10 11  1  0
 10 16  1  0
 10 17  1  0
 11 12  1  0
 12 18  1  0
 12 19  1  0
M  RAD  1   7   2
M  END
>  <reaction>  (9) 
rmg_rxn_201

>  <mol_properties>  (9) 
{"0": {"label": "*1", "atom_type": "Cs"}, "1": {"label": "*0", "atom_type": "Ct"}, "3": {"label": "*2", "atom_type": "H0"}, "6": {"label": "*3", "atom_type": "Cs"}, "7": {"label": "*4", "atom_type": "Cs"}}

>  <type>  (9) 
unop_5

>  <geom_source>  (9) 
Heuristics

$$$$

     RDKit          3D

 19 18  0  0  0  0  0  0  0  0999 V2000
    2.1289    1.4497   -0.6093 C   0  0  0  0  0  0  0  0  0  0  0  0
    2.1289    1.4497   -2.0640 C   0  0  0  0  0  0  0  0  0  0  0  0
    2.1289    1.4497   -3.2104 N   0  0  0  0  0  0  0  0  0  0  0  0
    1.1759    0.6739   -0.1633 H   0  0  0  0  0  0  0  0  0  0  0  0
    3.0860    1.0852   -0.2377 H   0  0  0  0  0  0  0  0  0  0  0  0
    1.9662    2.4608   -0.2376 H   0  0  0  0  0  0  0  0  0  0  0  0
    0.2204   -0.1040    0.2840 C   0  0  0  0  0  3  0  0  0  0  0  0
   -1.0678    0.6861    0.4656 C   0  0  0  0  0  0  0  0  0  0  0  0
   -1.8104    0.1731    1.5550 O   0  0  0  0  0  0  0  0  0  0  0  0
   -2.0775   -1.1861    1.3892 C   0  0  0  0  0  0  0  0  0  0  0  0
   -0.9210   -1.9627    1.3128 O   0  0  0  0  0  0  0  0  0  0  0  0
   -0.1221   -1.5851    0.2080 C   0  0  0  0  0  0  0  0  0  0  0  0
    0.8782    0.0732    1.1371 H   0  0  0  0  0  0  0  0  0  0  0  0
   -0.8746    1.7355    0.6843 H   0  0  0  0  0  0  0  0  0  0  0  0
   -1.6754    0.6318   -0.4508 H   0  0  0  0  0  0  0  0  0  0  0  0
   -2.6797   -1.3331    0.4738 H   0  0  0  0  0  0  0  0  0  0  0  0
   -2.6314   -1.5161    2.2652 H   0  0  0  0  0  0  0  0  0  0  0  0
   -0.6631   -1.7992   -0.7265 H   0  0  0  0  0  0  0  0  0  0  0  0
    0.7687   -2.2111    0.2367 H   0  0  0  0  0  0  0  0  0  0  0  0
  1  2  1  0
  1  4  1  0
  1  5  1  0
  1  6  1  0
  2  3  3  0
  7  8  1  0
  7 12  1  0
  7 13  1  0
  8  9  1  0
  8 14  1  0
  8 15  1  0
  9 10  1  0
 10 11  1  0
 10 16  1  0
 10 17  1  0
 11 12  1  0
 12 18  1  0
 12 19  1  0
M  RAD  1   7   2
M  END
>  <reaction>  (10) 
rmg_rxn_201

>  <mol_properties>  (10) 
{"0": {"label": "*1", "atom_type": "Cs"}, "1": {"label": "*0", "atom_type": "Ct"}, "3": {"label": "*2", "atom_type": "H0"}, "6": {"label": "*3", "atom_type": "Cs"}, "7": {"label": "*4", "atom_type": "Cs"}}

>  <type>  (10) 
unop_6

>  <geom_source>  (10) 
Heuristics

$$$$

     RDKit          3D

 19 18  0  0  0  0  0  0  0  0999 V2000
    2.0552    1.4845   -0.7052 C   0  0  0  0  0  0  0  0  0  0  0  0
    2.0552    1.4845   -2.1598 C   0  0  0  0  0  0  0  0  0  0  0  0
    2.0552    1.4845   -3.3063 N   0  0  0  0  0  0  0  0  0  0  0  0
    1.1022    0.7086   -0.2591 H   0  0  0  0  0  0  0  0  0  0  0  0
    3.0123    1.1199   -0.3335 H   0  0  0  0  0  0  0  0  0  0  0  0
    1.8925    2.4955   -0.3335 H   0  0  0  0  0  0  0  0  0  0  0  0
    0.1467   -0.0692    0.1882 C   0  0  0  0  0  3  0  0  0  0  0  0
   -0.8322    0.7263    1.0399 C   0  0  0  0  0  0  0  0  0  0  0  0
   -1.3537   -0.0834    2.0762 O   0  0  0  0  0  0  0  0  0  0  0  0
   -1.9567   -1.2328    1.5646 C   0  0  0  0  0  0  0  0  0  0  0  0
   -1.0700   -2.0422    0.8538 O   0  0  0  0  0  0  0  0  0  0  0  0
   -0.5305   -1.3566   -0.2599 C   0  0  0  0  0  0  0  0  0  0  0  0
    1.0305   -0.3114    0.7814 H   0  0  0  0  0  0  0  0  0  0  0  0
   -0.3548    1.5799    1.5192 H   0  0  0  0  0  0  0  0  0  0  0  0
   -1.6580    1.0999    0.4152 H   0  0  0  0  0  0  0  0  0  0  0  0
   -2.7982   -0.9449    0.9080 H   0  0  0  0  0  0  0  0  0  0  0  0
   -2.3168   -1.8132    2.4111 H   0  0  0  0  0  0  0  0  0  0  0  0
   -1.3351   -1.1295   -0.9761 H   0  0  0  0  0  0  0  0  0  0  0  0
    0.1694   -2.0395   -0.7394 H   0  0  0  0  0  0  0  0  0  0  0  0
  1  2  1  0
  1  4  1  0
  1  5  1  0
  1  6  1  0
  2  3  3  0
  7  8  1  0
  7 12  1  0
  7 13  1  0
  8  9  1  0
  8 14  1  0
  8 15  1  0
  9 10  1  0
 10 11  1  0
 10 16  1  0
 10 17  1  0
 11 12  1  0
 12 18  1  0
 12 19  1  0
M  RAD  1   7   2
M  END
>  <reaction>  (11) 
rmg_rxn_201

>  <mol_properties>  (11) 
{"0": {"label": "*1", "atom_type": "Cs"}, "1": {"label": "*0", "atom_type": "Ct"}, "3": {"label": "*2", "atom_type": "H0"}, "6": {"label": "*3", "atom_type": "Cs"}, "7": {"label": "*4", "atom_type": "Cs"}}

>  <type>  (11) 
unop_7

>  <geom_source>  (11) 
Heuristics

$$$$

     RDKit          3D

 19 18  0  0  0  0  0  0  0  0999 V2000
    1.1290    1.4675   -1.1001 C   0  0  0  0  0  0  0  0  0  0  0  0
    1.1290    1.4675   -2.5548 C   0  0  0  0  0  0  0  0  0  0  0  0
    1.1290    1.4675   -3.7012 N   0  0  0  0  0  0  0  0  0  0  0  0
    0.1760    0.6917   -0.6540 H   0  0  0  0  0  0  0  0  0  0  0  0
    2.0860    1.1030   -0.7284 H   0  0  0  0  0  0  0  0  0  0  0  0
    0.9662    2.4786   -0.7284 H   0  0  0  0  0  0  0  0  0  0  0  0
   -0.7795   -0.0862   -0.2068 C   0  0  0  0  0  3  0  0  0  0  0  0
   -0.2672   -1.5078   -0.0252 C   0  0  0  0  0  0  0  0  0  0  0  0
   -0.6896   -2.0278    1.2208 O   0  0  0  0  0  0  0  0  0  0  0  0
   -0.2794   -1.2108    2.2747 C   0  0  0  0  0  0  0  0  0  0  0  0
   -0.8042    0.0797    2.1990 O   0  0  0  0  0  0  0  0  0  0  0  0
   -0.3890    0.7332    1.0150 C   0  0  0  0  0  0  0  0  0  0  0  0
   -1.8671   -0.1015   -0.3011 H   0  0  0  0  0  0  0  0  0  0  0  0
   -0.6505   -2.1800   -0.7916 H   0  0  0  0  0  0  0  0  0  0  0  0
    0.8325   -1.5211   -0.0747 H   0  0  0  0  0  0  0  0  0  0  0  0
    0.8247   -1.1580    2.2902 H   0  0  0  0  0  0  0  0  0  0  0  0
   -0.6512   -1.6577    3.1940 H   0  0  0  0  0  0  0  0  0  0  0  0
    0.7021    0.8776    1.0387 H   0  0  0  0  0  0  0  0  0  0  0  0
   -0.8623    1.7141    1.0159 H   0  0  0  0  0  0  0  0  0  0  0  0
  1  2  1  0
  1  4  1  0
  1  5  1  0
  1  6  1  0
  2  3  3  0
  7  8  1  0
  7 12  1  0
  7 13  1  0
  8  9  1  0
  8 14  1  0
  8 15  1  0
  9 10  1  0
 10 11  1  0
 10 16  1  0
 10 17  1  0
 11 12  1  0
 12 18  1  0
 12 19  1  0
M  RAD  1   7   2
M  END
>  <reaction>  (12) 
rmg_rxn_201

>  <mol_properties>  (12) 
{"0": {"label": "*1", "atom_type": "Cs"}, "1": {"label": "*0", "atom_type": "Ct"}, "3": {"label": "*2", "atom_type": "H0"}, "6": {"label": "*3", "atom_type": "Cs"}, "7": {"label": "*4", "atom_type": "Cs"}}

>  <type>  (12) 
unop_8

>  <geom_source>  (12) 
Heuristics

$$$$

     RDKit          3D

 19 18  0  0  0  0  0  0  0  0999 V2000
    2.0268    1.7521   -0.2305 C   0  0  0  0  0  0  0  0  0  0  0  0
    2.0268    1.7521   -1.6851 C   0  0  0  0  0  0  0  0  0  0  0  0
    2.0268    1.7521   -2.8315 N   0  0  0  0  0  0  0  0  0  0  0  0
    1.0738    0.9763    0.2156 H   0  0  0  0  0  0  0  0  0  0  0  0
    2.9838    1.3876    0.1412 H   0  0  0  0  0  0  0  0  0  0  0  0
    1.8640    2.7632    0.1413 H   0  0  0  0  0  0  0  0  0  0  0  0
    0.1182    0.1984    0.6629 C   0  0  0  0  0  3  0  0  0  0  0  0
   -1.0466    0.1696   -0.3164 C   0  0  0  0  0  0  0  0  0  0  0  0
   -2.1740   -0.4445    0.2779 O   0  0  0  0  0  0  0  0  0  0  0  0
   -1.8702   -1.7288    0.7304 C   0  0  0  0  0  0  0  0  0  0  0  0
   -0.8692   -1.7408    1.7022 O   0  0  0  0  0  0  0  0  0  0  0  0
    0.3409   -1.2089    1.1982 C   0  0  0  0  0  0  0  0  0  0  0  0
   -0.1204    0.8683    1.4912 H   0  0  0  0  0  0  0  0  0  0  0  0
   -1.3548    1.1714   -0.6123 H   0  0  0  0  0  0  0  0  0  0  0  0
   -0.7622   -0.3851   -1.2238 H   0  0  0  0  0  0  0  0  0  0  0  0
   -1.5589   -2.3557   -0.1253 H   0  0  0  0  0  0  0  0  0  0  0  0
   -2.7706   -2.1317    1.1886 H   0  0  0  0  0  0  0  0  0  0  0  0
    0.7228   -1.8605    0.3974 H   0  0  0  0  0  0  0  0  0  0  0  0
    1.0561   -1.2239    2.0195 H   0  0  0  0  0  0  0  0  0  0  0  0
  1  2  1  0
  1  4  1  0
  1  5  1  0
  1  6  1  0
  2  3  3  0
  7  8  1  0
  7 12  1  0
  7 13  1  0
  8  9  1  0
  8 14  1  0
  8 15  1  0
  9 10  1  0
 10 11  1  0
 10 16  1  0
 10 17  1  0
 11 12  1  0
 12 18  1  0
 12 19  1  0
M  RAD  1   7   2
M  END
>  <reaction>  (13) 
rmg_rxn_201

>  <mol_properties>  (13) 
{"0": {"label": "*1", "atom_type": "Cs"}, "1": {"label": "*0", "atom_type": "Ct"}, "3": {"label": "*2", "atom_type": "H0"}, "6": {"label": "*3", "atom_type": "Cs"}, "7": {"label": "*4", "atom_type": "Cs"}}

>  <type>  (13) 
unop_9

>  <geom_source>  (13) 
Heuristics

$$$$

     RDKit          3D

 19 18  0  0  0  0  0  0  0  0999 V2000
    1.1019    1.8262   -0.8160 C   0  0  0  0  0  0  0  0  0  0  0  0
    1.1019    1.8262   -2.2707 C   0  0  0  0  0  0  0  0  0  0  0  0
    1.1019    1.8262   -3.4171 N   0  0  0  0  0  0  0  0  0  0  0  0
    0.1489    1.0504   -0.3699 H   0  0  0  0  0  0  0  0  0  0  0  0
    2.0590    1.4617   -0.4443 H   0  0  0  0  0  0  0  0  0  0  0  0
    0.9392    2.8373   -0.4443 H   0  0  0  0  0  0  0  0  0  0  0  0
   -0.8066    0.2725    0.0773 C   0  0  0  0  0  3  0  0  0  0  0  0
   -0.6035   -1.1546   -0.4113 C   0  0  0  0  0  0  0  0  0  0  0  0
   -0.9557   -2.0766    0.6023 O   0  0  0  0  0  0  0  0  0  0  0  0
   -0.2330   -1.8418    1.7723 C   0  0  0  0  0  0  0  0  0  0  0  0
   -0.4627   -0.5746    2.3089 O   0  0  0  0  0  0  0  0  0  0  0  0
   -0.0793    0.4425    1.4035 C   0  0  0  0  0  0  0  0  0  0  0  0
   -1.8727    0.4586    0.2215 H   0  0  0  0  0  0  0  0  0  0  0  0
   -1.2286   -1.3827   -1.2736 H   0  0  0  0  0  0  0  0  0  0  0  0
    0.4480   -1.3084   -0.6983 H   0  0  0  0  0  0  0  0  0  0  0  0
    0.8466   -1.9640    1.5680 H   0  0  0  0  0  0  0  0  0  0  0  0
   -0.5648   -2.5700    2.5090 H   0  0  0  0  0  0  0  0  0  0  0  0
    1.0091    0.4010    1.2442 H   0  0  0  0  0  0  0  0  0  0  0  0
   -0.3177    1.3925    1.8799 H   0  0  0  0  0  0  0  0  0  0  0  0
  1  2  1  0
  1  4  1  0
  1  5  1  0
  1  6  1  0
  2  3  3  0
  7  8  1  0
  7 12  1  0
  7 13  1  0
  8  9  1  0
  8 14  1  0
  8 15  1  0
  9 10  1  0
 10 11  1  0
 10 16  1  0
 10 17  1  0
 11 12  1  0
 12 18  1  0
 12 19  1  0
M  RAD  1   7   2
M  END
>  <reaction>  (14) 
rmg_rxn_201

>  <mol_properties>  (14) 
{"0": {"label": "*1", "atom_type": "Cs"}, "1": {"label": "*0", "atom_type": "Ct"}, "3": {"label": "*2", "atom_type": "H0"}, "6": {"label": "*3", "atom_type": "Cs"}, "7": {"label": "*4", "atom_type": "Cs"}}

>  <type>  (14) 
unop_10

>  <geom_source>  (14) 
Heuristics

$$$$

     RDKit          3D

 19 18  0  0  0  0  0  0  0  0999 V2000
    2.0826    1.4709   -0.6741 C   0  0  0  0  0  0  0  0  0  0  0  0
    2.0826    1.4709   -2.1287 C   0  0  0  0  0  0  0  0  0  0  0  0
    2.0826    1.4709   -3.2752 N   0  0  0  0  0  0  0  0  0  0  0  0
    1.1296    0.6951   -0.2280 H   0  0  0  0  0  0  0  0  0  0  0  0
    3.0396    1.1064   -0.3024 H   0  0  0  0  0  0  0  0  0  0  0  0
    1.9198    2.4820   -0.3024 H   0  0  0  0  0  0  0  0  0  0  0  0
    0.1740   -0.0828    0.2193 C   0  0  0  0  0  3  0  0  0  0  0  0
   -0.3372    0.4204    1.5617 C   0  0  0  0  0  0  0  0  0  0  0  0
   -0.9688   -0.6275    2.2719 O   0  0  0  0  0  0  0  0  0  0  0  0
   -2.0019   -1.1937    1.5246 C   0  0  0  0  0  0  0  0  0  0  0  0
   -1.5622   -1.7533    0.3246 O   0  0  0  0  0  0  0  0  0  0  0  0
   -0.9682   -0.7767   -0.5090 C   0  0  0  0  0  0  0  0  0  0  0  0
    0.9854   -0.7945    0.3835 H   0  0  0  0  0  0  0  0  0  0  0  0
    0.4707    0.7855    2.1943 H   0  0  0  0  0  0  0  0  0  0  0  0
   -1.0525    1.2429    1.4080 H   0  0  0  0  0  0  0  0  0  0  0  0
   -2.7664   -0.4238    1.3125 H   0  0  0  0  0  0  0  0  0  0  0  0
   -2.4281   -1.9983    2.1196 H   0  0  0  0  0  0  0  0  0  0  0  0
   -1.7279   -0.0384   -0.8083 H   0  0  0  0  0  0  0  0  0  0  0  0
   -0.6258   -1.2947   -1.4038 H   0  0  0  0  0  0  0  0  0  0  0  0
  1  2  1  0
  1  4  1  0
  1  5  1  0
  1  6  1  0
  2  3  3  0
  7  8  1  0
  7 12  1  0
  7 13  1  0
  8  9  1  0
  8 14  1  0
  8 15  1  0
  9 10  1  0
 10 11  1  0
 10 16  1  0
 10 17  1  0
 11 12  1  0
 12 18  1  0
 12 19  1  0
M  RAD  1   7   2
M  END
>  <reaction>  (15) 
rmg_rxn_201

>  <mol_properties>  (15) 
{"0": {"label": "*1", "atom_type": "Cs"}, "1": {"label": "*0", "atom_type": "Ct"}, "3": {"label": "*2", "atom_type": "H0"}, "6": {"label": "*3", "atom_type": "Cs"}, "7": {"label": "*4", "atom_type": "Cs"}}

>  <type>  (15) 
unop_11

>  <geom_source>  (15) 
Heuristics

$$$$

     RDKit          3D

 19 18  0  0  0  0  0  0  0  0999 V2000
    1.6966    1.9816   -0.2356 C   0  0  0  0  0  0  0  0  0  0  0  0
    1.6966    1.9816   -1.6903 C   0  0  0  0  0  0  0  0  0  0  0  0
    1.6966    1.9816   -2.8367 N   0  0  0  0  0  0  0  0  0  0  0  0
    0.7436    1.2057    0.2105 H   0  0  0  0  0  0  0  0  0  0  0  0
    2.6537    1.6170    0.1361 H   0  0  0  0  0  0  0  0  0  0  0  0
    1.5339    2.9926    0.1361 H   0  0  0  0  0  0  0  0  0  0  0  0
   -0.2119    0.4278    0.6578 C   0  0  0  0  0  3  0  0  0  0  0  0
   -0.9772   -0.1951   -0.5011 C   0  0  0  0  0  0  0  0  0  0  0  0
   -1.9090   -1.1453   -0.0213 O   0  0  0  0  0  0  0  0  0  0  0  0
   -1.2809   -2.1260    0.7469 C   0  0  0  0  0  0  0  0  0  0  0  0
   -0.6442   -1.6085    1.8753 O   0  0  0  0  0  0  0  0  0  0  0  0
    0.3679   -0.6877    1.5157 C   0  0  0  0  0  0  0  0  0  0  0  0
   -0.8934    1.0319    1.2598 H   0  0  0  0  0  0  0  0  0  0  0  0
   -1.5457    0.5472   -1.0597 H   0  0  0  0  0  0  0  0  0  0  0  0
   -0.2769   -0.6856   -1.1946 H   0  0  0  0  0  0  0  0  0  0  0  0
   -0.5435   -2.6644    0.1236 H   0  0  0  0  0  0  0  0  0  0  0  0
   -2.0533   -2.8078    1.0955 H   0  0  0  0  0  0  0  0  0  0  0  0
    1.1627   -1.2128    0.9640 H   0  0  0  0  0  0  0  0  0  0  0  0
    0.7915   -0.3088    2.4447 H   0  0  0  0  0  0  0  0  0  0  0  0
  1  2  1  0
  1  4  1  0
  1  5  1  0
  1  6  1  0
  2  3  3  0
  7  8  1  0
  7 12  1  0
  7 13  1  0
  8  9  1  0
  8 14  1  0
  8 15  1  0
  9 10  1  0
 10 11  1  0
 10 16  1  0
 10 17  1  0
 11 12  1  0
 12 18  1  0
 12 19  1  0
M  RAD  1   7   2
M  END
>  <reaction>  (16) 
rmg_rxn_201

>  <mol_properties>  (16) 
{"0": {"label": "*1", "atom_type": "Cs"}, "1": {"label": "*0", "atom_type": "Ct"}, "3": {"label": "*2", "atom_type": "H0"}, "6": {"label": "*3", "atom_type": "Cs"}, "7": {"label": "*4", "atom_type": "Cs"}}

>  <type>  (16) 
unop_12

>  <geom_source>  (16) 
Heuristics

$$$$

     RDKit          3D

 19 18  0  0  0  0  0  0  0  0999 V2000
   -1.6239   -0.8117   -1.4526 O   0  0  0  0  0  0  0  0  0  0  0  0
   -1.9768    1.3277   -0.5959 O   0  0  0  0  0  0  0  0  0  0  0  0
    3.9616   -0.4311   -0.8607 N   0  0  0  0  0  2  0  0  0  0  0  0
    0.1456    0.2407   -0.1795 C   0  0  0  0  0  0  0  0  0  0  0  0
   -0.5413   -1.0634   -0.5799 C   0  0  0  0  0  0  0  0  0  0  0  0
   -0.9166    1.2121    0.3313 C   0  0  0  0  0  0  0  0  0  0  0  0
   -2.5486    0.0516   -0.8170 C   0  0  0  0  0  0  0  0  0  0  0  0
    2.3410   -0.1279    1.1759 C   0  0  0  0  0  0  0  0  0  0  0  0
    3.2459   -0.2972    0.0387 C   0  0  0  0  0  0  0  0  0  0  0  0
    0.6561    0.6793   -1.0646 H   0  0  0  0  0  0  0  0  0  0  0  0
    1.0450    0.0085    0.7708 H   0  0  0  0  0  0  0  0  0  0  0  0
   -0.8845   -1.6156    0.3244 H   0  0  0  0  0  0  0  0  0  0  0  0
    0.1950   -1.7101   -1.1015 H   0  0  0  0  0  0  0  0  0  0  0  0
   -1.2968    0.8847    1.3256 H   0  0  0  0  0  0  0  0  0  0  0  0
   -0.4517    2.2108    0.4686 H   0  0  0  0  0  0  0  0  0  0  0  0
   -2.9497   -0.3920    0.1256 H   0  0  0  0  0  0  0  0  0  0  0  0
   -3.4182    0.1793   -1.4939 H   0  0  0  0  0  0  0  0  0  0  0  0
    2.6931    0.7140    1.8069 H   0  0  0  0  0  0  0  0  0  0  0  0
    2.3248   -1.0596    1.7779 H   0  0  0  0  0  0  0  0  0  0  0  0
  1  5  1  0
  1  7  1  0
  2  6  1  0
  2  7  1  0
  3  9  2  0
  4  5  1  0
  4  6  1  0
  4 10  1  0
  4 11  1  0
  5 12  1  0
  5 13  1  0
  6 14  1  0
  6 15  1  0
  7 16  1  0
  7 17  1  0
  8  9  2  0
  8 18  1  0
  8 19  1  0
M  RAD  1   3   2
M  END
>  <reaction>  (17) 
rmg_rxn_201

>  <mol_properties>  (17) 
{"0": {"label": "*1", "atom_type": "Cs"}, "1": {"label": "*0", "atom_type": "Ct"}, "3": {"label": "*2", "atom_type": "H0"}, "6": {"label": "*3", "atom_type": "Cs"}, "7": {"label": "*4", "atom_type": "Cs"}}

>  <type>  (17) 
unop_13

>  <geom_source>  (17) 
AutoTST

$$$$

     RDKit          3D

 19 18  0  0  0  0  0  0  0  0999 V2000
    1.3196    2.0257   -0.4718 C   0  0  0  0  0  0  0  0  0  0  0  0
    1.3196    2.0257   -1.9264 C   0  0  0  0  0  0  0  0  0  0  0  0
    1.3196    2.0257   -3.0729 N   0  0  0  0  0  0  0  0  0  0  0  0
    0.3665    1.2499   -0.0257 H   0  0  0  0  0  0  0  0  0  0  0  0
    2.2766    1.6612   -0.1001 H   0  0  0  0  0  0  0  0  0  0  0  0
    1.1568    3.0368   -0.1001 H   0  0  0  0  0  0  0  0  0  0  0  0
   -0.5890    0.4720    0.4216 C   0  0  0  0  0  3  0  0  0  0  0  0
   -0.8535   -0.6627   -0.5577 C   0  0  0  0  0  0  0  0  0  0  0  0
   -1.4260   -1.7687    0.1136 O   0  0  0  0  0  0  0  0  0  0  0  0
   -0.6156   -2.1959    1.1659 C   0  0  0  0  0  0  0  0  0  0  0  0
   -0.4232   -1.2140    2.1380 O   0  0  0  0  0  0  0  0  0  0  0  0
    0.2128   -0.0729    1.5950 C   0  0  0  0  0  0  0  0  0  0  0  0
   -1.5397    0.8677    0.7841 H   0  0  0  0  0  0  0  0  0  0  0  0
   -1.5555   -0.3720   -1.3380 H   0  0  0  0  0  0  0  0  0  0  0  0
    0.0870   -0.9721   -1.0388 H   0  0  0  0  0  0  0  0  0  0  0  0
    0.3649   -2.5159    0.7679 H   0  0  0  0  0  0  0  0  0  0  0  0
   -1.1216   -3.0309    1.6453 H   0  0  0  0  0  0  0  0  0  0  0  0
    1.2284   -0.3407    1.2653 H   0  0  0  0  0  0  0  0  0  0  0  0
    0.2974    0.6530    2.4026 H   0  0  0  0  0  0  0  0  0  0  0  0
  1  2  1  0
  1  4  1  0
  1  5  1  0
  1  6  1  0
  2  3  3  0
  7  8  1  0
  7 12  1  0
  7 13  1  0
  8  9  1  0
  8 14  1  0
  8 15  1  0
  9 10  1  0
 10 11  1  0
 10 16  1  0
 10 17  1  0
 11 12  1  0
 12 18  1  0
 12 19  1  0
M  RAD  1   7   2
M  END
>  <reaction>  (18) 
rmg_rxn_201

>  <mol_properties>  (18) 
{"0": {"label": "*1", "atom_type": "Cs"}, "1": {"label": "*0", "atom_type": "Ct"}, "3": {"label": "*2", "atom_type": "H0"}, "6": {"label": "*3", "atom_type": "Cs"}, "7": {"label": "*4", "atom_type": "Cs"}}

>  <type>  (18) 
unop_14

>  <geom_source>  (18) 
gaussian_log

$$$$
