
     RDKit          3D

 18 17  0  0  0  0  0  0  0  0999 V2000
    2.2026   -0.7213   -0.2612 C   0  0  0  0  0  0  0  0  0  0  0  0
    1.5384    0.2638    0.6915 C   0  0  0  0  0  0  0  0  0  0  0  0
    2.2584    1.5946    0.7694 C   0  0  0  0  0  0  0  0  0  0  0  0
    2.2212    2.2185   -0.4893 O   0  0  0  0  0  0  0  0  0  0  0  0
    2.8988    3.4488   -0.5204 C   0  0  0  0  0  0  0  0  0  0  0  0
    2.7981    4.0296   -1.9118 C   0  0  0  0  0  0  0  0  0  0  0  0
    3.2294   -0.9309    0.0486 H   0  0  0  0  0  0  0  0  0  0  0  0
    2.2338   -0.3181   -1.2734 H   0  0  0  0  0  0  0  0  0  0  0  0
    1.6610   -1.6680   -0.2875 H   0  0  0  0  0  0  0  0  0  0  0  0
    1.4990   -0.1566    1.7002 H   0  0  0  0  0  0  0  0  0  0  0  0
    0.5055    0.4455    0.3835 H   0  0  0  0  0  0  0  0  0  0  0  0
    3.3038    1.4410    1.0808 H   0  0  0  0  0  0  0  0  0  0  0  0
    1.7844    2.2410    1.5226 H   0  0  0  0  0  0  0  0  0  0  0  0
    2.4596    4.1376    0.2164 H   0  0  0  0  0  0  0  0  0  0  0  0
    3.9524    3.3035   -0.2397 H   0  0  0  0  0  0  0  0  0  0  0  0
    1.7543    4.1869   -2.1856 H   0  0  0  0  0  0  0  0  0  0  0  0
    3.2472    3.3545   -2.6411 H   0  0  0  0  0  0  0  0  0  0  0  0
    3.3178    4.9878   -1.9600 H   0  0  0  0  0  0  0  0  0  0  0  0
  1  2  1  0
  1  7  1  0
  1  8  1  0
  1  9  1  0
  2  3  1  0
  2 10  1  0
  2 11  1  0
  3  4  1  0
  3 12  1  0
  3 13  1  0
  4  5  1  0
  5  6  1  0
  5 14  1  0
  5 15  1  0
  6 16  1  0
  6 17  1  0
  6 18  1  0
M  END
>  <reaction>  (1) 
rmg_rxn_349

>  <mol_properties>  (1) 
{"5": {"label": "donator", "atom_type": "Cs"}, "15": {"label": "d_hydrogen", "atom_type": "H0"}}

>  <type>  (1) 
r1h

$$$$

     RDKit          3D

  8  7  0  0  0  0  0  0  0  0999 V2000
    1.3778   -0.6812    0.2772 C   0  0  0  0  0  3  0  0  0  0  0  0
    0.4890    0.2108   -0.0590 C   0  0  0  0  0  0  0  0  0  0  0  0
   -1.0010    0.0286   -0.0323 C   0  0  0  0  0  0  0  0  0  0  0  0
    2.4535   -0.7507    0.3287 H   0  0  0  0  0  0  0  0  0  0  0  0
    0.8447    1.1899   -0.3945 H   0  0  0  0  0  0  0  0  0  0  0  0
   -1.4635    0.7638    0.6301 H   0  0  0  0  0  0  0  0  0  0  0  0
   -1.2709   -0.9687    0.3117 H   0  0  0  0  0  0  0  0  0  0  0  0
   -1.4218    0.1801   -1.0289 H   0  0  0  0  0  0  0  0  0  0  0  0
  1  2  2  3
  1  4  1  0
  2  3  1  0
  2  5  1  0
  3  6  1  0
  3  7  1  0
  3  8  1  0
M  RAD  1   1   2
M  END
>  <reaction>  (2) 
rmg_rxn_349

>  <mol_properties>  (2) 
{"0": {"label": "acceptor", "atom_type": "Cd"}}

>  <type>  (2) 
r2

$$$$

     RDKit          3D

  9  8  0  0  0  0  0  0  0  0999 V2000
    1.1303   -0.2933   -0.7510 C   0  0  0  0  0  0  0  0  0  0  0  0
    0.2866    0.4560   -0.0588 C   0  0  0  0  0  0  0  0  0  0  0  0
   -0.9719   -0.0331    0.5823 C   0  0  0  0  0  0  0  0  0  0  0  0
    2.0274    0.1230   -1.1916 H   0  0  0  0  0  0  0  0  0  0  0  0
    0.9532   -1.3530   -0.9023 H   0  0  0  0  0  0  0  0  0  0  0  0
    0.5065    1.5132    0.0659 H   0  0  0  0  0  0  0  0  0  0  0  0
   -0.9526    0.1426    1.6610 H   0  0  0  0  0  0  0  0  0  0  0  0
   -1.1182   -1.1002    0.4106 H   0  0  0  0  0  0  0  0  0  0  0  0
   -1.8412    0.5010    0.1901 H   0  0  0  0  0  0  0  0  0  0  0  0
  1  2  2  3
  1  4  1  0
  1  5  1  0
  2  3  1  0
  2  6  1  0
  3  7  1  0
  3  8  1  0
  3  9  1  0
M  END
>  <reaction>  (3) 
rmg_rxn_349

>  <mol_properties>  (3) 
{"0": {"label": "acceptor", "atom_type": "Cd"}, "8": {"label": "a_hydrogen", "atom_type": "H0"}}

>  <type>  (3) 
r2h

$$$$

     RDKit          3D

 26 24  0  0  0  0  0  0  0  0999 V2000
   -2.4056    1.0426    0.7557 C   0  0  0  0  0  3  0  0  0  0  0  0
   -2.1831   -0.2442    0.9119 C   0  0  0  0  0  0  0  0  0  0  0  0
   -3.0869   -1.1999    1.6347 C   0  0  0  0  0  0  0  0  0  0  0  0
   -3.2525    1.6219    1.1093 H   0  0  0  0  0  0  0  0  0  0  0  0
   -1.2732   -0.6614    0.4845 H   0  0  0  0  0  0  0  0  0  0  0  0
   -3.4140   -1.9993    0.9649 H   0  0  0  0  0  0  0  0  0  0  0  0
   -3.9705   -0.6975    2.0293 H   0  0  0  0  0  0  0  0  0  0  0  0
   -2.5590   -1.6743    2.4659 H   0  0  0  0  0  0  0  0  0  0  0  0
    2.0606   -1.8215   -1.9522 C   0  0  0  0  0  0  0  0  0  0  0  0
    1.9695   -1.7284   -0.4350 C   0  0  0  0  0  0  0  0  0  0  0  0
    1.9920   -0.3030    0.0778 C   0  0  0  0  0  0  0  0  0  0  0  0
    0.8676    0.3834   -0.4122 O   0  0  0  0  0  0  0  0  0  0  0  0
    0.8067    1.7242    0.0074 C   0  0  0  0  0  0  0  0  0  0  0  0
   -0.4519    2.3478   -0.5147 C   0  0  0  0  0  0  0  0  0  0  0  0
    2.9843   -1.3642   -2.3154 H   0  0  0  0  0  0  0  0  0  0  0  0
    1.2239   -1.3048   -2.4221 H   0  0  0  0  0  0  0  0  0  0  0  0
    2.0492   -2.8611   -2.2829 H   0  0  0  0  0  0  0  0  0  0  0  0
    2.8033   -2.2647    0.0263 H   0  0  0  0  0  0  0  0  0  0  0  0
    1.0525   -2.2100   -0.0842 H   0  0  0  0  0  0  0  0  0  0  0  0
    2.9130    0.2037   -0.2507 H   0  0  0  0  0  0  0  0  0  0  0  0
    1.9865   -0.2932    1.1774 H   0  0  0  0  0  0  0  0  0  0  0  0
    0.8285    1.7769    1.1063 H   0  0  0  0  0  0  0  0  0  0  0  0
    1.6927    2.2680   -0.3594 H   0  0  0  0  0  0  0  0  0  0  0  0
   -1.4414    1.7569    0.0654 H   0  0  0  0  0  0  0  0  0  0  0  0
   -0.6045    2.1922   -1.5811 H   0  0  0  0  0  0  0  0  0  0  0  0
   -0.5566    3.3950   -0.2355 H   0  0  0  0  0  0  0  0  0  0  0  0
  1  2  2  3
  1  4  1  0
  2  3  1  0
  2  5  1  0
  3  6  1  0
  3  7  1  0
  3  8  1  0
  9 10  1  0
  9 15  1  0
  9 16  1  0
  9 17  1  0
 10 11  1  0
 10 18  1  0
 10 19  1  0
 11 12  1  0
 11 20  1  0
 11 21  1  0
 12 13  1  0
 13 14  1  0
 13 22  1  0
 13 23  1  0
 14 24  1  0
 14 25  1  0
 14 26  1  0
M  RAD  1   1   2
M  END
>  <reaction>  (4) 
rmg_rxn_349

>  <mol_properties>  (4) 
{"0": {"label": "*3", "atom_type": "Cd"}, "1": {"label": "*4", "atom_type": "Cd"}, "12": {"label": "*0", "atom_type": "Cs"}, "13": {"label": "*1", "atom_type": "Cs"}, "23": {"label": "*2", "atom_type": "H0"}}

>  <type>  (4) 
ts

$$$$

     RDKit          3D

 26 24  0  0  0  0  0  0  0  0999 V2000
   -2.1733    0.4533    0.6223 C   0  0  0  0  0  0  0  0  0  0  0  0
   -3.0782    1.0078    1.4136 C   0  0  0  0  0  0  0  0  0  0  0  0
   -4.5579    0.8535    1.2693 C   0  0  0  0  0  0  0  0  0  0  0  0
   -2.4617   -0.1736   -0.2150 H   0  0  0  0  0  0  0  0  0  0  0  0
   -2.7411    1.6283    2.2400 H   0  0  0  0  0  0  0  0  0  0  0  0
   -4.9927    0.4129    2.1702 H   0  0  0  0  0  0  0  0  0  0  0  0
   -4.8115    0.2185    0.4195 H   0  0  0  0  0  0  0  0  0  0  0  0
   -5.0383    1.8252    1.1285 H   0  0  0  0  0  0  0  0  0  0  0  0
    2.4077   -2.1775   -2.0809 C   0  0  0  0  0  0  0  0  0  0  0  0
    2.4077   -2.1775   -0.5580 C   0  0  0  0  0  0  0  0  0  0  0  0
    2.4077   -0.7845    0.0375 C   0  0  0  0  0  0  0  0  0  0  0  0
    1.2247   -0.1209   -0.3301 O   0  0  0  0  0  0  0  0  0  0  0  0
    1.1540    1.1972    0.1508 C   0  0  0  0  0  0  0  0  0  0  0  0
   -0.1493    1.8150   -0.3000 C   0  0  0  0  0  3  0  0  0  0  0  0
    3.2898   -1.6632   -2.4705 H   0  0  0  0  0  0  0  0  0  0  0  0
    1.5250   -1.6678   -2.4670 H   0  0  0  0  0  0  0  0  0  0  0  0
    2.4132   -3.1954   -2.4736 H   0  0  0  0  0  0  0  0  0  0  0  0
    3.2892   -2.7040   -0.1817 H   0  0  0  0  0  0  0  0  0  0  0  0
    1.5333   -2.7155   -0.1827 H   0  0  0  0  0  0  0  0  0  0  0  0
    3.2819   -0.2194   -0.3229 H   0  0  0  0  0  0  0  0  0  0  0  0
    2.4825   -0.8384    1.1335 H   0  0  0  0  0  0  0  0  0  0  0  0
    1.2212    1.2001    1.2489 H   0  0  0  0  0  0  0  0  0  0  0  0
    2.0068    1.7802   -0.2271 H   0  0  0  0  0  0  0  0  0  0  0  0
   -1.1650    1.1317    0.1628 H   0  0  0  0  0  0  0  0  0  0  0  0
   -0.2101    1.8268   -1.3889 H   0  0  0  0  0  0  0  0  0  0  0  0
   -0.2270    2.8410    0.0630 H   0  0  0  0  0  0  0  0  0  0  0  0
  1  2  2  3
  1  4  1  0
  1 24  1  0
  2  3  1  0
  2  5  1  0
  3  6  1  0
  3  7  1  0
  3  8  1  0
  9 10  1  0
  9 15  1  0
  9 16  1  0
  9 17  1  0
 10 11  1  0
 10 18  1  0
 10 19  1  0
 11 12  1  0
 11 20  1  0
 11 21  1  0
 12 13  1  0
 13 14  1  0
 13 22  1  0
 13 23  1  0
 14 25  1  0
 14 26  1  0
M  RAD  1  14   2
M  END
>  <reaction>  (5) 
rmg_rxn_349

>  <mol_properties>  (5) 
{"0": {"label": "*3", "atom_type": "Cd"}, "1": {"label": "*4", "atom_type": "Cd"}, "12": {"label": "*0", "atom_type": "Cs"}, "13": {"label": "*1", "atom_type": "Cs"}, "23": {"label": "*2", "atom_type": "H0"}}

>  <type>  (5) 
unop_1

>  <geom_source>  (5) 
Heuristics

$$$$

     RDKit          3D

 26 24  0  0  0  0  0  0  0  0999 V2000
   -2.4228    0.7562    0.4307 C   0  0  0  0  0  0  0  0  0  0  0  0
   -2.3511    0.1005    1.5784 C   0  0  0  0  0  0  0  0  0  0  0  0
   -3.5245   -0.3821    2.3686 C   0  0  0  0  0  0  0  0  0  0  0  0
   -3.3775    0.9940   -0.0266 H   0  0  0  0  0  0  0  0  0  0  0  0
   -1.3717   -0.1150    1.9978 H   0  0  0  0  0  0  0  0  0  0  0  0
   -3.4870   -1.4668    2.4975 H   0  0  0  0  0  0  0  0  0  0  0  0
   -4.4660   -0.1265    1.8807 H   0  0  0  0  0  0  0  0  0  0  0  0
   -3.5256    0.0559    3.3700 H   0  0  0  0  0  0  0  0  0  0  0  0
    2.1582   -1.8746   -2.2725 C   0  0  0  0  0  0  0  0  0  0  0  0
    2.1582   -1.8746   -0.7496 C   0  0  0  0  0  0  0  0  0  0  0  0
    2.1582   -0.4815   -0.1541 C   0  0  0  0  0  0  0  0  0  0  0  0
    0.9752    0.1821   -0.5217 O   0  0  0  0  0  0  0  0  0  0  0  0
    0.9045    1.5001   -0.0408 C   0  0  0  0  0  0  0  0  0  0  0  0
   -0.3988    2.1179   -0.4916 C   0  0  0  0  0  3  0  0  0  0  0  0
    3.0403   -1.3603   -2.6621 H   0  0  0  0  0  0  0  0  0  0  0  0
    1.2755   -1.3649   -2.6586 H   0  0  0  0  0  0  0  0  0  0  0  0
    2.1637   -2.8924   -2.6652 H   0  0  0  0  0  0  0  0  0  0  0  0
    3.0397   -2.4010   -0.3733 H   0  0  0  0  0  0  0  0  0  0  0  0
    1.2838   -2.4126   -0.3743 H   0  0  0  0  0  0  0  0  0  0  0  0
    3.0324    0.0836   -0.5145 H   0  0  0  0  0  0  0  0  0  0  0  0
    2.2330   -0.5354    0.9420 H   0  0  0  0  0  0  0  0  0  0  0  0
    0.9717    1.5030    1.0573 H   0  0  0  0  0  0  0  0  0  0  0  0
    1.7573    2.0831   -0.4187 H   0  0  0  0  0  0  0  0  0  0  0  0
   -1.4145    1.4346   -0.0288 H   0  0  0  0  0  0  0  0  0  0  0  0
   -0.4597    2.1298   -1.5804 H   0  0  0  0  0  0  0  0  0  0  0  0
   -0.4765    3.1439   -0.1286 H   0  0  0  0  0  0  0  0  0  0  0  0
  1  2  2  3
  1  4  1  0
  1 24  1  0
  2  3  1  0
  2  5  1  0
  3  6  1  0
  3  7  1  0
  3  8  1  0
  9 10  1  0
  9 15  1  0
  9 16  1  0
  9 17  1  0
 10 11  1  0
 10 18  1  0
 10 19  1  0
 11 12  1  0
 11 20  1  0
 11 21  1  0
 12 13  1  0
 13 14  1  0
 13 22  1  0
 13 23  1  0
 14 25  1  0
 14 26  1  0
M  RAD  1  14   2
M  END
>  <reaction>  (6) 
rmg_rxn_349

>  <mol_properties>  (6) 
{"0": {"label": "*3", "atom_type": "Cd"}, "1": {"label": "*4", "atom_type": "Cd"}, "12": {"label": "*0", "atom_type": "Cs"}, "13": {"label": "*1", "atom_type": "Cs"}, "23": {"label": "*2", "atom_type": "H0"}}

>  <type>  (6) 
unop_2

>  <geom_source>  (6) 
Heuristics

$$$$

     RDKit          3D

 26 24  0  0  0  0  0  0  0  0999 V2000
   -2.1347    0.5041    0.7476 C   0  0  0  0  0  0  0  0  0  0  0  0
   -3.2949    1.0829    1.0144 C   0  0  0  0  0  0  0  0  0  0  0  0
   -4.6372    0.4698    0.7765 C   0  0  0  0  0  0  0  0  0  0  0  0
   -2.0840   -0.4926    0.3221 H   0  0  0  0  0  0  0  0  0  0  0  0
   -3.2954    2.0829    1.4404 H   0  0  0  0  0  0  0  0  0  0  0  0
   -5.2022    0.3968    1.7094 H   0  0  0  0  0  0  0  0  0  0  0  0
   -4.5489   -0.5298    0.3492 H   0  0  0  0  0  0  0  0  0  0  0  0
   -5.2303    1.0847    0.0946 H   0  0  0  0  0  0  0  0  0  0  0  0
    2.4464   -2.1267   -1.9556 C   0  0  0  0  0  0  0  0  0  0  0  0
    2.4464   -2.1267   -0.4327 C   0  0  0  0  0  0  0  0  0  0  0  0
    2.4464   -0.7337    0.1628 C   0  0  0  0  0  0  0  0  0  0  0  0
    1.2634   -0.0701   -0.2048 O   0  0  0  0  0  0  0  0  0  0  0  0
    1.1927    1.2480    0.2761 C   0  0  0  0  0  0  0  0  0  0  0  0
   -0.1107    1.8658   -0.1747 C   0  0  0  0  0  3  0  0  0  0  0  0
    3.3284   -1.6124   -2.3452 H   0  0  0  0  0  0  0  0  0  0  0  0
    1.5636   -1.6170   -2.3417 H   0  0  0  0  0  0  0  0  0  0  0  0
    2.4518   -3.1446   -2.3483 H   0  0  0  0  0  0  0  0  0  0  0  0
    3.3279   -2.6532   -0.0564 H   0  0  0  0  0  0  0  0  0  0  0  0
    1.5720   -2.6647   -0.0574 H   0  0  0  0  0  0  0  0  0  0  0  0
    3.3206   -0.1686   -0.1976 H   0  0  0  0  0  0  0  0  0  0  0  0
    2.5212   -0.7876    1.2589 H   0  0  0  0  0  0  0  0  0  0  0  0
    1.2599    1.2508    1.3742 H   0  0  0  0  0  0  0  0  0  0  0  0
    2.0455    1.8310   -0.1017 H   0  0  0  0  0  0  0  0  0  0  0  0
   -1.1263    1.1825    0.2881 H   0  0  0  0  0  0  0  0  0  0  0  0
   -0.1715    1.8776   -1.2635 H   0  0  0  0  0  0  0  0  0  0  0  0
   -0.1883    2.8918    0.1884 H   0  0  0  0  0  0  0  0  0  0  0  0
  1  2  2  3
  1  4  1  0
  1 24  1  0
  2  3  1  0
  2  5  1  0
  3  6  1  0
  3  7  1  0
  3  8  1  0
  9 10  1  0
  9 15  1  0
  9 16  1  0
  9 17  1  0
 10 11  1  0
 10 18  1  0
 10 19  1  0
 11 12  1  0
 11 20  1  0
 11 21  1  0
 12 13  1  0
 13 14  1  0
 13 22  1  0
 13 23  1  0
 14 25  1  0
 14 26  1  0
M  RAD  1  14   2
M  END
>  <reaction>  (7) 
rmg_rxn_349

>  <mol_properties>  (7) 
{"0": {"label": "*3", "atom_type": "Cd"}, "1": {"label": "*4", "atom_type": "Cd"}, "12": {"label": "*0", "atom_type": "Cs"}, "13": {"label": "*1", "atom_type": "Cs"}, "23": {"label": "*2", "atom_type": "H0"}}

>  <type>  (7) 
unop_3

>  <geom_source>  (7) 
Heuristics

$$$$

     RDKit          3D

 26 24  0  0  0  0  0  0  0  0999 V2000
   -2.3521    0.9155    0.8598 C   0  0  0  0  0  0  0  0  0  0  0  0
   -2.5223   -0.3621    0.5583 C   0  0  0  0  0  0  0  0  0  0  0  0
   -3.8448   -1.0431    0.4125 C   0  0  0  0  0  0  0  0  0  0  0  0
   -3.1972    1.5752    1.0266 H   0  0  0  0  0  0  0  0  0  0  0  0
   -1.6449   -0.9840    0.4000 H   0  0  0  0  0  0  0  0  0  0  0  0
   -3.9558   -1.4667   -0.5890 H   0  0  0  0  0  0  0  0  0  0  0  0
   -4.6705   -0.3520    0.5866 H   0  0  0  0  0  0  0  0  0  0  0  0
   -3.9353   -1.8724    1.1188 H   0  0  0  0  0  0  0  0  0  0  0  0
    2.2290   -1.7153   -1.8434 C   0  0  0  0  0  0  0  0  0  0  0  0
    2.2290   -1.7153   -0.3205 C   0  0  0  0  0  0  0  0  0  0  0  0
    2.2290   -0.3222    0.2750 C   0  0  0  0  0  0  0  0  0  0  0  0
    1.0460    0.3414   -0.0926 O   0  0  0  0  0  0  0  0  0  0  0  0
    0.9752    1.6594    0.3883 C   0  0  0  0  0  0  0  0  0  0  0  0
   -0.3281    2.2772   -0.0625 C   0  0  0  0  0  3  0  0  0  0  0  0
    3.1110   -1.2009   -2.2331 H   0  0  0  0  0  0  0  0  0  0  0  0
    1.3462   -1.2056   -2.2295 H   0  0  0  0  0  0  0  0  0  0  0  0
    2.2344   -2.7331   -2.2361 H   0  0  0  0  0  0  0  0  0  0  0  0
    3.1105   -2.2417    0.0558 H   0  0  0  0  0  0  0  0  0  0  0  0
    1.3546   -2.2532    0.0548 H   0  0  0  0  0  0  0  0  0  0  0  0
    3.1032    0.2429   -0.0854 H   0  0  0  0  0  0  0  0  0  0  0  0
    2.3037   -0.3761    1.3710 H   0  0  0  0  0  0  0  0  0  0  0  0
    1.0425    1.6623    1.4864 H   0  0  0  0  0  0  0  0  0  0  0  0
    1.8281    2.2424    0.0104 H   0  0  0  0  0  0  0  0  0  0  0  0
   -1.3437    1.5939    0.4003 H   0  0  0  0  0  0  0  0  0  0  0  0
   -0.3889    2.2891   -1.1514 H   0  0  0  0  0  0  0  0  0  0  0  0
   -0.4057    3.3033    0.3005 H   0  0  0  0  0  0  0  0  0  0  0  0
  1  2  2  3
  1  4  1  0
  1 24  1  0
  2  3  1  0
  2  5  1  0
  3  6  1  0
  3  7  1  0
  3  8  1  0
  9 10  1  0
  9 15  1  0
  9 16  1  0
  9 17  1  0
 10 11  1  0
 10 18  1  0
 10 19  1  0
 11 12  1  0
 11 20  1  0
 11 21  1  0
 12 13  1  0
 13 14  1  0
 13 22  1  0
 13 23  1  0
 14 25  1  0
 14 26  1  0
M  RAD  1  14   2
M  END
>  <reaction>  (8) 
rmg_rxn_349

>  <mol_properties>  (8) 
{"0": {"label": "*3", "atom_type": "Cd"}, "1": {"label": "*4", "atom_type": "Cd"}, "12": {"label": "*0", "atom_type": "Cs"}, "13": {"label": "*1", "atom_type": "Cs"}, "23": {"label": "*2", "atom_type": "H0"}}

>  <type>  (8) 
unop_4

>  <geom_source>  (8) 
Heuristics

$$$$

     RDKit          3D

 26 24  0  0  0  0  0  0  0  0999 V2000
   -2.1308    0.5665    0.7744 C   0  0  0  0  0  0  0  0  0  0  0  0
   -3.3795    0.9177    0.5108 C   0  0  0  0  0  0  0  0  0  0  0  0
   -4.5965    0.1982    0.9960 C   0  0  0  0  0  0  0  0  0  0  0  0
   -1.9036   -0.3014    1.3845 H   0  0  0  0  0  0  0  0  0  0  0  0
   -3.5576    1.7954   -0.1053 H   0  0  0  0  0  0  0  0  0  0  0  0
   -5.2270    0.8604    1.5948 H   0  0  0  0  0  0  0  0  0  0  0  0
   -4.3317   -0.6673    1.6048 H   0  0  0  0  0  0  0  0  0  0  0  0
   -5.2060   -0.1452    0.1562 H   0  0  0  0  0  0  0  0  0  0  0  0
    2.4503   -2.0643   -1.9288 C   0  0  0  0  0  0  0  0  0  0  0  0
    2.4503   -2.0643   -0.4059 C   0  0  0  0  0  0  0  0  0  0  0  0
    2.4503   -0.6712    0.1897 C   0  0  0  0  0  0  0  0  0  0  0  0
    1.2673   -0.0076   -0.1779 O   0  0  0  0  0  0  0  0  0  0  0  0
    1.1966    1.3104    0.3030 C   0  0  0  0  0  0  0  0  0  0  0  0
   -0.1068    1.9282   -0.1479 C   0  0  0  0  0  3  0  0  0  0  0  0
    3.3324   -1.5500   -2.3184 H   0  0  0  0  0  0  0  0  0  0  0  0
    1.5676   -1.5546   -2.3148 H   0  0  0  0  0  0  0  0  0  0  0  0
    2.4558   -3.0821   -2.3214 H   0  0  0  0  0  0  0  0  0  0  0  0
    3.3318   -2.5907   -0.0296 H   0  0  0  0  0  0  0  0  0  0  0  0
    1.5759   -2.6022   -0.0306 H   0  0  0  0  0  0  0  0  0  0  0  0
    3.3245   -0.1061   -0.1707 H   0  0  0  0  0  0  0  0  0  0  0  0
    2.5251   -0.7251    1.2857 H   0  0  0  0  0  0  0  0  0  0  0  0
    1.2638    1.3133    1.4010 H   0  0  0  0  0  0  0  0  0  0  0  0
    2.0494    1.8934   -0.0749 H   0  0  0  0  0  0  0  0  0  0  0  0
   -1.1224    1.2449    0.3149 H   0  0  0  0  0  0  0  0  0  0  0  0
   -0.1676    1.9401   -1.2367 H   0  0  0  0  0  0  0  0  0  0  0  0
   -0.1844    2.9542    0.2152 H   0  0  0  0  0  0  0  0  0  0  0  0
  1  2  2  3
  1  4  1  0
  1 24  1  0
  2  3  1  0
  2  5  1  0
  3  6  1  0
  3  7  1  0
  3  8  1  0
  9 10  1  0
  9 15  1  0
  9 16  1  0
  9 17  1  0
 10 11  1  0
 10 18  1  0
 10 19  1  0
 11 12  1  0
 11 20  1  0
 11 21  1  0
 12 13  1  0
 13 14  1  0
 13 22  1  0
 13 23  1  0
 14 25  1  0
 14 26  1  0
M  RAD  1  14   2
M  END
>  <reaction>  (9) 
rmg_rxn_349

>  <mol_properties>  (9) 
{"0": {"label": "*3", "atom_type": "Cd"}, "1": {"label": "*4", "atom_type": "Cd"}, "12": {"label": "*0", "atom_type": "Cs"}, "13": {"label": "*1", "atom_type": "Cs"}, "23": {"label": "*2", "atom_type": "H0"}}

>  <type>  (9) 
unop_5

>  <geom_source>  (9) 
Heuristics

$$$$

     RDKit          3D

 26 24  0  0  0  0  0  0  0  0999 V2000
   -2.2581    0.8067    0.9423 C   0  0  0  0  0  0  0  0  0  0  0  0
   -2.7821   -0.2012    0.2626 C   0  0  0  0  0  0  0  0  0  0  0  0
   -4.2448   -0.4706    0.1138 C   0  0  0  0  0  0  0  0  0  0  0  0
   -2.8838    1.5298    1.4547 H   0  0  0  0  0  0  0  0  0  0  0  0
   -2.1148   -0.9006   -0.2345 H   0  0  0  0  0  0  0  0  0  0  0  0
   -4.5363   -0.4640   -0.9396 H   0  0  0  0  0  0  0  0  0  0  0  0
   -4.8430    0.2741    0.6404 H   0  0  0  0  0  0  0  0  0  0  0  0
   -4.5004   -1.4580    0.5068 H   0  0  0  0  0  0  0  0  0  0  0  0
    2.3229   -1.8242   -1.7609 C   0  0  0  0  0  0  0  0  0  0  0  0
    2.3229   -1.8242   -0.2380 C   0  0  0  0  0  0  0  0  0  0  0  0
    2.3229   -0.4311    0.3575 C   0  0  0  0  0  0  0  0  0  0  0  0
    1.1399    0.2325   -0.0101 O   0  0  0  0  0  0  0  0  0  0  0  0
    1.0692    1.5506    0.4708 C   0  0  0  0  0  0  0  0  0  0  0  0
   -0.2341    2.1683    0.0199 C   0  0  0  0  0  3  0  0  0  0  0  0
    3.2050   -1.3098   -2.1506 H   0  0  0  0  0  0  0  0  0  0  0  0
    1.4402   -1.3145   -2.1470 H   0  0  0  0  0  0  0  0  0  0  0  0
    2.3284   -2.8420   -2.1536 H   0  0  0  0  0  0  0  0  0  0  0  0
    3.2044   -2.3506    0.1382 H   0  0  0  0  0  0  0  0  0  0  0  0
    1.4485   -2.3621    0.1372 H   0  0  0  0  0  0  0  0  0  0  0  0
    3.1971    0.1340   -0.0029 H   0  0  0  0  0  0  0  0  0  0  0  0
    2.3977   -0.4850    1.4535 H   0  0  0  0  0  0  0  0  0  0  0  0
    1.1365    1.5534    1.5689 H   0  0  0  0  0  0  0  0  0  0  0  0
    1.9221    2.1335    0.0929 H   0  0  0  0  0  0  0  0  0  0  0  0
   -1.2497    1.4850    0.4828 H   0  0  0  0  0  0  0  0  0  0  0  0
   -0.2949    2.1802   -1.0689 H   0  0  0  0  0  0  0  0  0  0  0  0
   -0.3117    3.1944    0.3830 H   0  0  0  0  0  0  0  0  0  0  0  0
  1  2  2  3
  1  4  1  0
  1 24  1  0
  2  3  1  0
  2  5  1  0
  3  6  1  0
  3  7  1  0
  3  8  1  0
  9 10  1  0
  9 15  1  0
  9 16  1  0
  9 17  1  0
 10 11  1  0
 10 18  1  0
 10 19  1  0
 11 12  1  0
 11 20  1  0
 11 21  1  0
 12 13  1  0
 13 14  1  0
 13 22  1  0
 13 23  1  0
 14 25  1  0
 14 26  1  0
M  RAD  1  14   2
M  END
>  <reaction>  (10) 
rmg_rxn_349

>  <mol_properties>  (10) 
{"0": {"label": "*3", "atom_type": "Cd"}, "1": {"label": "*4", "atom_type": "Cd"}, "12": {"label": "*0", "atom_type": "Cs"}, "13": {"label": "*1", "atom_type": "Cs"}, "23": {"label": "*2", "atom_type": "H0"}}

>  <type>  (10) 
unop_6

>  <geom_source>  (10) 
Heuristics

$$$$

     RDKit          3D

 26 24  0  0  0  0  0  0  0  0999 V2000
   -2.1779    0.6699    0.9322 C   0  0  0  0  0  0  0  0  0  0  0  0
   -3.0593    0.1050    0.1221 C   0  0  0  0  0  0  0  0  0  0  0  0
   -4.5436    0.1673    0.2876 C   0  0  0  0  0  0  0  0  0  0  0  0
   -2.4911    1.2367    1.8027 H   0  0  0  0  0  0  0  0  0  0  0  0
   -2.6977   -0.4532   -0.7377 H   0  0  0  0  0  0  0  0  0  0  0  0
   -5.0133    0.6268   -0.5859 H   0  0  0  0  0  0  0  0  0  0  0  0
   -4.8224    0.7435    1.1706 H   0  0  0  0  0  0  0  0  0  0  0  0
   -4.9666   -0.8360    0.3834 H   0  0  0  0  0  0  0  0  0  0  0  0
    2.4032   -1.9609   -1.7710 C   0  0  0  0  0  0  0  0  0  0  0  0
    2.4032   -1.9609   -0.2481 C   0  0  0  0  0  0  0  0  0  0  0  0
    2.4032   -0.5678    0.3474 C   0  0  0  0  0  0  0  0  0  0  0  0
    1.2202    0.0958   -0.0202 O   0  0  0  0  0  0  0  0  0  0  0  0
    1.1495    1.4138    0.4607 C   0  0  0  0  0  0  0  0  0  0  0  0
   -0.1539    2.0316    0.0099 C   0  0  0  0  0  3  0  0  0  0  0  0
    3.2852   -1.4466   -2.1607 H   0  0  0  0  0  0  0  0  0  0  0  0
    1.5205   -1.4512   -2.1571 H   0  0  0  0  0  0  0  0  0  0  0  0
    2.4087   -2.9788   -2.1637 H   0  0  0  0  0  0  0  0  0  0  0  0
    3.2847   -2.4874    0.1282 H   0  0  0  0  0  0  0  0  0  0  0  0
    1.5288   -2.4989    0.1272 H   0  0  0  0  0  0  0  0  0  0  0  0
    3.2774   -0.0027   -0.0130 H   0  0  0  0  0  0  0  0  0  0  0  0
    2.4780   -0.6217    1.4434 H   0  0  0  0  0  0  0  0  0  0  0  0
    1.2167    1.4167    1.5588 H   0  0  0  0  0  0  0  0  0  0  0  0
    2.0023    1.9968    0.0828 H   0  0  0  0  0  0  0  0  0  0  0  0
   -1.1695    1.3483    0.4727 H   0  0  0  0  0  0  0  0  0  0  0  0
   -0.2147    2.0435   -1.0790 H   0  0  0  0  0  0  0  0  0  0  0  0
   -0.2315    3.0576    0.3729 H   0  0  0  0  0  0  0  0  0  0  0  0
  1  2  2  3
  1  4  1  0
  1 24  1  0
  2  3  1  0
  2  5  1  0
  3  6  1  0
  3  7  1  0
  3  8  1  0
  9 10  1  0
  9 15  1  0
  9 16  1  0
  9 17  1  0
 10 11  1  0
 10 18  1  0
 10 19  1  0
 11 12  1  0
 11 20  1  0
 11 21  1  0
 12 13  1  0
 13 14  1  0
 13 22  1  0
 13 23  1  0
 14 25  1  0
 14 26  1  0
M  RAD  1  14   2
M  END
>  <reaction>  (11) 
rmg_rxn_349

>  <mol_properties>  (11) 
{"0": {"label": "*3", "atom_type": "Cd"}, "1": {"label": "*4", "atom_type": "Cd"}, "12": {"label": "*0", "atom_type": "Cs"}, "13": {"label": "*1", "atom_type": "Cs"}, "23": {"label": "*2", "atom_type": "H0"}}

>  <type>  (11) 
unop_7

>  <geom_source>  (11) 
Heuristics

$$$$

     RDKit          3D

 26 24  0  0  0  0  0  0  0  0999 V2000
   -2.2515    0.4897    0.4889 C   0  0  0  0  0  0  0  0  0  0  0  0
   -2.8025    0.7744    1.6584 C   0  0  0  0  0  0  0  0  0  0  0  0
   -4.2714    0.8015    1.9337 C   0  0  0  0  0  0  0  0  0  0  0  0
   -2.8571    0.2484   -0.3784 H   0  0  0  0  0  0  0  0  0  0  0  0
   -2.1546    1.0100    2.4988 H   0  0  0  0  0  0  0  0  0  0  0  0
   -4.5327    0.0897    2.7210 H   0  0  0  0  0  0  0  0  0  0  0  0
   -4.8488    0.5548    1.0419 H   0  0  0  0  0  0  0  0  0  0  0  0
   -4.5833    1.7890    2.2836 H   0  0  0  0  0  0  0  0  0  0  0  0
    2.3295   -2.1411   -2.2143 C   0  0  0  0  0  0  0  0  0  0  0  0
    2.3295   -2.1411   -0.6914 C   0  0  0  0  0  0  0  0  0  0  0  0
    2.3295   -0.7480   -0.0959 C   0  0  0  0  0  0  0  0  0  0  0  0
    1.1465   -0.0844   -0.4635 O   0  0  0  0  0  0  0  0  0  0  0  0
    1.0758    1.2336    0.0174 C   0  0  0  0  0  0  0  0  0  0  0  0
   -0.2275    1.8514   -0.4334 C   0  0  0  0  0  3  0  0  0  0  0  0
    3.2116   -1.6268   -2.6040 H   0  0  0  0  0  0  0  0  0  0  0  0
    1.4468   -1.6314   -2.6004 H   0  0  0  0  0  0  0  0  0  0  0  0
    2.3350   -3.1590   -2.6070 H   0  0  0  0  0  0  0  0  0  0  0  0
    3.2111   -2.6676   -0.3152 H   0  0  0  0  0  0  0  0  0  0  0  0
    1.4551   -2.6791   -0.3162 H   0  0  0  0  0  0  0  0  0  0  0  0
    3.2037   -0.1829   -0.4563 H   0  0  0  0  0  0  0  0  0  0  0  0
    2.4043   -0.8019    1.0001 H   0  0  0  0  0  0  0  0  0  0  0  0
    1.1431    1.2365    1.1155 H   0  0  0  0  0  0  0  0  0  0  0  0
    1.9287    1.8166   -0.3605 H   0  0  0  0  0  0  0  0  0  0  0  0
   -1.2431    1.1681    0.0294 H   0  0  0  0  0  0  0  0  0  0  0  0
   -0.2883    1.8633   -1.5223 H   0  0  0  0  0  0  0  0  0  0  0  0
   -0.3051    2.8774   -0.0704 H   0  0  0  0  0  0  0  0  0  0  0  0
  1  2  2  3
  1  4  1  0
  1 24  1  0
  2  3  1  0
  2  5  1  0
  3  6  1  0
  3  7  1  0
  3  8  1  0
  9 10  1  0
  9 15  1  0
  9 16  1  0
  9 17  1  0
 10 11  1  0
 10 18  1  0
 10 19  1  0
 11 12  1  0
 11 20  1  0
 11 21  1  0
 12 13  1  0
 13 14  1  0
 13 22  1  0
 13 23  1  0
 14 25  1  0
 14 26  1  0
M  RAD  1  14   2
M  END
>  <reaction>  (12) 
rmg_rxn_349

>  <mol_properties>  (12) 
{"0": {"label": "*3", "atom_type": "Cd"}, "1": {"label": "*4", "atom_type": "Cd"}, "12": {"label": "*0", "atom_type": "Cs"}, "13": {"label": "*1", "atom_type": "Cs"}, "23": {"label": "*2", "atom_type": "H0"}}

>  <type>  (12) 
unop_8

>  <geom_source>  (12) 
Heuristics

$$$$

     RDKit          3D

 26 24  0  0  0  0  0  0  0  0999 V2000
   -2.4269    0.9505    0.7086 C   0  0  0  0  0  0  0  0  0  0  0  0
   -2.3417   -0.3515    0.9317 C   0  0  0  0  0  0  0  0  0  0  0  0
   -3.5059   -1.2754    1.0906 C   0  0  0  0  0  0  0  0  0  0  0  0
   -3.3870    1.4486    0.6237 H   0  0  0  0  0  0  0  0  0  0  0  0
   -1.3573   -0.8060    1.0092 H   0  0  0  0  0  0  0  0  0  0  0  0
   -3.4814   -2.0653    0.3354 H   0  0  0  0  0  0  0  0  0  0  0  0
   -4.4531   -0.7424    0.9996 H   0  0  0  0  0  0  0  0  0  0  0  0
   -3.4807   -1.7687    2.0656 H   0  0  0  0  0  0  0  0  0  0  0  0
    2.1541   -1.6803   -1.9946 C   0  0  0  0  0  0  0  0  0  0  0  0
    2.1541   -1.6803   -0.4717 C   0  0  0  0  0  0  0  0  0  0  0  0
    2.1541   -0.2872    0.1238 C   0  0  0  0  0  0  0  0  0  0  0  0
    0.9711    0.3764   -0.2438 O   0  0  0  0  0  0  0  0  0  0  0  0
    0.9004    1.6944    0.2371 C   0  0  0  0  0  0  0  0  0  0  0  0
   -0.4029    2.3122   -0.2137 C   0  0  0  0  0  3  0  0  0  0  0  0
    3.0362   -1.1660   -2.3842 H   0  0  0  0  0  0  0  0  0  0  0  0
    1.2714   -1.1706   -2.3807 H   0  0  0  0  0  0  0  0  0  0  0  0
    2.1596   -2.6982   -2.3872 H   0  0  0  0  0  0  0  0  0  0  0  0
    3.0357   -2.2068   -0.0954 H   0  0  0  0  0  0  0  0  0  0  0  0
    1.2798   -2.2183   -0.0964 H   0  0  0  0  0  0  0  0  0  0  0  0
    3.0283    0.2778   -0.2365 H   0  0  0  0  0  0  0  0  0  0  0  0
    2.2289   -0.3412    1.2199 H   0  0  0  0  0  0  0  0  0  0  0  0
    0.9677    1.6973    1.3352 H   0  0  0  0  0  0  0  0  0  0  0  0
    1.7533    2.2774   -0.1407 H   0  0  0  0  0  0  0  0  0  0  0  0
   -1.4185    1.6289    0.2491 H   0  0  0  0  0  0  0  0  0  0  0  0
   -0.4637    2.3241   -1.3025 H   0  0  0  0  0  0  0  0  0  0  0  0
   -0.4805    3.3382    0.1494 H   0  0  0  0  0  0  0  0  0  0  0  0
  1  2  2  3
  1  4  1  0
  1 24  1  0
  2  3  1  0
  2  5  1  0
  3  6  1  0
  3  7  1  0
  3  8  1  0
  9 10  1  0
  9 15  1  0
  9 16  1  0
  9 17  1  0
 10 11  1  0
 10 18  1  0
 10 19  1  0
 11 12  1  0
 11 20  1  0
 11 21  1  0
 12 13  1  0
 13 14  1  0
 13 22  1  0
 13 23  1  0
 14 25  1  0
 14 26  1  0
M  RAD  1  14   2
M  END
>  <reaction>  (13) 
rmg_rxn_349

>  <mol_properties>  (13) 
{"0": {"label": "*3", "atom_type": "Cd"}, "1": {"label": "*4", "atom_type": "Cd"}, "12": {"label": "*0", "atom_type": "Cs"}, "13": {"label": "*1", "atom_type": "Cs"}, "23": {"label": "*2", "atom_type": "H0"}}

>  <type>  (13) 
unop_9

>  <geom_source>  (13) 
Heuristics

$$$$

     RDKit          3D

 26 24  0  0  0  0  0  0  0  0999 V2000
   -2.3456    0.6033    0.4131 C   0  0  0  0  0  0  0  0  0  0  0  0
   -2.5391    0.4450    1.7130 C   0  0  0  0  0  0  0  0  0  0  0  0
   -3.8735    0.3298    2.3766 C   0  0  0  0  0  0  0  0  0  0  0  0
   -3.1781    0.6617   -0.2801 H   0  0  0  0  0  0  0  0  0  0  0  0
   -1.6736    0.3919    2.3685 H   0  0  0  0  0  0  0  0  0  0  0  0
   -3.9614   -0.6196    2.9111 H   0  0  0  0  0  0  0  0  0  0  0  0
   -4.6860    0.3926    1.6517 H   0  0  0  0  0  0  0  0  0  0  0  0
   -4.0098    1.1232    3.1161 H   0  0  0  0  0  0  0  0  0  0  0  0
    2.2355   -2.0275   -2.2901 C   0  0  0  0  0  0  0  0  0  0  0  0
    2.2355   -2.0275   -0.7672 C   0  0  0  0  0  0  0  0  0  0  0  0
    2.2355   -0.6344   -0.1717 C   0  0  0  0  0  0  0  0  0  0  0  0
    1.0525    0.0292   -0.5393 O   0  0  0  0  0  0  0  0  0  0  0  0
    0.9818    1.3472   -0.0584 C   0  0  0  0  0  0  0  0  0  0  0  0
   -0.3216    1.9650   -0.5092 C   0  0  0  0  0  3  0  0  0  0  0  0
    3.1175   -1.5132   -2.6797 H   0  0  0  0  0  0  0  0  0  0  0  0
    1.3527   -1.5178   -2.6762 H   0  0  0  0  0  0  0  0  0  0  0  0
    2.2409   -3.0454   -2.6828 H   0  0  0  0  0  0  0  0  0  0  0  0
    3.1170   -2.5540   -0.3909 H   0  0  0  0  0  0  0  0  0  0  0  0
    1.3611   -2.5655   -0.3919 H   0  0  0  0  0  0  0  0  0  0  0  0
    3.1097   -0.0694   -0.5321 H   0  0  0  0  0  0  0  0  0  0  0  0
    2.3103   -0.6884    0.9244 H   0  0  0  0  0  0  0  0  0  0  0  0
    1.0490    1.3501    1.0397 H   0  0  0  0  0  0  0  0  0  0  0  0
    1.8346    1.9302   -0.4363 H   0  0  0  0  0  0  0  0  0  0  0  0
   -1.3372    1.2817   -0.0464 H   0  0  0  0  0  0  0  0  0  0  0  0
   -0.3824    1.9769   -1.5980 H   0  0  0  0  0  0  0  0  0  0  0  0
   -0.3992    2.9910   -0.1462 H   0  0  0  0  0  0  0  0  0  0  0  0
  1  2  2  3
  1  4  1  0
  1 24  1  0
  2  3  1  0
  2  5  1  0
  3  6  1  0
  3  7  1  0
  3  8  1  0
  9 10  1  0
  9 15  1  0
  9 16  1  0
  9 17  1  0
 10 11  1  0
 10 18  1  0
 10 19  1  0
 11 12  1  0
 11 20  1  0
 11 21  1  0
 12 13  1  0
 13 14  1  0
 13 22  1  0
 13 23  1  0
 14 25  1  0
 14 26  1  0
M  RAD  1  14   2
M  END
>  <reaction>  (14) 
rmg_rxn_349

>  <mol_properties>  (14) 
{"0": {"label": "*3", "atom_type": "Cd"}, "1": {"label": "*4", "atom_type": "Cd"}, "12": {"label": "*0", "atom_type": "Cs"}, "13": {"label": "*1", "atom_type": "Cs"}, "23": {"label": "*2", "atom_type": "H0"}}

>  <type>  (14) 
unop_10

>  <geom_source>  (14) 
Heuristics

$$$$

     RDKit          3D

 26 24  0  0  0  0  0  0  0  0999 V2000
   -2.1360    0.5702    0.8422 C   0  0  0  0  0  0  0  0  0  0  0  0
   -3.2828    0.5028    0.1844 C   0  0  0  0  0  0  0  0  0  0  0  0
   -4.6378    0.4970    0.8155 C   0  0  0  0  0  0  0  0  0  0  0  0
   -2.1073    0.6279    1.9252 H   0  0  0  0  0  0  0  0  0  0  0  0
   -3.2612    0.4463   -0.9009 H   0  0  0  0  0  0  0  0  0  0  0  0
   -5.2356    1.3405    0.4606 H   0  0  0  0  0  0  0  0  0  0  0  0
   -4.5715    0.5560    1.9025 H   0  0  0  0  0  0  0  0  0  0  0  0
   -5.1853   -0.4118    0.5527 H   0  0  0  0  0  0  0  0  0  0  0  0
    2.4450   -2.0606   -1.8610 C   0  0  0  0  0  0  0  0  0  0  0  0
    2.4450   -2.0606   -0.3381 C   0  0  0  0  0  0  0  0  0  0  0  0
    2.4450   -0.6675    0.2574 C   0  0  0  0  0  0  0  0  0  0  0  0
    1.2620   -0.0040   -0.1102 O   0  0  0  0  0  0  0  0  0  0  0  0
    1.1913    1.3141    0.3707 C   0  0  0  0  0  0  0  0  0  0  0  0
   -0.1120    1.9319   -0.0801 C   0  0  0  0  0  3  0  0  0  0  0  0
    3.3271   -1.5463   -2.2506 H   0  0  0  0  0  0  0  0  0  0  0  0
    1.5623   -1.5509   -2.2471 H   0  0  0  0  0  0  0  0  0  0  0  0
    2.4505   -3.0785   -2.2537 H   0  0  0  0  0  0  0  0  0  0  0  0
    3.3265   -2.5871    0.0382 H   0  0  0  0  0  0  0  0  0  0  0  0
    1.5706   -2.5986    0.0372 H   0  0  0  0  0  0  0  0  0  0  0  0
    3.3192   -0.1025   -0.1030 H   0  0  0  0  0  0  0  0  0  0  0  0
    2.5198   -0.7215    1.3535 H   0  0  0  0  0  0  0  0  0  0  0  0
    1.2585    1.3170    1.4688 H   0  0  0  0  0  0  0  0  0  0  0  0
    2.0441    1.8971   -0.0072 H   0  0  0  0  0  0  0  0  0  0  0  0
   -1.1277    1.2486    0.3827 H   0  0  0  0  0  0  0  0  0  0  0  0
   -0.1729    1.9437   -1.1689 H   0  0  0  0  0  0  0  0  0  0  0  0
   -0.1897    2.9579    0.2829 H   0  0  0  0  0  0  0  0  0  0  0  0
  1  2  2  3
  1  4  1  0
  1 24  1  0
  2  3  1  0
  2  5  1  0
  3  6  1  0
  3  7  1  0
  3  8  1  0
  9 10  1  0
  9 15  1  0
  9 16  1  0
  9 17  1  0
 10 11  1  0
 10 18  1  0
 10 19  1  0
 11 12  1  0
 11 20  1  0
 11 21  1  0
 12 13  1  0
 13 14  1  0
 13 22  1  0
 13 23  1  0
 14 25  1  0
 14 26  1  0
M  RAD  1  14   2
M  END
>  <reaction>  (15) 
rmg_rxn_349

>  <mol_properties>  (15) 
{"0": {"label": "*3", "atom_type": "Cd"}, "1": {"label": "*4", "atom_type": "Cd"}, "12": {"label": "*0", "atom_type": "Cs"}, "13": {"label": "*1", "atom_type": "Cs"}, "23": {"label": "*2", "atom_type": "H0"}}

>  <type>  (15) 
unop_11

>  <geom_source>  (15) 
Heuristics

$$$$

     RDKit          3D

 26 24  0  0  0  0  0  0  0  0999 V2000
   -2.4542    0.8906    0.5432 C   0  0  0  0  0  0  0  0  0  0  0  0
   -2.2804   -0.1838    1.2967 C   0  0  0  0  0  0  0  0  0  0  0  0
   -3.3789   -1.0220    1.8666 C   0  0  0  0  0  0  0  0  0  0  0  0
   -3.4460    1.2441    0.2817 H   0  0  0  0  0  0  0  0  0  0  0  0
   -1.2673   -0.4997    1.5323 H   0  0  0  0  0  0  0  0  0  0  0  0
   -3.2999   -2.0553    1.5191 H   0  0  0  0  0  0  0  0  0  0  0  0
   -4.3602   -0.6387    1.5844 H   0  0  0  0  0  0  0  0  0  0  0  0
   -3.3208   -1.0497    2.9578 H   0  0  0  0  0  0  0  0  0  0  0  0
    2.1269   -1.7402   -2.1600 C   0  0  0  0  0  0  0  0  0  0  0  0
    2.1269   -1.7402   -0.6371 C   0  0  0  0  0  0  0  0  0  0  0  0
    2.1269   -0.3471   -0.0416 C   0  0  0  0  0  0  0  0  0  0  0  0
    0.9439    0.3165   -0.4092 O   0  0  0  0  0  0  0  0  0  0  0  0
    0.8732    1.6345    0.0717 C   0  0  0  0  0  0  0  0  0  0  0  0
   -0.4302    2.2523   -0.3791 C   0  0  0  0  0  3  0  0  0  0  0  0
    3.0090   -1.2259   -2.5496 H   0  0  0  0  0  0  0  0  0  0  0  0
    1.2442   -1.2305   -2.5461 H   0  0  0  0  0  0  0  0  0  0  0  0
    2.1324   -2.7581   -2.5527 H   0  0  0  0  0  0  0  0  0  0  0  0
    3.0084   -2.2667   -0.2608 H   0  0  0  0  0  0  0  0  0  0  0  0
    1.2525   -2.2782   -0.2618 H   0  0  0  0  0  0  0  0  0  0  0  0
    3.0011    0.2179   -0.4020 H   0  0  0  0  0  0  0  0  0  0  0  0
    2.2017   -0.4011    1.0545 H   0  0  0  0  0  0  0  0  0  0  0  0
    0.9404    1.6374    1.1698 H   0  0  0  0  0  0  0  0  0  0  0  0
    1.7260    2.2175   -0.3062 H   0  0  0  0  0  0  0  0  0  0  0  0
   -1.4458    1.5690    0.0837 H   0  0  0  0  0  0  0  0  0  0  0  0
   -0.4910    2.2641   -1.4679 H   0  0  0  0  0  0  0  0  0  0  0  0
   -0.5078    3.2783   -0.0161 H   0  0  0  0  0  0  0  0  0  0  0  0
  1  2  2  3
  1  4  1  0
  1 24  1  0
  2  3  1  0
  2  5  1  0
  3  6  1  0
  3  7  1  0
  3  8  1  0
  9 10  1  0
  9 15  1  0
  9 16  1  0
  9 17  1  0
 10 11  1  0
 10 18  1  0
 10 19  1  0
 11 12  1  0
 11 20  1  0
 11 21  1  0
 12 13  1  0
 13 14  1  0
 13 22  1  0
 13 23  1  0
 14 25  1  0
 14 26  1  0
M  RAD  1  14   2
M  END
>  <reaction>  (16) 
rmg_rxn_349

>  <mol_properties>  (16) 
{"0": {"label": "*3", "atom_type": "Cd"}, "1": {"label": "*4", "atom_type": "Cd"}, "12": {"label": "*0", "atom_type": "Cs"}, "13": {"label": "*1", "atom_type": "Cs"}, "23": {"label": "*2", "atom_type": "H0"}}

>  <type>  (16) 
unop_12

>  <geom_source>  (16) 
Heuristics

$$$$

     RDKit          3D

 26 24  0  0  0  0  0  0  0  0999 V2000
   -1.4472   -0.2615   -0.8302 O   0  0  0  0  0  0  0  0  0  0  0  0
   -3.7365   -0.5183   -0.1371 C   0  0  0  0  0  0  0  0  0  0  0  0
   -2.2901   -0.9797    0.0467 C   0  0  0  0  0  0  0  0  0  0  0  0
   -0.1112   -0.6760   -0.6427 C   0  0  0  0  0  0  0  0  0  0  0  0
   -3.9243    0.9416    0.2709 C   0  0  0  0  0  0  0  0  0  0  0  0
    4.5143    0.3635    1.5380 C   0  0  0  0  0  0  0  0  0  0  0  0
    3.3226    0.7169    0.7035 C   0  0  0  0  0  0  0  0  0  0  0  0
    0.7885    0.0923   -1.5949 C   0  0  0  0  0  3  0  0  0  0  0  0
    3.1050    0.1289   -0.4743 C   0  0  0  0  0  0  0  0  0  0  0  0
   -4.4018   -1.1539    0.4867 H   0  0  0  0  0  0  0  0  0  0  0  0
   -4.0349   -0.6455   -1.2004 H   0  0  0  0  0  0  0  0  0  0  0  0
   -1.9940   -0.8211    1.1095 H   0  0  0  0  0  0  0  0  0  0  0  0
   -2.2480   -2.0694   -0.1811 H   0  0  0  0  0  0  0  0  0  0  0  0
    0.2286   -0.4660    0.3965 H   0  0  0  0  0  0  0  0  0  0  0  0
    0.0040   -1.7618   -0.8604 H   0  0  0  0  0  0  0  0  0  0  0  0
   -3.3020    1.6064   -0.3651 H   0  0  0  0  0  0  0  0  0  0  0  0
   -3.6434    1.0842    1.3361 H   0  0  0  0  0  0  0  0  0  0  0  0
   -4.9895    1.2278    0.1439 H   0  0  0  0  0  0  0  0  0  0  0  0
    5.4478    0.5820    0.9777 H   0  0  0  0  0  0  0  0  0  0  0  0
    4.4856   -0.7146    1.8027 H   0  0  0  0  0  0  0  0  0  0  0  0
    4.5078    0.9629    2.4724 H   0  0  0  0  0  0  0  0  0  0  0  0
    2.6220    1.4648    1.0618 H   0  0  0  0  0  0  0  0  0  0  0  0
    0.7223    1.1825   -1.3931 H   0  0  0  0  0  0  0  0  0  0  0  0
    0.4987   -0.1106   -2.6478 H   0  0  0  0  0  0  0  0  0  0  0  0
    3.7885   -0.6227   -0.8583 H   0  0  0  0  0  0  0  0  0  0  0  0
    2.0871    0.4472   -1.1612 H   0  0  0  0  0  0  0  0  0  0  0  0
  1  4  1  0
  1  3  1  0
  2  5  1  0
  2  3  1  0
  2 10  1  0
  2 11  1  0
  3 12  1  0
  3 13  1  0
  4  8  1  0
  4 14  1  0
  4 15  1  0
  5 16  1  0
  5 17  1  0
  5 18  1  0
  6  7  1  0
  6 19  1  0
  6 20  1  0
  6 21  1  0
  7  9  2  3
  7 22  1  0
  8 23  1  0
  8 24  1  0
  9 25  1  0
  9 26  1  0
M  RAD  1   8   2
M  END
>  <reaction>  (17) 
rmg_rxn_349

>  <mol_properties>  (17) 
{"0": {"label": "*3", "atom_type": "Cd"}, "1": {"label": "*4", "atom_type": "Cd"}, "12": {"label": "*0", "atom_type": "Cs"}, "13": {"label": "*1", "atom_type": "Cs"}, "23": {"label": "*2", "atom_type": "H0"}}

>  <type>  (17) 
unop_13

>  <geom_source>  (17) 
AutoTST

$$$$

     RDKit          3D

 26 24  0  0  0  0  0  0  0  0999 V2000
   -2.4228    0.7562    0.4307 C   0  0  0  0  0  0  0  0  0  0  0  0
   -2.3511    0.1005    1.5784 C   0  0  0  0  0  0  0  0  0  0  0  0
   -3.5245   -0.3821    2.3686 C   0  0  0  0  0  0  0  0  0  0  0  0
   -3.3775    0.9940   -0.0266 H   0  0  0  0  0  0  0  0  0  0  0  0
   -1.3717   -0.1150    1.9978 H   0  0  0  0  0  0  0  0  0  0  0  0
   -3.4870   -1.4668    2.4975 H   0  0  0  0  0  0  0  0  0  0  0  0
   -4.4660   -0.1265    1.8807 H   0  0  0  0  0  0  0  0  0  0  0  0
   -3.5256    0.0559    3.3700 H   0  0  0  0  0  0  0  0  0  0  0  0
    2.1582   -1.8746   -2.2725 C   0  0  0  0  0  0  0  0  0  0  0  0
    2.1582   -1.8746   -0.7496 C   0  0  0  0  0  0  0  0  0  0  0  0
    2.1582   -0.4815   -0.1541 C   0  0  0  0  0  0  0  0  0  0  0  0
    0.9752    0.1821   -0.5217 O   0  0  0  0  0  0  0  0  0  0  0  0
    0.9045    1.5001   -0.0408 C   0  0  0  0  0  0  0  0  0  0  0  0
   -0.3988    2.1179   -0.4916 C   0  0  0  0  0  3  0  0  0  0  0  0
    3.0403   -1.3602   -2.6621 H   0  0  0  0  0  0  0  0  0  0  0  0
    1.2755   -1.3649   -2.6586 H   0  0  0  0  0  0  0  0  0  0  0  0
    2.1637   -2.8924   -2.6652 H   0  0  0  0  0  0  0  0  0  0  0  0
    3.0397   -2.4011   -0.3733 H   0  0  0  0  0  0  0  0  0  0  0  0
    1.2838   -2.4125   -0.3743 H   0  0  0  0  0  0  0  0  0  0  0  0
    3.0324    0.0836   -0.5145 H   0  0  0  0  0  0  0  0  0  0  0  0
    2.2330   -0.5354    0.9419 H   0  0  0  0  0  0  0  0  0  0  0  0
    0.9717    1.5030    1.0573 H   0  0  0  0  0  0  0  0  0  0  0  0
    1.7573    2.0831   -0.4187 H   0  0  0  0  0  0  0  0  0  0  0  0
   -1.4145    1.4346   -0.0288 H   0  0  0  0  0  0  0  0  0  0  0  0
   -0.4597    2.1298   -1.5804 H   0  0  0  0  0  0  0  0  0  0  0  0
   -0.4765    3.1439   -0.1286 H   0  0  0  0  0  0  0  0  0  0  0  0
  1  2  2  3
  1  4  1  0
  1 24  1  0
  2  3  1  0
  2  5  1  0
  3  6  1  0
  3  7  1  0
  3  8  1  0
  9 10  1  0
  9 15  1  0
  9 16  1  0
  9 17  1  0
 10 11  1  0
 10 18  1  0
 10 19  1  0
 11 12  1  0
 11 20  1  0
 11 21  1  0
 12 13  1  0
 13 14  1  0
 13 22  1  0
 13 23  1  0
 14 25  1  0
 14 26  1  0
M  RAD  1  14   2
M  END
>  <reaction>  (18) 
rmg_rxn_349

>  <mol_properties>  (18) 
{"0": {"label": "*3", "atom_type": "Cd"}, "1": {"label": "*4", "atom_type": "Cd"}, "12": {"label": "*0", "atom_type": "Cs"}, "13": {"label": "*1", "atom_type": "Cs"}, "23": {"label": "*2", "atom_type": "H0"}}

>  <type>  (18) 
unop_14

>  <geom_source>  (18) 
gaussian_log

$$$$
