
     RDKit          3D

 12 11  0  0  0  0  0  0  0  0999 V2000
   -1.4643   -0.2505   -0.5284 C   0  0  0  0  0  0  0  0  0  0  0  0
   -0.3946    0.4302    0.3143 C   0  0  0  0  0  0  0  0  0  0  0  0
   -0.5959    0.2382    1.8102 C   0  0  0  0  0  0  0  0  0  0  0  0
   -0.5633   -1.1190    2.2092 O   0  0  0  0  0  0  0  0  0  0  0  0
   -2.4511    0.1644   -0.3109 H   0  0  0  0  0  0  0  0  0  0  0  0
   -1.5019   -1.3198   -0.3181 H   0  0  0  0  0  0  0  0  0  0  0  0
   -1.2720   -0.1182   -1.5941 H   0  0  0  0  0  0  0  0  0  0  0  0
    0.5965    0.0515    0.0385 H   0  0  0  0  0  0  0  0  0  0  0  0
   -0.3776    1.5047    0.1078 H   0  0  0  0  0  0  0  0  0  0  0  0
   -1.5821    0.6048    2.1034 H   0  0  0  0  0  0  0  0  0  0  0  0
    0.1495    0.8220    2.3649 H   0  0  0  0  0  0  0  0  0  0  0  0
    0.3017   -1.4750    1.9997 H   0  0  0  0  0  0  0  0  0  0  0  0
  1  2  1  0
  1  5  1  0
  1  6  1  0
  1  7  1  0
  2  3  1  0
  2  8  1  0
  2  9  1  0
  3  4  1  0
  3 10  1  0
  3 11  1  0
  4 12  1  0
M  END
>  <reaction>  (1) 
rmg_rxn_15679

>  <mol_properties>  (1) 
{"2": {"label": "donator", "atom_type": "Cs"}, "9": {"label": "d_hydrogen", "atom_type": "H0"}}

>  <type>  (1) 
r1h

$$$$

     RDKit          3D

  8  7  0  0  0  0  0  0  0  0999 V2000
    1.7077   -0.1964   -0.0607 C   0  0  0  0  0  3  0  0  0  0  0  0
    0.4209   -0.4565    0.2808 O   0  0  0  0  0  0  0  0  0  0  0  0
   -0.4607    0.4385   -0.2968 N   0  0  0  0  0  0  0  0  0  0  0  0
   -1.6584    0.1416   -0.0244 C   0  0  0  0  0  0  0  0  0  0  0  0
    2.4163   -0.7685    0.5170 H   0  0  0  0  0  0  0  0  0  0  0  0
    1.9214    0.7645   -0.5045 H   0  0  0  0  0  0  0  0  0  0  0  0
   -2.4185    0.7953   -0.4307 H   0  0  0  0  0  0  0  0  0  0  0  0
   -1.9286   -0.7185    0.5831 H   0  0  0  0  0  0  0  0  0  0  0  0
  1  2  1  0
  1  5  1  0
  1  6  1  0
  2  3  1  0
  3  4  2  3
  4  7  1  0
  4  8  1  0
M  RAD  1   1   2
M  END
>  <reaction>  (2) 
rmg_rxn_15679

>  <mol_properties>  (2) 
{"0": {"label": "acceptor", "atom_type": "Cs"}}

>  <type>  (2) 
r2

$$$$

     RDKit          3D

  9  8  0  0  0  0  0  0  0  0999 V2000
   -1.5470   -0.0755   -0.1976 C   0  0  0  0  0  0  0  0  0  0  0  0
   -0.2885    0.4507    0.1749 O   0  0  0  0  0  0  0  0  0  0  0  0
   -0.1502    1.7216   -0.3294 N   0  0  0  0  0  0  0  0  0  0  0  0
    0.9626    2.2353   -0.0219 C   0  0  0  0  0  0  0  0  0  0  0  0
   -1.6392   -0.1356   -1.2844 H   0  0  0  0  0  0  0  0  0  0  0  0
   -2.3597    0.5337    0.2044 H   0  0  0  0  0  0  0  0  0  0  0  0
   -1.5879   -1.0750    0.2318 H   0  0  0  0  0  0  0  0  0  0  0  0
    1.1497    3.2381   -0.3820 H   0  0  0  0  0  0  0  0  0  0  0  0
    1.7060    1.7101    0.5739 H   0  0  0  0  0  0  0  0  0  0  0  0
  1  2  1  0
  1  5  1  0
  1  6  1  0
  1  7  1  0
  2  3  1  0
  3  4  2  3
  4  8  1  0
  4  9  1  0
M  END
>  <reaction>  (3) 
rmg_rxn_15679

>  <mol_properties>  (3) 
{"0": {"label": "acceptor", "atom_type": "Cs"}, "8": {"label": "a_hydrogen", "atom_type": "H0"}}

>  <type>  (3) 
r2h

$$$$

     RDKit          3D

 20 18  0  0  0  0  0  0  0  0999 V2000
    0.6872   -0.4793    1.5792 C   0  0  0  0  0  3  0  0  0  0  0  0
    1.4917   -0.7751    0.4774 O   0  0  0  0  0  0  0  0  0  0  0  0
    1.6853    0.3372   -0.3068 N   0  0  0  0  0  0  0  0  0  0  0  0
    2.5153    0.1277   -1.2373 C   0  0  0  0  0  0  0  0  0  0  0  0
    0.5177   -1.4034    2.1228 H   0  0  0  0  0  0  0  0  0  0  0  0
    1.0726    0.3406    2.1853 H   0  0  0  0  0  0  0  0  0  0  0  0
    2.7124    0.9532   -1.9077 H   0  0  0  0  0  0  0  0  0  0  0  0
    3.0133   -0.8297   -1.3684 H   0  0  0  0  0  0  0  0  0  0  0  0
   -2.2624   -1.5603   -0.4516 C   0  0  0  0  0  0  0  0  0  0  0  0
   -1.7169   -0.1895   -0.8282 C   0  0  0  0  0  0  0  0  0  0  0  0
   -1.4344    0.6633    0.3862 C   0  0  0  0  0  0  0  0  0  0  0  0
   -0.8810    1.9087    0.1394 O   0  0  0  0  0  0  0  0  0  0  0  0
   -3.1834   -1.4711    0.1290 H   0  0  0  0  0  0  0  0  0  0  0  0
   -1.5407   -2.1165    0.1501 H   0  0  0  0  0  0  0  0  0  0  0  0
   -2.4848   -2.1538   -1.3390 H   0  0  0  0  0  0  0  0  0  0  0  0
   -0.7955   -0.3006   -1.4078 H   0  0  0  0  0  0  0  0  0  0  0  0
   -2.4277    0.3403   -1.4723 H   0  0  0  0  0  0  0  0  0  0  0  0
   -0.5375    0.0027    1.0873 H   0  0  0  0  0  0  0  0  0  0  0  0
   -2.2979    0.7814    1.0435 H   0  0  0  0  0  0  0  0  0  0  0  0
    0.0092    1.7608   -0.2048 H   0  0  0  0  0  0  0  0  0  0  0  0
  1  2  1  0
  1  5  1  0
  1  6  1  0
  2  3  1  0
  3  4  2  3
  4  7  1  0
  4  8  1  0
  9 10  1  0
  9 13  1  0
  9 14  1  0
  9 15  1  0
 10 11  1  0
 10 16  1  0
 10 17  1  0
 11 12  1  0
 11 18  1  0
 11 19  1  0
 12 20  1  0
M  RAD  1   1   2
M  END
>  <reaction>  (4) 
rmg_rxn_15679

>  <mol_properties>  (4) 
{"0": {"label": "*3", "atom_type": "Cs"}, "1": {"label": "*4", "atom_type": "O2s"}, "9": {"label": "*0", "atom_type": "Cs"}, "10": {"label": "*1", "atom_type": "Cs"}, "17": {"label": "*2", "atom_type": "H0"}}

>  <type>  (4) 
ts

$$$$

     RDKit          3D

 20 18  0  0  0  0  0  0  0  0999 V2000
    0.6207    0.5045   -1.6211 C   0  0  0  0  0  0  0  0  0  0  0  0
    1.4586    0.8252   -0.5522 O   0  0  0  0  0  0  0  0  0  0  0  0
    1.6240   -0.2454    0.3079 N   0  0  0  0  0  0  0  0  0  0  0  0
    2.4523   -0.0815    1.2478 C   0  0  0  0  0  0  0  0  0  0  0  0
    0.4102    1.4240   -2.1543 H   0  0  0  0  0  0  0  0  0  0  0  0
    1.0221   -0.2815   -2.2589 H   0  0  0  0  0  0  0  0  0  0  0  0
    2.5855   -0.9083    1.9232 H   0  0  0  0  0  0  0  0  0  0  0  0
    3.0221    0.8279    1.4081 H   0  0  0  0  0  0  0  0  0  0  0  0
   -2.1765    1.5434    0.4891 C   0  0  0  0  0  0  0  0  0  0  0  0
   -1.6996    0.1377    0.8326 C   0  0  0  0  0  0  0  0  0  0  0  0
   -1.4065   -0.6793   -0.4093 C   0  0  0  0  0  3  0  0  0  0  0  0
   -0.8491   -1.9292   -0.1949 O   0  0  0  0  0  0  0  0  0  0  0  0
   -2.4337    2.0871    1.3946 H   0  0  0  0  0  0  0  0  0  0  0  0
   -3.0554    1.5028   -0.1502 H   0  0  0  0  0  0  0  0  0  0  0  0
   -1.3966    2.0933   -0.0315 H   0  0  0  0  0  0  0  0  0  0  0  0
   -0.7971    0.1939    1.4478 H   0  0  0  0  0  0  0  0  0  0  0  0
   -2.4684   -0.3745    1.4236 H   0  0  0  0  0  0  0  0  0  0  0  0
   -0.4905    0.0026   -1.1100 H   0  0  0  0  0  0  0  0  0  0  0  0
   -2.2679   -0.7978   -1.0658 H   0  0  0  0  0  0  0  0  0  0  0  0
   -0.0430   -1.8152    0.3308 H   0  0  0  0  0  0  0  0  0  0  0  0
  1  2  1  0
  1  5  1  0
  1  6  1  0
  1 18  1  0
  2  3  1  0
  3  4  2  3
  4  7  1  0
  4  8  1  0
  9 10  1  0
  9 13  1  0
  9 14  1  0
  9 15  1  0
 10 11  1  0
 10 16  1  0
 10 17  1  0
 11 12  1  0
 11 19  1  0
 12 20  1  0
M  RAD  1  11   2
M  END
>  <reaction>  (5) 
rmg_rxn_15679

>  <mol_properties>  (5) 
{"0": {"label": "*3", "atom_type": "Cs"}, "1": {"label": "*4", "atom_type": "O2s"}, "9": {"label": "*0", "atom_type": "Cs"}, "10": {"label": "*1", "atom_type": "Cs"}, "17": {"label": "*2", "atom_type": "H0"}}

>  <type>  (5) 
unop_1

>  <geom_source>  (5) 
crest_best.xyz

$$$$

     RDKit          3D

 20 18  0  0  0  0  0  0  0  0999 V2000
    1.2668    0.1174    0.2017 C   0  0  0  0  0  0  0  0  0  0  0  0
    0.7324    1.2432   -0.4666 O   0  0  0  0  0  0  0  0  0  0  0  0
    1.5249    2.3410   -0.2309 N   0  0  0  0  0  0  0  0  0  0  0  0
    1.0864    3.3753   -0.8094 C   0  0  0  0  0  0  0  0  0  0  0  0
    2.2714   -0.1117   -0.1609 H   0  0  0  0  0  0  0  0  0  0  0  0
    1.2971    0.2818    1.2811 H   0  0  0  0  0  0  0  0  0  0  0  0
    1.6556    4.2851   -0.6731 H   0  0  0  0  0  0  0  0  0  0  0  0
    0.1842    3.3690   -1.4172 H   0  0  0  0  0  0  0  0  0  0  0  0
   -0.7965   -2.6296   -1.0428 C   0  0  0  0  0  0  0  0  0  0  0  0
   -0.7965   -2.6296    0.4797 C   0  0  0  0  0  0  0  0  0  0  0  0
   -0.7965   -1.2316    1.0804 C   0  0  0  0  0  3  0  0  0  0  0  0
   -1.9303   -0.4669    0.7173 O   0  0  0  0  0  0  0  0  0  0  0  0
    0.1028   -2.1452   -1.4302 H   0  0  0  0  0  0  0  0  0  0  0  0
   -1.6580   -2.0854   -1.4309 H   0  0  0  0  0  0  0  0  0  0  0  0
   -0.8273   -3.6458   -1.4384 H   0  0  0  0  0  0  0  0  0  0  0  0
   -1.6698   -3.1762    0.8541 H   0  0  0  0  0  0  0  0  0  0  0  0
    0.0809   -3.1630    0.8577 H   0  0  0  0  0  0  0  0  0  0  0  0
    0.2369   -0.5560    0.6403 H   0  0  0  0  0  0  0  0  0  0  0  0
   -0.7065   -1.2947    2.1722 H   0  0  0  0  0  0  0  0  0  0  0  0
   -2.7127   -0.9096    1.0499 H   0  0  0  0  0  0  0  0  0  0  0  0
  1  2  1  0
  1  5  1  0
  1  6  1  0
  1 18  1  0
  2  3  1  0
  3  4  2  3
  4  7  1  0
  4  8  1  0
  9 10  1  0
  9 13  1  0
  9 14  1  0
  9 15  1  0
 10 11  1  0
 10 16  1  0
 10 17  1  0
 11 12  1  0
 11 19  1  0
 12 20  1  0
M  RAD  1  11   2
M  END
>  <reaction>  (6) 
rmg_rxn_15679

>  <mol_properties>  (6) 
{"0": {"label": "*3", "atom_type": "Cs"}, "1": {"label": "*4", "atom_type": "O2s"}, "9": {"label": "*0", "atom_type": "Cs"}, "10": {"label": "*1", "atom_type": "Cs"}, "17": {"label": "*2", "atom_type": "H0"}}

>  <type>  (6) 
unop_2

>  <geom_source>  (6) 
Heuristics

$$$$

     RDKit          3D

 20 18  0  0  0  0  0  0  0  0999 V2000
    0.8386   -0.5461    1.3188 C   0  0  0  0  0  0  0  0  0  0  0  0
    1.4856   -1.0857    0.2090 O   0  0  0  0  0  0  0  0  0  0  0  0
    2.1215   -0.2989   -0.6812 N   0  0  0  0  0  0  0  0  0  0  0  0
    2.1342    0.9623   -0.5941 C   0  0  0  0  0  0  0  0  0  0  0  0
    0.5526   -1.3823    1.9470 H   0  0  0  0  0  0  0  0  0  0  0  0
    1.4254    0.1968    1.8587 H   0  0  0  0  0  0  0  0  0  0  0  0
    2.6902    1.4743   -1.3600 H   0  0  0  0  0  0  0  0  0  0  0  0
    1.6462    1.5686    0.1651 H   0  0  0  0  0  0  0  0  0  0  0  0
   -2.1178   -1.6221   -0.3535 C   0  0  0  0  0  0  0  0  0  0  0  0
   -1.8678   -0.1615   -0.7081 C   0  0  0  0  0  0  0  0  0  0  0  0
   -1.3909    0.6386    0.4839 C   0  0  0  0  0  3  0  0  0  0  0  0
   -1.0859    1.9715    0.2252 O   0  0  0  0  0  0  0  0  0  0  0  0
   -2.5242   -2.1512   -1.2114 H   0  0  0  0  0  0  0  0  0  0  0  0
   -2.8264   -1.6997    0.4676 H   0  0  0  0  0  0  0  0  0  0  0  0
   -1.1904   -2.1063   -0.0608 H   0  0  0  0  0  0  0  0  0  0  0  0
   -1.1176   -0.1052   -1.5043 H   0  0  0  0  0  0  0  0  0  0  0  0
   -2.7928    0.2848   -1.0944 H   0  0  0  0  0  0  0  0  0  0  0  0
   -0.2823    0.0436    0.9337 H   0  0  0  0  0  0  0  0  0  0  0  0
   -2.0709    0.6129    1.3345 H   0  0  0  0  0  0  0  0  0  0  0  0
   -0.6917    2.0417   -0.6530 H   0  0  0  0  0  0  0  0  0  0  0  0
  1  2  1  0
  1  5  1  0
  1  6  1  0
  1 18  1  0
  2  3  1  0
  3  4  2  3
  4  7  1  0
  4  8  1  0
  9 10  1  0
  9 13  1  0
  9 14  1  0
  9 15  1  0
 10 11  1  0
 10 16  1  0
 10 17  1  0
 11 12  1  0
 11 19  1  0
 12 20  1  0
M  RAD  1  11   2
M  END
>  <reaction>  (7) 
rmg_rxn_15679

>  <mol_properties>  (7) 
{"0": {"label": "*3", "atom_type": "Cs"}, "1": {"label": "*4", "atom_type": "O2s"}, "9": {"label": "*0", "atom_type": "Cs"}, "10": {"label": "*1", "atom_type": "Cs"}, "17": {"label": "*2", "atom_type": "H0"}}

>  <type>  (7) 
unop_3

>  <geom_source>  (7) 
Heuristics

$$$$

     RDKit          3D

 20 18  0  0  0  0  0  0  0  0999 V2000
    2.1084   -1.3493    0.5044 C   0  0  0  0  0  0  0  0  0  0  0  0
    2.3383    0.0273    0.3408 O   0  0  0  0  0  0  0  0  0  0  0  0
    1.2543    0.6451   -0.2586 N   0  0  0  0  0  0  0  0  0  0  0  0
    1.3537    1.8862   -0.4556 C   0  0  0  0  0  0  0  0  0  0  0  0
    1.9420   -1.8708   -0.4342 H   0  0  0  0  0  0  0  0  0  0  0  0
    2.9150   -1.7579    1.0759 H   0  0  0  0  0  0  0  0  0  0  0  0
    0.5137    2.3696   -0.9225 H   0  0  0  0  0  0  0  0  0  0  0  0
    2.2209    2.4777   -0.1839 H   0  0  0  0  0  0  0  0  0  0  0  0
   -2.6767    1.1945    0.2595 C   0  0  0  0  0  0  0  0  0  0  0  0
   -1.9326   -0.0200    0.8513 C   0  0  0  0  0  0  0  0  0  0  0  0
   -1.8088   -1.1393   -0.1118 C   0  0  0  0  0  3  0  0  0  0  0  0
   -0.8468   -1.1360   -1.0780 O   0  0  0  0  0  0  0  0  0  0  0  0
   -2.7180    2.0048    0.9842 H   0  0  0  0  0  0  0  0  0  0  0  0
   -3.6918    0.9162   -0.0121 H   0  0  0  0  0  0  0  0  0  0  0  0
   -2.1672    1.5482   -0.6338 H   0  0  0  0  0  0  0  0  0  0  0  0
   -0.9353    0.3064    1.1616 H   0  0  0  0  0  0  0  0  0  0  0  0
   -2.4756   -0.3632    1.7349 H   0  0  0  0  0  0  0  0  0  0  0  0
    1.3288   -1.5752    1.2429 H   0  0  0  0  0  0  0  0  0  0  0  0
   -2.6553   -1.7540   -0.3633 H   0  0  0  0  0  0  0  0  0  0  0  0
   -0.1572   -0.4853   -0.8386 H   0  0  0  0  0  0  0  0  0  0  0  0
  1  2  1  0
  1  5  1  0
  1  6  1  0
  1 18  1  0
  2  3  1  0
  3  4  2  3
  4  7  1  0
  4  8  1  0
  9 10  1  0
  9 13  1  0
  9 14  1  0
  9 15  1  0
 10 11  1  0
 10 16  1  0
 10 17  1  0
 11 12  1  0
 11 19  1  0
 12 20  1  0
M  RAD  1  11   2
M  END
>  <reaction>  (8) 
rmg_rxn_15679

>  <mol_properties>  (8) 
{"0": {"label": "*3", "atom_type": "Cs"}, "1": {"label": "*4", "atom_type": "O2s"}, "9": {"label": "*0", "atom_type": "Cs"}, "10": {"label": "*1", "atom_type": "Cs"}, "17": {"label": "*2", "atom_type": "H0"}}

>  <type>  (8) 
unop_4

>  <geom_source>  (8) 
Heuristics

$$$$

     RDKit          3D

 20 18  0  0  0  0  0  0  0  0999 V2000
    2.1367    1.3388    0.4882 C   0  0  0  0  0  0  0  0  0  0  0  0
    2.3489   -0.0408    0.3279 O   0  0  0  0  0  0  0  0  0  0  0  0
    1.2486   -0.6494   -0.2508 N   0  0  0  0  0  0  0  0  0  0  0  0
    1.3313   -1.8924   -0.4436 C   0  0  0  0  0  0  0  0  0  0  0  0
    2.9492    1.7407    1.0551 H   0  0  0  0  0  0  0  0  0  0  0  0
    1.9686    1.8599   -0.4501 H   0  0  0  0  0  0  0  0  0  0  0  0
    0.4785   -2.3688   -0.8942 H   0  0  0  0  0  0  0  0  0  0  0  0
    2.1964   -2.4922   -0.1835 H   0  0  0  0  0  0  0  0  0  0  0  0
   -2.6881   -1.1875    0.2299 C   0  0  0  0  0  0  0  0  0  0  0  0
   -1.9450    0.0143    0.8484 C   0  0  0  0  0  0  0  0  0  0  0  0
   -1.8088    1.1489   -0.0947 C   0  0  0  0  0  3  0  0  0  0  0  0
   -0.8378    1.1581   -1.0519 O   0  0  0  0  0  0  0  0  0  0  0  0
   -2.1734   -1.5265   -0.6661 H   0  0  0  0  0  0  0  0  0  0  0  0
   -3.7006   -0.9016   -0.0439 H   0  0  0  0  0  0  0  0  0  0  0  0
   -2.7368   -2.0105    0.9397 H   0  0  0  0  0  0  0  0  0  0  0  0
   -2.4946    0.3445    1.7328 H   0  0  0  0  0  0  0  0  0  0  0  0
   -0.9515   -0.3205    1.1620 H   0  0  0  0  0  0  0  0  0  0  0  0
    1.3704    1.5781    1.2351 H   0  0  0  0  0  0  0  0  0  0  0  0
   -2.6505    1.7712   -0.3435 H   0  0  0  0  0  0  0  0  0  0  0  0
   -0.1537    0.4998   -0.8176 H   0  0  0  0  0  0  0  0  0  0  0  0
  1  2  1  0
  1  5  1  0
  1  6  1  0
  1 18  1  0
  2  3  1  0
  3  4  2  3
  4  7  1  0
  4  8  1  0
  9 10  1  0
  9 13  1  0
  9 14  1  0
  9 15  1  0
 10 11  1  0
 10 16  1  0
 10 17  1  0
 11 12  1  0
 11 19  1  0
 12 20  1  0
M  RAD  1  11   2
M  END
>  <reaction>  (9) 
rmg_rxn_15679

>  <mol_properties>  (9) 
{"0": {"label": "*3", "atom_type": "Cs"}, "1": {"label": "*4", "atom_type": "O2s"}, "9": {"label": "*0", "atom_type": "Cs"}, "10": {"label": "*1", "atom_type": "Cs"}, "17": {"label": "*2", "atom_type": "H0"}}

>  <type>  (9) 
unop_5

>  <geom_source>  (9) 
Heuristics

$$$$

     RDKit          3D

 20 18  0  0  0  0  0  0  0  0999 V2000
    0.8886    0.9468    0.7315 C   0  0  0  0  0  0  0  0  0  0  0  0
    1.1573    0.4381   -0.5602 O   0  0  0  0  0  0  0  0  0  0  0  0
    1.9319    1.3331   -1.2585 N   0  0  0  0  0  0  0  0  0  0  0  0
    2.1993    0.9214   -2.4229 C   0  0  0  0  0  0  0  0  0  0  0  0
    1.8137    1.0968    1.2926 H   0  0  0  0  0  0  0  0  0  0  0  0
    0.3398    1.8895    0.6738 H   0  0  0  0  0  0  0  0  0  0  0  0
    2.8070    1.5705   -3.0390 H   0  0  0  0  0  0  0  0  0  0  0  0
    1.8445   -0.0344   -2.8025 H   0  0  0  0  0  0  0  0  0  0  0  0
   -1.1747   -1.8002   -0.5129 C   0  0  0  0  0  0  0  0  0  0  0  0
   -1.1747   -1.8002    1.0095 C   0  0  0  0  0  0  0  0  0  0  0  0
   -1.1747   -0.4022    1.6102 C   0  0  0  0  0  3  0  0  0  0  0  0
   -2.3086    0.3626    1.2471 O   0  0  0  0  0  0  0  0  0  0  0  0
   -0.2755   -1.3158   -0.9004 H   0  0  0  0  0  0  0  0  0  0  0  0
   -2.0363   -1.2560   -0.9011 H   0  0  0  0  0  0  0  0  0  0  0  0
   -1.2055   -2.8164   -0.9085 H   0  0  0  0  0  0  0  0  0  0  0  0
   -2.0481   -2.3468    1.3839 H   0  0  0  0  0  0  0  0  0  0  0  0
   -0.2973   -2.3336    1.3875 H   0  0  0  0  0  0  0  0  0  0  0  0
   -0.1414    0.2734    1.1702 H   0  0  0  0  0  0  0  0  0  0  0  0
   -1.0847   -0.4653    2.7020 H   0  0  0  0  0  0  0  0  0  0  0  0
   -3.0910   -0.0802    1.5797 H   0  0  0  0  0  0  0  0  0  0  0  0
  1  2  1  0
  1  5  1  0
  1  6  1  0
  1 18  1  0
  2  3  1  0
  3  4  2  3
  4  7  1  0
  4  8  1  0
  9 10  1  0
  9 13  1  0
  9 14  1  0
  9 15  1  0
 10 11  1  0
 10 16  1  0
 10 17  1  0
 11 12  1  0
 11 19  1  0
 12 20  1  0
M  RAD  1  11   2
M  END
>  <reaction>  (10) 
rmg_rxn_15679

>  <mol_properties>  (10) 
{"0": {"label": "*3", "atom_type": "Cs"}, "1": {"label": "*4", "atom_type": "O2s"}, "9": {"label": "*0", "atom_type": "Cs"}, "10": {"label": "*1", "atom_type": "Cs"}, "17": {"label": "*2", "atom_type": "H0"}}

>  <type>  (10) 
unop_6

>  <geom_source>  (10) 
Heuristics

$$$$

     RDKit          3D

 20 18  0  0  0  0  0  0  0  0999 V2000
    0.8154   -0.6458    1.2744 C   0  0  0  0  0  0  0  0  0  0  0  0
    1.4637   -1.1326    0.1414 O   0  0  0  0  0  0  0  0  0  0  0  0
    2.1440   -0.3111   -0.6828 N   0  0  0  0  0  0  0  0  0  0  0  0
    2.1956    0.9406   -0.5126 C   0  0  0  0  0  0  0  0  0  0  0  0
    0.4946   -1.5115    1.8432 H   0  0  0  0  0  0  0  0  0  0  0  0
    1.4157    0.0419    1.8697 H   0  0  0  0  0  0  0  0  0  0  0  0
    2.7843    1.4823   -1.2323 H   0  0  0  0  0  0  0  0  0  0  0  0
    1.7096    1.5127    0.2738 H   0  0  0  0  0  0  0  0  0  0  0  0
   -2.2574   -1.5356   -0.3407 C   0  0  0  0  0  0  0  0  0  0  0  0
   -1.9072   -0.0965   -0.6972 C   0  0  0  0  0  0  0  0  0  0  0  0
   -1.3605    0.6660    0.4895 C   0  0  0  0  0  3  0  0  0  0  0  0
   -0.9811    1.9797    0.2312 O   0  0  0  0  0  0  0  0  0  0  0  0
   -1.3644   -2.0844   -0.0546 H   0  0  0  0  0  0  0  0  0  0  0  0
   -2.7066   -2.0345   -1.1955 H   0  0  0  0  0  0  0  0  0  0  0  0
   -2.9637   -1.5633    0.4857 H   0  0  0  0  0  0  0  0  0  0  0  0
   -1.1644   -0.0926   -1.5022 H   0  0  0  0  0  0  0  0  0  0  0  0
   -2.8024    0.4156   -1.0720 H   0  0  0  0  0  0  0  0  0  0  0  0
   -0.2806    0.0039    0.9144 H   0  0  0  0  0  0  0  0  0  0  0  0
   -2.0251    0.6764    1.3526 H   0  0  0  0  0  0  0  0  0  0  0  0
   -0.5927    2.0296   -0.6509 H   0  0  0  0  0  0  0  0  0  0  0  0
  1  2  1  0
  1  5  1  0
  1  6  1  0
  1 18  1  0
  2  3  1  0
  3  4  2  3
  4  7  1  0
  4  8  1  0
  9 10  1  0
  9 13  1  0
  9 14  1  0
  9 15  1  0
 10 11  1  0
 10 16  1  0
 10 17  1  0
 11 12  1  0
 11 19  1  0
 12 20  1  0
M  RAD  1  11   2
M  END
>  <reaction>  (11) 
rmg_rxn_15679

>  <mol_properties>  (11) 
{"0": {"label": "*3", "atom_type": "Cs"}, "1": {"label": "*4", "atom_type": "O2s"}, "9": {"label": "*0", "atom_type": "Cs"}, "10": {"label": "*1", "atom_type": "Cs"}, "17": {"label": "*2", "atom_type": "H0"}}

>  <type>  (11) 
unop_7

>  <geom_source>  (11) 
Heuristics

$$$$

     RDKit          3D

 20 18  0  0  0  0  0  0  0  0999 V2000
    1.1288    0.0791   -0.0826 C   0  0  0  0  0  0  0  0  0  0  0  0
    0.7233    1.4336   -0.0971 O   0  0  0  0  0  0  0  0  0  0  0  0
    1.8232    2.2478    0.0292 N   0  0  0  0  0  0  0  0  0  0  0  0
    1.5105    3.4720    0.0215 C   0  0  0  0  0  0  0  0  0  0  0  0
    1.8013   -0.1364   -0.9160 H   0  0  0  0  0  0  0  0  0  0  0  0
    1.6229   -0.1708    0.8590 H   0  0  0  0  0  0  0  0  0  0  0  0
    2.3224    4.1805    0.1169 H   0  0  0  0  0  0  0  0  0  0  0  0
    0.4822    3.8137   -0.0752 H   0  0  0  0  0  0  0  0  0  0  0  0
   -0.9345   -2.6679   -1.3270 C   0  0  0  0  0  0  0  0  0  0  0  0
   -0.9345   -2.6679    0.1954 C   0  0  0  0  0  0  0  0  0  0  0  0
   -0.9345   -1.2699    0.7961 C   0  0  0  0  0  3  0  0  0  0  0  0
   -2.0683   -0.5052    0.4330 O   0  0  0  0  0  0  0  0  0  0  0  0
   -0.0353   -2.1835   -1.7145 H   0  0  0  0  0  0  0  0  0  0  0  0
   -1.7960   -2.1238   -1.7152 H   0  0  0  0  0  0  0  0  0  0  0  0
   -0.9653   -3.6841   -1.7226 H   0  0  0  0  0  0  0  0  0  0  0  0
   -1.8078   -3.2145    0.5698 H   0  0  0  0  0  0  0  0  0  0  0  0
   -0.0571   -3.2014    0.5734 H   0  0  0  0  0  0  0  0  0  0  0  0
    0.0989   -0.5943    0.3560 H   0  0  0  0  0  0  0  0  0  0  0  0
   -0.8445   -1.3331    1.8879 H   0  0  0  0  0  0  0  0  0  0  0  0
   -2.8508   -0.9479    0.7656 H   0  0  0  0  0  0  0  0  0  0  0  0
  1  2  1  0
  1  5  1  0
  1  6  1  0
  1 18  1  0
  2  3  1  0
  3  4  2  3
  4  7  1  0
  4  8  1  0
  9 10  1  0
  9 13  1  0
  9 14  1  0
  9 15  1  0
 10 11  1  0
 10 16  1  0
 10 17  1  0
 11 12  1  0
 11 19  1  0
 12 20  1  0
M  RAD  1  11   2
M  END
>  <reaction>  (12) 
rmg_rxn_15679

>  <mol_properties>  (12) 
{"0": {"label": "*3", "atom_type": "Cs"}, "1": {"label": "*4", "atom_type": "O2s"}, "9": {"label": "*0", "atom_type": "Cs"}, "10": {"label": "*1", "atom_type": "Cs"}, "17": {"label": "*2", "atom_type": "H0"}}

>  <type>  (12) 
unop_8

>  <geom_source>  (12) 
Heuristics

$$$$

     RDKit          3D

 20 18  0  0  0  0  0  0  0  0999 V2000
    0.4076    1.0604   -0.3149 C   0  0  0  0  0  0  0  0  0  0  0  0
    1.5465    0.3298    0.0960 O   0  0  0  0  0  0  0  0  0  0  0  0
    2.5871    1.1934    0.3411 N   0  0  0  0  0  0  0  0  0  0  0  0
    3.6307    0.5852    0.7123 C   0  0  0  0  0  0  0  0  0  0  0  0
    0.0878    1.7562    0.4641 H   0  0  0  0  0  0  0  0  0  0  0  0
    0.6084    1.6114   -1.2364 H   0  0  0  0  0  0  0  0  0  0  0  0
    4.4977    1.1959    0.9258 H   0  0  0  0  0  0  0  0  0  0  0  0
    3.6725   -0.4968    0.8172 H   0  0  0  0  0  0  0  0  0  0  0  0
   -1.6557   -1.6866   -1.5593 C   0  0  0  0  0  0  0  0  0  0  0  0
   -1.6557   -1.6866   -0.0369 C   0  0  0  0  0  0  0  0  0  0  0  0
   -1.6557   -0.2886    0.5638 C   0  0  0  0  0  3  0  0  0  0  0  0
   -2.7895    0.4761    0.2007 O   0  0  0  0  0  0  0  0  0  0  0  0
   -0.7564   -1.2022   -1.9468 H   0  0  0  0  0  0  0  0  0  0  0  0
   -2.5172   -1.1425   -1.9475 H   0  0  0  0  0  0  0  0  0  0  0  0
   -1.6864   -2.7028   -1.9549 H   0  0  0  0  0  0  0  0  0  0  0  0
   -2.5290   -2.2332    0.3375 H   0  0  0  0  0  0  0  0  0  0  0  0
   -0.7783   -2.2200    0.3411 H   0  0  0  0  0  0  0  0  0  0  0  0
   -0.6223    0.3870    0.1237 H   0  0  0  0  0  0  0  0  0  0  0  0
   -1.5657   -0.3518    1.6556 H   0  0  0  0  0  0  0  0  0  0  0  0
   -3.5719    0.0334    0.5333 H   0  0  0  0  0  0  0  0  0  0  0  0
  1  2  1  0
  1  5  1  0
  1  6  1  0
  1 18  1  0
  2  3  1  0
  3  4  2  3
  4  7  1  0
  4  8  1  0
  9 10  1  0
  9 13  1  0
  9 14  1  0
  9 15  1  0
 10 11  1  0
 10 16  1  0
 10 17  1  0
 11 12  1  0
 11 19  1  0
 12 20  1  0
M  RAD  1  11   2
M  END
>  <reaction>  (13) 
rmg_rxn_15679

>  <mol_properties>  (13) 
{"0": {"label": "*3", "atom_type": "Cs"}, "1": {"label": "*4", "atom_type": "O2s"}, "9": {"label": "*0", "atom_type": "Cs"}, "10": {"label": "*1", "atom_type": "Cs"}, "17": {"label": "*2", "atom_type": "H0"}}

>  <type>  (13) 
unop_9

>  <geom_source>  (13) 
Heuristics

$$$$

     RDKit          3D

 20 18  0  0  0  0  0  0  0  0999 V2000
    2.1355   -1.3398    0.4854 C   0  0  0  0  0  0  0  0  0  0  0  0
    2.3462    0.0407    0.3313 O   0  0  0  0  0  0  0  0  0  0  0  0
    1.2490    0.6494   -0.2531 N   0  0  0  0  0  0  0  0  0  0  0  0
    1.3320    1.8927   -0.4432 C   0  0  0  0  0  0  0  0  0  0  0  0
    1.9739   -1.8579   -0.4558 H   0  0  0  0  0  0  0  0  0  0  0  0
    2.9454   -1.7424    1.0556 H   0  0  0  0  0  0  0  0  0  0  0  0
    0.4816    2.3693   -0.8983 H   0  0  0  0  0  0  0  0  0  0  0  0
    2.1947    2.4928   -0.1760 H   0  0  0  0  0  0  0  0  0  0  0  0
   -2.6863    1.1880    0.2281 C   0  0  0  0  0  0  0  0  0  0  0  0
   -1.9439   -0.0130    0.8489 C   0  0  0  0  0  0  0  0  0  0  0  0
   -1.8077   -1.1492   -0.0924 C   0  0  0  0  0  3  0  0  0  0  0  0
   -0.8385   -1.1586   -1.0515 O   0  0  0  0  0  0  0  0  0  0  0  0
   -3.6983    0.9016   -0.0469 H   0  0  0  0  0  0  0  0  0  0  0  0
   -2.1703    1.5262   -0.6674 H   0  0  0  0  0  0  0  0  0  0  0  0
   -2.7363    2.0118    0.9370 H   0  0  0  0  0  0  0  0  0  0  0  0
   -0.9504    0.3221    1.1624 H   0  0  0  0  0  0  0  0  0  0  0  0
   -2.4938   -0.3417    1.7336 H   0  0  0  0  0  0  0  0  0  0  0  0
    1.3652   -1.5832    1.2268 H   0  0  0  0  0  0  0  0  0  0  0  0
   -2.6490   -1.7730   -0.3386 H   0  0  0  0  0  0  0  0  0  0  0  0
   -0.1543   -0.4999   -0.8192 H   0  0  0  0  0  0  0  0  0  0  0  0
  1  2  1  0
  1  5  1  0
  1  6  1  0
  1 18  1  0
  2  3  1  0
  3  4  2  3
  4  7  1  0
  4  8  1  0
  9 10  1  0
  9 13  1  0
  9 14  1  0
  9 15  1  0
 10 11  1  0
 10 16  1  0
 10 17  1  0
 11 12  1  0
 11 19  1  0
 12 20  1  0
M  RAD  1  11   2
M  END
>  <reaction>  (14) 
rmg_rxn_15679

>  <mol_properties>  (14) 
{"0": {"label": "*3", "atom_type": "Cs"}, "1": {"label": "*4", "atom_type": "O2s"}, "9": {"label": "*0", "atom_type": "Cs"}, "10": {"label": "*1", "atom_type": "Cs"}, "17": {"label": "*2", "atom_type": "H0"}}

>  <type>  (14) 
unop_10

>  <geom_source>  (14) 
Heuristics

$$$$

     RDKit          3D

 20 18  0  0  0  0  0  0  0  0999 V2000
    0.9885    0.1258   -0.2462 C   0  0  0  0  0  0  0  0  0  0  0  0
    0.9015    1.3992    0.3625 O   0  0  0  0  0  0  0  0  0  0  0  0
    1.9552    2.1810   -0.0464 N   0  0  0  0  0  0  0  0  0  0  0  0
    1.9208    3.3325    0.4727 C   0  0  0  0  0  0  0  0  0  0  0  0
    0.9404    0.2088   -1.3343 H   0  0  0  0  0  0  0  0  0  0  0  0
    1.9122   -0.3820    0.0406 H   0  0  0  0  0  0  0  0  0  0  0  0
    2.7182    4.0110    0.2007 H   0  0  0  0  0  0  0  0  0  0  0  0
    1.1366    3.6423    1.1602 H   0  0  0  0  0  0  0  0  0  0  0  0
   -1.0748   -2.6211   -1.4907 C   0  0  0  0  0  0  0  0  0  0  0  0
   -1.0748   -2.6211    0.0318 C   0  0  0  0  0  0  0  0  0  0  0  0
   -1.0748   -1.2232    0.6325 C   0  0  0  0  0  3  0  0  0  0  0  0
   -2.2086   -0.4584    0.2694 O   0  0  0  0  0  0  0  0  0  0  0  0
   -0.1755   -2.1368   -1.8781 H   0  0  0  0  0  0  0  0  0  0  0  0
   -1.9363   -2.0770   -1.8788 H   0  0  0  0  0  0  0  0  0  0  0  0
   -1.1055   -3.6373   -1.8862 H   0  0  0  0  0  0  0  0  0  0  0  0
   -1.9481   -3.1678    0.4062 H   0  0  0  0  0  0  0  0  0  0  0  0
   -0.1973   -3.1546    0.4098 H   0  0  0  0  0  0  0  0  0  0  0  0
   -0.0414   -0.5476    0.1924 H   0  0  0  0  0  0  0  0  0  0  0  0
   -0.9848   -1.2863    1.7243 H   0  0  0  0  0  0  0  0  0  0  0  0
   -2.9910   -0.9012    0.6020 H   0  0  0  0  0  0  0  0  0  0  0  0
  1  2  1  0
  1  5  1  0
  1  6  1  0
  1 18  1  0
  2  3  1  0
  3  4  2  3
  4  7  1  0
  4  8  1  0
  9 10  1  0
  9 13  1  0
  9 14  1  0
  9 15  1  0
 10 11  1  0
 10 16  1  0
 10 17  1  0
 11 12  1  0
 11 19  1  0
 12 20  1  0
M  RAD  1  11   2
M  END
>  <reaction>  (15) 
rmg_rxn_15679

>  <mol_properties>  (15) 
{"0": {"label": "*3", "atom_type": "Cs"}, "1": {"label": "*4", "atom_type": "O2s"}, "9": {"label": "*0", "atom_type": "Cs"}, "10": {"label": "*1", "atom_type": "Cs"}, "17": {"label": "*2", "atom_type": "H0"}}

>  <type>  (15) 
unop_11

>  <geom_source>  (15) 
Heuristics

$$$$

     RDKit          3D

 20 18  0  0  0  0  0  0  0  0999 V2000
    0.8441    0.5210   -1.3285 C   0  0  0  0  0  0  0  0  0  0  0  0
    1.4914    1.0738   -0.2254 O   0  0  0  0  0  0  0  0  0  0  0  0
    2.1173    0.2971    0.6805 N   0  0  0  0  0  0  0  0  0  0  0  0
    2.1224   -0.9654    0.6136 C   0  0  0  0  0  0  0  0  0  0  0  0
    0.5665    1.3490   -1.9712 H   0  0  0  0  0  0  0  0  0  0  0  0
    1.4268   -0.2351   -1.8544 H   0  0  0  0  0  0  0  0  0  0  0  0
    2.6712   -1.4685    1.3906 H   0  0  0  0  0  0  0  0  0  0  0  0
    1.6349   -1.5807   -0.1387 H   0  0  0  0  0  0  0  0  0  0  0  0
   -2.0896    1.6403    0.3548 C   0  0  0  0  0  0  0  0  0  0  0  0
   -1.8584    0.1768    0.7107 C   0  0  0  0  0  0  0  0  0  0  0  0
   -1.3978   -0.6316   -0.4820 C   0  0  0  0  0  3  0  0  0  0  0  0
   -1.1107   -1.9683   -0.2230 O   0  0  0  0  0  0  0  0  0  0  0  0
   -1.1562    2.1118    0.0602 H   0  0  0  0  0  0  0  0  0  0  0  0
   -2.4876    2.1756    1.2129 H   0  0  0  0  0  0  0  0  0  0  0  0
   -2.7984    1.7263   -0.4653 H   0  0  0  0  0  0  0  0  0  0  0  0
   -1.1057    0.1113    1.5038 H   0  0  0  0  0  0  0  0  0  0  0  0
   -2.7878   -0.2561    1.1018 H   0  0  0  0  0  0  0  0  0  0  0  0
   -0.2826   -0.0532   -0.9374 H   0  0  0  0  0  0  0  0  0  0  0  0
   -2.0808   -0.5973   -1.3299 H   0  0  0  0  0  0  0  0  0  0  0  0
   -0.7139   -2.0435    0.6536 H   0  0  0  0  0  0  0  0  0  0  0  0
  1  2  1  0
  1  5  1  0
  1  6  1  0
  1 18  1  0
  2  3  1  0
  3  4  2  3
  4  7  1  0
  4  8  1  0
  9 10  1  0
  9 13  1  0
  9 14  1  0
  9 15  1  0
 10 11  1  0
 10 16  1  0
 10 17  1  0
 11 12  1  0
 11 19  1  0
 12 20  1  0
M  RAD  1  11   2
M  END
>  <reaction>  (16) 
rmg_rxn_15679

>  <mol_properties>  (16) 
{"0": {"label": "*3", "atom_type": "Cs"}, "1": {"label": "*4", "atom_type": "O2s"}, "9": {"label": "*0", "atom_type": "Cs"}, "10": {"label": "*1", "atom_type": "Cs"}, "17": {"label": "*2", "atom_type": "H0"}}

>  <type>  (16) 
unop_12

>  <geom_source>  (16) 
Heuristics

$$$$

     RDKit          3D

 20 18  0  0  0  0  0  0  0  0999 V2000
    0.5303    0.7622   -0.5460 C   0  0  0  0  0  0  0  0  0  0  0  0
    1.5739    0.5091    0.3741 O   0  0  0  0  0  0  0  0  0  0  0  0
    2.3043    1.6562    0.5729 N   0  0  0  0  0  0  0  0  0  0  0  0
    3.2516    1.4794    1.3903 C   0  0  0  0  0  0  0  0  0  0  0  0
   -0.1485    1.5288   -0.1656 H   0  0  0  0  0  0  0  0  0  0  0  0
    0.9297    1.0757   -1.5132 H   0  0  0  0  0  0  0  0  0  0  0  0
    3.8761    2.3372    1.6016 H   0  0  0  0  0  0  0  0  0  0  0  0
    3.4437    0.5203    1.8664 H   0  0  0  0  0  0  0  0  0  0  0  0
   -1.5330   -1.9848   -1.7905 C   0  0  0  0  0  0  0  0  0  0  0  0
   -1.5330   -1.9848   -0.2680 C   0  0  0  0  0  0  0  0  0  0  0  0
   -1.5330   -0.5868    0.3327 C   0  0  0  0  0  3  0  0  0  0  0  0
   -2.6668    0.1779   -0.0304 O   0  0  0  0  0  0  0  0  0  0  0  0
   -0.6337   -1.5004   -2.1779 H   0  0  0  0  0  0  0  0  0  0  0  0
   -2.3945   -1.4406   -2.1786 H   0  0  0  0  0  0  0  0  0  0  0  0
   -1.5637   -3.0010   -2.1861 H   0  0  0  0  0  0  0  0  0  0  0  0
   -2.4063   -2.5314    0.1064 H   0  0  0  0  0  0  0  0  0  0  0  0
   -0.6555   -2.5182    0.1100 H   0  0  0  0  0  0  0  0  0  0  0  0
   -0.4996    0.0888   -0.1074 H   0  0  0  0  0  0  0  0  0  0  0  0
   -1.4430   -0.6499    1.4245 H   0  0  0  0  0  0  0  0  0  0  0  0
   -3.4492   -0.2648    0.3022 H   0  0  0  0  0  0  0  0  0  0  0  0
  1  2  1  0
  1  5  1  0
  1  6  1  0
  1 18  1  0
  2  3  1  0
  3  4  2  3
  4  7  1  0
  4  8  1  0
  9 10  1  0
  9 13  1  0
  9 14  1  0
  9 15  1  0
 10 11  1  0
 10 16  1  0
 10 17  1  0
 11 12  1  0
 11 19  1  0
 12 20  1  0
M  RAD  1  11   2
M  END
>  <reaction>  (17) 
rmg_rxn_15679

>  <mol_properties>  (17) 
{"0": {"label": "*3", "atom_type": "Cs"}, "1": {"label": "*4", "atom_type": "O2s"}, "9": {"label": "*0", "atom_type": "Cs"}, "10": {"label": "*1", "atom_type": "Cs"}, "17": {"label": "*2", "atom_type": "H0"}}

>  <type>  (17) 
unop_13

>  <geom_source>  (17) 
Heuristics

$$$$

     RDKit          3D

 20 18  0  0  0  0  0  0  0  0999 V2000
    0.6226   -0.4789    1.6284 C   0  0  0  0  0  0  0  0  0  0  0  0
    1.4603   -0.8136    0.5637 O   0  0  0  0  0  0  0  0  0  0  0  0
    1.6238    0.2451   -0.3116 N   0  0  0  0  0  0  0  0  0  0  0  0
    2.4509    0.0682   -1.2502 C   0  0  0  0  0  0  0  0  0  0  0  0
    0.4153   -1.3907    2.1759 H   0  0  0  0  0  0  0  0  0  0  0  0
    1.0223    0.3180    2.2535 H   0  0  0  0  0  0  0  0  0  0  0  0
    2.5823    0.8850   -1.9380 H   0  0  0  0  0  0  0  0  0  0  0  0
    3.0212   -0.8430   -1.3979 H   0  0  0  0  0  0  0  0  0  0  0  0
   -2.1644   -1.5572   -0.4746 C   0  0  0  0  0  0  0  0  0  0  0  0
   -1.6968   -0.1517   -0.8318 C   0  0  0  0  0  0  0  0  0  0  0  0
   -1.4104    0.6798    0.4020 C   0  0  0  0  0  3  0  0  0  0  0  0
   -0.8611    1.9311    0.1749 O   0  0  0  0  0  0  0  0  0  0  0  0
   -3.0462   -1.5163    0.1604 H   0  0  0  0  0  0  0  0  0  0  0  0
   -1.3824   -2.0951    0.0554 H   0  0  0  0  0  0  0  0  0  0  0  0
   -2.4135   -2.1129   -1.3752 H   0  0  0  0  0  0  0  0  0  0  0  0
   -0.7934   -0.2080   -1.4455 H   0  0  0  0  0  0  0  0  0  0  0  0
   -2.4686    0.3490   -1.4288 H   0  0  0  0  0  0  0  0  0  0  0  0
   -0.4906    0.0116    1.1109 H   0  0  0  0  0  0  0  0  0  0  0  0
   -2.2731    0.7995    1.0564 H   0  0  0  0  0  0  0  0  0  0  0  0
   -0.0556    1.8172   -0.3517 H   0  0  0  0  0  0  0  0  0  0  0  0
  1  2  1  0
  1  5  1  0
  1  6  1  0
  1 18  1  0
  2  3  1  0
  3  4  2  3
  4  7  1  0
  4  8  1  0
  9 10  1  0
  9 13  1  0
  9 14  1  0
  9 15  1  0
 10 11  1  0
 10 16  1  0
 10 17  1  0
 11 12  1  0
 11 19  1  0
 12 20  1  0
M  RAD  1  11   2
M  END
>  <reaction>  (18) 
rmg_rxn_15679

>  <mol_properties>  (18) 
{"0": {"label": "*3", "atom_type": "Cs"}, "1": {"label": "*4", "atom_type": "O2s"}, "9": {"label": "*0", "atom_type": "Cs"}, "10": {"label": "*1", "atom_type": "Cs"}, "17": {"label": "*2", "atom_type": "H0"}}

>  <type>  (18) 
unop_14

>  <geom_source>  (18) 
Heuristics

$$$$

     RDKit          3D

 20 18  0  0  0  0  0  0  0  0999 V2000
    0.7228    0.4482   -0.5681 C   0  0  0  0  0  0  0  0  0  0  0  0
    1.4724    0.7934    0.5802 O   0  0  0  0  0  0  0  0  0  0  0  0
    1.9927    2.0566    0.4311 N   0  0  0  0  0  0  0  0  0  0  0  0
    2.6730    2.4108    1.4353 C   0  0  0  0  0  0  0  0  0  0  0  0
   -0.1116    1.1383   -0.7120 H   0  0  0  0  0  0  0  0  0  0  0  0
    1.3531    0.4466   -1.4602 H   0  0  0  0  0  0  0  0  0  0  0  0
    3.1182    3.3960    1.3963 H   0  0  0  0  0  0  0  0  0  0  0  0
    2.8140    1.7703    2.3033 H   0  0  0  0  0  0  0  0  0  0  0  0
   -1.3405   -2.2988   -1.8125 C   0  0  0  0  0  0  0  0  0  0  0  0
   -1.3405   -2.2988   -0.2900 C   0  0  0  0  0  0  0  0  0  0  0  0
   -1.3405   -0.9008    0.3107 C   0  0  0  0  0  3  0  0  0  0  0  0
   -2.4744   -0.1361   -0.0525 O   0  0  0  0  0  0  0  0  0  0  0  0
   -0.4413   -1.8144   -2.2000 H   0  0  0  0  0  0  0  0  0  0  0  0
   -2.2021   -1.7547   -2.2007 H   0  0  0  0  0  0  0  0  0  0  0  0
   -1.3713   -3.3150   -2.2081 H   0  0  0  0  0  0  0  0  0  0  0  0
   -2.2139   -2.8454    0.0843 H   0  0  0  0  0  0  0  0  0  0  0  0
   -0.4631   -2.8322    0.0879 H   0  0  0  0  0  0  0  0  0  0  0  0
   -0.3072   -0.2252   -0.1294 H   0  0  0  0  0  0  0  0  0  0  0  0
   -1.2505   -0.9640    1.4024 H   0  0  0  0  0  0  0  0  0  0  0  0
   -3.2568   -0.5788    0.2802 H   0  0  0  0  0  0  0  0  0  0  0  0
  1  2  1  0
  1  5  1  0
  1  6  1  0
  1 18  1  0
  2  3  1  0
  3  4  2  3
  4  7  1  0
  4  8  1  0
  9 10  1  0
  9 13  1  0
  9 14  1  0
  9 15  1  0
 10 11  1  0
 10 16  1  0
 10 17  1  0
 11 12  1  0
 11 19  1  0
 12 20  1  0
M  RAD  1  11   2
M  END
>  <reaction>  (19) 
rmg_rxn_15679

>  <mol_properties>  (19) 
{"0": {"label": "*3", "atom_type": "Cs"}, "1": {"label": "*4", "atom_type": "O2s"}, "9": {"label": "*0", "atom_type": "Cs"}, "10": {"label": "*1", "atom_type": "Cs"}, "17": {"label": "*2", "atom_type": "H0"}}

>  <type>  (19) 
unop_15

>  <geom_source>  (19) 
Heuristics

$$$$

     RDKit          3D

 20 18  0  0  0  0  0  0  0  0999 V2000
    2.0965   -1.3535   -0.5102 C   0  0  0  0  0  0  0  0  0  0  0  0
    2.3329    0.0220   -0.3469 O   0  0  0  0  0  0  0  0  0  0  0  0
    1.2564    0.6429    0.2625 N   0  0  0  0  0  0  0  0  0  0  0  0
    1.3621    1.8833    0.4608 C   0  0  0  0  0  0  0  0  0  0  0  0
    2.8992   -1.7653   -1.0850 H   0  0  0  0  0  0  0  0  0  0  0  0
    1.9318   -1.8748    0.4289 H   0  0  0  0  0  0  0  0  0  0  0  0
    0.5279    2.3690    0.9356 H   0  0  0  0  0  0  0  0  0  0  0  0
    2.2293    2.4721    0.1830 H   0  0  0  0  0  0  0  0  0  0  0  0
   -2.6690    1.1987   -0.2716 C   0  0  0  0  0  0  0  0  0  0  0  0
   -1.9275   -0.0226   -0.8527 C   0  0  0  0  0  0  0  0  0  0  0  0
   -1.8095   -1.1352    0.1188 C   0  0  0  0  0  3  0  0  0  0  0  0
   -0.8507   -1.1275    1.0882 O   0  0  0  0  0  0  0  0  0  0  0  0
   -2.1595    1.5581    0.6194 H   0  0  0  0  0  0  0  0  0  0  0  0
   -3.6852    0.9253    0.0011 H   0  0  0  0  0  0  0  0  0  0  0  0
   -2.7072    2.0033   -1.0028 H   0  0  0  0  0  0  0  0  0  0  0  0
   -2.4695   -0.3705   -1.7349 H   0  0  0  0  0  0  0  0  0  0  0  0
   -0.9285    0.2985   -1.1631 H   0  0  0  0  0  0  0  0  0  0  0  0
    1.3132   -1.5760   -1.2457 H   0  0  0  0  0  0  0  0  0  0  0  0
   -2.6584   -1.7459    0.3720 H   0  0  0  0  0  0  0  0  0  0  0  0
   -0.1587   -0.4802    0.8467 H   0  0  0  0  0  0  0  0  0  0  0  0
  1  2  1  0
  1  5  1  0
  1  6  1  0
  1 18  1  0
  2  3  1  0
  3  4  2  3
  4  7  1  0
  4  8  1  0
  9 10  1  0
  9 13  1  0
  9 14  1  0
  9 15  1  0
 10 11  1  0
 10 16  1  0
 10 17  1  0
 11 12  1  0
 11 19  1  0
 12 20  1  0
M  RAD  1  11   2
M  END
>  <reaction>  (20) 
rmg_rxn_15679

>  <mol_properties>  (20) 
{"0": {"label": "*3", "atom_type": "Cs"}, "1": {"label": "*4", "atom_type": "O2s"}, "9": {"label": "*0", "atom_type": "Cs"}, "10": {"label": "*1", "atom_type": "Cs"}, "17": {"label": "*2", "atom_type": "H0"}}

>  <type>  (20) 
unop_16

>  <geom_source>  (20) 
Heuristics

$$$$

     RDKit          3D

 20 18  0  0  0  0  0  0  0  0999 V2000
    1.2833    0.3044    0.5193 C   0  0  0  0  0  0  0  0  0  0  0  0
    0.8443    0.9527   -0.6582 O   0  0  0  0  0  0  0  0  0  0  0  0
    1.3882    2.2131   -0.7233 N   0  0  0  0  0  0  0  0  0  0  0  0
    1.0237    2.8339   -1.7618 C   0  0  0  0  0  0  0  0  0  0  0  0
    2.3706    0.1997    0.5254 H   0  0  0  0  0  0  0  0  0  0  0  0
    0.9644    0.8522    1.4089 H   0  0  0  0  0  0  0  0  0  0  0  0
    1.4097    3.8366   -1.8879 H   0  0  0  0  0  0  0  0  0  0  0  0
    0.3562    2.3973   -2.5017 H   0  0  0  0  0  0  0  0  0  0  0  0
   -0.7800   -2.4425   -0.7251 C   0  0  0  0  0  0  0  0  0  0  0  0
   -0.7800   -2.4425    0.7973 C   0  0  0  0  0  0  0  0  0  0  0  0
   -0.7800   -1.0445    1.3980 C   0  0  0  0  0  3  0  0  0  0  0  0
   -1.9138   -0.2798    1.0349 O   0  0  0  0  0  0  0  0  0  0  0  0
    0.1193   -1.9582   -1.1126 H   0  0  0  0  0  0  0  0  0  0  0  0
   -1.6415   -1.8984   -1.1133 H   0  0  0  0  0  0  0  0  0  0  0  0
   -0.8108   -3.4587   -1.1207 H   0  0  0  0  0  0  0  0  0  0  0  0
   -1.6533   -2.9892    1.1717 H   0  0  0  0  0  0  0  0  0  0  0  0
    0.0974   -2.9760    1.1753 H   0  0  0  0  0  0  0  0  0  0  0  0
    0.2534   -0.3689    0.9579 H   0  0  0  0  0  0  0  0  0  0  0  0
   -0.6900   -1.1077    2.4898 H   0  0  0  0  0  0  0  0  0  0  0  0
   -2.6963   -0.7226    1.3675 H   0  0  0  0  0  0  0  0  0  0  0  0
  1  2  1  0
  1  5  1  0
  1  6  1  0
  1 18  1  0
  2  3  1  0
  3  4  2  3
  4  7  1  0
  4  8  1  0
  9 10  1  0
  9 13  1  0
  9 14  1  0
  9 15  1  0
 10 11  1  0
 10 16  1  0
 10 17  1  0
 11 12  1  0
 11 19  1  0
 12 20  1  0
M  RAD  1  11   2
M  END
>  <reaction>  (21) 
rmg_rxn_15679

>  <mol_properties>  (21) 
{"0": {"label": "*3", "atom_type": "Cs"}, "1": {"label": "*4", "atom_type": "O2s"}, "9": {"label": "*0", "atom_type": "Cs"}, "10": {"label": "*1", "atom_type": "Cs"}, "17": {"label": "*2", "atom_type": "H0"}}

>  <type>  (21) 
unop_17

>  <geom_source>  (21) 
Heuristics

$$$$

     RDKit          3D

 20 18  0  0  0  0  0  0  0  0999 V2000
    0.6207    0.5045   -1.6211 C   0  0  0  0  0  0  0  0  0  0  0  0
    1.4586    0.8252   -0.5522 O   0  0  0  0  0  0  0  0  0  0  0  0
    1.6240   -0.2454    0.3079 N   0  0  0  0  0  0  0  0  0  0  0  0
    2.4523   -0.0815    1.2478 C   0  0  0  0  0  0  0  0  0  0  0  0
    0.4102    1.4240   -2.1543 H   0  0  0  0  0  0  0  0  0  0  0  0
    1.0221   -0.2815   -2.2589 H   0  0  0  0  0  0  0  0  0  0  0  0
    2.5855   -0.9083    1.9232 H   0  0  0  0  0  0  0  0  0  0  0  0
    3.0221    0.8279    1.4081 H   0  0  0  0  0  0  0  0  0  0  0  0
   -2.1765    1.5434    0.4891 C   0  0  0  0  0  0  0  0  0  0  0  0
   -1.6996    0.1377    0.8326 C   0  0  0  0  0  0  0  0  0  0  0  0
   -1.4065   -0.6793   -0.4093 C   0  0  0  0  0  3  0  0  0  0  0  0
   -0.8491   -1.9292   -0.1949 O   0  0  0  0  0  0  0  0  0  0  0  0
   -2.4337    2.0871    1.3946 H   0  0  0  0  0  0  0  0  0  0  0  0
   -3.0554    1.5028   -0.1502 H   0  0  0  0  0  0  0  0  0  0  0  0
   -1.3966    2.0933   -0.0315 H   0  0  0  0  0  0  0  0  0  0  0  0
   -0.7971    0.1939    1.4478 H   0  0  0  0  0  0  0  0  0  0  0  0
   -2.4684   -0.3745    1.4236 H   0  0  0  0  0  0  0  0  0  0  0  0
   -0.4905    0.0026   -1.1100 H   0  0  0  0  0  0  0  0  0  0  0  0
   -2.2679   -0.7978   -1.0658 H   0  0  0  0  0  0  0  0  0  0  0  0
   -0.0430   -1.8152    0.3308 H   0  0  0  0  0  0  0  0  0  0  0  0
  1  2  1  0
  1  5  1  0
  1  6  1  0
  1 18  1  0
  2  3  1  0
  3  4  2  3
  4  7  1  0
  4  8  1  0
  9 10  1  0
  9 13  1  0
  9 14  1  0
  9 15  1  0
 10 11  1  0
 10 16  1  0
 10 17  1  0
 11 12  1  0
 11 19  1  0
 12 20  1  0
M  RAD  1  11   2
M  END
>  <reaction>  (22) 
rmg_rxn_15679

>  <mol_properties>  (22) 
{"0": {"label": "*3", "atom_type": "Cs"}, "1": {"label": "*4", "atom_type": "O2s"}, "9": {"label": "*0", "atom_type": "Cs"}, "10": {"label": "*1", "atom_type": "Cs"}, "17": {"label": "*2", "atom_type": "H0"}}

>  <type>  (22) 
unop_18

>  <geom_source>  (22) 
Heuristics

$$$$

     RDKit          3D

 20 18  0  0  0  0  0  0  0  0999 V2000
    0.4233    1.2296    0.0733 C   0  0  0  0  0  0  0  0  0  0  0  0
    1.4334    0.2703   -0.1696 O   0  0  0  0  0  0  0  0  0  0  0  0
    2.6574    0.8921   -0.2321 N   0  0  0  0  0  0  0  0  0  0  0  0
    3.5949    0.0730   -0.4483 C   0  0  0  0  0  0  0  0  0  0  0  0
    0.5886    1.7383    1.0258 H   0  0  0  0  0  0  0  0  0  0  0  0
    0.3828    1.9667   -0.7318 H   0  0  0  0  0  0  0  0  0  0  0  0
    4.5933    0.4845   -0.5117 H   0  0  0  0  0  0  0  0  0  0  0  0
    3.4245   -0.9949   -0.5672 H   0  0  0  0  0  0  0  0  0  0  0  0
   -1.6400   -1.5173   -1.1711 C   0  0  0  0  0  0  0  0  0  0  0  0
   -1.6400   -1.5173    0.3513 C   0  0  0  0  0  0  0  0  0  0  0  0
   -1.6400   -0.1193    0.9520 C   0  0  0  0  0  3  0  0  0  0  0  0
   -2.7738    0.6454    0.5889 O   0  0  0  0  0  0  0  0  0  0  0  0
   -0.7407   -1.0330   -1.5586 H   0  0  0  0  0  0  0  0  0  0  0  0
   -2.5015   -0.9732   -1.5593 H   0  0  0  0  0  0  0  0  0  0  0  0
   -1.6707   -2.5335   -1.5667 H   0  0  0  0  0  0  0  0  0  0  0  0
   -2.5133   -2.0640    0.7257 H   0  0  0  0  0  0  0  0  0  0  0  0
   -0.7626   -2.0508    0.7293 H   0  0  0  0  0  0  0  0  0  0  0  0
   -0.6066    0.5563    0.5119 H   0  0  0  0  0  0  0  0  0  0  0  0
   -1.5500   -0.1825    2.0438 H   0  0  0  0  0  0  0  0  0  0  0  0
   -3.5562    0.2027    0.9215 H   0  0  0  0  0  0  0  0  0  0  0  0
  1  2  1  0
  1  5  1  0
  1  6  1  0
  1 18  1  0
  2  3  1  0
  3  4  2  3
  4  7  1  0
  4  8  1  0
  9 10  1  0
  9 13  1  0
  9 14  1  0
  9 15  1  0
 10 11  1  0
 10 16  1  0
 10 17  1  0
 11 12  1  0
 11 19  1  0
 12 20  1  0
M  RAD  1  11   2
M  END
>  <reaction>  (23) 
rmg_rxn_15679

>  <mol_properties>  (23) 
{"0": {"label": "*3", "atom_type": "Cs"}, "1": {"label": "*4", "atom_type": "O2s"}, "9": {"label": "*0", "atom_type": "Cs"}, "10": {"label": "*1", "atom_type": "Cs"}, "17": {"label": "*2", "atom_type": "H0"}}

>  <type>  (23) 
unop_19

>  <geom_source>  (23) 
Heuristics

$$$$

     RDKit          3D

 20 18  0  0  0  0  0  0  0  0999 V2000
    1.1469    0.6109    0.7311 C   0  0  0  0  0  0  0  0  0  0  0  0
    1.0018    0.6609   -0.6746 O   0  0  0  0  0  0  0  0  0  0  0  0
    1.5309    1.8355   -1.1533 N   0  0  0  0  0  0  0  0  0  0  0  0
    1.4244    1.9265   -2.4091 C   0  0  0  0  0  0  0  0  0  0  0  0
    2.2008    0.6433    1.0165 H   0  0  0  0  0  0  0  0  0  0  0  0
    0.6140    1.4363    1.2085 H   0  0  0  0  0  0  0  0  0  0  0  0
    1.8182    2.8249   -2.8653 H   0  0  0  0  0  0  0  0  0  0  0  0
    0.9631    1.1504   -3.0160 H   0  0  0  0  0  0  0  0  0  0  0  0
   -0.9164   -2.1361   -0.5133 C   0  0  0  0  0  0  0  0  0  0  0  0
   -0.9164   -2.1361    1.0091 C   0  0  0  0  0  0  0  0  0  0  0  0
   -0.9164   -0.7381    1.6098 C   0  0  0  0  0  3  0  0  0  0  0  0
   -2.0502    0.0267    1.2467 O   0  0  0  0  0  0  0  0  0  0  0  0
   -0.0171   -1.6517   -0.9008 H   0  0  0  0  0  0  0  0  0  0  0  0
   -1.7779   -1.5919   -0.9015 H   0  0  0  0  0  0  0  0  0  0  0  0
   -0.9471   -3.1523   -0.9089 H   0  0  0  0  0  0  0  0  0  0  0  0
   -1.7897   -2.6827    1.3835 H   0  0  0  0  0  0  0  0  0  0  0  0
   -0.0389   -2.6695    1.3871 H   0  0  0  0  0  0  0  0  0  0  0  0
    0.1170   -0.0625    1.1697 H   0  0  0  0  0  0  0  0  0  0  0  0
   -0.8264   -0.8012    2.7016 H   0  0  0  0  0  0  0  0  0  0  0  0
   -2.8326   -0.4161    1.5793 H   0  0  0  0  0  0  0  0  0  0  0  0
  1  2  1  0
  1  5  1  0
  1  6  1  0
  1 18  1  0
  2  3  1  0
  3  4  2  3
  4  7  1  0
  4  8  1  0
  9 10  1  0
  9 13  1  0
  9 14  1  0
  9 15  1  0
 10 11  1  0
 10 16  1  0
 10 17  1  0
 11 12  1  0
 11 19  1  0
 12 20  1  0
M  RAD  1  11   2
M  END
>  <reaction>  (24) 
rmg_rxn_15679

>  <mol_properties>  (24) 
{"0": {"label": "*3", "atom_type": "Cs"}, "1": {"label": "*4", "atom_type": "O2s"}, "9": {"label": "*0", "atom_type": "Cs"}, "10": {"label": "*1", "atom_type": "Cs"}, "17": {"label": "*2", "atom_type": "H0"}}

>  <type>  (24) 
unop_20

>  <geom_source>  (24) 
Heuristics

$$$$

     RDKit          3D

 20 18  0  0  0  0  0  0  0  0999 V2000
    0.8914    0.2234   -0.4185 C   0  0  0  0  0  0  0  0  0  0  0  0
    1.2272    1.1273    0.6158 O   0  0  0  0  0  0  0  0  0  0  0  0
    1.8621    2.2241    0.0843 N   0  0  0  0  0  0  0  0  0  0  0  0
    2.1830    3.0632    0.9730 C   0  0  0  0  0  0  0  0  0  0  0  0
    0.2119    0.6870   -1.1372 H   0  0  0  0  0  0  0  0  0  0  0  0
    1.7867   -0.1275   -0.9366 H   0  0  0  0  0  0  0  0  0  0  0  0
    2.6887    3.9578    0.6351 H   0  0  0  0  0  0  0  0  0  0  0  0
    1.9691    2.9097    2.0285 H   0  0  0  0  0  0  0  0  0  0  0  0
   -1.1719   -2.5236   -1.6629 C   0  0  0  0  0  0  0  0  0  0  0  0
   -1.1719   -2.5236   -0.1405 C   0  0  0  0  0  0  0  0  0  0  0  0
   -1.1719   -1.1256    0.4603 C   0  0  0  0  0  3  0  0  0  0  0  0
   -2.3057   -0.3609    0.0971 O   0  0  0  0  0  0  0  0  0  0  0  0
   -0.2726   -2.0392   -2.0504 H   0  0  0  0  0  0  0  0  0  0  0  0
   -2.0334   -1.9795   -2.0511 H   0  0  0  0  0  0  0  0  0  0  0  0
   -1.2027   -3.5398   -2.0585 H   0  0  0  0  0  0  0  0  0  0  0  0
   -2.0452   -3.0702    0.2339 H   0  0  0  0  0  0  0  0  0  0  0  0
   -0.2945   -3.0570    0.2375 H   0  0  0  0  0  0  0  0  0  0  0  0
   -0.1385   -0.4500    0.0202 H   0  0  0  0  0  0  0  0  0  0  0  0
   -1.0819   -1.1888    1.5520 H   0  0  0  0  0  0  0  0  0  0  0  0
   -3.0882   -0.8036    0.4297 H   0  0  0  0  0  0  0  0  0  0  0  0
  1  2  1  0
  1  5  1  0
  1  6  1  0
  1 18  1  0
  2  3  1  0
  3  4  2  3
  4  7  1  0
  4  8  1  0
  9 10  1  0
  9 13  1  0
  9 14  1  0
  9 15  1  0
 10 11  1  0
 10 16  1  0
 10 17  1  0
 11 12  1  0
 11 19  1  0
 12 20  1  0
M  RAD  1  11   2
M  END
>  <reaction>  (25) 
rmg_rxn_15679

>  <mol_properties>  (25) 
{"0": {"label": "*3", "atom_type": "Cs"}, "1": {"label": "*4", "atom_type": "O2s"}, "9": {"label": "*0", "atom_type": "Cs"}, "10": {"label": "*1", "atom_type": "Cs"}, "17": {"label": "*2", "atom_type": "H0"}}

>  <type>  (25) 
unop_21

>  <geom_source>  (25) 
Heuristics

$$$$

     RDKit          3D

 20 18  0  0  0  0  0  0  0  0999 V2000
    0.6040    1.1885    0.4822 C   0  0  0  0  0  0  0  0  0  0  0  0
    1.2955    0.3103   -0.3839 O   0  0  0  0  0  0  0  0  0  0  0  0
    2.4036    0.9420   -0.8957 N   0  0  0  0  0  0  0  0  0  0  0  0
    3.0563    0.1947   -1.6782 C   0  0  0  0  0  0  0  0  0  0  0  0
    1.2358    1.4871    1.3218 H   0  0  0  0  0  0  0  0  0  0  0  0
    0.2640    2.0779   -0.0531 H   0  0  0  0  0  0  0  0  0  0  0  0
    3.9457    0.6190   -2.1245 H   0  0  0  0  0  0  0  0  0  0  0  0
    2.7535   -0.8258   -1.9027 H   0  0  0  0  0  0  0  0  0  0  0  0
   -1.4593   -1.5585   -0.7622 C   0  0  0  0  0  0  0  0  0  0  0  0
   -1.4593   -1.5585    0.7602 C   0  0  0  0  0  0  0  0  0  0  0  0
   -1.4593   -0.1605    1.3610 C   0  0  0  0  0  3  0  0  0  0  0  0
   -2.5931    0.6042    0.9978 O   0  0  0  0  0  0  0  0  0  0  0  0
   -0.5601   -1.0741   -1.1497 H   0  0  0  0  0  0  0  0  0  0  0  0
   -2.3208   -1.0143   -1.1504 H   0  0  0  0  0  0  0  0  0  0  0  0
   -1.4901   -2.5747   -1.1578 H   0  0  0  0  0  0  0  0  0  0  0  0
   -2.3326   -2.1051    1.1346 H   0  0  0  0  0  0  0  0  0  0  0  0
   -0.5819   -2.0919    1.1382 H   0  0  0  0  0  0  0  0  0  0  0  0
   -0.4259    0.5151    0.9209 H   0  0  0  0  0  0  0  0  0  0  0  0
   -1.3693   -0.2236    2.4527 H   0  0  0  0  0  0  0  0  0  0  0  0
   -3.3756    0.1615    1.3304 H   0  0  0  0  0  0  0  0  0  0  0  0
  1  2  1  0
  1  5  1  0
  1  6  1  0
  1 18  1  0
  2  3  1  0
  3  4  2  3
  4  7  1  0
  4  8  1  0
  9 10  1  0
  9 13  1  0
  9 14  1  0
  9 15  1  0
 10 11  1  0
 10 16  1  0
 10 17  1  0
 11 12  1  0
 11 19  1  0
 12 20  1  0
M  RAD  1  11   2
M  END
>  <reaction>  (26) 
rmg_rxn_15679

>  <mol_properties>  (26) 
{"0": {"label": "*3", "atom_type": "Cs"}, "1": {"label": "*4", "atom_type": "O2s"}, "9": {"label": "*0", "atom_type": "Cs"}, "10": {"label": "*1", "atom_type": "Cs"}, "17": {"label": "*2", "atom_type": "H0"}}

>  <type>  (26) 
unop_22

>  <geom_source>  (26) 
Heuristics

$$$$

     RDKit          3D

 20 18  0  0  0  0  0  0  0  0999 V2000
    0.4597    1.4055    0.8080 C   0  0  0  0  0  0  0  0  0  0  0  0
    1.4091    1.0327   -0.1369 O   0  0  0  0  0  0  0  0  0  0  0  0
    2.0589   -0.1366    0.1976 N   0  0  0  0  0  0  0  0  0  0  0  0
    2.9074   -0.5580   -0.6397 C   0  0  0  0  0  0  0  0  0  0  0  0
    0.7381    1.1290    1.8219 H   0  0  0  0  0  0  0  0  0  0  0  0
    0.2684    2.4662    0.6851 H   0  0  0  0  0  0  0  0  0  0  0  0
    3.4199   -1.4680   -0.3846 H   0  0  0  0  0  0  0  0  0  0  0  0
    3.1434   -0.0609   -1.5755 H   0  0  0  0  0  0  0  0  0  0  0  0
   -0.7017   -2.0533    0.5395 C   0  0  0  0  0  0  0  0  0  0  0  0
   -1.4893   -1.1450   -0.3965 C   0  0  0  0  0  0  0  0  0  0  0  0
   -1.8318    0.1785    0.2541 C   0  0  0  0  0  3  0  0  0  0  0  0
   -2.5614    1.0622   -0.5358 O   0  0  0  0  0  0  0  0  0  0  0  0
   -0.5173   -3.0133    0.0638 H   0  0  0  0  0  0  0  0  0  0  0  0
   -1.2568   -2.2250    1.4586 H   0  0  0  0  0  0  0  0  0  0  0  0
    0.2571   -1.6047    0.7891 H   0  0  0  0  0  0  0  0  0  0  0  0
   -0.9050   -0.9610   -1.3044 H   0  0  0  0  0  0  0  0  0  0  0  0
   -2.4169   -1.6469   -0.6989 H   0  0  0  0  0  0  0  0  0  0  0  0
   -0.6824    0.7786    0.5649 H   0  0  0  0  0  0  0  0  0  0  0  0
   -2.3600    0.0738    1.2011 H   0  0  0  0  0  0  0  0  0  0  0  0
   -2.1955    1.0628   -1.4283 H   0  0  0  0  0  0  0  0  0  0  0  0
  1  2  1  0
  1  5  1  0
  1  6  1  0
  1 18  1  0
  2  3  1  0
  3  4  2  3
  4  7  1  0
  4  8  1  0
  9 10  1  0
  9 13  1  0
  9 14  1  0
  9 15  1  0
 10 11  1  0
 10 16  1  0
 10 17  1  0
 11 12  1  0
 11 19  1  0
 12 20  1  0
M  RAD  1  11   2
M  END
>  <reaction>  (27) 
rmg_rxn_15679

>  <mol_properties>  (27) 
{"0": {"label": "*3", "atom_type": "Cs"}, "1": {"label": "*4", "atom_type": "O2s"}, "9": {"label": "*0", "atom_type": "Cs"}, "10": {"label": "*1", "atom_type": "Cs"}, "17": {"label": "*2", "atom_type": "H0"}}

>  <type>  (27) 
unop_23

>  <geom_source>  (27) 
Heuristics

$$$$

     RDKit          3D

 20 18  0  0  0  0  0  0  0  0999 V2000
    2.2896   -0.7724    0.4194 O   0  0  0  0  0  0  0  0  0  0  0  0
   -0.7324    1.2540   -1.0854 O   0  0  0  0  0  0  0  0  0  0  0  0
    3.0684    0.0918   -0.3154 N   0  0  0  0  0  0  0  0  0  0  0  0
   -1.9986   -0.4009    0.1160 C   0  0  0  0  0  0  0  0  0  0  0  0
   -3.2818    0.4194    0.2247 C   0  0  0  0  0  0  0  0  0  0  0  0
    1.0885   -1.2909   -0.1255 C   0  0  0  0  0  0  0  0  0  0  0  0
   -0.7575    0.4873    0.0817 C   0  0  0  0  0  3  0  0  0  0  0  0
    4.1642    0.5673    0.1768 C   0  0  0  0  0  0  0  0  0  0  0  0
   -1.9264   -1.0796    0.9924 H   0  0  0  0  0  0  0  0  0  0  0  0
   -2.0320   -1.0249   -0.8028 H   0  0  0  0  0  0  0  0  0  0  0  0
   -3.2678    1.0378    1.1474 H   0  0  0  0  0  0  0  0  0  0  0  0
   -4.1559   -0.2640    0.2691 H   0  0  0  0  0  0  0  0  0  0  0  0
   -3.3956    1.0816   -0.6598 H   0  0  0  0  0  0  0  0  0  0  0  0
    1.3140   -1.8825   -1.0375 H   0  0  0  0  0  0  0  0  0  0  0  0
    0.5986   -1.9469    0.6230 H   0  0  0  0  0  0  0  0  0  0  0  0
    0.2619   -0.2820   -0.4376 H   0  0  0  0  0  0  0  0  0  0  0  0
   -0.7174    1.1492    0.9739 H   0  0  0  0  0  0  0  0  0  0  0  0
    4.4855    0.2929    1.1738 H   0  0  0  0  0  0  0  0  0  0  0  0
    4.7677    1.2457   -0.4104 H   0  0  0  0  0  0  0  0  0  0  0  0
    0.2270    1.3171   -1.3238 H   0  0  0  0  0  0  0  0  0  0  0  0
  1  6  1  0
  1  3  1  0
  2  7  1  0
  2 20  1  0
  3  8  2  3
  4  5  1  0
  4  7  1  0
  4  9  1  0
  4 10  1  0
  5 11  1  0
  5 12  1  0
  5 13  1  0
  6 14  1  0
  6 15  1  0
  6 16  1  0
  7 17  1  0
  8 18  1  0
  8 19  1  0
M  RAD  1   7   2
M  END
>  <reaction>  (28) 
rmg_rxn_15679

>  <mol_properties>  (28) 
{"0": {"label": "*3", "atom_type": "Cs"}, "1": {"label": "*4", "atom_type": "O2s"}, "9": {"label": "*0", "atom_type": "Cs"}, "10": {"label": "*1", "atom_type": "Cs"}, "17": {"label": "*2", "atom_type": "H0"}}

>  <type>  (28) 
unop_24

>  <geom_source>  (28) 
AutoTST

$$$$

     RDKit          3D

 20 18  0  0  0  0  0  0  0  0999 V2000
    0.8886    0.9468    0.7315 C   0  0  0  0  0  0  0  0  0  0  0  0
    1.1573    0.4381   -0.5602 O   0  0  0  0  0  0  0  0  0  0  0  0
    1.9319    1.3332   -1.2586 N   0  0  0  0  0  0  0  0  0  0  0  0
    2.1993    0.9214   -2.4229 C   0  0  0  0  0  0  0  0  0  0  0  0
    1.8137    1.0968    1.2926 H   0  0  0  0  0  0  0  0  0  0  0  0
    0.3398    1.8895    0.6738 H   0  0  0  0  0  0  0  0  0  0  0  0
    2.8070    1.5705   -3.0390 H   0  0  0  0  0  0  0  0  0  0  0  0
    1.8445   -0.0344   -2.8025 H   0  0  0  0  0  0  0  0  0  0  0  0
   -1.1747   -1.8001   -0.5129 C   0  0  0  0  0  0  0  0  0  0  0  0
   -1.1747   -1.8001    1.0095 C   0  0  0  0  0  0  0  0  0  0  0  0
   -1.1747   -0.4022    1.6102 C   0  0  0  0  0  3  0  0  0  0  0  0
   -2.3085    0.3625    1.2471 O   0  0  0  0  0  0  0  0  0  0  0  0
   -0.2755   -1.3158   -0.9004 H   0  0  0  0  0  0  0  0  0  0  0  0
   -2.0363   -1.2560   -0.9011 H   0  0  0  0  0  0  0  0  0  0  0  0
   -1.2055   -2.8163   -0.9085 H   0  0  0  0  0  0  0  0  0  0  0  0
   -2.0480   -2.3468    1.3839 H   0  0  0  0  0  0  0  0  0  0  0  0
   -0.2973   -2.3336    1.3875 H   0  0  0  0  0  0  0  0  0  0  0  0
   -0.1414    0.2734    1.1702 H   0  0  0  0  0  0  0  0  0  0  0  0
   -1.0847   -0.4653    2.7020 H   0  0  0  0  0  0  0  0  0  0  0  0
   -3.0910   -0.0802    1.5797 H   0  0  0  0  0  0  0  0  0  0  0  0
  1  2  1  0
  1  5  1  0
  1  6  1  0
  1 18  1  0
  2  3  1  0
  3  4  2  3
  4  7  1  0
  4  8  1  0
  9 10  1  0
  9 13  1  0
  9 14  1  0
  9 15  1  0
 10 11  1  0
 10 16  1  0
 10 17  1  0
 11 12  1  0
 11 19  1  0
 12 20  1  0
M  RAD  1  11   2
M  END
>  <reaction>  (29) 
rmg_rxn_15679

>  <mol_properties>  (29) 
{"0": {"label": "*3", "atom_type": "Cs"}, "1": {"label": "*4", "atom_type": "O2s"}, "9": {"label": "*0", "atom_type": "Cs"}, "10": {"label": "*1", "atom_type": "Cs"}, "17": {"label": "*2", "atom_type": "H0"}}

>  <type>  (29) 
unop_25

>  <geom_source>  (29) 
gaussian_log

$$$$
