
     RDKit          3D

 14 14  0  0  0  0  0  0  0  0999 V2000
   -1.1778    0.2241    0.1818 C   0  0  0  0  0  0  0  0  0  0  0  0
   -0.5633   -1.1636    0.0678 C   0  0  0  0  0  0  0  0  0  0  0  0
    0.6943   -1.1996    0.7146 O   0  0  0  0  0  0  0  0  0  0  0  0
    1.5547   -0.2288    0.2011 C   0  0  0  0  0  0  0  0  0  0  0  0
    1.0729    1.0696    0.3698 O   0  0  0  0  0  0  0  0  0  0  0  0
   -0.1607    1.2493   -0.2989 C   0  0  0  0  0  0  0  0  0  0  0  0
   -2.0927    0.2866   -0.4117 H   0  0  0  0  0  0  0  0  0  0  0  0
   -1.4303    0.4248    1.2248 H   0  0  0  0  0  0  0  0  0  0  0  0
   -1.1822   -1.9235    0.5431 H   0  0  0  0  0  0  0  0  0  0  0  0
   -0.4389   -1.4347   -0.9919 H   0  0  0  0  0  0  0  0  0  0  0  0
    1.7250   -0.4207   -0.8742 H   0  0  0  0  0  0  0  0  0  0  0  0
    2.4896   -0.3010    0.7524 H   0  0  0  0  0  0  0  0  0  0  0  0
   -0.0080    1.1481   -1.3844 H   0  0  0  0  0  0  0  0  0  0  0  0
   -0.4826    2.2695   -0.0942 H   0  0  0  0  0  0  0  0  0  0  0  0
  1  2  1  0
  1  6  1  0
  1  7  1  0
  1  8  1  0
  2  3  1  0
  2  9  1  0
  2 10  1  0
  3  4  1  0
  4  5  1  0
  4 11  1  0
  4 12  1  0
  5  6  1  0
  6 13  1  0
  6 14  1  0
M  END
>  <reaction>  (1) 
rmg_rxn_379

>  <mol_properties>  (1) 
{"3": {"label": "donator", "atom_type": "Cs"}, "10": {"label": "d_hydrogen", "atom_type": "H0"}}

>  <type>  (1) 
r1h

$$$$

     RDKit          3D

  8  7  0  0  0  0  0  0  0  0999 V2000
   -0.7904    0.0542   -0.0686 C   0  0  0  0  0  0  0  0  0  0  0  0
    0.7250   -0.0340   -0.0072 C   0  0  0  0  0  0  0  0  0  0  0  0
    1.3220   -0.6751   -1.0442 O   0  0  0  0  0  1  0  0  0  0  0  0
   -1.2285   -0.9442   -0.0918 H   0  0  0  0  0  0  0  0  0  0  0  0
   -1.1815    0.5836    0.8026 H   0  0  0  0  0  0  0  0  0  0  0  0
   -1.1039    0.5874   -0.9667 H   0  0  0  0  0  0  0  0  0  0  0  0
    1.1884    0.9677    0.0652 H   0  0  0  0  0  0  0  0  0  0  0  0
    1.0666   -0.5299    0.9206 H   0  0  0  0  0  0  0  0  0  0  0  0
  1  2  1  0
  1  4  1  0
  1  5  1  0
  1  6  1  0
  2  3  1  0
  2  7  1  0
  2  8  1  0
M  RAD  1   3   2
M  END
>  <reaction>  (2) 
rmg_rxn_379

>  <mol_properties>  (2) 
{"2": {"label": "acceptor", "atom_type": "O2s"}}

>  <type>  (2) 
r2

$$$$

     RDKit          3D

  9  8  0  0  0  0  0  0  0  0999 V2000
   -0.9895    0.3048    0.1041 C   0  0  0  0  0  0  0  0  0  0  0  0
    0.3761   -0.3562    0.0721 C   0  0  0  0  0  0  0  0  0  0  0  0
    0.3441   -1.6564   -0.4834 O   0  0  0  0  0  0  0  0  0  0  0  0
   -1.6997   -0.3114    0.6572 H   0  0  0  0  0  0  0  0  0  0  0  0
   -0.9320    1.2848    0.5822 H   0  0  0  0  0  0  0  0  0  0  0  0
   -1.3774    0.4507   -0.9077 H   0  0  0  0  0  0  0  0  0  0  0  0
    0.7581   -0.4813    1.0862 H   0  0  0  0  0  0  0  0  0  0  0  0
    1.0900    0.2787   -0.4681 H   0  0  0  0  0  0  0  0  0  0  0  0
    0.0089   -1.5959   -1.3792 H   0  0  0  0  0  0  0  0  0  0  0  0
  1  2  1  0
  1  4  1  0
  1  5  1  0
  1  6  1  0
  2  3  1  0
  2  7  1  0
  2  8  1  0
  3  9  1  0
M  END
>  <reaction>  (3) 
rmg_rxn_379

>  <mol_properties>  (3) 
{"2": {"label": "acceptor", "atom_type": "O2s"}, "8": {"label": "a_hydrogen", "atom_type": "H0"}}

>  <type>  (3) 
r2h

$$$$

     RDKit          3D

 22 21  0  0  0  0  0  0  0  0999 V2000
    0.4346    3.3025    0.1838 C   0  0  0  0  0  0  0  0  0  0  0  0
    1.3444    2.1130   -0.0735 C   0  0  0  0  0  0  0  0  0  0  0  0
    1.1890    1.0752    0.8377 O   0  0  0  0  0  1  0  0  0  0  0  0
    0.5671    3.6698    1.2021 H   0  0  0  0  0  0  0  0  0  0  0  0
    0.6515    4.1144   -0.5137 H   0  0  0  0  0  0  0  0  0  0  0  0
   -0.6117    3.0182    0.0553 H   0  0  0  0  0  0  0  0  0  0  0  0
    1.2177    1.7538   -1.1058 H   0  0  0  0  0  0  0  0  0  0  0  0
    2.3981    2.4158    0.0127 H   0  0  0  0  0  0  0  0  0  0  0  0
    0.0760   -2.4261   -0.8204 C   0  0  0  0  0  0  0  0  0  0  0  0
   -0.1631   -2.1337    0.6512 C   0  0  0  0  0  0  0  0  0  0  0  0
   -1.2177   -1.1891    0.7948 O   0  0  0  0  0  0  0  0  0  0  0  0
   -1.0059   -0.0379    0.0745 C   0  0  0  0  0  0  0  0  0  0  0  0
   -0.7794   -0.2115   -1.2741 O   0  0  0  0  0  0  0  0  0  0  0  0
    0.2921   -1.1089   -1.5459 C   0  0  0  0  0  0  0  0  0  0  0  0
    0.9500   -3.0691   -0.9412 H   0  0  0  0  0  0  0  0  0  0  0  0
   -0.7902   -2.9422   -1.2394 H   0  0  0  0  0  0  0  0  0  0  0  0
   -0.4740   -3.0201    1.2009 H   0  0  0  0  0  0  0  0  0  0  0  0
    0.7435   -1.7277    1.1148 H   0  0  0  0  0  0  0  0  0  0  0  0
   -0.0326    0.5131    0.5425 H   0  0  0  0  0  0  0  0  0  0  0  0
   -1.8621    0.6217    0.2039 H   0  0  0  0  0  0  0  0  0  0  0  0
    1.2325   -0.6488   -1.2200 H   0  0  0  0  0  0  0  0  0  0  0  0
    0.3141   -1.2333   -2.6270 H   0  0  0  0  0  0  0  0  0  0  0  0
  1  2  1  0
  1  4  1  0
  1  5  1  0
  1  6  1  0
  2  3  1  0
  2  7  1  0
  2  8  1  0
  9 10  1  0
  9 14  1  0
  9 15  1  0
  9 16  1  0
 10 11  1  0
 10 17  1  0
 10 18  1  0
 11 12  1  0
 12 13  1  0
 12 19  1  0
 12 20  1  0
 13 14  1  0
 14 21  1  0
 14 22  1  0
M  RAD  1   3   2
M  END
>  <reaction>  (4) 
rmg_rxn_379

>  <mol_properties>  (4) 
{"1": {"label": "*4", "atom_type": "Cs"}, "2": {"label": "*3", "atom_type": "O2s"}, "10": {"label": "*0", "atom_type": "O2s"}, "11": {"label": "*1", "atom_type": "Cs"}, "18": {"label": "*2", "atom_type": "H0"}}

>  <type>  (4) 
ts

$$$$

     RDKit          3D

 22 21  0  0  0  0  0  0  0  0999 V2000
    0.4093    2.5871   -0.4881 C   0  0  0  0  0  0  0  0  0  0  0  0
    1.5720    1.9885    0.2818 C   0  0  0  0  0  0  0  0  0  0  0  0
    1.1596    1.0588    1.2645 O   0  0  0  0  0  0  0  0  0  0  0  0
   -0.2953    3.0649    0.1939 H   0  0  0  0  0  0  0  0  0  0  0  0
    0.7636    3.3332   -1.2023 H   0  0  0  0  0  0  0  0  0  0  0  0
   -0.1259    1.8168   -1.0499 H   0  0  0  0  0  0  0  0  0  0  0  0
    2.2866    1.5277   -0.4122 H   0  0  0  0  0  0  0  0  0  0  0  0
    2.1065    2.7693    0.8246 H   0  0  0  0  0  0  0  0  0  0  0  0
   -0.0233   -2.0661   -0.9767 C   0  0  0  0  0  0  0  0  0  0  0  0
   -0.0233   -2.0661    0.5454 C   0  0  0  0  0  0  0  0  0  0  0  0
   -1.0716   -1.2535    1.0375 O   0  0  0  0  0  0  0  0  0  0  0  0
   -0.9807    0.0460    0.5381 C   0  0  0  0  0  3  0  0  0  0  0  0
   -1.0716    0.1022   -0.8529 O   0  0  0  0  0  0  0  0  0  0  0  0
   -0.0233   -0.6245   -1.4648 C   0  0  0  0  0  0  0  0  0  0  0  0
    0.8507   -2.5986   -1.3586 H   0  0  0  0  0  0  0  0  0  0  0  0
   -0.9199   -2.5723   -1.3397 H   0  0  0  0  0  0  0  0  0  0  0  0
   -0.1822   -3.0636    0.9527 H   0  0  0  0  0  0  0  0  0  0  0  0
    0.9403   -1.6902    0.9221 H   0  0  0  0  0  0  0  0  0  0  0  0
    0.1657    0.5885    0.9272 H   0  0  0  0  0  0  0  0  0  0  0  0
   -1.8217    0.6065    0.9401 H   0  0  0  0  0  0  0  0  0  0  0  0
    0.9403   -0.1471   -1.2295 H   0  0  0  0  0  0  0  0  0  0  0  0
   -0.1822   -0.5586   -2.5402 H   0  0  0  0  0  0  0  0  0  0  0  0
  1  2  1  0
  1  4  1  0
  1  5  1  0
  1  6  1  0
  2  3  1  0
  2  7  1  0
  2  8  1  0
  3 19  1  0
  9 10  1  0
  9 14  1  0
  9 15  1  0
  9 16  1  0
 10 11  1  0
 10 17  1  0
 10 18  1  0
 11 12  1  0
 12 13  1  0
 12 20  1  0
 13 14  1  0
 14 21  1  0
 14 22  1  0
M  RAD  1  12   2
M  END
>  <reaction>  (5) 
rmg_rxn_379

>  <mol_properties>  (5) 
{"1": {"label": "*4", "atom_type": "Cs"}, "2": {"label": "*3", "atom_type": "O2s"}, "10": {"label": "*0", "atom_type": "O2s"}, "11": {"label": "*1", "atom_type": "Cs"}, "18": {"label": "*2", "atom_type": "H0"}}

>  <type>  (5) 
unop_1

>  <geom_source>  (5) 
Heuristics

$$$$

     RDKit          3D

 22 20  0  0  0  0  0  0  0  0999 V2000
    1.6023    0.0249   -0.5311 C   0  0  0  0  0  3  0  0  0  0  0  0
    1.9882    0.8134    0.7068 C   0  0  0  0  0  3  0  0  0  0  0  0
    0.9262    1.6002    1.2101 O   0  0  0  0  0  0  0  0  0  0  0  0
    1.2408    0.6939   -1.3132 H   0  0  0  0  0  0  0  0  0  0  0  0
    2.4595   -0.5309   -0.9165 H   0  0  0  0  0  0  0  0  0  0  0  0
    0.8125   -0.6966   -0.3049 H   0  0  0  0  0  0  0  0  0  0  0  0
    2.3699    0.1362    1.4816 H   0  0  0  0  0  0  0  0  0  0  0  0
    2.7872    1.5177    0.4712 H   0  0  0  0  0  0  0  0  0  0  0  0
   -0.2567   -1.5248   -1.0311 C   0  0  0  0  0  0  0  0  0  0  0  0
   -0.2567   -1.5248    0.4910 C   0  0  0  0  0  0  0  0  0  0  0  0
   -1.3050   -0.7121    0.9831 O   0  0  0  0  0  0  0  0  0  0  0  0
   -1.2140    0.5874    0.4838 C   0  0  0  0  0  3  0  0  0  0  0  0
   -1.3050    0.6436   -0.9073 O   0  0  0  0  0  0  0  0  0  0  0  0
   -0.2567   -0.0831   -1.5192 C   0  0  0  0  0  0  0  0  0  0  0  0
    0.6173   -2.0572   -1.4129 H   0  0  0  0  0  0  0  0  0  0  0  0
   -1.1532   -2.0309   -1.3941 H   0  0  0  0  0  0  0  0  0  0  0  0
   -0.4156   -2.5223    0.8983 H   0  0  0  0  0  0  0  0  0  0  0  0
    0.7070   -1.1488    0.8677 H   0  0  0  0  0  0  0  0  0  0  0  0
   -0.0676    1.1299    0.8728 H   0  0  0  0  0  0  0  0  0  0  0  0
   -2.0551    1.1479    0.8858 H   0  0  0  0  0  0  0  0  0  0  0  0
    0.7070    0.3943   -1.2839 H   0  0  0  0  0  0  0  0  0  0  0  0
   -0.4156   -0.0172   -2.5946 H   0  0  0  0  0  0  0  0  0  0  0  0
  1  4  1  0
  1  5  1  0
  1  6  1  0
  2  3  1  0
  2  7  1  0
  2  8  1  0
  3 19  1  0
  9 10  1  0
  9 14  1  0
  9 15  1  0
  9 16  1  0
 10 11  1  0
 10 17  1  0
 10 18  1  0
 11 12  1  0
 12 13  1  0
 12 20  1  0
 13 14  1  0
 14 21  1  0
 14 22  1  0
M  RAD  3   1   2   2   2  12   2
M  END
>  <reaction>  (6) 
rmg_rxn_379

>  <mol_properties>  (6) 
{"1": {"label": "*4", "atom_type": "Cs"}, "2": {"label": "*3", "atom_type": "O2s"}, "10": {"label": "*0", "atom_type": "O2s"}, "11": {"label": "*1", "atom_type": "Cs"}, "18": {"label": "*2", "atom_type": "H0"}}

>  <type>  (6) 
unop_2

>  <geom_source>  (6) 
Heuristics

$$$$

     RDKit          3D

 22 21  0  0  0  0  0  0  0  0999 V2000
    0.1626    3.1365    0.9741 C   0  0  0  0  0  0  0  0  0  0  0  0
    1.3053    2.2555    0.5040 C   0  0  0  0  0  0  0  0  0  0  0  0
    1.2336    0.9408    1.0200 O   0  0  0  0  0  0  0  0  0  0  0  0
    0.1314    3.1730    2.0639 H   0  0  0  0  0  0  0  0  0  0  0  0
    0.2790    4.1536    0.5944 H   0  0  0  0  0  0  0  0  0  0  0  0
   -0.7977    2.7557    0.6160 H   0  0  0  0  0  0  0  0  0  0  0  0
    1.3431    2.2400   -0.5928 H   0  0  0  0  0  0  0  0  0  0  0  0
    2.2580    2.6551    0.8544 H   0  0  0  0  0  0  0  0  0  0  0  0
    0.0507   -2.1842   -1.2211 C   0  0  0  0  0  0  0  0  0  0  0  0
    0.0507   -2.1842    0.3009 C   0  0  0  0  0  0  0  0  0  0  0  0
   -0.9976   -1.3716    0.7930 O   0  0  0  0  0  0  0  0  0  0  0  0
   -0.9067   -0.0720    0.2937 C   0  0  0  0  0  3  0  0  0  0  0  0
   -0.9976   -0.0158   -1.0974 O   0  0  0  0  0  0  0  0  0  0  0  0
    0.0507   -0.7425   -1.7092 C   0  0  0  0  0  0  0  0  0  0  0  0
    0.9247   -2.7166   -1.6030 H   0  0  0  0  0  0  0  0  0  0  0  0
   -0.8459   -2.6903   -1.5841 H   0  0  0  0  0  0  0  0  0  0  0  0
   -0.1083   -3.1817    0.7082 H   0  0  0  0  0  0  0  0  0  0  0  0
    1.0143   -1.8082    0.6776 H   0  0  0  0  0  0  0  0  0  0  0  0
    0.2397    0.4705    0.6827 H   0  0  0  0  0  0  0  0  0  0  0  0
   -1.7478    0.4885    0.6957 H   0  0  0  0  0  0  0  0  0  0  0  0
    1.0143   -0.2651   -1.4739 H   0  0  0  0  0  0  0  0  0  0  0  0
   -0.1083   -0.6766   -2.7847 H   0  0  0  0  0  0  0  0  0  0  0  0
  1  2  1  0
  1  4  1  0
  1  5  1  0
  1  6  1  0
  2  3  1  0
  2  7  1  0
  2  8  1  0
  3 19  1  0
  9 10  1  0
  9 14  1  0
  9 15  1  0
  9 16  1  0
 10 11  1  0
 10 17  1  0
 10 18  1  0
 11 12  1  0
 12 13  1  0
 12 20  1  0
 13 14  1  0
 14 21  1  0
 14 22  1  0
M  RAD  1  12   2
M  END
>  <reaction>  (7) 
rmg_rxn_379

>  <mol_properties>  (7) 
{"1": {"label": "*4", "atom_type": "Cs"}, "2": {"label": "*3", "atom_type": "O2s"}, "10": {"label": "*0", "atom_type": "O2s"}, "11": {"label": "*1", "atom_type": "Cs"}, "18": {"label": "*2", "atom_type": "H0"}}

>  <type>  (7) 
unop_3

>  <geom_source>  (7) 
Heuristics

$$$$

     RDKit          3D

 22 21  0  0  0  0  0  0  0  0999 V2000
    1.9620   -0.3204    1.8038 C   0  0  0  0  0  0  0  0  0  0  0  0
    1.3308    1.0530    1.9390 C   0  0  0  0  0  0  0  0  0  0  0  0
    0.9683    1.6160    0.6933 O   0  0  0  0  0  0  0  0  0  0  0  0
    2.8372   -0.2767    1.1541 H   0  0  0  0  0  0  0  0  0  0  0  0
    2.2709   -0.7002    2.7798 H   0  0  0  0  0  0  0  0  0  0  0  0
    1.2539   -1.0361    1.3774 H   0  0  0  0  0  0  0  0  0  0  0  0
    0.4635    1.0052    2.6099 H   0  0  0  0  0  0  0  0  0  0  0  0
    2.0420    1.7528    2.3798 H   0  0  0  0  0  0  0  0  0  0  0  0
   -0.2146   -1.5089   -1.5478 C   0  0  0  0  0  0  0  0  0  0  0  0
   -0.2146   -1.5089   -0.0258 C   0  0  0  0  0  0  0  0  0  0  0  0
   -1.2629   -0.6963    0.4663 O   0  0  0  0  0  0  0  0  0  0  0  0
   -1.1719    0.6032   -0.0330 C   0  0  0  0  0  3  0  0  0  0  0  0
   -1.2629    0.6594   -1.4241 O   0  0  0  0  0  0  0  0  0  0  0  0
   -0.2146   -0.0673   -2.0360 C   0  0  0  0  0  0  0  0  0  0  0  0
    0.6594   -2.0414   -1.9297 H   0  0  0  0  0  0  0  0  0  0  0  0
   -1.1111   -2.0151   -1.9109 H   0  0  0  0  0  0  0  0  0  0  0  0
   -0.3735   -2.5065    0.3815 H   0  0  0  0  0  0  0  0  0  0  0  0
    0.7491   -1.1330    0.3509 H   0  0  0  0  0  0  0  0  0  0  0  0
   -0.0255    1.1457    0.3560 H   0  0  0  0  0  0  0  0  0  0  0  0
   -2.0130    1.1637    0.3690 H   0  0  0  0  0  0  0  0  0  0  0  0
    0.7491    0.4101   -1.8007 H   0  0  0  0  0  0  0  0  0  0  0  0
   -0.3735   -0.0014   -3.1114 H   0  0  0  0  0  0  0  0  0  0  0  0
  1  2  1  0
  1  4  1  0
  1  5  1  0
  1  6  1  0
  2  3  1  0
  2  7  1  0
  2  8  1  0
  3 19  1  0
  9 10  1  0
  9 14  1  0
  9 15  1  0
  9 16  1  0
 10 11  1  0
 10 17  1  0
 10 18  1  0
 11 12  1  0
 12 13  1  0
 12 20  1  0
 13 14  1  0
 14 21  1  0
 14 22  1  0
M  RAD  1  12   2
M  END
>  <reaction>  (8) 
rmg_rxn_379

>  <mol_properties>  (8) 
{"1": {"label": "*4", "atom_type": "Cs"}, "2": {"label": "*3", "atom_type": "O2s"}, "10": {"label": "*0", "atom_type": "O2s"}, "11": {"label": "*1", "atom_type": "Cs"}, "18": {"label": "*2", "atom_type": "H0"}}

>  <type>  (8) 
unop_4

>  <geom_source>  (8) 
Heuristics

$$$$

     RDKit          3D

 22 21  0  0  0  0  0  0  0  0999 V2000
    0.5950    2.7876    2.2907 C   0  0  0  0  0  0  0  0  0  0  0  0
    1.0265    2.3715    0.8966 C   0  0  0  0  0  0  0  0  0  0  0  0
    1.2107    0.9748    0.7725 O   0  0  0  0  0  0  0  0  0  0  0  0
    1.3189    2.4473    3.0325 H   0  0  0  0  0  0  0  0  0  0  0  0
    0.5100    3.8740    2.3595 H   0  0  0  0  0  0  0  0  0  0  0  0
   -0.3799    2.3611    2.5421 H   0  0  0  0  0  0  0  0  0  0  0  0
    0.3044    2.7348    0.1541 H   0  0  0  0  0  0  0  0  0  0  0  0
    1.9922    2.8162    0.6526 H   0  0  0  0  0  0  0  0  0  0  0  0
    0.0278   -2.1501   -1.4687 C   0  0  0  0  0  0  0  0  0  0  0  0
    0.0278   -2.1501    0.0534 C   0  0  0  0  0  0  0  0  0  0  0  0
   -1.0205   -1.3375    0.5455 O   0  0  0  0  0  0  0  0  0  0  0  0
   -0.9296   -0.0379    0.0461 C   0  0  0  0  0  3  0  0  0  0  0  0
   -1.0205    0.0183   -1.3449 O   0  0  0  0  0  0  0  0  0  0  0  0
    0.0278   -0.7085   -1.9568 C   0  0  0  0  0  0  0  0  0  0  0  0
    0.9018   -2.6826   -1.8506 H   0  0  0  0  0  0  0  0  0  0  0  0
   -0.8688   -2.6563   -1.8317 H   0  0  0  0  0  0  0  0  0  0  0  0
   -0.1311   -3.1476    0.4607 H   0  0  0  0  0  0  0  0  0  0  0  0
    0.9914   -1.7741    0.4301 H   0  0  0  0  0  0  0  0  0  0  0  0
    0.2168    0.5045    0.4352 H   0  0  0  0  0  0  0  0  0  0  0  0
   -1.7706    0.5226    0.4481 H   0  0  0  0  0  0  0  0  0  0  0  0
    0.9914   -0.2311   -1.7215 H   0  0  0  0  0  0  0  0  0  0  0  0
   -0.1311   -0.6425   -3.0322 H   0  0  0  0  0  0  0  0  0  0  0  0
  1  2  1  0
  1  4  1  0
  1  5  1  0
  1  6  1  0
  2  3  1  0
  2  7  1  0
  2  8  1  0
  3 19  1  0
  9 10  1  0
  9 14  1  0
  9 15  1  0
  9 16  1  0
 10 11  1  0
 10 17  1  0
 10 18  1  0
 11 12  1  0
 12 13  1  0
 12 20  1  0
 13 14  1  0
 14 21  1  0
 14 22  1  0
M  RAD  1  12   2
M  END
>  <reaction>  (9) 
rmg_rxn_379

>  <mol_properties>  (9) 
{"1": {"label": "*4", "atom_type": "Cs"}, "2": {"label": "*3", "atom_type": "O2s"}, "10": {"label": "*0", "atom_type": "O2s"}, "11": {"label": "*1", "atom_type": "Cs"}, "18": {"label": "*2", "atom_type": "H0"}}

>  <type>  (9) 
unop_5

>  <geom_source>  (9) 
Heuristics

$$$$

     RDKit          3D

 22 21  0  0  0  0  0  0  0  0999 V2000
    1.7607    0.2781    2.5816 C   0  0  0  0  0  0  0  0  0  0  0  0
    1.0645    1.4884    1.9871 C   0  0  0  0  0  0  0  0  0  0  0  0
    1.0359    1.4663    0.5734 O   0  0  0  0  0  0  0  0  0  0  0  0
    2.7781    0.1951    2.1969 H   0  0  0  0  0  0  0  0  0  0  0  0
    1.8047    0.3549    3.6699 H   0  0  0  0  0  0  0  0  0  0  0  0
    1.2245   -0.6422    2.3346 H   0  0  0  0  0  0  0  0  0  0  0  0
    0.0490    1.5771    2.3941 H   0  0  0  0  0  0  0  0  0  0  0  0
    1.6003    2.4003    2.2542 H   0  0  0  0  0  0  0  0  0  0  0  0
   -0.1470   -1.6586   -1.6678 C   0  0  0  0  0  0  0  0  0  0  0  0
   -0.1470   -1.6586   -0.1458 C   0  0  0  0  0  0  0  0  0  0  0  0
   -1.1953   -0.8460    0.3463 O   0  0  0  0  0  0  0  0  0  0  0  0
   -1.1044    0.4536   -0.1530 C   0  0  0  0  0  3  0  0  0  0  0  0
   -1.1953    0.5098   -1.5440 O   0  0  0  0  0  0  0  0  0  0  0  0
   -0.1470   -0.2169   -2.1559 C   0  0  0  0  0  0  0  0  0  0  0  0
    0.7270   -2.1911   -2.0497 H   0  0  0  0  0  0  0  0  0  0  0  0
   -1.0436   -2.1648   -2.0308 H   0  0  0  0  0  0  0  0  0  0  0  0
   -0.3059   -2.6561    0.2616 H   0  0  0  0  0  0  0  0  0  0  0  0
    0.8166   -1.2826    0.2310 H   0  0  0  0  0  0  0  0  0  0  0  0
    0.0421    0.9960    0.2361 H   0  0  0  0  0  0  0  0  0  0  0  0
   -1.9454    1.0141    0.2490 H   0  0  0  0  0  0  0  0  0  0  0  0
    0.8166    0.2604   -1.9206 H   0  0  0  0  0  0  0  0  0  0  0  0
   -0.3059   -0.1510   -3.2314 H   0  0  0  0  0  0  0  0  0  0  0  0
  1  2  1  0
  1  4  1  0
  1  5  1  0
  1  6  1  0
  2  3  1  0
  2  7  1  0
  2  8  1  0
  3 19  1  0
  9 10  1  0
  9 14  1  0
  9 15  1  0
  9 16  1  0
 10 11  1  0
 10 17  1  0
 10 18  1  0
 11 12  1  0
 12 13  1  0
 12 20  1  0
 13 14  1  0
 14 21  1  0
 14 22  1  0
M  RAD  1  12   2
M  END
>  <reaction>  (10) 
rmg_rxn_379

>  <mol_properties>  (10) 
{"1": {"label": "*4", "atom_type": "Cs"}, "2": {"label": "*3", "atom_type": "O2s"}, "10": {"label": "*0", "atom_type": "O2s"}, "11": {"label": "*1", "atom_type": "Cs"}, "18": {"label": "*2", "atom_type": "H0"}}

>  <type>  (10) 
unop_6

>  <geom_source>  (10) 
Heuristics

$$$$

     RDKit          3D

 22 21  0  0  0  0  0  0  0  0999 V2000
    1.4118    1.1263    2.9664 C   0  0  0  0  0  0  0  0  0  0  0  0
    0.9010    1.9299    1.7849 C   0  0  0  0  0  0  0  0  0  0  0  0
    1.1101    1.2796    0.5466 O   0  0  0  0  0  0  0  0  0  0  0  0
    2.4725    0.9019    2.8463 H   0  0  0  0  0  0  0  0  0  0  0  0
    1.2761    1.6809    3.8972 H   0  0  0  0  0  0  0  0  0  0  0  0
    0.8699    0.1813    3.0604 H   0  0  0  0  0  0  0  0  0  0  0  0
   -0.1613    2.1693    1.9225 H   0  0  0  0  0  0  0  0  0  0  0  0
    1.4386    2.8763    1.7121 H   0  0  0  0  0  0  0  0  0  0  0  0
   -0.0728   -1.8453   -1.6946 C   0  0  0  0  0  0  0  0  0  0  0  0
   -0.0728   -1.8453   -0.1725 C   0  0  0  0  0  0  0  0  0  0  0  0
   -1.1210   -1.0327    0.3196 O   0  0  0  0  0  0  0  0  0  0  0  0
   -1.0301    0.2668   -0.1797 C   0  0  0  0  0  3  0  0  0  0  0  0
   -1.1210    0.3230   -1.5708 O   0  0  0  0  0  0  0  0  0  0  0  0
   -0.0728   -0.4037   -2.1827 C   0  0  0  0  0  0  0  0  0  0  0  0
    0.8012   -2.3778   -2.0764 H   0  0  0  0  0  0  0  0  0  0  0  0
   -0.9693   -2.3515   -2.0576 H   0  0  0  0  0  0  0  0  0  0  0  0
   -0.2317   -2.8429    0.2348 H   0  0  0  0  0  0  0  0  0  0  0  0
    0.8909   -1.4694    0.2042 H   0  0  0  0  0  0  0  0  0  0  0  0
    0.1163    0.8093    0.2093 H   0  0  0  0  0  0  0  0  0  0  0  0
   -1.8712    0.8273    0.2222 H   0  0  0  0  0  0  0  0  0  0  0  0
    0.8909    0.0737   -1.9474 H   0  0  0  0  0  0  0  0  0  0  0  0
   -0.2317   -0.3378   -3.2581 H   0  0  0  0  0  0  0  0  0  0  0  0
  1  2  1  0
  1  4  1  0
  1  5  1  0
  1  6  1  0
  2  3  1  0
  2  7  1  0
  2  8  1  0
  3 19  1  0
  9 10  1  0
  9 14  1  0
  9 15  1  0
  9 16  1  0
 10 11  1  0
 10 17  1  0
 10 18  1  0
 11 12  1  0
 12 13  1  0
 12 20  1  0
 13 14  1  0
 14 21  1  0
 14 22  1  0
M  RAD  1  12   2
M  END
>  <reaction>  (11) 
rmg_rxn_379

>  <mol_properties>  (11) 
{"1": {"label": "*4", "atom_type": "Cs"}, "2": {"label": "*3", "atom_type": "O2s"}, "10": {"label": "*0", "atom_type": "O2s"}, "11": {"label": "*1", "atom_type": "Cs"}, "18": {"label": "*2", "atom_type": "H0"}}

>  <type>  (11) 
unop_7

>  <geom_source>  (11) 
Heuristics

$$$$

     RDKit          3D

 22 21  0  0  0  0  0  0  0  0999 V2000
    0.9519    1.6313   -1.0543 C   0  0  0  0  0  0  0  0  0  0  0  0
    1.7950    1.5983    0.2069 C   0  0  0  0  0  0  0  0  0  0  0  0
    1.0488    1.2537    1.3578 O   0  0  0  0  0  0  0  0  0  0  0  0
    0.1178    2.3247   -0.9387 H   0  0  0  0  0  0  0  0  0  0  0  0
    1.5516    1.9470   -1.9105 H   0  0  0  0  0  0  0  0  0  0  0  0
    0.5461    0.6413   -1.2796 H   0  0  0  0  0  0  0  0  0  0  0  0
    2.6434    0.9144    0.0759 H   0  0  0  0  0  0  0  0  0  0  0  0
    2.2064    2.5878    0.4112 H   0  0  0  0  0  0  0  0  0  0  0  0
   -0.1341   -1.8712   -0.8834 C   0  0  0  0  0  0  0  0  0  0  0  0
   -0.1341   -1.8712    0.6386 C   0  0  0  0  0  0  0  0  0  0  0  0
   -1.1824   -1.0586    1.1307 O   0  0  0  0  0  0  0  0  0  0  0  0
   -1.0915    0.2410    0.6314 C   0  0  0  0  0  3  0  0  0  0  0  0
   -1.1824    0.2971   -0.7596 O   0  0  0  0  0  0  0  0  0  0  0  0
   -0.1341   -0.4296   -1.3715 C   0  0  0  0  0  0  0  0  0  0  0  0
    0.7399   -2.4037   -1.2653 H   0  0  0  0  0  0  0  0  0  0  0  0
   -1.0307   -2.3774   -1.2464 H   0  0  0  0  0  0  0  0  0  0  0  0
   -0.2931   -2.8687    1.0460 H   0  0  0  0  0  0  0  0  0  0  0  0
    0.8295   -1.4952    1.0153 H   0  0  0  0  0  0  0  0  0  0  0  0
    0.0549    0.7834    1.0205 H   0  0  0  0  0  0  0  0  0  0  0  0
   -1.9326    0.8015    1.0334 H   0  0  0  0  0  0  0  0  0  0  0  0
    0.8295    0.0478   -1.1362 H   0  0  0  0  0  0  0  0  0  0  0  0
   -0.2931   -0.3636   -2.4470 H   0  0  0  0  0  0  0  0  0  0  0  0
  1  2  1  0
  1  4  1  0
  1  5  1  0
  1  6  1  0
  2  3  1  0
  2  7  1  0
  2  8  1  0
  3 19  1  0
  9 10  1  0
  9 14  1  0
  9 15  1  0
  9 16  1  0
 10 11  1  0
 10 17  1  0
 10 18  1  0
 11 12  1  0
 12 13  1  0
 12 20  1  0
 13 14  1  0
 14 21  1  0
 14 22  1  0
M  RAD  1  12   2
M  END
>  <reaction>  (12) 
rmg_rxn_379

>  <mol_properties>  (12) 
{"1": {"label": "*4", "atom_type": "Cs"}, "2": {"label": "*3", "atom_type": "O2s"}, "10": {"label": "*0", "atom_type": "O2s"}, "11": {"label": "*1", "atom_type": "Cs"}, "18": {"label": "*2", "atom_type": "H0"}}

>  <type>  (12) 
unop_8

>  <geom_source>  (12) 
Heuristics

$$$$

     RDKit          3D

 22 17  0  0  0  0  0  0  0  0999 V2000
    1.3578    0.7212   -0.9740 C   0  0  0  0  0  3  0  0  0  0  0  0
    1.9512    1.1647    0.3503 C   0  0  0  0  0  3  0  0  0  0  0  0
    0.9672    1.4484    1.3257 O   0  0  0  0  0  0  0  0  0  0  0  0
    0.6708    1.4768   -1.3573 H   0  0  0  0  0  0  0  0  0  0  0  0
    2.1446    0.5582   -1.7135 H   0  0  0  0  0  0  0  0  0  0  0  0
    0.8078   -0.2171   -0.8616 H   0  0  0  0  0 15  0  0  0  0  0  0
    2.6566    0.4092    0.7196 H   0  0  0  0  0  0  0  0  0  0  0  0
    2.5101    2.0926    0.2210 H   0  0  0  0  0  0  0  0  0  0  0  0
   -0.2157   -1.6766   -0.9155 C   0  0  0  0  0  3  0  0  0  0  0  0
   -0.2157   -1.6766    0.6065 C   0  0  0  0  0  0  0  0  0  0  0  0
   -1.2640   -0.8640    1.0986 O   0  0  0  0  0  0  0  0  0  0  0  0
   -1.1731    0.4356    0.5993 C   0  0  0  0  0  0  0  0  0  0  0  0
   -1.2640    0.4918   -0.7917 O   0  0  0  0  0  0  0  0  0  0  0  0
   -0.2157   -0.2349   -1.4036 C   0  0  0  0  0  1  0  0  0  0  0  0
    0.6583   -2.2090   -1.2974 H   0  0  0  0  0  0  0  0  0  0  0  0
   -1.1123   -2.1827   -1.2785 H   0  0  0  0  0  0  0  0  0  0  0  0
   -0.3746   -2.6741    1.0139 H   0  0  0  0  0  0  0  0  0  0  0  0
    0.7479   -1.3006    0.9833 H   0  0  0  0  0  0  0  0  0  0  0  0
   -0.0267    0.9781    0.9884 H   0  0  0  0  0  0  0  0  0  0  0  0
   -2.0141    0.9961    1.0013 H   0  0  0  0  0  0  0  0  0  0  0  0
    0.7479    0.2425   -1.1683 H   0  0  0  0  0  0  0  0  0  0  0  0
   -0.3746   -0.1690   -2.4791 H   0  0  0  0  0  0  0  0  0  0  0  0
  1  4  1  0
  1  5  1  0
  1 21  1  0
  2  3  1  0
  2  7  1  0
  2  8  1  0
  3 19  1  0
  9 10  1  0
  9 15  1  0
  9 16  1  0
 10 11  1  0
 10 17  1  0
 10 18  1  0
 11 12  1  0
 12 13  2  0
 12 20  1  0
 14 22  1  0
M  RAD  4   1   2   2   2   9   2  14   2
M  END
>  <reaction>  (13) 
rmg_rxn_379

>  <mol_properties>  (13) 
{"1": {"label": "*4", "atom_type": "Cs"}, "2": {"label": "*3", "atom_type": "O2s"}, "10": {"label": "*0", "atom_type": "O2s"}, "11": {"label": "*1", "atom_type": "Cs"}, "18": {"label": "*2", "atom_type": "H0"}}

>  <type>  (13) 
unop_9

>  <geom_source>  (13) 
Heuristics

$$$$

     RDKit          3D

 22 21  0  0  0  0  0  0  0  0999 V2000
    1.0268    2.0232    2.8762 C   0  0  0  0  0  0  0  0  0  0  0  0
    0.8817    2.2559    1.3837 C   0  0  0  0  0  0  0  0  0  0  0  0
    1.1688    1.1024    0.6174 O   0  0  0  0  0  0  0  0  0  0  0  0
    2.0310    1.6686    3.1121 H   0  0  0  0  0  0  0  0  0  0  0  0
    0.8442    2.9467    3.4296 H   0  0  0  0  0  0  0  0  0  0  0  0
    0.3084    1.2775    3.2275 H   0  0  0  0  0  0  0  0  0  0  0  0
   -0.1241    2.6318    1.1565 H   0  0  0  0  0  0  0  0  0  0  0  0
    1.5927    3.0128    1.0495 H   0  0  0  0  0  0  0  0  0  0  0  0
   -0.0141   -2.0225   -1.6237 C   0  0  0  0  0  0  0  0  0  0  0  0
   -0.0141   -2.0225   -0.1017 C   0  0  0  0  0  0  0  0  0  0  0  0
   -1.0624   -1.2099    0.3904 O   0  0  0  0  0  0  0  0  0  0  0  0
   -0.9715    0.0897   -0.1089 C   0  0  0  0  0  3  0  0  0  0  0  0
   -1.0624    0.1459   -1.4999 O   0  0  0  0  0  0  0  0  0  0  0  0
   -0.0141   -0.5809   -2.1118 C   0  0  0  0  0  0  0  0  0  0  0  0
    0.8599   -2.5550   -2.0056 H   0  0  0  0  0  0  0  0  0  0  0  0
   -0.9107   -2.5287   -1.9867 H   0  0  0  0  0  0  0  0  0  0  0  0
   -0.1730   -3.0200    0.3057 H   0  0  0  0  0  0  0  0  0  0  0  0
    0.9495   -1.6465    0.2750 H   0  0  0  0  0  0  0  0  0  0  0  0
    0.1749    0.6321    0.2802 H   0  0  0  0  0  0  0  0  0  0  0  0
   -1.8125    0.6502    0.2931 H   0  0  0  0  0  0  0  0  0  0  0  0
    0.9495   -0.1035   -1.8765 H   0  0  0  0  0  0  0  0  0  0  0  0
   -0.1730   -0.5149   -3.1873 H   0  0  0  0  0  0  0  0  0  0  0  0
  1  2  1  0
  1  4  1  0
  1  5  1  0
  1  6  1  0
  2  3  1  0
  2  7  1  0
  2  8  1  0
  3 19  1  0
  9 10  1  0
  9 14  1  0
  9 15  1  0
  9 16  1  0
 10 11  1  0
 10 17  1  0
 10 18  1  0
 11 12  1  0
 12 13  1  0
 12 20  1  0
 13 14  1  0
 14 21  1  0
 14 22  1  0
M  RAD  1  12   2
M  END
>  <reaction>  (14) 
rmg_rxn_379

>  <mol_properties>  (14) 
{"1": {"label": "*4", "atom_type": "Cs"}, "2": {"label": "*3", "atom_type": "O2s"}, "10": {"label": "*0", "atom_type": "O2s"}, "11": {"label": "*1", "atom_type": "Cs"}, "18": {"label": "*2", "atom_type": "H0"}}

>  <type>  (14) 
unop_10

>  <geom_source>  (14) 
Heuristics

$$$$

     RDKit          3D

 22 20  0  0  0  0  0  0  0  0999 V2000
    1.7715   -0.3990    0.1009 C   0  0  0  0  0  3  0  0  0  0  0  0
    1.8766    0.6547    1.1879 C   0  0  0  0  0  3  0  0  0  0  0  0
    0.9175    1.6847    1.0490 O   0  0  0  0  0  0  0  0  0  0  0  0
    1.8664    0.0580   -0.8850 H   0  0  0  0  0  0  0  0  0  0  0  0
    2.5568   -1.1492    0.2144 H   0  0  0  0  0  0  0  0  0  0  0  0
    0.8089   -0.9153    0.1483 H   0  0  0  0  0  0  0  0  0  0  0  0
    1.8008    0.1852    2.1771 H   0  0  0  0  0  0  0  0  0  0  0  0
    2.8470    1.1508    1.1393 H   0  0  0  0  0  0  0  0  0  0  0  0
   -0.2654   -1.4402   -1.1921 C   0  0  0  0  0  0  0  0  0  0  0  0
   -0.2654   -1.4402    0.3299 C   0  0  0  0  0  0  0  0  0  0  0  0
   -1.3136   -0.6276    0.8220 O   0  0  0  0  0  0  0  0  0  0  0  0
   -1.2227    0.6719    0.3227 C   0  0  0  0  0  3  0  0  0  0  0  0
   -1.3136    0.7281   -1.0683 O   0  0  0  0  0  0  0  0  0  0  0  0
   -0.2654    0.0014   -1.6802 C   0  0  0  0  0  0  0  0  0  0  0  0
    0.6086   -1.9727   -1.5740 H   0  0  0  0  0  0  0  0  0  0  0  0
   -1.1619   -1.9464   -1.5551 H   0  0  0  0  0  0  0  0  0  0  0  0
   -0.4243   -2.4377    0.7373 H   0  0  0  0  0  0  0  0  0  0  0  0
    0.6983   -1.0643    0.7066 H   0  0  0  0  0  0  0  0  0  0  0  0
   -0.0763    1.2144    0.7118 H   0  0  0  0  0  0  0  0  0  0  0  0
   -2.0638    1.2324    0.7247 H   0  0  0  0  0  0  0  0  0  0  0  0
    0.6983    0.4788   -1.4449 H   0  0  0  0  0  0  0  0  0  0  0  0
   -0.4243    0.0673   -2.7557 H   0  0  0  0  0  0  0  0  0  0  0  0
  1  4  1  0
  1  5  1  0
  1  6  1  0
  2  3  1  0
  2  7  1  0
  2  8  1  0
  3 19  1  0
  9 10  1  0
  9 14  1  0
  9 15  1  0
  9 16  1  0
 10 11  1  0
 10 17  1  0
 10 18  1  0
 11 12  1  0
 12 13  1  0
 12 20  1  0
 13 14  1  0
 14 21  1  0
 14 22  1  0
M  RAD  3   1   2   2   2  12   2
M  END
>  <reaction>  (15) 
rmg_rxn_379

>  <mol_properties>  (15) 
{"1": {"label": "*4", "atom_type": "Cs"}, "2": {"label": "*3", "atom_type": "O2s"}, "10": {"label": "*0", "atom_type": "O2s"}, "11": {"label": "*1", "atom_type": "Cs"}, "18": {"label": "*2", "atom_type": "H0"}}

>  <type>  (15) 
unop_11

>  <geom_source>  (15) 
Heuristics

$$$$

     RDKit          3D

 22 21  0  0  0  0  0  0  0  0999 V2000
   -1.4726   -1.2603   -1.2029 O   0  0  0  0  0  0  0  0  0  0  0  0
   -1.0494   -0.9165    1.0916 O   0  0  0  0  0  0  0  0  0  0  0  0
    1.7695   -1.0948    0.6166 O   0  0  0  0  0  0  0  0  0  0  0  0
   -2.2082    0.8410   -0.1454 C   0  0  0  0  0  0  0  0  0  0  0  0
   -2.5886   -0.4315   -0.9143 C   0  0  0  0  0  0  0  0  0  0  0  0
   -1.3445    0.4634    1.0714 C   0  0  0  0  0  0  0  0  0  0  0  0
    2.8236   -0.4546   -0.0449 C   0  0  0  0  0  0  0  0  0  0  0  0
    2.6723    1.0568    0.0628 C   0  0  0  0  0  0  0  0  0  0  0  0
   -0.5008   -1.2468   -0.1651 C   0  0  0  0  0  3  0  0  0  0  0  0
   -3.1278    1.3750    0.1786 H   0  0  0  0  0  0  0  0  0  0  0  0
   -1.6317    1.5132   -0.8179 H   0  0  0  0  0  0  0  0  0  0  0  0
    2.8469   -0.7588   -1.1146 H   0  0  0  0  0  0  0  0  0  0  0  0
    3.7817   -0.7607    0.4255 H   0  0  0  0  0  0  0  0  0  0  0  0
   -3.0747   -0.1428   -1.8700 H   0  0  0  0  0  0  0  0  0  0  0  0
   -3.3323   -1.0140   -0.3270 H   0  0  0  0  0  0  0  0  0  0  0  0
   -0.4030    1.0585    1.0821 H   0  0  0  0  0  0  0  0  0  0  0  0
   -1.8984    0.7126    2.0014 H   0  0  0  0  0  0  0  0  0  0  0  0
    3.5259    1.5551   -0.4430 H   0  0  0  0  0  0  0  0  0  0  0  0
    1.7279    1.3818   -0.4229 H   0  0  0  0  0  0  0  0  0  0  0  0
    2.6580    1.3623    1.1305 H   0  0  0  0  0  0  0  0  0  0  0  0
   -0.0099   -2.2398   -0.1055 H   0  0  0  0  0  0  0  0  0  0  0  0
    0.8361   -0.9992   -0.0869 H   0  0  0  0  0  0  0  0  0  0  0  0
  1  5  1  0
  1  9  1  0
  2  6  1  0
  2  9  1  0
  3  7  1  0
  3 22  1  0
  4  5  1  0
  4  6  1  0
  4 10  1  0
  4 11  1  0
  5 14  1  0
  5 15  1  0
  6 16  1  0
  6 17  1  0
  7  8  1  0
  7 12  1  0
  7 13  1  0
  8 18  1  0
  8 19  1  0
  8 20  1  0
  9 21  1  0
M  RAD  1   9   2
M  END
>  <reaction>  (16) 
rmg_rxn_379

>  <mol_properties>  (16) 
{"1": {"label": "*4", "atom_type": "Cs"}, "2": {"label": "*3", "atom_type": "O2s"}, "10": {"label": "*0", "atom_type": "O2s"}, "11": {"label": "*1", "atom_type": "Cs"}, "18": {"label": "*2", "atom_type": "H0"}}

>  <type>  (16) 
unop_12

>  <geom_source>  (16) 
AutoTST

$$$$

     RDKit          3D

 22 20  0  0  0  0  0  0  0  0999 V2000
    1.6023    0.0249   -0.5311 C   0  0  0  0  0  3  0  0  0  0  0  0
    1.9882    0.8134    0.7068 C   0  0  0  0  0  3  0  0  0  0  0  0
    0.9262    1.6002    1.2101 O   0  0  0  0  0  0  0  0  0  0  0  0
    1.2408    0.6939   -1.3132 H   0  0  0  0  0  0  0  0  0  0  0  0
    2.4595   -0.5309   -0.9165 H   0  0  0  0  0  0  0  0  0  0  0  0
    0.8125   -0.6966   -0.3049 H   0  0  0  0  0  0  0  0  0  0  0  0
    2.3699    0.1362    1.4816 H   0  0  0  0  0  0  0  0  0  0  0  0
    2.7872    1.5177    0.4712 H   0  0  0  0  0  0  0  0  0  0  0  0
   -0.2567   -1.5248   -1.0311 C   0  0  0  0  0  0  0  0  0  0  0  0
   -0.2567   -1.5248    0.4910 C   0  0  0  0  0  0  0  0  0  0  0  0
   -1.3050   -0.7121    0.9831 O   0  0  0  0  0  0  0  0  0  0  0  0
   -1.2141    0.5874    0.4838 C   0  0  0  0  0  3  0  0  0  0  0  0
   -1.3050    0.6436   -0.9073 O   0  0  0  0  0  0  0  0  0  0  0  0
   -0.2567   -0.0831   -1.5192 C   0  0  0  0  0  0  0  0  0  0  0  0
    0.6173   -2.0572   -1.4129 H   0  0  0  0  0  0  0  0  0  0  0  0
   -1.1532   -2.0309   -1.3941 H   0  0  0  0  0  0  0  0  0  0  0  0
   -0.4156   -2.5223    0.8983 H   0  0  0  0  0  0  0  0  0  0  0  0
    0.7070   -1.1488    0.8677 H   0  0  0  0  0  0  0  0  0  0  0  0
   -0.0676    1.1299    0.8728 H   0  0  0  0  0  0  0  0  0  0  0  0
   -2.0551    1.1479    0.8858 H   0  0  0  0  0  0  0  0  0  0  0  0
    0.7070    0.3943   -1.2839 H   0  0  0  0  0  0  0  0  0  0  0  0
   -0.4156   -0.0172   -2.5946 H   0  0  0  0  0  0  0  0  0  0  0  0
  1  4  1  0
  1  5  1  0
  1  6  1  0
  2  3  1  0
  2  7  1  0
  2  8  1  0
  3 19  1  0
  9 10  1  0
  9 14  1  0
  9 15  1  0
  9 16  1  0
 10 11  1  0
 10 17  1  0
 10 18  1  0
 11 12  1  0
 12 13  1  0
 12 20  1  0
 13 14  1  0
 14 21  1  0
 14 22  1  0
M  RAD  3   1   2   2   2  12   2
M  END
>  <reaction>  (17) 
rmg_rxn_379

>  <mol_properties>  (17) 
{"1": {"label": "*4", "atom_type": "Cs"}, "2": {"label": "*3", "atom_type": "O2s"}, "10": {"label": "*0", "atom_type": "O2s"}, "11": {"label": "*1", "atom_type": "Cs"}, "18": {"label": "*2", "atom_type": "H0"}}

>  <type>  (17) 
unop_13

>  <geom_source>  (17) 
gaussian_log

$$$$
