
     RDKit          3D

  8  7  0  0  0  0  0  0  0  0999 V2000
    0.9548    0.1194   -0.0790 C   0  0  0  0  0  0  0  0  0  0  0  0
   -0.4838   -0.2649    0.0193 C   0  0  0  0  0  0  0  0  0  0  0  0
   -0.8933   -1.1081    0.8664 N   0  0  0  0  0  0  0  0  0  0  0  0
    1.3360   -0.0983   -1.0800 H   0  0  0  0  0  0  0  0  0  0  0  0
    1.0698    1.1948    0.0786 H   0  0  0  0  0  0  0  0  0  0  0  0
    1.5426   -0.4219    0.6602 H   0  0  0  0  0  0  0  0  0  0  0  0
   -1.1575    0.2324   -0.6905 H   0  0  0  0  0  0  0  0  0  0  0  0
   -1.8989   -1.2455    0.7886 H   0  0  0  0  0  0  0  0  0  0  0  0
  1  2  1  0
  1  4  1  0
  1  5  1  0
  1  6  1  0
  2  3  2  3
  2  7  1  0
  3  8  1  0
M  END
>  <reaction>  (1) 
rmg_rxn_16506

>  <mol_properties>  (1) 
{"2": {"label": "donator", "atom_type": "N3d"}, "7": {"label": "d_hydrogen", "atom_type": "H0"}}

>  <type>  (1) 
r1h

$$$$

     RDKit          3D

 11 10  0  0  0  0  0  0  0  0999 V2000
    1.3935    0.3989    0.3491 C   0  0  0  0  0  3  0  0  0  0  0  0
    0.5250   -0.7560    0.0089 C   0  0  0  0  0  0  0  0  0  0  0  0
   -0.6359   -0.9293    0.9859 C   0  0  0  0  0  0  0  0  0  0  0  0
   -1.5467    0.1465    0.9437 O   0  0  0  0  0  0  0  0  0  0  0  0
    1.8267    1.0293   -0.4146 H   0  0  0  0  0  0  0  0  0  0  0  0
    1.7199    0.5477    1.3723 H   0  0  0  0  0  0  0  0  0  0  0  0
    0.1296   -0.6553   -1.0046 H   0  0  0  0  0  0  0  0  0  0  0  0
    1.1132   -1.6869    0.0240 H   0  0  0  0  0  0  0  0  0  0  0  0
   -0.2393   -1.0667    2.0017 H   0  0  0  0  0  0  0  0  0  0  0  0
   -1.2091   -1.8217    0.7319 H   0  0  0  0  0  0  0  0  0  0  0  0
   -1.0474    0.9595    1.0517 H   0  0  0  0  0  0  0  0  0  0  0  0
  1  2  1  0
  1  5  1  0
  1  6  1  0
  2  3  1  0
  2  7  1  0
  2  8  1  0
  3  4  1  0
  3  9  1  0
  3 10  1  0
  4 11  1  0
M  RAD  1   1   2
M  END
>  <reaction>  (2) 
rmg_rxn_16506

>  <mol_properties>  (2) 
{"0": {"label": "acceptor", "atom_type": "Cs"}}

>  <type>  (2) 
r2

$$$$

     RDKit          3D

 12 11  0  0  0  0  0  0  0  0999 V2000
   -1.4643   -0.2505   -0.5284 C   0  0  0  0  0  0  0  0  0  0  0  0
   -0.3946    0.4302    0.3143 C   0  0  0  0  0  0  0  0  0  0  0  0
   -0.5959    0.2382    1.8102 C   0  0  0  0  0  0  0  0  0  0  0  0
   -0.5633   -1.1190    2.2092 O   0  0  0  0  0  0  0  0  0  0  0  0
   -2.4511    0.1644   -0.3109 H   0  0  0  0  0  0  0  0  0  0  0  0
   -1.5019   -1.3198   -0.3181 H   0  0  0  0  0  0  0  0  0  0  0  0
   -1.2720   -0.1182   -1.5941 H   0  0  0  0  0  0  0  0  0  0  0  0
    0.5965    0.0515    0.0385 H   0  0  0  0  0  0  0  0  0  0  0  0
   -0.3776    1.5047    0.1078 H   0  0  0  0  0  0  0  0  0  0  0  0
   -1.5821    0.6048    2.1034 H   0  0  0  0  0  0  0  0  0  0  0  0
    0.1495    0.8220    2.3649 H   0  0  0  0  0  0  0  0  0  0  0  0
    0.3017   -1.4750    1.9997 H   0  0  0  0  0  0  0  0  0  0  0  0
  1  2  1  0
  1  5  1  0
  1  6  1  0
  1  7  1  0
  2  3  1  0
  2  8  1  0
  2  9  1  0
  3  4  1  0
  3 10  1  0
  3 11  1  0
  4 12  1  0
M  END
>  <reaction>  (3) 
rmg_rxn_16506

>  <mol_properties>  (3) 
{"0": {"label": "a_hydrogen", "atom_type": "H0"}, "1": {"label": "acceptor", "atom_type": "Cs"}}

>  <type>  (3) 
r2h

$$$$

     RDKit          3D

 19 17  0  0  0  0  0  0  0  0999 V2000
   -3.4912   -0.3432    0.0284 C   0  0  0  0  0  0  0  0  0  0  0  0
   -2.1859    0.3889    0.0018 C   0  0  0  0  0  0  0  0  0  0  0  0
   -1.0821   -0.2014   -0.0952 N   0  0  0  0  0  0  0  0  0  0  0  0
   -4.0237   -0.1171    0.9550 H   0  0  0  0  0  0  0  0  0  0  0  0
   -4.1216   -0.0073   -0.7982 H   0  0  0  0  0  0  0  0  0  0  0  0
   -3.3329   -1.4172   -0.0474 H   0  0  0  0  0  0  0  0  0  0  0  0
   -2.2435    1.4831    0.0727 H   0  0  0  0  0  0  0  0  0  0  0  0
   -0.1836    0.6347   -0.0916 H   0  0  0  0  0  0  0  0  0  0  0  0
    0.8424    1.5372   -0.1368 C   0  0  0  0  0  3  0  0  0  0  0  0
    2.0626    0.8069    0.3556 C   0  0  0  0  0  0  0  0  0  0  0  0
    2.3027   -0.5461   -0.3175 C   0  0  0  0  0  0  0  0  0  0  0  0
    1.4849   -1.5771    0.1756 O   0  0  0  0  0  0  0  0  0  0  0  0
    0.4971    2.3626    0.4828 H   0  0  0  0  0  0  0  0  0  0  0  0
    0.8545    1.7878   -1.1973 H   0  0  0  0  0  0  0  0  0  0  0  0
    2.9429    1.4387    0.1753 H   0  0  0  0  0  0  0  0  0  0  0  0
    2.0065    0.6473    1.4350 H   0  0  0  0  0  0  0  0  0  0  0  0
    3.3298   -0.8626   -0.1271 H   0  0  0  0  0  0  0  0  0  0  0  0
    2.1937   -0.4351   -1.4065 H   0  0  0  0  0  0  0  0  0  0  0  0
    0.5576   -1.3660    0.0065 H   0  0  0  0  0  0  0  0  0  0  0  0
  1  2  1  0
  1  4  1  0
  1  5  1  0
  1  6  1  0
  2  3  2  3
  2  7  1  0
  3  8  1  0
  9 10  1  0
  9 13  1  0
  9 14  1  0
 10 11  1  0
 10 15  1  0
 10 16  1  0
 11 12  1  0
 11 17  1  0
 11 18  1  0
 12 19  1  0
M  RAD  1   9   2
M  END
>  <reaction>  (4) 
rmg_rxn_16506

>  <mol_properties>  (4) 
{"1": {"label": "*0", "atom_type": "Cd"}, "2": {"label": "*1", "atom_type": "N3d"}, "7": {"label": "*2", "atom_type": "H0"}, "8": {"label": "*3", "atom_type": "Cs"}, "9": {"label": "*4", "atom_type": "Cs"}}

>  <type>  (4) 
ts

$$$$

     RDKit          3D

 19 17  0  0  0  0  0  0  0  0999 V2000
   -3.4457   -0.4208    0.0369 C   0  0  0  0  0  0  0  0  0  0  0  0
   -2.2150    0.4316   -0.0092 C   0  0  0  0  0  0  0  0  0  0  0  0
   -1.0735   -0.0489   -0.0597 N   0  0  0  0  0  0  0  0  0  0  0  0
   -4.0038   -0.1961    0.9443 H   0  0  0  0  0  0  0  0  0  0  0  0
   -4.0770   -0.1870   -0.8188 H   0  0  0  0  0  0  0  0  0  0  0  0
   -3.1784   -1.4736    0.0208 H   0  0  0  0  0  0  0  0  0  0  0  0
   -2.4216    1.5117    0.0054 H   0  0  0  0  0  0  0  0  0  0  0  0
   -0.1252    0.7779   -0.0893 H   0  0  0  0  0  0  0  0  0  0  0  0
    0.8912    1.5672   -0.1394 C   0  0  0  0  0  3  0  0  0  0  0  0
    2.0736    0.7851    0.3685 C   0  0  0  0  0  0  0  0  0  0  0  0
    2.2376   -0.5693   -0.3406 C   0  0  0  0  0  0  0  0  0  0  0  0
    1.3741   -1.5574    0.1488 O   0  0  0  0  0  0  0  0  0  0  0  0
    0.6312    2.4201    0.4778 H   0  0  0  0  0  0  0  0  0  0  0  0
    0.9735    1.8380   -1.1871 H   0  0  0  0  0  0  0  0  0  0  0  0
    2.9894    1.3667    0.2124 H   0  0  0  0  0  0  0  0  0  0  0  0
    1.9733    0.6014    1.4403 H   0  0  0  0  0  0  0  0  0  0  0  0
    3.2476   -0.9533   -0.1700 H   0  0  0  0  0  0  0  0  0  0  0  0
    2.1013   -0.4304   -1.4244 H   0  0  0  0  0  0  0  0  0  0  0  0
    0.4576   -1.2485    0.0546 H   0  0  0  0  0  0  0  0  0  0  0  0
  1  2  1  0
  1  4  1  0
  1  5  1  0
  1  6  1  0
  2  3  2  3
  2  7  1  0
  3  8  1  0
  9 10  1  0
  9 13  1  0
  9 14  1  0
 10 11  1  0
 10 15  1  0
 10 16  1  0
 11 12  1  0
 11 17  1  0
 11 18  1  0
 12 19  1  0
M  RAD  1   9   2
M  END
>  <reaction>  (5) 
rmg_rxn_16506

>  <mol_properties>  (5) 
{"1": {"label": "*0", "atom_type": "Cd"}, "2": {"label": "*1", "atom_type": "N3d"}, "7": {"label": "*2", "atom_type": "H0"}, "8": {"label": "*3", "atom_type": "Cs"}, "9": {"label": "*4", "atom_type": "Cs"}}

>  <type>  (5) 
unop_1

>  <geom_source>  (5) 
crest_best.xyz

$$$$

     RDKit          3D

 19 17  0  0  0  0  0  0  0  0999 V2000
   -0.5891   -1.2800   -3.2392 C   0  0  0  0  0  0  0  0  0  0  0  0
   -0.5891   -1.2800   -1.7469 C   0  0  0  0  0  0  0  0  0  0  0  0
   -0.5891   -0.2074   -1.0792 N   0  0  0  0  0  0  0  0  0  0  0  0
    0.2892   -1.8100   -3.6167 H   0  0  0  0  0  0  0  0  0  0  0  0
   -1.4673   -1.8100   -3.6167 H   0  0  0  0  0  0  0  0  0  0  0  0
   -0.5891   -0.2594   -3.6178 H   0  0  0  0  0  0  0  0  0  0  0  0
   -0.5891   -2.2697   -1.2723 H   0  0  0  0  0  0  0  0  0  0  0  0
   -0.5891   -0.4376    0.1204 H   0  0  0  0  0  0  0  0  0  0  0  0
   -0.5891   -0.6846    1.4078 C   0  0  0  0  0  3  0  0  0  0  0  0
    0.6437   -0.0874    2.0722 C   0  0  0  0  0  0  0  0  0  0  0  0
    1.2645    1.0499    1.2746 C   0  0  0  0  0  0  0  0  0  0  0  0
    0.3877    2.1443    1.0857 O   0  0  0  0  0  0  0  0  0  0  0  0
   -1.0249   -1.4750    2.0205 H   0  0  0  0  0  0  0  0  0  0  0  0
   -1.3498    0.0791    1.2433 H   0  0  0  0  0  0  0  0  0  0  0  0
    0.3887    0.2797    3.0732 H   0  0  0  0  0  0  0  0  0  0  0  0
    1.4064   -0.8586    2.2165 H   0  0  0  0  0  0  0  0  0  0  0  0
    1.5202    0.7044    0.2704 H   0  0  0  0  0  0  0  0  0  0  0  0
    2.1946    1.3784    1.7553 H   0  0  0  0  0  0  0  0  0  0  0  0
    0.1615    2.5024    1.9456 H   0  0  0  0  0  0  0  0  0  0  0  0
  1  2  1  0
  1  4  1  0
  1  5  1  0
  1  6  1  0
  2  3  2  3
  2  7  1  0
  3  8  1  0
  9 10  1  0
  9 13  1  0
  9 14  1  0
 10 11  1  0
 10 15  1  0
 10 16  1  0
 11 12  1  0
 11 17  1  0
 11 18  1  0
 12 19  1  0
M  RAD  1   9   2
M  END
>  <reaction>  (6) 
rmg_rxn_16506

>  <mol_properties>  (6) 
{"1": {"label": "*0", "atom_type": "Cd"}, "2": {"label": "*1", "atom_type": "N3d"}, "7": {"label": "*2", "atom_type": "H0"}, "8": {"label": "*3", "atom_type": "Cs"}, "9": {"label": "*4", "atom_type": "Cs"}}

>  <type>  (6) 
unop_2

>  <geom_source>  (6) 
Heuristics

$$$$

     RDKit          3D

 19 17  0  0  0  0  0  0  0  0999 V2000
   -0.8646   -0.0167   -3.1588 C   0  0  0  0  0  0  0  0  0  0  0  0
   -0.8646   -0.0167   -1.6665 C   0  0  0  0  0  0  0  0  0  0  0  0
   -0.8646    1.0560   -0.9988 N   0  0  0  0  0  0  0  0  0  0  0  0
    0.0136   -0.5467   -3.5362 H   0  0  0  0  0  0  0  0  0  0  0  0
   -1.7429   -0.5467   -3.5362 H   0  0  0  0  0  0  0  0  0  0  0  0
   -0.8647    1.0040   -3.5374 H   0  0  0  0  0  0  0  0  0  0  0  0
   -0.8646   -1.0064   -1.1919 H   0  0  0  0  0  0  0  0  0  0  0  0
   -0.8646    0.8258    0.2008 H   0  0  0  0  0  0  0  0  0  0  0  0
   -0.8646    0.5788    1.4882 C   0  0  0  0  0  3  0  0  0  0  0  0
   -0.1529   -0.7337    1.7862 C   0  0  0  0  0  0  0  0  0  0  0  0
    1.1427   -0.9049    1.0070 C   0  0  0  0  0  0  0  0  0  0  0  0
    2.1001    0.0990    1.2862 O   0  0  0  0  0  0  0  0  0  0  0  0
   -1.7717    0.6814    2.0855 H   0  0  0  0  0  0  0  0  0  0  0  0
   -0.2165    1.4291    1.7021 H   0  0  0  0  0  0  0  0  0  0  0  0
    0.0659   -0.8059    2.8579 H   0  0  0  0  0  0  0  0  0  0  0  0
   -0.8061   -1.5796    1.5517 H   0  0  0  0  0  0  0  0  0  0  0  0
    0.9455   -0.8297   -0.0647 H   0  0  0  0  0  0  0  0  0  0  0  0
    1.5618   -1.9015    1.1944 H   0  0  0  0  0  0  0  0  0  0  0  0
    2.3289    0.0483    2.2157 H   0  0  0  0  0  0  0  0  0  0  0  0
  1  2  1  0
  1  4  1  0
  1  5  1  0
  1  6  1  0
  2  3  2  3
  2  7  1  0
  3  8  1  0
  9 10  1  0
  9 13  1  0
  9 14  1  0
 10 11  1  0
 10 15  1  0
 10 16  1  0
 11 12  1  0
 11 17  1  0
 11 18  1  0
 12 19  1  0
M  RAD  1   9   2
M  END
>  <reaction>  (7) 
rmg_rxn_16506

>  <mol_properties>  (7) 
{"1": {"label": "*0", "atom_type": "Cd"}, "2": {"label": "*1", "atom_type": "N3d"}, "7": {"label": "*2", "atom_type": "H0"}, "8": {"label": "*3", "atom_type": "Cs"}, "9": {"label": "*4", "atom_type": "Cs"}}

>  <type>  (7) 
unop_3

>  <geom_source>  (7) 
Heuristics

$$$$

     RDKit          3D

 19 17  0  0  0  0  0  0  0  0999 V2000
   -0.0401   -1.4637   -3.3516 C   0  0  0  0  0  0  0  0  0  0  0  0
   -0.0401   -1.4637   -1.8593 C   0  0  0  0  0  0  0  0  0  0  0  0
   -0.0401   -0.3911   -1.1916 N   0  0  0  0  0  0  0  0  0  0  0  0
    0.8381   -1.9937   -3.7290 H   0  0  0  0  0  0  0  0  0  0  0  0
   -0.9184   -1.9937   -3.7290 H   0  0  0  0  0  0  0  0  0  0  0  0
   -0.0401   -0.4431   -3.7302 H   0  0  0  0  0  0  0  0  0  0  0  0
   -0.0401   -2.4534   -1.3847 H   0  0  0  0  0  0  0  0  0  0  0  0
   -0.0401   -0.6213    0.0080 H   0  0  0  0  0  0  0  0  0  0  0  0
   -0.0401   -0.8683    1.2954 C   0  0  0  0  0  3  0  0  0  0  0  0
    0.6716    0.2406    2.0580 C   0  0  0  0  0  0  0  0  0  0  0  0
    0.4984    1.6128    1.4237 C   0  0  0  0  0  0  0  0  0  0  0  0
   -0.8520    2.0297    1.3528 O   0  0  0  0  0  0  0  0  0  0  0  0
    0.0797   -1.8312    1.7940 H   0  0  0  0  0  0  0  0  0  0  0  0
   -1.1066   -0.6580    1.2100 H   0  0  0  0  0  0  0  0  0  0  0  0
    0.3062    0.2789    3.0908 H   0  0  0  0  0  0  0  0  0  0  0  0
    1.7430    0.0276    2.1224 H   0  0  0  0  0  0  0  0  0  0  0  0
    0.8520    1.5928    0.3905 H   0  0  0  0  0  0  0  0  0  0  0  0
    1.1033    2.3523    1.9634 H   0  0  0  0  0  0  0  0  0  0  0  0
   -1.1960    2.0933    2.2453 H   0  0  0  0  0  0  0  0  0  0  0  0
  1  2  1  0
  1  4  1  0
  1  5  1  0
  1  6  1  0
  2  3  2  3
  2  7  1  0
  3  8  1  0
  9 10  1  0
  9 13  1  0
  9 14  1  0
 10 11  1  0
 10 15  1  0
 10 16  1  0
 11 12  1  0
 11 17  1  0
 11 18  1  0
 12 19  1  0
M  RAD  1   9   2
M  END
>  <reaction>  (8) 
rmg_rxn_16506

>  <mol_properties>  (8) 
{"1": {"label": "*0", "atom_type": "Cd"}, "2": {"label": "*1", "atom_type": "N3d"}, "7": {"label": "*2", "atom_type": "H0"}, "8": {"label": "*3", "atom_type": "Cs"}, "9": {"label": "*4", "atom_type": "Cs"}}

>  <type>  (8) 
unop_4

>  <geom_source>  (8) 
Heuristics

$$$$

     RDKit          3D

 19 17  0  0  0  0  0  0  0  0999 V2000
    0.3186    0.3799   -3.5407 C   0  0  0  0  0  0  0  0  0  0  0  0
    0.3186    0.3799   -2.0484 C   0  0  0  0  0  0  0  0  0  0  0  0
    0.3186    1.4525   -1.3807 N   0  0  0  0  0  0  0  0  0  0  0  0
    1.1968   -0.1501   -3.9181 H   0  0  0  0  0  0  0  0  0  0  0  0
   -0.5597   -0.1501   -3.9181 H   0  0  0  0  0  0  0  0  0  0  0  0
    0.3186    1.4005   -3.9193 H   0  0  0  0  0  0  0  0  0  0  0  0
    0.3186   -0.6098   -1.5737 H   0  0  0  0  0  0  0  0  0  0  0  0
    0.3186    1.2224   -0.1811 H   0  0  0  0  0  0  0  0  0  0  0  0
    0.3186    0.9754    1.1064 C   0  0  0  0  0  3  0  0  0  0  0  0
   -0.9142    0.1746    1.5026 C   0  0  0  0  0  0  0  0  0  0  0  0
   -0.6775   -1.3284    1.5095 C   0  0  0  0  0  0  0  0  0  0  0  0
    0.3263   -1.7323    2.4214 O   0  0  0  0  0  0  0  0  0  0  0  0
    0.1218    2.0478    1.1415 H   0  0  0  0  0  0  0  0  0  0  0  0
    1.1531    0.7589    1.7739 H   0  0  0  0  0  0  0  0  0  0  0  0
   -1.2580    0.4839    2.4964 H   0  0  0  0  0  0  0  0  0  0  0  0
   -1.7394    0.3866    0.8159 H   0  0  0  0  0  0  0  0  0  0  0  0
   -0.3281   -1.6550    0.5276 H   0  0  0  0  0  0  0  0  0  0  0  0
   -1.6192   -1.8534    1.7140 H   0  0  0  0  0  0  0  0  0  0  0  0
    0.0449   -1.4936    3.3061 H   0  0  0  0  0  0  0  0  0  0  0  0
  1  2  1  0
  1  4  1  0
  1  5  1  0
  1  6  1  0
  2  3  2  3
  2  7  1  0
  3  8  1  0
  9 10  1  0
  9 13  1  0
  9 14  1  0
 10 11  1  0
 10 15  1  0
 10 16  1  0
 11 12  1  0
 11 17  1  0
 11 18  1  0
 12 19  1  0
M  RAD  1   9   2
M  END
>  <reaction>  (9) 
rmg_rxn_16506

>  <mol_properties>  (9) 
{"1": {"label": "*0", "atom_type": "Cd"}, "2": {"label": "*1", "atom_type": "N3d"}, "7": {"label": "*2", "atom_type": "H0"}, "8": {"label": "*3", "atom_type": "Cs"}, "9": {"label": "*4", "atom_type": "Cs"}}

>  <type>  (9) 
unop_5

>  <geom_source>  (9) 
Heuristics

$$$$

     RDKit          3D

 19 17  0  0  0  0  0  0  0  0999 V2000
    0.5660   -1.2172   -3.5524 C   0  0  0  0  0  0  0  0  0  0  0  0
    0.5660   -1.2172   -2.0601 C   0  0  0  0  0  0  0  0  0  0  0  0
    0.5660   -0.1445   -1.3924 N   0  0  0  0  0  0  0  0  0  0  0  0
    1.4443   -1.7472   -3.9298 H   0  0  0  0  0  0  0  0  0  0  0  0
   -0.3123   -1.7472   -3.9298 H   0  0  0  0  0  0  0  0  0  0  0  0
    0.5660   -0.1965   -3.9310 H   0  0  0  0  0  0  0  0  0  0  0  0
    0.5660   -2.2069   -1.5854 H   0  0  0  0  0  0  0  0  0  0  0  0
    0.5660   -0.3747   -0.1928 H   0  0  0  0  0  0  0  0  0  0  0  0
    0.5660   -0.6217    1.0946 C   0  0  0  0  0  3  0  0  0  0  0  0
    0.5660    0.6745    1.8932 C   0  0  0  0  0  0  0  0  0  0  0  0
   -0.6648    1.5337    1.6439 C   0  0  0  0  0  0  0  0  0  0  0  0
   -1.8757    0.8911    1.9945 O   0  0  0  0  0  0  0  0  0  0  0  0
    1.4461   -1.2255    1.3205 H   0  0  0  0  0  0  0  0  0  0  0  0
   -0.3216   -1.2147    1.3171 H   0  0  0  0  0  0  0  0  0  0  0  0
    0.6331    0.4540    2.9649 H   0  0  0  0  0  0  0  0  0  0  0  0
    1.4517    1.2688    1.6491 H   0  0  0  0  0  0  0  0  0  0  0  0
   -0.7521    1.7591    0.5787 H   0  0  0  0  0  0  0  0  0  0  0  0
   -0.5665    2.4890    2.1745 H   0  0  0  0  0  0  0  0  0  0  0  0
   -1.8570    0.7028    2.9343 H   0  0  0  0  0  0  0  0  0  0  0  0
  1  2  1  0
  1  4  1  0
  1  5  1  0
  1  6  1  0
  2  3  2  3
  2  7  1  0
  3  8  1  0
  9 10  1  0
  9 13  1  0
  9 14  1  0
 10 11  1  0
 10 15  1  0
 10 16  1  0
 11 12  1  0
 11 17  1  0
 11 18  1  0
 12 19  1  0
M  RAD  1   9   2
M  END
>  <reaction>  (10) 
rmg_rxn_16506

>  <mol_properties>  (10) 
{"1": {"label": "*0", "atom_type": "Cd"}, "2": {"label": "*1", "atom_type": "N3d"}, "7": {"label": "*2", "atom_type": "H0"}, "8": {"label": "*3", "atom_type": "Cs"}, "9": {"label": "*4", "atom_type": "Cs"}}

>  <type>  (10) 
unop_6

>  <geom_source>  (10) 
Heuristics

$$$$

     RDKit          3D

 19 17  0  0  0  0  0  0  0  0999 V2000
    0.6472    0.0976   -3.6584 C   0  0  0  0  0  0  0  0  0  0  0  0
    0.6472    0.0976   -2.1661 C   0  0  0  0  0  0  0  0  0  0  0  0
    0.6472    1.1703   -1.4984 N   0  0  0  0  0  0  0  0  0  0  0  0
    1.5255   -0.4323   -4.0358 H   0  0  0  0  0  0  0  0  0  0  0  0
   -0.2311   -0.4323   -4.0358 H   0  0  0  0  0  0  0  0  0  0  0  0
    0.6472    1.1183   -4.0370 H   0  0  0  0  0  0  0  0  0  0  0  0
    0.6472   -0.8920   -1.6914 H   0  0  0  0  0  0  0  0  0  0  0  0
    0.6472    0.9401   -0.2988 H   0  0  0  0  0  0  0  0  0  0  0  0
    0.6472    0.6931    0.9886 C   0  0  0  0  0  3  0  0  0  0  0  0
   -0.7763    0.5913    1.5189 C   0  0  0  0  0  0  0  0  0  0  0  0
   -1.2442   -0.8436    1.7123 C   0  0  0  0  0  0  0  0  0  0  0  0
   -0.4584   -1.5678    2.6399 O   0  0  0  0  0  0  0  0  0  0  0  0
    0.9596    1.7338    0.8912 H   0  0  0  0  0  0  0  0  0  0  0  0
    1.3467    0.1871    1.6547 H   0  0  0  0  0  0  0  0  0  0  0  0
   -0.8588    1.1228    2.4741 H   0  0  0  0  0  0  0  0  0  0  0  0
   -1.4711    1.0871    0.8343 H   0  0  0  0  0  0  0  0  0  0  0  0
   -1.1634   -1.3917    0.7710 H   0  0  0  0  0  0  0  0  0  0  0  0
   -2.3005   -0.8547    2.0090 H   0  0  0  0  0  0  0  0  0  0  0  0
   -0.5266   -1.1384    3.4941 H   0  0  0  0  0  0  0  0  0  0  0  0
  1  2  1  0
  1  4  1  0
  1  5  1  0
  1  6  1  0
  2  3  2  3
  2  7  1  0
  3  8  1  0
  9 10  1  0
  9 13  1  0
  9 14  1  0
 10 11  1  0
 10 15  1  0
 10 16  1  0
 11 12  1  0
 11 17  1  0
 11 18  1  0
 12 19  1  0
M  RAD  1   9   2
M  END
>  <reaction>  (11) 
rmg_rxn_16506

>  <mol_properties>  (11) 
{"1": {"label": "*0", "atom_type": "Cd"}, "2": {"label": "*1", "atom_type": "N3d"}, "7": {"label": "*2", "atom_type": "H0"}, "8": {"label": "*3", "atom_type": "Cs"}, "9": {"label": "*4", "atom_type": "Cs"}}

>  <type>  (11) 
unop_7

>  <geom_source>  (11) 
Heuristics

$$$$

     RDKit          3D

 19 17  0  0  0  0  0  0  0  0999 V2000
    0.8040   -0.2852   -3.7347 C   0  0  0  0  0  0  0  0  0  0  0  0
    0.8040   -0.2852   -2.2424 C   0  0  0  0  0  0  0  0  0  0  0  0
    0.8040    0.7874   -1.5747 N   0  0  0  0  0  0  0  0  0  0  0  0
    1.6822   -0.8152   -4.1121 H   0  0  0  0  0  0  0  0  0  0  0  0
   -0.0743   -0.8152   -4.1121 H   0  0  0  0  0  0  0  0  0  0  0  0
    0.8040    0.7354   -4.1133 H   0  0  0  0  0  0  0  0  0  0  0  0
    0.8040   -1.2749   -1.7678 H   0  0  0  0  0  0  0  0  0  0  0  0
    0.8040    0.5573   -0.3751 H   0  0  0  0  0  0  0  0  0  0  0  0
    0.8040    0.3102    0.9123 C   0  0  0  0  0  3  0  0  0  0  0  0
   -0.4288    0.9075    1.5768 C   0  0  0  0  0  0  0  0  0  0  0  0
   -1.5170   -0.1186    1.8565 C   0  0  0  0  0  0  0  0  0  0  0  0
   -1.0999   -1.1527    2.7277 O   0  0  0  0  0  0  0  0  0  0  0  0
    1.5740    1.0667    0.7545 H   0  0  0  0  0  0  0  0  0  0  0  0
    1.2277   -0.4862    1.5248 H   0  0  0  0  0  0  0  0  0  0  0  0
   -0.1483    1.3925    2.5189 H   0  0  0  0  0  0  0  0  0  0  0  0
   -0.8552    1.6931    0.9456 H   0  0  0  0  0  0  0  0  0  0  0  0
   -1.8058   -0.6176    0.9289 H   0  0  0  0  0  0  0  0  0  0  0  0
   -2.4097    0.3827    2.2512 H   0  0  0  0  0  0  0  0  0  0  0  0
   -0.8666   -0.7616    3.5713 H   0  0  0  0  0  0  0  0  0  0  0  0
  1  2  1  0
  1  4  1  0
  1  5  1  0
  1  6  1  0
  2  3  2  3
  2  7  1  0
  3  8  1  0
  9 10  1  0
  9 13  1  0
  9 14  1  0
 10 11  1  0
 10 15  1  0
 10 16  1  0
 11 12  1  0
 11 17  1  0
 11 18  1  0
 12 19  1  0
M  RAD  1   9   2
M  END
>  <reaction>  (12) 
rmg_rxn_16506

>  <mol_properties>  (12) 
{"1": {"label": "*0", "atom_type": "Cd"}, "2": {"label": "*1", "atom_type": "N3d"}, "7": {"label": "*2", "atom_type": "H0"}, "8": {"label": "*3", "atom_type": "Cs"}, "9": {"label": "*4", "atom_type": "Cs"}}

>  <type>  (12) 
unop_8

>  <geom_source>  (12) 
Heuristics

$$$$

     RDKit          3D

 19 17  0  0  0  0  0  0  0  0999 V2000
   -0.9010   -0.8898   -3.1666 C   0  0  0  0  0  0  0  0  0  0  0  0
   -0.9010   -0.8898   -1.6743 C   0  0  0  0  0  0  0  0  0  0  0  0
   -0.9010    0.1828   -1.0066 N   0  0  0  0  0  0  0  0  0  0  0  0
   -0.0228   -1.4198   -3.5440 H   0  0  0  0  0  0  0  0  0  0  0  0
   -1.7793   -1.4198   -3.5440 H   0  0  0  0  0  0  0  0  0  0  0  0
   -0.9010    0.1308   -3.5452 H   0  0  0  0  0  0  0  0  0  0  0  0
   -0.9010   -1.8795   -1.1996 H   0  0  0  0  0  0  0  0  0  0  0  0
   -0.9010   -0.0474    0.1930 H   0  0  0  0  0  0  0  0  0  0  0  0
   -0.9010   -0.2944    1.4804 C   0  0  0  0  0  3  0  0  0  0  0  0
    0.5225   -0.3962    2.0108 C   0  0  0  0  0  0  0  0  0  0  0  0
    1.5423    0.3163    1.1346 C   0  0  0  0  0  0  0  0  0  0  0  0
    1.2996    1.7047    1.0100 O   0  0  0  0  0  0  0  0  0  0  0  0
   -1.6081   -0.7892    2.1478 H   0  0  0  0  0  0  0  0  0  0  0  0
   -1.2025    0.7482    1.3753 H   0  0  0  0  0  0  0  0  0  0  0  0
    0.5749    0.0182    3.0243 H   0  0  0  0  0  0  0  0  0  0  0  0
    0.8200   -1.4457    2.0957 H   0  0  0  0  0  0  0  0  0  0  0  0
    1.5007   -0.0795    0.1175 H   0  0  0  0  0  0  0  0  0  0  0  0
    2.5546    0.1337    1.5167 H   0  0  0  0  0  0  0  0  0  0  0  0
    1.3594    2.1015    1.8805 H   0  0  0  0  0  0  0  0  0  0  0  0
  1  2  1  0
  1  4  1  0
  1  5  1  0
  1  6  1  0
  2  3  2  3
  2  7  1  0
  3  8  1  0
  9 10  1  0
  9 13  1  0
  9 14  1  0
 10 11  1  0
 10 15  1  0
 10 16  1  0
 11 12  1  0
 11 17  1  0
 11 18  1  0
 12 19  1  0
M  RAD  1   9   2
M  END
>  <reaction>  (13) 
rmg_rxn_16506

>  <mol_properties>  (13) 
{"1": {"label": "*0", "atom_type": "Cd"}, "2": {"label": "*1", "atom_type": "N3d"}, "7": {"label": "*2", "atom_type": "H0"}, "8": {"label": "*3", "atom_type": "Cs"}, "9": {"label": "*4", "atom_type": "Cs"}}

>  <type>  (13) 
unop_9

>  <geom_source>  (13) 
Heuristics

$$$$

     RDKit          3D

 19 17  0  0  0  0  0  0  0  0999 V2000
   -3.4457   -0.4208    0.0369 C   0  0  0  0  0  0  0  0  0  0  0  0
   -2.2150    0.4316   -0.0092 C   0  0  0  0  0  0  0  0  0  0  0  0
   -1.0735   -0.0489   -0.0597 N   0  0  0  0  0  0  0  0  0  0  0  0
   -4.0038   -0.1961    0.9443 H   0  0  0  0  0  0  0  0  0  0  0  0
   -4.0770   -0.1870   -0.8188 H   0  0  0  0  0  0  0  0  0  0  0  0
   -3.1785   -1.4736    0.0208 H   0  0  0  0  0  0  0  0  0  0  0  0
   -2.4216    1.5117    0.0054 H   0  0  0  0  0  0  0  0  0  0  0  0
   -0.1252    0.7779   -0.0893 H   0  0  0  0  0  0  0  0  0  0  0  0
    0.8912    1.5672   -0.1394 C   0  0  0  0  0  3  0  0  0  0  0  0
    2.0736    0.7851    0.3685 C   0  0  0  0  0  0  0  0  0  0  0  0
    2.2376   -0.5693   -0.3406 C   0  0  0  0  0  0  0  0  0  0  0  0
    1.3741   -1.5574    0.1488 O   0  0  0  0  0  0  0  0  0  0  0  0
    0.6312    2.4201    0.4778 H   0  0  0  0  0  0  0  0  0  0  0  0
    0.9735    1.8380   -1.1871 H   0  0  0  0  0  0  0  0  0  0  0  0
    2.9894    1.3667    0.2124 H   0  0  0  0  0  0  0  0  0  0  0  0
    1.9733    0.6014    1.4403 H   0  0  0  0  0  0  0  0  0  0  0  0
    3.2476   -0.9533   -0.1700 H   0  0  0  0  0  0  0  0  0  0  0  0
    2.1013   -0.4304   -1.4244 H   0  0  0  0  0  0  0  0  0  0  0  0
    0.4576   -1.2485    0.0546 H   0  0  0  0  0  0  0  0  0  0  0  0
  1  2  1  0
  1  4  1  0
  1  5  1  0
  1  6  1  0
  2  3  2  3
  2  7  1  0
  3  8  1  0
  9 10  1  0
  9 13  1  0
  9 14  1  0
 10 11  1  0
 10 15  1  0
 10 16  1  0
 11 12  1  0
 11 17  1  0
 11 18  1  0
 12 19  1  0
M  RAD  1   9   2
M  END
>  <reaction>  (14) 
rmg_rxn_16506

>  <mol_properties>  (14) 
{"1": {"label": "*0", "atom_type": "Cd"}, "2": {"label": "*1", "atom_type": "N3d"}, "7": {"label": "*2", "atom_type": "H0"}, "8": {"label": "*3", "atom_type": "Cs"}, "9": {"label": "*4", "atom_type": "Cs"}}

>  <type>  (14) 
unop_10

>  <geom_source>  (14) 
Heuristics

$$$$

     RDKit          3D

 19 17  0  0  0  0  0  0  0  0999 V2000
   -0.1296    0.4677   -3.4001 C   0  0  0  0  0  0  0  0  0  0  0  0
   -0.1296    0.4677   -1.9078 C   0  0  0  0  0  0  0  0  0  0  0  0
   -0.1296    1.5404   -1.2401 N   0  0  0  0  0  0  0  0  0  0  0  0
    0.7486   -0.0622   -3.7775 H   0  0  0  0  0  0  0  0  0  0  0  0
   -1.0079   -0.0622   -3.7775 H   0  0  0  0  0  0  0  0  0  0  0  0
   -0.1296    1.4884   -3.7787 H   0  0  0  0  0  0  0  0  0  0  0  0
   -0.1296   -0.5219   -1.4331 H   0  0  0  0  0  0  0  0  0  0  0  0
   -0.1296    1.3102   -0.0405 H   0  0  0  0  0  0  0  0  0  0  0  0
   -0.1296    1.0632    1.2470 C   0  0  0  0  0  3  0  0  0  0  0  0
   -0.8414   -0.2493    1.5450 C   0  0  0  0  0  0  0  0  0  0  0  0
    0.0251   -1.4738    1.2903 C   0  0  0  0  0  0  0  0  0  0  0  0
    1.1950   -1.5064    2.0857 O   0  0  0  0  0  0  0  0  0  0  0  0
   -0.7686    1.9190    1.4691 H   0  0  0  0  0  0  0  0  0  0  0  0
    0.7814    1.1539    1.8392 H   0  0  0  0  0  0  0  0  0  0  0  0
   -1.1781   -0.2640    2.5881 H   0  0  0  0  0  0  0  0  0  0  0  0
   -1.7441   -0.3372    0.9329 H   0  0  0  0  0  0  0  0  0  0  0  0
    0.3758   -1.4734    0.2559 H   0  0  0  0  0  0  0  0  0  0  0  0
   -0.5667   -2.3863    1.4359 H   0  0  0  0  0  0  0  0  0  0  0  0
    0.9331   -1.5410    3.0072 H   0  0  0  0  0  0  0  0  0  0  0  0
  1  2  1  0
  1  4  1  0
  1  5  1  0
  1  6  1  0
  2  3  2  3
  2  7  1  0
  3  8  1  0
  9 10  1  0
  9 13  1  0
  9 14  1  0
 10 11  1  0
 10 15  1  0
 10 16  1  0
 11 12  1  0
 11 17  1  0
 11 18  1  0
 12 19  1  0
M  RAD  1   9   2
M  END
>  <reaction>  (15) 
rmg_rxn_16506

>  <mol_properties>  (15) 
{"1": {"label": "*0", "atom_type": "Cd"}, "2": {"label": "*1", "atom_type": "N3d"}, "7": {"label": "*2", "atom_type": "H0"}, "8": {"label": "*3", "atom_type": "Cs"}, "9": {"label": "*4", "atom_type": "Cs"}}

>  <type>  (15) 
unop_11

>  <geom_source>  (15) 
Heuristics

$$$$

     RDKit          3D

 19 17  0  0  0  0  0  0  0  0999 V2000
   -0.9828   -0.4406   -3.1321 C   0  0  0  0  0  0  0  0  0  0  0  0
   -0.9828   -0.4406   -1.6397 C   0  0  0  0  0  0  0  0  0  0  0  0
   -0.9828    0.6321   -0.9720 N   0  0  0  0  0  0  0  0  0  0  0  0
   -0.1046   -0.9705   -3.5095 H   0  0  0  0  0  0  0  0  0  0  0  0
   -1.8611   -0.9705   -3.5095 H   0  0  0  0  0  0  0  0  0  0  0  0
   -0.9828    0.5801   -3.5106 H   0  0  0  0  0  0  0  0  0  0  0  0
   -0.9828   -1.4302   -1.1651 H   0  0  0  0  0  0  0  0  0  0  0  0
   -0.9828    0.4019    0.2276 H   0  0  0  0  0  0  0  0  0  0  0  0
   -0.9828    0.1549    1.5150 C   0  0  0  0  0  3  0  0  0  0  0  0
    0.2499   -0.6459    1.9112 C   0  0  0  0  0  0  0  0  0  0  0  0
    1.4578   -0.3647    1.0296 C   0  0  0  0  0  0  0  0  0  0  0  0
    1.8751    0.9868    1.0671 O   0  0  0  0  0  0  0  0  0  0  0  0
   -1.8190   -0.0484    2.1855 H   0  0  0  0  0  0  0  0  0  0  0  0
   -0.7757    1.2251    1.5417 H   0  0  0  0  0  0  0  0  0  0  0  0
    0.5149   -0.4339    2.9535 H   0  0  0  0  0  0  0  0  0  0  0  0
    0.0356   -1.7178    1.8641 H   0  0  0  0  0  0  0  0  0  0  0  0
    1.2108   -0.5648   -0.0154 H   0  0  0  0  0  0  0  0  0  0  0  0
    2.2841   -1.0321    1.3050 H   0  0  0  0  0  0  0  0  0  0  0  0
    2.1346    1.1982    1.9654 H   0  0  0  0  0  0  0  0  0  0  0  0
  1  2  1  0
  1  4  1  0
  1  5  1  0
  1  6  1  0
  2  3  2  3
  2  7  1  0
  3  8  1  0
  9 10  1  0
  9 13  1  0
  9 14  1  0
 10 11  1  0
 10 15  1  0
 10 16  1  0
 11 12  1  0
 11 17  1  0
 11 18  1  0
 12 19  1  0
M  RAD  1   9   2
M  END
>  <reaction>  (16) 
rmg_rxn_16506

>  <mol_properties>  (16) 
{"1": {"label": "*0", "atom_type": "Cd"}, "2": {"label": "*1", "atom_type": "N3d"}, "7": {"label": "*2", "atom_type": "H0"}, "8": {"label": "*3", "atom_type": "Cs"}, "9": {"label": "*4", "atom_type": "Cs"}}

>  <type>  (16) 
unop_12

>  <geom_source>  (16) 
Heuristics

$$$$

     RDKit          3D

 19 17  0  0  0  0  0  0  0  0999 V2000
    0.8052   -0.7169   -3.7236 C   0  0  0  0  0  0  0  0  0  0  0  0
    0.8052   -0.7169   -2.2313 C   0  0  0  0  0  0  0  0  0  0  0  0
    0.8052    0.3557   -1.5636 N   0  0  0  0  0  0  0  0  0  0  0  0
    1.6834   -1.2469   -4.1010 H   0  0  0  0  0  0  0  0  0  0  0  0
   -0.0731   -1.2469   -4.1010 H   0  0  0  0  0  0  0  0  0  0  0  0
    0.8052    0.3037   -4.1022 H   0  0  0  0  0  0  0  0  0  0  0  0
    0.8052   -1.7066   -1.7566 H   0  0  0  0  0  0  0  0  0  0  0  0
    0.8052    0.1255   -0.3640 H   0  0  0  0  0  0  0  0  0  0  0  0
    0.8052   -0.1215    0.9234 C   0  0  0  0  0  3  0  0  0  0  0  0
    0.0934    0.9874    1.6861 C   0  0  0  0  0  0  0  0  0  0  0  0
   -1.3970    0.7356    1.8606 C   0  0  0  0  0  0  0  0  0  0  0  0
   -1.6834   -0.4454    2.5855 O   0  0  0  0  0  0  0  0  0  0  0  0
    1.8749    0.0769    0.8436 H   0  0  0  0  0  0  0  0  0  0  0  0
    0.6719   -1.0824    1.4214 H   0  0  0  0  0  0  0  0  0  0  0  0
    0.5496    1.1143    2.6747 H   0  0  0  0  0  0  0  0  0  0  0  0
    0.2193    1.9432    1.1684 H   0  0  0  0  0  0  0  0  0  0  0  0
   -1.8687    0.6004    0.8848 H   0  0  0  0  0  0  0  0  0  0  0  0
   -1.8690    1.6047    2.3357 H   0  0  0  0  0  0  0  0  0  0  0  0
   -1.3141   -0.3570    3.4657 H   0  0  0  0  0  0  0  0  0  0  0  0
  1  2  1  0
  1  4  1  0
  1  5  1  0
  1  6  1  0
  2  3  2  3
  2  7  1  0
  3  8  1  0
  9 10  1  0
  9 13  1  0
  9 14  1  0
 10 11  1  0
 10 15  1  0
 10 16  1  0
 11 12  1  0
 11 17  1  0
 11 18  1  0
 12 19  1  0
M  RAD  1   9   2
M  END
>  <reaction>  (17) 
rmg_rxn_16506

>  <mol_properties>  (17) 
{"1": {"label": "*0", "atom_type": "Cd"}, "2": {"label": "*1", "atom_type": "N3d"}, "7": {"label": "*2", "atom_type": "H0"}, "8": {"label": "*3", "atom_type": "Cs"}, "9": {"label": "*4", "atom_type": "Cs"}}

>  <type>  (17) 
unop_13

>  <geom_source>  (17) 
Heuristics

$$$$

     RDKit          3D

 19 17  0  0  0  0  0  0  0  0999 V2000
   -0.5660    0.3162   -3.2582 C   0  0  0  0  0  0  0  0  0  0  0  0
   -0.5660    0.3162   -1.7659 C   0  0  0  0  0  0  0  0  0  0  0  0
   -0.5660    1.3889   -1.0982 N   0  0  0  0  0  0  0  0  0  0  0  0
    0.3123   -0.2138   -3.6356 H   0  0  0  0  0  0  0  0  0  0  0  0
   -1.4443   -0.2138   -3.6356 H   0  0  0  0  0  0  0  0  0  0  0  0
   -0.5660    1.3369   -3.6368 H   0  0  0  0  0  0  0  0  0  0  0  0
   -0.5660   -0.6735   -1.2912 H   0  0  0  0  0  0  0  0  0  0  0  0
   -0.5660    1.1587    0.1014 H   0  0  0  0  0  0  0  0  0  0  0  0
   -0.5660    0.9117    1.3888 C   0  0  0  0  0  3  0  0  0  0  0  0
   -0.5660   -0.5881    1.6509 C   0  0  0  0  0  0  0  0  0  0  0  0
    0.6648   -1.2939    1.1013 C   0  0  0  0  0  0  0  0  0  0  0  0
    1.8757   -0.8268    1.6649 O   0  0  0  0  0  0  0  0  0  0  0  0
   -1.4461    1.3890    1.8221 H   0  0  0  0  0  0  0  0  0  0  0  0
    0.3216    1.3802    1.8150 H   0  0  0  0  0  0  0  0  0  0  0  0
   -0.6331   -0.7798    2.7281 H   0  0  0  0  0  0  0  0  0  0  0  0
   -1.4517   -1.0498    1.2042 H   0  0  0  0  0  0  0  0  0  0  0  0
    0.7521   -1.1091    0.0284 H   0  0  0  0  0  0  0  0  0  0  0  0
    0.5665   -2.3779    1.2407 H   0  0  0  0  0  0  0  0  0  0  0  0
    1.8570   -0.9997    2.6076 H   0  0  0  0  0  0  0  0  0  0  0  0
  1  2  1  0
  1  4  1  0
  1  5  1  0
  1  6  1  0
  2  3  2  3
  2  7  1  0
  3  8  1  0
  9 10  1  0
  9 13  1  0
  9 14  1  0
 10 11  1  0
 10 15  1  0
 10 16  1  0
 11 12  1  0
 11 17  1  0
 11 18  1  0
 12 19  1  0
M  RAD  1   9   2
M  END
>  <reaction>  (18) 
rmg_rxn_16506

>  <mol_properties>  (18) 
{"1": {"label": "*0", "atom_type": "Cd"}, "2": {"label": "*1", "atom_type": "N3d"}, "7": {"label": "*2", "atom_type": "H0"}, "8": {"label": "*3", "atom_type": "Cs"}, "9": {"label": "*4", "atom_type": "Cs"}}

>  <type>  (18) 
unop_14

>  <geom_source>  (18) 
Heuristics

$$$$

     RDKit          3D

 19 17  0  0  0  0  0  0  0  0999 V2000
   -0.8647   -0.0167   -3.1588 C   0  0  0  0  0  0  0  0  0  0  0  0
   -0.8647   -0.0167   -1.6665 C   0  0  0  0  0  0  0  0  0  0  0  0
   -0.8647    1.0560   -0.9988 N   0  0  0  0  0  0  0  0  0  0  0  0
    0.0136   -0.5466   -3.5362 H   0  0  0  0  0  0  0  0  0  0  0  0
   -1.7429   -0.5466   -3.5362 H   0  0  0  0  0  0  0  0  0  0  0  0
   -0.8647    1.0040   -3.5374 H   0  0  0  0  0  0  0  0  0  0  0  0
   -0.8647   -1.0064   -1.1919 H   0  0  0  0  0  0  0  0  0  0  0  0
   -0.8647    0.8258    0.2008 H   0  0  0  0  0  0  0  0  0  0  0  0
   -0.8647    0.5788    1.4882 C   0  0  0  0  0  3  0  0  0  0  0  0
   -0.1529   -0.7337    1.7862 C   0  0  0  0  0  0  0  0  0  0  0  0
    1.1427   -0.9049    1.0070 C   0  0  0  0  0  0  0  0  0  0  0  0
    2.1001    0.0990    1.2862 O   0  0  0  0  0  0  0  0  0  0  0  0
   -1.7717    0.6814    2.0855 H   0  0  0  0  0  0  0  0  0  0  0  0
   -0.2165    1.4291    1.7021 H   0  0  0  0  0  0  0  0  0  0  0  0
    0.0659   -0.8059    2.8579 H   0  0  0  0  0  0  0  0  0  0  0  0
   -0.8061   -1.5796    1.5517 H   0  0  0  0  0  0  0  0  0  0  0  0
    0.9455   -0.8297   -0.0647 H   0  0  0  0  0  0  0  0  0  0  0  0
    1.5618   -1.9015    1.1944 H   0  0  0  0  0  0  0  0  0  0  0  0
    2.3289    0.0483    2.2157 H   0  0  0  0  0  0  0  0  0  0  0  0
  1  2  1  0
  1  4  1  0
  1  5  1  0
  1  6  1  0
  2  3  2  3
  2  7  1  0
  3  8  1  0
  9 10  1  0
  9 13  1  0
  9 14  1  0
 10 11  1  0
 10 15  1  0
 10 16  1  0
 11 12  1  0
 11 17  1  0
 11 18  1  0
 12 19  1  0
M  RAD  1   9   2
M  END
>  <reaction>  (19) 
rmg_rxn_16506

>  <mol_properties>  (19) 
{"1": {"label": "*0", "atom_type": "Cd"}, "2": {"label": "*1", "atom_type": "N3d"}, "7": {"label": "*2", "atom_type": "H0"}, "8": {"label": "*3", "atom_type": "Cs"}, "9": {"label": "*4", "atom_type": "Cs"}}

>  <type>  (19) 
unop_15

>  <geom_source>  (19) 
gaussian_log

$$$$
