
     RDKit          3D

  9  8  0  0  0  0  0  0  0  0999 V2000
   -1.5470   -0.0755   -0.1976 C   0  0  0  0  0  0  0  0  0  0  0  0
   -0.2885    0.4507    0.1749 O   0  0  0  0  0  0  0  0  0  0  0  0
   -0.1502    1.7216   -0.3294 N   0  0  0  0  0  0  0  0  0  0  0  0
    0.9626    2.2353   -0.0219 C   0  0  0  0  0  0  0  0  0  0  0  0
   -1.6392   -0.1356   -1.2844 H   0  0  0  0  0  0  0  0  0  0  0  0
   -2.3597    0.5337    0.2044 H   0  0  0  0  0  0  0  0  0  0  0  0
   -1.5879   -1.0750    0.2318 H   0  0  0  0  0  0  0  0  0  0  0  0
    1.1497    3.2381   -0.3820 H   0  0  0  0  0  0  0  0  0  0  0  0
    1.7060    1.7101    0.5739 H   0  0  0  0  0  0  0  0  0  0  0  0
  1  2  1  0
  1  5  1  0
  1  6  1  0
  1  7  1  0
  2  3  1  0
  3  4  2  3
  4  8  1  0
  4  9  1  0
M  END
>  <reaction>  (1) 
rmg_rxn_15672

>  <mol_properties>  (1) 
{"0": {"label": "donator", "atom_type": "Cs"}, "4": {"label": "d_hydrogen", "atom_type": "H0"}}

>  <type>  (1) 
r1h

$$$$

     RDKit          3D

  9  8  0  0  0  0  0  0  0  0999 V2000
   -1.2868    0.1766    0.0689 C   0  0  0  0  0  3  0  0  0  0  0  0
    0.0524   -0.4053   -0.2125 C   0  0  0  0  0  0  0  0  0  0  0  0
    0.4381   -0.4743   -1.6185 N   0  0  0  0  0  0  0  0  0  0  0  0
   -2.0993    0.0348   -0.6334 H   0  0  0  0  0  0  0  0  0  0  0  0
   -1.5107    0.6312    1.0255 H   0  0  0  0  0  0  0  0  0  0  0  0
    0.1170   -1.4256    0.1926 H   0  0  0  0  0  0  0  0  0  0  0  0
    0.8199    0.1594    0.3261 H   0  0  0  0  0  0  0  0  0  0  0  0
   -0.1822   -1.0926   -2.1251 H   0  0  0  0  0  0  0  0  0  0  0  0
    0.3552    0.4394   -2.0455 H   0  0  0  0  0  0  0  0  0  0  0  0
  1  2  1  0
  1  4  1  0
  1  5  1  0
  2  3  1  0
  2  6  1  0
  2  7  1  0
  3  8  1  0
  3  9  1  0
M  RAD  1   1   2
M  END
>  <reaction>  (2) 
rmg_rxn_15672

>  <mol_properties>  (2) 
{"0": {"label": "acceptor", "atom_type": "Cs"}}

>  <type>  (2) 
r2

$$$$

     RDKit          3D

 10  9  0  0  0  0  0  0  0  0999 V2000
   -1.1906   -0.0419   -0.0385 C   0  0  0  0  0  0  0  0  0  0  0  0
    0.2513    0.4500    0.0348 C   0  0  0  0  0  0  0  0  0  0  0  0
    1.2500   -0.5694    0.3278 N   0  0  0  0  0  0  0  0  0  0  0  0
   -1.4965   -0.4905    0.9100 H   0  0  0  0  0  0  0  0  0  0  0  0
   -1.3035   -0.7985   -0.8190 H   0  0  0  0  0  0  0  0  0  0  0  0
   -1.8789    0.7769   -0.2612 H   0  0  0  0  0  0  0  0  0  0  0  0
    0.3352    1.2278    0.7979 H   0  0  0  0  0  0  0  0  0  0  0  0
    0.5259    0.9233   -0.9113 H   0  0  0  0  0  0  0  0  0  0  0  0
    1.2298   -1.2971   -0.3752 H   0  0  0  0  0  0  0  0  0  0  0  0
    1.0523   -1.0138    1.2153 H   0  0  0  0  0  0  0  0  0  0  0  0
  1  2  1  0
  1  4  1  0
  1  5  1  0
  1  6  1  0
  2  3  1  0
  2  7  1  0
  2  8  1  0
  3  9  1  0
  3 10  1  0
M  END
>  <reaction>  (3) 
rmg_rxn_15672

>  <mol_properties>  (3) 
{"0": {"label": "a_hydrogen", "atom_type": "H0"}, "1": {"label": "acceptor", "atom_type": "Cs"}}

>  <type>  (3) 
r2h

$$$$

     RDKit          3D

 18 16  0  0  0  0  0  0  0  0999 V2000
   -1.1876    0.9036    1.0174 C   0  0  0  0  0  0  0  0  0  0  0  0
   -1.1084    1.2242   -0.3353 O   0  0  0  0  0  0  0  0  0  0  0  0
   -1.0473    0.0828   -1.1016 N   0  0  0  0  0  0  0  0  0  0  0  0
   -0.9252    0.3414   -2.3323 C   0  0  0  0  0  0  0  0  0  0  0  0
    0.0038    0.4827    1.4431 H   0  0  0  0  0  0  0  0  0  0  0  0
   -1.8889    0.0941    1.2204 H   0  0  0  0  0  0  0  0  0  0  0  0
   -1.4014    1.8186    1.5635 H   0  0  0  0  0  0  0  0  0  0  0  0
   -0.8694   -0.5074   -3.0003 H   0  0  0  0  0  0  0  0  0  0  0  0
   -0.8754    1.3581   -2.7145 H   0  0  0  0  0  0  0  0  0  0  0  0
    1.2603    0.0647    1.8011 C   0  0  0  0  0  3  0  0  0  0  0  0
    1.8356   -0.6850    0.6231 C   0  0  0  0  0  0  0  0  0  0  0  0
    1.1244   -1.8906    0.2251 N   0  0  0  0  0  0  0  0  0  0  0  0
    1.0816   -0.5505    2.6840 H   0  0  0  0  0  0  0  0  0  0  0  0
    1.7740    0.9933    2.0508 H   0  0  0  0  0  0  0  0  0  0  0  0
    2.8754   -0.9596    0.8401 H   0  0  0  0  0  0  0  0  0  0  0  0
    1.8804   -0.0213   -0.2448 H   0  0  0  0  0  0  0  0  0  0  0  0
    1.0356   -2.5251    1.0082 H   0  0  0  0  0  0  0  0  0  0  0  0
    0.1897   -1.6491   -0.0835 H   0  0  0  0  0  0  0  0  0  0  0  0
  1  2  1  0
  1  5  1  0
  1  6  1  0
  1  7  1  0
  2  3  1  0
  3  4  2  3
  4  8  1  0
  4  9  1  0
 10 11  1  0
 10 13  1  0
 10 14  1  0
 11 12  1  0
 11 15  1  0
 11 16  1  0
 12 17  1  0
 12 18  1  0
M  RAD  1  10   2
M  END
>  <reaction>  (4) 
rmg_rxn_15672

>  <mol_properties>  (4) 
{"0": {"label": "*1", "atom_type": "Cs"}, "1": {"label": "*0", "atom_type": "O2s"}, "4": {"label": "*2", "atom_type": "H0"}, "9": {"label": "*3", "atom_type": "Cs"}, "10": {"label": "*4", "atom_type": "Cs"}}

>  <type>  (4) 
ts

$$$$

     RDKit          3D

 18 16  0  0  0  0  0  0  0  0999 V2000
   -0.4636    1.6128    0.4349 C   0  0  0  0  0  3  0  0  0  0  0  0
   -1.4606    0.8717   -0.1721 O   0  0  0  0  0  0  0  0  0  0  0  0
   -1.4724   -0.4429    0.2502 N   0  0  0  0  0  0  0  0  0  0  0  0
   -2.3636   -1.1821   -0.2572 C   0  0  0  0  0  0  0  0  0  0  0  0
    0.7280    1.2713   -0.1007 H   0  0  0  0  0  0  0  0  0  0  0  0
   -0.3496    1.4092    1.4970 H   0  0  0  0  0  0  0  0  0  0  0  0
   -0.6309    2.6561    0.1957 H   0  0  0  0  0  0  0  0  0  0  0  0
   -2.3747   -2.2075    0.0660 H   0  0  0  0  0  0  0  0  0  0  0  0
   -3.0979   -0.8438   -0.9811 H   0  0  0  0  0  0  0  0  0  0  0  0
    1.8674    0.8833   -0.5885 C   0  0  0  0  0  0  0  0  0  0  0  0
    2.3446   -0.3060    0.2210 C   0  0  0  0  0  0  0  0  0  0  0  0
    1.5052   -1.4876    0.1536 N   0  0  0  0  0  0  0  0  0  0  0  0
    2.5240    1.7424   -0.5055 H   0  0  0  0  0  0  0  0  0  0  0  0
    1.6727    0.6366   -1.6284 H   0  0  0  0  0  0  0  0  0  0  0  0
    2.4348   -0.0234    1.2744 H   0  0  0  0  0  0  0  0  0  0  0  0
    3.3450   -0.6006   -0.1260 H   0  0  0  0  0  0  0  0  0  0  0  0
    0.5727   -1.2787    0.5033 H   0  0  0  0  0  0  0  0  0  0  0  0
    1.4027   -1.7852   -0.8117 H   0  0  0  0  0  0  0  0  0  0  0  0
  1  2  1  0
  1  6  1  0
  1  7  1  0
  2  3  1  0
  3  4  2  3
  4  8  1  0
  4  9  1  0
  5 10  1  0
 10 11  1  0
 10 13  1  0
 10 14  1  0
 11 12  1  0
 11 15  1  0
 11 16  1  0
 12 17  1  0
 12 18  1  0
M  RAD  1   1   2
M  END
>  <reaction>  (5) 
rmg_rxn_15672

>  <mol_properties>  (5) 
{"0": {"label": "*1", "atom_type": "Cs"}, "1": {"label": "*0", "atom_type": "O2s"}, "4": {"label": "*2", "atom_type": "H0"}, "9": {"label": "*3", "atom_type": "Cs"}, "10": {"label": "*4", "atom_type": "Cs"}}

>  <type>  (5) 
unop_1

>  <geom_source>  (5) 
crest_best.xyz

$$$$

     RDKit          3D

 18 16  0  0  0  0  0  0  0  0999 V2000
   -1.3320    0.4896    0.3686 C   0  0  0  0  0  0  0  0  0  0  0  0
   -1.3320    0.5475   -1.0443 O   0  0  0  0  0  0  0  0  0  0  0  0
   -1.3320   -0.7263   -1.5600 N   0  0  0  0  0  0  0  0  0  0  0  0
   -1.3320   -0.7263   -2.8236 C   0  0  0  0  0  0  0  0  0  0  0  0
   -0.2614   -0.1226    0.8127 H   0  0  0  0  0  0  0  0  0  0  0  0
   -2.2241   -0.0206    0.7387 H   0  0  0  0  0  0  0  0  0  0  0  0
   -1.3320    1.5245    0.7064 H   0  0  0  0  0  0  0  0  0  0  0  0
   -1.3320   -1.6934   -3.3084 H   0  0  0  0  0  0  0  0  0  0  0  0
   -1.3320    0.1901   -3.4098 H   0  0  0  0  0  0  0  0  0  0  0  0
    0.8097   -0.7350    1.2571 C   0  0  0  0  0  3  0  0  0  0  0  0
    1.6279    0.1872    2.1551 C   0  0  0  0  0  0  0  0  0  0  0  0
    2.7749    0.8259    1.5233 N   0  0  0  0  0  0  0  0  0  0  0  0
    1.4272   -1.5508    0.8729 H   0  0  0  0  0  0  0  0  0  0  0  0
   -0.0302   -1.1752    1.7996 H   0  0  0  0  0  0  0  0  0  0  0  0
    1.9927   -0.3722    3.0202 H   0  0  0  0  0  0  0  0  0  0  0  0
    0.9850    0.9759    2.5538 H   0  0  0  0  0  0  0  0  0  0  0  0
    3.4160    0.1290    1.1664 H   0  0  0  0  0  0  0  0  0  0  0  0
    2.4783    1.3834    0.7325 H   0  0  0  0  0  0  0  0  0  0  0  0
  1  2  1  0
  1  5  1  0
  1  6  1  0
  1  7  1  0
  2  3  1  0
  3  4  2  3
  4  8  1  0
  4  9  1  0
 10 11  1  0
 10 13  1  0
 10 14  1  0
 11 12  1  0
 11 15  1  0
 11 16  1  0
 12 17  1  0
 12 18  1  0
M  RAD  1  10   2
M  END
>  <reaction>  (6) 
rmg_rxn_15672

>  <mol_properties>  (6) 
{"0": {"label": "*1", "atom_type": "Cs"}, "1": {"label": "*0", "atom_type": "O2s"}, "4": {"label": "*2", "atom_type": "H0"}, "9": {"label": "*3", "atom_type": "Cs"}, "10": {"label": "*4", "atom_type": "Cs"}}

>  <type>  (6) 
unop_2

>  <geom_source>  (6) 
Heuristics

$$$$

     RDKit          3D

 18 16  0  0  0  0  0  0  0  0999 V2000
   -0.5734    1.6164    0.4788 C   0  0  0  0  0  3  0  0  0  0  0  0
   -1.3888    0.8259   -0.2520 O   0  0  0  0  0  0  0  0  0  0  0  0
   -1.6531   -0.3980    0.3180 N   0  0  0  0  0  0  0  0  0  0  0  0
   -2.3646   -1.1843   -0.3793 C   0  0  0  0  0  0  0  0  0  0  0  0
    0.5884   -1.2065    0.9065 H   0  0  0  0  0  0  0  0  0  0  0  0
   -0.4335    1.3706    1.5188 H   0  0  0  0  0  0  0  0  0  0  0  0
   -0.5958    2.6396    0.1504 H   0  0  0  0  0  0  0  0  0  0  0  0
   -2.5794   -2.1443    0.0532 H   0  0  0  0  0  0  0  0  0  0  0  0
   -2.7585   -0.9406   -1.3603 H   0  0  0  0  0  0  0  0  0  0  0  0
    1.6428   -1.3512    0.6577 C   0  0  0  0  0  0  0  0  0  0  0  0
    2.0936   -0.5231   -0.5386 C   0  0  0  0  0  0  0  0  0  0  0  0
    2.0967    0.9098   -0.3185 N   0  0  0  0  0  0  0  0  0  0  0  0
    1.5222   -2.3906    0.4382 H   0  0  0  0  0  0  0  0  0  0  0  0
    2.2706   -1.2037    1.5289 H   0  0  0  0  0  0  0  0  0  0  0  0
    1.4416   -0.7223   -1.3933 H   0  0  0  0  0  0  0  0  0  0  0  0
    3.1127   -0.8124   -0.8166 H   0  0  0  0  0  0  0  0  0  0  0  0
    1.1325    1.2420   -0.1158 H   0  0  0  0  0  0  0  0  0  0  0  0
    2.6655    1.1311    0.4939 H   0  0  0  0  0  0  0  0  0  0  0  0
  1  2  1  0
  1  6  1  0
  1  7  1  0
  2  3  1  0
  3  4  2  3
  4  8  1  0
  4  9  1  0
  5 10  1  0
 10 11  1  0
 10 13  1  0
 10 14  1  0
 11 12  1  0
 11 15  1  0
 11 16  1  0
 12 17  1  0
 12 18  1  0
M  RAD  1   1   2
M  END
>  <reaction>  (7) 
rmg_rxn_15672

>  <mol_properties>  (7) 
{"0": {"label": "*1", "atom_type": "Cs"}, "1": {"label": "*0", "atom_type": "O2s"}, "4": {"label": "*2", "atom_type": "H0"}, "9": {"label": "*3", "atom_type": "Cs"}, "10": {"label": "*4", "atom_type": "Cs"}}

>  <type>  (7) 
unop_3

>  <geom_source>  (7) 
Heuristics

$$$$

     RDKit          3D

 18 16  0  0  0  0  0  0  0  0999 V2000
   -1.2586    0.9183    0.9876 C   0  0  0  0  0  0  0  0  0  0  0  0
   -1.2587    0.9762   -0.4253 O   0  0  0  0  0  0  0  0  0  0  0  0
   -1.2587   -0.2977   -0.9410 N   0  0  0  0  0  0  0  0  0  0  0  0
   -1.2587   -0.2977   -2.2046 C   0  0  0  0  0  0  0  0  0  0  0  0
   -0.1880    0.3061    1.4317 H   0  0  0  0  0  0  0  0  0  0  0  0
   -2.1508    0.4081    1.3577 H   0  0  0  0  0  0  0  0  0  0  0  0
   -1.2587    1.9532    1.3254 H   0  0  0  0  0  0  0  0  0  0  0  0
   -1.2587   -1.2647   -2.6895 H   0  0  0  0  0  0  0  0  0  0  0  0
   -1.2586    0.6188   -2.7908 H   0  0  0  0  0  0  0  0  0  0  0  0
    0.8831   -0.3064    1.8761 C   0  0  0  0  0  3  0  0  0  0  0  0
    2.0575   -0.1032    0.9243 C   0  0  0  0  0  0  0  0  0  0  0  0
    2.0437   -0.9268   -0.2773 N   0  0  0  0  0  0  0  0  0  0  0  0
    0.8427   -1.3404    2.2276 H   0  0  0  0  0  0  0  0  0  0  0  0
    0.9633    0.3437    2.7505 H   0  0  0  0  0  0  0  0  0  0  0  0
    2.9948   -0.2984    1.4513 H   0  0  0  0  0  0  0  0  0  0  0  0
    2.0987    0.9429    0.6107 H   0  0  0  0  0  0  0  0  0  0  0  0
    2.0380   -1.9090   -0.0332 H   0  0  0  0  0  0  0  0  0  0  0  0
    1.2042   -0.7539   -0.8154 H   0  0  0  0  0  0  0  0  0  0  0  0
  1  2  1  0
  1  5  1  0
  1  6  1  0
  1  7  1  0
  2  3  1  0
  3  4  2  3
  4  8  1  0
  4  9  1  0
 10 11  1  0
 10 13  1  0
 10 14  1  0
 11 12  1  0
 11 15  1  0
 11 16  1  0
 12 17  1  0
 12 18  1  0
M  RAD  1  10   2
M  END
>  <reaction>  (8) 
rmg_rxn_15672

>  <mol_properties>  (8) 
{"0": {"label": "*1", "atom_type": "Cs"}, "1": {"label": "*0", "atom_type": "O2s"}, "4": {"label": "*2", "atom_type": "H0"}, "9": {"label": "*3", "atom_type": "Cs"}, "10": {"label": "*4", "atom_type": "Cs"}}

>  <type>  (8) 
unop_4

>  <geom_source>  (8) 
Heuristics

$$$$

     RDKit          3D

 18 16  0  0  0  0  0  0  0  0999 V2000
   -1.1753    0.5223    0.1406 C   0  0  0  0  0  0  0  0  0  0  0  0
   -1.1754    0.5802   -1.2723 O   0  0  0  0  0  0  0  0  0  0  0  0
   -1.1754   -0.6937   -1.7880 N   0  0  0  0  0  0  0  0  0  0  0  0
   -1.1754   -0.6937   -3.0516 C   0  0  0  0  0  0  0  0  0  0  0  0
   -0.1048   -0.0899    0.5847 H   0  0  0  0  0  0  0  0  0  0  0  0
   -2.0675    0.0121    0.5107 H   0  0  0  0  0  0  0  0  0  0  0  0
   -1.1754    1.5572    0.4784 H   0  0  0  0  0  0  0  0  0  0  0  0
   -1.1754   -1.6607   -3.5364 H   0  0  0  0  0  0  0  0  0  0  0  0
   -1.1754    0.2228   -3.6378 H   0  0  0  0  0  0  0  0  0  0  0  0
    0.9664   -0.7024    1.0291 C   0  0  0  0  0  3  0  0  0  0  0  0
    1.3683   -0.1657    2.3991 C   0  0  0  0  0  0  0  0  0  0  0  0
    2.2630    0.9841    2.3870 N   0  0  0  0  0  0  0  0  0  0  0  0
    1.8459   -1.0188    0.4628 H   0  0  0  0  0  0  0  0  0  0  0  0
    0.2972   -1.5612    1.1195 H   0  0  0  0  0  0  0  0  0  0  0  0
    1.8518   -0.9581    2.9760 H   0  0  0  0  0  0  0  0  0  0  0  0
    0.4733    0.1144    2.9603 H   0  0  0  0  0  0  0  0  0  0  0  0
    3.1227    0.7586    1.9030 H   0  0  0  0  0  0  0  0  0  0  0  0
    1.8400    1.7565    1.8884 H   0  0  0  0  0  0  0  0  0  0  0  0
  1  2  1  0
  1  5  1  0
  1  6  1  0
  1  7  1  0
  2  3  1  0
  3  4  2  3
  4  8  1  0
  4  9  1  0
 10 11  1  0
 10 13  1  0
 10 14  1  0
 11 12  1  0
 11 15  1  0
 11 16  1  0
 12 17  1  0
 12 18  1  0
M  RAD  1  10   2
M  END
>  <reaction>  (9) 
rmg_rxn_15672

>  <mol_properties>  (9) 
{"0": {"label": "*1", "atom_type": "Cs"}, "1": {"label": "*0", "atom_type": "O2s"}, "4": {"label": "*2", "atom_type": "H0"}, "9": {"label": "*3", "atom_type": "Cs"}, "10": {"label": "*4", "atom_type": "Cs"}}

>  <type>  (9) 
unop_5

>  <geom_source>  (9) 
Heuristics

$$$$

     RDKit          3D

 18 16  0  0  0  0  0  0  0  0999 V2000
   -0.7415    1.3560    0.7252 C   0  0  0  0  0  0  0  0  0  0  0  0
   -0.7415    1.4140   -0.6876 O   0  0  0  0  0  0  0  0  0  0  0  0
   -0.7415    0.1401   -1.2034 N   0  0  0  0  0  0  0  0  0  0  0  0
   -0.7415    0.1401   -2.4670 C   0  0  0  0  0  0  0  0  0  0  0  0
    0.3291    0.7439    1.1694 H   0  0  0  0  0  0  0  0  0  0  0  0
   -1.6336    0.8458    1.0954 H   0  0  0  0  0  0  0  0  0  0  0  0
   -0.7415    2.3909    1.0630 H   0  0  0  0  0  0  0  0  0  0  0  0
   -0.7415   -0.8270   -2.9518 H   0  0  0  0  0  0  0  0  0  0  0  0
   -0.7415    1.0566   -3.0531 H   0  0  0  0  0  0  0  0  0  0  0  0
    1.4002    0.1314    1.6137 C   0  0  0  0  0  3  0  0  0  0  0  0
    1.4671   -1.2970    1.0828 C   0  0  0  0  0  0  0  0  0  0  0  0
    0.1836   -1.9184    0.7847 N   0  0  0  0  0  0  0  0  0  0  0  0
    0.8289    0.1733    2.5444 H   0  0  0  0  0  0  0  0  0  0  0  0
    2.3984    0.5282    1.8132 H   0  0  0  0  0  0  0  0  0  0  0  0
    1.9854   -1.9328    1.8050 H   0  0  0  0  0  0  0  0  0  0  0  0
    2.0690   -1.3215    0.1710 H   0  0  0  0  0  0  0  0  0  0  0  0
   -0.3971   -1.9464    1.6131 H   0  0  0  0  0  0  0  0  0  0  0  0
   -0.3193   -1.3776    0.0927 H   0  0  0  0  0  0  0  0  0  0  0  0
  1  2  1  0
  1  5  1  0
  1  6  1  0
  1  7  1  0
  2  3  1  0
  3  4  2  3
  4  8  1  0
  4  9  1  0
 10 11  1  0
 10 13  1  0
 10 14  1  0
 11 12  1  0
 11 15  1  0
 11 16  1  0
 12 17  1  0
 12 18  1  0
M  RAD  1  10   2
M  END
>  <reaction>  (10) 
rmg_rxn_15672

>  <mol_properties>  (10) 
{"0": {"label": "*1", "atom_type": "Cs"}, "1": {"label": "*0", "atom_type": "O2s"}, "4": {"label": "*2", "atom_type": "H0"}, "9": {"label": "*3", "atom_type": "Cs"}, "10": {"label": "*4", "atom_type": "Cs"}}

>  <type>  (10) 
unop_6

>  <geom_source>  (10) 
Heuristics

$$$$

     RDKit          3D

 18 16  0  0  0  0  0  0  0  0999 V2000
   -0.5493   -1.5423   -0.5413 C   0  0  0  0  0  3  0  0  0  0  0  0
   -1.4641   -0.8413    0.1658 O   0  0  0  0  0  0  0  0  0  0  0  0
   -1.6790    0.4363   -0.2993 N   0  0  0  0  0  0  0  0  0  0  0  0
   -2.5040    1.1324    0.3676 C   0  0  0  0  0  0  0  0  0  0  0  0
    0.6117    1.2746   -0.5892 H   0  0  0  0  0  0  0  0  0  0  0  0
   -0.3074   -1.1973   -1.5332 H   0  0  0  0  0  0  0  0  0  0  0  0
   -0.5782   -2.5922   -0.3134 H   0  0  0  0  0  0  0  0  0  0  0  0
   -2.6770    2.1330    0.0159 H   0  0  0  0  0  0  0  0  0  0  0  0
   -3.0306    0.7771    1.2472 H   0  0  0  0  0  0  0  0  0  0  0  0
    1.6308    1.4848   -0.2559 C   0  0  0  0  0  0  0  0  0  0  0  0
    2.5080    0.2428   -0.1548 C   0  0  0  0  0  0  0  0  0  0  0  0
    1.9605   -0.8360    0.6412 N   0  0  0  0  0  0  0  0  0  0  0  0
    1.3144    1.8640    0.6936 H   0  0  0  0  0  0  0  0  0  0  0  0
    2.0801    2.2636   -0.8580 H   0  0  0  0  0  0  0  0  0  0  0  0
    3.4705    0.5196    0.2889 H   0  0  0  0  0  0  0  0  0  0  0  0
    2.7011   -0.1531   -1.1558 H   0  0  0  0  0  0  0  0  0  0  0  0
    1.7316   -0.4962    1.5712 H   0  0  0  0  0  0  0  0  0  0  0  0
    1.0789   -1.1872    0.2125 H   0  0  0  0  0  0  0  0  0  0  0  0
  1  2  1  0
  1  6  1  0
  1  7  1  0
  2  3  1  0
  3  4  2  3
  4  8  1  0
  4  9  1  0
  5 10  1  0
 10 11  1  0
 10 13  1  0
 10 14  1  0
 11 12  1  0
 11 15  1  0
 11 16  1  0
 12 17  1  0
 12 18  1  0
M  RAD  1   1   2
M  END
>  <reaction>  (11) 
rmg_rxn_15672

>  <mol_properties>  (11) 
{"0": {"label": "*1", "atom_type": "Cs"}, "1": {"label": "*0", "atom_type": "O2s"}, "4": {"label": "*2", "atom_type": "H0"}, "9": {"label": "*3", "atom_type": "Cs"}, "10": {"label": "*4", "atom_type": "Cs"}}

>  <type>  (11) 
unop_7

>  <geom_source>  (11) 
Heuristics

$$$$

     RDKit          3D

 18 16  0  0  0  0  0  0  0  0999 V2000
   -0.9203    0.6685   -0.0088 C   0  0  0  0  0  0  0  0  0  0  0  0
   -0.9204    0.7264   -1.4217 O   0  0  0  0  0  0  0  0  0  0  0  0
   -0.9204   -0.5474   -1.9374 N   0  0  0  0  0  0  0  0  0  0  0  0
   -0.9204   -0.5474   -3.2010 C   0  0  0  0  0  0  0  0  0  0  0  0
    0.1502    0.0564    0.4353 H   0  0  0  0  0  0  0  0  0  0  0  0
   -1.8125    0.1583    0.3613 H   0  0  0  0  0  0  0  0  0  0  0  0
   -0.9204    1.7034    0.3290 H   0  0  0  0  0  0  0  0  0  0  0  0
   -0.9204   -1.5145   -3.6858 H   0  0  0  0  0  0  0  0  0  0  0  0
   -0.9204    0.3690   -3.7872 H   0  0  0  0  0  0  0  0  0  0  0  0
    1.2214   -0.5561    0.8797 C   0  0  0  0  0  3  0  0  0  0  0  0
    1.2179   -0.6167    2.4038 C   0  0  0  0  0  0  0  0  0  0  0  0
    1.1901    0.6709    3.0848 N   0  0  0  0  0  0  0  0  0  0  0  0
    2.0952   -0.0105    0.5148 H   0  0  0  0  0  0  0  0  0  0  0  0
    1.2427   -1.5571    0.4424 H   0  0  0  0  0  0  0  0  0  0  0  0
    2.1011   -1.1584    2.7513 H   0  0  0  0  0  0  0  0  0  0  0  0
    0.3549   -1.1933    2.7459 H   0  0  0  0  0  0  0  0  0  0  0  0
    1.9926    1.2283    2.8209 H   0  0  0  0  0  0  0  0  0  0  0  0
    0.3677    1.1959    2.8159 H   0  0  0  0  0  0  0  0  0  0  0  0
  1  2  1  0
  1  5  1  0
  1  6  1  0
  1  7  1  0
  2  3  1  0
  3  4  2  3
  4  8  1  0
  4  9  1  0
 10 11  1  0
 10 13  1  0
 10 14  1  0
 11 12  1  0
 11 15  1  0
 11 16  1  0
 12 17  1  0
 12 18  1  0
M  RAD  1  10   2
M  END
>  <reaction>  (12) 
rmg_rxn_15672

>  <mol_properties>  (12) 
{"0": {"label": "*1", "atom_type": "Cs"}, "1": {"label": "*0", "atom_type": "O2s"}, "4": {"label": "*2", "atom_type": "H0"}, "9": {"label": "*3", "atom_type": "Cs"}, "10": {"label": "*4", "atom_type": "Cs"}}

>  <type>  (12) 
unop_8

>  <geom_source>  (12) 
Heuristics

$$$$

     RDKit          3D

 18 16  0  0  0  0  0  0  0  0999 V2000
    0.4639   -1.6128   -0.4353 C   0  0  0  0  0  3  0  0  0  0  0  0
    1.4611   -0.8717    0.1714 O   0  0  0  0  0  0  0  0  0  0  0  0
    1.4715    0.4433   -0.2495 N   0  0  0  0  0  0  0  0  0  0  0  0
    2.3629    1.1826    0.2575 C   0  0  0  0  0  0  0  0  0  0  0  0
   -0.7275   -1.2715    0.1010 H   0  0  0  0  0  0  0  0  0  0  0  0
    0.6317   -2.6562   -0.1970 H   0  0  0  0  0  0  0  0  0  0  0  0
    0.3489   -1.4085   -1.4972 H   0  0  0  0  0  0  0  0  0  0  0  0
    2.3732    2.2082   -0.0652 H   0  0  0  0  0  0  0  0  0  0  0  0
    3.0985    0.8441    0.9800 H   0  0  0  0  0  0  0  0  0  0  0  0
   -1.8663   -0.8832    0.5898 C   0  0  0  0  0  0  0  0  0  0  0  0
   -2.3442    0.3049   -0.2211 C   0  0  0  0  0  0  0  0  0  0  0  0
   -1.5059    1.4874   -0.1545 N   0  0  0  0  0  0  0  0  0  0  0  0
   -1.6707   -0.6346    1.6291 H   0  0  0  0  0  0  0  0  0  0  0  0
   -2.5230   -1.7425    0.5087 H   0  0  0  0  0  0  0  0  0  0  0  0
   -3.3451    0.5990    0.1248 H   0  0  0  0  0  0  0  0  0  0  0  0
   -2.4334    0.0212   -1.2743 H   0  0  0  0  0  0  0  0  0  0  0  0
   -1.4042    1.7860    0.8107 H   0  0  0  0  0  0  0  0  0  0  0  0
   -0.5731    1.2789   -0.5034 H   0  0  0  0  0  0  0  0  0  0  0  0
  1  2  1  0
  1  6  1  0
  1  7  1  0
  2  3  1  0
  3  4  2  3
  4  8  1  0
  4  9  1  0
  5 10  1  0
 10 11  1  0
 10 13  1  0
 10 14  1  0
 11 12  1  0
 11 15  1  0
 11 16  1  0
 12 17  1  0
 12 18  1  0
M  RAD  1   1   2
M  END
>  <reaction>  (13) 
rmg_rxn_15672

>  <mol_properties>  (13) 
{"0": {"label": "*1", "atom_type": "Cs"}, "1": {"label": "*0", "atom_type": "O2s"}, "4": {"label": "*2", "atom_type": "H0"}, "9": {"label": "*3", "atom_type": "Cs"}, "10": {"label": "*4", "atom_type": "Cs"}}

>  <type>  (13) 
unop_9

>  <geom_source>  (13) 
Heuristics

$$$$

     RDKit          3D

 18 16  0  0  0  0  0  0  0  0999 V2000
   -0.6337    1.3393    0.4750 C   0  0  0  0  0  0  0  0  0  0  0  0
   -0.6337    1.3973   -0.9379 O   0  0  0  0  0  0  0  0  0  0  0  0
   -0.6337    0.1234   -1.4536 N   0  0  0  0  0  0  0  0  0  0  0  0
   -0.6337    0.1234   -2.7172 C   0  0  0  0  0  0  0  0  0  0  0  0
    0.4369    0.7272    0.9191 H   0  0  0  0  0  0  0  0  0  0  0  0
   -1.5258    0.8292    0.8451 H   0  0  0  0  0  0  0  0  0  0  0  0
   -0.6337    2.3742    0.8128 H   0  0  0  0  0  0  0  0  0  0  0  0
   -0.6337   -0.8437   -3.2021 H   0  0  0  0  0  0  0  0  0  0  0  0
   -0.6337    1.0399   -3.3034 H   0  0  0  0  0  0  0  0  0  0  0  0
    1.5081    0.1147    1.3635 C   0  0  0  0  0  3  0  0  0  0  0  0
    1.2593   -1.3843    1.4960 C   0  0  0  0  0  0  0  0  0  0  0  0
   -0.1387   -1.7853    1.5811 N   0  0  0  0  0  0  0  0  0  0  0  0
    1.0983    0.6535    2.2214 H   0  0  0  0  0  0  0  0  0  0  0  0
    2.5763    0.3365    1.3054 H   0  0  0  0  0  0  0  0  0  0  0  0
    1.7695   -1.7636    2.3850 H   0  0  0  0  0  0  0  0  0  0  0  0
    1.7045   -1.9066    0.6455 H   0  0  0  0  0  0  0  0  0  0  0  0
   -0.5844   -1.3483    2.3777 H   0  0  0  0  0  0  0  0  0  0  0  0
   -0.6448   -1.4814    0.7591 H   0  0  0  0  0  0  0  0  0  0  0  0
  1  2  1  0
  1  5  1  0
  1  6  1  0
  1  7  1  0
  2  3  1  0
  3  4  2  3
  4  8  1  0
  4  9  1  0
 10 11  1  0
 10 13  1  0
 10 14  1  0
 11 12  1  0
 11 15  1  0
 11 16  1  0
 12 17  1  0
 12 18  1  0
M  RAD  1  10   2
M  END
>  <reaction>  (14) 
rmg_rxn_15672

>  <mol_properties>  (14) 
{"0": {"label": "*1", "atom_type": "Cs"}, "1": {"label": "*0", "atom_type": "O2s"}, "4": {"label": "*2", "atom_type": "H0"}, "9": {"label": "*3", "atom_type": "Cs"}, "10": {"label": "*4", "atom_type": "Cs"}}

>  <type>  (14) 
unop_10

>  <geom_source>  (14) 
Heuristics

$$$$

     RDKit          3D

 18 16  0  0  0  0  0  0  0  0999 V2000
   -0.5735    1.6216   -0.4697 C   0  0  0  0  0  3  0  0  0  0  0  0
   -1.3849    0.8254    0.2591 O   0  0  0  0  0  0  0  0  0  0  0  0
   -1.6561   -0.3920   -0.3215 N   0  0  0  0  0  0  0  0  0  0  0  0
   -2.3630   -1.1848    0.3733 C   0  0  0  0  0  0  0  0  0  0  0  0
    0.5727   -1.2113   -0.8852 H   0  0  0  0  0  0  0  0  0  0  0  0
   -0.4401    1.3848   -1.5126 H   0  0  0  0  0  0  0  0  0  0  0  0
   -0.5922    2.6418   -0.1319 H   0  0  0  0  0  0  0  0  0  0  0  0
   -2.5825   -2.1397   -0.0681 H   0  0  0  0  0  0  0  0  0  0  0  0
   -2.7483   -0.9516    1.3602 H   0  0  0  0  0  0  0  0  0  0  0  0
    1.6291   -1.3600   -0.6464 C   0  0  0  0  0  0  0  0  0  0  0  0
    2.0977   -0.5221    0.5363 C   0  0  0  0  0  0  0  0  0  0  0  0
    2.1039    0.9085    0.3021 N   0  0  0  0  0  0  0  0  0  0  0  0
    2.2476   -1.2236   -1.5262 H   0  0  0  0  0  0  0  0  0  0  0  0
    1.5083   -2.3969   -0.4151 H   0  0  0  0  0  0  0  0  0  0  0  0
    3.1189   -0.8129    0.8048 H   0  0  0  0  0  0  0  0  0  0  0  0
    1.4553   -0.7102    1.4009 H   0  0  0  0  0  0  0  0  0  0  0  0
    2.6627    1.1193   -0.5200 H   0  0  0  0  0  0  0  0  0  0  0  0
    1.1387    1.2428    0.1091 H   0  0  0  0  0  0  0  0  0  0  0  0
  1  2  1  0
  1  6  1  0
  1  7  1  0
  2  3  1  0
  3  4  2  3
  4  8  1  0
  4  9  1  0
  5 10  1  0
 10 11  1  0
 10 13  1  0
 10 14  1  0
 11 12  1  0
 11 15  1  0
 11 16  1  0
 12 17  1  0
 12 18  1  0
M  RAD  1   1   2
M  END
>  <reaction>  (15) 
rmg_rxn_15672

>  <mol_properties>  (15) 
{"0": {"label": "*1", "atom_type": "Cs"}, "1": {"label": "*0", "atom_type": "O2s"}, "4": {"label": "*2", "atom_type": "H0"}, "9": {"label": "*3", "atom_type": "Cs"}, "10": {"label": "*4", "atom_type": "Cs"}}

>  <type>  (15) 
unop_11

>  <geom_source>  (15) 
Heuristics

$$$$

     RDKit          3D

 18 16  0  0  0  0  0  0  0  0999 V2000
   -0.6037    1.2026    0.2156 C   0  0  0  0  0  0  0  0  0  0  0  0
   -0.6037    1.2605   -1.1973 O   0  0  0  0  0  0  0  0  0  0  0  0
   -0.6037   -0.0133   -1.7130 N   0  0  0  0  0  0  0  0  0  0  0  0
   -0.6037   -0.0133   -2.9766 C   0  0  0  0  0  0  0  0  0  0  0  0
    0.4669    0.5904    0.6597 H   0  0  0  0  0  0  0  0  0  0  0  0
   -1.4958    0.6924    0.5857 H   0  0  0  0  0  0  0  0  0  0  0  0
   -0.6037    2.2375    0.5534 H   0  0  0  0  0  0  0  0  0  0  0  0
   -0.6037   -0.9804   -3.4615 H   0  0  0  0  0  0  0  0  0  0  0  0
   -0.6037    0.9031   -3.5628 H   0  0  0  0  0  0  0  0  0  0  0  0
    1.5380   -0.0221    1.1041 C   0  0  0  0  0  3  0  0  0  0  0  0
    1.1589   -1.2579    1.9137 C   0  0  0  0  0  0  0  0  0  0  0  0
   -0.2037   -1.2793    2.4288 N   0  0  0  0  0  0  0  0  0  0  0  0
    1.4364    0.8835    1.7074 H   0  0  0  0  0  0  0  0  0  0  0  0
    2.5711   -0.0786    0.7530 H   0  0  0  0  0  0  0  0  0  0  0  0
    1.8380   -1.3621    2.7635 H   0  0  0  0  0  0  0  0  0  0  0  0
    1.2984   -2.1534    1.3030 H   0  0  0  0  0  0  0  0  0  0  0  0
   -0.3680   -0.4809    3.0287 H   0  0  0  0  0  0  0  0  0  0  0  0
   -0.8701   -1.2172    1.6696 H   0  0  0  0  0  0  0  0  0  0  0  0
  1  2  1  0
  1  5  1  0
  1  6  1  0
  1  7  1  0
  2  3  1  0
  3  4  2  3
  4  8  1  0
  4  9  1  0
 10 11  1  0
 10 13  1  0
 10 14  1  0
 11 12  1  0
 11 15  1  0
 11 16  1  0
 12 17  1  0
 12 18  1  0
M  RAD  1  10   2
M  END
>  <reaction>  (16) 
rmg_rxn_15672

>  <mol_properties>  (16) 
{"0": {"label": "*1", "atom_type": "Cs"}, "1": {"label": "*0", "atom_type": "O2s"}, "4": {"label": "*2", "atom_type": "H0"}, "9": {"label": "*3", "atom_type": "Cs"}, "10": {"label": "*4", "atom_type": "Cs"}}

>  <type>  (16) 
unop_12

>  <geom_source>  (16) 
Heuristics

$$$$

     RDKit          3D

 18 16  0  0  0  0  0  0  0  0999 V2000
   -1.4000    0.5533    0.6236 C   0  0  0  0  0  0  0  0  0  0  0  0
   -1.4000    0.6112   -0.7893 O   0  0  0  0  0  0  0  0  0  0  0  0
   -1.4000   -0.6627   -1.3050 N   0  0  0  0  0  0  0  0  0  0  0  0
   -1.4000   -0.6627   -2.5686 C   0  0  0  0  0  0  0  0  0  0  0  0
   -0.3294   -0.0589    1.0677 H   0  0  0  0  0  0  0  0  0  0  0  0
   -2.2921    0.0431    0.9937 H   0  0  0  0  0  0  0  0  0  0  0  0
   -1.4000    1.5882    0.9614 H   0  0  0  0  0  0  0  0  0  0  0  0
   -1.4000   -1.6297   -3.0534 H   0  0  0  0  0  0  0  0  0  0  0  0
   -1.4000    0.2538   -3.1548 H   0  0  0  0  0  0  0  0  0  0  0  0
    0.7417   -0.6714    1.5121 C   0  0  0  0  0  3  0  0  0  0  0  0
    1.8756    0.3215    1.7467 C   0  0  0  0  0  0  0  0  0  0  0  0
    2.8716    0.4017    0.6865 N   0  0  0  0  0  0  0  0  0  0  0  0
    1.1317   -1.6857    1.3964 H   0  0  0  0  0  0  0  0  0  0  0  0
    0.0374   -0.6747    2.3472 H   0  0  0  0  0  0  0  0  0  0  0  0
    2.3960    0.0714    2.6746 H   0  0  0  0  0  0  0  0  0  0  0  0
    1.4621    1.3227    1.8919 H   0  0  0  0  0  0  0  0  0  0  0  0
    3.3054   -0.5008    0.5395 H   0  0  0  0  0  0  0  0  0  0  0  0
    2.4364    0.6636   -0.1889 H   0  0  0  0  0  0  0  0  0  0  0  0
  1  2  1  0
  1  5  1  0
  1  6  1  0
  1  7  1  0
  2  3  1  0
  3  4  2  3
  4  8  1  0
  4  9  1  0
 10 11  1  0
 10 13  1  0
 10 14  1  0
 11 12  1  0
 11 15  1  0
 11 16  1  0
 12 17  1  0
 12 18  1  0
M  RAD  1  10   2
M  END
>  <reaction>  (17) 
rmg_rxn_15672

>  <mol_properties>  (17) 
{"0": {"label": "*1", "atom_type": "Cs"}, "1": {"label": "*0", "atom_type": "O2s"}, "4": {"label": "*2", "atom_type": "H0"}, "9": {"label": "*3", "atom_type": "Cs"}, "10": {"label": "*4", "atom_type": "Cs"}}

>  <type>  (17) 
unop_13

>  <geom_source>  (17) 
Heuristics

$$$$

     RDKit          3D

 18 16  0  0  0  0  0  0  0  0999 V2000
   -0.4636    1.6128    0.4349 C   0  0  0  0  0  3  0  0  0  0  0  0
   -1.4606    0.8717   -0.1721 O   0  0  0  0  0  0  0  0  0  0  0  0
   -1.4724   -0.4429    0.2502 N   0  0  0  0  0  0  0  0  0  0  0  0
   -2.3636   -1.1821   -0.2572 C   0  0  0  0  0  0  0  0  0  0  0  0
    0.7280    1.2713   -0.1007 H   0  0  0  0  0  0  0  0  0  0  0  0
   -0.3496    1.4092    1.4970 H   0  0  0  0  0  0  0  0  0  0  0  0
   -0.6309    2.6561    0.1957 H   0  0  0  0  0  0  0  0  0  0  0  0
   -2.3747   -2.2075    0.0660 H   0  0  0  0  0  0  0  0  0  0  0  0
   -3.0979   -0.8438   -0.9811 H   0  0  0  0  0  0  0  0  0  0  0  0
    1.8674    0.8833   -0.5885 C   0  0  0  0  0  0  0  0  0  0  0  0
    2.3446   -0.3060    0.2210 C   0  0  0  0  0  0  0  0  0  0  0  0
    1.5052   -1.4876    0.1536 N   0  0  0  0  0  0  0  0  0  0  0  0
    2.5240    1.7424   -0.5055 H   0  0  0  0  0  0  0  0  0  0  0  0
    1.6727    0.6366   -1.6284 H   0  0  0  0  0  0  0  0  0  0  0  0
    2.4348   -0.0234    1.2744 H   0  0  0  0  0  0  0  0  0  0  0  0
    3.3450   -0.6006   -0.1260 H   0  0  0  0  0  0  0  0  0  0  0  0
    0.5727   -1.2787    0.5033 H   0  0  0  0  0  0  0  0  0  0  0  0
    1.4027   -1.7852   -0.8117 H   0  0  0  0  0  0  0  0  0  0  0  0
  1  2  1  0
  1  6  1  0
  1  7  1  0
  2  3  1  0
  3  4  2  3
  4  8  1  0
  4  9  1  0
  5 10  1  0
 10 11  1  0
 10 13  1  0
 10 14  1  0
 11 12  1  0
 11 15  1  0
 11 16  1  0
 12 17  1  0
 12 18  1  0
M  RAD  1   1   2
M  END
>  <reaction>  (18) 
rmg_rxn_15672

>  <mol_properties>  (18) 
{"0": {"label": "*1", "atom_type": "Cs"}, "1": {"label": "*0", "atom_type": "O2s"}, "4": {"label": "*2", "atom_type": "H0"}, "9": {"label": "*3", "atom_type": "Cs"}, "10": {"label": "*4", "atom_type": "Cs"}}

>  <type>  (18) 
unop_14

>  <geom_source>  (18) 
Heuristics

$$$$

     RDKit          3D

 18 16  0  0  0  0  0  0  0  0999 V2000
   -0.8992    1.2743    0.9135 C   0  0  0  0  0  0  0  0  0  0  0  0
   -0.8992    1.3322   -0.4994 O   0  0  0  0  0  0  0  0  0  0  0  0
   -0.8992    0.0583   -1.0151 N   0  0  0  0  0  0  0  0  0  0  0  0
   -0.8992    0.0583   -2.2787 C   0  0  0  0  0  0  0  0  0  0  0  0
    0.1714    0.6621    1.3576 H   0  0  0  0  0  0  0  0  0  0  0  0
   -1.7913    0.7641    1.2836 H   0  0  0  0  0  0  0  0  0  0  0  0
   -0.8992    2.3092    1.2513 H   0  0  0  0  0  0  0  0  0  0  0  0
   -0.8992   -0.9088   -2.7636 H   0  0  0  0  0  0  0  0  0  0  0  0
   -0.8992    0.9748   -2.8649 H   0  0  0  0  0  0  0  0  0  0  0  0
    1.2425    0.0496    1.8020 C   0  0  0  0  0  3  0  0  0  0  0  0
    1.7257   -0.9931    0.7991 C   0  0  0  0  0  0  0  0  0  0  0  0
    0.6825   -1.7921    0.1699 N   0  0  0  0  0  0  0  0  0  0  0  0
    0.6982   -0.4241    2.6227 H   0  0  0  0  0  0  0  0  0  0  0  0
    2.0792    0.6067    2.2300 H   0  0  0  0  0  0  0  0  0  0  0  0
    2.4207   -1.6793    1.2896 H   0  0  0  0  0  0  0  0  0  0  0  0
    2.2943   -0.5026    0.0051 H   0  0  0  0  0  0  0  0  0  0  0  0
    0.1487   -2.2917    0.8696 H   0  0  0  0  0  0  0  0  0  0  0  0
    0.0311   -1.1967   -0.3256 H   0  0  0  0  0  0  0  0  0  0  0  0
  1  2  1  0
  1  5  1  0
  1  6  1  0
  1  7  1  0
  2  3  1  0
  3  4  2  3
  4  8  1  0
  4  9  1  0
 10 11  1  0
 10 13  1  0
 10 14  1  0
 11 12  1  0
 11 15  1  0
 11 16  1  0
 12 17  1  0
 12 18  1  0
M  RAD  1  10   2
M  END
>  <reaction>  (19) 
rmg_rxn_15672

>  <mol_properties>  (19) 
{"0": {"label": "*1", "atom_type": "Cs"}, "1": {"label": "*0", "atom_type": "O2s"}, "4": {"label": "*2", "atom_type": "H0"}, "9": {"label": "*3", "atom_type": "Cs"}, "10": {"label": "*4", "atom_type": "Cs"}}

>  <type>  (19) 
unop_15

>  <geom_source>  (19) 
Heuristics

$$$$

     RDKit          3D

 18 16  0  0  0  0  0  0  0  0999 V2000
   -1.3747    0.7092    0.8490 C   0  0  0  0  0  0  0  0  0  0  0  0
   -1.3747    0.7671   -0.5639 O   0  0  0  0  0  0  0  0  0  0  0  0
   -1.3747   -0.5067   -1.0796 N   0  0  0  0  0  0  0  0  0  0  0  0
   -1.3747   -0.5067   -2.3433 C   0  0  0  0  0  0  0  0  0  0  0  0
   -0.3041    0.0970    1.2931 H   0  0  0  0  0  0  0  0  0  0  0  0
   -2.2668    0.1990    1.2191 H   0  0  0  0  0  0  0  0  0  0  0  0
   -1.3747    1.7441    1.1868 H   0  0  0  0  0  0  0  0  0  0  0  0
   -1.3747   -1.4738   -2.8281 H   0  0  0  0  0  0  0  0  0  0  0  0
   -1.3747    0.4097   -2.9294 H   0  0  0  0  0  0  0  0  0  0  0  0
    0.7671   -0.5155    1.7375 C   0  0  0  0  0  3  0  0  0  0  0  0
    2.0313    0.2143    1.2950 C   0  0  0  0  0  0  0  0  0  0  0  0
    2.6099   -0.2359    0.0360 N   0  0  0  0  0  0  0  0  0  0  0  0
    0.9603   -1.5833    1.8666 H   0  0  0  0  0  0  0  0  0  0  0  0
    0.3937   -0.1236    2.6865 H   0  0  0  0  0  0  0  0  0  0  0  0
    2.7988    0.1195    2.0672 H   0  0  0  0  0  0  0  0  0  0  0  0
    1.8245    1.2835    1.2033 H   0  0  0  0  0  0  0  0  0  0  0  0
    2.8478   -1.2182    0.0870 H   0  0  0  0  0  0  0  0  0  0  0  0
    1.9412   -0.1351   -0.7169 H   0  0  0  0  0  0  0  0  0  0  0  0
  1  2  1  0
  1  5  1  0
  1  6  1  0
  1  7  1  0
  2  3  1  0
  3  4  2  3
  4  8  1  0
  4  9  1  0
 10 11  1  0
 10 13  1  0
 10 14  1  0
 11 12  1  0
 11 15  1  0
 11 16  1  0
 12 17  1  0
 12 18  1  0
M  RAD  1  10   2
M  END
>  <reaction>  (20) 
rmg_rxn_15672

>  <mol_properties>  (20) 
{"0": {"label": "*1", "atom_type": "Cs"}, "1": {"label": "*0", "atom_type": "O2s"}, "4": {"label": "*2", "atom_type": "H0"}, "9": {"label": "*3", "atom_type": "Cs"}, "10": {"label": "*4", "atom_type": "Cs"}}

>  <type>  (20) 
unop_16

>  <geom_source>  (20) 
Heuristics

$$$$

     RDKit          3D

 18 16  0  0  0  0  0  0  0  0999 V2000
   -0.6878    0.9508    0.0214 C   0  0  0  0  0  0  0  0  0  0  0  0
   -0.6878    1.0087   -1.3915 O   0  0  0  0  0  0  0  0  0  0  0  0
   -0.6878   -0.2652   -1.9073 N   0  0  0  0  0  0  0  0  0  0  0  0
   -0.6878   -0.2652   -3.1709 C   0  0  0  0  0  0  0  0  0  0  0  0
    0.3828    0.3386    0.4655 H   0  0  0  0  0  0  0  0  0  0  0  0
   -1.5799    0.4406    0.3915 H   0  0  0  0  0  0  0  0  0  0  0  0
   -0.6878    1.9857    0.3592 H   0  0  0  0  0  0  0  0  0  0  0  0
   -0.6878   -1.2323   -3.6557 H   0  0  0  0  0  0  0  0  0  0  0  0
   -0.6878    0.6513   -3.7570 H   0  0  0  0  0  0  0  0  0  0  0  0
    1.4539   -0.2739    0.9098 C   0  0  0  0  0  3  0  0  0  0  0  0
    1.1646   -0.9832    2.2288 C   0  0  0  0  0  0  0  0  0  0  0  0
    0.1628   -0.3510    3.0769 N   0  0  0  0  0  0  0  0  0  0  0  0
    1.8157    0.7421    1.0866 H   0  0  0  0  0  0  0  0  0  0  0  0
    2.2127   -0.8056    0.3309 H   0  0  0  0  0  0  0  0  0  0  0  0
    2.0866   -1.0687    2.8092 H   0  0  0  0  0  0  0  0  0  0  0  0
    0.8356   -2.0063    2.0305 H   0  0  0  0  0  0  0  0  0  0  0  0
    0.4433    0.5923    3.3131 H   0  0  0  0  0  0  0  0  0  0  0  0
   -0.7208   -0.2802    2.5886 H   0  0  0  0  0  0  0  0  0  0  0  0
  1  2  1  0
  1  5  1  0
  1  6  1  0
  1  7  1  0
  2  3  1  0
  3  4  2  3
  4  8  1  0
  4  9  1  0
 10 11  1  0
 10 13  1  0
 10 14  1  0
 11 12  1  0
 11 15  1  0
 11 16  1  0
 12 17  1  0
 12 18  1  0
M  RAD  1  10   2
M  END
>  <reaction>  (21) 
rmg_rxn_15672

>  <mol_properties>  (21) 
{"0": {"label": "*1", "atom_type": "Cs"}, "1": {"label": "*0", "atom_type": "O2s"}, "4": {"label": "*2", "atom_type": "H0"}, "9": {"label": "*3", "atom_type": "Cs"}, "10": {"label": "*4", "atom_type": "Cs"}}

>  <type>  (21) 
unop_17

>  <geom_source>  (21) 
Heuristics

$$$$

     RDKit          3D

 18 16  0  0  0  0  0  0  0  0999 V2000
   -1.0834    1.1210    1.0078 C   0  0  0  0  0  0  0  0  0  0  0  0
   -1.0834    1.1789   -0.4050 O   0  0  0  0  0  0  0  0  0  0  0  0
   -1.0834   -0.0950   -0.9208 N   0  0  0  0  0  0  0  0  0  0  0  0
   -1.0834   -0.0950   -2.1844 C   0  0  0  0  0  0  0  0  0  0  0  0
   -0.0128    0.5088    1.4520 H   0  0  0  0  0  0  0  0  0  0  0  0
   -1.9755    0.6108    1.3780 H   0  0  0  0  0  0  0  0  0  0  0  0
   -1.0834    2.1559    1.3457 H   0  0  0  0  0  0  0  0  0  0  0  0
   -1.0834   -1.0621   -2.6692 H   0  0  0  0  0  0  0  0  0  0  0  0
   -1.0834    0.8215   -2.7705 H   0  0  0  0  0  0  0  0  0  0  0  0
    1.0584   -0.1037    1.8963 C   0  0  0  0  0  3  0  0  0  0  0  0
    1.9469   -0.5493    0.7394 C   0  0  0  0  0  0  0  0  0  0  0  0
    1.3322   -1.4695   -0.2081 N   0  0  0  0  0  0  0  0  0  0  0  0
    0.7321   -0.9625    2.4883 H   0  0  0  0  0  0  0  0  0  0  0  0
    1.5871    0.5827    2.5618 H   0  0  0  0  0  0  0  0  0  0  0  0
    2.8477   -1.0277    1.1320 H   0  0  0  0  0  0  0  0  0  0  0  0
    2.2878    0.3259    0.1806 H   0  0  0  0  0  0  0  0  0  0  0  0
    1.0291   -2.3124    0.2629 H   0  0  0  0  0  0  0  0  0  0  0  0
    0.5081   -1.0529   -0.6223 H   0  0  0  0  0  0  0  0  0  0  0  0
  1  2  1  0
  1  5  1  0
  1  6  1  0
  1  7  1  0
  2  3  1  0
  3  4  2  3
  4  8  1  0
  4  9  1  0
 10 11  1  0
 10 13  1  0
 10 14  1  0
 11 12  1  0
 11 15  1  0
 11 16  1  0
 12 17  1  0
 12 18  1  0
M  RAD  1  10   2
M  END
>  <reaction>  (22) 
rmg_rxn_15672

>  <mol_properties>  (22) 
{"0": {"label": "*1", "atom_type": "Cs"}, "1": {"label": "*0", "atom_type": "O2s"}, "4": {"label": "*2", "atom_type": "H0"}, "9": {"label": "*3", "atom_type": "Cs"}, "10": {"label": "*4", "atom_type": "Cs"}}

>  <type>  (22) 
unop_18

>  <geom_source>  (22) 
Heuristics

$$$$

     RDKit          3D

 18 16  0  0  0  0  0  0  0  0999 V2000
    1.8311    0.0255   -0.0601 O   0  0  0  0  0  0  0  0  0  0  0  0
   -3.1447    0.6281    1.0148 N   0  0  0  0  0  0  0  0  0  0  0  0
    3.1751    0.0946   -0.3480 N   0  0  0  0  0  0  0  0  0  0  0  0
   -1.9204    0.6427    0.2173 C   0  0  0  0  0  0  0  0  0  0  0  0
   -1.5293   -0.7635   -0.2324 C   0  0  0  0  0  0  0  0  0  0  0  0
    0.9439   -0.6466   -0.9384 C   0  0  0  0  0  3  0  0  0  0  0  0
    3.9864    0.7062    0.4501 C   0  0  0  0  0  0  0  0  0  0  0  0
   -1.0946    1.0781    0.8197 H   0  0  0  0  0  0  0  0  0  0  0  0
   -2.0719    1.2848   -0.6767 H   0  0  0  0  0  0  0  0  0  0  0  0
   -1.3495   -1.4141    0.6496 H   0  0  0  0  0  0  0  0  0  0  0  0
   -2.3338   -1.2058   -0.8575 H   0  0  0  0  0  0  0  0  0  0  0  0
   -0.4425   -0.7029   -0.9338 H   0  0  0  0  0  0  0  0  0  0  0  0
   -2.9968    0.0146    1.8491 H   0  0  0  0  0  0  0  0  0  0  0  0
   -3.9145    0.2087    0.4440 H   0  0  0  0  0  0  0  0  0  0  0  0
    0.9627   -0.1637   -1.9379 H   0  0  0  0  0  0  0  0  0  0  0  0
    1.2371   -1.7135   -1.0291 H   0  0  0  0  0  0  0  0  0  0  0  0
    5.0404    0.7537    0.2130 H   0  0  0  0  0  0  0  0  0  0  0  0
    3.6212    1.1729    1.3563 H   0  0  0  0  0  0  0  0  0  0  0  0
  1  6  1  0
  1  3  1  0
  2  4  1  0
  2 13  1  0
  2 14  1  0
  3  7  2  3
  4  5  1  0
  4  8  1  0
  4  9  1  0
  5 10  1  0
  5 11  1  0
  5 12  1  0
  6 15  1  0
  6 16  1  0
  7 17  1  0
  7 18  1  0
M  RAD  1   6   2
M  END
>  <reaction>  (23) 
rmg_rxn_15672

>  <mol_properties>  (23) 
{"0": {"label": "*1", "atom_type": "Cs"}, "1": {"label": "*0", "atom_type": "O2s"}, "4": {"label": "*2", "atom_type": "H0"}, "9": {"label": "*3", "atom_type": "Cs"}, "10": {"label": "*4", "atom_type": "Cs"}}

>  <type>  (23) 
unop_19

>  <geom_source>  (23) 
AutoTST

$$$$

     RDKit          3D

 18 16  0  0  0  0  0  0  0  0999 V2000
   -1.2586    0.9183    0.9876 C   0  0  0  0  0  0  0  0  0  0  0  0
   -1.2587    0.9762   -0.4253 O   0  0  0  0  0  0  0  0  0  0  0  0
   -1.2587   -0.2977   -0.9410 N   0  0  0  0  0  0  0  0  0  0  0  0
   -1.2587   -0.2977   -2.2046 C   0  0  0  0  0  0  0  0  0  0  0  0
   -0.1880    0.3061    1.4317 H   0  0  0  0  0  0  0  0  0  0  0  0
   -2.1507    0.4081    1.3577 H   0  0  0  0  0  0  0  0  0  0  0  0
   -1.2587    1.9532    1.3254 H   0  0  0  0  0  0  0  0  0  0  0  0
   -1.2587   -1.2647   -2.6895 H   0  0  0  0  0  0  0  0  0  0  0  0
   -1.2587    0.6188   -2.7908 H   0  0  0  0  0  0  0  0  0  0  0  0
    0.8831   -0.3064    1.8761 C   0  0  0  0  0  3  0  0  0  0  0  0
    2.0575   -0.1032    0.9243 C   0  0  0  0  0  0  0  0  0  0  0  0
    2.0437   -0.9268   -0.2773 N   0  0  0  0  0  0  0  0  0  0  0  0
    0.8427   -1.3404    2.2276 H   0  0  0  0  0  0  0  0  0  0  0  0
    0.9633    0.3437    2.7505 H   0  0  0  0  0  0  0  0  0  0  0  0
    2.9948   -0.2984    1.4513 H   0  0  0  0  0  0  0  0  0  0  0  0
    2.0987    0.9429    0.6107 H   0  0  0  0  0  0  0  0  0  0  0  0
    2.0380   -1.9090   -0.0332 H   0  0  0  0  0  0  0  0  0  0  0  0
    1.2042   -0.7539   -0.8154 H   0  0  0  0  0  0  0  0  0  0  0  0
  1  2  1  0
  1  5  1  0
  1  6  1  0
  1  7  1  0
  2  3  1  0
  3  4  2  3
  4  8  1  0
  4  9  1  0
 10 11  1  0
 10 13  1  0
 10 14  1  0
 11 12  1  0
 11 15  1  0
 11 16  1  0
 12 17  1  0
 12 18  1  0
M  RAD  1  10   2
M  END
>  <reaction>  (24) 
rmg_rxn_15672

>  <mol_properties>  (24) 
{"0": {"label": "*1", "atom_type": "Cs"}, "1": {"label": "*0", "atom_type": "O2s"}, "4": {"label": "*2", "atom_type": "H0"}, "9": {"label": "*3", "atom_type": "Cs"}, "10": {"label": "*4", "atom_type": "Cs"}}

>  <type>  (24) 
unop_20

>  <geom_source>  (24) 
gaussian_log

$$$$
