
     RDKit          3D

  9  8  0  0  0  0  0  0  0  0999 V2000
   -0.9895    0.3048    0.1041 C   0  0  0  0  0  0  0  0  0  0  0  0
    0.3761   -0.3562    0.0721 C   0  0  0  0  0  0  0  0  0  0  0  0
    0.3441   -1.6564   -0.4834 O   0  0  0  0  0  0  0  0  0  0  0  0
   -1.6997   -0.3114    0.6572 H   0  0  0  0  0  0  0  0  0  0  0  0
   -0.9320    1.2848    0.5822 H   0  0  0  0  0  0  0  0  0  0  0  0
   -1.3774    0.4507   -0.9077 H   0  0  0  0  0  0  0  0  0  0  0  0
    0.7581   -0.4813    1.0862 H   0  0  0  0  0  0  0  0  0  0  0  0
    1.0900    0.2787   -0.4681 H   0  0  0  0  0  0  0  0  0  0  0  0
    0.0089   -1.5959   -1.3792 H   0  0  0  0  0  0  0  0  0  0  0  0
  1  2  1  0
  1  4  1  0
  1  5  1  0
  1  6  1  0
  2  3  1  0
  2  7  1  0
  2  8  1  0
  3  9  1  0
M  END
>  <reaction>  (1) 
rmg_rxn_395

>  <mol_properties>  (1) 
{"2": {"label": "donator", "atom_type": "O2s"}, "8": {"label": "d_hydrogen", "atom_type": "H0"}}

>  <type>  (1) 
r1h

$$$$

     RDKit          3D

 11 10  0  0  0  0  0  0  0  0999 V2000
   -1.2230    0.3768   -0.0849 C   0  0  0  0  0  0  0  0  0  0  0  0
   -0.0734   -0.5533    0.2746 C   0  0  0  0  0  0  0  0  0  0  0  0
   -0.0853   -1.8426   -0.5372 C   0  0  0  0  0  0  0  0  0  0  0  0
    0.0319   -1.6944   -1.8815 O   0  0  0  0  0  1  0  0  0  0  0  0
   -2.1874   -0.0885    0.1341 H   0  0  0  0  0  0  0  0  0  0  0  0
   -1.1670    1.3099    0.4765 H   0  0  0  0  0  0  0  0  0  0  0  0
   -1.2014    0.6189   -1.1483 H   0  0  0  0  0  0  0  0  0  0  0  0
    0.8834   -0.0518    0.1071 H   0  0  0  0  0  0  0  0  0  0  0  0
   -0.1104   -0.8149    1.3362 H   0  0  0  0  0  0  0  0  0  0  0  0
    0.6767   -2.5604   -0.1861 H   0  0  0  0  0  0  0  0  0  0  0  0
   -1.0401   -2.3871   -0.3877 H   0  0  0  0  0  0  0  0  0  0  0  0
  1  2  1  0
  1  5  1  0
  1  6  1  0
  1  7  1  0
  2  3  1  0
  2  8  1  0
  2  9  1  0
  3  4  1  0
  3 10  1  0
  3 11  1  0
M  RAD  1   4   2
M  END
>  <reaction>  (2) 
rmg_rxn_395

>  <mol_properties>  (2) 
{"3": {"label": "acceptor", "atom_type": "O2s"}}

>  <type>  (2) 
r2

$$$$

     RDKit          3D

 12 11  0  0  0  0  0  0  0  0999 V2000
   -1.4643   -0.2505   -0.5284 C   0  0  0  0  0  0  0  0  0  0  0  0
   -0.3946    0.4302    0.3143 C   0  0  0  0  0  0  0  0  0  0  0  0
   -0.5959    0.2382    1.8102 C   0  0  0  0  0  0  0  0  0  0  0  0
   -0.5633   -1.1190    2.2092 O   0  0  0  0  0  0  0  0  0  0  0  0
   -2.4511    0.1644   -0.3109 H   0  0  0  0  0  0  0  0  0  0  0  0
   -1.5019   -1.3198   -0.3181 H   0  0  0  0  0  0  0  0  0  0  0  0
   -1.2720   -0.1182   -1.5941 H   0  0  0  0  0  0  0  0  0  0  0  0
    0.5965    0.0515    0.0385 H   0  0  0  0  0  0  0  0  0  0  0  0
   -0.3776    1.5047    0.1078 H   0  0  0  0  0  0  0  0  0  0  0  0
   -1.5821    0.6048    2.1034 H   0  0  0  0  0  0  0  0  0  0  0  0
    0.1495    0.8220    2.3649 H   0  0  0  0  0  0  0  0  0  0  0  0
    0.3017   -1.4750    1.9997 H   0  0  0  0  0  0  0  0  0  0  0  0
  1  2  1  0
  1  5  1  0
  1  6  1  0
  1  7  1  0
  2  3  1  0
  2  8  1  0
  2  9  1  0
  3  4  1  0
  3 10  1  0
  3 11  1  0
  4 12  1  0
M  END
>  <reaction>  (3) 
rmg_rxn_395

>  <mol_properties>  (3) 
{"0": {"label": "a_hydrogen", "atom_type": "H0"}, "4": {"label": "acceptor", "atom_type": "O2s"}}

>  <type>  (3) 
r2h

$$$$

     RDKit          3D

 20 18  0  0  0  0  0  0  0  0999 V2000
    1.2994   -1.6756   -0.8390 C   0  0  0  0  0  0  0  0  0  0  0  0
    0.4466   -2.2608    0.2722 C   0  0  0  0  0  0  0  0  0  0  0  0
    0.1715   -1.3543    1.2935 O   0  0  0  0  0  1  0  0  0  0  0  0
    2.2247   -1.2630   -0.4348 H   0  0  0  0  0  0  0  0  0  0  0  0
    1.5496   -2.4437   -1.5732 H   0  0  0  0  0  0  0  0  0  0  0  0
    0.7539   -0.8779   -1.3452 H   0  0  0  0  0  0  0  0  0  0  0  0
    0.9897   -3.0792    0.7657 H   0  0  0  0  0  0  0  0  0  0  0  0
   -0.4786   -2.6919   -0.1287 H   0  0  0  0  0  0  0  0  0  0  0  0
   -0.7784   -0.7338    1.0486 H   0  0  0  0  0  0  0  0  0  0  0  0
   -0.2455    1.9373   -1.5318 C   0  0  0  0  0  0  0  0  0  0  0  0
    0.1445    1.8528   -0.0637 C   0  0  0  0  0  0  0  0  0  0  0  0
   -0.9801    1.3430    0.8273 C   0  0  0  0  0  0  0  0  0  0  0  0
   -1.4140    0.0605    0.4972 O   0  0  0  0  0  0  0  0  0  0  0  0
   -1.0473    2.6640   -1.6830 H   0  0  0  0  0  0  0  0  0  0  0  0
    0.6018    2.2405   -2.1483 H   0  0  0  0  0  0  0  0  0  0  0  0
   -0.6022    0.9725   -1.8952 H   0  0  0  0  0  0  0  0  0  0  0  0
    1.0010    1.1858    0.0671 H   0  0  0  0  0  0  0  0  0  0  0  0
    0.4494    2.8365    0.3047 H   0  0  0  0  0  0  0  0  0  0  0  0
   -0.6950    1.3984    1.8845 H   0  0  0  0  0  0  0  0  0  0  0  0
   -1.8678    1.9806    0.6992 H   0  0  0  0  0  0  0  0  0  0  0  0
  1  2  1  0
  1  4  1  0
  1  5  1  0
  1  6  1  0
  2  3  1  0
  2  7  1  0
  2  8  1  0
  9 13  1  0
 10 11  1  0
 10 14  1  0
 10 15  1  0
 10 16  1  0
 11 12  1  0
 11 17  1  0
 11 18  1  0
 12 13  1  0
 12 19  1  0
 12 20  1  0
M  RAD  1   3   2
M  END
>  <reaction>  (4) 
rmg_rxn_395

>  <mol_properties>  (4) 
{"1": {"label": "*4", "atom_type": "Cs"}, "2": {"label": "*3", "atom_type": "O2s"}, "8": {"label": "*2", "atom_type": "H0"}, "11": {"label": "*0", "atom_type": "Cs"}, "12": {"label": "*1", "atom_type": "O2s"}}

>  <type>  (4) 
ts

$$$$

     RDKit          3D

 20 18  0  0  0  0  0  0  0  0999 V2000
    1.0010   -1.8523   -2.1016 C   0  0  0  0  0  0  0  0  0  0  0  0
    1.0010   -1.8523   -0.5841 C   0  0  0  0  0  0  0  0  0  0  0  0
    1.0010   -0.5491   -0.0348 O   0  0  0  0  0  0  0  0  0  0  0  0
    1.8570   -1.2948   -2.4839 H   0  0  0  0  0  0  0  0  0  0  0  0
    1.0494   -2.8729   -2.4868 H   0  0  0  0  0  0  0  0  0  0  0  0
    0.0896   -1.3921   -2.4928 H   0  0  0  0  0  0  0  0  0  0  0  0
    1.9075   -2.3280   -0.2072 H   0  0  0  0  0  0  0  0  0  0  0  0
    0.1488   -2.4320   -0.2068 H   0  0  0  0  0  0  0  0  0  0  0  0
    0.0627    0.0029   -0.4056 H   0  0  0  0  0  0  0  0  0  0  0  0
    0.3108    1.8974    1.6422 C   0  0  0  0  0  0  0  0  0  0  0  0
   -0.8596    0.9237    1.6489 C   0  0  0  0  0  0  0  0  0  0  0  0
   -1.6498    0.9252    0.3486 C   0  0  0  0  0  0  0  0  0  0  0  0
   -0.8758    0.5550   -0.7766 O   0  0  0  0  0  1  0  0  0  0  0  0
   -0.0401    2.9241    1.5149 H   0  0  0  0  0  0  0  0  0  0  0  0
    0.8719    1.8480    2.5764 H   0  0  0  0  0  0  0  0  0  0  0  0
    0.9938    1.6777    0.8211 H   0  0  0  0  0  0  0  0  0  0  0  0
   -0.4994   -0.0932    1.8436 H   0  0  0  0  0  0  0  0  0  0  0  0
   -1.5468    1.1643    2.4657 H   0  0  0  0  0  0  0  0  0  0  0  0
   -2.5277    0.2741    0.4449 H   0  0  0  0  0  0  0  0  0  0  0  0
   -2.0124    1.9330    0.1343 H   0  0  0  0  0  0  0  0  0  0  0  0
  1  2  1  0
  1  4  1  0
  1  5  1  0
  1  6  1  0
  2  3  1  0
  2  7  1  0
  2  8  1  0
  3  9  1  0
 10 11  1  0
 10 14  1  0
 10 15  1  0
 10 16  1  0
 11 12  1  0
 11 17  1  0
 11 18  1  0
 12 13  1  0
 12 19  1  0
 12 20  1  0
M  RAD  1  13   2
M  END
>  <reaction>  (5) 
rmg_rxn_395

>  <mol_properties>  (5) 
{"1": {"label": "*4", "atom_type": "Cs"}, "2": {"label": "*3", "atom_type": "O2s"}, "8": {"label": "*2", "atom_type": "H0"}, "11": {"label": "*0", "atom_type": "Cs"}, "12": {"label": "*1", "atom_type": "O2s"}}

>  <type>  (5) 
unop_1

>  <geom_source>  (5) 
Heuristics

$$$$

     RDKit          3D

 20 18  0  0  0  0  0  0  0  0999 V2000
    1.5514   -0.9507   -1.6829 C   0  0  0  0  0  0  0  0  0  0  0  0
    1.5514   -0.9507   -0.1654 C   0  0  0  0  0  0  0  0  0  0  0  0
    1.5514    0.3525    0.3839 O   0  0  0  0  0  0  0  0  0  0  0  0
    2.4074   -0.3932   -2.0653 H   0  0  0  0  0  0  0  0  0  0  0  0
    1.5998   -1.9713   -2.0682 H   0  0  0  0  0  0  0  0  0  0  0  0
    0.6400   -0.4906   -2.0741 H   0  0  0  0  0  0  0  0  0  0  0  0
    2.4579   -1.4264    0.2114 H   0  0  0  0  0  0  0  0  0  0  0  0
    0.6992   -1.5304    0.2118 H   0  0  0  0  0  0  0  0  0  0  0  0
    0.6131    0.9045    0.0130 H   0  0  0  0  0  0  0  0  0  0  0  0
   -1.7055    0.0205    1.8990 C   0  0  0  0  0  0  0  0  0  0  0  0
   -1.4211   -0.5559    0.5189 C   0  0  0  0  0  0  0  0  0  0  0  0
   -1.3490    0.5031   -0.5713 C   0  0  0  0  0  0  0  0  0  0  0  0
   -0.3254    1.4565   -0.3580 O   0  0  0  0  0  1  0  0  0  0  0  0
   -2.6748    0.5239    1.9164 H   0  0  0  0  0  0  0  0  0  0  0  0
   -1.7200   -0.7618    2.6591 H   0  0  0  0  0  0  0  0  0  0  0  0
   -0.9476    0.7535    2.1773 H   0  0  0  0  0  0  0  0  0  0  0  0
   -0.4779   -1.1143    0.5335 H   0  0  0  0  0  0  0  0  0  0  0  0
   -2.1967   -1.2768    0.2431 H   0  0  0  0  0  0  0  0  0  0  0  0
   -1.2316    0.0228   -1.5508 H   0  0  0  0  0  0  0  0  0  0  0  0
   -2.2793    1.0749   -0.5972 H   0  0  0  0  0  0  0  0  0  0  0  0
  1  2  1  0
  1  4  1  0
  1  5  1  0
  1  6  1  0
  2  3  1  0
  2  7  1  0
  2  8  1  0
  3  9  1  0
 10 11  1  0
 10 14  1  0
 10 15  1  0
 10 16  1  0
 11 12  1  0
 11 17  1  0
 11 18  1  0
 12 13  1  0
 12 19  1  0
 12 20  1  0
M  RAD  1  13   2
M  END
>  <reaction>  (6) 
rmg_rxn_395

>  <mol_properties>  (6) 
{"1": {"label": "*4", "atom_type": "Cs"}, "2": {"label": "*3", "atom_type": "O2s"}, "8": {"label": "*2", "atom_type": "H0"}, "11": {"label": "*0", "atom_type": "Cs"}, "12": {"label": "*1", "atom_type": "O2s"}}

>  <type>  (6) 
unop_2

>  <geom_source>  (6) 
Heuristics

$$$$

     RDKit          3D

 20 18  0  0  0  0  0  0  0  0999 V2000
    0.7562   -2.2034   -1.7889 C   0  0  0  0  0  0  0  0  0  0  0  0
    0.7562   -2.2034   -0.2714 C   0  0  0  0  0  0  0  0  0  0  0  0
    0.7562   -0.9003    0.2779 O   0  0  0  0  0  0  0  0  0  0  0  0
    1.6122   -1.6459   -2.1712 H   0  0  0  0  0  0  0  0  0  0  0  0
    0.8046   -3.2240   -2.1741 H   0  0  0  0  0  0  0  0  0  0  0  0
   -0.1553   -1.7433   -2.1801 H   0  0  0  0  0  0  0  0  0  0  0  0
    1.6627   -2.6791    0.1055 H   0  0  0  0  0  0  0  0  0  0  0  0
   -0.0960   -2.7832    0.1059 H   0  0  0  0  0  0  0  0  0  0  0  0
   -0.1822   -0.3483   -0.0929 H   0  0  0  0  0  0  0  0  0  0  0  0
    0.6869    2.4155    0.4859 C   0  0  0  0  0  0  0  0  0  0  0  0
   -0.3405    1.6791    1.3345 C   0  0  0  0  0  0  0  0  0  0  0  0
   -1.5100    1.1370    0.5260 C   0  0  0  0  0  0  0  0  0  0  0  0
   -1.1206    0.2038   -0.4639 O   0  0  0  0  0  1  0  0  0  0  0  0
    0.2377    3.2860    0.0023 H   0  0  0  0  0  0  0  0  0  0  0  0
    1.5245    2.7633    1.0921 H   0  0  0  0  0  0  0  0  0  0  0  0
    1.0786    1.7674   -0.2986 H   0  0  0  0  0  0  0  0  0  0  0  0
    0.1387    0.8484    1.8654 H   0  0  0  0  0  0  0  0  0  0  0  0
   -0.7392    2.3439    2.1069 H   0  0  0  0  0  0  0  0  0  0  0  0
   -2.2568    0.6974    1.1990 H   0  0  0  0  0  0  0  0  0  0  0  0
   -1.9972    1.9507   -0.0158 H   0  0  0  0  0  0  0  0  0  0  0  0
  1  2  1  0
  1  4  1  0
  1  5  1  0
  1  6  1  0
  2  3  1  0
  2  7  1  0
  2  8  1  0
  3  9  1  0
 10 11  1  0
 10 14  1  0
 10 15  1  0
 10 16  1  0
 11 12  1  0
 11 17  1  0
 11 18  1  0
 12 13  1  0
 12 19  1  0
 12 20  1  0
M  RAD  1  13   2
M  END
>  <reaction>  (7) 
rmg_rxn_395

>  <mol_properties>  (7) 
{"1": {"label": "*4", "atom_type": "Cs"}, "2": {"label": "*3", "atom_type": "O2s"}, "8": {"label": "*2", "atom_type": "H0"}, "11": {"label": "*0", "atom_type": "Cs"}, "12": {"label": "*1", "atom_type": "O2s"}}

>  <type>  (7) 
unop_3

>  <geom_source>  (7) 
Heuristics

$$$$

     RDKit          3D

 20 18  0  0  0  0  0  0  0  0999 V2000
    1.4771   -1.2835   -0.5470 C   0  0  0  0  0  0  0  0  0  0  0  0
    1.4771   -1.2835    0.9705 C   0  0  0  0  0  0  0  0  0  0  0  0
    1.4771    0.0197    1.5198 O   0  0  0  0  0  0  0  0  0  0  0  0
    2.3332   -0.7259   -0.9294 H   0  0  0  0  0  0  0  0  0  0  0  0
    1.5255   -2.3041   -0.9323 H   0  0  0  0  0  0  0  0  0  0  0  0
    0.5657   -0.8233   -0.9382 H   0  0  0  0  0  0  0  0  0  0  0  0
    2.3836   -1.7592    1.3473 H   0  0  0  0  0  0  0  0  0  0  0  0
    0.6249   -1.8632    1.3477 H   0  0  0  0  0  0  0  0  0  0  0  0
    0.5388    0.5717    1.1489 H   0  0  0  0  0  0  0  0  0  0  0  0
   -2.6372    0.1138   -0.9639 C   0  0  0  0  0  0  0  0  0  0  0  0
   -1.1548    0.0773   -1.3087 C   0  0  0  0  0  0  0  0  0  0  0  0
   -0.3540    1.1819   -0.6351 C   0  0  0  0  0  0  0  0  0  0  0  0
   -0.3997    1.1238    0.7779 O   0  0  0  0  0  1  0  0  0  0  0  0
   -3.0903    1.0493   -1.2999 H   0  0  0  0  0  0  0  0  0  0  0  0
   -3.1742   -0.7086   -1.4387 H   0  0  0  0  0  0  0  0  0  0  0  0
   -2.7870    0.0427    0.1138 H   0  0  0  0  0  0  0  0  0  0  0  0
   -0.7285   -0.8923   -1.0261 H   0  0  0  0  0  0  0  0  0  0  0  0
   -1.0160    0.1667   -2.3904 H   0  0  0  0  0  0  0  0  0  0  0  0
    0.6843    1.1591   -0.9894 H   0  0  0  0  0  0  0  0  0  0  0  0
   -0.7683    2.1571   -0.9004 H   0  0  0  0  0  0  0  0  0  0  0  0
  1  2  1  0
  1  4  1  0
  1  5  1  0
  1  6  1  0
  2  3  1  0
  2  7  1  0
  2  8  1  0
  3  9  1  0
 10 11  1  0
 10 14  1  0
 10 15  1  0
 10 16  1  0
 11 12  1  0
 11 17  1  0
 11 18  1  0
 12 13  1  0
 12 19  1  0
 12 20  1  0
M  RAD  1  13   2
M  END
>  <reaction>  (8) 
rmg_rxn_395

>  <mol_properties>  (8) 
{"1": {"label": "*4", "atom_type": "Cs"}, "2": {"label": "*3", "atom_type": "O2s"}, "8": {"label": "*2", "atom_type": "H0"}, "11": {"label": "*0", "atom_type": "Cs"}, "12": {"label": "*1", "atom_type": "O2s"}}

>  <type>  (8) 
unop_4

>  <geom_source>  (8) 
Heuristics

$$$$

     RDKit          3D

 20 18  0  0  0  0  0  0  0  0999 V2000
    0.7217   -2.3635   -1.1691 C   0  0  0  0  0  0  0  0  0  0  0  0
    0.7217   -2.3635    0.3484 C   0  0  0  0  0  0  0  0  0  0  0  0
    0.7217   -1.0603    0.8977 O   0  0  0  0  0  0  0  0  0  0  0  0
    1.5778   -1.8059   -1.5514 H   0  0  0  0  0  0  0  0  0  0  0  0
    0.7702   -3.3840   -1.5543 H   0  0  0  0  0  0  0  0  0  0  0  0
   -0.1897   -1.9033   -1.5603 H   0  0  0  0  0  0  0  0  0  0  0  0
    1.6282   -2.8392    0.7253 H   0  0  0  0  0  0  0  0  0  0  0  0
   -0.1305   -2.9432    0.7257 H   0  0  0  0  0  0  0  0  0  0  0  0
   -0.2166   -0.5083    0.5268 H   0  0  0  0  0  0  0  0  0  0  0  0
    0.1166    2.3929   -1.2316 C   0  0  0  0  0  0  0  0  0  0  0  0
    0.0442    2.1809    0.2743 C   0  0  0  0  0  0  0  0  0  0  0  0
   -1.1530    1.3472    0.7066 C   0  0  0  0  0  0  0  0  0  0  0  0
   -1.1551    0.0438    0.1559 O   0  0  0  0  0  1  0  0  0  0  0  0
   -0.7615    2.9355   -1.5892 H   0  0  0  0  0  0  0  0  0  0  0  0
    1.0018    2.9676   -1.5081 H   0  0  0  0  0  0  0  0  0  0  0  0
    0.1513    1.4380   -1.7568 H   0  0  0  0  0  0  0  0  0  0  0  0
    0.9608    1.6951    0.6285 H   0  0  0  0  0  0  0  0  0  0  0  0
   -0.0076    3.1447    0.7896 H   0  0  0  0  0  0  0  0  0  0  0  0
   -1.2014    1.3040    1.8020 H   0  0  0  0  0  0  0  0  0  0  0  0
   -2.0771    1.8130    0.3570 H   0  0  0  0  0  0  0  0  0  0  0  0
  1  2  1  0
  1  4  1  0
  1  5  1  0
  1  6  1  0
  2  3  1  0
  2  7  1  0
  2  8  1  0
  3  9  1  0
 10 11  1  0
 10 14  1  0
 10 15  1  0
 10 16  1  0
 11 12  1  0
 11 17  1  0
 11 18  1  0
 12 13  1  0
 12 19  1  0
 12 20  1  0
M  RAD  1  13   2
M  END
>  <reaction>  (9) 
rmg_rxn_395

>  <mol_properties>  (9) 
{"1": {"label": "*4", "atom_type": "Cs"}, "2": {"label": "*3", "atom_type": "O2s"}, "8": {"label": "*2", "atom_type": "H0"}, "11": {"label": "*0", "atom_type": "Cs"}, "12": {"label": "*1", "atom_type": "O2s"}}

>  <type>  (9) 
unop_5

>  <geom_source>  (9) 
Heuristics

$$$$

     RDKit          3D

 20 18  0  0  0  0  0  0  0  0999 V2000
    1.2999   -1.6292   -0.4287 C   0  0  0  0  0  0  0  0  0  0  0  0
    1.2999   -1.6292    1.0888 C   0  0  0  0  0  0  0  0  0  0  0  0
    1.2999   -0.3260    1.6381 O   0  0  0  0  0  0  0  0  0  0  0  0
    2.1560   -1.0716   -0.8110 H   0  0  0  0  0  0  0  0  0  0  0  0
    1.3484   -2.6498   -0.8140 H   0  0  0  0  0  0  0  0  0  0  0  0
    0.3885   -1.1690   -0.8199 H   0  0  0  0  0  0  0  0  0  0  0  0
    2.2064   -2.1049    1.4656 H   0  0  0  0  0  0  0  0  0  0  0  0
    0.4477   -2.2089    1.4661 H   0  0  0  0  0  0  0  0  0  0  0  0
    0.3616    0.2260    1.2672 H   0  0  0  0  0  0  0  0  0  0  0  0
   -2.3311    0.6444   -1.5461 C   0  0  0  0  0  0  0  0  0  0  0  0
   -0.8120    0.7447   -1.5456 C   0  0  0  0  0  0  0  0  0  0  0  0
   -0.2564    1.4409   -0.3121 C   0  0  0  0  0  0  0  0  0  0  0  0
   -0.5769    0.7781    0.8963 O   0  0  0  0  0  1  0  0  0  0  0  0
   -2.7851    1.6380   -1.5423 H   0  0  0  0  0  0  0  0  0  0  0  0
   -2.6923    0.1139   -2.4283 H   0  0  0  0  0  0  0  0  0  0  0  0
   -2.6856    0.1159   -0.6606 H   0  0  0  0  0  0  0  0  0  0  0  0
   -0.3707   -0.2562   -1.6167 H   0  0  0  0  0  0  0  0  0  0  0  0
   -0.4690    1.2915   -2.4292 H   0  0  0  0  0  0  0  0  0  0  0  0
    0.8298    1.5625   -0.4098 H   0  0  0  0  0  0  0  0  0  0  0  0
   -0.6899    2.4393   -0.2209 H   0  0  0  0  0  0  0  0  0  0  0  0
  1  2  1  0
  1  4  1  0
  1  5  1  0
  1  6  1  0
  2  3  1  0
  2  7  1  0
  2  8  1  0
  3  9  1  0
 10 11  1  0
 10 14  1  0
 10 15  1  0
 10 16  1  0
 11 12  1  0
 11 17  1  0
 11 18  1  0
 12 13  1  0
 12 19  1  0
 12 20  1  0
M  RAD  1  13   2
M  END
>  <reaction>  (10) 
rmg_rxn_395

>  <mol_properties>  (10) 
{"1": {"label": "*4", "atom_type": "Cs"}, "2": {"label": "*3", "atom_type": "O2s"}, "8": {"label": "*2", "atom_type": "H0"}, "11": {"label": "*0", "atom_type": "Cs"}, "12": {"label": "*1", "atom_type": "O2s"}}

>  <type>  (10) 
unop_6

>  <geom_source>  (10) 
Heuristics

$$$$

     RDKit          3D

 20 18  0  0  0  0  0  0  0  0999 V2000
    1.1340   -1.9600   -0.4934 C   0  0  0  0  0  0  0  0  0  0  0  0
    1.1340   -1.9600    1.0241 C   0  0  0  0  0  0  0  0  0  0  0  0
    1.1340   -0.6569    1.5735 O   0  0  0  0  0  0  0  0  0  0  0  0
    1.9901   -1.4025   -0.8757 H   0  0  0  0  0  0  0  0  0  0  0  0
    1.1824   -2.9806   -0.8786 H   0  0  0  0  0  0  0  0  0  0  0  0
    0.2226   -1.4999   -0.8846 H   0  0  0  0  0  0  0  0  0  0  0  0
    2.0405   -2.4357    1.4010 H   0  0  0  0  0  0  0  0  0  0  0  0
    0.2818   -2.5398    1.4014 H   0  0  0  0  0  0  0  0  0  0  0  0
    0.1957   -0.1049    1.2026 H   0  0  0  0  0  0  0  0  0  0  0  0
   -1.9008    1.1918   -1.8452 C   0  0  0  0  0  0  0  0  0  0  0  0
   -0.4682    1.4416   -1.3944 C   0  0  0  0  0  0  0  0  0  0  0  0
   -0.3309    1.5946    0.1132 C   0  0  0  0  0  0  0  0  0  0  0  0
   -0.7428    0.4472    0.8316 O   0  0  0  0  0  1  0  0  0  0  0  0
   -2.5436    2.0335   -1.5773 H   0  0  0  0  0  0  0  0  0  0  0  0
   -1.9575    1.0570   -2.9263 H   0  0  0  0  0  0  0  0  0  0  0  0
   -2.3081    0.3001   -1.3677 H   0  0  0  0  0  0  0  0  0  0  0  0
    0.1776    0.6209   -1.7276 H   0  0  0  0  0  0  0  0  0  0  0  0
   -0.0761    2.3477   -1.8661 H   0  0  0  0  0  0  0  0  0  0  0  0
    0.7027    1.8600    0.3686 H   0  0  0  0  0  0  0  0  0  0  0  0
   -0.9728    2.4052    0.4654 H   0  0  0  0  0  0  0  0  0  0  0  0
  1  2  1  0
  1  4  1  0
  1  5  1  0
  1  6  1  0
  2  3  1  0
  2  7  1  0
  2  8  1  0
  3  9  1  0
 10 11  1  0
 10 14  1  0
 10 15  1  0
 10 16  1  0
 11 12  1  0
 11 17  1  0
 11 18  1  0
 12 13  1  0
 12 19  1  0
 12 20  1  0
M  RAD  1  13   2
M  END
>  <reaction>  (11) 
rmg_rxn_395

>  <mol_properties>  (11) 
{"1": {"label": "*4", "atom_type": "Cs"}, "2": {"label": "*3", "atom_type": "O2s"}, "8": {"label": "*2", "atom_type": "H0"}, "11": {"label": "*0", "atom_type": "Cs"}, "12": {"label": "*1", "atom_type": "O2s"}}

>  <type>  (11) 
unop_7

>  <geom_source>  (11) 
Heuristics

$$$$

     RDKit          3D

 20 18  0  0  0  0  0  0  0  0999 V2000
    1.2365   -1.4771   -2.1332 C   0  0  0  0  0  0  0  0  0  0  0  0
    1.2365   -1.4771   -0.6157 C   0  0  0  0  0  0  0  0  0  0  0  0
    1.2365   -0.1739   -0.0664 O   0  0  0  0  0  0  0  0  0  0  0  0
    2.0926   -0.9196   -2.5156 H   0  0  0  0  0  0  0  0  0  0  0  0
    1.2850   -2.4977   -2.5185 H   0  0  0  0  0  0  0  0  0  0  0  0
    0.3251   -1.0170   -2.5244 H   0  0  0  0  0  0  0  0  0  0  0  0
    2.1430   -1.9528   -0.2389 H   0  0  0  0  0  0  0  0  0  0  0  0
    0.3844   -2.0569   -0.2385 H   0  0  0  0  0  0  0  0  0  0  0  0
    0.2982    0.3780   -0.4373 H   0  0  0  0  0  0  0  0  0  0  0  0
   -0.2931    1.2412    2.1655 C   0  0  0  0  0  0  0  0  0  0  0  0
   -1.1996    0.2309    1.4759 C   0  0  0  0  0  0  0  0  0  0  0  0
   -1.6891    0.6957    0.1122 C   0  0  0  0  0  0  0  0  0  0  0  0
   -0.6403    0.9301   -0.8083 O   0  0  0  0  0  1  0  0  0  0  0  0
   -0.8255    2.1771    2.3497 H   0  0  0  0  0  0  0  0  0  0  0  0
    0.0627    0.8631    3.1250 H   0  0  0  0  0  0  0  0  0  0  0  0
    0.5741    1.4710    1.5458 H   0  0  0  0  0  0  0  0  0  0  0  0
   -0.6742   -0.7238    1.3575 H   0  0  0  0  0  0  0  0  0  0  0  0
   -2.0745    0.0212    2.0988 H   0  0  0  0  0  0  0  0  0  0  0  0
   -2.4050   -0.0298   -0.2942 H   0  0  0  0  0  0  0  0  0  0  0  0
   -2.2108    1.6504    0.2092 H   0  0  0  0  0  0  0  0  0  0  0  0
  1  2  1  0
  1  4  1  0
  1  5  1  0
  1  6  1  0
  2  3  1  0
  2  7  1  0
  2  8  1  0
  3  9  1  0
 10 11  1  0
 10 14  1  0
 10 15  1  0
 10 16  1  0
 11 12  1  0
 11 17  1  0
 11 18  1  0
 12 13  1  0
 12 19  1  0
 12 20  1  0
M  RAD  1  13   2
M  END
>  <reaction>  (12) 
rmg_rxn_395

>  <mol_properties>  (12) 
{"1": {"label": "*4", "atom_type": "Cs"}, "2": {"label": "*3", "atom_type": "O2s"}, "8": {"label": "*2", "atom_type": "H0"}, "11": {"label": "*0", "atom_type": "Cs"}, "12": {"label": "*1", "atom_type": "O2s"}}

>  <type>  (12) 
unop_8

>  <geom_source>  (12) 
Heuristics

$$$$

     RDKit          3D

 20 18  0  0  0  0  0  0  0  0999 V2000
    1.6129   -1.0090   -0.8603 C   0  0  0  0  0  0  0  0  0  0  0  0
    1.6129   -1.0090    0.6572 C   0  0  0  0  0  0  0  0  0  0  0  0
    1.6129    0.2942    1.2065 O   0  0  0  0  0  0  0  0  0  0  0  0
    2.4689   -0.4515   -1.2427 H   0  0  0  0  0  0  0  0  0  0  0  0
    1.6613   -2.0296   -1.2456 H   0  0  0  0  0  0  0  0  0  0  0  0
    0.7015   -0.5488   -1.2515 H   0  0  0  0  0  0  0  0  0  0  0  0
    2.5194   -1.4847    1.0340 H   0  0  0  0  0  0  0  0  0  0  0  0
    0.7607   -1.5887    1.0345 H   0  0  0  0  0  0  0  0  0  0  0  0
    0.6746    0.8462    0.8356 H   0  0  0  0  0  0  0  0  0  0  0  0
   -2.7217   -0.2692   -0.0251 C   0  0  0  0  0  0  0  0  0  0  0  0
   -1.3932   -0.4054   -0.7563 C   0  0  0  0  0  0  0  0  0  0  0  0
   -0.6028    0.8935   -0.8131 C   0  0  0  0  0  0  0  0  0  0  0  0
   -0.2639    1.3983    0.4647 O   0  0  0  0  0  1  0  0  0  0  0  0
   -3.3721    0.4465   -0.5332 H   0  0  0  0  0  0  0  0  0  0  0  0
   -3.2465   -1.2243    0.0230 H   0  0  0  0  0  0  0  0  0  0  0  0
   -2.5691    0.0886    0.9936 H   0  0  0  0  0  0  0  0  0  0  0  0
   -0.7778   -1.1740   -0.2745 H   0  0  0  0  0  0  0  0  0  0  0  0
   -1.5598   -0.7482   -1.7820 H   0  0  0  0  0  0  0  0  0  0  0  0
    0.2972    0.7560   -1.4254 H   0  0  0  0  0  0  0  0  0  0  0  0
   -1.2030    1.6744   -1.2853 H   0  0  0  0  0  0  0  0  0  0  0  0
  1  2  1  0
  1  4  1  0
  1  5  1  0
  1  6  1  0
  2  3  1  0
  2  7  1  0
  2  8  1  0
  3  9  1  0
 10 11  1  0
 10 14  1  0
 10 15  1  0
 10 16  1  0
 11 12  1  0
 11 17  1  0
 11 18  1  0
 12 13  1  0
 12 19  1  0
 12 20  1  0
M  RAD  1  13   2
M  END
>  <reaction>  (13) 
rmg_rxn_395

>  <mol_properties>  (13) 
{"1": {"label": "*4", "atom_type": "Cs"}, "2": {"label": "*3", "atom_type": "O2s"}, "8": {"label": "*2", "atom_type": "H0"}, "11": {"label": "*0", "atom_type": "Cs"}, "12": {"label": "*1", "atom_type": "O2s"}}

>  <type>  (13) 
unop_9

>  <geom_source>  (13) 
Heuristics

$$$$

     RDKit          3D

 20 18  0  0  0  0  0  0  0  0999 V2000
    1.4171   -1.1596   -1.9744 C   0  0  0  0  0  0  0  0  0  0  0  0
    1.4171   -1.1596   -0.4569 C   0  0  0  0  0  0  0  0  0  0  0  0
    1.4171    0.1436    0.0924 O   0  0  0  0  0  0  0  0  0  0  0  0
    2.2731   -0.6020   -2.3567 H   0  0  0  0  0  0  0  0  0  0  0  0
    1.4655   -2.1802   -2.3596 H   0  0  0  0  0  0  0  0  0  0  0  0
    0.5056   -0.6994   -2.3656 H   0  0  0  0  0  0  0  0  0  0  0  0
    2.3235   -1.6353   -0.0800 H   0  0  0  0  0  0  0  0  0  0  0  0
    0.5649   -1.7393   -0.0796 H   0  0  0  0  0  0  0  0  0  0  0  0
    0.4787    0.6956   -0.2785 H   0  0  0  0  0  0  0  0  0  0  0  0
   -0.9673    0.5850    2.2426 C   0  0  0  0  0  0  0  0  0  0  0  0
   -1.3596   -0.2760    1.0499 C   0  0  0  0  0  0  0  0  0  0  0  0
   -1.5999    0.5287   -0.2189 C   0  0  0  0  0  0  0  0  0  0  0  0
   -0.4598    1.2477   -0.6494 O   0  0  0  0  0  1  0  0  0  0  0  0
   -1.7642    1.2900    2.4904 H   0  0  0  0  0  0  0  0  0  0  0  0
   -0.7736   -0.0262    3.1252 H   0  0  0  0  0  0  0  0  0  0  0  0
   -0.0698    1.1646    2.0245 H   0  0  0  0  0  0  0  0  0  0  0  0
   -0.5806   -1.0219    0.8543 H   0  0  0  0  0  0  0  0  0  0  0  0
   -2.2705   -0.8395    1.2738 H   0  0  0  0  0  0  0  0  0  0  0  0
   -1.9642   -0.1315   -1.0160 H   0  0  0  0  0  0  0  0  0  0  0  0
   -2.3702    1.2826   -0.0415 H   0  0  0  0  0  0  0  0  0  0  0  0
  1  2  1  0
  1  4  1  0
  1  5  1  0
  1  6  1  0
  2  3  1  0
  2  7  1  0
  2  8  1  0
  3  9  1  0
 10 11  1  0
 10 14  1  0
 10 15  1  0
 10 16  1  0
 11 12  1  0
 11 17  1  0
 11 18  1  0
 12 13  1  0
 12 19  1  0
 12 20  1  0
M  RAD  1  13   2
M  END
>  <reaction>  (14) 
rmg_rxn_395

>  <mol_properties>  (14) 
{"1": {"label": "*4", "atom_type": "Cs"}, "2": {"label": "*3", "atom_type": "O2s"}, "8": {"label": "*2", "atom_type": "H0"}, "11": {"label": "*0", "atom_type": "Cs"}, "12": {"label": "*1", "atom_type": "O2s"}}

>  <type>  (14) 
unop_10

>  <geom_source>  (14) 
Heuristics

$$$$

     RDKit          3D

 20 18  0  0  0  0  0  0  0  0999 V2000
    0.9547   -2.2228   -0.7060 C   0  0  0  0  0  0  0  0  0  0  0  0
    0.9547   -2.2228    0.8115 C   0  0  0  0  0  0  0  0  0  0  0  0
    0.9547   -0.9196    1.3608 O   0  0  0  0  0  0  0  0  0  0  0  0
    1.8108   -1.6652   -1.0883 H   0  0  0  0  0  0  0  0  0  0  0  0
    1.0031   -3.2433   -1.0912 H   0  0  0  0  0  0  0  0  0  0  0  0
    0.0433   -1.7626   -1.0972 H   0  0  0  0  0  0  0  0  0  0  0  0
    1.8612   -2.6985    1.1884 H   0  0  0  0  0  0  0  0  0  0  0  0
    0.1025   -2.8025    1.1888 H   0  0  0  0  0  0  0  0  0  0  0  0
    0.0164   -0.3676    0.9900 H   0  0  0  0  0  0  0  0  0  0  0  0
   -1.1747    1.7657   -1.9298 C   0  0  0  0  0  0  0  0  0  0  0  0
   -0.1481    2.0056   -0.8314 C   0  0  0  0  0  0  0  0  0  0  0  0
   -0.6268    1.5663    0.5445 C   0  0  0  0  0  0  0  0  0  0  0  0
   -0.9221    0.1845    0.6190 O   0  0  0  0  0  1  0  0  0  0  0  0
   -2.0855    2.3386   -1.7408 H   0  0  0  0  0  0  0  0  0  0  0  0
   -0.7873    2.0635   -2.9052 H   0  0  0  0  0  0  0  0  0  0  0  0
   -1.4515    0.7122   -1.9791 H   0  0  0  0  0  0  0  0  0  0  0  0
    0.7833    1.4781   -1.0678 H   0  0  0  0  0  0  0  0  0  0  0  0
    0.1089    3.0680   -0.7798 H   0  0  0  0  0  0  0  0  0  0  0  0
    0.1149    1.8445    1.3038 H   0  0  0  0  0  0  0  0  0  0  0  0
   -1.5588    2.0777    0.7955 H   0  0  0  0  0  0  0  0  0  0  0  0
  1  2  1  0
  1  4  1  0
  1  5  1  0
  1  6  1  0
  2  3  1  0
  2  7  1  0
  2  8  1  0
  3  9  1  0
 10 11  1  0
 10 14  1  0
 10 15  1  0
 10 16  1  0
 11 12  1  0
 11 17  1  0
 11 18  1  0
 12 13  1  0
 12 19  1  0
 12 20  1  0
M  RAD  1  13   2
M  END
>  <reaction>  (15) 
rmg_rxn_395

>  <mol_properties>  (15) 
{"1": {"label": "*4", "atom_type": "Cs"}, "2": {"label": "*3", "atom_type": "O2s"}, "8": {"label": "*2", "atom_type": "H0"}, "11": {"label": "*0", "atom_type": "Cs"}, "12": {"label": "*1", "atom_type": "O2s"}}

>  <type>  (15) 
unop_11

>  <geom_source>  (15) 
Heuristics

$$$$

     RDKit          3D

 20 18  0  0  0  0  0  0  0  0999 V2000
    1.6355   -0.8896   -1.2873 C   0  0  0  0  0  0  0  0  0  0  0  0
    1.6355   -0.8896    0.2302 C   0  0  0  0  0  0  0  0  0  0  0  0
    1.6355    0.4136    0.7795 O   0  0  0  0  0  0  0  0  0  0  0  0
    2.4915   -0.3321   -1.6696 H   0  0  0  0  0  0  0  0  0  0  0  0
    1.6839   -1.9102   -1.6725 H   0  0  0  0  0  0  0  0  0  0  0  0
    0.7240   -0.4295   -1.6785 H   0  0  0  0  0  0  0  0  0  0  0  0
    2.5419   -1.3653    0.6071 H   0  0  0  0  0  0  0  0  0  0  0  0
    0.7833   -1.4693    0.6075 H   0  0  0  0  0  0  0  0  0  0  0  0
    0.6971    0.9656    0.4087 H   0  0  0  0  0  0  0  0  0  0  0  0
   -2.3899   -0.3156    1.0786 C   0  0  0  0  0  0  0  0  0  0  0  0
   -1.4554   -0.6107   -0.0865 C   0  0  0  0  0  0  0  0  0  0  0  0
   -0.9717    0.6426   -0.8009 C   0  0  0  0  0  0  0  0  0  0  0  0
   -0.2414    1.5177    0.0377 O   0  0  0  0  0  1  0  0  0  0  0  0
   -3.2939    0.1902    0.7318 H   0  0  0  0  0  0  0  0  0  0  0  0
   -2.6922   -1.2332    1.5855 H   0  0  0  0  0  0  0  0  0  0  0  0
   -1.9069    0.3348    1.8085 H   0  0  0  0  0  0  0  0  0  0  0  0
   -0.5849   -1.1762    0.2657 H   0  0  0  0  0  0  0  0  0  0  0  0
   -1.9563   -1.2495   -0.8203 H   0  0  0  0  0  0  0  0  0  0  0  0
   -0.3774    0.3648   -1.6805 H   0  0  0  0  0  0  0  0  0  0  0  0
   -1.8266    1.2233   -1.1544 H   0  0  0  0  0  0  0  0  0  0  0  0
  1  2  1  0
  1  4  1  0
  1  5  1  0
  1  6  1  0
  2  3  1  0
  2  7  1  0
  2  8  1  0
  3  9  1  0
 10 11  1  0
 10 14  1  0
 10 15  1  0
 10 16  1  0
 11 12  1  0
 11 17  1  0
 11 18  1  0
 12 13  1  0
 12 19  1  0
 12 20  1  0
M  RAD  1  13   2
M  END
>  <reaction>  (16) 
rmg_rxn_395

>  <mol_properties>  (16) 
{"1": {"label": "*4", "atom_type": "Cs"}, "2": {"label": "*3", "atom_type": "O2s"}, "8": {"label": "*2", "atom_type": "H0"}, "11": {"label": "*0", "atom_type": "Cs"}, "12": {"label": "*1", "atom_type": "O2s"}}

>  <type>  (16) 
unop_12

>  <geom_source>  (16) 
Heuristics

$$$$

     RDKit          3D

 20 18  0  0  0  0  0  0  0  0999 V2000
   -0.3967    0.0193   -0.3054 O   0  0  0  0  0  0  0  0  0  0  0  0
    1.6616    0.6148    0.1196 O   0  0  0  0  0  1  0  0  0  0  0  0
   -2.7161   -0.3461    0.2052 C   0  0  0  0  0  0  0  0  0  0  0  0
   -1.4692    0.5039    0.4514 C   0  0  0  0  0  0  0  0  0  0  0  0
   -3.2087   -0.2296   -1.2357 C   0  0  0  0  0  0  0  0  0  0  0  0
    2.5943   -0.3505    0.5001 C   0  0  0  0  0  0  0  0  0  0  0  0
    4.0002    0.1398    0.1917 C   0  0  0  0  0  0  0  0  0  0  0  0
   -3.5243   -0.0085    0.8894 H   0  0  0  0  0  0  0  0  0  0  0  0
   -2.4918   -1.4106    0.4342 H   0  0  0  0  0  0  0  0  0  0  0  0
   -1.6726    1.5642    0.1836 H   0  0  0  0  0  0  0  0  0  0  0  0
   -1.2075    0.4560    1.5309 H   0  0  0  0  0  0  0  0  0  0  0  0
   -3.4515    0.8273   -1.4766 H   0  0  0  0  0  0  0  0  0  0  0  0
   -2.4354   -0.5991   -1.9422 H   0  0  0  0  0  0  0  0  0  0  0  0
   -4.1259   -0.8421   -1.3645 H   0  0  0  0  0  0  0  0  0  0  0  0
    2.4957   -0.5457    1.5888 H   0  0  0  0  0  0  0  0  0  0  0  0
    2.3950   -1.2911   -0.0554 H   0  0  0  0  0  0  0  0  0  0  0  0
    4.7402   -0.6303    0.4955 H   0  0  0  0  0  0  0  0  0  0  0  0
    4.1060    0.3313   -0.8972 H   0  0  0  0  0  0  0  0  0  0  0  0
    4.2068    1.0778    0.7495 H   0  0  0  0  0  0  0  0  0  0  0  0
    0.4999    0.7191   -0.0629 H   0  0  0  0  0  0  0  0  0  0  0  0
  1  4  1  0
  1 20  1  0
  2  6  1  0
  3  5  1  0
  3  4  1  0
  3  8  1  0
  3  9  1  0
  4 10  1  0
  4 11  1  0
  5 12  1  0
  5 13  1  0
  5 14  1  0
  6  7  1  0
  6 15  1  0
  6 16  1  0
  7 17  1  0
  7 18  1  0
  7 19  1  0
M  RAD  1   2   2
M  END
>  <reaction>  (17) 
rmg_rxn_395

>  <mol_properties>  (17) 
{"1": {"label": "*4", "atom_type": "Cs"}, "2": {"label": "*3", "atom_type": "O2s"}, "8": {"label": "*2", "atom_type": "H0"}, "11": {"label": "*0", "atom_type": "Cs"}, "12": {"label": "*1", "atom_type": "O2s"}}

>  <type>  (17) 
unop_13

>  <geom_source>  (17) 
AutoTST

$$$$

     RDKit          3D

 20 18  0  0  0  0  0  0  0  0999 V2000
    1.5514   -0.9507   -1.6829 C   0  0  0  0  0  0  0  0  0  0  0  0
    1.5514   -0.9507   -0.1654 C   0  0  0  0  0  0  0  0  0  0  0  0
    1.5514    0.3525    0.3839 O   0  0  0  0  0  0  0  0  0  0  0  0
    2.4074   -0.3932   -2.0653 H   0  0  0  0  0  0  0  0  0  0  0  0
    1.5998   -1.9713   -2.0682 H   0  0  0  0  0  0  0  0  0  0  0  0
    0.6400   -0.4906   -2.0741 H   0  0  0  0  0  0  0  0  0  0  0  0
    2.4579   -1.4264    0.2114 H   0  0  0  0  0  0  0  0  0  0  0  0
    0.6992   -1.5305    0.2118 H   0  0  0  0  0  0  0  0  0  0  0  0
    0.6130    0.9044    0.0130 H   0  0  0  0  0  0  0  0  0  0  0  0
   -1.7055    0.0205    1.8990 C   0  0  0  0  0  0  0  0  0  0  0  0
   -1.4211   -0.5559    0.5189 C   0  0  0  0  0  0  0  0  0  0  0  0
   -1.3490    0.5031   -0.5713 C   0  0  0  0  0  0  0  0  0  0  0  0
   -0.3255    1.4566   -0.3580 O   0  0  0  0  0  1  0  0  0  0  0  0
   -2.6748    0.5239    1.9164 H   0  0  0  0  0  0  0  0  0  0  0  0
   -1.7200   -0.7619    2.6591 H   0  0  0  0  0  0  0  0  0  0  0  0
   -0.9476    0.7534    2.1773 H   0  0  0  0  0  0  0  0  0  0  0  0
   -0.4779   -1.1143    0.5335 H   0  0  0  0  0  0  0  0  0  0  0  0
   -2.1967   -1.2768    0.2431 H   0  0  0  0  0  0  0  0  0  0  0  0
   -1.2316    0.0228   -1.5508 H   0  0  0  0  0  0  0  0  0  0  0  0
   -2.2793    1.0749   -0.5972 H   0  0  0  0  0  0  0  0  0  0  0  0
  1  2  1  0
  1  4  1  0
  1  5  1  0
  1  6  1  0
  2  3  1  0
  2  7  1  0
  2  8  1  0
  3  9  1  0
 10 11  1  0
 10 14  1  0
 10 15  1  0
 10 16  1  0
 11 12  1  0
 11 17  1  0
 11 18  1  0
 12 13  1  0
 12 19  1  0
 12 20  1  0
M  RAD  1  13   2
M  END
>  <reaction>  (18) 
rmg_rxn_395

>  <mol_properties>  (18) 
{"1": {"label": "*4", "atom_type": "Cs"}, "2": {"label": "*3", "atom_type": "O2s"}, "8": {"label": "*2", "atom_type": "H0"}, "11": {"label": "*0", "atom_type": "Cs"}, "12": {"label": "*1", "atom_type": "O2s"}}

>  <type>  (18) 
unop_14

>  <geom_source>  (18) 
gaussian_log

$$$$
