
     RDKit          3D

  4  3  0  0  0  0  0  0  0  0999 V2000
   -0.4822    0.3819   -0.0104 N   0  0  0  0  0  0  0  0  0  0  0  0
    0.4822   -0.3819    0.0104 N   0  0  0  0  0  0  0  0  0  0  0  0
   -1.3303   -0.2037    0.0194 H   0  0  0  0  0  0  0  0  0  0  0  0
    1.3303    0.2037   -0.0194 H   0  0  0  0  0  0  0  0  0  0  0  0
  1  2  2  3
  1  3  1  0
  2  4  1  0
M  END
>  <reaction>  (1) 
rmg_rxn_15592

>  <mol_properties>  (1) 
{"1": {"label": "donator", "atom_type": "N3d"}, "3": {"label": "d_hydrogen", "atom_type": "H0"}}

>  <type>  (1) 
r1h

$$$$

     RDKit          3D

  8  7  0  0  0  0  0  0  0  0999 V2000
    1.7077   -0.1964   -0.0607 C   0  0  0  0  0  3  0  0  0  0  0  0
    0.4209   -0.4565    0.2808 O   0  0  0  0  0  0  0  0  0  0  0  0
   -0.4607    0.4385   -0.2968 N   0  0  0  0  0  0  0  0  0  0  0  0
   -1.6584    0.1416   -0.0244 C   0  0  0  0  0  0  0  0  0  0  0  0
    2.4163   -0.7685    0.5170 H   0  0  0  0  0  0  0  0  0  0  0  0
    1.9214    0.7645   -0.5045 H   0  0  0  0  0  0  0  0  0  0  0  0
   -2.4185    0.7953   -0.4307 H   0  0  0  0  0  0  0  0  0  0  0  0
   -1.9286   -0.7185    0.5831 H   0  0  0  0  0  0  0  0  0  0  0  0
  1  2  1  0
  1  5  1  0
  1  6  1  0
  2  3  1  0
  3  4  2  3
  4  7  1  0
  4  8  1  0
M  RAD  1   1   2
M  END
>  <reaction>  (2) 
rmg_rxn_15592

>  <mol_properties>  (2) 
{"0": {"label": "acceptor", "atom_type": "Cs"}}

>  <type>  (2) 
r2

$$$$

     RDKit          3D

  9  8  0  0  0  0  0  0  0  0999 V2000
   -1.5470   -0.0755   -0.1976 C   0  0  0  0  0  0  0  0  0  0  0  0
   -0.2885    0.4507    0.1749 O   0  0  0  0  0  0  0  0  0  0  0  0
   -0.1502    1.7216   -0.3294 N   0  0  0  0  0  0  0  0  0  0  0  0
    0.9626    2.2353   -0.0219 C   0  0  0  0  0  0  0  0  0  0  0  0
   -1.6392   -0.1356   -1.2844 H   0  0  0  0  0  0  0  0  0  0  0  0
   -2.3597    0.5337    0.2044 H   0  0  0  0  0  0  0  0  0  0  0  0
   -1.5879   -1.0750    0.2318 H   0  0  0  0  0  0  0  0  0  0  0  0
    1.1497    3.2381   -0.3820 H   0  0  0  0  0  0  0  0  0  0  0  0
    1.7060    1.7101    0.5739 H   0  0  0  0  0  0  0  0  0  0  0  0
  1  2  1  0
  1  5  1  0
  1  6  1  0
  1  7  1  0
  2  3  1  0
  3  4  2  3
  4  8  1  0
  4  9  1  0
M  END
>  <reaction>  (3) 
rmg_rxn_15592

>  <mol_properties>  (3) 
{"0": {"label": "a_hydrogen", "atom_type": "H0"}, "1": {"label": "acceptor", "atom_type": "Cs"}}

>  <type>  (3) 
r2h

$$$$

     RDKit          3D

 12 10  0  0  0  0  0  0  0  0999 V2000
    0.0530   -1.8690   -0.9889 N   0  0  0  0  0  0  0  0  0  0  0  0
    0.4375   -2.1722    0.1208 N   0  0  0  0  0  0  0  0  0  0  0  0
    0.2908   -2.6352   -1.6436 H   0  0  0  0  0  0  0  0  0  0  0  0
    0.1501   -1.2840    0.8256 H   0  0  0  0  0  0  0  0  0  0  0  0
   -0.3141   -0.0100    1.5097 C   0  0  0  0  0  3  0  0  0  0  0  0
   -0.6648    0.8675    0.5170 O   0  0  0  0  0  0  0  0  0  0  0  0
    0.4454    1.5187    0.0082 N   0  0  0  0  0  0  0  0  0  0  0  0
    0.1484    2.1983   -1.0138 C   0  0  0  0  0  0  0  0  0  0  0  0
    0.5548    0.2926    2.0897 H   0  0  0  0  0  0  0  0  0  0  0  0
   -1.1996   -0.3088    2.0620 H   0  0  0  0  0  0  0  0  0  0  0  0
    0.9546    2.7575   -1.4695 H   0  0  0  0  0  0  0  0  0  0  0  0
   -0.8563    2.2288   -1.4276 H   0  0  0  0  0  0  0  0  0  0  0  0
  1  2  2  3
  1  3  1  0
  2  4  1  0
  5  6  1  0
  5  9  1  0
  5 10  1  0
  6  7  1  0
  7  8  2  3
  8 11  1  0
  8 12  1  0
M  RAD  1   5   2
M  END
>  <reaction>  (4) 
rmg_rxn_15592

>  <mol_properties>  (4) 
{"0": {"label": "*0", "atom_type": "N3d"}, "1": {"label": "*1", "atom_type": "N3d"}, "3": {"label": "*2", "atom_type": "H0"}, "4": {"label": "*3", "atom_type": "Cs"}, "5": {"label": "*4", "atom_type": "O2s"}}

>  <type>  (4) 
ts

$$$$

     RDKit          3D

 12 10  0  0  0  0  0  0  0  0999 V2000
    2.1000   -0.5602   -0.5152 N   0  0  0  0  0  0  0  0  0  0  0  0
    1.8871    0.0265    0.4918 N   0  0  0  0  0  2  0  0  0  0  0  0
    2.1076   -0.1217   -1.4494 H   0  0  0  0  0  0  0  0  0  0  0  0
    0.8307    0.8010    0.5793 H   0  0  0  0  0  0  0  0  0  0  0  0
   -0.2880    1.3512    0.4713 C   0  0  0  0  0  0  0  0  0  0  0  0
   -1.0146    0.7494   -0.5615 O   0  0  0  0  0  0  0  0  0  0  0  0
   -1.4872   -0.5125   -0.4310 N   0  0  0  0  0  0  0  0  0  0  0  0
   -1.2508   -1.2280    0.5770 C   0  0  0  0  0  0  0  0  0  0  0  0
   -0.1220    2.3789    0.1637 H   0  0  0  0  0  0  0  0  0  0  0  0
   -0.7800    1.2896    1.4428 H   0  0  0  0  0  0  0  0  0  0  0  0
   -1.6837   -2.2130    0.5568 H   0  0  0  0  0  0  0  0  0  0  0  0
   -0.6502   -0.9598    1.4426 H   0  0  0  0  0  0  0  0  0  0  0  0
  1  2  2  0
  1  3  1  0
  4  5  1  0
  5  6  1  0
  5  9  1  0
  5 10  1  0
  6  7  1  0
  7  8  2  3
  8 11  1  0
  8 12  1  0
M  RAD  1   2   2
M  END
>  <reaction>  (5) 
rmg_rxn_15592

>  <mol_properties>  (5) 
{"0": {"label": "*0", "atom_type": "N3d"}, "1": {"label": "*1", "atom_type": "N3d"}, "3": {"label": "*2", "atom_type": "H0"}, "4": {"label": "*3", "atom_type": "Cs"}, "5": {"label": "*4", "atom_type": "O2s"}}

>  <type>  (5) 
unop_1

>  <geom_source>  (5) 
crest_best.xyz

$$$$

     RDKit          3D

 12 10  0  0  0  0  0  0  0  0999 V2000
    0.6699   -1.9934   -2.3520 N   0  0  0  0  0  0  0  0  0  0  0  0
    0.6699   -1.9934   -1.1216 N   0  0  0  0  0  0  0  0  0  0  0  0
    0.6699   -2.9796   -2.6528 H   0  0  0  0  0  0  0  0  0  0  0  0
    0.6699   -0.8100   -0.7606 H   0  0  0  0  0  0  0  0  0  0  0  0
    0.6699    0.4395   -0.3795 C   0  0  0  0  0  3  0  0  0  0  0  0
   -0.5089    0.6077    0.3833 O   0  0  0  0  0  0  0  0  0  0  0  0
   -0.2591    1.4465    1.4429 N   0  0  0  0  0  0  0  0  0  0  0  0
   -1.2862    1.6279    2.1564 C   0  0  0  0  0  0  0  0  0  0  0  0
    1.0135    1.3945   -0.7833 H   0  0  0  0  0  0  0  0  0  0  0  0
    1.4637   -0.0093    0.2219 H   0  0  0  0  0  0  0  0  0  0  0  0
   -1.1724    2.2781    3.0135 H   0  0  0  0  0  0  0  0  0  0  0  0
   -2.2438    1.1619    1.9345 H   0  0  0  0  0  0  0  0  0  0  0  0
  1  2  2  3
  1  3  1  0
  2  4  1  0
  5  6  1  0
  5  9  1  0
  5 10  1  0
  6  7  1  0
  7  8  2  3
  8 11  1  0
  8 12  1  0
M  RAD  1   5   2
M  END
>  <reaction>  (6) 
rmg_rxn_15592

>  <mol_properties>  (6) 
{"0": {"label": "*0", "atom_type": "N3d"}, "1": {"label": "*1", "atom_type": "N3d"}, "3": {"label": "*2", "atom_type": "H0"}, "4": {"label": "*3", "atom_type": "Cs"}, "5": {"label": "*4", "atom_type": "O2s"}}

>  <type>  (6) 
unop_2

>  <geom_source>  (6) 
Heuristics

$$$$

     RDKit          3D

 12 10  0  0  0  0  0  0  0  0999 V2000
    0.5728   -2.4669   -1.0231 N   0  0  0  0  0  0  0  0  0  0  0  0
    0.5728   -2.4669    0.2073 N   0  0  0  0  0  0  0  0  0  0  0  0
    0.5728   -3.4531   -1.3239 H   0  0  0  0  0  0  0  0  0  0  0  0
    0.5728   -1.2835    0.5683 H   0  0  0  0  0  0  0  0  0  0  0  0
    0.5728   -0.0340    0.9494 C   0  0  0  0  0  3  0  0  0  0  0  0
   -0.1078    0.6766   -0.0662 O   0  0  0  0  0  0  0  0  0  0  0  0
   -0.5203    1.8949    0.4178 N   0  0  0  0  0  0  0  0  0  0  0  0
   -1.1356    2.5688   -0.4563 C   0  0  0  0  0  0  0  0  0  0  0  0
    1.4593    0.5114    1.2809 H   0  0  0  0  0  0  0  0  0  0  0  0
   -0.0827   -0.2185    1.8035 H   0  0  0  0  0  0  0  0  0  0  0  0
   -1.4942    3.5434   -0.1534 H   0  0  0  0  0  0  0  0  0  0  0  0
   -1.3048    2.2028   -1.4667 H   0  0  0  0  0  0  0  0  0  0  0  0
  1  2  2  3
  1  3  1  0
  2  4  1  0
  5  6  1  0
  5  9  1  0
  5 10  1  0
  6  7  1  0
  7  8  2  3
  8 11  1  0
  8 12  1  0
M  RAD  1   5   2
M  END
>  <reaction>  (7) 
rmg_rxn_15592

>  <mol_properties>  (7) 
{"0": {"label": "*0", "atom_type": "N3d"}, "1": {"label": "*1", "atom_type": "N3d"}, "3": {"label": "*2", "atom_type": "H0"}, "4": {"label": "*3", "atom_type": "Cs"}, "5": {"label": "*4", "atom_type": "O2s"}}

>  <type>  (7) 
unop_3

>  <geom_source>  (7) 
Heuristics

$$$$

     RDKit          3D

 12 10  0  0  0  0  0  0  0  0999 V2000
    0.2923   -1.9792   -2.5508 N   0  0  0  0  0  0  0  0  0  0  0  0
    0.2923   -1.9792   -1.3203 N   0  0  0  0  0  0  0  0  0  0  0  0
    0.2923   -2.9654   -2.8516 H   0  0  0  0  0  0  0  0  0  0  0  0
    0.2923   -0.7959   -0.9594 H   0  0  0  0  0  0  0  0  0  0  0  0
    0.2923    0.4537   -0.5782 C   0  0  0  0  0  3  0  0  0  0  0  0
   -0.3883    0.4765    0.6611 O   0  0  0  0  0  0  0  0  0  0  0  0
    0.0386    1.5509    1.4042 N   0  0  0  0  0  0  0  0  0  0  0  0
   -0.5430    1.6139    2.5242 C   0  0  0  0  0  0  0  0  0  0  0  0
    0.0877    1.3597   -1.1530 H   0  0  0  0  0  0  0  0  0  0  0  0
    1.3697    0.3507   -0.4305 H   0  0  0  0  0  0  0  0  0  0  0  0
   -0.2619    2.4342    3.1710 H   0  0  0  0  0  0  0  0  0  0  0  0
   -1.2907    0.8886    2.8380 H   0  0  0  0  0  0  0  0  0  0  0  0
  1  2  2  3
  1  3  1  0
  2  4  1  0
  5  6  1  0
  5  9  1  0
  5 10  1  0
  6  7  1  0
  7  8  2  3
  8 11  1  0
  8 12  1  0
M  RAD  1   5   2
M  END
>  <reaction>  (8) 
rmg_rxn_15592

>  <mol_properties>  (8) 
{"0": {"label": "*0", "atom_type": "N3d"}, "1": {"label": "*1", "atom_type": "N3d"}, "3": {"label": "*2", "atom_type": "H0"}, "4": {"label": "*3", "atom_type": "Cs"}, "5": {"label": "*4", "atom_type": "O2s"}}

>  <type>  (8) 
unop_4

>  <geom_source>  (8) 
Heuristics

$$$$

     RDKit          3D

 12 10  0  0  0  0  0  0  0  0999 V2000
   -0.9103   -2.2946   -1.4467 N   0  0  0  0  0  0  0  0  0  0  0  0
   -0.9103   -2.2946   -0.2163 N   0  0  0  0  0  0  0  0  0  0  0  0
   -0.9103   -3.2808   -1.7475 H   0  0  0  0  0  0  0  0  0  0  0  0
   -0.9103   -1.1112    0.1447 H   0  0  0  0  0  0  0  0  0  0  0  0
   -0.9103    0.1383    0.5258 C   0  0  0  0  0  3  0  0  0  0  0  0
    0.2685    0.7035   -0.0133 O   0  0  0  0  0  0  0  0  0  0  0  0
    0.7382    1.6843    0.8271 N   0  0  0  0  0  0  0  0  0  0  0  0
    1.7939    2.2208    0.3864 C   0  0  0  0  0  0  0  0  0  0  0  0
   -0.7146   -0.3202    1.4977 H   0  0  0  0  0  0  0  0  0  0  0  0
   -1.6934    0.8927    0.6292 H   0  0  0  0  0  0  0  0  0  0  0  0
    2.2284    3.0050    0.9919 H   0  0  0  0  0  0  0  0  0  0  0  0
    2.2558    1.9216   -0.5520 H   0  0  0  0  0  0  0  0  0  0  0  0
  1  2  2  3
  1  3  1  0
  2  4  1  0
  5  6  1  0
  5  9  1  0
  5 10  1  0
  6  7  1  0
  7  8  2  3
  8 11  1  0
  8 12  1  0
M  RAD  1   5   2
M  END
>  <reaction>  (9) 
rmg_rxn_15592

>  <mol_properties>  (9) 
{"0": {"label": "*0", "atom_type": "N3d"}, "1": {"label": "*1", "atom_type": "N3d"}, "3": {"label": "*2", "atom_type": "H0"}, "4": {"label": "*3", "atom_type": "Cs"}, "5": {"label": "*4", "atom_type": "O2s"}}

>  <type>  (9) 
unop_5

>  <geom_source>  (9) 
Heuristics

$$$$

     RDKit          3D

 12 10  0  0  0  0  0  0  0  0999 V2000
    0.0000   -2.0152   -2.5779 N   0  0  0  0  0  0  0  0  0  0  0  0
    0.0000   -2.0152   -1.3475 N   0  0  0  0  0  0  0  0  0  0  0  0
    0.0000   -3.0013   -2.8787 H   0  0  0  0  0  0  0  0  0  0  0  0
    0.0000   -0.8318   -0.9866 H   0  0  0  0  0  0  0  0  0  0  0  0
    0.0000    0.4178   -0.6054 C   0  0  0  0  0  3  0  0  0  0  0  0
    0.0000    0.3873    0.8083 O   0  0  0  0  0  0  0  0  0  0  0  0
   -0.0000    1.6710    1.2992 N   0  0  0  0  0  0  0  0  0  0  0  0
   -0.0000    1.6956    2.5625 C   0  0  0  0  0  0  0  0  0  0  0  0
   -0.8921    0.9206   -0.9854 H   0  0  0  0  0  0  0  0  0  0  0  0
    0.8921    0.9206   -0.9854 H   0  0  0  0  0  0  0  0  0  0  0  0
   -0.0000    2.6719    3.0285 H   0  0  0  0  0  0  0  0  0  0  0  0
    0.0000    0.7907    3.1664 H   0  0  0  0  0  0  0  0  0  0  0  0
  1  2  2  3
  1  3  1  0
  2  4  1  0
  5  6  1  0
  5  9  1  0
  5 10  1  0
  6  7  1  0
  7  8  2  3
  8 11  1  0
  8 12  1  0
M  RAD  1   5   2
M  END
>  <reaction>  (10) 
rmg_rxn_15592

>  <mol_properties>  (10) 
{"0": {"label": "*0", "atom_type": "N3d"}, "1": {"label": "*1", "atom_type": "N3d"}, "3": {"label": "*2", "atom_type": "H0"}, "4": {"label": "*3", "atom_type": "Cs"}, "5": {"label": "*4", "atom_type": "O2s"}}

>  <type>  (10) 
unop_6

>  <geom_source>  (10) 
Heuristics

$$$$

     RDKit          3D

 12 10  0  0  0  0  0  0  0  0999 V2000
   -0.9271   -2.1132   -1.9466 N   0  0  0  0  0  0  0  0  0  0  0  0
   -0.9271   -2.1132   -0.7162 N   0  0  0  0  0  0  0  0  0  0  0  0
   -0.9271   -3.0993   -2.2474 H   0  0  0  0  0  0  0  0  0  0  0  0
   -0.9271   -0.9298   -0.3552 H   0  0  0  0  0  0  0  0  0  0  0  0
   -0.9271    0.3197    0.0259 C   0  0  0  0  0  3  0  0  0  0  0  0
    0.4340    0.6864    0.1378 O   0  0  0  0  0  0  0  0  0  0  0  0
    0.6053    1.5039    1.2292 N   0  0  0  0  0  0  0  0  0  0  0  0
    1.8095    1.8592    1.3712 C   0  0  0  0  0  0  0  0  0  0  0  0
   -1.2575   -0.2300    0.9101 H   0  0  0  0  0  0  0  0  0  0  0  0
   -1.5586    1.2000   -0.1138 H   0  0  0  0  0  0  0  0  0  0  0  0
    2.0285    2.5061    2.2102 H   0  0  0  0  0  0  0  0  0  0  0  0
    2.5986    1.5402    0.6936 H   0  0  0  0  0  0  0  0  0  0  0  0
  1  2  2  3
  1  3  1  0
  2  4  1  0
  5  6  1  0
  5  9  1  0
  5 10  1  0
  6  7  1  0
  7  8  2  3
  8 11  1  0
  8 12  1  0
M  RAD  1   5   2
M  END
>  <reaction>  (11) 
rmg_rxn_15592

>  <mol_properties>  (11) 
{"0": {"label": "*0", "atom_type": "N3d"}, "1": {"label": "*1", "atom_type": "N3d"}, "3": {"label": "*2", "atom_type": "H0"}, "4": {"label": "*3", "atom_type": "Cs"}, "5": {"label": "*4", "atom_type": "O2s"}}

>  <type>  (11) 
unop_7

>  <geom_source>  (11) 
Heuristics

$$$$

     RDKit          3D

 12 10  0  0  0  0  0  0  0  0999 V2000
    2.0987    0.5602   -0.5154 N   0  0  0  0  0  0  0  0  0  0  0  0
    1.8865   -0.0261    0.4920 N   0  0  0  0  0  2  0  0  0  0  0  0
    2.1054    0.1211   -1.4493 H   0  0  0  0  0  0  0  0  0  0  0  0
    0.8308   -0.8012    0.5803 H   0  0  0  0  0  0  0  0  0  0  0  0
   -0.2879   -1.3514    0.4714 C   0  0  0  0  0  0  0  0  0  0  0  0
   -1.0137   -0.7494   -0.5618 O   0  0  0  0  0  0  0  0  0  0  0  0
   -1.4863    0.5126   -0.4312 N   0  0  0  0  0  0  0  0  0  0  0  0
   -1.2507    1.2277    0.5772 C   0  0  0  0  0  0  0  0  0  0  0  0
   -0.7806   -1.2899    1.4426 H   0  0  0  0  0  0  0  0  0  0  0  0
   -0.1218   -2.3791    0.1638 H   0  0  0  0  0  0  0  0  0  0  0  0
   -1.6836    2.2127    0.5569 H   0  0  0  0  0  0  0  0  0  0  0  0
   -0.6510    0.9593    1.4433 H   0  0  0  0  0  0  0  0  0  0  0  0
  1  2  2  0
  1  3  1  0
  4  5  1  0
  5  6  1  0
  5  9  1  0
  5 10  1  0
  6  7  1  0
  7  8  2  3
  8 11  1  0
  8 12  1  0
M  RAD  1   2   2
M  END
>  <reaction>  (12) 
rmg_rxn_15592

>  <mol_properties>  (12) 
{"0": {"label": "*0", "atom_type": "N3d"}, "1": {"label": "*1", "atom_type": "N3d"}, "3": {"label": "*2", "atom_type": "H0"}, "4": {"label": "*3", "atom_type": "Cs"}, "5": {"label": "*4", "atom_type": "O2s"}}

>  <type>  (12) 
unop_8

>  <geom_source>  (12) 
Heuristics

$$$$

     RDKit          3D

 12 10  0  0  0  0  0  0  0  0999 V2000
   -0.6699   -1.9934   -2.3520 N   0  0  0  0  0  0  0  0  0  0  0  0
   -0.6699   -1.9934   -1.1216 N   0  0  0  0  0  0  0  0  0  0  0  0
   -0.6699   -2.9796   -2.6528 H   0  0  0  0  0  0  0  0  0  0  0  0
   -0.6699   -0.8100   -0.7606 H   0  0  0  0  0  0  0  0  0  0  0  0
   -0.6699    0.4395   -0.3795 C   0  0  0  0  0  3  0  0  0  0  0  0
    0.5089    0.6077    0.3833 O   0  0  0  0  0  0  0  0  0  0  0  0
    0.2591    1.4465    1.4429 N   0  0  0  0  0  0  0  0  0  0  0  0
    1.2862    1.6279    2.1564 C   0  0  0  0  0  0  0  0  0  0  0  0
   -1.4637   -0.0093    0.2219 H   0  0  0  0  0  0  0  0  0  0  0  0
   -1.0135    1.3945   -0.7833 H   0  0  0  0  0  0  0  0  0  0  0  0
    1.1724    2.2781    3.0135 H   0  0  0  0  0  0  0  0  0  0  0  0
    2.2438    1.1619    1.9345 H   0  0  0  0  0  0  0  0  0  0  0  0
  1  2  2  3
  1  3  1  0
  2  4  1  0
  5  6  1  0
  5  9  1  0
  5 10  1  0
  6  7  1  0
  7  8  2  3
  8 11  1  0
  8 12  1  0
M  RAD  1   5   2
M  END
>  <reaction>  (13) 
rmg_rxn_15592

>  <mol_properties>  (13) 
{"0": {"label": "*0", "atom_type": "N3d"}, "1": {"label": "*1", "atom_type": "N3d"}, "3": {"label": "*2", "atom_type": "H0"}, "4": {"label": "*3", "atom_type": "Cs"}, "5": {"label": "*4", "atom_type": "O2s"}}

>  <type>  (13) 
unop_9

>  <geom_source>  (13) 
Heuristics

$$$$

     RDKit          3D

 12 10  0  0  0  0  0  0  0  0999 V2000
    0.9271   -2.1132   -1.9466 N   0  0  0  0  0  0  0  0  0  0  0  0
    0.9271   -2.1132   -0.7162 N   0  0  0  0  0  0  0  0  0  0  0  0
    0.9271   -3.0994   -2.2474 H   0  0  0  0  0  0  0  0  0  0  0  0
    0.9271   -0.9298   -0.3552 H   0  0  0  0  0  0  0  0  0  0  0  0
    0.9271    0.3197    0.0259 C   0  0  0  0  0  3  0  0  0  0  0  0
   -0.4340    0.6864    0.1378 O   0  0  0  0  0  0  0  0  0  0  0  0
   -0.6053    1.5040    1.2291 N   0  0  0  0  0  0  0  0  0  0  0  0
   -1.8095    1.8592    1.3712 C   0  0  0  0  0  0  0  0  0  0  0  0
    1.5586    1.2000   -0.1138 H   0  0  0  0  0  0  0  0  0  0  0  0
    1.2575   -0.2300    0.9101 H   0  0  0  0  0  0  0  0  0  0  0  0
   -2.0285    2.5061    2.2102 H   0  0  0  0  0  0  0  0  0  0  0  0
   -2.5986    1.5402    0.6936 H   0  0  0  0  0  0  0  0  0  0  0  0
  1  2  2  3
  1  3  1  0
  2  4  1  0
  5  6  1  0
  5  9  1  0
  5 10  1  0
  6  7  1  0
  7  8  2  3
  8 11  1  0
  8 12  1  0
M  RAD  1   5   2
M  END
>  <reaction>  (14) 
rmg_rxn_15592

>  <mol_properties>  (14) 
{"0": {"label": "*0", "atom_type": "N3d"}, "1": {"label": "*1", "atom_type": "N3d"}, "3": {"label": "*2", "atom_type": "H0"}, "4": {"label": "*3", "atom_type": "Cs"}, "5": {"label": "*4", "atom_type": "O2s"}}

>  <type>  (14) 
unop_10

>  <geom_source>  (14) 
Heuristics

$$$$

     RDKit          3D

 12 10  0  0  0  0  0  0  0  0999 V2000
    2.1000   -0.5602   -0.5152 N   0  0  0  0  0  0  0  0  0  0  0  0
    1.8871    0.0265    0.4918 N   0  0  0  0  0  2  0  0  0  0  0  0
    2.1076   -0.1217   -1.4494 H   0  0  0  0  0  0  0  0  0  0  0  0
    0.8307    0.8010    0.5793 H   0  0  0  0  0  0  0  0  0  0  0  0
   -0.2880    1.3512    0.4713 C   0  0  0  0  0  0  0  0  0  0  0  0
   -1.0146    0.7494   -0.5615 O   0  0  0  0  0  0  0  0  0  0  0  0
   -1.4872   -0.5125   -0.4310 N   0  0  0  0  0  0  0  0  0  0  0  0
   -1.2508   -1.2280    0.5770 C   0  0  0  0  0  0  0  0  0  0  0  0
   -0.1220    2.3789    0.1637 H   0  0  0  0  0  0  0  0  0  0  0  0
   -0.7800    1.2896    1.4428 H   0  0  0  0  0  0  0  0  0  0  0  0
   -1.6837   -2.2130    0.5568 H   0  0  0  0  0  0  0  0  0  0  0  0
   -0.6502   -0.9598    1.4426 H   0  0  0  0  0  0  0  0  0  0  0  0
  1  2  2  0
  1  3  1  0
  4  5  1  0
  5  6  1  0
  5  9  1  0
  5 10  1  0
  6  7  1  0
  7  8  2  3
  8 11  1  0
  8 12  1  0
M  RAD  1   2   2
M  END
>  <reaction>  (15) 
rmg_rxn_15592

>  <mol_properties>  (15) 
{"0": {"label": "*0", "atom_type": "N3d"}, "1": {"label": "*1", "atom_type": "N3d"}, "3": {"label": "*2", "atom_type": "H0"}, "4": {"label": "*3", "atom_type": "Cs"}, "5": {"label": "*4", "atom_type": "O2s"}}

>  <type>  (15) 
unop_11

>  <geom_source>  (15) 
Heuristics

$$$$

     RDKit          3D

 12 10  0  0  0  0  0  0  0  0999 V2000
   -0.5728   -2.4669   -1.0231 N   0  0  0  0  0  0  0  0  0  0  0  0
   -0.5728   -2.4669    0.2073 N   0  0  0  0  0  0  0  0  0  0  0  0
   -0.5728   -3.4530   -1.3239 H   0  0  0  0  0  0  0  0  0  0  0  0
   -0.5728   -1.2835    0.5683 H   0  0  0  0  0  0  0  0  0  0  0  0
   -0.5728   -0.0340    0.9494 C   0  0  0  0  0  3  0  0  0  0  0  0
    0.1077    0.6766   -0.0662 O   0  0  0  0  0  0  0  0  0  0  0  0
    0.5204    1.8949    0.4178 N   0  0  0  0  0  0  0  0  0  0  0  0
    1.1356    2.5688   -0.4563 C   0  0  0  0  0  0  0  0  0  0  0  0
    0.0827   -0.2185    1.8035 H   0  0  0  0  0  0  0  0  0  0  0  0
   -1.4593    0.5114    1.2809 H   0  0  0  0  0  0  0  0  0  0  0  0
    1.4942    3.5434   -0.1534 H   0  0  0  0  0  0  0  0  0  0  0  0
    1.3047    2.2028   -1.4667 H   0  0  0  0  0  0  0  0  0  0  0  0
  1  2  2  3
  1  3  1  0
  2  4  1  0
  5  6  1  0
  5  9  1  0
  5 10  1  0
  6  7  1  0
  7  8  2  3
  8 11  1  0
  8 12  1  0
M  RAD  1   5   2
M  END
>  <reaction>  (16) 
rmg_rxn_15592

>  <mol_properties>  (16) 
{"0": {"label": "*0", "atom_type": "N3d"}, "1": {"label": "*1", "atom_type": "N3d"}, "3": {"label": "*2", "atom_type": "H0"}, "4": {"label": "*3", "atom_type": "Cs"}, "5": {"label": "*4", "atom_type": "O2s"}}

>  <type>  (16) 
unop_12

>  <geom_source>  (16) 
Heuristics

$$$$

     RDKit          3D

 12 10  0  0  0  0  0  0  0  0999 V2000
    0.9103   -2.2946   -1.4467 N   0  0  0  0  0  0  0  0  0  0  0  0
    0.9103   -2.2946   -0.2163 N   0  0  0  0  0  0  0  0  0  0  0  0
    0.9103   -3.2808   -1.7475 H   0  0  0  0  0  0  0  0  0  0  0  0
    0.9103   -1.1112    0.1447 H   0  0  0  0  0  0  0  0  0  0  0  0
    0.9103    0.1383    0.5258 C   0  0  0  0  0  3  0  0  0  0  0  0
   -0.2685    0.7035   -0.0133 O   0  0  0  0  0  0  0  0  0  0  0  0
   -0.7381    1.6843    0.8271 N   0  0  0  0  0  0  0  0  0  0  0  0
   -1.7939    2.2208    0.3864 C   0  0  0  0  0  0  0  0  0  0  0  0
    1.6934    0.8927    0.6292 H   0  0  0  0  0  0  0  0  0  0  0  0
    0.7146   -0.3202    1.4977 H   0  0  0  0  0  0  0  0  0  0  0  0
   -2.2284    3.0050    0.9919 H   0  0  0  0  0  0  0  0  0  0  0  0
   -2.2558    1.9216   -0.5520 H   0  0  0  0  0  0  0  0  0  0  0  0
  1  2  2  3
  1  3  1  0
  2  4  1  0
  5  6  1  0
  5  9  1  0
  5 10  1  0
  6  7  1  0
  7  8  2  3
  8 11  1  0
  8 12  1  0
M  RAD  1   5   2
M  END
>  <reaction>  (17) 
rmg_rxn_15592

>  <mol_properties>  (17) 
{"0": {"label": "*0", "atom_type": "N3d"}, "1": {"label": "*1", "atom_type": "N3d"}, "3": {"label": "*2", "atom_type": "H0"}, "4": {"label": "*3", "atom_type": "Cs"}, "5": {"label": "*4", "atom_type": "O2s"}}

>  <type>  (17) 
unop_13

>  <geom_source>  (17) 
Heuristics

$$$$

     RDKit          3D

 12 10  0  0  0  0  0  0  0  0999 V2000
   -0.2923   -1.9792   -2.5508 N   0  0  0  0  0  0  0  0  0  0  0  0
   -0.2923   -1.9792   -1.3203 N   0  0  0  0  0  0  0  0  0  0  0  0
   -0.2923   -2.9654   -2.8516 H   0  0  0  0  0  0  0  0  0  0  0  0
   -0.2923   -0.7958   -0.9594 H   0  0  0  0  0  0  0  0  0  0  0  0
   -0.2923    0.4537   -0.5782 C   0  0  0  0  0  3  0  0  0  0  0  0
    0.3883    0.4765    0.6611 O   0  0  0  0  0  0  0  0  0  0  0  0
   -0.0386    1.5509    1.4042 N   0  0  0  0  0  0  0  0  0  0  0  0
    0.5430    1.6139    2.5242 C   0  0  0  0  0  0  0  0  0  0  0  0
   -1.3697    0.3507   -0.4305 H   0  0  0  0  0  0  0  0  0  0  0  0
   -0.0877    1.3597   -1.1530 H   0  0  0  0  0  0  0  0  0  0  0  0
    0.2619    2.4342    3.1710 H   0  0  0  0  0  0  0  0  0  0  0  0
    1.2908    0.8887    2.8380 H   0  0  0  0  0  0  0  0  0  0  0  0
  1  2  2  3
  1  3  1  0
  2  4  1  0
  5  6  1  0
  5  9  1  0
  5 10  1  0
  6  7  1  0
  7  8  2  3
  8 11  1  0
  8 12  1  0
M  RAD  1   5   2
M  END
>  <reaction>  (18) 
rmg_rxn_15592

>  <mol_properties>  (18) 
{"0": {"label": "*0", "atom_type": "N3d"}, "1": {"label": "*1", "atom_type": "N3d"}, "3": {"label": "*2", "atom_type": "H0"}, "4": {"label": "*3", "atom_type": "Cs"}, "5": {"label": "*4", "atom_type": "O2s"}}

>  <type>  (18) 
unop_14

>  <geom_source>  (18) 
Heuristics

$$$$

     RDKit          3D

 12 10  0  0  0  0  0  0  0  0999 V2000
   -0.0000   -2.5413   -0.8532 N   0  0  0  0  0  0  0  0  0  0  0  0
   -0.0000   -2.5413    0.3772 N   0  0  0  0  0  0  0  0  0  0  0  0
   -0.0000   -3.5274   -1.1540 H   0  0  0  0  0  0  0  0  0  0  0  0
   -0.0000   -1.3579    0.7382 H   0  0  0  0  0  0  0  0  0  0  0  0
   -0.0000   -0.1083    1.1193 C   0  0  0  0  0  3  0  0  0  0  0  0
   -0.0000    0.6555   -0.0707 O   0  0  0  0  0  0  0  0  0  0  0  0
    0.0000    1.9946    0.2384 N   0  0  0  0  0  0  0  0  0  0  0  0
    0.0000    2.7201   -0.7962 C   0  0  0  0  0  0  0  0  0  0  0  0
    0.8921    0.0969    1.7153 H   0  0  0  0  0  0  0  0  0  0  0  0
   -0.8921    0.0969    1.7153 H   0  0  0  0  0  0  0  0  0  0  0  0
    0.0000    3.7902   -0.6379 H   0  0  0  0  0  0  0  0  0  0  0  0
   -0.0000    2.3062   -1.8023 H   0  0  0  0  0  0  0  0  0  0  0  0
  1  2  2  3
  1  3  1  0
  2  4  1  0
  5  6  1  0
  5  9  1  0
  5 10  1  0
  6  7  1  0
  7  8  2  3
  8 11  1  0
  8 12  1  0
M  RAD  1   5   2
M  END
>  <reaction>  (19) 
rmg_rxn_15592

>  <mol_properties>  (19) 
{"0": {"label": "*0", "atom_type": "N3d"}, "1": {"label": "*1", "atom_type": "N3d"}, "3": {"label": "*2", "atom_type": "H0"}, "4": {"label": "*3", "atom_type": "Cs"}, "5": {"label": "*4", "atom_type": "O2s"}}

>  <type>  (19) 
unop_15

>  <geom_source>  (19) 
Heuristics

$$$$

     RDKit          3D

 12 10  0  0  0  0  0  0  0  0999 V2000
    0.5728   -2.4669   -1.0231 N   0  0  0  0  0  0  0  0  0  0  0  0
    0.5728   -2.4669    0.2073 N   0  0  0  0  0  0  0  0  0  0  0  0
    0.5728   -3.4531   -1.3239 H   0  0  0  0  0  0  0  0  0  0  0  0
    0.5728   -1.2835    0.5683 H   0  0  0  0  0  0  0  0  0  0  0  0
    0.5728   -0.0340    0.9494 C   0  0  0  0  0  3  0  0  0  0  0  0
   -0.1077    0.6766   -0.0662 O   0  0  0  0  0  0  0  0  0  0  0  0
   -0.5203    1.8949    0.4178 N   0  0  0  0  0  0  0  0  0  0  0  0
   -1.1356    2.5688   -0.4563 C   0  0  0  0  0  0  0  0  0  0  0  0
    1.4593    0.5114    1.2809 H   0  0  0  0  0  0  0  0  0  0  0  0
   -0.0827   -0.2185    1.8035 H   0  0  0  0  0  0  0  0  0  0  0  0
   -1.4942    3.5434   -0.1534 H   0  0  0  0  0  0  0  0  0  0  0  0
   -1.3048    2.2027   -1.4667 H   0  0  0  0  0  0  0  0  0  0  0  0
  1  2  2  3
  1  3  1  0
  2  4  1  0
  5  6  1  0
  5  9  1  0
  5 10  1  0
  6  7  1  0
  7  8  2  3
  8 11  1  0
  8 12  1  0
M  RAD  1   5   2
M  END
>  <reaction>  (20) 
rmg_rxn_15592

>  <mol_properties>  (20) 
{"0": {"label": "*0", "atom_type": "N3d"}, "1": {"label": "*1", "atom_type": "N3d"}, "3": {"label": "*2", "atom_type": "H0"}, "4": {"label": "*3", "atom_type": "Cs"}, "5": {"label": "*4", "atom_type": "O2s"}}

>  <type>  (20) 
unop_16

>  <geom_source>  (20) 
gaussian_log

$$$$
