
     RDKit          3D

 21 21  0  0  0  0  0  0  0  0999 V2000
    3.6784    0.0079   -0.5979 C   0  0  0  0  0  0  0  0  0  0  0  0
    2.4753    0.0210    0.2878 C   0  0  0  0  0  0  0  0  0  0  0  0
    1.2116   -0.0071   -0.1659 C   0  0  0  0  0  0  0  0  0  0  0  0
   -0.0159    0.0070    0.7205 C   0  0  1  0  0  0  0  0  0  0  0  0
   -0.8042    1.2711    0.4638 C   0  0  0  0  0  0  0  0  0  0  0  0
   -1.9876    1.2745   -0.1672 C   0  0  0  0  0  0  0  0  0  0  0  0
   -2.5805    0.0557   -0.6569 C   0  0  0  0  0  0  0  0  0  0  0  0
   -2.0719   -1.1425   -0.3384 C   0  0  0  0  0  0  0  0  0  0  0  0
   -0.8487   -1.2916    0.5284 C   0  0  0  0  0  0  0  0  0  0  0  0
    3.4116   -0.0282   -1.6588 H   0  0  0  0  0  0  0  0  0  0  0  0
    4.2765    0.9081   -0.4267 H   0  0  0  0  0  0  0  0  0  0  0  0
    4.2978   -0.8653   -0.3717 H   0  0  0  0  0  0  0  0  0  0  0  0
    2.6666    0.0582    1.3579 H   0  0  0  0  0  0  0  0  0  0  0  0
    1.0252   -0.0423   -1.2386 H   0  0  0  0  0  0  0  0  0  0  0  0
    0.3057    0.0287    1.7709 H   0  0  0  0  0  0  0  0  0  0  0  0
   -0.3713    2.2085    0.8020 H   0  0  0  0  0  0  0  0  0  0  0  0
   -2.5206    2.2043   -0.3430 H   0  0  0  0  0  0  0  0  0  0  0  0
   -3.4694    0.1368   -1.2756 H   0  0  0  0  0  0  0  0  0  0  0  0
   -2.5521   -2.0487   -0.6952 H   0  0  0  0  0  0  0  0  0  0  0  0
   -0.2213   -2.0946    0.1212 H   0  0  0  0  0  0  0  0  0  0  0  0
   -1.1884   -1.6420    1.5122 H   0  0  0  0  0  0  0  0  0  0  0  0
  1  2  1  0
  1 10  1  0
  1 11  1  0
  1 12  1  0
  2  3  2  3
  2 13  1  0
  3  4  1  0
  3 14  1  0
  4  5  1  0
  4  9  1  0
  4 15  1  1
  5  6  2  0
  5 16  1  0
  6  7  1  0
  6 17  1  0
  7  8  2  0
  7 18  1  0
  8  9  1  0
  8 19  1  0
  9 20  1  0
  9 21  1  0
M  END
>  <reaction>  (1) 
rmg_rxn_16800

>  <mol_properties>  (1) 
{"8": {"label": "donator", "atom_type": "Cs"}, "19": {"label": "d_hydrogen", "atom_type": "H0"}}

>  <type>  (1) 
r1h

$$$$

     RDKit          3D

  7  6  0  0  0  0  0  0  0  0999 V2000
   -1.2010    0.1038   -0.0002 C   0  0  0  0  0  0  0  0  0  0  0  0
    0.1886   -0.4250   -0.0003 C   0  0  0  0  0  3  0  0  0  0  0  0
    1.3309    0.0272    0.0001 N   0  0  0  0  0  0  0  0  0  0  0  0
   -1.7355   -0.2512    0.8930 H   0  0  0  0  0  0  0  0  0  0  0  0
   -1.2181    1.2094   -0.0132 H   0  0  0  0  0  0  0  0  0  0  0  0
   -1.7468   -0.2736   -0.8772 H   0  0  0  0  0  0  0  0  0  0  0  0
    1.4589    1.0518   -0.0003 H   0  0  0  0  0  0  0  0  0  0  0  0
  1  2  1  0
  1  4  1  0
  1  5  1  0
  1  6  1  0
  2  3  2  3
  3  7  1  0
M  RAD  1   2   2
M  END
>  <reaction>  (2) 
rmg_rxn_16800

>  <mol_properties>  (2) 
{"1": {"label": "acceptor", "atom_type": "Cd"}}

>  <type>  (2) 
r2

$$$$

     RDKit          3D

  8  7  0  0  0  0  0  0  0  0999 V2000
    1.2099   -0.1388    0.0025 C   0  0  0  0  0  0  0  0  0  0  0  0
   -0.1788    0.4141    0.0007 C   0  0  0  0  0  0  0  0  0  0  0  0
   -1.2100   -0.3603    0.0013 N   0  0  0  0  0  0  0  0  0  0  0  0
    1.7355    0.2223   -0.8851 H   0  0  0  0  0  0  0  0  0  0  0  0
    1.7521    0.1663    0.9007 H   0  0  0  0  0  0  0  0  0  0  0  0
    1.1564   -1.2296   -0.0424 H   0  0  0  0  0  0  0  0  0  0  0  0
   -0.2911    1.5112   -0.0010 H   0  0  0  0  0  0  0  0  0  0  0  0
   -2.0699    0.2005   -0.0002 H   0  0  0  0  0  0  0  0  0  0  0  0
  1  2  1  0
  1  4  1  0
  1  5  1  0
  1  6  1  0
  2  3  2  3
  2  7  1  0
  3  8  1  0
M  END
>  <reaction>  (3) 
rmg_rxn_16800

>  <mol_properties>  (3) 
{"1": {"label": "acceptor", "atom_type": "Cd"}, "7": {"label": "a_hydrogen", "atom_type": "H0"}}

>  <type>  (3) 
r2h

$$$$

     RDKit          3D

 28 27  0  0  0  0  0  0  0  0999 V2000
   -2.1243   -1.7161    1.3014 C   0  0  0  0  0  0  0  0  0  0  0  0
   -1.8103   -1.4909   -0.1424 C   0  0  0  0  0  3  0  0  0  0  0  0
   -2.2949   -2.2541   -1.0621 N   0  0  0  0  0  0  0  0  0  0  0  0
   -2.6469   -0.8564    1.7276 H   0  0  0  0  0  0  0  0  0  0  0  0
   -2.7487   -2.6085    1.3926 H   0  0  0  0  0  0  0  0  0  0  0  0
   -1.1909   -1.8855    1.8442 H   0  0  0  0  0  0  0  0  0  0  0  0
   -1.9681   -1.9431   -1.9843 H   0  0  0  0  0  0  0  0  0  0  0  0
   -2.2058    2.8683    0.5001 C   0  0  0  0  0  0  0  0  0  0  0  0
   -1.1552    2.2365   -0.3539 C   0  0  0  0  0  0  0  0  0  0  0  0
   -0.2368    1.3715    0.1065 C   0  0  0  0  0  0  0  0  0  0  0  0
    0.8336    0.7255   -0.7476 C   0  0  1  0  0  0  0  0  0  0  0  0
    2.1950    1.1790   -0.2717 C   0  0  0  0  0  0  0  0  0  0  0  0
    3.0494    0.3668    0.3676 C   0  0  0  0  0  0  0  0  0  0  0  0
    2.7096   -1.0039    0.6547 C   0  0  0  0  0  0  0  0  0  0  0  0
    1.6143   -1.5734    0.1331 C   0  0  0  0  0  0  0  0  0  0  0  0
    0.6666   -0.8200   -0.7637 C   0  0  0  0  0  0  0  0  0  0  0  0
   -2.1417    2.5445    1.5437 H   0  0  0  0  0  0  0  0  0  0  0  0
   -2.1020    3.9573    0.4735 H   0  0  0  0  0  0  0  0  0  0  0  0
   -3.1991    2.6076    0.1222 H   0  0  0  0  0  0  0  0  0  0  0  0
   -1.1587    2.5152   -1.4052 H   0  0  0  0  0  0  0  0  0  0  0  0
   -0.2363    1.0971    1.1607 H   0  0  0  0  0  0  0  0  0  0  0  0
    0.7165    1.0711   -1.7839 H   0  0  0  0  0  0  0  0  0  0  0  0
    2.4700    2.2141   -0.4544 H   0  0  0  0  0  0  0  0  0  0  0  0
    4.0157    0.7310    0.7040 H   0  0  0  0  0  0  0  0  0  0  0  0
    3.3829   -1.5711    1.2908 H   0  0  0  0  0  0  0  0  0  0  0  0
    1.3934   -2.6161    0.3399 H   0  0  0  0  0  0  0  0  0  0  0  0
   -0.5688   -1.1546   -0.4538 H   0  0  0  0  0  0  0  0  0  0  0  0
    0.8309   -1.1823   -1.7873 H   0  0  0  0  0  0  0  0  0  0  0  0
  1  2  1  0
  1  4  1  0
  1  5  1  0
  1  6  1  0
  2  3  2  3
  3  7  1  0
  8  9  1  0
  8 17  1  0
  8 18  1  0
  8 19  1  0
  9 10  2  3
  9 20  1  0
 10 11  1  0
 10 21  1  0
 11 12  1  0
 11 16  1  0
 11 22  1  6
 12 13  2  0
 12 23  1  0
 13 14  1  0
 13 24  1  0
 14 15  2  0
 14 25  1  0
 15 16  1  0
 15 26  1  0
 16 27  1  0
 16 28  1  0
M  RAD  1   2   2
M  END
>  <reaction>  (4) 
rmg_rxn_16800

>  <mol_properties>  (4) 
{"1": {"label": "*3", "atom_type": "Cd"}, "2": {"label": "*4", "atom_type": "N3d"}, "10": {"label": "*0", "atom_type": "Cs"}, "15": {"label": "*1", "atom_type": "Cs"}, "26": {"label": "*2", "atom_type": "H0"}}

>  <type>  (4) 
ts

$$$$

     RDKit          3D

 28 27  0  0  0  0  0  0  0  0999 V2000
    1.2638    2.4081   -0.9049 C   0  0  0  0  0  0  0  0  0  0  0  0
    0.1617    2.0838    0.0270 C   0  0  0  0  0  0  0  0  0  0  0  0
   -0.8183    2.8229    0.2305 N   0  0  0  0  0  0  0  0  0  0  0  0
    2.2104    2.3689   -0.3679 H   0  0  0  0  0  0  0  0  0  0  0  0
    1.3025    1.6491   -1.6855 H   0  0  0  0  0  0  0  0  0  0  0  0
    1.1306    3.3917   -1.3515 H   0  0  0  0  0  0  0  0  0  0  0  0
   -1.5289    2.5096    0.8839 H   0  0  0  0  0  0  0  0  0  0  0  0
   -3.9499   -0.4851   -0.1928 C   0  0  0  0  0  0  0  0  0  0  0  0
   -2.6371   -1.0621    0.2207 C   0  0  0  0  0  0  0  0  0  0  0  0
   -1.4629   -0.6539   -0.2293 C   0  0  0  0  0  0  0  0  0  0  0  0
   -0.1362   -1.2187    0.2014 C   0  0  0  0  0  0  0  0  0  0  0  0
    0.7347   -1.5259   -0.9848 C   0  0  0  0  0  3  0  0  0  0  0  0
    2.0712   -1.3910   -0.9408 C   0  0  0  0  0  0  0  0  0  0  0  0
    2.7294   -0.8884    0.2183 C   0  0  0  0  0  0  0  0  0  0  0  0
    1.9872   -0.3900    1.2555 C   0  0  0  0  0  0  0  0  0  0  0  0
    0.5786   -0.2843    1.1662 C   0  0  0  0  0  0  0  0  0  0  0  0
   -4.5709   -1.2531   -0.6535 H   0  0  0  0  0  0  0  0  0  0  0  0
   -4.4873   -0.1073    0.6771 H   0  0  0  0  0  0  0  0  0  0  0  0
   -3.8122    0.3277   -0.9019 H   0  0  0  0  0  0  0  0  0  0  0  0
   -2.6899   -1.8695    0.9413 H   0  0  0  0  0  0  0  0  0  0  0  0
   -1.4102    0.1502   -0.9527 H   0  0  0  0  0  0  0  0  0  0  0  0
   -0.3407   -2.1666    0.7346 H   0  0  0  0  0  0  0  0  0  0  0  0
    0.2365   -1.9227   -1.8571 H   0  0  0  0  0  0  0  0  0  0  0  0
    2.6737   -1.6673   -1.7951 H   0  0  0  0  0  0  0  0  0  0  0  0
    3.8068   -0.8999    0.2632 H   0  0  0  0  0  0  0  0  0  0  0  0
    2.4808    0.0495    2.1121 H   0  0  0  0  0  0  0  0  0  0  0  0
    0.3556    0.9469    0.6005 H   0  0  0  0  0  0  0  0  0  0  0  0
    0.0396   -0.1292    2.0978 H   0  0  0  0  0  0  0  0  0  0  0  0
  1  2  1  0
  1  4  1  0
  1  5  1  0
  1  6  1  0
  2  3  2  3
  2 27  1  0
  3  7  1  0
  8  9  1  0
  8 17  1  0
  8 18  1  0
  8 19  1  0
  9 10  2  3
  9 20  1  0
 10 11  1  0
 10 21  1  0
 11 12  1  0
 11 16  1  0
 11 22  1  0
 12 13  1  0
 12 23  1  0
 13 14  2  0
 13 24  1  0
 14 15  1  0
 14 25  1  0
 15 16  2  0
 15 26  1  0
 16 28  1  0
M  RAD  1  12   2
M  END
>  <reaction>  (5) 
rmg_rxn_16800

>  <mol_properties>  (5) 
{"1": {"label": "*3", "atom_type": "Cd"}, "2": {"label": "*4", "atom_type": "N3d"}, "10": {"label": "*0", "atom_type": "Cs"}, "15": {"label": "*1", "atom_type": "Cs"}, "26": {"label": "*2", "atom_type": "H0"}}

>  <type>  (5) 
unop_1

>  <geom_source>  (5) 
crest_best.xyz

$$$$

     RDKit          3D

 28 27  0  0  0  0  0  0  0  0999 V2000
   -3.5414   -0.7049   -0.2623 C   0  0  0  0  0  0  0  0  0  0  0  0
   -2.2703   -0.0037   -0.6183 C   0  0  0  0  0  3  0  0  0  0  0  0
   -2.2780    1.1301   -1.2328 N   0  0  0  0  0  0  0  0  0  0  0  0
   -3.6356   -0.8200    0.8202 H   0  0  0  0  0  0  0  0  0  0  0  0
   -4.3847   -0.1247   -0.6454 H   0  0  0  0  0  0  0  0  0  0  0  0
   -3.5483   -1.6884   -0.7389 H   0  0  0  0  0  0  0  0  0  0  0  0
   -1.3155    1.4512   -1.3887 H   0  0  0  0  0  0  0  0  0  0  0  0
    0.9297   -1.7751   -3.1071 C   0  0  0  0  0  0  0  0  0  0  0  0
    0.9297   -1.7751   -1.6130 C   0  0  0  0  0  0  0  0  0  0  0  0
    0.9297   -0.6600   -0.8646 C   0  0  0  0  0  0  0  0  0  0  0  0
    0.9311   -0.6461    0.6495 C   0  0  0  0  0  0  0  0  0  0  0  0
    2.2113   -0.0114    1.1431 C   0  0  0  0  0  0  0  0  0  0  0  0
    2.2472    1.1977    1.7220 C   0  0  0  0  0  0  0  0  0  0  0  0
    1.0506    1.9811    1.8986 C   0  0  0  0  0  0  0  0  0  0  0  0
   -0.1624    1.4605    1.6673 C   0  0  0  0  0  0  0  0  0  0  0  0
   -0.3515    0.0425    1.1949 C   0  0  0  0  0  0  0  0  0  0  0  0
    0.9287   -0.7620   -3.5215 H   0  0  0  0  0  0  0  0  0  0  0  0
    1.8175   -2.2953   -3.4794 H   0  0  0  0  0  0  0  0  0  0  0  0
    0.0430   -2.2971   -3.4793 H   0  0  0  0  0  0  0  0  0  0  0  0
    0.9324   -2.7508   -1.1324 H   0  0  0  0  0  0  0  0  0  0  0  0
    0.9291    0.3149   -1.3507 H   0  0  0  0  0  0  0  0  0  0  0  0
    0.9175   -1.6827    1.0133 H   0  0  0  0  0  0  0  0  0  0  0  0
    3.1330   -0.5694    1.0032 H   0  0  0  0  0  0  0  0  0  0  0  0
    3.1878    1.6263    2.0551 H   0  0  0  0  0  0  0  0  0  0  0  0
    1.1604    3.0035    2.2483 H   0  0  0  0  0  0  0  0  0  0  0  0
   -1.0519    2.0605    1.8347 H   0  0  0  0  0  0  0  0  0  0  0  0
   -1.3085    0.0194    0.2905 H   0  0  0  0  0  0  0  0  0  0  0  0
   -0.7275   -0.5369    2.0487 H   0  0  0  0  0  0  0  0  0  0  0  0
  1  2  1  0
  1  4  1  0
  1  5  1  0
  1  6  1  0
  2  3  2  3
  3  7  1  0
  8  9  1  0
  8 17  1  0
  8 18  1  0
  8 19  1  0
  9 10  2  3
  9 20  1  0
 10 11  1  0
 10 21  1  0
 11 12  1  0
 11 16  1  0
 11 22  1  0
 12 13  2  0
 12 23  1  0
 13 14  1  0
 13 24  1  0
 14 15  2  0
 14 25  1  0
 15 16  1  0
 15 26  1  0
 16 27  1  0
 16 28  1  0
M  RAD  1   2   2
M  END
>  <reaction>  (6) 
rmg_rxn_16800

>  <mol_properties>  (6) 
{"1": {"label": "*3", "atom_type": "Cd"}, "2": {"label": "*4", "atom_type": "N3d"}, "10": {"label": "*0", "atom_type": "Cs"}, "15": {"label": "*1", "atom_type": "Cs"}, "26": {"label": "*2", "atom_type": "H0"}}

>  <type>  (6) 
unop_2

>  <geom_source>  (6) 
Heuristics

$$$$

     RDKit          3D

 28 27  0  0  0  0  0  0  0  0999 V2000
   -2.3069   -1.0706   -1.5313 C   0  0  0  0  0  0  0  0  0  0  0  0
   -2.2920    0.0732   -0.5691 C   0  0  0  0  0  3  0  0  0  0  0  0
   -3.3334    0.8120   -0.3881 N   0  0  0  0  0  0  0  0  0  0  0  0
   -2.1261   -2.0176   -1.0172 H   0  0  0  0  0  0  0  0  0  0  0  0
   -3.2796   -1.1017   -2.0288 H   0  0  0  0  0  0  0  0  0  0  0  0
   -1.5331   -0.9080   -2.2860 H   0  0  0  0  0  0  0  0  0  0  0  0
   -3.1302    1.5406    0.3061 H   0  0  0  0  0  0  0  0  0  0  0  0
    0.9080   -1.6982   -3.0579 C   0  0  0  0  0  0  0  0  0  0  0  0
    0.9080   -1.6982   -1.5639 C   0  0  0  0  0  0  0  0  0  0  0  0
    0.9080   -0.5831   -0.8154 C   0  0  0  0  0  0  0  0  0  0  0  0
    0.9094   -0.5692    0.6987 C   0  0  0  0  0  0  0  0  0  0  0  0
    2.1896    0.0654    1.1923 C   0  0  0  0  0  0  0  0  0  0  0  0
    2.2255    1.2746    1.7712 C   0  0  0  0  0  0  0  0  0  0  0  0
    1.0288    2.0580    1.9477 C   0  0  0  0  0  0  0  0  0  0  0  0
   -0.1842    1.5374    1.7165 C   0  0  0  0  0  0  0  0  0  0  0  0
   -0.3733    0.1194    1.2441 C   0  0  0  0  0  0  0  0  0  0  0  0
    0.9069   -0.6851   -3.4723 H   0  0  0  0  0  0  0  0  0  0  0  0
    1.7957   -2.2184   -3.4302 H   0  0  0  0  0  0  0  0  0  0  0  0
    0.0213   -2.2202   -3.4302 H   0  0  0  0  0  0  0  0  0  0  0  0
    0.9107   -2.6739   -1.0832 H   0  0  0  0  0  0  0  0  0  0  0  0
    0.9073    0.3918   -1.3015 H   0  0  0  0  0  0  0  0  0  0  0  0
    0.8957   -1.6058    1.0625 H   0  0  0  0  0  0  0  0  0  0  0  0
    3.1113   -0.4925    1.0523 H   0  0  0  0  0  0  0  0  0  0  0  0
    3.1661    1.7032    2.1043 H   0  0  0  0  0  0  0  0  0  0  0  0
    1.1387    3.0803    2.2975 H   0  0  0  0  0  0  0  0  0  0  0  0
   -1.0736    2.1374    1.8839 H   0  0  0  0  0  0  0  0  0  0  0  0
   -1.3303    0.0963    0.3397 H   0  0  0  0  0  0  0  0  0  0  0  0
   -0.7493   -0.4600    2.0978 H   0  0  0  0  0  0  0  0  0  0  0  0
  1  2  1  0
  1  4  1  0
  1  5  1  0
  1  6  1  0
  2  3  2  3
  3  7  1  0
  8  9  1  0
  8 17  1  0
  8 18  1  0
  8 19  1  0
  9 10  2  3
  9 20  1  0
 10 11  1  0
 10 21  1  0
 11 12  1  0
 11 16  1  0
 11 22  1  0
 12 13  2  0
 12 23  1  0
 13 14  1  0
 13 24  1  0
 14 15  2  0
 14 25  1  0
 15 16  1  0
 15 26  1  0
 16 27  1  0
 16 28  1  0
M  RAD  1   2   2
M  END
>  <reaction>  (7) 
rmg_rxn_16800

>  <mol_properties>  (7) 
{"1": {"label": "*3", "atom_type": "Cd"}, "2": {"label": "*4", "atom_type": "N3d"}, "10": {"label": "*0", "atom_type": "Cs"}, "15": {"label": "*1", "atom_type": "Cs"}, "26": {"label": "*2", "atom_type": "H0"}}

>  <type>  (7) 
unop_3

>  <geom_source>  (7) 
Heuristics

$$$$

     RDKit          3D

 28 27  0  0  0  0  0  0  0  0999 V2000
   -3.6988   -0.0599   -0.0988 C   0  0  0  0  0  0  0  0  0  0  0  0
   -2.2868   -0.0169   -0.5871 C   0  0  0  0  0  3  0  0  0  0  0  0
   -1.9715    0.5960   -1.6771 N   0  0  0  0  0  0  0  0  0  0  0  0
   -3.7913    0.4246    0.8762 H   0  0  0  0  0  0  0  0  0  0  0  0
   -4.3396    0.4477   -0.8242 H   0  0  0  0  0  0  0  0  0  0  0  0
   -4.0151   -1.1033   -0.0226 H   0  0  0  0  0  0  0  0  0  0  0  0
   -0.9619    0.5155   -1.8454 H   0  0  0  0  0  0  0  0  0  0  0  0
    0.9132   -1.7882   -3.0759 C   0  0  0  0  0  0  0  0  0  0  0  0
    0.9132   -1.7882   -1.5818 C   0  0  0  0  0  0  0  0  0  0  0  0
    0.9132   -0.6731   -0.8334 C   0  0  0  0  0  0  0  0  0  0  0  0
    0.9146   -0.6593    0.6807 C   0  0  0  0  0  0  0  0  0  0  0  0
    2.1948   -0.0246    1.1743 C   0  0  0  0  0  0  0  0  0  0  0  0
    2.2307    1.1846    1.7532 C   0  0  0  0  0  0  0  0  0  0  0  0
    1.0341    1.9679    1.9298 C   0  0  0  0  0  0  0  0  0  0  0  0
   -0.1789    1.4474    1.6985 C   0  0  0  0  0  0  0  0  0  0  0  0
   -0.3680    0.0293    1.2261 C   0  0  0  0  0  0  0  0  0  0  0  0
    0.9122   -0.7752   -3.4903 H   0  0  0  0  0  0  0  0  0  0  0  0
    1.8010   -2.3085   -3.4482 H   0  0  0  0  0  0  0  0  0  0  0  0
    0.0265   -2.3103   -3.4481 H   0  0  0  0  0  0  0  0  0  0  0  0
    0.9159   -2.7640   -1.1012 H   0  0  0  0  0  0  0  0  0  0  0  0
    0.9126    0.3017   -1.3195 H   0  0  0  0  0  0  0  0  0  0  0  0
    0.9010   -1.6959    1.0446 H   0  0  0  0  0  0  0  0  0  0  0  0
    3.1165   -0.5825    1.0344 H   0  0  0  0  0  0  0  0  0  0  0  0
    3.1714    1.6131    2.0863 H   0  0  0  0  0  0  0  0  0  0  0  0
    1.1439    2.9903    2.2795 H   0  0  0  0  0  0  0  0  0  0  0  0
   -1.0684    2.0473    1.8659 H   0  0  0  0  0  0  0  0  0  0  0  0
   -1.3250    0.0063    0.3217 H   0  0  0  0  0  0  0  0  0  0  0  0
   -0.7440   -0.5501    2.0799 H   0  0  0  0  0  0  0  0  0  0  0  0
  1  2  1  0
  1  4  1  0
  1  5  1  0
  1  6  1  0
  2  3  2  3
  3  7  1  0
  8  9  1  0
  8 17  1  0
  8 18  1  0
  8 19  1  0
  9 10  2  3
  9 20  1  0
 10 11  1  0
 10 21  1  0
 11 12  1  0
 11 16  1  0
 11 22  1  0
 12 13  2  0
 12 23  1  0
 13 14  1  0
 13 24  1  0
 14 15  2  0
 14 25  1  0
 15 16  1  0
 15 26  1  0
 16 27  1  0
 16 28  1  0
M  RAD  1   2   2
M  END
>  <reaction>  (8) 
rmg_rxn_16800

>  <mol_properties>  (8) 
{"1": {"label": "*3", "atom_type": "Cd"}, "2": {"label": "*4", "atom_type": "N3d"}, "10": {"label": "*0", "atom_type": "Cs"}, "15": {"label": "*1", "atom_type": "Cs"}, "26": {"label": "*2", "atom_type": "H0"}}

>  <type>  (8) 
unop_4

>  <geom_source>  (8) 
Heuristics

$$$$

     RDKit          3D

 28 27  0  0  0  0  0  0  0  0999 V2000
   -2.0386    0.6538   -1.8726 C   0  0  0  0  0  0  0  0  0  0  0  0
   -2.3046   -0.0232   -0.5668 C   0  0  0  0  0  3  0  0  0  0  0  0
   -3.4921   -0.0739   -0.0663 N   0  0  0  0  0  0  0  0  0  0  0  0
   -1.6492   -0.0537   -2.6086 H   0  0  0  0  0  0  0  0  0  0  0  0
   -2.9700    1.0918   -2.2402 H   0  0  0  0  0  0  0  0  0  0  0  0
   -1.3135    1.4560   -1.7139 H   0  0  0  0  0  0  0  0  0  0  0  0
   -3.4743   -0.5764    0.8288 H   0  0  0  0  0  0  0  0  0  0  0  0
    0.8954   -1.7945   -3.0556 C   0  0  0  0  0  0  0  0  0  0  0  0
    0.8954   -1.7945   -1.5616 C   0  0  0  0  0  0  0  0  0  0  0  0
    0.8954   -0.6794   -0.8131 C   0  0  0  0  0  0  0  0  0  0  0  0
    0.8968   -0.6656    0.7010 C   0  0  0  0  0  0  0  0  0  0  0  0
    2.1770   -0.0309    1.1946 C   0  0  0  0  0  0  0  0  0  0  0  0
    2.2129    1.1783    1.7735 C   0  0  0  0  0  0  0  0  0  0  0  0
    1.0162    1.9616    1.9500 C   0  0  0  0  0  0  0  0  0  0  0  0
   -0.1968    1.4411    1.7188 C   0  0  0  0  0  0  0  0  0  0  0  0
   -0.3859    0.0230    1.2464 C   0  0  0  0  0  0  0  0  0  0  0  0
    0.8943   -0.7814   -3.4700 H   0  0  0  0  0  0  0  0  0  0  0  0
    1.7831   -2.3148   -3.4279 H   0  0  0  0  0  0  0  0  0  0  0  0
    0.0087   -2.3166   -3.4279 H   0  0  0  0  0  0  0  0  0  0  0  0
    0.8981   -2.7703   -1.0809 H   0  0  0  0  0  0  0  0  0  0  0  0
    0.8947    0.2954   -1.2992 H   0  0  0  0  0  0  0  0  0  0  0  0
    0.8831   -1.7022    1.0648 H   0  0  0  0  0  0  0  0  0  0  0  0
    3.0987   -0.5888    1.0546 H   0  0  0  0  0  0  0  0  0  0  0  0
    3.1535    1.6069    2.1066 H   0  0  0  0  0  0  0  0  0  0  0  0
    1.1261    2.9840    2.2998 H   0  0  0  0  0  0  0  0  0  0  0  0
   -1.0862    2.0410    1.8862 H   0  0  0  0  0  0  0  0  0  0  0  0
   -1.3429   -0.0000    0.3420 H   0  0  0  0  0  0  0  0  0  0  0  0
   -0.7619   -0.5564    2.1001 H   0  0  0  0  0  0  0  0  0  0  0  0
  1  2  1  0
  1  4  1  0
  1  5  1  0
  1  6  1  0
  2  3  2  3
  3  7  1  0
  8  9  1  0
  8 17  1  0
  8 18  1  0
  8 19  1  0
  9 10  2  3
  9 20  1  0
 10 11  1  0
 10 21  1  0
 11 12  1  0
 11 16  1  0
 11 22  1  0
 12 13  2  0
 12 23  1  0
 13 14  1  0
 13 24  1  0
 14 15  2  0
 14 25  1  0
 15 16  1  0
 15 26  1  0
 16 27  1  0
 16 28  1  0
M  RAD  1   2   2
M  END
>  <reaction>  (9) 
rmg_rxn_16800

>  <mol_properties>  (9) 
{"1": {"label": "*3", "atom_type": "Cd"}, "2": {"label": "*4", "atom_type": "N3d"}, "10": {"label": "*0", "atom_type": "Cs"}, "15": {"label": "*1", "atom_type": "Cs"}, "26": {"label": "*2", "atom_type": "H0"}}

>  <type>  (9) 
unop_5

>  <geom_source>  (9) 
Heuristics

$$$$

     RDKit          3D

 28 27  0  0  0  0  0  0  0  0999 V2000
   -3.5939    0.6505   -0.2071 C   0  0  0  0  0  0  0  0  0  0  0  0
   -2.2847    0.0271   -0.5697 C   0  0  0  0  0  3  0  0  0  0  0  0
   -2.0956   -0.5144   -1.7248 N   0  0  0  0  0  0  0  0  0  0  0  0
   -3.4762    1.7167    0.0005 H   0  0  0  0  0  0  0  0  0  0  0  0
   -4.2931    0.5120   -1.0357 H   0  0  0  0  0  0  0  0  0  0  0  0
   -3.9936    0.1456    0.6760 H   0  0  0  0  0  0  0  0  0  0  0  0
   -1.1405   -0.8859   -1.7860 H   0  0  0  0  0  0  0  0  0  0  0  0
    0.9153   -1.7442   -3.0585 C   0  0  0  0  0  0  0  0  0  0  0  0
    0.9153   -1.7442   -1.5644 C   0  0  0  0  0  0  0  0  0  0  0  0
    0.9153   -0.6291   -0.8160 C   0  0  0  0  0  0  0  0  0  0  0  0
    0.9167   -0.6153    0.6981 C   0  0  0  0  0  0  0  0  0  0  0  0
    2.1969    0.0194    1.1917 C   0  0  0  0  0  0  0  0  0  0  0  0
    2.2328    1.2286    1.7706 C   0  0  0  0  0  0  0  0  0  0  0  0
    1.0362    2.0119    1.9472 C   0  0  0  0  0  0  0  0  0  0  0  0
   -0.1769    1.4914    1.7159 C   0  0  0  0  0  0  0  0  0  0  0  0
   -0.3660    0.0733    1.2435 C   0  0  0  0  0  0  0  0  0  0  0  0
    0.9143   -0.7312   -3.4729 H   0  0  0  0  0  0  0  0  0  0  0  0
    1.8031   -2.2645   -3.4308 H   0  0  0  0  0  0  0  0  0  0  0  0
    0.0286   -2.2663   -3.4307 H   0  0  0  0  0  0  0  0  0  0  0  0
    0.9180   -2.7200   -1.0838 H   0  0  0  0  0  0  0  0  0  0  0  0
    0.9147    0.3457   -1.3021 H   0  0  0  0  0  0  0  0  0  0  0  0
    0.9030   -1.6519    1.0620 H   0  0  0  0  0  0  0  0  0  0  0  0
    3.1186   -0.5385    1.0518 H   0  0  0  0  0  0  0  0  0  0  0  0
    3.1734    1.6571    2.1037 H   0  0  0  0  0  0  0  0  0  0  0  0
    1.1460    3.0343    2.2969 H   0  0  0  0  0  0  0  0  0  0  0  0
   -1.0663    2.0913    1.8833 H   0  0  0  0  0  0  0  0  0  0  0  0
   -1.3229    0.0503    0.3392 H   0  0  0  0  0  0  0  0  0  0  0  0
   -0.7420   -0.5061    2.0973 H   0  0  0  0  0  0  0  0  0  0  0  0
  1  2  1  0
  1  4  1  0
  1  5  1  0
  1  6  1  0
  2  3  2  3
  3  7  1  0
  8  9  1  0
  8 17  1  0
  8 18  1  0
  8 19  1  0
  9 10  2  3
  9 20  1  0
 10 11  1  0
 10 21  1  0
 11 12  1  0
 11 16  1  0
 11 22  1  0
 12 13  2  0
 12 23  1  0
 13 14  1  0
 13 24  1  0
 14 15  2  0
 14 25  1  0
 15 16  1  0
 15 26  1  0
 16 27  1  0
 16 28  1  0
M  RAD  1   2   2
M  END
>  <reaction>  (10) 
rmg_rxn_16800

>  <mol_properties>  (10) 
{"1": {"label": "*3", "atom_type": "Cd"}, "2": {"label": "*4", "atom_type": "N3d"}, "10": {"label": "*0", "atom_type": "Cs"}, "15": {"label": "*1", "atom_type": "Cs"}, "26": {"label": "*2", "atom_type": "H0"}}

>  <type>  (10) 
unop_6

>  <geom_source>  (10) 
Heuristics

$$$$

     RDKit          3D

 28 27  0  0  0  0  0  0  0  0999 V2000
   -2.3648    1.1271   -1.5512 C   0  0  0  0  0  0  0  0  0  0  0  0
   -2.2840   -0.0233   -0.6004 C   0  0  0  0  0  3  0  0  0  0  0  0
   -3.3457   -0.5509   -0.0927 N   0  0  0  0  0  0  0  0  0  0  0  0
   -1.9494    0.8600   -2.5259 H   0  0  0  0  0  0  0  0  0  0  0  0
   -3.4119    1.4191   -1.6651 H   0  0  0  0  0  0  0  0  0  0  0  0
   -1.8099    1.9710   -1.1335 H   0  0  0  0  0  0  0  0  0  0  0  0
   -3.0888   -1.3235    0.5326 H   0  0  0  0  0  0  0  0  0  0  0  0
    0.9160   -1.7946   -3.0892 C   0  0  0  0  0  0  0  0  0  0  0  0
    0.9160   -1.7946   -1.5952 C   0  0  0  0  0  0  0  0  0  0  0  0
    0.9160   -0.6796   -0.8467 C   0  0  0  0  0  0  0  0  0  0  0  0
    0.9174   -0.6657    0.6674 C   0  0  0  0  0  0  0  0  0  0  0  0
    2.1976   -0.0310    1.1610 C   0  0  0  0  0  0  0  0  0  0  0  0
    2.2335    1.1781    1.7399 C   0  0  0  0  0  0  0  0  0  0  0  0
    1.0368    1.9615    1.9164 C   0  0  0  0  0  0  0  0  0  0  0  0
   -0.1762    1.4410    1.6852 C   0  0  0  0  0  0  0  0  0  0  0  0
   -0.3653    0.0229    1.2128 C   0  0  0  0  0  0  0  0  0  0  0  0
    0.9149   -0.7816   -3.5036 H   0  0  0  0  0  0  0  0  0  0  0  0
    1.8037   -2.3149   -3.4615 H   0  0  0  0  0  0  0  0  0  0  0  0
    0.0293   -2.3167   -3.4614 H   0  0  0  0  0  0  0  0  0  0  0  0
    0.9187   -2.7704   -1.1145 H   0  0  0  0  0  0  0  0  0  0  0  0
    0.9153    0.2953   -1.3328 H   0  0  0  0  0  0  0  0  0  0  0  0
    0.9037   -1.7023    1.0312 H   0  0  0  0  0  0  0  0  0  0  0  0
    3.1193   -0.5890    1.0211 H   0  0  0  0  0  0  0  0  0  0  0  0
    3.1741    1.6067    2.0730 H   0  0  0  0  0  0  0  0  0  0  0  0
    1.1467    2.9839    2.2662 H   0  0  0  0  0  0  0  0  0  0  0  0
   -1.0656    2.0409    1.8526 H   0  0  0  0  0  0  0  0  0  0  0  0
   -1.3223   -0.0002    0.3084 H   0  0  0  0  0  0  0  0  0  0  0  0
   -0.7413   -0.5565    2.0666 H   0  0  0  0  0  0  0  0  0  0  0  0
  1  2  1  0
  1  4  1  0
  1  5  1  0
  1  6  1  0
  2  3  2  3
  3  7  1  0
  8  9  1  0
  8 17  1  0
  8 18  1  0
  8 19  1  0
  9 10  2  3
  9 20  1  0
 10 11  1  0
 10 21  1  0
 11 12  1  0
 11 16  1  0
 11 22  1  0
 12 13  2  0
 12 23  1  0
 13 14  1  0
 13 24  1  0
 14 15  2  0
 14 25  1  0
 15 16  1  0
 15 26  1  0
 16 27  1  0
 16 28  1  0
M  RAD  1   2   2
M  END
>  <reaction>  (11) 
rmg_rxn_16800

>  <mol_properties>  (11) 
{"1": {"label": "*3", "atom_type": "Cd"}, "2": {"label": "*4", "atom_type": "N3d"}, "10": {"label": "*0", "atom_type": "Cs"}, "15": {"label": "*1", "atom_type": "Cs"}, "26": {"label": "*2", "atom_type": "H0"}}

>  <type>  (11) 
unop_7

>  <geom_source>  (11) 
Heuristics

$$$$

     RDKit          3D

 28 27  0  0  0  0  0  0  0  0999 V2000
   -2.8079    1.3170   -1.0905 C   0  0  0  0  0  0  0  0  0  0  0  0
   -2.2672    0.0045   -0.6222 C   0  0  0  0  0  3  0  0  0  0  0  0
   -3.0471   -0.9900   -0.3653 N   0  0  0  0  0  0  0  0  0  0  0  0
   -2.4307    1.5634   -2.0859 H   0  0  0  0  0  0  0  0  0  0  0  0
   -3.8992    1.2619   -1.1137 H   0  0  0  0  0  0  0  0  0  0  0  0
   -2.5118    2.0946   -0.3818 H   0  0  0  0  0  0  0  0  0  0  0  0
   -2.4945   -1.7990   -0.0586 H   0  0  0  0  0  0  0  0  0  0  0  0
    0.9328   -1.7668   -3.1109 C   0  0  0  0  0  0  0  0  0  0  0  0
    0.9328   -1.7668   -1.6169 C   0  0  0  0  0  0  0  0  0  0  0  0
    0.9328   -0.6517   -0.8684 C   0  0  0  0  0  0  0  0  0  0  0  0
    0.9342   -0.6379    0.6456 C   0  0  0  0  0  0  0  0  0  0  0  0
    2.2144   -0.0032    1.1392 C   0  0  0  0  0  0  0  0  0  0  0  0
    2.2503    1.2060    1.7181 C   0  0  0  0  0  0  0  0  0  0  0  0
    1.0537    1.9893    1.8947 C   0  0  0  0  0  0  0  0  0  0  0  0
   -0.1594    1.4688    1.6635 C   0  0  0  0  0  0  0  0  0  0  0  0
   -0.3485    0.0507    1.1910 C   0  0  0  0  0  0  0  0  0  0  0  0
    0.9317   -0.7538   -3.5253 H   0  0  0  0  0  0  0  0  0  0  0  0
    1.8205   -2.2871   -3.4832 H   0  0  0  0  0  0  0  0  0  0  0  0
    0.0461   -2.2889   -3.4832 H   0  0  0  0  0  0  0  0  0  0  0  0
    0.9355   -2.7426   -1.1363 H   0  0  0  0  0  0  0  0  0  0  0  0
    0.9322    0.3231   -1.3546 H   0  0  0  0  0  0  0  0  0  0  0  0
    0.9205   -1.6745    1.0095 H   0  0  0  0  0  0  0  0  0  0  0  0
    3.1361   -0.5611    0.9993 H   0  0  0  0  0  0  0  0  0  0  0  0
    3.1909    1.6345    2.0513 H   0  0  0  0  0  0  0  0  0  0  0  0
    1.1635    3.0117    2.2445 H   0  0  0  0  0  0  0  0  0  0  0  0
   -1.0488    2.0687    1.8308 H   0  0  0  0  0  0  0  0  0  0  0  0
   -1.3055    0.0277    0.2867 H   0  0  0  0  0  0  0  0  0  0  0  0
   -0.7245   -0.5287    2.0448 H   0  0  0  0  0  0  0  0  0  0  0  0
  1  2  1  0
  1  4  1  0
  1  5  1  0
  1  6  1  0
  2  3  2  3
  3  7  1  0
  8  9  1  0
  8 17  1  0
  8 18  1  0
  8 19  1  0
  9 10  2  3
  9 20  1  0
 10 11  1  0
 10 21  1  0
 11 12  1  0
 11 16  1  0
 11 22  1  0
 12 13  2  0
 12 23  1  0
 13 14  1  0
 13 24  1  0
 14 15  2  0
 14 25  1  0
 15 16  1  0
 15 26  1  0
 16 27  1  0
 16 28  1  0
M  RAD  1   2   2
M  END
>  <reaction>  (12) 
rmg_rxn_16800

>  <mol_properties>  (12) 
{"1": {"label": "*3", "atom_type": "Cd"}, "2": {"label": "*4", "atom_type": "N3d"}, "10": {"label": "*0", "atom_type": "Cs"}, "15": {"label": "*1", "atom_type": "Cs"}, "26": {"label": "*2", "atom_type": "H0"}}

>  <type>  (12) 
unop_8

>  <geom_source>  (12) 
Heuristics

$$$$

     RDKit          3D

 28 27  0  0  0  0  0  0  0  0999 V2000
   -3.1875   -1.1404   -0.6225 C   0  0  0  0  0  0  0  0  0  0  0  0
   -2.2632    0.0342   -0.6235 C   0  0  0  0  0  3  0  0  0  0  0  0
   -2.6991    1.2316   -0.8220 N   0  0  0  0  0  0  0  0  0  0  0  0
   -3.1831   -1.6418    0.3484 H   0  0  0  0  0  0  0  0  0  0  0  0
   -4.1984   -0.7953   -0.8538 H   0  0  0  0  0  0  0  0  0  0  0  0
   -2.8706   -1.8406   -1.3996 H   0  0  0  0  0  0  0  0  0  0  0  0
   -1.9198    1.8990   -0.7862 H   0  0  0  0  0  0  0  0  0  0  0  0
    0.9368   -1.7371   -3.1123 C   0  0  0  0  0  0  0  0  0  0  0  0
    0.9368   -1.7371   -1.6182 C   0  0  0  0  0  0  0  0  0  0  0  0
    0.9368   -0.6220   -0.8698 C   0  0  0  0  0  0  0  0  0  0  0  0
    0.9382   -0.6082    0.6443 C   0  0  0  0  0  0  0  0  0  0  0  0
    2.2184    0.0265    1.1379 C   0  0  0  0  0  0  0  0  0  0  0  0
    2.2543    1.2357    1.7168 C   0  0  0  0  0  0  0  0  0  0  0  0
    1.0576    2.0190    1.8934 C   0  0  0  0  0  0  0  0  0  0  0  0
   -0.1554    1.4985    1.6621 C   0  0  0  0  0  0  0  0  0  0  0  0
   -0.3445    0.0804    1.1897 C   0  0  0  0  0  0  0  0  0  0  0  0
    0.9357   -0.7241   -3.5267 H   0  0  0  0  0  0  0  0  0  0  0  0
    1.8245   -2.2574   -3.4846 H   0  0  0  0  0  0  0  0  0  0  0  0
    0.0501   -2.2592   -3.4845 H   0  0  0  0  0  0  0  0  0  0  0  0
    0.9395   -2.7129   -1.1376 H   0  0  0  0  0  0  0  0  0  0  0  0
    0.9361    0.3528   -1.3559 H   0  0  0  0  0  0  0  0  0  0  0  0
    0.9245   -1.6448    1.0082 H   0  0  0  0  0  0  0  0  0  0  0  0
    3.1401   -0.5314    0.9980 H   0  0  0  0  0  0  0  0  0  0  0  0
    3.1949    1.6642    2.0499 H   0  0  0  0  0  0  0  0  0  0  0  0
    1.1675    3.0414    2.2431 H   0  0  0  0  0  0  0  0  0  0  0  0
   -1.0448    2.0984    1.8295 H   0  0  0  0  0  0  0  0  0  0  0  0
   -1.3015    0.0574    0.2853 H   0  0  0  0  0  0  0  0  0  0  0  0
   -0.7205   -0.4990    2.0435 H   0  0  0  0  0  0  0  0  0  0  0  0
  1  2  1  0
  1  4  1  0
  1  5  1  0
  1  6  1  0
  2  3  2  3
  3  7  1  0
  8  9  1  0
  8 17  1  0
  8 18  1  0
  8 19  1  0
  9 10  2  3
  9 20  1  0
 10 11  1  0
 10 21  1  0
 11 12  1  0
 11 16  1  0
 11 22  1  0
 12 13  2  0
 12 23  1  0
 13 14  1  0
 13 24  1  0
 14 15  2  0
 14 25  1  0
 15 16  1  0
 15 26  1  0
 16 27  1  0
 16 28  1  0
M  RAD  1   2   2
M  END
>  <reaction>  (13) 
rmg_rxn_16800

>  <mol_properties>  (13) 
{"1": {"label": "*3", "atom_type": "Cd"}, "2": {"label": "*4", "atom_type": "N3d"}, "10": {"label": "*0", "atom_type": "Cs"}, "15": {"label": "*1", "atom_type": "Cs"}, "26": {"label": "*2", "atom_type": "H0"}}

>  <type>  (13) 
unop_9

>  <geom_source>  (13) 
Heuristics

$$$$

     RDKit          3D

 28 27  0  0  0  0  0  0  0  0999 V2000
    1.2638    2.4081   -0.9049 C   0  0  0  0  0  0  0  0  0  0  0  0
    0.1617    2.0838    0.0270 C   0  0  0  0  0  0  0  0  0  0  0  0
   -0.8183    2.8229    0.2305 N   0  0  0  0  0  0  0  0  0  0  0  0
    2.2104    2.3689   -0.3679 H   0  0  0  0  0  0  0  0  0  0  0  0
    1.3025    1.6491   -1.6855 H   0  0  0  0  0  0  0  0  0  0  0  0
    1.1306    3.3917   -1.3515 H   0  0  0  0  0  0  0  0  0  0  0  0
   -1.5289    2.5096    0.8839 H   0  0  0  0  0  0  0  0  0  0  0  0
   -3.9499   -0.4851   -0.1928 C   0  0  0  0  0  0  0  0  0  0  0  0
   -2.6371   -1.0621    0.2207 C   0  0  0  0  0  0  0  0  0  0  0  0
   -1.4629   -0.6539   -0.2293 C   0  0  0  0  0  0  0  0  0  0  0  0
   -0.1362   -1.2187    0.2014 C   0  0  0  0  0  0  0  0  0  0  0  0
    0.7347   -1.5259   -0.9848 C   0  0  0  0  0  3  0  0  0  0  0  0
    2.0712   -1.3910   -0.9408 C   0  0  0  0  0  0  0  0  0  0  0  0
    2.7294   -0.8884    0.2183 C   0  0  0  0  0  0  0  0  0  0  0  0
    1.9872   -0.3900    1.2555 C   0  0  0  0  0  0  0  0  0  0  0  0
    0.5786   -0.2843    1.1662 C   0  0  0  0  0  0  0  0  0  0  0  0
   -4.5709   -1.2531   -0.6535 H   0  0  0  0  0  0  0  0  0  0  0  0
   -4.4873   -0.1073    0.6771 H   0  0  0  0  0  0  0  0  0  0  0  0
   -3.8122    0.3277   -0.9019 H   0  0  0  0  0  0  0  0  0  0  0  0
   -2.6899   -1.8695    0.9413 H   0  0  0  0  0  0  0  0  0  0  0  0
   -1.4102    0.1502   -0.9527 H   0  0  0  0  0  0  0  0  0  0  0  0
   -0.3407   -2.1666    0.7346 H   0  0  0  0  0  0  0  0  0  0  0  0
    0.2365   -1.9227   -1.8571 H   0  0  0  0  0  0  0  0  0  0  0  0
    2.6737   -1.6673   -1.7951 H   0  0  0  0  0  0  0  0  0  0  0  0
    3.8068   -0.8999    0.2632 H   0  0  0  0  0  0  0  0  0  0  0  0
    2.4808    0.0495    2.1121 H   0  0  0  0  0  0  0  0  0  0  0  0
    0.3556    0.9469    0.6005 H   0  0  0  0  0  0  0  0  0  0  0  0
    0.0396   -0.1292    2.0978 H   0  0  0  0  0  0  0  0  0  0  0  0
  1  2  1  0
  1  4  1  0
  1  5  1  0
  1  6  1  0
  2  3  2  3
  2 27  1  0
  3  7  1  0
  8  9  1  0
  8 17  1  0
  8 18  1  0
  8 19  1  0
  9 10  2  3
  9 20  1  0
 10 11  1  0
 10 21  1  0
 11 12  1  0
 11 16  1  0
 11 22  1  0
 12 13  1  0
 12 23  1  0
 13 14  2  0
 13 24  1  0
 14 15  1  0
 14 25  1  0
 15 16  2  0
 15 26  1  0
 16 28  1  0
M  RAD  1  12   2
M  END
>  <reaction>  (14) 
rmg_rxn_16800

>  <mol_properties>  (14) 
{"1": {"label": "*3", "atom_type": "Cd"}, "2": {"label": "*4", "atom_type": "N3d"}, "10": {"label": "*0", "atom_type": "Cs"}, "15": {"label": "*1", "atom_type": "Cs"}, "26": {"label": "*2", "atom_type": "H0"}}

>  <type>  (14) 
unop_10

>  <geom_source>  (14) 
Heuristics

$$$$

     RDKit          3D

 28 27  0  0  0  0  0  0  0  0999 V2000
   -1.9095    0.0247   -1.9799 C   0  0  0  0  0  0  0  0  0  0  0  0
   -2.3164    0.0059   -0.5418 C   0  0  0  0  0  3  0  0  0  0  0  0
   -3.5180    0.3030   -0.1799 N   0  0  0  0  0  0  0  0  0  0  0  0
   -1.5929   -0.9674   -2.3106 H   0  0  0  0  0  0  0  0  0  0  0  0
   -2.7569    0.3606   -2.5829 H   0  0  0  0  0  0  0  0  0  0  0  0
   -1.0877    0.7342   -2.1057 H   0  0  0  0  0  0  0  0  0  0  0  0
   -3.6042    0.2340    0.8408 H   0  0  0  0  0  0  0  0  0  0  0  0
    0.8836   -1.7654   -3.0306 C   0  0  0  0  0  0  0  0  0  0  0  0
    0.8836   -1.7654   -1.5365 C   0  0  0  0  0  0  0  0  0  0  0  0
    0.8836   -0.6504   -0.7881 C   0  0  0  0  0  0  0  0  0  0  0  0
    0.8850   -0.6365    0.7260 C   0  0  0  0  0  0  0  0  0  0  0  0
    2.1652   -0.0018    1.2196 C   0  0  0  0  0  0  0  0  0  0  0  0
    2.2011    1.2074    1.7985 C   0  0  0  0  0  0  0  0  0  0  0  0
    1.0045    1.9907    1.9751 C   0  0  0  0  0  0  0  0  0  0  0  0
   -0.2086    1.4702    1.7438 C   0  0  0  0  0  0  0  0  0  0  0  0
   -0.3977    0.0521    1.2714 C   0  0  0  0  0  0  0  0  0  0  0  0
    0.8826   -0.7524   -3.4450 H   0  0  0  0  0  0  0  0  0  0  0  0
    1.7713   -2.2857   -3.4029 H   0  0  0  0  0  0  0  0  0  0  0  0
   -0.0031   -2.2875   -3.4028 H   0  0  0  0  0  0  0  0  0  0  0  0
    0.8863   -2.7412   -1.0559 H   0  0  0  0  0  0  0  0  0  0  0  0
    0.8830    0.3245   -1.2742 H   0  0  0  0  0  0  0  0  0  0  0  0
    0.8713   -1.6731    1.0899 H   0  0  0  0  0  0  0  0  0  0  0  0
    3.0869   -0.5598    1.0797 H   0  0  0  0  0  0  0  0  0  0  0  0
    3.1417    1.6359    2.1316 H   0  0  0  0  0  0  0  0  0  0  0  0
    1.1143    3.0131    2.3248 H   0  0  0  0  0  0  0  0  0  0  0  0
   -1.0980    2.0701    1.9112 H   0  0  0  0  0  0  0  0  0  0  0  0
   -1.3546    0.0291    0.3671 H   0  0  0  0  0  0  0  0  0  0  0  0
   -0.7737   -0.5273    2.1252 H   0  0  0  0  0  0  0  0  0  0  0  0
  1  2  1  0
  1  4  1  0
  1  5  1  0
  1  6  1  0
  2  3  2  3
  3  7  1  0
  8  9  1  0
  8 17  1  0
  8 18  1  0
  8 19  1  0
  9 10  2  3
  9 20  1  0
 10 11  1  0
 10 21  1  0
 11 12  1  0
 11 16  1  0
 11 22  1  0
 12 13  2  0
 12 23  1  0
 13 14  1  0
 13 24  1  0
 14 15  2  0
 14 25  1  0
 15 16  1  0
 15 26  1  0
 16 27  1  0
 16 28  1  0
M  RAD  1   2   2
M  END
>  <reaction>  (15) 
rmg_rxn_16800

>  <mol_properties>  (15) 
{"1": {"label": "*3", "atom_type": "Cd"}, "2": {"label": "*4", "atom_type": "N3d"}, "10": {"label": "*0", "atom_type": "Cs"}, "15": {"label": "*1", "atom_type": "Cs"}, "26": {"label": "*2", "atom_type": "H0"}}

>  <type>  (15) 
unop_11

>  <geom_source>  (15) 
Heuristics

$$$$

     RDKit          3D

 28 27  0  0  0  0  0  0  0  0999 V2000
   -2.7366   -1.2700   -1.0847 C   0  0  0  0  0  0  0  0  0  0  0  0
   -2.2721    0.0666   -0.6032 C   0  0  0  0  0  3  0  0  0  0  0  0
   -3.0762    1.0726   -0.5353 N   0  0  0  0  0  0  0  0  0  0  0  0
   -2.6289   -2.0268   -0.3040 H   0  0  0  0  0  0  0  0  0  0  0  0
   -3.7857   -1.1941   -1.3814 H   0  0  0  0  0  0  0  0  0  0  0  0
   -2.1457   -1.5561   -1.9586 H   0  0  0  0  0  0  0  0  0  0  0  0
   -2.5768    1.8978   -0.1838 H   0  0  0  0  0  0  0  0  0  0  0  0
    0.9279   -1.7047   -3.0920 C   0  0  0  0  0  0  0  0  0  0  0  0
    0.9279   -1.7047   -1.5980 C   0  0  0  0  0  0  0  0  0  0  0  0
    0.9279   -0.5896   -0.8495 C   0  0  0  0  0  0  0  0  0  0  0  0
    0.9293   -0.5758    0.6646 C   0  0  0  0  0  0  0  0  0  0  0  0
    2.2095    0.0589    1.1582 C   0  0  0  0  0  0  0  0  0  0  0  0
    2.2454    1.2681    1.7371 C   0  0  0  0  0  0  0  0  0  0  0  0
    1.0488    2.0515    1.9136 C   0  0  0  0  0  0  0  0  0  0  0  0
   -0.1643    1.5309    1.6824 C   0  0  0  0  0  0  0  0  0  0  0  0
   -0.3534    0.1129    1.2099 C   0  0  0  0  0  0  0  0  0  0  0  0
    0.9268   -0.6916   -3.5064 H   0  0  0  0  0  0  0  0  0  0  0  0
    1.8156   -2.2249   -3.4643 H   0  0  0  0  0  0  0  0  0  0  0  0
    0.0412   -2.2267   -3.4643 H   0  0  0  0  0  0  0  0  0  0  0  0
    0.9306   -2.6804   -1.1173 H   0  0  0  0  0  0  0  0  0  0  0  0
    0.9272    0.3853   -1.3356 H   0  0  0  0  0  0  0  0  0  0  0  0
    0.9156   -1.6124    1.0284 H   0  0  0  0  0  0  0  0  0  0  0  0
    3.1312   -0.4990    1.0182 H   0  0  0  0  0  0  0  0  0  0  0  0
    3.1860    1.6967    2.0702 H   0  0  0  0  0  0  0  0  0  0  0  0
    1.1586    3.0738    2.2634 H   0  0  0  0  0  0  0  0  0  0  0  0
   -1.0537    2.1308    1.8498 H   0  0  0  0  0  0  0  0  0  0  0  0
   -1.3104    0.0898    0.3056 H   0  0  0  0  0  0  0  0  0  0  0  0
   -0.7294   -0.4666    2.0637 H   0  0  0  0  0  0  0  0  0  0  0  0
  1  2  1  0
  1  4  1  0
  1  5  1  0
  1  6  1  0
  2  3  2  3
  3  7  1  0
  8  9  1  0
  8 17  1  0
  8 18  1  0
  8 19  1  0
  9 10  2  3
  9 20  1  0
 10 11  1  0
 10 21  1  0
 11 12  1  0
 11 16  1  0
 11 22  1  0
 12 13  2  0
 12 23  1  0
 13 14  1  0
 13 24  1  0
 14 15  2  0
 14 25  1  0
 15 16  1  0
 15 26  1  0
 16 27  1  0
 16 28  1  0
M  RAD  1   2   2
M  END
>  <reaction>  (16) 
rmg_rxn_16800

>  <mol_properties>  (16) 
{"1": {"label": "*3", "atom_type": "Cd"}, "2": {"label": "*4", "atom_type": "N3d"}, "10": {"label": "*0", "atom_type": "Cs"}, "15": {"label": "*1", "atom_type": "Cs"}, "26": {"label": "*2", "atom_type": "H0"}}

>  <type>  (16) 
unop_12

>  <geom_source>  (16) 
Heuristics

$$$$

     RDKit          3D

 28 27  0  0  0  0  0  0  0  0999 V2000
   -3.2561    1.1602   -0.5987 C   0  0  0  0  0  0  0  0  0  0  0  0
   -2.2658    0.0407   -0.6111 C   0  0  0  0  0  3  0  0  0  0  0  0
   -2.6059   -1.1529   -0.9615 N   0  0  0  0  0  0  0  0  0  0  0  0
   -2.9653    1.9485   -1.2972 H   0  0  0  0  0  0  0  0  0  0  0  0
   -4.2377    0.7672   -0.8752 H   0  0  0  0  0  0  0  0  0  0  0  0
   -3.3154    1.5689    0.4133 H   0  0  0  0  0  0  0  0  0  0  0  0
   -1.7944   -1.7793   -0.9063 H   0  0  0  0  0  0  0  0  0  0  0  0
    0.9342   -1.7306   -3.0998 C   0  0  0  0  0  0  0  0  0  0  0  0
    0.9342   -1.7306   -1.6058 C   0  0  0  0  0  0  0  0  0  0  0  0
    0.9342   -0.6155   -0.8573 C   0  0  0  0  0  0  0  0  0  0  0  0
    0.9356   -0.6017    0.6567 C   0  0  0  0  0  0  0  0  0  0  0  0
    2.2158    0.0330    1.1503 C   0  0  0  0  0  0  0  0  0  0  0  0
    2.2517    1.2422    1.7292 C   0  0  0  0  0  0  0  0  0  0  0  0
    1.0551    2.0255    1.9058 C   0  0  0  0  0  0  0  0  0  0  0  0
   -0.1580    1.5050    1.6745 C   0  0  0  0  0  0  0  0  0  0  0  0
   -0.3471    0.0869    1.2021 C   0  0  0  0  0  0  0  0  0  0  0  0
    0.9331   -0.7175   -3.5143 H   0  0  0  0  0  0  0  0  0  0  0  0
    1.8219   -2.2509   -3.4721 H   0  0  0  0  0  0  0  0  0  0  0  0
    0.0475   -2.2527   -3.4721 H   0  0  0  0  0  0  0  0  0  0  0  0
    0.9369   -2.7064   -1.1252 H   0  0  0  0  0  0  0  0  0  0  0  0
    0.9336    0.3593   -1.3435 H   0  0  0  0  0  0  0  0  0  0  0  0
    0.9219   -1.6383    1.0206 H   0  0  0  0  0  0  0  0  0  0  0  0
    3.1375   -0.5249    1.0104 H   0  0  0  0  0  0  0  0  0  0  0  0
    3.1923    1.6707    2.0624 H   0  0  0  0  0  0  0  0  0  0  0  0
    1.1649    3.0479    2.2555 H   0  0  0  0  0  0  0  0  0  0  0  0
   -1.0474    2.1049    1.8419 H   0  0  0  0  0  0  0  0  0  0  0  0
   -1.3041    0.0639    0.2978 H   0  0  0  0  0  0  0  0  0  0  0  0
   -0.7231   -0.4925    2.0559 H   0  0  0  0  0  0  0  0  0  0  0  0
  1  2  1  0
  1  4  1  0
  1  5  1  0
  1  6  1  0
  2  3  2  3
  3  7  1  0
  8  9  1  0
  8 17  1  0
  8 18  1  0
  8 19  1  0
  9 10  2  3
  9 20  1  0
 10 11  1  0
 10 21  1  0
 11 12  1  0
 11 16  1  0
 11 22  1  0
 12 13  2  0
 12 23  1  0
 13 14  1  0
 13 24  1  0
 14 15  2  0
 14 25  1  0
 15 16  1  0
 15 26  1  0
 16 27  1  0
 16 28  1  0
M  RAD  1   2   2
M  END
>  <reaction>  (17) 
rmg_rxn_16800

>  <mol_properties>  (17) 
{"1": {"label": "*3", "atom_type": "Cd"}, "2": {"label": "*4", "atom_type": "N3d"}, "10": {"label": "*0", "atom_type": "Cs"}, "15": {"label": "*1", "atom_type": "Cs"}, "26": {"label": "*2", "atom_type": "H0"}}

>  <type>  (17) 
unop_13

>  <geom_source>  (17) 
Heuristics

$$$$

     RDKit          3D

 28 27  0  0  0  0  0  0  0  0999 V2000
   -2.0069   -0.6002   -1.8547 C   0  0  0  0  0  0  0  0  0  0  0  0
   -2.3111    0.0474   -0.5423 C   0  0  0  0  0  3  0  0  0  0  0  0
   -3.4671    0.5655   -0.3010 N   0  0  0  0  0  0  0  0  0  0  0  0
   -1.7660   -1.6578   -1.7233 H   0  0  0  0  0  0  0  0  0  0  0  0
   -2.8767   -0.4995   -2.5088 H   0  0  0  0  0  0  0  0  0  0  0  0
   -1.1608   -0.0846   -2.3159 H   0  0  0  0  0  0  0  0  0  0  0  0
   -3.4839    0.9597    0.6468 H   0  0  0  0  0  0  0  0  0  0  0  0
    0.8889   -1.7240   -3.0311 C   0  0  0  0  0  0  0  0  0  0  0  0
    0.8889   -1.7240   -1.5370 C   0  0  0  0  0  0  0  0  0  0  0  0
    0.8889   -0.6089   -0.7886 C   0  0  0  0  0  0  0  0  0  0  0  0
    0.8903   -0.5950    0.7255 C   0  0  0  0  0  0  0  0  0  0  0  0
    2.1705    0.0397    1.2191 C   0  0  0  0  0  0  0  0  0  0  0  0
    2.2064    1.2488    1.7980 C   0  0  0  0  0  0  0  0  0  0  0  0
    1.0098    2.0322    1.9746 C   0  0  0  0  0  0  0  0  0  0  0  0
   -0.2032    1.5116    1.7433 C   0  0  0  0  0  0  0  0  0  0  0  0
   -0.3923    0.0936    1.2709 C   0  0  0  0  0  0  0  0  0  0  0  0
    0.8879   -0.7109   -3.4455 H   0  0  0  0  0  0  0  0  0  0  0  0
    1.7767   -2.2442   -3.4034 H   0  0  0  0  0  0  0  0  0  0  0  0
    0.0022   -2.2460   -3.4033 H   0  0  0  0  0  0  0  0  0  0  0  0
    0.8916   -2.6997   -1.0564 H   0  0  0  0  0  0  0  0  0  0  0  0
    0.8883    0.3660   -1.2747 H   0  0  0  0  0  0  0  0  0  0  0  0
    0.8767   -1.6316    1.0894 H   0  0  0  0  0  0  0  0  0  0  0  0
    3.0922   -0.5183    1.0792 H   0  0  0  0  0  0  0  0  0  0  0  0
    3.1471    1.6774    2.1311 H   0  0  0  0  0  0  0  0  0  0  0  0
    1.1196    3.0546    2.3243 H   0  0  0  0  0  0  0  0  0  0  0  0
   -1.0927    2.1116    1.9107 H   0  0  0  0  0  0  0  0  0  0  0  0
   -1.3493    0.0705    0.3665 H   0  0  0  0  0  0  0  0  0  0  0  0
   -0.7683   -0.4858    2.1247 H   0  0  0  0  0  0  0  0  0  0  0  0
  1  2  1  0
  1  4  1  0
  1  5  1  0
  1  6  1  0
  2  3  2  3
  3  7  1  0
  8  9  1  0
  8 17  1  0
  8 18  1  0
  8 19  1  0
  9 10  2  3
  9 20  1  0
 10 11  1  0
 10 21  1  0
 11 12  1  0
 11 16  1  0
 11 22  1  0
 12 13  2  0
 12 23  1  0
 13 14  1  0
 13 24  1  0
 14 15  2  0
 14 25  1  0
 15 16  1  0
 15 26  1  0
 16 27  1  0
 16 28  1  0
M  RAD  1   2   2
M  END
>  <reaction>  (18) 
rmg_rxn_16800

>  <mol_properties>  (18) 
{"1": {"label": "*3", "atom_type": "Cd"}, "2": {"label": "*4", "atom_type": "N3d"}, "10": {"label": "*0", "atom_type": "Cs"}, "15": {"label": "*1", "atom_type": "Cs"}, "26": {"label": "*2", "atom_type": "H0"}}

>  <type>  (18) 
unop_14

>  <geom_source>  (18) 
Heuristics

$$$$

     RDKit          3D

 28 27  0  0  0  0  0  0  0  0999 V2000
    3.4572   -0.4425   -1.4902 N   0  0  0  0  0  0  0  0  0  0  0  0
   -0.9076   -0.2864    0.5305 C   0  0  0  0  0  0  0  0  0  0  0  0
   -2.7874    2.8821   -0.6655 C   0  0  0  0  0  0  0  0  0  0  0  0
    3.5091    1.2266    0.2531 C   0  0  0  0  0  0  0  0  0  0  0  0
   -1.3279    0.9296   -0.2584 C   0  0  0  0  0  0  0  0  0  0  0  0
    0.5114   -0.7348    0.1242 C   0  0  0  0  0  3  0  0  0  0  0  0
   -1.8949   -1.4192    0.3455 C   0  0  0  0  0  0  0  0  0  0  0  0
   -2.3770    1.6746    0.1188 C   0  0  0  0  0  0  0  0  0  0  0  0
    0.8422   -2.0819    0.7087 C   0  0  0  0  0  0  0  0  0  0  0  0
   -1.5186   -2.6863    0.5545 C   0  0  0  0  0  0  0  0  0  0  0  0
   -0.1097   -3.0103    0.8501 C   0  0  0  0  0  0  0  0  0  0  0  0
    2.8074    0.2313   -0.6134 C   0  0  0  0  0  0  0  0  0  0  0  0
   -0.8766   -0.0211    1.6104 H   0  0  0  0  0  0  0  0  0  0  0  0
    4.5939    1.2673    0.0159 H   0  0  0  0  0  0  0  0  0  0  0  0
    3.0655    2.2308    0.0916 H   0  0  0  0  0  0  0  0  0  0  0  0
    3.3818    0.9405    1.3176 H   0  0  0  0  0  0  0  0  0  0  0  0
   -1.9565    3.6185   -0.6899 H   0  0  0  0  0  0  0  0  0  0  0  0
   -3.6722    3.3547   -0.1901 H   0  0  0  0  0  0  0  0  0  0  0  0
   -3.0515    2.5878   -1.7032 H   0  0  0  0  0  0  0  0  0  0  0  0
    0.5973   -0.8046   -0.9826 H   0  0  0  0  0  0  0  0  0  0  0  0
   -2.9374   -1.2055    0.1414 H   0  0  0  0  0  0  0  0  0  0  0  0
   -0.7660    1.2152   -1.1449 H   0  0  0  0  0  0  0  0  0  0  0  0
   -2.9454    1.4064    1.0054 H   0  0  0  0  0  0  0  0  0  0  0  0
    1.6208    0.0643   -0.4829 H   0  0  0  0  0  0  0  0  0  0  0  0
    0.1503   -4.0042    1.1910 H   0  0  0  0  0  0  0  0  0  0  0  0
    1.8718   -2.3228    0.9386 H   0  0  0  0  0  0  0  0  0  0  0  0
   -2.2510   -3.4820    0.5099 H   0  0  0  0  0  0  0  0  0  0  0  0
    2.9710   -1.1278   -2.0859 H   0  0  0  0  0  0  0  0  0  0  0  0
  1 12  2  3
  1 28  1  0
  2  5  1  0
  2  6  1  0
  2  7  1  0
  2 13  1  0
  3  8  1  0
  3 17  1  0
  3 18  1  0
  3 19  1  0
  4 12  1  0
  4 14  1  0
  4 15  1  0
  4 16  1  0
  5  8  2  3
  5 22  1  0
  6  9  1  0
  6 20  1  0
  7 10  2  0
  7 21  1  0
  8 23  1  0
  9 11  2  0
  9 26  1  0
 10 11  1  0
 10 27  1  0
 11 25  1  0
 12 24  1  0
M  RAD  1   6   2
M  END
>  <reaction>  (19) 
rmg_rxn_16800

>  <mol_properties>  (19) 
{"1": {"label": "*3", "atom_type": "Cd"}, "2": {"label": "*4", "atom_type": "N3d"}, "10": {"label": "*0", "atom_type": "Cs"}, "15": {"label": "*1", "atom_type": "Cs"}, "26": {"label": "*2", "atom_type": "H0"}}

>  <type>  (19) 
unop_15

>  <geom_source>  (19) 
AutoTST

$$$$

     RDKit          3D

 28 27  0  0  0  0  0  0  0  0999 V2000
   -2.3069   -1.0706   -1.5313 C   0  0  0  0  0  0  0  0  0  0  0  0
   -2.2920    0.0732   -0.5691 C   0  0  0  0  0  3  0  0  0  0  0  0
   -3.3334    0.8120   -0.3881 N   0  0  0  0  0  0  0  0  0  0  0  0
   -2.1261   -2.0176   -1.0172 H   0  0  0  0  0  0  0  0  0  0  0  0
   -3.2795   -1.1017   -2.0288 H   0  0  0  0  0  0  0  0  0  0  0  0
   -1.5331   -0.9080   -2.2860 H   0  0  0  0  0  0  0  0  0  0  0  0
   -3.1302    1.5406    0.3061 H   0  0  0  0  0  0  0  0  0  0  0  0
    0.9080   -1.6982   -3.0579 C   0  0  0  0  0  0  0  0  0  0  0  0
    0.9080   -1.6982   -1.5639 C   0  0  0  0  0  0  0  0  0  0  0  0
    0.9080   -0.5831   -0.8154 C   0  0  0  0  0  0  0  0  0  0  0  0
    0.9094   -0.5692    0.6987 C   0  0  0  0  0  0  0  0  0  0  0  0
    2.1896    0.0654    1.1923 C   0  0  0  0  0  0  0  0  0  0  0  0
    2.2255    1.2746    1.7712 C   0  0  0  0  0  0  0  0  0  0  0  0
    1.0288    2.0580    1.9477 C   0  0  0  0  0  0  0  0  0  0  0  0
   -0.1842    1.5374    1.7165 C   0  0  0  0  0  0  0  0  0  0  0  0
   -0.3733    0.1194    1.2441 C   0  0  0  0  0  0  0  0  0  0  0  0
    0.9069   -0.6851   -3.4723 H   0  0  0  0  0  0  0  0  0  0  0  0
    1.7957   -2.2184   -3.4302 H   0  0  0  0  0  0  0  0  0  0  0  0
    0.0213   -2.2202   -3.4302 H   0  0  0  0  0  0  0  0  0  0  0  0
    0.9107   -2.6739   -1.0832 H   0  0  0  0  0  0  0  0  0  0  0  0
    0.9073    0.3918   -1.3015 H   0  0  0  0  0  0  0  0  0  0  0  0
    0.8957   -1.6058    1.0625 H   0  0  0  0  0  0  0  0  0  0  0  0
    3.1113   -0.4925    1.0523 H   0  0  0  0  0  0  0  0  0  0  0  0
    3.1661    1.7032    2.1043 H   0  0  0  0  0  0  0  0  0  0  0  0
    1.1386    3.0804    2.2975 H   0  0  0  0  0  0  0  0  0  0  0  0
   -1.0736    2.1374    1.8839 H   0  0  0  0  0  0  0  0  0  0  0  0
   -1.3303    0.0963    0.3397 H   0  0  0  0  0  0  0  0  0  0  0  0
   -0.7493   -0.4600    2.0978 H   0  0  0  0  0  0  0  0  0  0  0  0
  1  2  1  0
  1  4  1  0
  1  5  1  0
  1  6  1  0
  2  3  2  3
  3  7  1  0
  8  9  1  0
  8 17  1  0
  8 18  1  0
  8 19  1  0
  9 10  2  3
  9 20  1  0
 10 11  1  0
 10 21  1  0
 11 12  1  0
 11 16  1  0
 11 22  1  0
 12 13  2  0
 12 23  1  0
 13 14  1  0
 13 24  1  0
 14 15  2  0
 14 25  1  0
 15 16  1  0
 15 26  1  0
 16 27  1  0
 16 28  1  0
M  RAD  1   2   2
M  END
>  <reaction>  (20) 
rmg_rxn_16800

>  <mol_properties>  (20) 
{"1": {"label": "*3", "atom_type": "Cd"}, "2": {"label": "*4", "atom_type": "N3d"}, "10": {"label": "*0", "atom_type": "Cs"}, "15": {"label": "*1", "atom_type": "Cs"}, "26": {"label": "*2", "atom_type": "H0"}}

>  <type>  (20) 
unop_16

>  <geom_source>  (20) 
gaussian_log

$$$$
