
     RDKit          3D

  9  9  0  0  0  0  0  0  0  0999 V2000
    1.4292   -0.6130    0.5042 O   0  0  0  0  0  0  0  0  0  0  0  0
    0.4683   -0.3219   -0.5063 N   0  0  0  0  0  0  0  0  0  0  0  0
   -0.2267    0.9155   -0.1805 C   0  0  0  0  0  0  0  0  0  0  0  0
   -0.8728   -0.3965    0.0559 C   0  0  0  0  0  0  0  0  0  0  0  0
    2.1248   -1.0453    0.0059 H   0  0  0  0  0  0  0  0  0  0  0  0
   -0.4980    1.5264   -1.0321 H   0  0  0  0  0  0  0  0  0  0  0  0
    0.1405    1.4456    0.6886 H   0  0  0  0  0  0  0  0  0  0  0  0
   -0.9339   -0.7359    1.0817 H   0  0  0  0  0  0  0  0  0  0  0  0
   -1.6314   -0.7750   -0.6174 H   0  0  0  0  0  0  0  0  0  0  0  0
  1  2  1  0
  1  5  1  0
  2  3  1  0
  2  4  1  0
  3  4  1  0
  3  6  1  0
  3  7  1  0
  4  8  1  0
  4  9  1  0
M  END
>  <reaction>  (1) 
rmg_rxn_15661

>  <mol_properties>  (1) 
{"0": {"label": "donator", "atom_type": "O2s"}, "4": {"label": "d_hydrogen", "atom_type": "H0"}}

>  <type>  (1) 
r1h

$$$$

     RDKit          3D

  8  7  0  0  0  0  0  0  0  0999 V2000
    1.7077   -0.1964   -0.0607 C   0  0  0  0  0  3  0  0  0  0  0  0
    0.4209   -0.4565    0.2808 O   0  0  0  0  0  0  0  0  0  0  0  0
   -0.4607    0.4385   -0.2968 N   0  0  0  0  0  0  0  0  0  0  0  0
   -1.6584    0.1416   -0.0244 C   0  0  0  0  0  0  0  0  0  0  0  0
    2.4163   -0.7685    0.5170 H   0  0  0  0  0  0  0  0  0  0  0  0
    1.9214    0.7645   -0.5045 H   0  0  0  0  0  0  0  0  0  0  0  0
   -2.4185    0.7953   -0.4307 H   0  0  0  0  0  0  0  0  0  0  0  0
   -1.9286   -0.7185    0.5831 H   0  0  0  0  0  0  0  0  0  0  0  0
  1  2  1  0
  1  5  1  0
  1  6  1  0
  2  3  1  0
  3  4  2  3
  4  7  1  0
  4  8  1  0
M  RAD  1   1   2
M  END
>  <reaction>  (2) 
rmg_rxn_15661

>  <mol_properties>  (2) 
{"0": {"label": "acceptor", "atom_type": "Cs"}}

>  <type>  (2) 
r2

$$$$

     RDKit          3D

  9  8  0  0  0  0  0  0  0  0999 V2000
   -1.5470   -0.0755   -0.1976 C   0  0  0  0  0  0  0  0  0  0  0  0
   -0.2885    0.4507    0.1749 O   0  0  0  0  0  0  0  0  0  0  0  0
   -0.1502    1.7216   -0.3294 N   0  0  0  0  0  0  0  0  0  0  0  0
    0.9626    2.2353   -0.0219 C   0  0  0  0  0  0  0  0  0  0  0  0
   -1.6392   -0.1356   -1.2844 H   0  0  0  0  0  0  0  0  0  0  0  0
   -2.3597    0.5337    0.2044 H   0  0  0  0  0  0  0  0  0  0  0  0
   -1.5879   -1.0750    0.2318 H   0  0  0  0  0  0  0  0  0  0  0  0
    1.1497    3.2381   -0.3820 H   0  0  0  0  0  0  0  0  0  0  0  0
    1.7060    1.7101    0.5739 H   0  0  0  0  0  0  0  0  0  0  0  0
  1  2  1  0
  1  5  1  0
  1  6  1  0
  1  7  1  0
  2  3  1  0
  3  4  2  3
  4  8  1  0
  4  9  1  0
M  END
>  <reaction>  (3) 
rmg_rxn_15661

>  <mol_properties>  (3) 
{"0": {"label": "acceptor", "atom_type": "Cs"}, "8": {"label": "a_hydrogen", "atom_type": "H0"}}

>  <type>  (3) 
r2h

$$$$

     RDKit          3D

 17 16  0  0  0  0  0  0  0  0999 V2000
    0.7951    1.6051    0.1742 C   0  0  0  0  0  3  0  0  0  0  0  0
    1.6021    0.6595   -0.4165 O   0  0  0  0  0  0  0  0  0  0  0  0
    1.8718   -0.3833    0.4495 N   0  0  0  0  0  0  0  0  0  0  0  0
    2.5222   -1.3023   -0.1238 C   0  0  0  0  0  0  0  0  0  0  0  0
    0.9398    1.6916    1.2492 H   0  0  0  0  0  0  0  0  0  0  0  0
    0.8571    2.5295   -0.3933 H   0  0  0  0  0  0  0  0  0  0  0  0
    2.7853   -2.1568    0.4851 H   0  0  0  0  0  0  0  0  0  0  0  0
    2.8134   -1.2513   -1.1701 H   0  0  0  0  0  0  0  0  0  0  0  0
   -1.7193    1.2296   -0.0692 O   0  0  0  0  0  0  0  0  0  0  0  0
   -2.1775   -0.0485   -0.0743 N   0  0  0  0  0  0  0  0  0  0  0  0
   -1.4833   -1.0361    0.7271 C   0  0  0  0  0  0  0  0  0  0  0  0
   -1.3979   -1.0571   -0.7653 C   0  0  0  0  0  0  0  0  0  0  0  0
   -0.5747    1.2992    0.0374 H   0  0  0  0  0  0  0  0  0  0  0  0
   -2.1139   -1.7433    1.2516 H   0  0  0  0  0  0  0  0  0  0  0  0
   -0.6029   -0.7015    1.2640 H   0  0  0  0  0  0  0  0  0  0  0  0
   -0.4666   -0.7297   -1.2120 H   0  0  0  0  0  0  0  0  0  0  0  0
   -1.9679   -1.7767   -1.3398 H   0  0  0  0  0  0  0  0  0  0  0  0
  1  2  1  0
  1  5  1  0
  1  6  1  0
  2  3  1  0
  3  4  2  3
  4  7  1  0
  4  8  1  0
  9 10  1  0
  9 13  1  0
 10 11  1  0
 10 12  1  0
 11 12  1  0
 11 14  1  0
 11 15  1  0
 12 16  1  0
 12 17  1  0
M  RAD  1   1   2
M  END
>  <reaction>  (4) 
rmg_rxn_15661

>  <mol_properties>  (4) 
{"0": {"label": "*3", "atom_type": "Cs"}, "1": {"label": "*4", "atom_type": "O2s"}, "8": {"label": "*1", "atom_type": "O2s"}, "9": {"label": "*0", "atom_type": "N3s"}, "12": {"label": "*2", "atom_type": "H0"}}

>  <type>  (4) 
ts

$$$$

     RDKit          3D

 17 16  0  0  0  0  0  0  0  0999 V2000
    1.0246    1.4346   -0.0425 C   0  0  0  0  0  3  0  0  0  0  0  0
    1.5372    0.4534   -0.8916 O   0  0  0  0  0  0  0  0  0  0  0  0
    2.1042   -0.6692   -0.3967 N   0  0  0  0  0  0  0  0  0  0  0  0
    2.0986   -0.9427    0.8345 C   0  0  0  0  0  0  0  0  0  0  0  0
    1.7113    1.7333    0.7495 H   0  0  0  0  0  0  0  0  0  0  0  0
    0.7337    2.2669   -0.6748 H   0  0  0  0  0  0  0  0  0  0  0  0
    2.5795   -1.8663    1.1061 H   0  0  0  0  0  0  0  0  0  0  0  0
    1.6421   -0.3554    1.6264 H   0  0  0  0  0  0  0  0  0  0  0  0
   -1.0006    0.5854    1.1642 O   0  0  0  0  0  0  0  0  0  0  0  0
   -1.9064   -0.1121    0.5174 N   0  0  0  0  0  0  0  0  0  0  0  0
   -1.6300   -1.1338   -0.4513 C   0  0  0  0  0  0  0  0  0  0  0  0
   -2.3258    0.1321   -0.8308 C   0  0  0  0  0  0  0  0  0  0  0  0
   -0.0242    1.0021    0.5528 H   0  0  0  0  0  0  0  0  0  0  0  0
   -2.2061   -2.0412   -0.3393 H   0  0  0  0  0  0  0  0  0  0  0  0
   -0.6077   -1.2857   -0.7768 H   0  0  0  0  0  0  0  0  0  0  0  0
   -1.7806    0.8660   -1.4132 H   0  0  0  0  0  0  0  0  0  0  0  0
   -3.3938    0.1235   -0.9945 H   0  0  0  0  0  0  0  0  0  0  0  0
  1  2  1  0
  1  5  1  0
  1  6  1  0
  2  3  1  0
  3  4  2  3
  4  7  1  0
  4  8  1  0
  9 10  1  0
  9 13  1  0
 10 11  1  0
 10 12  1  0
 11 12  1  0
 11 14  1  0
 11 15  1  0
 12 16  1  0
 12 17  1  0
M  RAD  1   1   2
M  END
>  <reaction>  (5) 
rmg_rxn_15661

>  <mol_properties>  (5) 
{"0": {"label": "*3", "atom_type": "Cs"}, "1": {"label": "*4", "atom_type": "O2s"}, "8": {"label": "*1", "atom_type": "O2s"}, "9": {"label": "*0", "atom_type": "N3s"}, "12": {"label": "*2", "atom_type": "H0"}}

>  <type>  (5) 
unop_1

>  <geom_source>  (5) 
crest_best.xyz

$$$$

     RDKit          3D

 17 16  0  0  0  0  0  0  0  0999 V2000
    0.1932   -1.2335    0.2862 C   0  0  0  0  0  3  0  0  0  0  0  0
    1.3092   -0.7899    1.0327 O   0  0  0  0  0  0  0  0  0  0  0  0
    1.5973   -1.7010    2.0205 N   0  0  0  0  0  0  0  0  0  0  0  0
    2.5907   -1.3472    2.7168 C   0  0  0  0  0  0  0  0  0  0  0  0
    0.4005   -2.1924   -0.1941 H   0  0  0  0  0  0  0  0  0  0  0  0
   -0.6900   -1.3272    0.9221 H   0  0  0  0  0  0  0  0  0  0  0  0
    2.8827   -2.0127    3.5181 H   0  0  0  0  0  0  0  0  0  0  0  0
    3.1358   -0.4238    2.5336 H   0  0  0  0  0  0  0  0  0  0  0  0
   -1.1037    0.7865   -0.2369 O   0  0  0  0  0  0  0  0  0  0  0  0
   -1.1037    0.7865   -1.6613 N   0  0  0  0  0  0  0  0  0  0  0  0
   -1.1037    2.1575   -2.1519 C   0  0  0  0  0  0  0  0  0  0  0  0
   -2.3503    1.3572   -2.1519 C   0  0  0  0  0  0  0  0  0  0  0  0
   -0.4964   -0.1594    0.0080 H   0  0  0  0  0  0  0  0  0  0  0  0
   -0.5428    2.3178   -3.0638 H   0  0  0  0  0  0  0  0  0  0  0  0
   -1.0142    2.9268   -1.3960 H   0  0  0  0  0  0  0  0  0  0  0  0
   -3.0870    1.5960   -1.3960 H   0  0  0  0  0  0  0  0  0  0  0  0
   -2.7295    0.9138   -3.0638 H   0  0  0  0  0  0  0  0  0  0  0  0
  1  2  1  0
  1  5  1  0
  1  6  1  0
  2  3  1  0
  3  4  2  3
  4  7  1  0
  4  8  1  0
  9 10  1  0
  9 13  1  0
 10 11  1  0
 10 12  1  0
 11 12  1  0
 11 14  1  0
 11 15  1  0
 12 16  1  0
 12 17  1  0
M  RAD  1   1   2
M  END
>  <reaction>  (6) 
rmg_rxn_15661

>  <mol_properties>  (6) 
{"0": {"label": "*3", "atom_type": "Cs"}, "1": {"label": "*4", "atom_type": "O2s"}, "8": {"label": "*1", "atom_type": "O2s"}, "9": {"label": "*0", "atom_type": "N3s"}, "12": {"label": "*2", "atom_type": "H0"}}

>  <type>  (6) 
unop_2

>  <geom_source>  (6) 
Heuristics

$$$$

     RDKit          3D

 17 16  0  0  0  0  0  0  0  0999 V2000
    0.9817    1.4063    0.1496 C   0  0  0  0  0  3  0  0  0  0  0  0
    1.5298    0.5774   -0.8295 O   0  0  0  0  0  0  0  0  0  0  0  0
    2.1768   -0.5617   -0.4965 N   0  0  0  0  0  0  0  0  0  0  0  0
    2.2076   -0.9993    0.6856 C   0  0  0  0  0  0  0  0  0  0  0  0
    1.6661    1.6334    0.9669 H   0  0  0  0  0  0  0  0  0  0  0  0
    0.6361    2.2987   -0.3617 H   0  0  0  0  0  0  0  0  0  0  0  0
    2.7543   -1.9155    0.8266 H   0  0  0  0  0  0  0  0  0  0  0  0
    1.7238   -0.5573    1.5521 H   0  0  0  0  0  0  0  0  0  0  0  0
   -0.9676    0.2823    1.2516 O   0  0  0  0  0  0  0  0  0  0  0  0
   -1.9129   -0.2514    0.5112 N   0  0  0  0  0  0  0  0  0  0  0  0
   -1.6923   -0.9905   -0.6988 C   0  0  0  0  0  0  0  0  0  0  0  0
   -2.4187    0.3142   -0.7046 C   0  0  0  0  0  0  0  0  0  0  0  0
   -0.0303    0.8387    0.6946 H   0  0  0  0  0  0  0  0  0  0  0  0
   -2.2543   -1.9094   -0.7859 H   0  0  0  0  0  0  0  0  0  0  0  0
   -0.6909   -1.0317   -1.1105 H   0  0  0  0  0  0  0  0  0  0  0  0
   -1.9172    1.1832   -1.1146 H   0  0  0  0  0  0  0  0  0  0  0  0
   -3.4950    0.3233   -0.8004 H   0  0  0  0  0  0  0  0  0  0  0  0
  1  2  1  0
  1  5  1  0
  1  6  1  0
  2  3  1  0
  3  4  2  3
  4  7  1  0
  4  8  1  0
  9 10  1  0
  9 13  1  0
 10 11  1  0
 10 12  1  0
 11 12  1  0
 11 14  1  0
 11 15  1  0
 12 16  1  0
 12 17  1  0
M  RAD  1   1   2
M  END
>  <reaction>  (7) 
rmg_rxn_15661

>  <mol_properties>  (7) 
{"0": {"label": "*3", "atom_type": "Cs"}, "1": {"label": "*4", "atom_type": "O2s"}, "8": {"label": "*1", "atom_type": "O2s"}, "9": {"label": "*0", "atom_type": "N3s"}, "12": {"label": "*2", "atom_type": "H0"}}

>  <type>  (7) 
unop_3

>  <geom_source>  (7) 
Heuristics

$$$$

     RDKit          3D

 17 16  0  0  0  0  0  0  0  0999 V2000
    0.1068   -0.9638    1.3114 C   0  0  0  0  0  3  0  0  0  0  0  0
    1.0175   -1.1225    0.2412 O   0  0  0  0  0  0  0  0  0  0  0  0
    2.0419   -1.9546    0.6245 N   0  0  0  0  0  0  0  0  0  0  0  0
    2.8841   -2.1275   -0.3016 C   0  0  0  0  0  0  0  0  0  0  0  0
   -0.3310   -1.9229    1.5973 H   0  0  0  0  0  0  0  0  0  0  0  0
    0.5966   -0.5134    2.1776 H   0  0  0  0  0  0  0  0  0  0  0  0
    3.7240   -2.7719   -0.0791 H   0  0  0  0  0  0  0  0  0  0  0  0
    2.7849   -1.6598   -1.2789 H   0  0  0  0  0  0  0  0  0  0  0  0
   -1.1900    1.0561    0.7883 O   0  0  0  0  0  0  0  0  0  0  0  0
   -1.1900    1.0561   -0.6362 N   0  0  0  0  0  0  0  0  0  0  0  0
   -1.1900    2.4272   -1.1267 C   0  0  0  0  0  0  0  0  0  0  0  0
   -2.4367    1.6268   -1.1267 C   0  0  0  0  0  0  0  0  0  0  0  0
   -0.5828    0.1103    1.0332 H   0  0  0  0  0  0  0  0  0  0  0  0
   -0.6291    2.5874   -2.0386 H   0  0  0  0  0  0  0  0  0  0  0  0
   -1.1005    3.1965   -0.3708 H   0  0  0  0  0  0  0  0  0  0  0  0
   -3.1734    1.8656   -0.3708 H   0  0  0  0  0  0  0  0  0  0  0  0
   -2.8158    1.1835   -2.0386 H   0  0  0  0  0  0  0  0  0  0  0  0
  1  2  1  0
  1  5  1  0
  1  6  1  0
  2  3  1  0
  3  4  2  3
  4  7  1  0
  4  8  1  0
  9 10  1  0
  9 13  1  0
 10 11  1  0
 10 12  1  0
 11 12  1  0
 11 14  1  0
 11 15  1  0
 12 16  1  0
 12 17  1  0
M  RAD  1   1   2
M  END
>  <reaction>  (8) 
rmg_rxn_15661

>  <mol_properties>  (8) 
{"0": {"label": "*3", "atom_type": "Cs"}, "1": {"label": "*4", "atom_type": "O2s"}, "8": {"label": "*1", "atom_type": "O2s"}, "9": {"label": "*0", "atom_type": "N3s"}, "12": {"label": "*2", "atom_type": "H0"}}

>  <type>  (8) 
unop_4

>  <geom_source>  (8) 
Heuristics

$$$$

     RDKit          3D

 17 16  0  0  0  0  0  0  0  0999 V2000
    0.9850   -1.4107    0.1255 C   0  0  0  0  0  3  0  0  0  0  0  0
    1.5300   -0.5627   -0.8389 O   0  0  0  0  0  0  0  0  0  0  0  0
    2.1708    0.5739   -0.4860 N   0  0  0  0  0  0  0  0  0  0  0  0
    2.1991    0.9911    0.7036 C   0  0  0  0  0  0  0  0  0  0  0  0
    0.6435   -2.2957   -0.4011 H   0  0  0  0  0  0  0  0  0  0  0  0
    1.6701   -1.6487    0.9392 H   0  0  0  0  0  0  0  0  0  0  0  0
    2.7406    1.9078    0.8605 H   0  0  0  0  0  0  0  0  0  0  0  0
    1.7178    0.5315    1.5622 H   0  0  0  0  0  0  0  0  0  0  0  0
   -0.9694   -0.3139    1.2456 O   0  0  0  0  0  0  0  0  0  0  0  0
   -1.9118    0.2381    0.5148 N   0  0  0  0  0  0  0  0  0  0  0  0
   -2.4129   -0.2969   -0.7167 C   0  0  0  0  0  0  0  0  0  0  0  0
   -1.6867    1.0073   -0.6755 C   0  0  0  0  0  0  0  0  0  0  0  0
   -0.0297   -0.8568    0.6795 H   0  0  0  0  0  0  0  0  0  0  0  0
   -3.4888   -0.3036   -0.8167 H   0  0  0  0  0  0  0  0  0  0  0  0
   -1.9097   -1.1553   -1.1466 H   0  0  0  0  0  0  0  0  0  0  0  0
   -0.6838    1.0588   -1.0824 H   0  0  0  0  0  0  0  0  0  0  0  0
   -2.2484    1.9281   -0.7416 H   0  0  0  0  0  0  0  0  0  0  0  0
  1  2  1  0
  1  5  1  0
  1  6  1  0
  2  3  1  0
  3  4  2  3
  4  7  1  0
  4  8  1  0
  9 10  1  0
  9 13  1  0
 10 11  1  0
 10 12  1  0
 11 12  1  0
 11 14  1  0
 11 15  1  0
 12 16  1  0
 12 17  1  0
M  RAD  1   1   2
M  END
>  <reaction>  (9) 
rmg_rxn_15661

>  <mol_properties>  (9) 
{"0": {"label": "*3", "atom_type": "Cs"}, "1": {"label": "*4", "atom_type": "O2s"}, "8": {"label": "*1", "atom_type": "O2s"}, "9": {"label": "*0", "atom_type": "N3s"}, "12": {"label": "*2", "atom_type": "H0"}}

>  <type>  (9) 
unop_5

>  <geom_source>  (9) 
Heuristics

$$$$

     RDKit          3D

 17 16  0  0  0  0  0  0  0  0999 V2000
    0.4313   -1.0787    0.1363 C   0  0  0  0  0  3  0  0  0  0  0  0
    1.0708   -0.8151    1.3696 O   0  0  0  0  0  0  0  0  0  0  0  0
    1.3228   -1.9977    2.0228 N   0  0  0  0  0  0  0  0  0  0  0  0
    1.8955   -1.8131    3.1339 C   0  0  0  0  0  0  0  0  0  0  0  0
    1.0661   -1.6887   -0.5104 H   0  0  0  0  0  0  0  0  0  0  0  0
   -0.5243   -1.5845    0.2919 H   0  0  0  0  0  0  0  0  0  0  0  0
    2.1291   -2.6973    3.7118 H   0  0  0  0  0  0  0  0  0  0  0  0
    2.1479   -0.8224    3.5058 H   0  0  0  0  0  0  0  0  0  0  0  0
   -0.8655    0.9412   -0.3867 O   0  0  0  0  0  0  0  0  0  0  0  0
   -0.8655    0.9412   -1.8112 N   0  0  0  0  0  0  0  0  0  0  0  0
   -0.8655    2.3123   -2.3018 C   0  0  0  0  0  0  0  0  0  0  0  0
   -2.1122    1.5119   -2.3018 C   0  0  0  0  0  0  0  0  0  0  0  0
   -0.2583   -0.0046   -0.1418 H   0  0  0  0  0  0  0  0  0  0  0  0
   -0.3046    2.4725   -3.2137 H   0  0  0  0  0  0  0  0  0  0  0  0
   -0.7761    3.0816   -1.5459 H   0  0  0  0  0  0  0  0  0  0  0  0
   -2.8489    1.7507   -1.5459 H   0  0  0  0  0  0  0  0  0  0  0  0
   -2.4913    1.0686   -3.2137 H   0  0  0  0  0  0  0  0  0  0  0  0
  1  2  1  0
  1  5  1  0
  1  6  1  0
  2  3  1  0
  3  4  2  3
  4  7  1  0
  4  8  1  0
  9 10  1  0
  9 13  1  0
 10 11  1  0
 10 12  1  0
 11 12  1  0
 11 14  1  0
 11 15  1  0
 12 16  1  0
 12 17  1  0
M  RAD  1   1   2
M  END
>  <reaction>  (10) 
rmg_rxn_15661

>  <mol_properties>  (10) 
{"0": {"label": "*3", "atom_type": "Cs"}, "1": {"label": "*4", "atom_type": "O2s"}, "8": {"label": "*1", "atom_type": "O2s"}, "9": {"label": "*0", "atom_type": "N3s"}, "12": {"label": "*2", "atom_type": "H0"}}

>  <type>  (10) 
unop_6

>  <geom_source>  (10) 
Heuristics

$$$$

     RDKit          3D

 17 16  0  0  0  0  0  0  0  0999 V2000
    1.1012   -0.4480    0.9832 C   0  0  0  0  0  3  0  0  0  0  0  0
    0.3900   -1.5220    0.3999 O   0  0  0  0  0  0  0  0  0  0  0  0
    0.5598   -2.6559    1.1577 N   0  0  0  0  0  0  0  0  0  0  0  0
   -0.0591   -3.6460    0.6748 C   0  0  0  0  0  0  0  0  0  0  0  0
    0.7324   -0.2358    1.9893 H   0  0  0  0  0  0  0  0  0  0  0  0
    2.1711   -0.6647    1.0249 H   0  0  0  0  0  0  0  0  0  0  0  0
    0.0241   -4.5800    1.2144 H   0  0  0  0  0  0  0  0  0  0  0  0
   -0.6501   -3.5804   -0.2362 H   0  0  0  0  0  0  0  0  0  0  0  0
   -0.1956    1.5719    0.4602 O   0  0  0  0  0  0  0  0  0  0  0  0
   -0.1956    1.5719   -0.9643 N   0  0  0  0  0  0  0  0  0  0  0  0
   -0.1956    2.9430   -1.4549 C   0  0  0  0  0  0  0  0  0  0  0  0
   -1.4422    2.1426   -1.4549 C   0  0  0  0  0  0  0  0  0  0  0  0
    0.4117    0.6261    0.7051 H   0  0  0  0  0  0  0  0  0  0  0  0
    0.3653    3.1032   -2.3668 H   0  0  0  0  0  0  0  0  0  0  0  0
   -0.1061    3.7123   -0.6989 H   0  0  0  0  0  0  0  0  0  0  0  0
   -2.1790    2.3815   -0.6989 H   0  0  0  0  0  0  0  0  0  0  0  0
   -1.8214    1.6993   -2.3668 H   0  0  0  0  0  0  0  0  0  0  0  0
  1  2  1  0
  1  5  1  0
  1  6  1  0
  2  3  1  0
  3  4  2  3
  4  7  1  0
  4  8  1  0
  9 10  1  0
  9 13  1  0
 10 11  1  0
 10 12  1  0
 11 12  1  0
 11 14  1  0
 11 15  1  0
 12 16  1  0
 12 17  1  0
M  RAD  1   1   2
M  END
>  <reaction>  (11) 
rmg_rxn_15661

>  <mol_properties>  (11) 
{"0": {"label": "*3", "atom_type": "Cs"}, "1": {"label": "*4", "atom_type": "O2s"}, "8": {"label": "*1", "atom_type": "O2s"}, "9": {"label": "*0", "atom_type": "N3s"}, "12": {"label": "*2", "atom_type": "H0"}}

>  <type>  (11) 
unop_7

>  <geom_source>  (11) 
Heuristics

$$$$

     RDKit          3D

 17 16  0  0  0  0  0  0  0  0999 V2000
    0.9809    1.4053   -0.1600 C   0  0  0  0  0  3  0  0  0  0  0  0
    1.5293    0.5840    0.8254 O   0  0  0  0  0  0  0  0  0  0  0  0
    2.1767   -0.5573    0.5009 N   0  0  0  0  0  0  0  0  0  0  0  0
    2.2075   -1.0038   -0.6779 C   0  0  0  0  0  0  0  0  0  0  0  0
    0.6343    2.3011    0.3446 H   0  0  0  0  0  0  0  0  0  0  0  0
    1.6658    1.6271   -0.9785 H   0  0  0  0  0  0  0  0  0  0  0  0
    2.7542   -1.9210   -0.8120 H   0  0  0  0  0  0  0  0  0  0  0  0
    1.7233   -0.5685   -1.5476 H   0  0  0  0  0  0  0  0  0  0  0  0
   -0.9655    0.2687   -1.2541 O   0  0  0  0  0  0  0  0  0  0  0  0
   -1.9113   -0.2582   -0.5094 N   0  0  0  0  0  0  0  0  0  0  0  0
   -2.4215    0.3213    0.6981 C   0  0  0  0  0  0  0  0  0  0  0  0
   -1.6918   -0.9816    0.7103 C   0  0  0  0  0  0  0  0  0  0  0  0
   -0.0298    0.8323   -0.7015 H   0  0  0  0  0  0  0  0  0  0  0  0
   -3.4980    0.3287    0.7911 H   0  0  0  0  0  0  0  0  0  0  0  0
   -1.9232    1.1967    1.0984 H   0  0  0  0  0  0  0  0  0  0  0  0
   -0.6912   -1.0149    1.1247 H   0  0  0  0  0  0  0  0  0  0  0  0
   -2.2516   -1.9007    0.8076 H   0  0  0  0  0  0  0  0  0  0  0  0
  1  2  1  0
  1  5  1  0
  1  6  1  0
  2  3  1  0
  3  4  2  3
  4  7  1  0
  4  8  1  0
  9 10  1  0
  9 13  1  0
 10 11  1  0
 10 12  1  0
 11 12  1  0
 11 14  1  0
 11 15  1  0
 12 16  1  0
 12 17  1  0
M  RAD  1   1   2
M  END
>  <reaction>  (12) 
rmg_rxn_15661

>  <mol_properties>  (12) 
{"0": {"label": "*3", "atom_type": "Cs"}, "1": {"label": "*4", "atom_type": "O2s"}, "8": {"label": "*1", "atom_type": "O2s"}, "9": {"label": "*0", "atom_type": "N3s"}, "12": {"label": "*2", "atom_type": "H0"}}

>  <type>  (12) 
unop_8

>  <geom_source>  (12) 
Heuristics

$$$$

     RDKit          3D

 17 16  0  0  0  0  0  0  0  0999 V2000
    0.6009   -0.9359    0.1181 C   0  0  0  0  0  3  0  0  0  0  0  0
    0.6467   -1.0073    1.5296 O   0  0  0  0  0  0  0  0  0  0  0  0
    1.3595   -2.1175    1.9143 N   0  0  0  0  0  0  0  0  0  0  0  0
    1.4283   -2.2247    3.1715 C   0  0  0  0  0  0  0  0  0  0  0  0
    1.6057   -0.8496   -0.3015 H   0  0  0  0  0  0  0  0  0  0  0  0
    0.1042   -1.8136   -0.3015 H   0  0  0  0  0  0  0  0  0  0  0  0
    1.9745   -3.0755    3.5564 H   0  0  0  0  0  0  0  0  0  0  0  0
    0.9676   -1.5071    3.8471 H   0  0  0  0  0  0  0  0  0  0  0  0
   -0.6960    1.0841   -0.4049 O   0  0  0  0  0  0  0  0  0  0  0  0
   -0.6960    1.0841   -1.8294 N   0  0  0  0  0  0  0  0  0  0  0  0
   -0.6960    2.4551   -2.3200 C   0  0  0  0  0  0  0  0  0  0  0  0
   -1.9426    1.6547   -2.3200 C   0  0  0  0  0  0  0  0  0  0  0  0
   -0.0887    0.1382   -0.1600 H   0  0  0  0  0  0  0  0  0  0  0  0
   -0.1351    2.6153   -3.2319 H   0  0  0  0  0  0  0  0  0  0  0  0
   -0.6065    3.2244   -1.5640 H   0  0  0  0  0  0  0  0  0  0  0  0
   -2.6794    1.8936   -1.5640 H   0  0  0  0  0  0  0  0  0  0  0  0
   -2.3218    1.2114   -3.2319 H   0  0  0  0  0  0  0  0  0  0  0  0
  1  2  1  0
  1  5  1  0
  1  6  1  0
  2  3  1  0
  3  4  2  3
  4  7  1  0
  4  8  1  0
  9 10  1  0
  9 13  1  0
 10 11  1  0
 10 12  1  0
 11 12  1  0
 11 14  1  0
 11 15  1  0
 12 16  1  0
 12 17  1  0
M  RAD  1   1   2
M  END
>  <reaction>  (13) 
rmg_rxn_15661

>  <mol_properties>  (13) 
{"0": {"label": "*3", "atom_type": "Cs"}, "1": {"label": "*4", "atom_type": "O2s"}, "8": {"label": "*1", "atom_type": "O2s"}, "9": {"label": "*0", "atom_type": "N3s"}, "12": {"label": "*2", "atom_type": "H0"}}

>  <type>  (13) 
unop_9

>  <geom_source>  (13) 
Heuristics

$$$$

     RDKit          3D

 17 16  0  0  0  0  0  0  0  0999 V2000
    0.7779    1.7273    0.1344 C   0  0  0  0  0  3  0  0  0  0  0  0
    1.5621    0.7266   -0.4355 O   0  0  0  0  0  0  0  0  0  0  0  0
    1.7358   -0.3529    0.4048 N   0  0  0  0  0  0  0  0  0  0  0  0
    2.4748   -1.2799   -0.0272 C   0  0  0  0  0  0  0  0  0  0  0  0
    0.9939    1.8877    1.1885 H   0  0  0  0  0  0  0  0  0  0  0  0
    0.8988    2.6170   -0.4730 H   0  0  0  0  0  0  0  0  0  0  0  0
    2.6073   -2.1290    0.6193 H   0  0  0  0  0  0  0  0  0  0  0  0
    2.9743   -1.2643   -0.9910 H   0  0  0  0  0  0  0  0  0  0  0  0
   -1.6655    1.1793    0.0812 O   0  0  0  0  0  0  0  0  0  0  0  0
   -2.0585   -0.0729    0.0319 N   0  0  0  0  0  0  0  0  0  0  0  0
   -1.3931   -1.1693    0.6704 C   0  0  0  0  0  0  0  0  0  0  0  0
   -1.4915   -1.0811   -0.8176 C   0  0  0  0  0  0  0  0  0  0  0  0
   -0.4680    1.4213    0.0803 H   0  0  0  0  0  0  0  0  0  0  0  0
   -2.0344   -1.8557    1.2046 H   0  0  0  0  0  0  0  0  0  0  0  0
   -0.4257   -0.9879    1.1287 H   0  0  0  0  0  0  0  0  0  0  0  0
   -0.5991   -0.8398   -1.3829 H   0  0  0  0  0  0  0  0  0  0  0  0
   -2.2062   -1.6981   -1.3432 H   0  0  0  0  0  0  0  0  0  0  0  0
  1  2  1  0
  1  5  1  0
  1  6  1  0
  2  3  1  0
  3  4  2  3
  4  7  1  0
  4  8  1  0
  9 10  1  0
  9 13  1  0
 10 11  1  0
 10 12  1  0
 11 12  1  0
 11 14  1  0
 11 15  1  0
 12 16  1  0
 12 17  1  0
M  RAD  1   1   2
M  END
>  <reaction>  (14) 
rmg_rxn_15661

>  <mol_properties>  (14) 
{"0": {"label": "*3", "atom_type": "Cs"}, "1": {"label": "*4", "atom_type": "O2s"}, "8": {"label": "*1", "atom_type": "O2s"}, "9": {"label": "*0", "atom_type": "N3s"}, "12": {"label": "*2", "atom_type": "H0"}}

>  <type>  (14) 
unop_10

>  <geom_source>  (14) 
Heuristics

$$$$

     RDKit          3D

 17 16  0  0  0  0  0  0  0  0999 V2000
    1.1688   -0.5299    0.5974 C   0  0  0  0  0  3  0  0  0  0  0  0
    0.2258   -1.5804    0.6790 O   0  0  0  0  0  0  0  0  0  0  0  0
    0.5700   -2.4334    1.7002 N   0  0  0  0  0  0  0  0  0  0  0  0
   -0.2459   -3.3917    1.8129 C   0  0  0  0  0  0  0  0  0  0  0  0
    1.1898    0.0491    1.5234 H   0  0  0  0  0  0  0  0  0  0  0  0
    2.1681   -0.9174    0.3865 H   0  0  0  0  0  0  0  0  0  0  0  0
   -0.0449   -4.1100    2.5964 H   0  0  0  0  0  0  0  0  0  0  0  0
   -1.1114   -3.5041    1.1635 H   0  0  0  0  0  0  0  0  0  0  0  0
   -0.1280    1.4901    0.0744 O   0  0  0  0  0  0  0  0  0  0  0  0
   -0.1280    1.4901   -1.3501 N   0  0  0  0  0  0  0  0  0  0  0  0
   -0.1280    2.8611   -1.8407 C   0  0  0  0  0  0  0  0  0  0  0  0
   -1.3747    2.0608   -1.8407 C   0  0  0  0  0  0  0  0  0  0  0  0
    0.4792    0.5442    0.3193 H   0  0  0  0  0  0  0  0  0  0  0  0
    0.4329    3.0213   -2.7526 H   0  0  0  0  0  0  0  0  0  0  0  0
   -0.0385    3.6304   -1.0848 H   0  0  0  0  0  0  0  0  0  0  0  0
   -2.1114    2.2996   -1.0848 H   0  0  0  0  0  0  0  0  0  0  0  0
   -1.7538    1.6174   -2.7526 H   0  0  0  0  0  0  0  0  0  0  0  0
  1  2  1  0
  1  5  1  0
  1  6  1  0
  2  3  1  0
  3  4  2  3
  4  7  1  0
  4  8  1  0
  9 10  1  0
  9 13  1  0
 10 11  1  0
 10 12  1  0
 11 12  1  0
 11 14  1  0
 11 15  1  0
 12 16  1  0
 12 17  1  0
M  RAD  1   1   2
M  END
>  <reaction>  (15) 
rmg_rxn_15661

>  <mol_properties>  (15) 
{"0": {"label": "*3", "atom_type": "Cs"}, "1": {"label": "*4", "atom_type": "O2s"}, "8": {"label": "*1", "atom_type": "O2s"}, "9": {"label": "*0", "atom_type": "N3s"}, "12": {"label": "*2", "atom_type": "H0"}}

>  <type>  (15) 
unop_11

>  <geom_source>  (15) 
Heuristics

$$$$

     RDKit          3D

 17 16  0  0  0  0  0  0  0  0999 V2000
    0.9890    1.4154   -0.0968 C   0  0  0  0  0  3  0  0  0  0  0  0
    1.5298    0.5449    0.8496 O   0  0  0  0  0  0  0  0  0  0  0  0
    2.1624   -0.5888    0.4729 N   0  0  0  0  0  0  0  0  0  0  0  0
    2.1877   -0.9813   -0.7252 C   0  0  0  0  0  0  0  0  0  0  0  0
    0.6525    2.2913    0.4480 H   0  0  0  0  0  0  0  0  0  0  0  0
    1.6748    1.6665   -0.9060 H   0  0  0  0  0  0  0  0  0  0  0  0
    2.7223   -1.8985   -0.9011 H   0  0  0  0  0  0  0  0  0  0  0  0
    1.7101   -0.5002   -1.5741 H   0  0  0  0  0  0  0  0  0  0  0  0
   -0.9726    0.3532   -1.2376 O   0  0  0  0  0  0  0  0  0  0  0  0
   -1.9110   -0.2202   -0.5183 N   0  0  0  0  0  0  0  0  0  0  0  0
   -2.4018    0.2753    0.7338 C   0  0  0  0  0  0  0  0  0  0  0  0
   -1.6796   -1.0288    0.6445 C   0  0  0  0  0  0  0  0  0  0  0  0
   -0.0291    0.8786   -0.6612 H   0  0  0  0  0  0  0  0  0  0  0  0
   -3.4769    0.2815    0.8418 H   0  0  0  0  0  0  0  0  0  0  0  0
   -1.8929    1.1177    1.1879 H   0  0  0  0  0  0  0  0  0  0  0  0
   -0.6742   -1.0966    1.0425 H   0  0  0  0  0  0  0  0  0  0  0  0
   -2.2437   -1.9497    0.6840 H   0  0  0  0  0  0  0  0  0  0  0  0
  1  2  1  0
  1  5  1  0
  1  6  1  0
  2  3  1  0
  3  4  2  3
  4  7  1  0
  4  8  1  0
  9 10  1  0
  9 13  1  0
 10 11  1  0
 10 12  1  0
 11 12  1  0
 11 14  1  0
 11 15  1  0
 12 16  1  0
 12 17  1  0
M  RAD  1   1   2
M  END
>  <reaction>  (16) 
rmg_rxn_15661

>  <mol_properties>  (16) 
{"0": {"label": "*3", "atom_type": "Cs"}, "1": {"label": "*4", "atom_type": "O2s"}, "8": {"label": "*1", "atom_type": "O2s"}, "9": {"label": "*0", "atom_type": "N3s"}, "12": {"label": "*2", "atom_type": "H0"}}

>  <type>  (16) 
unop_12

>  <geom_source>  (16) 
Heuristics

$$$$

     RDKit          3D

 17 16  0  0  0  0  0  0  0  0999 V2000
    1.0411   -0.6891    0.2862 C   0  0  0  0  0  3  0  0  0  0  0  0
    0.1733   -1.5192    1.0327 O   0  0  0  0  0  0  0  0  0  0  0  0
    0.8818   -2.1604    2.0205 N   0  0  0  0  0  0  0  0  0  0  0  0
    0.1466   -2.9163    2.7168 C   0  0  0  0  0  0  0  0  0  0  0  0
    1.4939    0.0750    0.9221 H   0  0  0  0  0  0  0  0  0  0  0  0
    1.8268   -1.2767   -0.1941 H   0  0  0  0  0  0  0  0  0  0  0  0
    0.6302   -3.4589    3.5181 H   0  0  0  0  0  0  0  0  0  0  0  0
   -0.9199   -3.0277    2.5336 H   0  0  0  0  0  0  0  0  0  0  0  0
   -0.2557    1.3309   -0.2369 O   0  0  0  0  0  0  0  0  0  0  0  0
   -0.2557    1.3309   -1.6614 N   0  0  0  0  0  0  0  0  0  0  0  0
   -0.2557    2.7019   -2.1519 C   0  0  0  0  0  0  0  0  0  0  0  0
   -1.5024    1.9016   -2.1519 C   0  0  0  0  0  0  0  0  0  0  0  0
    0.3515    0.3850    0.0080 H   0  0  0  0  0  0  0  0  0  0  0  0
    0.3052    2.8622   -3.0638 H   0  0  0  0  0  0  0  0  0  0  0  0
   -0.1662    3.4712   -1.3960 H   0  0  0  0  0  0  0  0  0  0  0  0
   -2.2391    2.1404   -1.3960 H   0  0  0  0  0  0  0  0  0  0  0  0
   -1.8815    1.4582   -3.0638 H   0  0  0  0  0  0  0  0  0  0  0  0
  1  2  1  0
  1  5  1  0
  1  6  1  0
  2  3  1  0
  3  4  2  3
  4  7  1  0
  4  8  1  0
  9 10  1  0
  9 13  1  0
 10 11  1  0
 10 12  1  0
 11 12  1  0
 11 14  1  0
 11 15  1  0
 12 16  1  0
 12 17  1  0
M  RAD  1   1   2
M  END
>  <reaction>  (17) 
rmg_rxn_15661

>  <mol_properties>  (17) 
{"0": {"label": "*3", "atom_type": "Cs"}, "1": {"label": "*4", "atom_type": "O2s"}, "8": {"label": "*1", "atom_type": "O2s"}, "9": {"label": "*0", "atom_type": "N3s"}, "12": {"label": "*2", "atom_type": "H0"}}

>  <type>  (17) 
unop_13

>  <geom_source>  (17) 
Heuristics

$$$$

     RDKit          3D

 17 16  0  0  0  0  0  0  0  0999 V2000
   -0.9768   -1.3968   -0.2023 C   0  0  0  0  0  3  0  0  0  0  0  0
   -1.5297   -0.6094    0.8080 O   0  0  0  0  0  0  0  0  0  0  0  0
   -2.1857    0.5365    0.5186 N   0  0  0  0  0  0  0  0  0  0  0  0
   -2.2203    1.0185   -0.6460 C   0  0  0  0  0  0  0  0  0  0  0  0
   -0.6244   -2.3055    0.2747 H   0  0  0  0  0  0  0  0  0  0  0  0
   -1.6607   -1.5978   -1.0268 H   0  0  0  0  0  0  0  0  0  0  0  0
   -2.7742    1.9350   -0.7520 H   0  0  0  0  0  0  0  0  0  0  0  0
   -1.7330    0.6137   -1.5285 H   0  0  0  0  0  0  0  0  0  0  0  0
    0.9618   -0.2149   -1.2616 O   0  0  0  0  0  0  0  0  0  0  0  0
    1.9127    0.2807   -0.5020 N   0  0  0  0  0  0  0  0  0  0  0  0
    2.4321   -0.3496    0.6759 C   0  0  0  0  0  0  0  0  0  0  0  0
    1.7014    0.9507    0.7492 C   0  0  0  0  0  0  0  0  0  0  0  0
    0.0300   -0.8010   -0.7264 H   0  0  0  0  0  0  0  0  0  0  0  0
    3.5093   -0.3598    0.7606 H   0  0  0  0  0  0  0  0  0  0  0  0
    1.9375   -1.2419    1.0418 H   0  0  0  0  0  0  0  0  0  0  0  0
    0.7037    0.9650    1.1717 H   0  0  0  0  0  0  0  0  0  0  0  0
    2.2611    1.8655    0.8818 H   0  0  0  0  0  0  0  0  0  0  0  0
  1  2  1  0
  1  5  1  0
  1  6  1  0
  2  3  1  0
  3  4  2  3
  4  7  1  0
  4  8  1  0
  9 10  1  0
  9 13  1  0
 10 11  1  0
 10 12  1  0
 11 12  1  0
 11 14  1  0
 11 15  1  0
 12 16  1  0
 12 17  1  0
M  RAD  1   1   2
M  END
>  <reaction>  (18) 
rmg_rxn_15661

>  <mol_properties>  (18) 
{"0": {"label": "*3", "atom_type": "Cs"}, "1": {"label": "*4", "atom_type": "O2s"}, "8": {"label": "*1", "atom_type": "O2s"}, "9": {"label": "*0", "atom_type": "N3s"}, "12": {"label": "*2", "atom_type": "H0"}}

>  <type>  (18) 
unop_14

>  <geom_source>  (18) 
Heuristics

$$$$

     RDKit          3D

 17 16  0  0  0  0  0  0  0  0999 V2000
   -0.0047   -1.2833    0.5974 C   0  0  0  0  0  3  0  0  0  0  0  0
    1.3430   -0.8632    0.6790 O   0  0  0  0  0  0  0  0  0  0  0  0
    1.9753   -1.5311    1.7002 N   0  0  0  0  0  0  0  0  0  0  0  0
    3.1863   -1.1882    1.8128 C   0  0  0  0  0  0  0  0  0  0  0  0
   -0.0683   -2.3532    0.3865 H   0  0  0  0  0  0  0  0  0  0  0  0
   -0.5399   -1.0614    1.5234 H   0  0  0  0  0  0  0  0  0  0  0  0
    3.7557   -1.6700    2.5964 H   0  0  0  0  0  0  0  0  0  0  0  0
    3.6487   -0.4479    1.1635 H   0  0  0  0  0  0  0  0  0  0  0  0
   -1.3016    0.7366    0.0744 O   0  0  0  0  0  0  0  0  0  0  0  0
   -1.3016    0.7366   -1.3501 N   0  0  0  0  0  0  0  0  0  0  0  0
   -1.3016    2.1077   -1.8407 C   0  0  0  0  0  0  0  0  0  0  0  0
   -2.5482    1.3073   -1.8407 C   0  0  0  0  0  0  0  0  0  0  0  0
   -0.6943   -0.2092    0.3193 H   0  0  0  0  0  0  0  0  0  0  0  0
   -0.7406    2.2679   -2.7526 H   0  0  0  0  0  0  0  0  0  0  0  0
   -1.2121    2.8770   -1.0847 H   0  0  0  0  0  0  0  0  0  0  0  0
   -3.2849    1.5462   -1.0847 H   0  0  0  0  0  0  0  0  0  0  0  0
   -2.9274    0.8640   -2.7526 H   0  0  0  0  0  0  0  0  0  0  0  0
  1  2  1  0
  1  5  1  0
  1  6  1  0
  2  3  1  0
  3  4  2  3
  4  7  1  0
  4  8  1  0
  9 10  1  0
  9 13  1  0
 10 11  1  0
 10 12  1  0
 11 12  1  0
 11 14  1  0
 11 15  1  0
 12 16  1  0
 12 17  1  0
M  RAD  1   1   2
M  END
>  <reaction>  (19) 
rmg_rxn_15661

>  <mol_properties>  (19) 
{"0": {"label": "*3", "atom_type": "Cs"}, "1": {"label": "*4", "atom_type": "O2s"}, "8": {"label": "*1", "atom_type": "O2s"}, "9": {"label": "*0", "atom_type": "N3s"}, "12": {"label": "*2", "atom_type": "H0"}}

>  <type>  (19) 
unop_15

>  <geom_source>  (19) 
Heuristics

$$$$

     RDKit          3D

 17 16  0  0  0  0  0  0  0  0999 V2000
    1.0246    1.4346   -0.0425 C   0  0  0  0  0  3  0  0  0  0  0  0
    1.5372    0.4534   -0.8916 O   0  0  0  0  0  0  0  0  0  0  0  0
    2.1042   -0.6692   -0.3967 N   0  0  0  0  0  0  0  0  0  0  0  0
    2.0986   -0.9427    0.8345 C   0  0  0  0  0  0  0  0  0  0  0  0
    1.7113    1.7333    0.7495 H   0  0  0  0  0  0  0  0  0  0  0  0
    0.7337    2.2669   -0.6748 H   0  0  0  0  0  0  0  0  0  0  0  0
    2.5795   -1.8663    1.1061 H   0  0  0  0  0  0  0  0  0  0  0  0
    1.6421   -0.3554    1.6264 H   0  0  0  0  0  0  0  0  0  0  0  0
   -1.0006    0.5854    1.1642 O   0  0  0  0  0  0  0  0  0  0  0  0
   -1.9064   -0.1121    0.5174 N   0  0  0  0  0  0  0  0  0  0  0  0
   -1.6300   -1.1338   -0.4513 C   0  0  0  0  0  0  0  0  0  0  0  0
   -2.3258    0.1321   -0.8308 C   0  0  0  0  0  0  0  0  0  0  0  0
   -0.0242    1.0021    0.5528 H   0  0  0  0  0  0  0  0  0  0  0  0
   -2.2061   -2.0412   -0.3393 H   0  0  0  0  0  0  0  0  0  0  0  0
   -0.6077   -1.2857   -0.7768 H   0  0  0  0  0  0  0  0  0  0  0  0
   -1.7806    0.8660   -1.4132 H   0  0  0  0  0  0  0  0  0  0  0  0
   -3.3938    0.1235   -0.9945 H   0  0  0  0  0  0  0  0  0  0  0  0
  1  2  1  0
  1  5  1  0
  1  6  1  0
  2  3  1  0
  3  4  2  3
  4  7  1  0
  4  8  1  0
  9 10  1  0
  9 13  1  0
 10 11  1  0
 10 12  1  0
 11 12  1  0
 11 14  1  0
 11 15  1  0
 12 16  1  0
 12 17  1  0
M  RAD  1   1   2
M  END
>  <reaction>  (20) 
rmg_rxn_15661

>  <mol_properties>  (20) 
{"0": {"label": "*3", "atom_type": "Cs"}, "1": {"label": "*4", "atom_type": "O2s"}, "8": {"label": "*1", "atom_type": "O2s"}, "9": {"label": "*0", "atom_type": "N3s"}, "12": {"label": "*2", "atom_type": "H0"}}

>  <type>  (20) 
unop_16

>  <geom_source>  (20) 
Heuristics

$$$$

     RDKit          3D

 17 16  0  0  0  0  0  0  0  0999 V2000
    0.8319   -0.4983    1.3114 C   0  0  0  0  0  3  0  0  0  0  0  0
    0.5972   -1.3924    0.2412 O   0  0  0  0  0  0  0  0  0  0  0  0
    0.9273   -2.6702    0.6245 N   0  0  0  0  0  0  0  0  0  0  0  0
    0.7340   -3.5079   -0.3016 C   0  0  0  0  0  0  0  0  0  0  0  0
    0.2185   -0.7562    2.1776 H   0  0  0  0  0  0  0  0  0  0  0  0
    1.8861   -0.4994    1.5973 H   0  0  0  0  0  0  0  0  0  0  0  0
    0.9703   -4.5398   -0.0791 H   0  0  0  0  0  0  0  0  0  0  0  0
    0.3501   -3.2231   -1.2789 H   0  0  0  0  0  0  0  0  0  0  0  0
   -0.4650    1.5217    0.7883 O   0  0  0  0  0  0  0  0  0  0  0  0
   -0.4650    1.5217   -0.6362 N   0  0  0  0  0  0  0  0  0  0  0  0
   -0.4650    2.8927   -1.1267 C   0  0  0  0  0  0  0  0  0  0  0  0
   -1.7116    2.0923   -1.1267 C   0  0  0  0  0  0  0  0  0  0  0  0
    0.1423    0.5758    1.0332 H   0  0  0  0  0  0  0  0  0  0  0  0
    0.0960    3.0529   -2.0387 H   0  0  0  0  0  0  0  0  0  0  0  0
   -0.3755    3.6620   -0.3708 H   0  0  0  0  0  0  0  0  0  0  0  0
   -2.4483    2.3312   -0.3708 H   0  0  0  0  0  0  0  0  0  0  0  0
   -2.0907    1.6490   -2.0387 H   0  0  0  0  0  0  0  0  0  0  0  0
  1  2  1  0
  1  5  1  0
  1  6  1  0
  2  3  1  0
  3  4  2  3
  4  7  1  0
  4  8  1  0
  9 10  1  0
  9 13  1  0
 10 11  1  0
 10 12  1  0
 11 12  1  0
 11 14  1  0
 11 15  1  0
 12 16  1  0
 12 17  1  0
M  RAD  1   1   2
M  END
>  <reaction>  (21) 
rmg_rxn_15661

>  <mol_properties>  (21) 
{"0": {"label": "*3", "atom_type": "Cs"}, "1": {"label": "*4", "atom_type": "O2s"}, "8": {"label": "*1", "atom_type": "O2s"}, "9": {"label": "*0", "atom_type": "N3s"}, "12": {"label": "*2", "atom_type": "H0"}}

>  <type>  (21) 
unop_17

>  <geom_source>  (21) 
Heuristics

$$$$

     RDKit          3D

 17 16  0  0  0  0  0  0  0  0999 V2000
   -0.0510   -1.1878    0.9832 C   0  0  0  0  0  3  0  0  0  0  0  0
    1.2216   -0.9881    0.3999 O   0  0  0  0  0  0  0  0  0  0  0  0
    2.1818   -1.6145    1.1577 N   0  0  0  0  0  0  0  0  0  0  0  0
    3.3398   -1.4639    0.6748 C   0  0  0  0  0  0  0  0  0  0  0  0
   -0.2993   -2.2507    1.0249 H   0  0  0  0  0  0  0  0  0  0  0  0
   -0.0905   -0.7641    1.9893 H   0  0  0  0  0  0  0  0  0  0  0  0
    4.1543   -1.9283    1.2144 H   0  0  0  0  0  0  0  0  0  0  0  0
    3.5261   -0.8991   -0.2362 H   0  0  0  0  0  0  0  0  0  0  0  0
   -1.3479    0.8322    0.4602 O   0  0  0  0  0  0  0  0  0  0  0  0
   -1.3479    0.8322   -0.9643 N   0  0  0  0  0  0  0  0  0  0  0  0
   -1.3479    2.2032   -1.4549 C   0  0  0  0  0  0  0  0  0  0  0  0
   -2.5945    1.4028   -1.4549 C   0  0  0  0  0  0  0  0  0  0  0  0
   -0.7406   -0.1137    0.7051 H   0  0  0  0  0  0  0  0  0  0  0  0
   -0.7869    2.3634   -2.3668 H   0  0  0  0  0  0  0  0  0  0  0  0
   -1.2584    2.9725   -0.6989 H   0  0  0  0  0  0  0  0  0  0  0  0
   -3.3312    1.6417   -0.6989 H   0  0  0  0  0  0  0  0  0  0  0  0
   -2.9737    0.9595   -2.3668 H   0  0  0  0  0  0  0  0  0  0  0  0
  1  2  1  0
  1  5  1  0
  1  6  1  0
  2  3  1  0
  3  4  2  3
  4  7  1  0
  4  8  1  0
  9 10  1  0
  9 13  1  0
 10 11  1  0
 10 12  1  0
 11 12  1  0
 11 14  1  0
 11 15  1  0
 12 16  1  0
 12 17  1  0
M  RAD  1   1   2
M  END
>  <reaction>  (22) 
rmg_rxn_15661

>  <mol_properties>  (22) 
{"0": {"label": "*3", "atom_type": "Cs"}, "1": {"label": "*4", "atom_type": "O2s"}, "8": {"label": "*1", "atom_type": "O2s"}, "9": {"label": "*0", "atom_type": "N3s"}, "12": {"label": "*2", "atom_type": "H0"}}

>  <type>  (22) 
unop_18

>  <geom_source>  (22) 
Heuristics

$$$$

     RDKit          3D

 17 16  0  0  0  0  0  0  0  0999 V2000
    0.8013   -0.8412    0.1363 C   0  0  0  0  0  3  0  0  0  0  0  0
    0.2954   -1.3129    1.3696 O   0  0  0  0  0  0  0  0  0  0  0  0
    1.2659   -2.0343    2.0228 N   0  0  0  0  0  0  0  0  0  0  0  0
    0.8596   -2.4781    3.1339 C   0  0  0  0  0  0  0  0  0  0  0  0
    1.6590   -0.1829    0.2919 H   0  0  0  0  0  0  0  0  0  0  0  0
    1.0918   -1.6722   -0.5104 H   0  0  0  0  0  0  0  0  0  0  0  0
    1.5663   -3.0585    3.7118 H   0  0  0  0  0  0  0  0  0  0  0  0
   -0.1463   -2.2954    3.5057 H   0  0  0  0  0  0  0  0  0  0  0  0
   -0.4956    1.1788   -0.3868 O   0  0  0  0  0  0  0  0  0  0  0  0
   -0.4956    1.1788   -1.8112 N   0  0  0  0  0  0  0  0  0  0  0  0
   -0.4956    2.5498   -2.3018 C   0  0  0  0  0  0  0  0  0  0  0  0
   -1.7422    1.7494   -2.3018 C   0  0  0  0  0  0  0  0  0  0  0  0
    0.1117    0.2329   -0.1418 H   0  0  0  0  0  0  0  0  0  0  0  0
    0.0654    2.7100   -3.2137 H   0  0  0  0  0  0  0  0  0  0  0  0
   -0.4061    3.3191   -1.5459 H   0  0  0  0  0  0  0  0  0  0  0  0
   -2.4789    1.9883   -1.5459 H   0  0  0  0  0  0  0  0  0  0  0  0
   -2.1213    1.3061   -3.2137 H   0  0  0  0  0  0  0  0  0  0  0  0
  1  2  1  0
  1  5  1  0
  1  6  1  0
  2  3  1  0
  3  4  2  3
  4  7  1  0
  4  8  1  0
  9 10  1  0
  9 13  1  0
 10 11  1  0
 10 12  1  0
 11 12  1  0
 11 14  1  0
 11 15  1  0
 12 16  1  0
 12 17  1  0
M  RAD  1   1   2
M  END
>  <reaction>  (23) 
rmg_rxn_15661

>  <mol_properties>  (23) 
{"0": {"label": "*3", "atom_type": "Cs"}, "1": {"label": "*4", "atom_type": "O2s"}, "8": {"label": "*1", "atom_type": "O2s"}, "9": {"label": "*0", "atom_type": "N3s"}, "12": {"label": "*2", "atom_type": "H0"}}

>  <type>  (23) 
unop_19

>  <geom_source>  (23) 
Heuristics

$$$$

     RDKit          3D

 17 16  0  0  0  0  0  0  0  0999 V2000
    0.4449   -0.6929    1.4433 C   0  0  0  0  0  3  0  0  0  0  0  0
    0.8038   -1.2520    0.1950 O   0  0  0  0  0  0  0  0  0  0  0  0
    1.5384   -2.3963    0.3941 N   0  0  0  0  0  0  0  0  0  0  0  0
    1.8836   -2.9339   -0.6961 C   0  0  0  0  0  0  0  0  0  0  0  0
   -0.1691   -1.3878    2.0205 H   0  0  0  0  0  0  0  0  0  0  0  0
    1.3323   -0.4239    2.0205 H   0  0  0  0  0  0  0  0  0  0  0  0
    2.4668   -3.8423   -0.6255 H   0  0  0  0  0  0  0  0  0  0  0  0
    1.6165   -2.5178   -1.6652 H   0  0  0  0  0  0  0  0  0  0  0  0
   -0.8520    1.3271    0.9203 O   0  0  0  0  0  0  0  0  0  0  0  0
   -0.8520    1.3271   -0.5042 N   0  0  0  0  0  0  0  0  0  0  0  0
   -0.8520    2.6981   -0.9948 C   0  0  0  0  0  0  0  0  0  0  0  0
   -2.0986    1.8977   -0.9948 C   0  0  0  0  0  0  0  0  0  0  0  0
   -0.2447    0.3812    1.1652 H   0  0  0  0  0  0  0  0  0  0  0  0
   -0.2911    2.8583   -1.9067 H   0  0  0  0  0  0  0  0  0  0  0  0
   -0.7625    3.4674   -0.2389 H   0  0  0  0  0  0  0  0  0  0  0  0
   -2.8354    2.1366   -0.2389 H   0  0  0  0  0  0  0  0  0  0  0  0
   -2.4778    1.4544   -1.9067 H   0  0  0  0  0  0  0  0  0  0  0  0
  1  2  1  0
  1  5  1  0
  1  6  1  0
  2  3  1  0
  3  4  2  3
  4  7  1  0
  4  8  1  0
  9 10  1  0
  9 13  1  0
 10 11  1  0
 10 12  1  0
 11 12  1  0
 11 14  1  0
 11 15  1  0
 12 16  1  0
 12 17  1  0
M  RAD  1   1   2
M  END
>  <reaction>  (24) 
rmg_rxn_15661

>  <mol_properties>  (24) 
{"0": {"label": "*3", "atom_type": "Cs"}, "1": {"label": "*4", "atom_type": "O2s"}, "8": {"label": "*1", "atom_type": "O2s"}, "9": {"label": "*0", "atom_type": "N3s"}, "12": {"label": "*2", "atom_type": "H0"}}

>  <type>  (24) 
unop_20

>  <geom_source>  (24) 
Heuristics

$$$$

     RDKit          3D

 17 16  0  0  0  0  0  0  0  0999 V2000
    2.2126   -0.5905   -0.5223 O   0  0  0  0  0  0  0  0  0  0  0  0
   -0.7472   -1.0238    0.3903 O   0  0  0  0  0  1  0  0  0  0  0  0
   -1.6610   -0.3295    1.1144 N   0  0  0  0  0  0  0  0  0  0  0  0
    1.8578    0.7246   -0.3270 N   0  0  0  0  0  0  0  0  0  0  0  0
   -1.9548    0.9268    0.3948 C   0  0  0  0  0  0  0  0  0  0  0  0
   -2.8831   -0.1917    0.2959 C   0  0  0  0  0  0  0  0  0  0  0  0
    1.5464   -1.6235    0.1836 C   0  0  0  0  0  0  0  0  0  0  0  0
    2.4623    1.6693   -0.9682 C   0  0  0  0  0  0  0  0  0  0  0  0
   -2.2655    1.7387    1.0854 H   0  0  0  0  0  0  0  0  0  0  0  0
   -1.3191    1.1061   -0.5014 H   0  0  0  0  0  0  0  0  0  0  0  0
   -2.8614   -0.7524   -0.6657 H   0  0  0  0  0  0  0  0  0  0  0  0
   -3.7955   -0.1050    0.9224 H   0  0  0  0  0  0  0  0  0  0  0  0
    0.3209   -1.5966   -0.0838 H   0  0  0  0  0  0  0  0  0  0  0  0
    1.6919   -1.4869    1.2758 H   0  0  0  0  0  0  0  0  0  0  0  0
    1.9651   -2.6048   -0.1200 H   0  0  0  0  0  0  0  0  0  0  0  0
    2.1744    2.6990   -0.8062 H   0  0  0  0  0  0  0  0  0  0  0  0
    3.2562    1.4403   -1.6680 H   0  0  0  0  0  0  0  0  0  0  0  0
  1  7  1  0
  1  4  1  0
  2  3  1  0
  3  5  1  0
  3  6  1  0
  4  8  2  3
  5  6  1  0
  5  9  1  0
  5 10  1  0
  6 11  1  0
  6 12  1  0
  7 13  1  0
  7 14  1  0
  7 15  1  0
  8 16  1  0
  8 17  1  0
M  RAD  1   2   2
M  END
>  <reaction>  (25) 
rmg_rxn_15661

>  <mol_properties>  (25) 
{"0": {"label": "*3", "atom_type": "Cs"}, "1": {"label": "*4", "atom_type": "O2s"}, "8": {"label": "*1", "atom_type": "O2s"}, "9": {"label": "*0", "atom_type": "N3s"}, "12": {"label": "*2", "atom_type": "H0"}}

>  <type>  (25) 
unop_21

>  <geom_source>  (25) 
AutoTST

$$$$

     RDKit          3D

 17 16  0  0  0  0  0  0  0  0999 V2000
    0.1068   -0.9638    1.3114 C   0  0  0  0  0  3  0  0  0  0  0  0
    1.0175   -1.1225    0.2412 O   0  0  0  0  0  0  0  0  0  0  0  0
    2.0419   -1.9546    0.6245 N   0  0  0  0  0  0  0  0  0  0  0  0
    2.8841   -2.1275   -0.3016 C   0  0  0  0  0  0  0  0  0  0  0  0
   -0.3310   -1.9229    1.5973 H   0  0  0  0  0  0  0  0  0  0  0  0
    0.5966   -0.5134    2.1776 H   0  0  0  0  0  0  0  0  0  0  0  0
    3.7240   -2.7719   -0.0791 H   0  0  0  0  0  0  0  0  0  0  0  0
    2.7849   -1.6598   -1.2789 H   0  0  0  0  0  0  0  0  0  0  0  0
   -1.1900    1.0561    0.7883 O   0  0  0  0  0  0  0  0  0  0  0  0
   -1.1900    1.0561   -0.6361 N   0  0  0  0  0  0  0  0  0  0  0  0
   -1.1900    2.4272   -1.1267 C   0  0  0  0  0  0  0  0  0  0  0  0
   -2.4367    1.6268   -1.1267 C   0  0  0  0  0  0  0  0  0  0  0  0
   -0.5828    0.1103    1.0332 H   0  0  0  0  0  0  0  0  0  0  0  0
   -0.6291    2.5874   -2.0387 H   0  0  0  0  0  0  0  0  0  0  0  0
   -1.1005    3.1965   -0.3708 H   0  0  0  0  0  0  0  0  0  0  0  0
   -3.1734    1.8656   -0.3708 H   0  0  0  0  0  0  0  0  0  0  0  0
   -2.8158    1.1835   -2.0387 H   0  0  0  0  0  0  0  0  0  0  0  0
  1  2  1  0
  1  5  1  0
  1  6  1  0
  2  3  1  0
  3  4  2  3
  4  7  1  0
  4  8  1  0
  9 10  1  0
  9 13  1  0
 10 11  1  0
 10 12  1  0
 11 12  1  0
 11 14  1  0
 11 15  1  0
 12 16  1  0
 12 17  1  0
M  RAD  1   1   2
M  END
>  <reaction>  (26) 
rmg_rxn_15661

>  <mol_properties>  (26) 
{"0": {"label": "*3", "atom_type": "Cs"}, "1": {"label": "*4", "atom_type": "O2s"}, "8": {"label": "*1", "atom_type": "O2s"}, "9": {"label": "*0", "atom_type": "N3s"}, "12": {"label": "*2", "atom_type": "H0"}}

>  <type>  (26) 
unop_22

>  <geom_source>  (26) 
gaussian_log

$$$$
