
     RDKit          3D

 12 11  0  0  0  0  0  0  0  0999 V2000
   -1.4643   -0.2505   -0.5284 C   0  0  0  0  0  0  0  0  0  0  0  0
   -0.3946    0.4302    0.3143 C   0  0  0  0  0  0  0  0  0  0  0  0
   -0.5959    0.2382    1.8102 C   0  0  0  0  0  0  0  0  0  0  0  0
   -0.5633   -1.1190    2.2092 O   0  0  0  0  0  0  0  0  0  0  0  0
   -2.4511    0.1644   -0.3109 H   0  0  0  0  0  0  0  0  0  0  0  0
   -1.5019   -1.3198   -0.3181 H   0  0  0  0  0  0  0  0  0  0  0  0
   -1.2720   -0.1182   -1.5941 H   0  0  0  0  0  0  0  0  0  0  0  0
    0.5965    0.0515    0.0385 H   0  0  0  0  0  0  0  0  0  0  0  0
   -0.3776    1.5047    0.1078 H   0  0  0  0  0  0  0  0  0  0  0  0
   -1.5821    0.6048    2.1034 H   0  0  0  0  0  0  0  0  0  0  0  0
    0.1495    0.8220    2.3649 H   0  0  0  0  0  0  0  0  0  0  0  0
    0.3017   -1.4750    1.9997 H   0  0  0  0  0  0  0  0  0  0  0  0
  1  2  1  0
  1  5  1  0
  1  6  1  0
  1  7  1  0
  2  3  1  0
  2  8  1  0
  2  9  1  0
  3  4  1  0
  3 10  1  0
  3 11  1  0
  4 12  1  0
M  END
>  <reaction>  (1) 
rmg_rxn_15526

>  <mol_properties>  (1) 
{"0": {"label": "donator", "atom_type": "Cs"}, "4": {"label": "d_hydrogen", "atom_type": "H0"}}

>  <type>  (1) 
r1h

$$$$

     RDKit          3D

  5  4  0  0  0  0  0  0  0  0999 V2000
    0.8934    0.3742    0.4948 O   0  0  0  0  0  0  0  0  0  0  0  0
    0.1582   -0.1610   -0.5904 N   0  0  0  0  0  0  0  0  0  0  0  0
   -1.0297   -0.3739   -0.4689 C   0  0  0  0  0  3  0  0  0  0  0  0
    1.7804    0.4382    0.1306 H   0  0  0  0  0  0  0  0  0  0  0  0
   -1.8023   -0.2775    0.2859 H   0  0  0  0  0  0  0  0  0  0  0  0
  1  2  1  0
  1  4  1  0
  2  3  2  3
  3  5  1  0
M  RAD  1   3   2
M  END
>  <reaction>  (2) 
rmg_rxn_15526

>  <mol_properties>  (2) 
{"2": {"label": "acceptor", "atom_type": "Cd"}}

>  <type>  (2) 
r2

$$$$

     RDKit          3D

  6  5  0  0  0  0  0  0  0  0999 V2000
    1.2314    0.0428    0.5088 O   0  0  0  0  0  0  0  0  0  0  0  0
    0.2987    0.2341   -0.4915 N   0  0  0  0  0  0  0  0  0  0  0  0
   -0.8599   -0.1122   -0.1290 C   0  0  0  0  0  0  0  0  0  0  0  0
    2.0507    0.3401    0.1082 H   0  0  0  0  0  0  0  0  0  0  0  0
   -1.0700   -0.5112    0.8610 H   0  0  0  0  0  0  0  0  0  0  0  0
   -1.6509    0.0064   -0.8574 H   0  0  0  0  0  0  0  0  0  0  0  0
  1  2  1  0
  1  4  1  0
  2  3  2  3
  3  5  1  0
  3  6  1  0
M  END
>  <reaction>  (3) 
rmg_rxn_15526

>  <mol_properties>  (3) 
{"2": {"label": "acceptor", "atom_type": "Cd"}, "5": {"label": "a_hydrogen", "atom_type": "H0"}}

>  <type>  (3) 
r2h

$$$$

     RDKit          3D

 17 15  0  0  0  0  0  0  0  0999 V2000
   -2.9969   -0.2945   -0.0685 O   0  0  0  0  0  0  0  0  0  0  0  0
   -1.6305   -0.0247   -0.1035 N   0  0  0  0  0  0  0  0  0  0  0  0
   -1.3181    1.1564    0.1361 C   0  0  0  0  0  3  0  0  0  0  0  0
   -3.0394   -1.2366   -0.2508 H   0  0  0  0  0  0  0  0  0  0  0  0
   -1.9882    1.9864    0.3566 H   0  0  0  0  0  0  0  0  0  0  0  0
    1.3132    1.5797   -0.1860 C   0  0  0  0  0  0  0  0  0  0  0  0
    2.1697    0.4596    0.3514 C   0  0  0  0  0  0  0  0  0  0  0  0
    1.9300   -0.9080   -0.2858 C   0  0  0  0  0  0  0  0  0  0  0  0
    0.8138   -1.5910    0.2240 O   0  0  0  0  0  0  0  0  0  0  0  0
    0.0724    1.3726    0.0340 H   0  0  0  0  0  0  0  0  0  0  0  0
    1.3493    1.6820   -1.2715 H   0  0  0  0  0  0  0  0  0  0  0  0
    1.4756    2.5405    0.3020 H   0  0  0  0  0  0  0  0  0  0  0  0
    3.2188    0.7335    0.1800 H   0  0  0  0  0  0  0  0  0  0  0  0
    2.0471    0.3640    1.4332 H   0  0  0  0  0  0  0  0  0  0  0  0
    2.7893   -1.5488   -0.0794 H   0  0  0  0  0  0  0  0  0  0  0  0
    1.8663   -0.7953   -1.3782 H   0  0  0  0  0  0  0  0  0  0  0  0
   -0.0022   -1.1286   -0.0130 H   0  0  0  0  0  0  0  0  0  0  0  0
  1  2  1  0
  1  4  1  0
  2  3  2  3
  3  5  1  0
  6  7  1  0
  6 10  1  0
  6 11  1  0
  6 12  1  0
  7  8  1  0
  7 13  1  0
  7 14  1  0
  8  9  1  0
  8 15  1  0
  8 16  1  0
  9 17  1  0
M  RAD  1   3   2
M  END
>  <reaction>  (4) 
rmg_rxn_15526

>  <mol_properties>  (4) 
{"1": {"label": "*4", "atom_type": "N3d"}, "2": {"label": "*3", "atom_type": "Cd"}, "5": {"label": "*1", "atom_type": "Cs"}, "6": {"label": "*0", "atom_type": "Cs"}, "9": {"label": "*2", "atom_type": "H0"}}

>  <type>  (4) 
ts

$$$$

     RDKit          3D

 17 15  0  0  0  0  0  0  0  0999 V2000
   -2.9197    0.3991    0.0245 O   0  0  0  0  0  0  0  0  0  0  0  0
   -1.5754   -0.0084   -0.0215 N   0  0  0  0  0  0  0  0  0  0  0  0
   -1.2628   -1.2051   -0.0055 C   0  0  0  0  0  3  0  0  0  0  0  0
   -2.8809    1.3662    0.0168 H   0  0  0  0  0  0  0  0  0  0  0  0
   -1.8877   -2.0871    0.0378 H   0  0  0  0  0  0  0  0  0  0  0  0
    1.3294   -1.5974   -0.1670 C   0  0  0  0  0  0  0  0  0  0  0  0
    2.0948   -0.4344    0.4062 C   0  0  0  0  0  0  0  0  0  0  0  0
    1.8777    0.8883   -0.3457 C   0  0  0  0  0  0  0  0  0  0  0  0
    0.7786    1.6242    0.1179 O   0  0  0  0  0  0  0  0  0  0  0  0
    0.0393   -1.3924   -0.0700 H   0  0  0  0  0  0  0  0  0  0  0  0
    1.4855   -2.5196    0.3827 H   0  0  0  0  0  0  0  0  0  0  0  0
    1.4966   -1.7361   -1.2303 H   0  0  0  0  0  0  0  0  0  0  0  0
    1.8296   -0.2834    1.4551 H   0  0  0  0  0  0  0  0  0  0  0  0
    3.1644   -0.6734    0.3717 H   0  0  0  0  0  0  0  0  0  0  0  0
    1.7865    0.6864   -1.4241 H   0  0  0  0  0  0  0  0  0  0  0  0
    2.7421    1.5410   -0.1944 H   0  0  0  0  0  0  0  0  0  0  0  0
   -0.0267    1.0846    0.0301 H   0  0  0  0  0  0  0  0  0  0  0  0
  1  2  1  0
  1  4  1  0
  2  3  2  3
  3  5  1  0
  6  7  1  0
  6 10  1  0
  6 11  1  0
  6 12  1  0
  7  8  1  0
  7 13  1  0
  7 14  1  0
  8  9  1  0
  8 15  1  0
  8 16  1  0
  9 17  1  0
M  RAD  1   3   2
M  END
>  <reaction>  (5) 
rmg_rxn_15526

>  <mol_properties>  (5) 
{"1": {"label": "*4", "atom_type": "N3d"}, "2": {"label": "*3", "atom_type": "Cd"}, "5": {"label": "*1", "atom_type": "Cs"}, "6": {"label": "*0", "atom_type": "Cs"}, "9": {"label": "*2", "atom_type": "H0"}}

>  <type>  (5) 
unop_1

>  <geom_source>  (5) 
crest_best.xyz

$$$$

     RDKit          3D

 17 15  0  0  0  0  0  0  0  0999 V2000
   -3.4124    0.5135    1.0396 O   0  0  0  0  0  0  0  0  0  0  0  0
   -2.0673    0.6083    1.3374 N   0  0  0  0  0  0  0  0  0  0  0  0
   -1.3586   -0.0668    0.5403 C   0  0  0  0  0  0  0  0  0  0  0  0
   -3.8271    1.0622    1.7082 H   0  0  0  0  0  0  0  0  0  0  0  0
   -1.7841   -0.6460   -0.2765 H   0  0  0  0  0  0  0  0  0  0  0  0
    0.8316    1.0618   -0.3180 C   0  0  0  0  0  3  0  0  0  0  0  0
    2.0518    0.2393    0.0727 C   0  0  0  0  0  0  0  0  0  0  0  0
    2.0518   -1.1584   -0.5287 C   0  0  0  0  0  0  0  0  0  0  0  0
    2.0518   -1.1584   -1.9437 O   0  0  0  0  0  0  0  0  0  0  0  0
   -0.2688    0.4947    0.1132 H   0  0  0  0  0  0  0  0  0  0  0  0
    0.7544    1.1508   -1.4020 H   0  0  0  0  0  0  0  0  0  0  0  0
    0.8796    2.0662    0.1050 H   0  0  0  0  0  0  0  0  0  0  0  0
    2.9671    0.7578   -0.2356 H   0  0  0  0  0  0  0  0  0  0  0  0
    2.1094    0.1421    1.1611 H   0  0  0  0  0  0  0  0  0  0  0  0
    1.1429   -1.6894   -0.2370 H   0  0  0  0  0  0  0  0  0  0  0  0
    2.9045   -1.7307   -0.1422 H   0  0  0  0  0  0  0  0  0  0  0  0
    2.8534   -0.7284   -2.2460 H   0  0  0  0  0  0  0  0  0  0  0  0
  1  2  1  0
  1  4  1  0
  2  3  2  3
  3  5  1  0
  3 10  1  0
  6  7  1  0
  6 11  1  0
  6 12  1  0
  7  8  1  0
  7 13  1  0
  7 14  1  0
  8  9  1  0
  8 15  1  0
  8 16  1  0
  9 17  1  0
M  RAD  1   6   2
M  END
>  <reaction>  (6) 
rmg_rxn_15526

>  <mol_properties>  (6) 
{"1": {"label": "*4", "atom_type": "N3d"}, "2": {"label": "*3", "atom_type": "Cd"}, "5": {"label": "*1", "atom_type": "Cs"}, "6": {"label": "*0", "atom_type": "Cs"}, "9": {"label": "*2", "atom_type": "H0"}}

>  <type>  (6) 
unop_2

>  <geom_source>  (6) 
Heuristics

$$$$

     RDKit          3D

 17 15  0  0  0  0  0  0  0  0999 V2000
   -2.7569   -0.5404    1.9550 O   0  0  0  0  0  0  0  0  0  0  0  0
   -1.5241   -0.3220    1.3723 N   0  0  0  0  0  0  0  0  0  0  0  0
   -1.6166    0.3585    0.3131 C   0  0  0  0  0  0  0  0  0  0  0  0
   -2.5455   -1.0584    2.7342 H   0  0  0  0  0  0  0  0  0  0  0  0
   -2.5686    0.7176   -0.0722 H   0  0  0  0  0  0  0  0  0  0  0  0
    0.5736    1.4871   -0.5452 C   0  0  0  0  0  3  0  0  0  0  0  0
    1.7938    0.6646   -0.1545 C   0  0  0  0  0  0  0  0  0  0  0  0
    1.7938   -0.7331   -0.7559 C   0  0  0  0  0  0  0  0  0  0  0  0
    1.7938   -0.7331   -2.1708 O   0  0  0  0  0  0  0  0  0  0  0  0
   -0.5269    0.9200   -0.1140 H   0  0  0  0  0  0  0  0  0  0  0  0
    0.4964    1.5761   -1.6292 H   0  0  0  0  0  0  0  0  0  0  0  0
    0.6216    2.4915   -0.1222 H   0  0  0  0  0  0  0  0  0  0  0  0
    2.7091    1.1831   -0.4628 H   0  0  0  0  0  0  0  0  0  0  0  0
    1.8514    0.5674    0.9339 H   0  0  0  0  0  0  0  0  0  0  0  0
    0.8849   -1.2640   -0.4642 H   0  0  0  0  0  0  0  0  0  0  0  0
    2.6465   -1.3054   -0.3694 H   0  0  0  0  0  0  0  0  0  0  0  0
    2.5954   -0.3031   -2.4732 H   0  0  0  0  0  0  0  0  0  0  0  0
  1  2  1  0
  1  4  1  0
  2  3  2  3
  3  5  1  0
  3 10  1  0
  6  7  1  0
  6 11  1  0
  6 12  1  0
  7  8  1  0
  7 13  1  0
  7 14  1  0
  8  9  1  0
  8 15  1  0
  8 16  1  0
  9 17  1  0
M  RAD  1   6   2
M  END
>  <reaction>  (7) 
rmg_rxn_15526

>  <mol_properties>  (7) 
{"1": {"label": "*4", "atom_type": "N3d"}, "2": {"label": "*3", "atom_type": "Cd"}, "5": {"label": "*1", "atom_type": "Cs"}, "6": {"label": "*0", "atom_type": "Cs"}, "9": {"label": "*2", "atom_type": "H0"}}

>  <type>  (7) 
unop_3

>  <geom_source>  (7) 
Heuristics

$$$$

     RDKit          3D

 17 15  0  0  0  0  0  0  0  0999 V2000
   -3.4880    0.1734    0.7042 O   0  0  0  0  0  0  0  0  0  0  0  0
   -2.2648    0.7577    0.9677 N   0  0  0  0  0  0  0  0  0  0  0  0
   -1.3041   -0.0123    0.6892 C   0  0  0  0  0  0  0  0  0  0  0  0
   -4.1171    0.8523    0.9557 H   0  0  0  0  0  0  0  0  0  0  0  0
   -1.4515   -1.0134    0.2897 H   0  0  0  0  0  0  0  0  0  0  0  0
    0.8862    1.1163   -0.1691 C   0  0  0  0  0  3  0  0  0  0  0  0
    2.1064    0.2939    0.2216 C   0  0  0  0  0  0  0  0  0  0  0  0
    2.1064   -1.1038   -0.3798 C   0  0  0  0  0  0  0  0  0  0  0  0
    2.1064   -1.1038   -1.7948 O   0  0  0  0  0  0  0  0  0  0  0  0
   -0.2143    0.5493    0.2621 H   0  0  0  0  0  0  0  0  0  0  0  0
    0.8089    1.2053   -1.2531 H   0  0  0  0  0  0  0  0  0  0  0  0
    0.9341    2.1207    0.2539 H   0  0  0  0  0  0  0  0  0  0  0  0
    3.0217    0.8123   -0.0867 H   0  0  0  0  0  0  0  0  0  0  0  0
    2.1640    0.1967    1.3100 H   0  0  0  0  0  0  0  0  0  0  0  0
    1.1975   -1.6348   -0.0882 H   0  0  0  0  0  0  0  0  0  0  0  0
    2.9591   -1.6762    0.0066 H   0  0  0  0  0  0  0  0  0  0  0  0
    2.9080   -0.6739   -2.0971 H   0  0  0  0  0  0  0  0  0  0  0  0
  1  2  1  0
  1  4  1  0
  2  3  2  3
  3  5  1  0
  3 10  1  0
  6  7  1  0
  6 11  1  0
  6 12  1  0
  7  8  1  0
  7 13  1  0
  7 14  1  0
  8  9  1  0
  8 15  1  0
  8 16  1  0
  9 17  1  0
M  RAD  1   6   2
M  END
>  <reaction>  (8) 
rmg_rxn_15526

>  <mol_properties>  (8) 
{"1": {"label": "*4", "atom_type": "N3d"}, "2": {"label": "*3", "atom_type": "Cd"}, "5": {"label": "*1", "atom_type": "Cs"}, "6": {"label": "*0", "atom_type": "Cs"}, "9": {"label": "*2", "atom_type": "H0"}}

>  <type>  (8) 
unop_4

>  <geom_source>  (8) 
Heuristics

$$$$

     RDKit          3D

 17 15  0  0  0  0  0  0  0  0999 V2000
   -3.0920   -0.8958    0.3322 O   0  0  0  0  0  0  0  0  0  0  0  0
   -1.7367   -0.6580    0.4490 N   0  0  0  0  0  0  0  0  0  0  0  0
   -1.4967    0.5060    0.8743 C   0  0  0  0  0  0  0  0  0  0  0  0
   -3.1320   -1.7970    0.0062 H   0  0  0  0  0  0  0  0  0  0  0  0
   -2.2844    1.2174    1.1129 H   0  0  0  0  0  0  0  0  0  0  0  0
    0.6936    1.6346    0.0161 C   0  0  0  0  0  3  0  0  0  0  0  0
    1.9137    0.8122    0.4068 C   0  0  0  0  0  0  0  0  0  0  0  0
    1.9137   -0.5855   -0.1946 C   0  0  0  0  0  0  0  0  0  0  0  0
    1.9137   -0.5855   -1.6096 O   0  0  0  0  0  0  0  0  0  0  0  0
   -0.4069    1.0676    0.4473 H   0  0  0  0  0  0  0  0  0  0  0  0
    0.6163    1.7236   -1.0680 H   0  0  0  0  0  0  0  0  0  0  0  0
    0.7415    2.6390    0.4391 H   0  0  0  0  0  0  0  0  0  0  0  0
    2.8290    1.3306    0.0985 H   0  0  0  0  0  0  0  0  0  0  0  0
    1.9713    0.7150    1.4951 H   0  0  0  0  0  0  0  0  0  0  0  0
    1.0048   -1.1165    0.0970 H   0  0  0  0  0  0  0  0  0  0  0  0
    2.7664   -1.1579    0.1918 H   0  0  0  0  0  0  0  0  0  0  0  0
    2.7154   -0.1556   -1.9119 H   0  0  0  0  0  0  0  0  0  0  0  0
  1  2  1  0
  1  4  1  0
  2  3  2  3
  3  5  1  0
  3 10  1  0
  6  7  1  0
  6 11  1  0
  6 12  1  0
  7  8  1  0
  7 13  1  0
  7 14  1  0
  8  9  1  0
  8 15  1  0
  8 16  1  0
  9 17  1  0
M  RAD  1   6   2
M  END
>  <reaction>  (9) 
rmg_rxn_15526

>  <mol_properties>  (9) 
{"1": {"label": "*4", "atom_type": "N3d"}, "2": {"label": "*3", "atom_type": "Cd"}, "5": {"label": "*1", "atom_type": "Cs"}, "6": {"label": "*0", "atom_type": "Cs"}, "9": {"label": "*2", "atom_type": "H0"}}

>  <type>  (9) 
unop_5

>  <geom_source>  (9) 
Heuristics

$$$$

     RDKit          3D

 17 15  0  0  0  0  0  0  0  0999 V2000
   -3.4672   -0.0288    0.9550 O   0  0  0  0  0  0  0  0  0  0  0  0
   -2.3718    0.6494    0.4577 N   0  0  0  0  0  0  0  0  0  0  0  0
   -1.2894    0.0564    0.7225 C   0  0  0  0  0  0  0  0  0  0  0  0
   -4.2076    0.5195    0.6885 H   0  0  0  0  0  0  0  0  0  0  0  0
   -1.2531   -0.8778    1.2788 H   0  0  0  0  0  0  0  0  0  0  0  0
    0.9009    1.1850   -0.1358 C   0  0  0  0  0  3  0  0  0  0  0  0
    2.1210    0.3625    0.2549 C   0  0  0  0  0  0  0  0  0  0  0  0
    2.1210   -1.0352   -0.3464 C   0  0  0  0  0  0  0  0  0  0  0  0
    2.1210   -1.0352   -1.7614 O   0  0  0  0  0  0  0  0  0  0  0  0
   -0.1996    0.6179    0.2955 H   0  0  0  0  0  0  0  0  0  0  0  0
    0.8236    1.2740   -1.2198 H   0  0  0  0  0  0  0  0  0  0  0  0
    0.9488    2.1894    0.2873 H   0  0  0  0  0  0  0  0  0  0  0  0
    3.0363    0.8810   -0.0533 H   0  0  0  0  0  0  0  0  0  0  0  0
    2.1787    0.2654    1.3433 H   0  0  0  0  0  0  0  0  0  0  0  0
    1.2122   -1.5661   -0.0548 H   0  0  0  0  0  0  0  0  0  0  0  0
    2.9738   -1.6075    0.0400 H   0  0  0  0  0  0  0  0  0  0  0  0
    2.9227   -0.6052   -2.0638 H   0  0  0  0  0  0  0  0  0  0  0  0
  1  2  1  0
  1  4  1  0
  2  3  2  3
  3  5  1  0
  3 10  1  0
  6  7  1  0
  6 11  1  0
  6 12  1  0
  7  8  1  0
  7 13  1  0
  7 14  1  0
  8  9  1  0
  8 15  1  0
  8 16  1  0
  9 17  1  0
M  RAD  1   6   2
M  END
>  <reaction>  (10) 
rmg_rxn_15526

>  <mol_properties>  (10) 
{"1": {"label": "*4", "atom_type": "N3d"}, "2": {"label": "*3", "atom_type": "Cd"}, "5": {"label": "*1", "atom_type": "Cs"}, "6": {"label": "*0", "atom_type": "Cs"}, "9": {"label": "*2", "atom_type": "H0"}}

>  <type>  (10) 
unop_6

>  <geom_source>  (10) 
Heuristics

$$$$

     RDKit          3D

 17 15  0  0  0  0  0  0  0  0999 V2000
   -3.3291   -0.3501    0.1839 O   0  0  0  0  0  0  0  0  0  0  0  0
   -1.9544   -0.4810    0.1795 N   0  0  0  0  0  0  0  0  0  0  0  0
   -1.3995    0.3418    0.9597 C   0  0  0  0  0  0  0  0  0  0  0  0
   -3.6179   -1.0205   -0.4384 H   0  0  0  0  0  0  0  0  0  0  0  0
   -1.9627    1.0585    1.5536 H   0  0  0  0  0  0  0  0  0  0  0  0
    0.7908    1.4704    0.1014 C   0  0  0  0  0  3  0  0  0  0  0  0
    2.0109    0.6480    0.4921 C   0  0  0  0  0  0  0  0  0  0  0  0
    2.0109   -0.7497   -0.1093 C   0  0  0  0  0  0  0  0  0  0  0  0
    2.0109   -0.7497   -1.5243 O   0  0  0  0  0  0  0  0  0  0  0  0
   -0.3097    0.9034    0.5326 H   0  0  0  0  0  0  0  0  0  0  0  0
    0.7135    1.5594   -0.9826 H   0  0  0  0  0  0  0  0  0  0  0  0
    0.8387    2.4748    0.5244 H   0  0  0  0  0  0  0  0  0  0  0  0
    2.9262    1.1665    0.1838 H   0  0  0  0  0  0  0  0  0  0  0  0
    2.0686    0.5508    1.5805 H   0  0  0  0  0  0  0  0  0  0  0  0
    1.1020   -1.2807    0.1823 H   0  0  0  0  0  0  0  0  0  0  0  0
    2.8637   -1.3220    0.2772 H   0  0  0  0  0  0  0  0  0  0  0  0
    2.8126   -0.3198   -1.8266 H   0  0  0  0  0  0  0  0  0  0  0  0
  1  2  1  0
  1  4  1  0
  2  3  2  3
  3  5  1  0
  3 10  1  0
  6  7  1  0
  6 11  1  0
  6 12  1  0
  7  8  1  0
  7 13  1  0
  7 14  1  0
  8  9  1  0
  8 15  1  0
  8 16  1  0
  9 17  1  0
M  RAD  1   6   2
M  END
>  <reaction>  (11) 
rmg_rxn_15526

>  <mol_properties>  (11) 
{"1": {"label": "*4", "atom_type": "N3d"}, "2": {"label": "*3", "atom_type": "Cd"}, "5": {"label": "*1", "atom_type": "Cs"}, "6": {"label": "*0", "atom_type": "Cs"}, "9": {"label": "*2", "atom_type": "H0"}}

>  <type>  (11) 
unop_7

>  <geom_source>  (11) 
Heuristics

$$$$

     RDKit          3D

 17 15  0  0  0  0  0  0  0  0999 V2000
   -2.9196   -0.3988    0.0235 O   0  0  0  0  0  0  0  0  0  0  0  0
   -1.5752    0.0086   -0.0201 N   0  0  0  0  0  0  0  0  0  0  0  0
   -1.2625    1.2052   -0.0059 C   0  0  0  0  0  3  0  0  0  0  0  0
   -2.8809   -1.3659    0.0176 H   0  0  0  0  0  0  0  0  0  0  0  0
   -1.8872    2.0876    0.0341 H   0  0  0  0  0  0  0  0  0  0  0  0
    1.3299    1.5976   -0.1658 C   0  0  0  0  0  0  0  0  0  0  0  0
    2.0955    0.4337    0.4052 C   0  0  0  0  0  0  0  0  0  0  0  0
    1.8762   -0.8883   -0.3471 C   0  0  0  0  0  0  0  0  0  0  0  0
    0.7784   -1.6244    0.1190 O   0  0  0  0  0  0  0  0  0  0  0  0
    0.0398    1.3924   -0.0692 H   0  0  0  0  0  0  0  0  0  0  0  0
    1.4969    1.7381   -1.2289 H   0  0  0  0  0  0  0  0  0  0  0  0
    1.4860    2.5189    0.3854 H   0  0  0  0  0  0  0  0  0  0  0  0
    3.1652    0.6722    0.3691 H   0  0  0  0  0  0  0  0  0  0  0  0
    1.8320    0.2821    1.4545 H   0  0  0  0  0  0  0  0  0  0  0  0
    2.7410   -1.5412   -0.1988 H   0  0  0  0  0  0  0  0  0  0  0  0
    1.7820   -0.6856   -1.4250 H   0  0  0  0  0  0  0  0  0  0  0  0
   -0.0271   -1.0850    0.0330 H   0  0  0  0  0  0  0  0  0  0  0  0
  1  2  1  0
  1  4  1  0
  2  3  2  3
  3  5  1  0
  6  7  1  0
  6 10  1  0
  6 11  1  0
  6 12  1  0
  7  8  1  0
  7 13  1  0
  7 14  1  0
  8  9  1  0
  8 15  1  0
  8 16  1  0
  9 17  1  0
M  RAD  1   3   2
M  END
>  <reaction>  (12) 
rmg_rxn_15526

>  <mol_properties>  (12) 
{"1": {"label": "*4", "atom_type": "N3d"}, "2": {"label": "*3", "atom_type": "Cd"}, "5": {"label": "*1", "atom_type": "Cs"}, "6": {"label": "*0", "atom_type": "Cs"}, "9": {"label": "*2", "atom_type": "H0"}}

>  <type>  (12) 
unop_8

>  <geom_source>  (12) 
Heuristics

$$$$

     RDKit          3D

 17 15  0  0  0  0  0  0  0  0999 V2000
   -3.4629    0.1506    0.4335 O   0  0  0  0  0  0  0  0  0  0  0  0
   -2.1748   -0.1639    0.0477 N   0  0  0  0  0  0  0  0  0  0  0  0
   -1.3267    0.1627    0.9237 C   0  0  0  0  0  0  0  0  0  0  0  0
   -3.9951   -0.1448   -0.3078 H   0  0  0  0  0  0  0  0  0  0  0  0
   -1.6058    0.6350    1.8632 H   0  0  0  0  0  0  0  0  0  0  0  0
    0.8636    1.2913    0.0654 C   0  0  0  0  0  3  0  0  0  0  0  0
    2.0838    0.4689    0.4562 C   0  0  0  0  0  0  0  0  0  0  0  0
    2.0838   -0.9288   -0.1452 C   0  0  0  0  0  0  0  0  0  0  0  0
    2.0838   -0.9288   -1.5602 O   0  0  0  0  0  0  0  0  0  0  0  0
   -0.2369    0.7243    0.4967 H   0  0  0  0  0  0  0  0  0  0  0  0
    0.7863    1.3803   -1.0186 H   0  0  0  0  0  0  0  0  0  0  0  0
    0.9116    2.2957    0.4885 H   0  0  0  0  0  0  0  0  0  0  0  0
    2.9991    0.9874    0.1479 H   0  0  0  0  0  0  0  0  0  0  0  0
    2.1414    0.3717    1.5445 H   0  0  0  0  0  0  0  0  0  0  0  0
    1.1749   -1.4598    0.1464 H   0  0  0  0  0  0  0  0  0  0  0  0
    2.9365   -1.5011    0.2412 H   0  0  0  0  0  0  0  0  0  0  0  0
    2.8854   -0.4988   -1.8625 H   0  0  0  0  0  0  0  0  0  0  0  0
  1  2  1  0
  1  4  1  0
  2  3  2  3
  3  5  1  0
  3 10  1  0
  6  7  1  0
  6 11  1  0
  6 12  1  0
  7  8  1  0
  7 13  1  0
  7 14  1  0
  8  9  1  0
  8 15  1  0
  8 16  1  0
  9 17  1  0
M  RAD  1   6   2
M  END
>  <reaction>  (13) 
rmg_rxn_15526

>  <mol_properties>  (13) 
{"1": {"label": "*4", "atom_type": "N3d"}, "2": {"label": "*3", "atom_type": "Cd"}, "5": {"label": "*1", "atom_type": "Cs"}, "6": {"label": "*0", "atom_type": "Cs"}, "9": {"label": "*2", "atom_type": "H0"}}

>  <type>  (13) 
unop_9

>  <geom_source>  (13) 
Heuristics

$$$$

     RDKit          3D

 17 15  0  0  0  0  0  0  0  0999 V2000
   -3.2129    0.4848    1.5784 O   0  0  0  0  0  0  0  0  0  0  0  0
   -1.8420    0.3260    1.5273 N   0  0  0  0  0  0  0  0  0  0  0  0
   -1.4482   -0.0080    0.3754 C   0  0  0  0  0  0  0  0  0  0  0  0
   -3.3737    0.7332    2.4908 H   0  0  0  0  0  0  0  0  0  0  0  0
   -2.1306   -0.1473   -0.4604 H   0  0  0  0  0  0  0  0  0  0  0  0
    0.7421    1.1206   -0.4829 C   0  0  0  0  0  3  0  0  0  0  0  0
    1.9622    0.2982   -0.0922 C   0  0  0  0  0  0  0  0  0  0  0  0
    1.9622   -1.0995   -0.6935 C   0  0  0  0  0  0  0  0  0  0  0  0
    1.9622   -1.0995   -2.1085 O   0  0  0  0  0  0  0  0  0  0  0  0
   -0.3584    0.5536   -0.0516 H   0  0  0  0  0  0  0  0  0  0  0  0
    0.6648    1.2096   -1.5669 H   0  0  0  0  0  0  0  0  0  0  0  0
    0.7900    2.1250   -0.0598 H   0  0  0  0  0  0  0  0  0  0  0  0
    2.8775    0.8167   -0.4004 H   0  0  0  0  0  0  0  0  0  0  0  0
    2.0199    0.2010    0.9962 H   0  0  0  0  0  0  0  0  0  0  0  0
    1.0533   -1.6305   -0.4019 H   0  0  0  0  0  0  0  0  0  0  0  0
    2.8150   -1.6719   -0.3071 H   0  0  0  0  0  0  0  0  0  0  0  0
    2.7639   -0.6696   -2.4109 H   0  0  0  0  0  0  0  0  0  0  0  0
  1  2  1  0
  1  4  1  0
  2  3  2  3
  3  5  1  0
  3 10  1  0
  6  7  1  0
  6 11  1  0
  6 12  1  0
  7  8  1  0
  7 13  1  0
  7 14  1  0
  8  9  1  0
  8 15  1  0
  8 16  1  0
  9 17  1  0
M  RAD  1   6   2
M  END
>  <reaction>  (14) 
rmg_rxn_15526

>  <mol_properties>  (14) 
{"1": {"label": "*4", "atom_type": "N3d"}, "2": {"label": "*3", "atom_type": "Cd"}, "5": {"label": "*1", "atom_type": "Cs"}, "6": {"label": "*0", "atom_type": "Cs"}, "9": {"label": "*2", "atom_type": "H0"}}

>  <type>  (14) 
unop_10

>  <geom_source>  (14) 
Heuristics

$$$$

     RDKit          3D

 17 15  0  0  0  0  0  0  0  0999 V2000
   -2.9197    0.3991    0.0245 O   0  0  0  0  0  0  0  0  0  0  0  0
   -1.5754   -0.0084   -0.0215 N   0  0  0  0  0  0  0  0  0  0  0  0
   -1.2628   -1.2051   -0.0055 C   0  0  0  0  0  3  0  0  0  0  0  0
   -2.8809    1.3662    0.0168 H   0  0  0  0  0  0  0  0  0  0  0  0
   -1.8877   -2.0871    0.0378 H   0  0  0  0  0  0  0  0  0  0  0  0
    1.3294   -1.5974   -0.1670 C   0  0  0  0  0  0  0  0  0  0  0  0
    2.0948   -0.4344    0.4062 C   0  0  0  0  0  0  0  0  0  0  0  0
    1.8777    0.8883   -0.3457 C   0  0  0  0  0  0  0  0  0  0  0  0
    0.7786    1.6242    0.1179 O   0  0  0  0  0  0  0  0  0  0  0  0
    0.0393   -1.3924   -0.0700 H   0  0  0  0  0  0  0  0  0  0  0  0
    1.4855   -2.5196    0.3827 H   0  0  0  0  0  0  0  0  0  0  0  0
    1.4966   -1.7361   -1.2303 H   0  0  0  0  0  0  0  0  0  0  0  0
    1.8296   -0.2834    1.4551 H   0  0  0  0  0  0  0  0  0  0  0  0
    3.1644   -0.6734    0.3717 H   0  0  0  0  0  0  0  0  0  0  0  0
    1.7865    0.6864   -1.4241 H   0  0  0  0  0  0  0  0  0  0  0  0
    2.7421    1.5410   -0.1944 H   0  0  0  0  0  0  0  0  0  0  0  0
   -0.0267    1.0846    0.0301 H   0  0  0  0  0  0  0  0  0  0  0  0
  1  2  1  0
  1  4  1  0
  2  3  2  3
  3  5  1  0
  6  7  1  0
  6 10  1  0
  6 11  1  0
  6 12  1  0
  7  8  1  0
  7 13  1  0
  7 14  1  0
  8  9  1  0
  8 15  1  0
  8 16  1  0
  9 17  1  0
M  RAD  1   3   2
M  END
>  <reaction>  (15) 
rmg_rxn_15526

>  <mol_properties>  (15) 
{"1": {"label": "*4", "atom_type": "N3d"}, "2": {"label": "*3", "atom_type": "Cd"}, "5": {"label": "*1", "atom_type": "Cs"}, "6": {"label": "*0", "atom_type": "Cs"}, "9": {"label": "*2", "atom_type": "H0"}}

>  <type>  (15) 
unop_11

>  <geom_source>  (15) 
Heuristics

$$$$

     RDKit          3D

 17 15  0  0  0  0  0  0  0  0999 V2000
   -2.8488   -1.2007    0.8522 O   0  0  0  0  0  0  0  0  0  0  0  0
   -1.5734   -0.6760    0.7810 N   0  0  0  0  0  0  0  0  0  0  0  0
   -1.5854    0.5828    0.6878 C   0  0  0  0  0  0  0  0  0  0  0  0
   -2.6968   -2.1454    0.9185 H   0  0  0  0  0  0  0  0  0  0  0  0
   -2.5069    1.1609    0.6682 H   0  0  0  0  0  0  0  0  0  0  0  0
    0.6048    1.7114   -0.1704 C   0  0  0  0  0  3  0  0  0  0  0  0
    1.8250    0.8890    0.2203 C   0  0  0  0  0  0  0  0  0  0  0  0
    1.8250   -0.5087   -0.3811 C   0  0  0  0  0  0  0  0  0  0  0  0
    1.8250   -0.5087   -1.7961 O   0  0  0  0  0  0  0  0  0  0  0  0
   -0.4956    1.1444    0.2608 H   0  0  0  0  0  0  0  0  0  0  0  0
    0.5276    1.8004   -1.2545 H   0  0  0  0  0  0  0  0  0  0  0  0
    0.6528    2.7159    0.2526 H   0  0  0  0  0  0  0  0  0  0  0  0
    2.7403    1.4075   -0.0880 H   0  0  0  0  0  0  0  0  0  0  0  0
    1.8826    0.7918    1.3086 H   0  0  0  0  0  0  0  0  0  0  0  0
    0.9161   -1.0397   -0.0895 H   0  0  0  0  0  0  0  0  0  0  0  0
    2.6777   -1.0810    0.0053 H   0  0  0  0  0  0  0  0  0  0  0  0
    2.6266   -0.0787   -2.0984 H   0  0  0  0  0  0  0  0  0  0  0  0
  1  2  1  0
  1  4  1  0
  2  3  2  3
  3  5  1  0
  3 10  1  0
  6  7  1  0
  6 11  1  0
  6 12  1  0
  7  8  1  0
  7 13  1  0
  7 14  1  0
  8  9  1  0
  8 15  1  0
  8 16  1  0
  9 17  1  0
M  RAD  1   6   2
M  END
>  <reaction>  (16) 
rmg_rxn_15526

>  <mol_properties>  (16) 
{"1": {"label": "*4", "atom_type": "N3d"}, "2": {"label": "*3", "atom_type": "Cd"}, "5": {"label": "*1", "atom_type": "Cs"}, "6": {"label": "*0", "atom_type": "Cs"}, "9": {"label": "*2", "atom_type": "H0"}}

>  <type>  (16) 
unop_12

>  <geom_source>  (16) 
Heuristics

$$$$

     RDKit          3D

 17 15  0  0  0  0  0  0  0  0999 V2000
   -2.9564    0.0783    1.9591 O   0  0  0  0  0  0  0  0  0  0  0  0
   -1.6466   -0.0103    1.5308 N   0  0  0  0  0  0  0  0  0  0  0  0
   -1.5460    0.1519    0.2830 C   0  0  0  0  0  0  0  0  0  0  0  0
   -2.8903   -0.0610    2.9058 H   0  0  0  0  0  0  0  0  0  0  0  0
   -2.4068    0.3382   -0.3557 H   0  0  0  0  0  0  0  0  0  0  0  0
    0.6443    1.2805   -0.5753 C   0  0  0  0  0  3  0  0  0  0  0  0
    1.8644    0.4581   -0.1846 C   0  0  0  0  0  0  0  0  0  0  0  0
    1.8644   -0.9396   -0.7860 C   0  0  0  0  0  0  0  0  0  0  0  0
    1.8644   -0.9396   -2.2010 O   0  0  0  0  0  0  0  0  0  0  0  0
   -0.4562    0.7135   -0.1441 H   0  0  0  0  0  0  0  0  0  0  0  0
    0.5670    1.3695   -1.6593 H   0  0  0  0  0  0  0  0  0  0  0  0
    0.6922    2.2849   -0.1523 H   0  0  0  0  0  0  0  0  0  0  0  0
    2.7797    0.9766   -0.4929 H   0  0  0  0  0  0  0  0  0  0  0  0
    1.9220    0.3609    0.9038 H   0  0  0  0  0  0  0  0  0  0  0  0
    0.9555   -1.4706   -0.4944 H   0  0  0  0  0  0  0  0  0  0  0  0
    2.7172   -1.5119   -0.3996 H   0  0  0  0  0  0  0  0  0  0  0  0
    2.6661   -0.5097   -2.5033 H   0  0  0  0  0  0  0  0  0  0  0  0
  1  2  1  0
  1  4  1  0
  2  3  2  3
  3  5  1  0
  3 10  1  0
  6  7  1  0
  6 11  1  0
  6 12  1  0
  7  8  1  0
  7 13  1  0
  7 14  1  0
  8  9  1  0
  8 15  1  0
  8 16  1  0
  9 17  1  0
M  RAD  1   6   2
M  END
>  <reaction>  (17) 
rmg_rxn_15526

>  <mol_properties>  (17) 
{"1": {"label": "*4", "atom_type": "N3d"}, "2": {"label": "*3", "atom_type": "Cd"}, "5": {"label": "*1", "atom_type": "Cs"}, "6": {"label": "*0", "atom_type": "Cs"}, "9": {"label": "*2", "atom_type": "H0"}}

>  <type>  (17) 
unop_13

>  <geom_source>  (17) 
Heuristics

$$$$

     RDKit          3D

 17 15  0  0  0  0  0  0  0  0999 V2000
   -3.4719    0.2887    0.8969 O   0  0  0  0  0  0  0  0  0  0  0  0
   -2.3361    0.2457    0.1126 N   0  0  0  0  0  0  0  0  0  0  0  0
   -1.2948    0.0541    0.8000 C   0  0  0  0  0  0  0  0  0  0  0  0
   -4.1750    0.4366    0.2614 H   0  0  0  0  0  0  0  0  0  0  0  0
   -1.3188   -0.0603    1.8817 H   0  0  0  0  0  0  0  0  0  0  0  0
    0.8954    1.1827   -0.0582 C   0  0  0  0  0  3  0  0  0  0  0  0
    2.1156    0.3602    0.3325 C   0  0  0  0  0  0  0  0  0  0  0  0
    2.1156   -1.0375   -0.2689 C   0  0  0  0  0  0  0  0  0  0  0  0
    2.1156   -1.0375   -1.6839 O   0  0  0  0  0  0  0  0  0  0  0  0
   -0.2050    0.6156    0.3730 H   0  0  0  0  0  0  0  0  0  0  0  0
    0.8182    1.2717   -1.1423 H   0  0  0  0  0  0  0  0  0  0  0  0
    0.9434    2.1871    0.3648 H   0  0  0  0  0  0  0  0  0  0  0  0
    3.0309    0.8787    0.0242 H   0  0  0  0  0  0  0  0  0  0  0  0
    2.1732    0.2631    1.4208 H   0  0  0  0  0  0  0  0  0  0  0  0
    1.2067   -1.5684    0.0227 H   0  0  0  0  0  0  0  0  0  0  0  0
    2.9683   -1.6098    0.1175 H   0  0  0  0  0  0  0  0  0  0  0  0
    2.9172   -0.6075   -1.9862 H   0  0  0  0  0  0  0  0  0  0  0  0
  1  2  1  0
  1  4  1  0
  2  3  2  3
  3  5  1  0
  3 10  1  0
  6  7  1  0
  6 11  1  0
  6 12  1  0
  7  8  1  0
  7 13  1  0
  7 14  1  0
  8  9  1  0
  8 15  1  0
  8 16  1  0
  9 17  1  0
M  RAD  1   6   2
M  END
>  <reaction>  (18) 
rmg_rxn_15526

>  <mol_properties>  (18) 
{"1": {"label": "*4", "atom_type": "N3d"}, "2": {"label": "*3", "atom_type": "Cd"}, "5": {"label": "*1", "atom_type": "Cs"}, "6": {"label": "*0", "atom_type": "Cs"}, "9": {"label": "*2", "atom_type": "H0"}}

>  <type>  (18) 
unop_14

>  <geom_source>  (18) 
Heuristics

$$$$

     RDKit          3D

 17 15  0  0  0  0  0  0  0  0999 V2000
   -2.7137   -1.0664    1.5135 O   0  0  0  0  0  0  0  0  0  0  0  0
   -1.4981   -0.5538    1.1053 N   0  0  0  0  0  0  0  0  0  0  0  0
   -1.6318    0.5280    0.4687 C   0  0  0  0  0  0  0  0  0  0  0  0
   -2.4713   -1.8715    1.9753 H   0  0  0  0  0  0  0  0  0  0  0  0
   -2.6027    0.9806    0.2786 H   0  0  0  0  0  0  0  0  0  0  0  0
    0.5584    1.6566   -0.3896 C   0  0  0  0  0  3  0  0  0  0  0  0
    1.7786    0.8341    0.0011 C   0  0  0  0  0  0  0  0  0  0  0  0
    1.7786   -0.5635   -0.6002 C   0  0  0  0  0  0  0  0  0  0  0  0
    1.7786   -0.5635   -2.0152 O   0  0  0  0  0  0  0  0  0  0  0  0
   -0.5421    1.0895    0.0417 H   0  0  0  0  0  0  0  0  0  0  0  0
    0.4812    1.7456   -1.4736 H   0  0  0  0  0  0  0  0  0  0  0  0
    0.6064    2.6610    0.0335 H   0  0  0  0  0  0  0  0  0  0  0  0
    2.6939    1.3526   -0.3071 H   0  0  0  0  0  0  0  0  0  0  0  0
    1.8362    0.7370    1.0895 H   0  0  0  0  0  0  0  0  0  0  0  0
    0.8697   -1.0945   -0.3086 H   0  0  0  0  0  0  0  0  0  0  0  0
    2.6313   -1.1359   -0.2138 H   0  0  0  0  0  0  0  0  0  0  0  0
    2.5802   -0.1336   -2.3176 H   0  0  0  0  0  0  0  0  0  0  0  0
  1  2  1  0
  1  4  1  0
  2  3  2  3
  3  5  1  0
  3 10  1  0
  6  7  1  0
  6 11  1  0
  6 12  1  0
  7  8  1  0
  7 13  1  0
  7 14  1  0
  8  9  1  0
  8 15  1  0
  8 16  1  0
  9 17  1  0
M  RAD  1   6   2
M  END
>  <reaction>  (19) 
rmg_rxn_15526

>  <mol_properties>  (19) 
{"1": {"label": "*4", "atom_type": "N3d"}, "2": {"label": "*3", "atom_type": "Cd"}, "5": {"label": "*1", "atom_type": "Cs"}, "6": {"label": "*0", "atom_type": "Cs"}, "9": {"label": "*2", "atom_type": "H0"}}

>  <type>  (19) 
unop_15

>  <geom_source>  (19) 
Heuristics

$$$$

     RDKit          3D

 17 15  0  0  0  0  0  0  0  0999 V2000
   -0.8743    1.5040    0.8508 O   0  0  0  0  0  0  0  0  0  0  0  0
    4.0175    0.4880    0.0959 O   0  0  0  0  0  0  0  0  0  0  0  0
    2.6560    0.5296   -0.0928 N   0  0  0  0  0  0  0  0  0  0  0  0
   -1.7454   -0.6670    0.3134 C   0  0  0  0  0  0  0  0  0  0  0  0
   -1.9634    0.8437    0.2671 C   0  0  0  0  0  0  0  0  0  0  0  0
   -0.5242   -1.0730   -0.5022 C   0  0  0  0  0  3  0  0  0  0  0  0
    1.9990   -0.5477   -0.3701 C   0  0  0  0  0  0  0  0  0  0  0  0
   -1.6036   -0.9876    1.3680 H   0  0  0  0  0  0  0  0  0  0  0  0
   -2.6433   -1.1818   -0.0916 H   0  0  0  0  0  0  0  0  0  0  0  0
   -2.8923    1.0895    0.8284 H   0  0  0  0  0  0  0  0  0  0  0  0
   -2.0896    1.1742   -0.7887 H   0  0  0  0  0  0  0  0  0  0  0  0
   -0.6740   -0.8263   -1.5750 H   0  0  0  0  0  0  0  0  0  0  0  0
   -0.3469   -2.1645   -0.4013 H   0  0  0  0  0  0  0  0  0  0  0  0
    2.5101   -1.4983   -0.4580 H   0  0  0  0  0  0  0  0  0  0  0  0
    0.7249   -0.4936   -0.5441 H   0  0  0  0  0  0  0  0  0  0  0  0
   -1.0749    2.4739    0.7874 H   0  0  0  0  0  0  0  0  0  0  0  0
    4.5245    1.3367    0.3129 H   0  0  0  0  0  0  0  0  0  0  0  0
  1  5  1  0
  1 16  1  0
  2  3  1  0
  2 17  1  0
  3  7  2  3
  4  6  1  0
  4  5  1  0
  4  8  1  0
  4  9  1  0
  5 10  1  0
  5 11  1  0
  6 12  1  0
  6 13  1  0
  7 14  1  0
  7 15  1  0
M  RAD  1   6   2
M  END
>  <reaction>  (20) 
rmg_rxn_15526

>  <mol_properties>  (20) 
{"1": {"label": "*4", "atom_type": "N3d"}, "2": {"label": "*3", "atom_type": "Cd"}, "5": {"label": "*1", "atom_type": "Cs"}, "6": {"label": "*0", "atom_type": "Cs"}, "9": {"label": "*2", "atom_type": "H0"}}

>  <type>  (20) 
unop_16

>  <geom_source>  (20) 
AutoTST

$$$$

     RDKit          3D

 17 15  0  0  0  0  0  0  0  0999 V2000
   -2.7569   -0.5404    1.9550 O   0  0  0  0  0  0  0  0  0  0  0  0
   -1.5241   -0.3220    1.3723 N   0  0  0  0  0  0  0  0  0  0  0  0
   -1.6166    0.3585    0.3131 C   0  0  0  0  0  0  0  0  0  0  0  0
   -2.5455   -1.0584    2.7342 H   0  0  0  0  0  0  0  0  0  0  0  0
   -2.5686    0.7176   -0.0722 H   0  0  0  0  0  0  0  0  0  0  0  0
    0.5736    1.4871   -0.5452 C   0  0  0  0  0  3  0  0  0  0  0  0
    1.7938    0.6646   -0.1545 C   0  0  0  0  0  0  0  0  0  0  0  0
    1.7938   -0.7331   -0.7559 C   0  0  0  0  0  0  0  0  0  0  0  0
    1.7938   -0.7331   -2.1709 O   0  0  0  0  0  0  0  0  0  0  0  0
   -0.5269    0.9200   -0.1140 H   0  0  0  0  0  0  0  0  0  0  0  0
    0.4964    1.5761   -1.6292 H   0  0  0  0  0  0  0  0  0  0  0  0
    0.6216    2.4915   -0.1222 H   0  0  0  0  0  0  0  0  0  0  0  0
    2.7091    1.1831   -0.4627 H   0  0  0  0  0  0  0  0  0  0  0  0
    1.8514    0.5674    0.9339 H   0  0  0  0  0  0  0  0  0  0  0  0
    0.8849   -1.2640   -0.4642 H   0  0  0  0  0  0  0  0  0  0  0  0
    2.6465   -1.3054   -0.3694 H   0  0  0  0  0  0  0  0  0  0  0  0
    2.5954   -0.3031   -2.4732 H   0  0  0  0  0  0  0  0  0  0  0  0
  1  2  1  0
  1  4  1  0
  2  3  2  3
  3  5  1  0
  3 10  1  0
  6  7  1  0
  6 11  1  0
  6 12  1  0
  7  8  1  0
  7 13  1  0
  7 14  1  0
  8  9  1  0
  8 15  1  0
  8 16  1  0
  9 17  1  0
M  RAD  1   6   2
M  END
>  <reaction>  (21) 
rmg_rxn_15526

>  <mol_properties>  (21) 
{"1": {"label": "*4", "atom_type": "N3d"}, "2": {"label": "*3", "atom_type": "Cd"}, "5": {"label": "*1", "atom_type": "Cs"}, "6": {"label": "*0", "atom_type": "Cs"}, "9": {"label": "*2", "atom_type": "H0"}}

>  <type>  (21) 
unop_17

>  <geom_source>  (21) 
gaussian_log

$$$$
