
     RDKit          3D

 10  9  0  0  0  0  0  0  0  0999 V2000
    2.0402   -0.0569    0.0108 C   0  0  0  0  0  0  0  0  0  0  0  0
    0.5945   -0.0165    0.1895 C   0  0  0  0  0  0  0  0  0  0  0  0
   -0.5945    0.0167    0.3364 C   0  0  0  0  0  0  0  0  0  0  0  0
   -2.0402    0.0569    0.5150 C   0  0  0  0  0  0  0  0  0  0  0  0
    2.4759    0.9359    0.1356 H   0  0  0  0  0  0  0  0  0  0  0  0
    2.2993   -0.4160   -0.9866 H   0  0  0  0  0  0  0  0  0  0  0  0
    2.5042   -0.7230    0.7402 H   0  0  0  0  0  0  0  0  0  0  0  0
   -2.3769    1.0708    0.7381 H   0  0  0  0  0  0  0  0  0  0  0  0
   -2.3490   -0.5898    1.3379 H   0  0  0  0  0  0  0  0  0  0  0  0
   -2.5535   -0.2779   -0.3881 H   0  0  0  0  0  0  0  0  0  0  0  0
  1  2  1  0
  1  5  1  0
  1  6  1  0
  1  7  1  0
  2  3  3  0
  3  4  1  0
  4  8  1  0
  4  9  1  0
  4 10  1  0
M  END
>  <reaction>  (1) 
rmg_rxn_15585

>  <mol_properties>  (1) 
{"3": {"label": "donator", "atom_type": "Cs"}, "9": {"label": "d_hydrogen", "atom_type": "H0"}}

>  <type>  (1) 
r1h

$$$$

     RDKit          3D

  8  7  0  0  0  0  0  0  0  0999 V2000
    1.7077   -0.1964   -0.0607 C   0  0  0  0  0  3  0  0  0  0  0  0
    0.4209   -0.4565    0.2808 O   0  0  0  0  0  0  0  0  0  0  0  0
   -0.4607    0.4385   -0.2968 N   0  0  0  0  0  0  0  0  0  0  0  0
   -1.6584    0.1416   -0.0244 C   0  0  0  0  0  0  0  0  0  0  0  0
    2.4163   -0.7685    0.5170 H   0  0  0  0  0  0  0  0  0  0  0  0
    1.9214    0.7645   -0.5045 H   0  0  0  0  0  0  0  0  0  0  0  0
   -2.4185    0.7953   -0.4307 H   0  0  0  0  0  0  0  0  0  0  0  0
   -1.9286   -0.7185    0.5831 H   0  0  0  0  0  0  0  0  0  0  0  0
  1  2  1  0
  1  5  1  0
  1  6  1  0
  2  3  1  0
  3  4  2  3
  4  7  1  0
  4  8  1  0
M  RAD  1   1   2
M  END
>  <reaction>  (2) 
rmg_rxn_15585

>  <mol_properties>  (2) 
{"0": {"label": "acceptor", "atom_type": "Cs"}}

>  <type>  (2) 
r2

$$$$

     RDKit          3D

  9  8  0  0  0  0  0  0  0  0999 V2000
   -1.5470   -0.0755   -0.1976 C   0  0  0  0  0  0  0  0  0  0  0  0
   -0.2885    0.4507    0.1749 O   0  0  0  0  0  0  0  0  0  0  0  0
   -0.1502    1.7216   -0.3294 N   0  0  0  0  0  0  0  0  0  0  0  0
    0.9626    2.2353   -0.0219 C   0  0  0  0  0  0  0  0  0  0  0  0
   -1.6392   -0.1356   -1.2844 H   0  0  0  0  0  0  0  0  0  0  0  0
   -2.3597    0.5337    0.2044 H   0  0  0  0  0  0  0  0  0  0  0  0
   -1.5879   -1.0750    0.2318 H   0  0  0  0  0  0  0  0  0  0  0  0
    1.1497    3.2381   -0.3820 H   0  0  0  0  0  0  0  0  0  0  0  0
    1.7060    1.7101    0.5739 H   0  0  0  0  0  0  0  0  0  0  0  0
  1  2  1  0
  1  5  1  0
  1  6  1  0
  1  7  1  0
  2  3  1  0
  3  4  2  3
  4  8  1  0
  4  9  1  0
M  END
>  <reaction>  (3) 
rmg_rxn_15585

>  <mol_properties>  (3) 
{"0": {"label": "acceptor", "atom_type": "Cs"}, "8": {"label": "a_hydrogen", "atom_type": "H0"}}

>  <type>  (3) 
r2h

$$$$

     RDKit          3D

 18 16  0  0  0  0  0  0  0  0999 V2000
   -1.0926   -0.8103    1.6891 C   0  0  0  0  0  3  0  0  0  0  0  0
    0.0112   -1.2999    1.0222 O   0  0  0  0  0  0  0  0  0  0  0  0
    1.1536   -0.6299    1.4153 N   0  0  0  0  0  0  0  0  0  0  0  0
    2.1382   -0.9263    0.6818 C   0  0  0  0  0  0  0  0  0  0  0  0
   -1.9404   -1.4572    1.4834 H   0  0  0  0  0  0  0  0  0  0  0  0
   -0.9091   -0.5948    2.7408 H   0  0  0  0  0  0  0  0  0  0  0  0
    3.0817   -0.4584    0.9291 H   0  0  0  0  0  0  0  0  0  0  0  0
    2.0581   -1.6113   -0.1586 H   0  0  0  0  0  0  0  0  0  0  0  0
    0.1683    0.7675   -3.2154 C   0  0  0  0  0  0  0  0  0  0  0  0
   -0.4224    1.0669   -1.9190 C   0  0  0  0  0  0  0  0  0  0  0  0
   -0.9126    1.3258   -0.8504 C   0  0  0  0  0  0  0  0  0  0  0  0
   -1.4729    1.5494    0.4401 C   0  0  0  0  0  0  0  0  0  0  0  0
    0.3681   -0.3016   -3.3156 H   0  0  0  0  0  0  0  0  0  0  0  0
    1.1118    1.3004   -3.3471 H   0  0  0  0  0  0  0  0  0  0  0  0
   -0.5001    1.0601   -4.0274 H   0  0  0  0  0  0  0  0  0  0  0  0
   -2.5404    1.7615    0.4435 H   0  0  0  0  0  0  0  0  0  0  0  0
   -0.9134    2.2443    1.0629 H   0  0  0  0  0  0  0  0  0  0  0  0
   -1.3780    0.4054    1.1094 H   0  0  0  0  0  0  0  0  0  0  0  0
  1  2  1  0
  1  5  1  0
  1  6  1  0
  2  3  1  0
  3  4  2  3
  4  7  1  0
  4  8  1  0
  9 10  1  0
  9 13  1  0
  9 14  1  0
  9 15  1  0
 10 11  3  0
 11 12  1  0
 12 16  1  0
 12 17  1  0
 12 18  1  0
M  RAD  1   1   2
M  END
>  <reaction>  (4) 
rmg_rxn_15585

>  <mol_properties>  (4) 
{"0": {"label": "*3", "atom_type": "Cs"}, "1": {"label": "*4", "atom_type": "O2s"}, "10": {"label": "*0", "atom_type": "Ct"}, "11": {"label": "*1", "atom_type": "Cs"}, "17": {"label": "*2", "atom_type": "H0"}}

>  <type>  (4) 
ts

$$$$

     RDKit          3D

 18 16  0  0  0  0  0  0  0  0999 V2000
    1.5778    0.9274   -0.8383 C   0  0  0  0  0  0  0  0  0  0  0  0
    2.4683    0.2231   -0.0342 O   0  0  0  0  0  0  0  0  0  0  0  0
    2.2083   -1.0383    0.3659 N   0  0  0  0  0  0  0  0  0  0  0  0
    1.1011   -1.6060    0.1561 C   0  0  0  0  0  0  0  0  0  0  0  0
    2.0973    1.8245   -1.1589 H   0  0  0  0  0  0  0  0  0  0  0  0
    1.1867    0.3480   -1.6761 H   0  0  0  0  0  0  0  0  0  0  0  0
    1.0242   -2.6172    0.5158 H   0  0  0  0  0  0  0  0  0  0  0  0
    0.2278   -1.1728   -0.3255 H   0  0  0  0  0  0  0  0  0  0  0  0
   -3.4347   -0.9837   -0.3057 C   0  0  0  0  0  0  0  0  0  0  0  0
   -2.4042   -0.0152   -0.0085 C   0  0  0  0  0  3  0  0  0  0  0  0
   -1.5810    0.8239    0.2699 C   0  0  0  0  0  0  0  0  0  0  0  0
   -0.5391    1.7292    0.5331 C   0  0  0  0  0  0  0  0  0  0  0  0
   -3.4337   -1.2190   -1.3709 H   0  0  0  0  0  0  0  0  0  0  0  0
   -4.4144   -0.5847   -0.0391 H   0  0  0  0  0  0  0  0  0  0  0  0
   -3.2635   -1.9000    0.2599 H   0  0  0  0  0  0  0  0  0  0  0  0
   -0.1937    1.7250    1.5618 H   0  0  0  0  0  0  0  0  0  0  0  0
   -0.7068    2.7291    0.1472 H   0  0  0  0  0  0  0  0  0  0  0  0
    0.5277    1.3209   -0.1496 H   0  0  0  0  0  0  0  0  0  0  0  0
  1  2  1  0
  1  5  1  0
  1  6  1  0
  1 18  1  0
  2  3  1  0
  3  4  2  3
  4  7  1  0
  4  8  1  0
  9 10  1  0
  9 13  1  0
  9 14  1  0
  9 15  1  0
 10 11  2  0
 11 12  2  0
 12 16  1  0
 12 17  1  0
M  RAD  1  10   2
M  END
>  <reaction>  (5) 
rmg_rxn_15585

>  <mol_properties>  (5) 
{"0": {"label": "*3", "atom_type": "Cs"}, "1": {"label": "*4", "atom_type": "O2s"}, "10": {"label": "*0", "atom_type": "Ct"}, "11": {"label": "*1", "atom_type": "Cs"}, "17": {"label": "*2", "atom_type": "H0"}}

>  <type>  (5) 
unop_1

>  <geom_source>  (5) 
crest_best.xyz

$$$$

     RDKit          3D

 18 16  0  0  0  0  0  0  0  0999 V2000
   -0.5181   -0.9228    0.7604 C   0  0  0  0  0  0  0  0  0  0  0  0
    0.6617   -1.0277    1.5330 O   0  0  0  0  0  0  0  0  0  0  0  0
    0.4187   -1.7941    2.6476 N   0  0  0  0  0  0  0  0  0  0  0  0
    1.4469   -1.9171    3.3718 C   0  0  0  0  0  0  0  0  0  0  0  0
   -0.8530   -1.9062    0.4231 H   0  0  0  0  0  0  0  0  0  0  0  0
   -1.3162   -0.4409    1.3296 H   0  0  0  0  0  0  0  0  0  0  0  0
    1.3383   -2.5079    4.2715 H   0  0  0  0  0  0  0  0  0  0  0  0
    2.4005   -1.4588    3.1185 H   0  0  0  0  0  0  0  0  0  0  0  0
   -0.5398    1.5210   -4.2856 C   0  0  0  0  0  0  0  0  0  0  0  0
   -0.5398    1.5210   -2.8283 C   0  0  0  0  0  3  0  0  0  0  0  0
   -0.5398    1.5210   -1.6298 C   0  0  0  0  0  0  0  0  0  0  0  0
   -0.5398    1.5210   -0.1726 C   0  0  0  0  0  0  0  0  0  0  0  0
   -1.4460    1.9882   -4.6749 H   0  0  0  0  0  0  0  0  0  0  0  0
   -0.4913    0.5027   -4.6749 H   0  0  0  0  0  0  0  0  0  0  0  0
    0.3178    2.0723   -4.6749 H   0  0  0  0  0  0  0  0  0  0  0  0
   -1.4273    2.0229    0.2168 H   0  0  0  0  0  0  0  0  0  0  0  0
    0.3386    2.0385    0.2168 H   0  0  0  0  0  0  0  0  0  0  0  0
   -0.5289    0.2976    0.2945 H   0  0  0  0  0  0  0  0  0  0  0  0
  1  2  1  0
  1  5  1  0
  1  6  1  0
  1 18  1  0
  2  3  1  0
  3  4  2  3
  4  7  1  0
  4  8  1  0
  9 10  1  0
  9 13  1  0
  9 14  1  0
  9 15  1  0
 10 11  2  0
 11 12  2  0
 12 16  1  0
 12 17  1  0
M  RAD  1  10   2
M  END
>  <reaction>  (6) 
rmg_rxn_15585

>  <mol_properties>  (6) 
{"0": {"label": "*3", "atom_type": "Cs"}, "1": {"label": "*4", "atom_type": "O2s"}, "10": {"label": "*0", "atom_type": "Ct"}, "11": {"label": "*1", "atom_type": "Cs"}, "17": {"label": "*2", "atom_type": "H0"}}

>  <type>  (6) 
unop_2

>  <geom_source>  (6) 
Heuristics

$$$$

     RDKit          3D

 18 16  0  0  0  0  0  0  0  0999 V2000
    0.6771   -1.6278   -0.0284 C   0  0  0  0  0  0  0  0  0  0  0  0
    1.9914   -1.1291    0.0037 O   0  0  0  0  0  0  0  0  0  0  0  0
    2.0078    0.2501   -0.0048 N   0  0  0  0  0  0  0  0  0  0  0  0
    3.1413    0.7952    0.0249 C   0  0  0  0  0  0  0  0  0  0  0  0
    0.0694   -1.2289   -0.8167 H   0  0  0  0  0  0  0  0  0  0  0  0
    0.7471   -2.7073   -0.0445 H   0  0  0  0  0  0  0  0  0  0  0  0
    3.1610    1.8711    0.0179 H   0  0  0  0  0  0  0  0  0  0  0  0
    4.0808    0.2519    0.0563 H   0  0  0  0  0  0  0  0  0  0  0  0
   -0.8253    2.0054   -0.0173 C   0  0  0  0  0  0  0  0  0  0  0  0
   -1.7963    0.9427   -0.0039 C   0  0  0  0  0  3  0  0  0  0  0  0
   -2.5974    0.0195    0.0072 C   0  0  0  0  0  0  0  0  0  0  0  0
   -3.4843   -1.0014    0.0198 C   0  0  0  0  0  0  0  0  0  0  0  0
   -0.9470    2.6189   -0.9112 H   0  0  0  0  0  0  0  0  0  0  0  0
    0.1849    1.5839   -0.0174 H   0  0  0  0  0  0  0  0  0  0  0  0
   -0.9397    2.6343    0.8668 H   0  0  0  0  0  0  0  0  0  0  0  0
   -3.8327   -1.4160    0.9487 H   0  0  0  0  0  0  0  0  0  0  0  0
   -3.8622   -1.4133   -0.8986 H   0  0  0  0  0  0  0  0  0  0  0  0
    0.0368   -1.2563    0.7801 H   0  0  0  0  0  0  0  0  0  0  0  0
  1  2  1  0
  1  5  1  0
  1  6  1  0
  1 18  1  0
  2  3  1  0
  3  4  2  3
  4  7  1  0
  4  8  1  0
  9 10  1  0
  9 13  1  0
  9 14  1  0
  9 15  1  0
 10 11  2  0
 11 12  2  0
 12 16  1  0
 12 17  1  0
M  RAD  1  10   2
M  END
>  <reaction>  (7) 
rmg_rxn_15585

>  <mol_properties>  (7) 
{"0": {"label": "*3", "atom_type": "Cs"}, "1": {"label": "*4", "atom_type": "O2s"}, "10": {"label": "*0", "atom_type": "Ct"}, "11": {"label": "*1", "atom_type": "Cs"}, "17": {"label": "*2", "atom_type": "H0"}}

>  <type>  (7) 
unop_3

>  <geom_source>  (7) 
Heuristics

$$$$

     RDKit          3D

 18 16  0  0  0  0  0  0  0  0999 V2000
    0.6794    1.6285   -0.0541 C   0  0  0  0  0  0  0  0  0  0  0  0
    1.9929    1.1283   -0.0054 O   0  0  0  0  0  0  0  0  0  0  0  0
    2.0068   -0.2509    0.0091 N   0  0  0  0  0  0  0  0  0  0  0  0
    3.1390   -0.7973    0.0567 C   0  0  0  0  0  0  0  0  0  0  0  0
    0.7525    2.7075   -0.0881 H   0  0  0  0  0  0  0  0  0  0  0  0
    0.0784    1.2190   -0.8428 H   0  0  0  0  0  0  0  0  0  0  0  0
    3.1567   -1.8731    0.0674 H   0  0  0  0  0  0  0  0  0  0  0  0
    4.0793   -0.2553    0.0866 H   0  0  0  0  0  0  0  0  0  0  0  0
   -0.8269   -2.0052   -0.0480 C   0  0  0  0  0  0  0  0  0  0  0  0
   -1.7977   -0.9427   -0.0144 C   0  0  0  0  0  3  0  0  0  0  0  0
   -2.5968   -0.0182    0.0147 C   0  0  0  0  0  0  0  0  0  0  0  0
   -3.4831    1.0027    0.0477 C   0  0  0  0  0  0  0  0  0  0  0  0
    0.1832   -1.5848   -0.0166 H   0  0  0  0  0  0  0  0  0  0  0  0
   -0.9316   -2.5844   -0.9670 H   0  0  0  0  0  0  0  0  0  0  0  0
   -0.9591   -2.6672    0.8086 H   0  0  0  0  0  0  0  0  0  0  0  0
   -3.9741    1.2756    0.9644 H   0  0  0  0  0  0  0  0  0  0  0  0
   -3.7171    1.5571   -0.8433 H   0  0  0  0  0  0  0  0  0  0  0  0
    0.0359    1.2742    0.7608 H   0  0  0  0  0  0  0  0  0  0  0  0
  1  2  1  0
  1  5  1  0
  1  6  1  0
  1 18  1  0
  2  3  1  0
  3  4  2  3
  4  7  1  0
  4  8  1  0
  9 10  1  0
  9 13  1  0
  9 14  1  0
  9 15  1  0
 10 11  2  0
 11 12  2  0
 12 16  1  0
 12 17  1  0
M  RAD  1  10   2
M  END
>  <reaction>  (8) 
rmg_rxn_15585

>  <mol_properties>  (8) 
{"0": {"label": "*3", "atom_type": "Cs"}, "1": {"label": "*4", "atom_type": "O2s"}, "10": {"label": "*0", "atom_type": "Ct"}, "11": {"label": "*1", "atom_type": "Cs"}, "17": {"label": "*2", "atom_type": "H0"}}

>  <type>  (8) 
unop_4

>  <geom_source>  (8) 
Heuristics

$$$$

     RDKit          3D

 18 16  0  0  0  0  0  0  0  0999 V2000
    1.5824   -0.9278    0.8356 C   0  0  0  0  0  0  0  0  0  0  0  0
    2.4662   -0.2183    0.0287 O   0  0  0  0  0  0  0  0  0  0  0  0
    2.1997    1.0430   -0.3671 N   0  0  0  0  0  0  0  0  0  0  0  0
    1.0914    1.6062   -0.1506 C   0  0  0  0  0  0  0  0  0  0  0  0
    2.1070   -1.8234    1.1519 H   0  0  0  0  0  0  0  0  0  0  0  0
    1.1928   -0.3517    1.6763 H   0  0  0  0  0  0  0  0  0  0  0  0
    1.0090    2.6179   -0.5077 H   0  0  0  0  0  0  0  0  0  0  0  0
    0.2221    1.1687    0.3342 H   0  0  0  0  0  0  0  0  0  0  0  0
   -3.4274    0.9860    0.3025 C   0  0  0  0  0  0  0  0  0  0  0  0
   -2.3997    0.0135    0.0083 C   0  0  0  0  0  3  0  0  0  0  0  0
   -1.5782   -0.8282   -0.2673 C   0  0  0  0  0  0  0  0  0  0  0  0
   -0.5377   -1.7358   -0.5274 C   0  0  0  0  0  0  0  0  0  0  0  0
   -4.4014    0.6130   -0.0172 H   0  0  0  0  0  0  0  0  0  0  0  0
   -3.2211    1.9202   -0.2206 H   0  0  0  0  0  0  0  0  0  0  0  0
   -3.4648    1.1806    1.3752 H   0  0  0  0  0  0  0  0  0  0  0  0
   -0.1942   -1.7376   -1.5568 H   0  0  0  0  0  0  0  0  0  0  0  0
   -0.7053   -2.7334   -0.1357 H   0  0  0  0  0  0  0  0  0  0  0  0
    0.5308   -1.3244    0.1510 H   0  0  0  0  0  0  0  0  0  0  0  0
  1  2  1  0
  1  5  1  0
  1  6  1  0
  1 18  1  0
  2  3  1  0
  3  4  2  3
  4  7  1  0
  4  8  1  0
  9 10  1  0
  9 13  1  0
  9 14  1  0
  9 15  1  0
 10 11  2  0
 11 12  2  0
 12 16  1  0
 12 17  1  0
M  RAD  1  10   2
M  END
>  <reaction>  (9) 
rmg_rxn_15585

>  <mol_properties>  (9) 
{"0": {"label": "*3", "atom_type": "Cs"}, "1": {"label": "*4", "atom_type": "O2s"}, "10": {"label": "*0", "atom_type": "Ct"}, "11": {"label": "*1", "atom_type": "Cs"}, "17": {"label": "*2", "atom_type": "H0"}}

>  <type>  (9) 
unop_5

>  <geom_source>  (9) 
Heuristics

$$$$

     RDKit          3D

 18 16  0  0  0  0  0  0  0  0999 V2000
    1.8050   -1.3183   -0.1464 C   0  0  0  0  0  0  0  0  0  0  0  0
    1.6816   -0.0010   -0.5673 O   0  0  0  0  0  0  0  0  0  0  0  0
    1.5457    0.8751    0.4886 N   0  0  0  0  0  0  0  0  0  0  0  0
    1.3018    2.0741    0.1815 C   0  0  0  0  0  0  0  0  0  0  0  0
    2.2477   -1.8882   -0.9567 H   0  0  0  0  0  0  0  0  0  0  0  0
    2.3347   -1.4152    0.7989 H   0  0  0  0  0  0  0  0  0  0  0  0
    1.2108    2.7680    0.9979 H   0  0  0  0  0  0  0  0  0  0  0  0
    1.1888    2.4351   -0.8364 H   0  0  0  0  0  0  0  0  0  0  0  0
   -2.7621    1.3060   -0.2002 C   0  0  0  0  0  0  0  0  0  0  0  0
   -2.0275    0.0725   -0.0362 C   0  0  0  0  0  3  0  0  0  0  0  0
   -1.4508   -0.9778    0.1127 C   0  0  0  0  0  0  0  0  0  0  0  0
   -0.6742   -2.1391    0.2643 C   0  0  0  0  0  0  0  0  0  0  0  0
   -2.8424    1.5578   -1.2580 H   0  0  0  0  0  0  0  0  0  0  0  0
   -2.2478    2.1159    0.3188 H   0  0  0  0  0  0  0  0  0  0  0  0
   -3.7664    1.2076    0.2148 H   0  0  0  0  0  0  0  0  0  0  0  0
   -0.8482   -2.8971   -0.4923 H   0  0  0  0  0  0  0  0  0  0  0  0
   -0.6628   -2.5410    1.2719 H   0  0  0  0  0  0  0  0  0  0  0  0
    0.5890   -1.7789    0.0601 H   0  0  0  0  0  0  0  0  0  0  0  0
  1  2  1  0
  1  5  1  0
  1  6  1  0
  1 18  1  0
  2  3  1  0
  3  4  2  3
  4  7  1  0
  4  8  1  0
  9 10  1  0
  9 13  1  0
  9 14  1  0
  9 15  1  0
 10 11  2  0
 11 12  2  0
 12 16  1  0
 12 17  1  0
M  RAD  1  10   2
M  END
>  <reaction>  (10) 
rmg_rxn_15585

>  <mol_properties>  (10) 
{"0": {"label": "*3", "atom_type": "Cs"}, "1": {"label": "*4", "atom_type": "O2s"}, "10": {"label": "*0", "atom_type": "Ct"}, "11": {"label": "*1", "atom_type": "Cs"}, "17": {"label": "*2", "atom_type": "H0"}}

>  <type>  (10) 
unop_6

>  <geom_source>  (10) 
Heuristics

$$$$

     RDKit          3D

 18 16  0  0  0  0  0  0  0  0999 V2000
   -0.4458   -0.4794    1.7765 C   0  0  0  0  0  0  0  0  0  0  0  0
    0.2417   -1.2519    0.8120 O   0  0  0  0  0  0  0  0  0  0  0  0
    0.6648   -2.4304    1.3784 N   0  0  0  0  0  0  0  0  0  0  0  0
    1.2865   -3.1571    0.5526 C   0  0  0  0  0  0  0  0  0  0  0  0
   -1.3276   -1.0086    2.1446 H   0  0  0  0  0  0  0  0  0  0  0  0
    0.2075   -0.2309    2.6159 H   0  0  0  0  0  0  0  0  0  0  0  0
    1.6536   -4.1055    0.9216 H   0  0  0  0  0  0  0  0  0  0  0  0
    1.4531   -2.8598   -0.4805 H   0  0  0  0  0  0  0  0  0  0  0  0
   -0.4675    1.9644   -3.2695 C   0  0  0  0  0  0  0  0  0  0  0  0
   -0.4675    1.9644   -1.8123 C   0  0  0  0  0  3  0  0  0  0  0  0
   -0.4675    1.9644   -0.6138 C   0  0  0  0  0  0  0  0  0  0  0  0
   -0.4675    1.9644    0.8435 C   0  0  0  0  0  0  0  0  0  0  0  0
   -1.3737    2.4315   -3.6588 H   0  0  0  0  0  0  0  0  0  0  0  0
   -0.4190    0.9461   -3.6589 H   0  0  0  0  0  0  0  0  0  0  0  0
    0.3901    2.5157   -3.6589 H   0  0  0  0  0  0  0  0  0  0  0  0
   -1.3549    2.4662    1.2328 H   0  0  0  0  0  0  0  0  0  0  0  0
    0.4109    2.4819    1.2329 H   0  0  0  0  0  0  0  0  0  0  0  0
   -0.4566    0.7410    1.3106 H   0  0  0  0  0  0  0  0  0  0  0  0
  1  2  1  0
  1  5  1  0
  1  6  1  0
  1 18  1  0
  2  3  1  0
  3  4  2  3
  4  7  1  0
  4  8  1  0
  9 10  1  0
  9 13  1  0
  9 14  1  0
  9 15  1  0
 10 11  2  0
 11 12  2  0
 12 16  1  0
 12 17  1  0
M  RAD  1  10   2
M  END
>  <reaction>  (11) 
rmg_rxn_15585

>  <mol_properties>  (11) 
{"0": {"label": "*3", "atom_type": "Cs"}, "1": {"label": "*4", "atom_type": "O2s"}, "10": {"label": "*0", "atom_type": "Ct"}, "11": {"label": "*1", "atom_type": "Cs"}, "17": {"label": "*2", "atom_type": "H0"}}

>  <type>  (11) 
unop_7

>  <geom_source>  (11) 
Heuristics

$$$$

     RDKit          3D

 18 16  0  0  0  0  0  0  0  0999 V2000
    1.5775   -0.9268    0.8398 C   0  0  0  0  0  0  0  0  0  0  0  0
    2.4685   -0.2232    0.0356 O   0  0  0  0  0  0  0  0  0  0  0  0
    2.2083    1.0376   -0.3664 N   0  0  0  0  0  0  0  0  0  0  0  0
    1.1012    1.6056   -0.1572 C   0  0  0  0  0  0  0  0  0  0  0  0
    2.0966   -1.8237    1.1612 H   0  0  0  0  0  0  0  0  0  0  0  0
    1.1859   -0.3467    1.6769 H   0  0  0  0  0  0  0  0  0  0  0  0
    1.0241    2.6161   -0.5188 H   0  0  0  0  0  0  0  0  0  0  0  0
    0.2281    1.1733    0.3256 H   0  0  0  0  0  0  0  0  0  0  0  0
   -3.4358    0.9822    0.3069 C   0  0  0  0  0  0  0  0  0  0  0  0
   -2.4048    0.0146    0.0085 C   0  0  0  0  0  3  0  0  0  0  0  0
   -1.5805   -0.8232   -0.2707 C   0  0  0  0  0  0  0  0  0  0  0  0
   -0.5378   -1.7273   -0.5349 C   0  0  0  0  0  0  0  0  0  0  0  0
   -3.5206    1.1208    1.3855 H   0  0  0  0  0  0  0  0  0  0  0  0
   -4.3974    0.6381   -0.0764 H   0  0  0  0  0  0  0  0  0  0  0  0
   -3.1972    1.9402   -0.1563 H   0  0  0  0  0  0  0  0  0  0  0  0
   -0.1909   -1.7201   -1.5631 H   0  0  0  0  0  0  0  0  0  0  0  0
   -0.7055   -2.7283   -0.1520 H   0  0  0  0  0  0  0  0  0  0  0  0
    0.5280   -1.3203    0.1503 H   0  0  0  0  0  0  0  0  0  0  0  0
  1  2  1  0
  1  5  1  0
  1  6  1  0
  1 18  1  0
  2  3  1  0
  3  4  2  3
  4  7  1  0
  4  8  1  0
  9 10  1  0
  9 13  1  0
  9 14  1  0
  9 15  1  0
 10 11  2  0
 11 12  2  0
 12 16  1  0
 12 17  1  0
M  RAD  1  10   2
M  END
>  <reaction>  (12) 
rmg_rxn_15585

>  <mol_properties>  (12) 
{"0": {"label": "*3", "atom_type": "Cs"}, "1": {"label": "*4", "atom_type": "O2s"}, "10": {"label": "*0", "atom_type": "Ct"}, "11": {"label": "*1", "atom_type": "Cs"}, "17": {"label": "*2", "atom_type": "H0"}}

>  <type>  (12) 
unop_8

>  <geom_source>  (12) 
Heuristics

$$$$

     RDKit          3D

 18 16  0  0  0  0  0  0  0  0999 V2000
   -0.2213   -0.9419    0.6054 C   0  0  0  0  0  0  0  0  0  0  0  0
    0.4587   -0.8736    1.8434 O   0  0  0  0  0  0  0  0  0  0  0  0
    0.0409   -1.8983    2.6584 N   0  0  0  0  0  0  0  0  0  0  0  0
    0.6224   -1.8792    3.7801 C   0  0  0  0  0  0  0  0  0  0  0  0
   -0.0083   -1.8834    0.0941 H   0  0  0  0  0  0  0  0  0  0  0  0
   -1.2996   -0.8386    0.7457 H   0  0  0  0  0  0  0  0  0  0  0  0
    0.3482   -2.6557    4.4817 H   0  0  0  0  0  0  0  0  0  0  0  0
    1.3635   -1.1275    4.0434 H   0  0  0  0  0  0  0  0  0  0  0  0
   -0.2430    1.5019   -4.4406 C   0  0  0  0  0  0  0  0  0  0  0  0
   -0.2430    1.5019   -2.9833 C   0  0  0  0  0  3  0  0  0  0  0  0
   -0.2430    1.5019   -1.7849 C   0  0  0  0  0  0  0  0  0  0  0  0
   -0.2430    1.5019   -0.3276 C   0  0  0  0  0  0  0  0  0  0  0  0
   -1.1492    1.9690   -4.8299 H   0  0  0  0  0  0  0  0  0  0  0  0
   -0.1945    0.4835   -4.8300 H   0  0  0  0  0  0  0  0  0  0  0  0
    0.6146    2.0531   -4.8300 H   0  0  0  0  0  0  0  0  0  0  0  0
   -1.1304    2.0037    0.0617 H   0  0  0  0  0  0  0  0  0  0  0  0
    0.6354    2.0194    0.0618 H   0  0  0  0  0  0  0  0  0  0  0  0
   -0.2321    0.2785    0.1395 H   0  0  0  0  0  0  0  0  0  0  0  0
  1  2  1  0
  1  5  1  0
  1  6  1  0
  1 18  1  0
  2  3  1  0
  3  4  2  3
  4  7  1  0
  4  8  1  0
  9 10  1  0
  9 13  1  0
  9 14  1  0
  9 15  1  0
 10 11  2  0
 11 12  2  0
 12 16  1  0
 12 17  1  0
M  RAD  1  10   2
M  END
>  <reaction>  (13) 
rmg_rxn_15585

>  <mol_properties>  (13) 
{"0": {"label": "*3", "atom_type": "Cs"}, "1": {"label": "*4", "atom_type": "O2s"}, "10": {"label": "*0", "atom_type": "Ct"}, "11": {"label": "*1", "atom_type": "Cs"}, "17": {"label": "*2", "atom_type": "H0"}}

>  <type>  (13) 
unop_9

>  <geom_source>  (13) 
Heuristics

$$$$

     RDKit          3D

 18 16  0  0  0  0  0  0  0  0999 V2000
    0.7207   -0.6269    1.4537 C   0  0  0  0  0  0  0  0  0  0  0  0
   -0.4526   -1.2382    0.9547 O   0  0  0  0  0  0  0  0  0  0  0  0
   -0.9141   -2.1632    1.8604 N   0  0  0  0  0  0  0  0  0  0  0  0
   -1.9648   -2.7380    1.4576 C   0  0  0  0  0  0  0  0  0  0  0  0
    0.5204   -0.1046    2.3919 H   0  0  0  0  0  0  0  0  0  0  0  0
    1.5105   -1.3654    1.6087 H   0  0  0  0  0  0  0  0  0  0  0  0
   -2.3927   -3.4826    2.1154 H   0  0  0  0  0  0  0  0  0  0  0  0
   -2.4287   -2.5080    0.5008 H   0  0  0  0  0  0  0  0  0  0  0  0
    0.6990    1.8169   -3.5923 C   0  0  0  0  0  0  0  0  0  0  0  0
    0.6990    1.8169   -2.1350 C   0  0  0  0  0  3  0  0  0  0  0  0
    0.6990    1.8169   -0.9365 C   0  0  0  0  0  0  0  0  0  0  0  0
    0.6990    1.8169    0.5207 C   0  0  0  0  0  0  0  0  0  0  0  0
   -0.2072    2.2841   -3.9816 H   0  0  0  0  0  0  0  0  0  0  0  0
    0.7475    0.7986   -3.9816 H   0  0  0  0  0  0  0  0  0  0  0  0
    1.5566    2.3682   -3.9817 H   0  0  0  0  0  0  0  0  0  0  0  0
   -0.1884    2.3188    0.9101 H   0  0  0  0  0  0  0  0  0  0  0  0
    1.5774    2.3344    0.9101 H   0  0  0  0  0  0  0  0  0  0  0  0
    0.7099    0.5935    0.9878 H   0  0  0  0  0  0  0  0  0  0  0  0
  1  2  1  0
  1  5  1  0
  1  6  1  0
  1 18  1  0
  2  3  1  0
  3  4  2  3
  4  7  1  0
  4  8  1  0
  9 10  1  0
  9 13  1  0
  9 14  1  0
  9 15  1  0
 10 11  2  0
 11 12  2  0
 12 16  1  0
 12 17  1  0
M  RAD  1  10   2
M  END
>  <reaction>  (14) 
rmg_rxn_15585

>  <mol_properties>  (14) 
{"0": {"label": "*3", "atom_type": "Cs"}, "1": {"label": "*4", "atom_type": "O2s"}, "10": {"label": "*0", "atom_type": "Ct"}, "11": {"label": "*1", "atom_type": "Cs"}, "17": {"label": "*2", "atom_type": "H0"}}

>  <type>  (14) 
unop_10

>  <geom_source>  (14) 
Heuristics

$$$$

     RDKit          3D

 18 16  0  0  0  0  0  0  0  0999 V2000
    0.6789    1.6276   -0.0266 C   0  0  0  0  0  0  0  0  0  0  0  0
    1.9932    1.1287    0.0018 O   0  0  0  0  0  0  0  0  0  0  0  0
    2.0094   -0.2505   -0.0031 N   0  0  0  0  0  0  0  0  0  0  0  0
    3.1429   -0.7957    0.0236 C   0  0  0  0  0  0  0  0  0  0  0  0
    0.7489    2.7069   -0.0469 H   0  0  0  0  0  0  0  0  0  0  0  0
    0.0678    1.2258   -0.8107 H   0  0  0  0  0  0  0  0  0  0  0  0
    3.1623   -1.8716    0.0194 H   0  0  0  0  0  0  0  0  0  0  0  0
    4.0827   -0.2527    0.0498 H   0  0  0  0  0  0  0  0  0  0  0  0
   -0.8267   -2.0046   -0.0167 C   0  0  0  0  0  0  0  0  0  0  0  0
   -1.7981   -0.9422   -0.0039 C   0  0  0  0  0  3  0  0  0  0  0  0
   -2.5992   -0.0190    0.0069 C   0  0  0  0  0  0  0  0  0  0  0  0
   -3.4868    1.0013    0.0189 C   0  0  0  0  0  0  0  0  0  0  0  0
   -0.9415   -2.6335    0.8674 H   0  0  0  0  0  0  0  0  0  0  0  0
    0.1835   -1.5829   -0.0158 H   0  0  0  0  0  0  0  0  0  0  0  0
   -0.9477   -2.6181   -0.9105 H   0  0  0  0  0  0  0  0  0  0  0  0
   -3.8266    1.4238    0.9473 H   0  0  0  0  0  0  0  0  0  0  0  0
   -3.8739    1.4047   -0.8995 H   0  0  0  0  0  0  0  0  0  0  0  0
    0.0419    1.2591    0.7860 H   0  0  0  0  0  0  0  0  0  0  0  0
  1  2  1  0
  1  5  1  0
  1  6  1  0
  1 18  1  0
  2  3  1  0
  3  4  2  3
  4  7  1  0
  4  8  1  0
  9 10  1  0
  9 13  1  0
  9 14  1  0
  9 15  1  0
 10 11  2  0
 11 12  2  0
 12 16  1  0
 12 17  1  0
M  RAD  1  10   2
M  END
>  <reaction>  (15) 
rmg_rxn_15585

>  <mol_properties>  (15) 
{"0": {"label": "*3", "atom_type": "Cs"}, "1": {"label": "*4", "atom_type": "O2s"}, "10": {"label": "*0", "atom_type": "Ct"}, "11": {"label": "*1", "atom_type": "Cs"}, "17": {"label": "*2", "atom_type": "H0"}}

>  <type>  (15) 
unop_11

>  <geom_source>  (15) 
Heuristics

$$$$

     RDKit          3D

 18 16  0  0  0  0  0  0  0  0999 V2000
    0.0081   -0.9132    0.5822 C   0  0  0  0  0  0  0  0  0  0  0  0
    0.0070   -0.7859    1.9905 O   0  0  0  0  0  0  0  0  0  0  0  0
    0.0181   -2.0329    2.5682 N   0  0  0  0  0  0  0  0  0  0  0  0
    0.0175   -1.9708    3.8303 C   0  0  0  0  0  0  0  0  0  0  0  0
    0.9049   -1.4330    0.2376 H   0  0  0  0  0  0  0  0  0  0  0  0
   -0.8793   -1.4489    0.2376 H   0  0  0  0  0  0  0  0  0  0  0  0
    0.0259   -2.9128    4.3621 H   0  0  0  0  0  0  0  0  0  0  0  0
    0.0091   -1.0266    4.3707 H   0  0  0  0  0  0  0  0  0  0  0  0
   -0.0136    1.5306   -4.4638 C   0  0  0  0  0  0  0  0  0  0  0  0
   -0.0136    1.5306   -3.0066 C   0  0  0  0  0  3  0  0  0  0  0  0
   -0.0136    1.5306   -1.8081 C   0  0  0  0  0  0  0  0  0  0  0  0
   -0.0136    1.5306   -0.3508 C   0  0  0  0  0  0  0  0  0  0  0  0
   -0.9199    1.9977   -4.8532 H   0  0  0  0  0  0  0  0  0  0  0  0
    0.0349    0.5123   -4.8532 H   0  0  0  0  0  0  0  0  0  0  0  0
    0.8440    2.0819   -4.8532 H   0  0  0  0  0  0  0  0  0  0  0  0
   -0.9011    2.0324    0.0385 H   0  0  0  0  0  0  0  0  0  0  0  0
    0.8648    2.0481    0.0385 H   0  0  0  0  0  0  0  0  0  0  0  0
   -0.0027    0.3072    0.1163 H   0  0  0  0  0  0  0  0  0  0  0  0
  1  2  1  0
  1  5  1  0
  1  6  1  0
  1 18  1  0
  2  3  1  0
  3  4  2  3
  4  7  1  0
  4  8  1  0
  9 10  1  0
  9 13  1  0
  9 14  1  0
  9 15  1  0
 10 11  2  0
 11 12  2  0
 12 16  1  0
 12 17  1  0
M  RAD  1  10   2
M  END
>  <reaction>  (16) 
rmg_rxn_15585

>  <mol_properties>  (16) 
{"0": {"label": "*3", "atom_type": "Cs"}, "1": {"label": "*4", "atom_type": "O2s"}, "10": {"label": "*0", "atom_type": "Ct"}, "11": {"label": "*1", "atom_type": "Cs"}, "17": {"label": "*2", "atom_type": "H0"}}

>  <type>  (16) 
unop_12

>  <geom_source>  (16) 
Heuristics

$$$$

     RDKit          3D

 18 16  0  0  0  0  0  0  0  0999 V2000
   -1.8063   -1.3171   -0.1470 C   0  0  0  0  0  0  0  0  0  0  0  0
   -1.6818    0.0002   -0.5675 O   0  0  0  0  0  0  0  0  0  0  0  0
   -1.5448    0.8757    0.4888 N   0  0  0  0  0  0  0  0  0  0  0  0
   -1.2995    2.0746    0.1820 C   0  0  0  0  0  0  0  0  0  0  0  0
   -2.3366   -1.4140    0.7980 H   0  0  0  0  0  0  0  0  0  0  0  0
   -2.2488   -1.8865   -0.9578 H   0  0  0  0  0  0  0  0  0  0  0  0
   -1.2076    2.7681    0.9986 H   0  0  0  0  0  0  0  0  0  0  0  0
   -1.1861    2.4358   -0.8357 H   0  0  0  0  0  0  0  0  0  0  0  0
    2.7632    1.3041   -0.2007 C   0  0  0  0  0  0  0  0  0  0  0  0
    2.0274    0.0713   -0.0362 C   0  0  0  0  0  3  0  0  0  0  0  0
    1.4497   -0.9784    0.1129 C   0  0  0  0  0  0  0  0  0  0  0  0
    0.6723   -2.1392    0.2649 C   0  0  0  0  0  0  0  0  0  0  0  0
    3.7754    1.1972    0.1927 H   0  0  0  0  0  0  0  0  0  0  0  0
    2.2626    2.1098    0.3381 H   0  0  0  0  0  0  0  0  0  0  0  0
    2.8230    1.5679   -1.2569 H   0  0  0  0  0  0  0  0  0  0  0  0
    0.6605   -2.5405    1.2727 H   0  0  0  0  0  0  0  0  0  0  0  0
    0.8462   -2.8976   -0.4912 H   0  0  0  0  0  0  0  0  0  0  0  0
   -0.5906   -1.7784    0.0601 H   0  0  0  0  0  0  0  0  0  0  0  0
  1  2  1  0
  1  5  1  0
  1  6  1  0
  1 18  1  0
  2  3  1  0
  3  4  2  3
  4  7  1  0
  4  8  1  0
  9 10  1  0
  9 13  1  0
  9 14  1  0
  9 15  1  0
 10 11  2  0
 11 12  2  0
 12 16  1  0
 12 17  1  0
M  RAD  1  10   2
M  END
>  <reaction>  (17) 
rmg_rxn_15585

>  <mol_properties>  (17) 
{"0": {"label": "*3", "atom_type": "Cs"}, "1": {"label": "*4", "atom_type": "O2s"}, "10": {"label": "*0", "atom_type": "Ct"}, "11": {"label": "*1", "atom_type": "Cs"}, "17": {"label": "*2", "atom_type": "H0"}}

>  <type>  (17) 
unop_13

>  <geom_source>  (17) 
Heuristics

$$$$

     RDKit          3D

 18 16  0  0  0  0  0  0  0  0999 V2000
    1.5740    0.9264    0.8410 C   0  0  0  0  0  0  0  0  0  0  0  0
    2.4691    0.2247    0.0398 O   0  0  0  0  0  0  0  0  0  0  0  0
    2.2118   -1.0358   -0.3651 N   0  0  0  0  0  0  0  0  0  0  0  0
    1.1039   -1.6046   -0.1623 C   0  0  0  0  0  0  0  0  0  0  0  0
    1.1796    0.3449    1.6757 H   0  0  0  0  0  0  0  0  0  0  0  0
    2.0909    1.8234    1.1657 H   0  0  0  0  0  0  0  0  0  0  0  0
    1.0291   -2.6147   -0.5257 H   0  0  0  0  0  0  0  0  0  0  0  0
    0.2281   -1.1733    0.3166 H   0  0  0  0  0  0  0  0  0  0  0  0
   -3.4362   -0.9827    0.3092 C   0  0  0  0  0  0  0  0  0  0  0  0
   -2.4056   -0.0151    0.0094 C   0  0  0  0  0  3  0  0  0  0  0  0
   -1.5813    0.8216   -0.2728 C   0  0  0  0  0  0  0  0  0  0  0  0
   -0.5389    1.7257   -0.5380 C   0  0  0  0  0  0  0  0  0  0  0  0
   -3.2319   -1.9214   -0.2066 H   0  0  0  0  0  0  0  0  0  0  0  0
   -4.4087   -0.6094   -0.0147 H   0  0  0  0  0  0  0  0  0  0  0  0
   -3.4757   -1.1692    1.3832 H   0  0  0  0  0  0  0  0  0  0  0  0
   -0.7070    2.7271   -0.1565 H   0  0  0  0  0  0  0  0  0  0  0  0
   -0.1920    1.7173   -1.5661 H   0  0  0  0  0  0  0  0  0  0  0  0
    0.5264    1.3194    0.1483 H   0  0  0  0  0  0  0  0  0  0  0  0
  1  2  1  0
  1  5  1  0
  1  6  1  0
  1 18  1  0
  2  3  1  0
  3  4  2  3
  4  7  1  0
  4  8  1  0
  9 10  1  0
  9 13  1  0
  9 14  1  0
  9 15  1  0
 10 11  2  0
 11 12  2  0
 12 16  1  0
 12 17  1  0
M  RAD  1  10   2
M  END
>  <reaction>  (18) 
rmg_rxn_15585

>  <mol_properties>  (18) 
{"0": {"label": "*3", "atom_type": "Cs"}, "1": {"label": "*4", "atom_type": "O2s"}, "10": {"label": "*0", "atom_type": "Ct"}, "11": {"label": "*1", "atom_type": "Cs"}, "17": {"label": "*2", "atom_type": "H0"}}

>  <type>  (18) 
unop_14

>  <geom_source>  (18) 
Heuristics

$$$$

     RDKit          3D

 18 16  0  0  0  0  0  0  0  0999 V2000
    0.7355   -0.7959    1.0717 C   0  0  0  0  0  0  0  0  0  0  0  0
   -0.6224   -1.1662    1.2085 O   0  0  0  0  0  0  0  0  0  0  0  0
   -0.7871   -1.9084    2.3533 N   0  0  0  0  0  0  0  0  0  0  0  0
   -1.9882   -2.2638    2.5194 C   0  0  0  0  0  0  0  0  0  0  0  0
    1.0605   -0.1840    1.9161 H   0  0  0  0  0  0  0  0  0  0  0  0
    1.3749   -1.6780    0.9927 H   0  0  0  0  0  0  0  0  0  0  0  0
   -2.2019   -2.8535    3.4008 H   0  0  0  0  0  0  0  0  0  0  0  0
   -2.7797   -1.9991    1.8215 H   0  0  0  0  0  0  0  0  0  0  0  0
    0.7137    1.6479   -3.9743 C   0  0  0  0  0  0  0  0  0  0  0  0
    0.7137    1.6479   -2.5170 C   0  0  0  0  0  3  0  0  0  0  0  0
    0.7137    1.6479   -1.3185 C   0  0  0  0  0  0  0  0  0  0  0  0
    0.7137    1.6479    0.1387 C   0  0  0  0  0  0  0  0  0  0  0  0
   -0.1925    2.1150   -4.3636 H   0  0  0  0  0  0  0  0  0  0  0  0
    0.7622    0.6296   -4.3636 H   0  0  0  0  0  0  0  0  0  0  0  0
    1.5713    2.1992   -4.3637 H   0  0  0  0  0  0  0  0  0  0  0  0
   -0.1737    2.1497    0.5280 H   0  0  0  0  0  0  0  0  0  0  0  0
    1.5921    2.1654    0.5281 H   0  0  0  0  0  0  0  0  0  0  0  0
    0.7246    0.4245    0.6058 H   0  0  0  0  0  0  0  0  0  0  0  0
  1  2  1  0
  1  5  1  0
  1  6  1  0
  1 18  1  0
  2  3  1  0
  3  4  2  3
  4  7  1  0
  4  8  1  0
  9 10  1  0
  9 13  1  0
  9 14  1  0
  9 15  1  0
 10 11  2  0
 11 12  2  0
 12 16  1  0
 12 17  1  0
M  RAD  1  10   2
M  END
>  <reaction>  (19) 
rmg_rxn_15585

>  <mol_properties>  (19) 
{"0": {"label": "*3", "atom_type": "Cs"}, "1": {"label": "*4", "atom_type": "O2s"}, "10": {"label": "*0", "atom_type": "Ct"}, "11": {"label": "*1", "atom_type": "Cs"}, "17": {"label": "*2", "atom_type": "H0"}}

>  <type>  (19) 
unop_15

>  <geom_source>  (19) 
Heuristics

$$$$

     RDKit          3D

 18 16  0  0  0  0  0  0  0  0999 V2000
   -1.8112    1.3130    0.1361 C   0  0  0  0  0  0  0  0  0  0  0  0
   -1.6845   -0.0020    0.5634 O   0  0  0  0  0  0  0  0  0  0  0  0
   -1.5365   -0.8818   -0.4877 N   0  0  0  0  0  0  0  0  0  0  0  0
   -1.2872   -2.0779   -0.1737 C   0  0  0  0  0  0  0  0  0  0  0  0
   -2.3327    1.4032   -0.8144 H   0  0  0  0  0  0  0  0  0  0  0  0
   -2.2642    1.8839    0.9400 H   0  0  0  0  0  0  0  0  0  0  0  0
   -1.1870   -2.7749   -0.9864 H   0  0  0  0  0  0  0  0  0  0  0  0
   -1.1783   -2.4337    0.8465 H   0  0  0  0  0  0  0  0  0  0  0  0
    2.7611   -1.3004    0.1946 C   0  0  0  0  0  0  0  0  0  0  0  0
    2.0248   -0.0671    0.0358 C   0  0  0  0  0  3  0  0  0  0  0  0
    1.4461    0.9827   -0.1084 C   0  0  0  0  0  0  0  0  0  0  0  0
    0.6678    2.1435   -0.2557 C   0  0  0  0  0  0  0  0  0  0  0  0
    2.2291   -2.1157   -0.2977 H   0  0  0  0  0  0  0  0  0  0  0  0
    2.8726   -1.5382    1.2527 H   0  0  0  0  0  0  0  0  0  0  0  0
    3.7524   -1.2106   -0.2523 H   0  0  0  0  0  0  0  0  0  0  0  0
    0.6613    2.5530   -1.2603 H   0  0  0  0  0  0  0  0  0  0  0  0
    0.8360    2.8961    0.5075 H   0  0  0  0  0  0  0  0  0  0  0  0
   -0.5956    1.7789   -0.0613 H   0  0  0  0  0  0  0  0  0  0  0  0
  1  2  1  0
  1  5  1  0
  1  6  1  0
  1 18  1  0
  2  3  1  0
  3  4  2  3
  4  7  1  0
  4  8  1  0
  9 10  1  0
  9 13  1  0
  9 14  1  0
  9 15  1  0
 10 11  2  0
 11 12  2  0
 12 16  1  0
 12 17  1  0
M  RAD  1  10   2
M  END
>  <reaction>  (20) 
rmg_rxn_15585

>  <mol_properties>  (20) 
{"0": {"label": "*3", "atom_type": "Cs"}, "1": {"label": "*4", "atom_type": "O2s"}, "10": {"label": "*0", "atom_type": "Ct"}, "11": {"label": "*1", "atom_type": "Cs"}, "17": {"label": "*2", "atom_type": "H0"}}

>  <type>  (20) 
unop_16

>  <geom_source>  (20) 
Heuristics

$$$$

     RDKit          3D

 18 16  0  0  0  0  0  0  0  0999 V2000
    0.5344   -0.9134    0.7604 C   0  0  0  0  0  0  0  0  0  0  0  0
   -0.6433   -1.0393    1.5330 O   0  0  0  0  0  0  0  0  0  0  0  0
   -0.3867   -1.8012    2.6476 N   0  0  0  0  0  0  0  0  0  0  0  0
   -1.4125   -1.9425    3.3718 C   0  0  0  0  0  0  0  0  0  0  0  0
    1.3239   -0.4174    1.3296 H   0  0  0  0  0  0  0  0  0  0  0  0
    0.8867   -1.8908    0.4231 H   0  0  0  0  0  0  0  0  0  0  0  0
   -1.2935   -2.5313    4.2715 H   0  0  0  0  0  0  0  0  0  0  0  0
   -2.3742   -1.5013    3.1185 H   0  0  0  0  0  0  0  0  0  0  0  0
    0.5127    1.5304   -4.2856 C   0  0  0  0  0  0  0  0  0  0  0  0
    0.5127    1.5304   -2.8283 C   0  0  0  0  0  3  0  0  0  0  0  0
    0.5127    1.5304   -1.6298 C   0  0  0  0  0  0  0  0  0  0  0  0
    0.5127    1.5304   -0.1726 C   0  0  0  0  0  0  0  0  0  0  0  0
   -0.3936    1.9975   -4.6749 H   0  0  0  0  0  0  0  0  0  0  0  0
    0.5612    0.5121   -4.6749 H   0  0  0  0  0  0  0  0  0  0  0  0
    1.3703    2.0817   -4.6750 H   0  0  0  0  0  0  0  0  0  0  0  0
   -0.3748    2.0322    0.2168 H   0  0  0  0  0  0  0  0  0  0  0  0
    1.3911    2.0479    0.2168 H   0  0  0  0  0  0  0  0  0  0  0  0
    0.5236    0.3070    0.2945 H   0  0  0  0  0  0  0  0  0  0  0  0
  1  2  1  0
  1  5  1  0
  1  6  1  0
  1 18  1  0
  2  3  1  0
  3  4  2  3
  4  7  1  0
  4  8  1  0
  9 10  1  0
  9 13  1  0
  9 14  1  0
  9 15  1  0
 10 11  2  0
 11 12  2  0
 12 16  1  0
 12 17  1  0
M  RAD  1  10   2
M  END
>  <reaction>  (21) 
rmg_rxn_15585

>  <mol_properties>  (21) 
{"0": {"label": "*3", "atom_type": "Cs"}, "1": {"label": "*4", "atom_type": "O2s"}, "10": {"label": "*0", "atom_type": "Ct"}, "11": {"label": "*1", "atom_type": "Cs"}, "17": {"label": "*2", "atom_type": "H0"}}

>  <type>  (21) 
unop_17

>  <geom_source>  (21) 
Heuristics

$$$$

     RDKit          3D

 18 16  0  0  0  0  0  0  0  0999 V2000
   -1.8071   -1.3170    0.1423 C   0  0  0  0  0  0  0  0  0  0  0  0
   -1.6840   -0.0005    0.5658 O   0  0  0  0  0  0  0  0  0  0  0  0
   -1.5437    0.8772   -0.4882 N   0  0  0  0  0  0  0  0  0  0  0  0
   -1.2987    2.0752   -0.1783 C   0  0  0  0  0  0  0  0  0  0  0  0
   -2.2532   -1.8878    0.9501 H   0  0  0  0  0  0  0  0  0  0  0  0
   -2.3334   -1.4119   -0.8051 H   0  0  0  0  0  0  0  0  0  0  0  0
   -1.2043    2.7705   -0.9931 H   0  0  0  0  0  0  0  0  0  0  0  0
   -1.1877    2.4343    0.8406 H   0  0  0  0  0  0  0  0  0  0  0  0
    2.7638    1.3041    0.1979 C   0  0  0  0  0  0  0  0  0  0  0  0
    2.0276    0.0712    0.0361 C   0  0  0  0  0  3  0  0  0  0  0  0
    1.4501   -0.9789   -0.1110 C   0  0  0  0  0  0  0  0  0  0  0  0
    0.6727   -2.1400   -0.2610 C   0  0  0  0  0  0  0  0  0  0  0  0
    2.2587    2.1105   -0.3356 H   0  0  0  0  0  0  0  0  0  0  0  0
    3.7731    1.1987   -0.2031 H   0  0  0  0  0  0  0  0  0  0  0  0
    2.8311    1.5657    1.2542 H   0  0  0  0  0  0  0  0  0  0  0  0
    0.8445   -2.8960    0.4980 H   0  0  0  0  0  0  0  0  0  0  0  0
    0.6633   -2.5447   -1.2675 H   0  0  0  0  0  0  0  0  0  0  0  0
   -0.5907   -1.7784   -0.0606 H   0  0  0  0  0  0  0  0  0  0  0  0
  1  2  1  0
  1  5  1  0
  1  6  1  0
  1 18  1  0
  2  3  1  0
  3  4  2  3
  4  7  1  0
  4  8  1  0
  9 10  1  0
  9 13  1  0
  9 14  1  0
  9 15  1  0
 10 11  2  0
 11 12  2  0
 12 16  1  0
 12 17  1  0
M  RAD  1  10   2
M  END
>  <reaction>  (22) 
rmg_rxn_15585

>  <mol_properties>  (22) 
{"0": {"label": "*3", "atom_type": "Cs"}, "1": {"label": "*4", "atom_type": "O2s"}, "10": {"label": "*0", "atom_type": "Ct"}, "11": {"label": "*1", "atom_type": "Cs"}, "17": {"label": "*2", "atom_type": "H0"}}

>  <type>  (22) 
unop_18

>  <geom_source>  (22) 
Heuristics

$$$$

     RDKit          3D

 18 16  0  0  0  0  0  0  0  0999 V2000
   -0.7212   -0.8089    1.0717 C   0  0  0  0  0  0  0  0  0  0  0  0
    0.6431   -1.1549    1.2085 O   0  0  0  0  0  0  0  0  0  0  0  0
    0.8209   -1.8941    2.3533 N   0  0  0  0  0  0  0  0  0  0  0  0
    2.0282   -2.2281    2.5194 C   0  0  0  0  0  0  0  0  0  0  0  0
   -1.3448   -1.7022    0.9928 H   0  0  0  0  0  0  0  0  0  0  0  0
   -1.0570   -0.2028    1.9161 H   0  0  0  0  0  0  0  0  0  0  0  0
    2.2523   -2.8139    3.4008 H   0  0  0  0  0  0  0  0  0  0  0  0
    2.8148   -1.9493    1.8216 H   0  0  0  0  0  0  0  0  0  0  0  0
   -0.7429    1.6350   -3.9743 C   0  0  0  0  0  0  0  0  0  0  0  0
   -0.7429    1.6350   -2.5170 C   0  0  0  0  0  3  0  0  0  0  0  0
   -0.7429    1.6350   -1.3185 C   0  0  0  0  0  0  0  0  0  0  0  0
   -0.7429    1.6350    0.1387 C   0  0  0  0  0  0  0  0  0  0  0  0
   -1.6491    2.1021   -4.3636 H   0  0  0  0  0  0  0  0  0  0  0  0
   -0.6944    0.6166   -4.3636 H   0  0  0  0  0  0  0  0  0  0  0  0
    0.1147    2.1862   -4.3637 H   0  0  0  0  0  0  0  0  0  0  0  0
   -1.6303    2.1368    0.5280 H   0  0  0  0  0  0  0  0  0  0  0  0
    0.1355    2.1524    0.5281 H   0  0  0  0  0  0  0  0  0  0  0  0
   -0.7320    0.4115    0.6058 H   0  0  0  0  0  0  0  0  0  0  0  0
  1  2  1  0
  1  5  1  0
  1  6  1  0
  1 18  1  0
  2  3  1  0
  3  4  2  3
  4  7  1  0
  4  8  1  0
  9 10  1  0
  9 13  1  0
  9 14  1  0
  9 15  1  0
 10 11  2  0
 11 12  2  0
 12 16  1  0
 12 17  1  0
M  RAD  1  10   2
M  END
>  <reaction>  (23) 
rmg_rxn_15585

>  <mol_properties>  (23) 
{"0": {"label": "*3", "atom_type": "Cs"}, "1": {"label": "*4", "atom_type": "O2s"}, "10": {"label": "*0", "atom_type": "Ct"}, "11": {"label": "*1", "atom_type": "Cs"}, "17": {"label": "*2", "atom_type": "H0"}}

>  <type>  (23) 
unop_19

>  <geom_source>  (23) 
Heuristics

$$$$

     RDKit          3D

 18 16  0  0  0  0  0  0  0  0999 V2000
    1.5778    0.9274   -0.8383 C   0  0  0  0  0  0  0  0  0  0  0  0
    2.4683    0.2231   -0.0342 O   0  0  0  0  0  0  0  0  0  0  0  0
    2.2083   -1.0383    0.3659 N   0  0  0  0  0  0  0  0  0  0  0  0
    1.1011   -1.6060    0.1561 C   0  0  0  0  0  0  0  0  0  0  0  0
    2.0973    1.8245   -1.1589 H   0  0  0  0  0  0  0  0  0  0  0  0
    1.1867    0.3480   -1.6761 H   0  0  0  0  0  0  0  0  0  0  0  0
    1.0242   -2.6172    0.5158 H   0  0  0  0  0  0  0  0  0  0  0  0
    0.2278   -1.1728   -0.3255 H   0  0  0  0  0  0  0  0  0  0  0  0
   -3.4347   -0.9837   -0.3057 C   0  0  0  0  0  0  0  0  0  0  0  0
   -2.4042   -0.0152   -0.0085 C   0  0  0  0  0  3  0  0  0  0  0  0
   -1.5810    0.8239    0.2699 C   0  0  0  0  0  0  0  0  0  0  0  0
   -0.5391    1.7292    0.5331 C   0  0  0  0  0  0  0  0  0  0  0  0
   -3.4337   -1.2190   -1.3709 H   0  0  0  0  0  0  0  0  0  0  0  0
   -4.4144   -0.5847   -0.0391 H   0  0  0  0  0  0  0  0  0  0  0  0
   -3.2635   -1.9000    0.2599 H   0  0  0  0  0  0  0  0  0  0  0  0
   -0.1937    1.7250    1.5618 H   0  0  0  0  0  0  0  0  0  0  0  0
   -0.7068    2.7291    0.1472 H   0  0  0  0  0  0  0  0  0  0  0  0
    0.5277    1.3209   -0.1496 H   0  0  0  0  0  0  0  0  0  0  0  0
  1  2  1  0
  1  5  1  0
  1  6  1  0
  1 18  1  0
  2  3  1  0
  3  4  2  3
  4  7  1  0
  4  8  1  0
  9 10  1  0
  9 13  1  0
  9 14  1  0
  9 15  1  0
 10 11  2  0
 11 12  2  0
 12 16  1  0
 12 17  1  0
M  RAD  1  10   2
M  END
>  <reaction>  (24) 
rmg_rxn_15585

>  <mol_properties>  (24) 
{"0": {"label": "*3", "atom_type": "Cs"}, "1": {"label": "*4", "atom_type": "O2s"}, "10": {"label": "*0", "atom_type": "Ct"}, "11": {"label": "*1", "atom_type": "Cs"}, "17": {"label": "*2", "atom_type": "H0"}}

>  <type>  (24) 
unop_20

>  <geom_source>  (24) 
Heuristics

$$$$

     RDKit          3D

 18 16  0  0  0  0  0  0  0  0999 V2000
    0.4542   -0.4714    1.7765 C   0  0  0  0  0  0  0  0  0  0  0  0
   -0.2194   -1.2560    0.8120 O   0  0  0  0  0  0  0  0  0  0  0  0
   -0.6215   -2.4418    1.3785 N   0  0  0  0  0  0  0  0  0  0  0  0
   -1.2301   -3.1795    0.5526 C   0  0  0  0  0  0  0  0  0  0  0  0
   -0.2034   -0.2346    2.6159 H   0  0  0  0  0  0  0  0  0  0  0  0
    1.3454   -0.9848    2.1446 H   0  0  0  0  0  0  0  0  0  0  0  0
   -1.5803   -4.1342    0.9216 H   0  0  0  0  0  0  0  0  0  0  0  0
   -1.4019   -2.8852   -0.4806 H   0  0  0  0  0  0  0  0  0  0  0  0
    0.4325    1.9724   -3.2695 C   0  0  0  0  0  0  0  0  0  0  0  0
    0.4325    1.9724   -1.8123 C   0  0  0  0  0  3  0  0  0  0  0  0
    0.4325    1.9724   -0.6138 C   0  0  0  0  0  0  0  0  0  0  0  0
    0.4325    1.9724    0.8435 C   0  0  0  0  0  0  0  0  0  0  0  0
   -0.4737    2.4395   -3.6588 H   0  0  0  0  0  0  0  0  0  0  0  0
    0.4810    0.9541   -3.6589 H   0  0  0  0  0  0  0  0  0  0  0  0
    1.2901    2.5237   -3.6589 H   0  0  0  0  0  0  0  0  0  0  0  0
   -0.4549    2.4742    1.2328 H   0  0  0  0  0  0  0  0  0  0  0  0
    1.3109    2.4899    1.2329 H   0  0  0  0  0  0  0  0  0  0  0  0
    0.4434    0.7490    1.3106 H   0  0  0  0  0  0  0  0  0  0  0  0
  1  2  1  0
  1  5  1  0
  1  6  1  0
  1 18  1  0
  2  3  1  0
  3  4  2  3
  4  7  1  0
  4  8  1  0
  9 10  1  0
  9 13  1  0
  9 14  1  0
  9 15  1  0
 10 11  2  0
 11 12  2  0
 12 16  1  0
 12 17  1  0
M  RAD  1  10   2
M  END
>  <reaction>  (25) 
rmg_rxn_15585

>  <mol_properties>  (25) 
{"0": {"label": "*3", "atom_type": "Cs"}, "1": {"label": "*4", "atom_type": "O2s"}, "10": {"label": "*0", "atom_type": "Ct"}, "11": {"label": "*1", "atom_type": "Cs"}, "17": {"label": "*2", "atom_type": "H0"}}

>  <type>  (25) 
unop_21

>  <geom_source>  (25) 
Heuristics

$$$$

     RDKit          3D

 18 16  0  0  0  0  0  0  0  0999 V2000
   -0.7095   -0.6396    1.4538 C   0  0  0  0  0  0  0  0  0  0  0  0
    0.4746   -1.2300    0.9547 O   0  0  0  0  0  0  0  0  0  0  0  0
    0.9524   -2.1466    1.8604 N   0  0  0  0  0  0  0  0  0  0  0  0
    2.0132   -2.7026    1.4575 C   0  0  0  0  0  0  0  0  0  0  0  0
   -1.4860   -1.3921    1.6087 H   0  0  0  0  0  0  0  0  0  0  0  0
   -0.5184   -0.1138    2.3919 H   0  0  0  0  0  0  0  0  0  0  0  0
    2.4542   -3.4396    2.1154 H   0  0  0  0  0  0  0  0  0  0  0  0
    2.4730   -2.4644    0.5008 H   0  0  0  0  0  0  0  0  0  0  0  0
   -0.7312    1.8042   -3.5923 C   0  0  0  0  0  0  0  0  0  0  0  0
   -0.7312    1.8042   -2.1350 C   0  0  0  0  0  3  0  0  0  0  0  0
   -0.7312    1.8042   -0.9365 C   0  0  0  0  0  0  0  0  0  0  0  0
   -0.7312    1.8042    0.5207 C   0  0  0  0  0  0  0  0  0  0  0  0
   -1.6374    2.2714   -3.9816 H   0  0  0  0  0  0  0  0  0  0  0  0
   -0.6827    0.7859   -3.9816 H   0  0  0  0  0  0  0  0  0  0  0  0
    0.1264    2.3555   -3.9816 H   0  0  0  0  0  0  0  0  0  0  0  0
   -1.6186    2.3060    0.9101 H   0  0  0  0  0  0  0  0  0  0  0  0
    0.1472    2.3217    0.9101 H   0  0  0  0  0  0  0  0  0  0  0  0
   -0.7203    0.5808    0.9878 H   0  0  0  0  0  0  0  0  0  0  0  0
  1  2  1  0
  1  5  1  0
  1  6  1  0
  1 18  1  0
  2  3  1  0
  3  4  2  3
  4  7  1  0
  4  8  1  0
  9 10  1  0
  9 13  1  0
  9 14  1  0
  9 15  1  0
 10 11  2  0
 11 12  2  0
 12 16  1  0
 12 17  1  0
M  RAD  1  10   2
M  END
>  <reaction>  (26) 
rmg_rxn_15585

>  <mol_properties>  (26) 
{"0": {"label": "*3", "atom_type": "Cs"}, "1": {"label": "*4", "atom_type": "O2s"}, "10": {"label": "*0", "atom_type": "Ct"}, "11": {"label": "*1", "atom_type": "Cs"}, "17": {"label": "*2", "atom_type": "H0"}}

>  <type>  (26) 
unop_22

>  <geom_source>  (26) 
Heuristics

$$$$

     RDKit          3D

 18 16  0  0  0  0  0  0  0  0999 V2000
    0.2380   -0.9379    0.6054 C   0  0  0  0  0  0  0  0  0  0  0  0
   -0.4431   -0.8817    1.8434 O   0  0  0  0  0  0  0  0  0  0  0  0
   -0.0071   -1.8987    2.6584 N   0  0  0  0  0  0  0  0  0  0  0  0
   -0.5889   -1.8900    3.7801 C   0  0  0  0  0  0  0  0  0  0  0  0
    1.3143   -0.8154    0.7457 H   0  0  0  0  0  0  0  0  0  0  0  0
    0.0418   -1.8830    0.0941 H   0  0  0  0  0  0  0  0  0  0  0  0
   -0.3009   -2.6614    4.4817 H   0  0  0  0  0  0  0  0  0  0  0  0
   -1.3432   -1.1516    4.0434 H   0  0  0  0  0  0  0  0  0  0  0  0
    0.2162    1.5060   -4.4406 C   0  0  0  0  0  0  0  0  0  0  0  0
    0.2162    1.5060   -2.9834 C   0  0  0  0  0  3  0  0  0  0  0  0
    0.2162    1.5060   -1.7849 C   0  0  0  0  0  0  0  0  0  0  0  0
    0.2162    1.5060   -0.3276 C   0  0  0  0  0  0  0  0  0  0  0  0
   -0.6900    1.9731   -4.8299 H   0  0  0  0  0  0  0  0  0  0  0  0
    0.2647    0.4876   -4.8300 H   0  0  0  0  0  0  0  0  0  0  0  0
    1.0739    2.0572   -4.8300 H   0  0  0  0  0  0  0  0  0  0  0  0
   -0.6712    2.0078    0.0617 H   0  0  0  0  0  0  0  0  0  0  0  0
    1.0946    2.0234    0.0618 H   0  0  0  0  0  0  0  0  0  0  0  0
    0.2271    0.2825    0.1395 H   0  0  0  0  0  0  0  0  0  0  0  0
  1  2  1  0
  1  5  1  0
  1  6  1  0
  1 18  1  0
  2  3  1  0
  3  4  2  3
  4  7  1  0
  4  8  1  0
  9 10  1  0
  9 13  1  0
  9 14  1  0
  9 15  1  0
 10 11  2  0
 11 12  2  0
 12 16  1  0
 12 17  1  0
M  RAD  1  10   2
M  END
>  <reaction>  (27) 
rmg_rxn_15585

>  <mol_properties>  (27) 
{"0": {"label": "*3", "atom_type": "Cs"}, "1": {"label": "*4", "atom_type": "O2s"}, "10": {"label": "*0", "atom_type": "Ct"}, "11": {"label": "*1", "atom_type": "Cs"}, "17": {"label": "*2", "atom_type": "H0"}}

>  <type>  (27) 
unop_23

>  <geom_source>  (27) 
Heuristics

$$$$

     RDKit          3D

 18 16  0  0  0  0  0  0  0  0999 V2000
    0.0036   -0.4080    1.9057 C   0  0  0  0  0  0  0  0  0  0  0  0
    0.0111   -1.2515    0.7708 O   0  0  0  0  0  0  0  0  0  0  0  0
    0.0228   -2.5662    1.1711 N   0  0  0  0  0  0  0  0  0  0  0  0
    0.0299   -3.3610    0.1887 C   0  0  0  0  0  0  0  0  0  0  0  0
   -0.8870   -0.5797    2.5143 H   0  0  0  0  0  0  0  0  0  0  0  0
    0.8972   -0.5639    2.5143 H   0  0  0  0  0  0  0  0  0  0  0  0
    0.0393   -4.4177    0.4200 H   0  0  0  0  0  0  0  0  0  0  0  0
    0.0269   -3.0171   -0.8435 H   0  0  0  0  0  0  0  0  0  0  0  0
   -0.0181    2.0359   -3.1404 C   0  0  0  0  0  0  0  0  0  0  0  0
   -0.0181    2.0359   -1.6831 C   0  0  0  0  0  3  0  0  0  0  0  0
   -0.0181    2.0359   -0.4846 C   0  0  0  0  0  0  0  0  0  0  0  0
   -0.0181    2.0359    0.9727 C   0  0  0  0  0  0  0  0  0  0  0  0
   -0.9243    2.5030   -3.5297 H   0  0  0  0  0  0  0  0  0  0  0  0
    0.0304    1.0175   -3.5297 H   0  0  0  0  0  0  0  0  0  0  0  0
    0.8395    2.5871   -3.5297 H   0  0  0  0  0  0  0  0  0  0  0  0
   -0.9055    2.5377    1.3620 H   0  0  0  0  0  0  0  0  0  0  0  0
    0.8603    2.5533    1.3620 H   0  0  0  0  0  0  0  0  0  0  0  0
   -0.0072    0.8124    1.4397 H   0  0  0  0  0  0  0  0  0  0  0  0
  1  2  1  0
  1  5  1  0
  1  6  1  0
  1 18  1  0
  2  3  1  0
  3  4  2  3
  4  7  1  0
  4  8  1  0
  9 10  1  0
  9 13  1  0
  9 14  1  0
  9 15  1  0
 10 11  2  0
 11 12  2  0
 12 16  1  0
 12 17  1  0
M  RAD  1  10   2
M  END
>  <reaction>  (28) 
rmg_rxn_15585

>  <mol_properties>  (28) 
{"0": {"label": "*3", "atom_type": "Cs"}, "1": {"label": "*4", "atom_type": "O2s"}, "10": {"label": "*0", "atom_type": "Ct"}, "11": {"label": "*1", "atom_type": "Cs"}, "17": {"label": "*2", "atom_type": "H0"}}

>  <type>  (28) 
unop_24

>  <geom_source>  (28) 
Heuristics

$$$$

     RDKit          3D

 18 16  0  0  0  0  0  0  0  0999 V2000
    0.6776    1.6271    0.0081 C   0  0  0  0  0  0  0  0  0  0  0  0
    1.9926    1.1289    0.0013 O   0  0  0  0  0  0  0  0  0  0  0  0
    2.0092   -0.2504   -0.0018 N   0  0  0  0  0  0  0  0  0  0  0  0
    3.1433   -0.7950   -0.0089 C   0  0  0  0  0  0  0  0  0  0  0  0
    0.0566    1.2282    0.7868 H   0  0  0  0  0  0  0  0  0  0  0  0
    0.7480    2.7067    0.0279 H   0  0  0  0  0  0  0  0  0  0  0  0
    3.1630   -1.8710   -0.0111 H   0  0  0  0  0  0  0  0  0  0  0  0
    4.0831   -0.2515   -0.0128 H   0  0  0  0  0  0  0  0  0  0  0  0
   -0.8256   -2.0042    0.0081 C   0  0  0  0  0  0  0  0  0  0  0  0
   -1.7970   -0.9418    0.0029 C   0  0  0  0  0  3  0  0  0  0  0  0
   -2.5993   -0.0196   -0.0015 C   0  0  0  0  0  0  0  0  0  0  0  0
   -3.4873    1.0003   -0.0071 C   0  0  0  0  0  0  0  0  0  0  0  0
   -0.9500   -2.6361   -0.8723 H   0  0  0  0  0  0  0  0  0  0  0  0
   -0.9369   -2.6148    0.9055 H   0  0  0  0  0  0  0  0  0  0  0  0
    0.1845   -1.5825   -0.0028 H   0  0  0  0  0  0  0  0  0  0  0  0
   -3.7986    1.4639    0.9118 H   0  0  0  0  0  0  0  0  0  0  0  0
   -3.9034    1.3625   -0.9300 H   0  0  0  0  0  0  0  0  0  0  0  0
    0.0563    1.2595   -0.8180 H   0  0  0  0  0  0  0  0  0  0  0  0
  1  2  1  0
  1  5  1  0
  1  6  1  0
  1 18  1  0
  2  3  1  0
  3  4  2  3
  4  7  1  0
  4  8  1  0
  9 10  1  0
  9 13  1  0
  9 14  1  0
  9 15  1  0
 10 11  2  0
 11 12  2  0
 12 16  1  0
 12 17  1  0
M  RAD  1  10   2
M  END
>  <reaction>  (29) 
rmg_rxn_15585

>  <mol_properties>  (29) 
{"0": {"label": "*3", "atom_type": "Cs"}, "1": {"label": "*4", "atom_type": "O2s"}, "10": {"label": "*0", "atom_type": "Ct"}, "11": {"label": "*1", "atom_type": "Cs"}, "17": {"label": "*2", "atom_type": "H0"}}

>  <type>  (29) 
unop_25

>  <geom_source>  (29) 
Heuristics

$$$$

     RDKit          3D

 18 16  0  0  0  0  0  0  0  0999 V2000
   -2.3901   -0.1510   -1.1320 O   0  0  0  0  0  0  0  0  0  0  0  0
   -3.4565    0.6945   -0.8679 N   0  0  0  0  0  0  0  0  0  0  0  0
   -1.4276   -0.5381   -0.1550 C   0  0  0  0  0  0  0  0  0  0  0  0
    3.5553    1.0452    0.6203 C   0  0  0  0  0  0  0  0  0  0  0  0
    0.7940   -1.7120   -0.7370 C   0  0  0  0  0  0  0  0  0  0  0  0
   -3.7055    1.2302    0.2875 C   0  0  0  0  0  0  0  0  0  0  0  0
    2.5775    0.0688    0.1396 C   0  0  0  0  0  3  0  0  0  0  0  0
    1.7718   -0.7357   -0.2564 C   0  0  0  0  0  0  0  0  0  0  0  0
   -0.8978    0.3571    0.2329 H   0  0  0  0  0  0  0  0  0  0  0  0
   -1.9261   -1.0785    0.6770 H   0  0  0  0  0  0  0  0  0  0  0  0
   -0.5203   -1.3657   -0.7296 H   0  0  0  0  0  0  0  0  0  0  0  0
    3.7726    0.8547    1.6914 H   0  0  0  0  0  0  0  0  0  0  0  0
    3.1444    2.0690    0.5028 H   0  0  0  0  0  0  0  0  0  0  0  0
    4.4909    0.9526    0.0312 H   0  0  0  0  0  0  0  0  0  0  0  0
   -4.5631    1.8792    0.3996 H   0  0  0  0  0  0  0  0  0  0  0  0
   -3.0781    1.0473    1.1488 H   0  0  0  0  0  0  0  0  0  0  0  0
    1.0497   -2.0121   -1.7741 H   0  0  0  0  0  0  0  0  0  0  0  0
    0.8089   -2.6053   -0.0792 H   0  0  0  0  0  0  0  0  0  0  0  0
  1  3  1  0
  1  2  1  0
  2  6  2  3
  3  9  1  0
  3 10  1  0
  3 11  1  0
  4  7  1  0
  4 12  1  0
  4 13  1  0
  4 14  1  0
  5  8  2  0
  5 17  1  0
  5 18  1  0
  6 15  1  0
  6 16  1  0
  7  8  2  0
M  RAD  1   7   2
M  END
>  <reaction>  (30) 
rmg_rxn_15585

>  <mol_properties>  (30) 
{"0": {"label": "*3", "atom_type": "Cs"}, "1": {"label": "*4", "atom_type": "O2s"}, "10": {"label": "*0", "atom_type": "Ct"}, "11": {"label": "*1", "atom_type": "Cs"}, "17": {"label": "*2", "atom_type": "H0"}}

>  <type>  (30) 
unop_26

>  <geom_source>  (30) 
AutoTST

$$$$

     RDKit          3D

 18 16  0  0  0  0  0  0  0  0999 V2000
   -0.4458   -0.4794    1.7765 C   0  0  0  0  0  0  0  0  0  0  0  0
    0.2417   -1.2519    0.8120 O   0  0  0  0  0  0  0  0  0  0  0  0
    0.6648   -2.4304    1.3784 N   0  0  0  0  0  0  0  0  0  0  0  0
    1.2865   -3.1571    0.5526 C   0  0  0  0  0  0  0  0  0  0  0  0
   -1.3276   -1.0086    2.1446 H   0  0  0  0  0  0  0  0  0  0  0  0
    0.2075   -0.2309    2.6159 H   0  0  0  0  0  0  0  0  0  0  0  0
    1.6536   -4.1055    0.9216 H   0  0  0  0  0  0  0  0  0  0  0  0
    1.4531   -2.8598   -0.4805 H   0  0  0  0  0  0  0  0  0  0  0  0
   -0.4675    1.9644   -3.2695 C   0  0  0  0  0  0  0  0  0  0  0  0
   -0.4675    1.9644   -1.8123 C   0  0  0  0  0  3  0  0  0  0  0  0
   -0.4675    1.9644   -0.6138 C   0  0  0  0  0  0  0  0  0  0  0  0
   -0.4675    1.9644    0.8435 C   0  0  0  0  0  0  0  0  0  0  0  0
   -1.3737    2.4315   -3.6588 H   0  0  0  0  0  0  0  0  0  0  0  0
   -0.4190    0.9461   -3.6589 H   0  0  0  0  0  0  0  0  0  0  0  0
    0.3901    2.5157   -3.6589 H   0  0  0  0  0  0  0  0  0  0  0  0
   -1.3549    2.4662    1.2328 H   0  0  0  0  0  0  0  0  0  0  0  0
    0.4109    2.4819    1.2329 H   0  0  0  0  0  0  0  0  0  0  0  0
   -0.4566    0.7410    1.3106 H   0  0  0  0  0  0  0  0  0  0  0  0
  1  2  1  0
  1  5  1  0
  1  6  1  0
  1 18  1  0
  2  3  1  0
  3  4  2  3
  4  7  1  0
  4  8  1  0
  9 10  1  0
  9 13  1  0
  9 14  1  0
  9 15  1  0
 10 11  2  0
 11 12  2  0
 12 16  1  0
 12 17  1  0
M  RAD  1  10   2
M  END
>  <reaction>  (31) 
rmg_rxn_15585

>  <mol_properties>  (31) 
{"0": {"label": "*3", "atom_type": "Cs"}, "1": {"label": "*4", "atom_type": "O2s"}, "10": {"label": "*0", "atom_type": "Ct"}, "11": {"label": "*1", "atom_type": "Cs"}, "17": {"label": "*2", "atom_type": "H0"}}

>  <type>  (31) 
unop_27

>  <geom_source>  (31) 
gaussian_log

$$$$
