
     RDKit          3D

  8  7  0  0  0  0  0  0  0  0999 V2000
    0.7610    0.0250    0.0051 C   0  0  0  0  0  0  0  0  0  0  0  0
   -0.7610   -0.0250   -0.0051 C   0  0  0  0  0  0  0  0  0  0  0  0
    1.1904   -0.9237   -0.3217 H   0  0  0  0  0  0  0  0  0  0  0  0
    1.1359    0.8041   -0.6609 H   0  0  0  0  0  0  0  0  0  0  0  0
    1.1435    0.2336    1.0058 H   0  0  0  0  0  0  0  0  0  0  0  0
   -1.1359   -0.8041    0.6609 H   0  0  0  0  0  0  0  0  0  0  0  0
   -1.1435   -0.2336   -1.0058 H   0  0  0  0  0  0  0  0  0  0  0  0
   -1.1904    0.9237    0.3217 H   0  0  0  0  0  0  0  0  0  0  0  0
  1  2  1  0
  1  3  1  0
  1  4  1  0
  1  5  1  0
  2  6  1  0
  2  7  1  0
  2  8  1  0
M  END
>  <reaction>  (1) 
rmg_rxn_15388

>  <mol_properties>  (1) 
{"1": {"label": "donator", "atom_type": "Cs"}, "5": {"label": "d_hydrogen", "atom_type": "H0"}}

>  <type>  (1) 
r1h

$$$$

     RDKit          3D

  5  4  0  0  0  0  0  0  0  0999 V2000
    0.8934    0.3742    0.4948 O   0  0  0  0  0  0  0  0  0  0  0  0
    0.1582   -0.1610   -0.5904 N   0  0  0  0  0  0  0  0  0  0  0  0
   -1.0297   -0.3739   -0.4689 C   0  0  0  0  0  3  0  0  0  0  0  0
    1.7804    0.4382    0.1306 H   0  0  0  0  0  0  0  0  0  0  0  0
   -1.8023   -0.2775    0.2859 H   0  0  0  0  0  0  0  0  0  0  0  0
  1  2  1  0
  1  4  1  0
  2  3  2  3
  3  5  1  0
M  RAD  1   3   2
M  END
>  <reaction>  (2) 
rmg_rxn_15388

>  <mol_properties>  (2) 
{"2": {"label": "acceptor", "atom_type": "Cd"}}

>  <type>  (2) 
r2

$$$$

     RDKit          3D

  6  5  0  0  0  0  0  0  0  0999 V2000
    1.2314    0.0428    0.5088 O   0  0  0  0  0  0  0  0  0  0  0  0
    0.2987    0.2341   -0.4915 N   0  0  0  0  0  0  0  0  0  0  0  0
   -0.8599   -0.1122   -0.1290 C   0  0  0  0  0  0  0  0  0  0  0  0
    2.0507    0.3401    0.1082 H   0  0  0  0  0  0  0  0  0  0  0  0
   -1.0700   -0.5112    0.8610 H   0  0  0  0  0  0  0  0  0  0  0  0
   -1.6509    0.0064   -0.8574 H   0  0  0  0  0  0  0  0  0  0  0  0
  1  2  1  0
  1  4  1  0
  2  3  2  3
  3  5  1  0
  3  6  1  0
M  END
>  <reaction>  (3) 
rmg_rxn_15388

>  <mol_properties>  (3) 
{"2": {"label": "acceptor", "atom_type": "Cd"}, "5": {"label": "a_hydrogen", "atom_type": "H0"}}

>  <type>  (3) 
r2h

$$$$

     RDKit          3D

 13 11  0  0  0  0  0  0  0  0999 V2000
   -2.4697    0.2684    0.0114 O   0  0  0  0  0  0  0  0  0  0  0  0
   -1.0682    0.2779    0.0063 N   0  0  0  0  0  0  0  0  0  0  0  0
   -0.5547   -0.8557    0.0067 C   0  0  0  0  0  3  0  0  0  0  0  0
   -2.6878    1.2031    0.0103 H   0  0  0  0  0  0  0  0  0  0  0  0
   -1.0701   -1.8163    0.0105 H   0  0  0  0  0  0  0  0  0  0  0  0
    2.3314    0.8491   -0.0074 C   0  0  0  0  0  0  0  0  0  0  0  0
    2.1121   -0.6405   -0.0034 C   0  0  0  0  0  0  0  0  0  0  0  0
    3.3989    1.0888   -0.0118 H   0  0  0  0  0  0  0  0  0  0  0  0
    1.8821    1.3108   -0.8876 H   0  0  0  0  0  0  0  0  0  0  0  0
    1.8883    1.3147    0.8738 H   0  0  0  0  0  0  0  0  0  0  0  0
    0.8484   -0.8274    0.0016 H   0  0  0  0  0  0  0  0  0  0  0  0
    2.4557   -1.1502    0.8959 H   0  0  0  0  0  0  0  0  0  0  0  0
    2.4492   -1.1542   -0.9028 H   0  0  0  0  0  0  0  0  0  0  0  0
  1  2  1  0
  1  4  1  0
  2  3  2  3
  3  5  1  0
  6  7  1  0
  6  8  1  0
  6  9  1  0
  6 10  1  0
  7 11  1  0
  7 12  1  0
  7 13  1  0
M  RAD  1   3   2
M  END
>  <reaction>  (4) 
rmg_rxn_15388

>  <mol_properties>  (4) 
{"1": {"label": "*4", "atom_type": "N3d"}, "2": {"label": "*3", "atom_type": "Cd"}, "5": {"label": "*0", "atom_type": "Cs"}, "6": {"label": "*1", "atom_type": "Cs"}, "10": {"label": "*2", "atom_type": "H0"}}

>  <type>  (4) 
ts

$$$$

     RDKit          3D

 13 11  0  0  0  0  0  0  0  0999 V2000
   -2.5314    0.2889    0.0006 O   0  0  0  0  0  0  0  0  0  0  0  0
   -1.1216    0.2234   -0.0030 N   0  0  0  0  0  0  0  0  0  0  0  0
   -0.5414   -0.8663    0.0033 C   0  0  0  0  0  3  0  0  0  0  0  0
   -2.7273    1.2359   -0.0060 H   0  0  0  0  0  0  0  0  0  0  0  0
   -0.9388   -1.8736    0.0107 H   0  0  0  0  0  0  0  0  0  0  0  0
    2.3714    0.8465    0.0026 C   0  0  0  0  0  0  0  0  0  0  0  0
    2.0725   -0.6257   -0.0034 C   0  0  0  0  0  0  0  0  0  0  0  0
    3.4495    1.0239    0.0012 H   0  0  0  0  0  0  0  0  0  0  0  0
    1.9499    1.3275   -0.8771 H   0  0  0  0  0  0  0  0  0  0  0  0
    1.9536    1.3197    0.8883 H   0  0  0  0  0  0  0  0  0  0  0  0
    0.7705   -0.7571   -0.0002 H   0  0  0  0  0  0  0  0  0  0  0  0
    2.4068   -1.1414    0.8901 H   0  0  0  0  0  0  0  0  0  0  0  0
    2.4018   -1.1331   -0.9035 H   0  0  0  0  0  0  0  0  0  0  0  0
  1  2  1  0
  1  4  1  0
  2  3  2  3
  3  5  1  0
  6  7  1  0
  6  8  1  0
  6  9  1  0
  6 10  1  0
  7 11  1  0
  7 12  1  0
  7 13  1  0
M  RAD  1   3   2
M  END
>  <reaction>  (5) 
rmg_rxn_15388

>  <mol_properties>  (5) 
{"1": {"label": "*4", "atom_type": "N3d"}, "2": {"label": "*3", "atom_type": "Cd"}, "5": {"label": "*0", "atom_type": "Cs"}, "6": {"label": "*1", "atom_type": "Cs"}, "10": {"label": "*2", "atom_type": "H0"}}

>  <type>  (5) 
unop_1

>  <geom_source>  (5) 
crest_best.xyz

$$$$

     RDKit          3D

 13 11  0  0  0  0  0  0  0  0999 V2000
   -0.2633    1.7181    1.9617 O   0  0  0  0  0  0  0  0  0  0  0  0
   -0.6628    0.9993    0.8523 N   0  0  0  0  0  0  0  0  0  0  0  0
    0.3148    0.6774    0.1214 C   0  0  0  0  0  0  0  0  0  0  0  0
   -1.0871    1.8944    2.4204 H   0  0  0  0  0  0  0  0  0  0  0  0
    1.3409    0.9478    0.3614 H   0  0  0  0  0  0  0  0  0  0  0  0
    0.3148   -1.7530   -2.3473 C   0  0  0  0  0  0  0  0  0  0  0  0
    0.3148   -1.7530   -0.8245 C   0  0  0  0  0  3  0  0  0  0  0  0
    1.1957   -1.2444   -2.7432 H   0  0  0  0  0  0  0  0  0  0  0  0
    0.3148   -2.7701   -2.7432 H   0  0  0  0  0  0  0  0  0  0  0  0
   -0.5660   -1.2444   -2.7432 H   0  0  0  0  0  0  0  0  0  0  0  0
    0.3148   -0.5324   -0.3495 H   0  0  0  0  0  0  0  0  0  0  0  0
    1.1957   -2.2615   -0.4287 H   0  0  0  0  0  0  0  0  0  0  0  0
   -0.5660   -2.2615   -0.4287 H   0  0  0  0  0  0  0  0  0  0  0  0
  1  2  1  0
  1  4  1  0
  2  3  2  3
  3  5  1  0
  3 11  1  0
  6  7  1  0
  6  8  1  0
  6  9  1  0
  6 10  1  0
  7 12  1  0
  7 13  1  0
M  RAD  1   7   2
M  END
>  <reaction>  (6) 
rmg_rxn_15388

>  <mol_properties>  (6) 
{"1": {"label": "*4", "atom_type": "N3d"}, "2": {"label": "*3", "atom_type": "Cd"}, "5": {"label": "*0", "atom_type": "Cs"}, "6": {"label": "*1", "atom_type": "Cs"}, "10": {"label": "*2", "atom_type": "H0"}}

>  <type>  (6) 
unop_2

>  <geom_source>  (6) 
Heuristics

$$$$

     RDKit          3D

 13 11  0  0  0  0  0  0  0  0999 V2000
   -2.5296   -0.2899   -0.0006 O   0  0  0  0  0  0  0  0  0  0  0  0
   -1.1199   -0.2223    0.0018 N   0  0  0  0  0  0  0  0  0  0  0  0
   -0.5410    0.8682   -0.0012 C   0  0  0  0  0  3  0  0  0  0  0  0
   -2.7239   -1.2373    0.0027 H   0  0  0  0  0  0  0  0  0  0  0  0
   -0.9393    1.8751   -0.0059 H   0  0  0  0  0  0  0  0  0  0  0  0
    2.3672   -0.8477   -0.0012 C   0  0  0  0  0  0  0  0  0  0  0  0
    2.0726    0.6253    0.0014 C   0  0  0  0  0  0  0  0  0  0  0  0
    1.9468   -1.3219   -0.8851 H   0  0  0  0  0  0  0  0  0  0  0  0
    3.4447   -1.0284   -0.0007 H   0  0  0  0  0  0  0  0  0  0  0  0
    1.9453   -1.3251    0.8802 H   0  0  0  0  0  0  0  0  0  0  0  0
    0.7710    0.7595    0.0003 H   0  0  0  0  0  0  0  0  0  0  0  0
    2.4067    1.1377   -0.8942 H   0  0  0  0  0  0  0  0  0  0  0  0
    2.4052    1.1343    0.8994 H   0  0  0  0  0  0  0  0  0  0  0  0
  1  2  1  0
  1  4  1  0
  2  3  2  3
  3  5  1  0
  6  7  1  0
  6  8  1  0
  6  9  1  0
  6 10  1  0
  7 11  1  0
  7 12  1  0
  7 13  1  0
M  RAD  1   3   2
M  END
>  <reaction>  (7) 
rmg_rxn_15388

>  <mol_properties>  (7) 
{"1": {"label": "*4", "atom_type": "N3d"}, "2": {"label": "*3", "atom_type": "Cd"}, "5": {"label": "*0", "atom_type": "Cs"}, "6": {"label": "*1", "atom_type": "Cs"}, "10": {"label": "*2", "atom_type": "H0"}}

>  <type>  (7) 
unop_3

>  <geom_source>  (7) 
Heuristics

$$$$

     RDKit          3D

 13 11  0  0  0  0  0  0  0  0999 V2000
   -1.5710   -1.0110    0.1690 O   0  0  0  0  0  0  0  0  0  0  0  0
   -1.6921    0.2889   -0.1977 N   0  0  0  0  0  0  0  0  0  0  0  0
   -0.7387    1.0834   -0.1542 C   0  0  0  0  0  3  0  0  0  0  0  0
   -0.6621   -1.2176    0.4604 H   0  0  0  0  0  0  0  0  0  0  0  0
   -0.8986    2.1014   -0.4593 H   0  0  0  0  0  0  0  0  0  0  0  0
    2.2939   -0.4629   -0.4897 C   0  0  0  0  0  0  0  0  0  0  0  0
    1.6692    0.3364    0.6255 C   0  0  0  0  0  0  0  0  0  0  0  0
    2.3577    0.1314   -1.3994 H   0  0  0  0  0  0  0  0  0  0  0  0
    3.3061   -0.7756   -0.2240 H   0  0  0  0  0  0  0  0  0  0  0  0
    1.7175   -1.3614   -0.7077 H   0  0  0  0  0  0  0  0  0  0  0  0
    0.4766    0.7304    0.2431 H   0  0  0  0  0  0  0  0  0  0  0  0
    2.2015    1.2586    0.8325 H   0  0  0  0  0  0  0  0  0  0  0  0
    1.5299   -0.2369    1.5380 H   0  0  0  0  0  0  0  0  0  0  0  0
  1  2  1  0
  1  4  1  0
  2  3  2  3
  3  5  1  0
  6  7  1  0
  6  8  1  0
  6  9  1  0
  6 10  1  0
  7 11  1  0
  7 12  1  0
  7 13  1  0
M  RAD  1   3   2
M  END
>  <reaction>  (8) 
rmg_rxn_15388

>  <mol_properties>  (8) 
{"1": {"label": "*4", "atom_type": "N3d"}, "2": {"label": "*3", "atom_type": "Cd"}, "5": {"label": "*0", "atom_type": "Cs"}, "6": {"label": "*1", "atom_type": "Cs"}, "10": {"label": "*2", "atom_type": "H0"}}

>  <type>  (8) 
unop_4

>  <geom_source>  (8) 
Heuristics

$$$$

     RDKit          3D

 13 11  0  0  0  0  0  0  0  0999 V2000
   -0.5556    2.3589    0.8381 O   0  0  0  0  0  0  0  0  0  0  0  0
   -0.2567    1.2255    0.1079 N   0  0  0  0  0  0  0  0  0  0  0  0
    0.3077    0.3444    0.8139 C   0  0  0  0  0  0  0  0  0  0  0  0
   -0.9721    2.9346    0.1938 H   0  0  0  0  0  0  0  0  0  0  0  0
    0.5213    0.4878    1.8710 H   0  0  0  0  0  0  0  0  0  0  0  0
    0.3077   -2.0860   -1.6548 C   0  0  0  0  0  0  0  0  0  0  0  0
    0.3077   -2.0860   -0.1320 C   0  0  0  0  0  3  0  0  0  0  0  0
    1.1885   -1.5774   -2.0506 H   0  0  0  0  0  0  0  0  0  0  0  0
    0.3077   -3.1031   -2.0506 H   0  0  0  0  0  0  0  0  0  0  0  0
   -0.5732   -1.5774   -2.0506 H   0  0  0  0  0  0  0  0  0  0  0  0
    0.3077   -0.8654    0.3431 H   0  0  0  0  0  0  0  0  0  0  0  0
    1.1885   -2.5945    0.2639 H   0  0  0  0  0  0  0  0  0  0  0  0
   -0.5732   -2.5945    0.2639 H   0  0  0  0  0  0  0  0  0  0  0  0
  1  2  1  0
  1  4  1  0
  2  3  2  3
  3  5  1  0
  3 11  1  0
  6  7  1  0
  6  8  1  0
  6  9  1  0
  6 10  1  0
  7 12  1  0
  7 13  1  0
M  RAD  1   7   2
M  END
>  <reaction>  (9) 
rmg_rxn_15388

>  <mol_properties>  (9) 
{"1": {"label": "*4", "atom_type": "N3d"}, "2": {"label": "*3", "atom_type": "Cd"}, "5": {"label": "*0", "atom_type": "Cs"}, "6": {"label": "*1", "atom_type": "Cs"}, "10": {"label": "*2", "atom_type": "H0"}}

>  <type>  (9) 
unop_5

>  <geom_source>  (9) 
Heuristics

$$$$

     RDKit          3D

 13 11  0  0  0  0  0  0  0  0999 V2000
    2.5287   -0.2903   -0.0001 O   0  0  0  0  0  0  0  0  0  0  0  0
    1.1191   -0.2217    0.0041 N   0  0  0  0  0  0  0  0  0  0  0  0
    0.5408    0.8690   -0.0060 C   0  0  0  0  0  3  0  0  0  0  0  0
    2.7224   -1.2378    0.0098 H   0  0  0  0  0  0  0  0  0  0  0  0
    0.9396    1.8757   -0.0187 H   0  0  0  0  0  0  0  0  0  0  0  0
   -2.3653   -0.8482   -0.0044 C   0  0  0  0  0  0  0  0  0  0  0  0
   -2.0727    0.6252    0.0063 C   0  0  0  0  0  0  0  0  0  0  0  0
   -1.9373   -1.3310    0.8711 H   0  0  0  0  0  0  0  0  0  0  0  0
   -3.4425   -1.0305    0.0015 H   0  0  0  0  0  0  0  0  0  0  0  0
   -1.9497   -1.3159   -0.8941 H   0  0  0  0  0  0  0  0  0  0  0  0
   -0.7712    0.7605    0.0000 H   0  0  0  0  0  0  0  0  0  0  0  0
   -2.4013    1.1277    0.9093 H   0  0  0  0  0  0  0  0  0  0  0  0
   -2.4117    1.1430   -0.8842 H   0  0  0  0  0  0  0  0  0  0  0  0
  1  2  1  0
  1  4  1  0
  2  3  2  3
  3  5  1  0
  6  7  1  0
  6  8  1  0
  6  9  1  0
  6 10  1  0
  7 11  1  0
  7 12  1  0
  7 13  1  0
M  RAD  1   3   2
M  END
>  <reaction>  (10) 
rmg_rxn_15388

>  <mol_properties>  (10) 
{"1": {"label": "*4", "atom_type": "N3d"}, "2": {"label": "*3", "atom_type": "Cd"}, "5": {"label": "*0", "atom_type": "Cs"}, "6": {"label": "*1", "atom_type": "Cs"}, "10": {"label": "*2", "atom_type": "H0"}}

>  <type>  (10) 
unop_6

>  <geom_source>  (10) 
Heuristics

$$$$

     RDKit          3D

 13 11  0  0  0  0  0  0  0  0999 V2000
    0.1388    1.8391    1.9044 O   0  0  0  0  0  0  0  0  0  0  0  0
   -0.4734    0.8473    1.1636 N   0  0  0  0  0  0  0  0  0  0  0  0
    0.0910    0.6753    0.0476 C   0  0  0  0  0  0  0  0  0  0  0  0
   -0.3794    1.8654    2.7111 H   0  0  0  0  0  0  0  0  0  0  0  0
    0.9564    1.2544   -0.2676 H   0  0  0  0  0  0  0  0  0  0  0  0
    0.0910   -1.7550   -2.4210 C   0  0  0  0  0  0  0  0  0  0  0  0
    0.0910   -1.7550   -0.8983 C   0  0  0  0  0  3  0  0  0  0  0  0
    0.9719   -1.2465   -2.8169 H   0  0  0  0  0  0  0  0  0  0  0  0
    0.0910   -2.7722   -2.8169 H   0  0  0  0  0  0  0  0  0  0  0  0
   -0.7898   -1.2465   -2.8169 H   0  0  0  0  0  0  0  0  0  0  0  0
    0.0910   -0.5345   -0.4232 H   0  0  0  0  0  0  0  0  0  0  0  0
    0.9719   -2.2636   -0.5024 H   0  0  0  0  0  0  0  0  0  0  0  0
   -0.7898   -2.2636   -0.5024 H   0  0  0  0  0  0  0  0  0  0  0  0
  1  2  1  0
  1  4  1  0
  2  3  2  3
  3  5  1  0
  3 11  1  0
  6  7  1  0
  6  8  1  0
  6  9  1  0
  6 10  1  0
  7 12  1  0
  7 13  1  0
M  RAD  1   7   2
M  END
>  <reaction>  (11) 
rmg_rxn_15388

>  <mol_properties>  (11) 
{"1": {"label": "*4", "atom_type": "N3d"}, "2": {"label": "*3", "atom_type": "Cd"}, "5": {"label": "*0", "atom_type": "Cs"}, "6": {"label": "*1", "atom_type": "Cs"}, "10": {"label": "*2", "atom_type": "H0"}}

>  <type>  (11) 
unop_7

>  <geom_source>  (11) 
Heuristics

$$$$

     RDKit          3D

 13 11  0  0  0  0  0  0  0  0999 V2000
    0.8105    2.0959    1.2639 O   0  0  0  0  0  0  0  0  0  0  0  0
    0.4920    1.1934    0.2684 N   0  0  0  0  0  0  0  0  0  0  0  0
   -0.4855    0.4621    0.5894 C   0  0  0  0  0  0  0  0  0  0  0  0
    1.5541    2.5780    0.8969 H   0  0  0  0  0  0  0  0  0  0  0  0
   -0.9980    0.5539    1.5447 H   0  0  0  0  0  0  0  0  0  0  0  0
   -0.4855   -1.9683   -1.8792 C   0  0  0  0  0  0  0  0  0  0  0  0
   -0.4855   -1.9683   -0.3565 C   0  0  0  0  0  3  0  0  0  0  0  0
    0.3953   -1.4597   -2.2751 H   0  0  0  0  0  0  0  0  0  0  0  0
   -0.4855   -2.9854   -2.2751 H   0  0  0  0  0  0  0  0  0  0  0  0
   -1.3664   -1.4597   -2.2751 H   0  0  0  0  0  0  0  0  0  0  0  0
   -0.4855   -0.7477    0.1186 H   0  0  0  0  0  0  0  0  0  0  0  0
    0.3953   -2.4768    0.0394 H   0  0  0  0  0  0  0  0  0  0  0  0
   -1.3664   -2.4768    0.0394 H   0  0  0  0  0  0  0  0  0  0  0  0
  1  2  1  0
  1  4  1  0
  2  3  2  3
  3  5  1  0
  3 11  1  0
  6  7  1  0
  6  8  1  0
  6  9  1  0
  6 10  1  0
  7 12  1  0
  7 13  1  0
M  RAD  1   7   2
M  END
>  <reaction>  (12) 
rmg_rxn_15388

>  <mol_properties>  (12) 
{"1": {"label": "*4", "atom_type": "N3d"}, "2": {"label": "*3", "atom_type": "Cd"}, "5": {"label": "*0", "atom_type": "Cs"}, "6": {"label": "*1", "atom_type": "Cs"}, "10": {"label": "*2", "atom_type": "H0"}}

>  <type>  (12) 
unop_8

>  <geom_source>  (12) 
Heuristics

$$$$

     RDKit          3D

 13 11  0  0  0  0  0  0  0  0999 V2000
    2.5297   -0.2899   -0.0002 O   0  0  0  0  0  0  0  0  0  0  0  0
    1.1200   -0.2222   -0.0017 N   0  0  0  0  0  0  0  0  0  0  0  0
    0.5411    0.8681    0.0030 C   0  0  0  0  0  3  0  0  0  0  0  0
    2.7240   -1.2373   -0.0048 H   0  0  0  0  0  0  0  0  0  0  0  0
    0.9391    1.8752    0.0089 H   0  0  0  0  0  0  0  0  0  0  0  0
   -2.3675   -0.8476    0.0021 C   0  0  0  0  0  0  0  0  0  0  0  0
   -2.0726    0.6253   -0.0031 C   0  0  0  0  0  0  0  0  0  0  0  0
   -1.9425   -1.3274   -0.8765 H   0  0  0  0  0  0  0  0  0  0  0  0
   -1.9506   -1.3197    0.8888 H   0  0  0  0  0  0  0  0  0  0  0  0
   -3.4451   -1.0281   -0.0020 H   0  0  0  0  0  0  0  0  0  0  0  0
   -0.7710    0.7592    0.0001 H   0  0  0  0  0  0  0  0  0  0  0  0
   -2.4085    1.1399    0.8905 H   0  0  0  0  0  0  0  0  0  0  0  0
   -2.4030    1.1323   -0.9031 H   0  0  0  0  0  0  0  0  0  0  0  0
  1  2  1  0
  1  4  1  0
  2  3  2  3
  3  5  1  0
  6  7  1  0
  6  8  1  0
  6  9  1  0
  6 10  1  0
  7 11  1  0
  7 12  1  0
  7 13  1  0
M  RAD  1   3   2
M  END
>  <reaction>  (13) 
rmg_rxn_15388

>  <mol_properties>  (13) 
{"1": {"label": "*4", "atom_type": "N3d"}, "2": {"label": "*3", "atom_type": "Cd"}, "5": {"label": "*0", "atom_type": "Cs"}, "6": {"label": "*1", "atom_type": "Cs"}, "10": {"label": "*2", "atom_type": "H0"}}

>  <type>  (13) 
unop_9

>  <geom_source>  (13) 
Heuristics

$$$$

     RDKit          3D

 13 11  0  0  0  0  0  0  0  0999 V2000
    0.0000    2.0599    1.7228 O   0  0  0  0  0  0  0  0  0  0  0  0
   -0.0000    0.7367    1.3276 N   0  0  0  0  0  0  0  0  0  0  0  0
   -0.0000    0.6195    0.0707 C   0  0  0  0  0  0  0  0  0  0  0  0
    0.0000    2.0055    2.6805 H   0  0  0  0  0  0  0  0  0  0  0  0
   -0.0000    1.4773   -0.5984 H   0  0  0  0  0  0  0  0  0  0  0  0
   -0.0000   -1.8109   -2.3979 C   0  0  0  0  0  0  0  0  0  0  0  0
   -0.0000   -1.8109   -0.8752 C   0  0  0  0  0  3  0  0  0  0  0  0
    0.8808   -1.3023   -2.7938 H   0  0  0  0  0  0  0  0  0  0  0  0
   -0.0000   -2.8280   -2.7938 H   0  0  0  0  0  0  0  0  0  0  0  0
   -0.8808   -1.3023   -2.7938 H   0  0  0  0  0  0  0  0  0  0  0  0
   -0.0000   -0.5903   -0.4001 H   0  0  0  0  0  0  0  0  0  0  0  0
    0.8808   -2.3194   -0.4793 H   0  0  0  0  0  0  0  0  0  0  0  0
   -0.8808   -2.3194   -0.4793 H   0  0  0  0  0  0  0  0  0  0  0  0
  1  2  1  0
  1  4  1  0
  2  3  2  3
  3  5  1  0
  3 11  1  0
  6  7  1  0
  6  8  1  0
  6  9  1  0
  6 10  1  0
  7 12  1  0
  7 13  1  0
M  RAD  1   7   2
M  END
>  <reaction>  (14) 
rmg_rxn_15388

>  <mol_properties>  (14) 
{"1": {"label": "*4", "atom_type": "N3d"}, "2": {"label": "*3", "atom_type": "Cd"}, "5": {"label": "*0", "atom_type": "Cs"}, "6": {"label": "*1", "atom_type": "Cs"}, "10": {"label": "*2", "atom_type": "H0"}}

>  <type>  (14) 
unop_10

>  <geom_source>  (14) 
Heuristics

$$$$

     RDKit          3D

 13 11  0  0  0  0  0  0  0  0999 V2000
   -2.5296    0.2897   -0.0007 O   0  0  0  0  0  0  0  0  0  0  0  0
   -1.1199    0.2224    0.0018 N   0  0  0  0  0  0  0  0  0  0  0  0
   -0.5410   -0.8681   -0.0010 C   0  0  0  0  0  3  0  0  0  0  0  0
   -2.7242    1.2371    0.0022 H   0  0  0  0  0  0  0  0  0  0  0  0
   -0.9396   -1.8749   -0.0055 H   0  0  0  0  0  0  0  0  0  0  0  0
    2.3673    0.8476   -0.0011 C   0  0  0  0  0  0  0  0  0  0  0  0
    2.0726   -0.6254    0.0011 C   0  0  0  0  0  0  0  0  0  0  0  0
    1.9460    1.3222   -0.8844 H   0  0  0  0  0  0  0  0  0  0  0  0
    1.9463    1.3248    0.8810 H   0  0  0  0  0  0  0  0  0  0  0  0
    3.4448    1.0283   -0.0016 H   0  0  0  0  0  0  0  0  0  0  0  0
    0.7710   -0.7595    0.0001 H   0  0  0  0  0  0  0  0  0  0  0  0
    2.4053   -1.1346    0.8990 H   0  0  0  0  0  0  0  0  0  0  0  0
    2.4064   -1.1375   -0.8947 H   0  0  0  0  0  0  0  0  0  0  0  0
  1  2  1  0
  1  4  1  0
  2  3  2  3
  3  5  1  0
  6  7  1  0
  6  8  1  0
  6  9  1  0
  6 10  1  0
  7 11  1  0
  7 12  1  0
  7 13  1  0
M  RAD  1   3   2
M  END
>  <reaction>  (15) 
rmg_rxn_15388

>  <mol_properties>  (15) 
{"1": {"label": "*4", "atom_type": "N3d"}, "2": {"label": "*3", "atom_type": "Cd"}, "5": {"label": "*0", "atom_type": "Cs"}, "6": {"label": "*1", "atom_type": "Cs"}, "10": {"label": "*2", "atom_type": "H0"}}

>  <type>  (15) 
unop_11

>  <geom_source>  (15) 
Heuristics

$$$$

     RDKit          3D

 13 11  0  0  0  0  0  0  0  0999 V2000
    0.6764    1.8385    1.7082 O   0  0  0  0  0  0  0  0  0  0  0  0
    0.6491    1.1177    0.5306 N   0  0  0  0  0  0  0  0  0  0  0  0
   -0.4797    0.5911    0.3256 C   0  0  0  0  0  0  0  0  0  0  0  0
    1.5731    2.1778    1.7400 H   0  0  0  0  0  0  0  0  0  0  0  0
   -1.3150    0.7079    1.0128 H   0  0  0  0  0  0  0  0  0  0  0  0
   -0.4797   -1.8393   -2.1430 C   0  0  0  0  0  0  0  0  0  0  0  0
   -0.4797   -1.8393   -0.6202 C   0  0  0  0  0  3  0  0  0  0  0  0
    0.4012   -1.3307   -2.5389 H   0  0  0  0  0  0  0  0  0  0  0  0
   -0.4797   -2.8564   -2.5389 H   0  0  0  0  0  0  0  0  0  0  0  0
   -1.3605   -1.3307   -2.5389 H   0  0  0  0  0  0  0  0  0  0  0  0
   -0.4797   -0.6187   -0.1452 H   0  0  0  0  0  0  0  0  0  0  0  0
    0.4012   -2.3478   -0.2244 H   0  0  0  0  0  0  0  0  0  0  0  0
   -1.3605   -2.3478   -0.2244 H   0  0  0  0  0  0  0  0  0  0  0  0
  1  2  1  0
  1  4  1  0
  2  3  2  3
  3  5  1  0
  3 11  1  0
  6  7  1  0
  6  8  1  0
  6  9  1  0
  6 10  1  0
  7 12  1  0
  7 13  1  0
M  RAD  1   7   2
M  END
>  <reaction>  (16) 
rmg_rxn_15388

>  <mol_properties>  (16) 
{"1": {"label": "*4", "atom_type": "N3d"}, "2": {"label": "*3", "atom_type": "Cd"}, "5": {"label": "*0", "atom_type": "Cs"}, "6": {"label": "*1", "atom_type": "Cs"}, "10": {"label": "*2", "atom_type": "H0"}}

>  <type>  (16) 
unop_12

>  <geom_source>  (16) 
Heuristics

$$$$

     RDKit          3D

 13 11  0  0  0  0  0  0  0  0999 V2000
   -2.5302    0.2895   -0.0001 O   0  0  0  0  0  0  0  0  0  0  0  0
   -1.1205    0.2227    0.0033 N   0  0  0  0  0  0  0  0  0  0  0  0
   -0.5412   -0.8675   -0.0048 C   0  0  0  0  0  3  0  0  0  0  0  0
   -2.7252    1.2367    0.0080 H   0  0  0  0  0  0  0  0  0  0  0  0
   -0.9392   -1.8745   -0.0150 H   0  0  0  0  0  0  0  0  0  0  0  0
    2.3688    0.8472   -0.0036 C   0  0  0  0  0  0  0  0  0  0  0  0
    2.0725   -0.6255    0.0050 C   0  0  0  0  0  0  0  0  0  0  0  0
    3.4465    1.0267    0.0007 H   0  0  0  0  0  0  0  0  0  0  0  0
    1.9528    1.3175   -0.8916 H   0  0  0  0  0  0  0  0  0  0  0  0
    1.9437    1.3295    0.8737 H   0  0  0  0  0  0  0  0  0  0  0  0
    0.7708   -0.7587    0.0001 H   0  0  0  0  0  0  0  0  0  0  0  0
    2.4011   -1.1303    0.9068 H   0  0  0  0  0  0  0  0  0  0  0  0
    2.4094   -1.1426   -0.8867 H   0  0  0  0  0  0  0  0  0  0  0  0
  1  2  1  0
  1  4  1  0
  2  3  2  3
  3  5  1  0
  6  7  1  0
  6  8  1  0
  6  9  1  0
  6 10  1  0
  7 11  1  0
  7 12  1  0
  7 13  1  0
M  RAD  1   3   2
M  END
>  <reaction>  (17) 
rmg_rxn_15388

>  <mol_properties>  (17) 
{"1": {"label": "*4", "atom_type": "N3d"}, "2": {"label": "*3", "atom_type": "Cd"}, "5": {"label": "*0", "atom_type": "Cs"}, "6": {"label": "*1", "atom_type": "Cs"}, "10": {"label": "*2", "atom_type": "H0"}}

>  <type>  (17) 
unop_13

>  <geom_source>  (17) 
Heuristics

$$$$

     RDKit          3D

 13 11  0  0  0  0  0  0  0  0999 V2000
    0.2633    1.7181    1.9617 O   0  0  0  0  0  0  0  0  0  0  0  0
    0.6628    0.9993    0.8523 N   0  0  0  0  0  0  0  0  0  0  0  0
   -0.3148    0.6774    0.1214 C   0  0  0  0  0  0  0  0  0  0  0  0
    1.0871    1.8944    2.4204 H   0  0  0  0  0  0  0  0  0  0  0  0
   -1.3409    0.9478    0.3614 H   0  0  0  0  0  0  0  0  0  0  0  0
   -0.3148   -1.7530   -2.3473 C   0  0  0  0  0  0  0  0  0  0  0  0
   -0.3148   -1.7530   -0.8245 C   0  0  0  0  0  3  0  0  0  0  0  0
    0.5660   -1.2444   -2.7432 H   0  0  0  0  0  0  0  0  0  0  0  0
   -0.3148   -2.7701   -2.7432 H   0  0  0  0  0  0  0  0  0  0  0  0
   -1.1957   -1.2444   -2.7432 H   0  0  0  0  0  0  0  0  0  0  0  0
   -0.3148   -0.5324   -0.3495 H   0  0  0  0  0  0  0  0  0  0  0  0
    0.5660   -2.2615   -0.4287 H   0  0  0  0  0  0  0  0  0  0  0  0
   -1.1957   -2.2615   -0.4287 H   0  0  0  0  0  0  0  0  0  0  0  0
  1  2  1  0
  1  4  1  0
  2  3  2  3
  3  5  1  0
  3 11  1  0
  6  7  1  0
  6  8  1  0
  6  9  1  0
  6 10  1  0
  7 12  1  0
  7 13  1  0
M  RAD  1   7   2
M  END
>  <reaction>  (18) 
rmg_rxn_15388

>  <mol_properties>  (18) 
{"1": {"label": "*4", "atom_type": "N3d"}, "2": {"label": "*3", "atom_type": "Cd"}, "5": {"label": "*0", "atom_type": "Cs"}, "6": {"label": "*1", "atom_type": "Cs"}, "10": {"label": "*2", "atom_type": "H0"}}

>  <type>  (18) 
unop_14

>  <geom_source>  (18) 
Heuristics

$$$$

     RDKit          3D

 13 11  0  0  0  0  0  0  0  0999 V2000
   -2.5298   -0.2897   -0.0005 O   0  0  0  0  0  0  0  0  0  0  0  0
   -1.1201   -0.2224    0.0006 N   0  0  0  0  0  0  0  0  0  0  0  0
   -0.5411    0.8679    0.0004 C   0  0  0  0  0  3  0  0  0  0  0  0
   -2.7244   -1.2370   -0.0001 H   0  0  0  0  0  0  0  0  0  0  0  0
   -0.9393    1.8749   -0.0005 H   0  0  0  0  0  0  0  0  0  0  0  0
    2.3676   -0.8475    0.0000 C   0  0  0  0  0  0  0  0  0  0  0  0
    2.0726    0.6254   -0.0003 C   0  0  0  0  0  0  0  0  0  0  0  0
    3.4452   -1.0279   -0.0023 H   0  0  0  0  0  0  0  0  0  0  0  0
    1.9486   -1.3230    0.8840 H   0  0  0  0  0  0  0  0  0  0  0  0
    1.9448   -1.3241   -0.8814 H   0  0  0  0  0  0  0  0  0  0  0  0
    0.7710    0.7591    0.0005 H   0  0  0  0  0  0  0  0  0  0  0  0
    2.4051    1.1358   -0.8976 H   0  0  0  0  0  0  0  0  0  0  0  0
    2.4064    1.1366    0.8960 H   0  0  0  0  0  0  0  0  0  0  0  0
  1  2  1  0
  1  4  1  0
  2  3  2  3
  3  5  1  0
  6  7  1  0
  6  8  1  0
  6  9  1  0
  6 10  1  0
  7 11  1  0
  7 12  1  0
  7 13  1  0
M  RAD  1   3   2
M  END
>  <reaction>  (19) 
rmg_rxn_15388

>  <mol_properties>  (19) 
{"1": {"label": "*4", "atom_type": "N3d"}, "2": {"label": "*3", "atom_type": "Cd"}, "5": {"label": "*0", "atom_type": "Cs"}, "6": {"label": "*1", "atom_type": "Cs"}, "10": {"label": "*2", "atom_type": "H0"}}

>  <type>  (19) 
unop_15

>  <geom_source>  (19) 
Heuristics

$$$$

     RDKit          3D

 13 11  0  0  0  0  0  0  0  0999 V2000
   -0.6764    1.8385    1.7082 O   0  0  0  0  0  0  0  0  0  0  0  0
   -0.6491    1.1177    0.5306 N   0  0  0  0  0  0  0  0  0  0  0  0
    0.4797    0.5911    0.3256 C   0  0  0  0  0  0  0  0  0  0  0  0
   -1.5731    2.1778    1.7400 H   0  0  0  0  0  0  0  0  0  0  0  0
    1.3150    0.7079    1.0128 H   0  0  0  0  0  0  0  0  0  0  0  0
    0.4797   -1.8393   -2.1430 C   0  0  0  0  0  0  0  0  0  0  0  0
    0.4797   -1.8393   -0.6202 C   0  0  0  0  0  3  0  0  0  0  0  0
    1.3605   -1.3307   -2.5389 H   0  0  0  0  0  0  0  0  0  0  0  0
    0.4797   -2.8564   -2.5389 H   0  0  0  0  0  0  0  0  0  0  0  0
   -0.4012   -1.3307   -2.5389 H   0  0  0  0  0  0  0  0  0  0  0  0
    0.4797   -0.6187   -0.1452 H   0  0  0  0  0  0  0  0  0  0  0  0
    1.3605   -2.3478   -0.2244 H   0  0  0  0  0  0  0  0  0  0  0  0
   -0.4012   -2.3478   -0.2244 H   0  0  0  0  0  0  0  0  0  0  0  0
  1  2  1  0
  1  4  1  0
  2  3  2  3
  3  5  1  0
  3 11  1  0
  6  7  1  0
  6  8  1  0
  6  9  1  0
  6 10  1  0
  7 12  1  0
  7 13  1  0
M  RAD  1   7   2
M  END
>  <reaction>  (20) 
rmg_rxn_15388

>  <mol_properties>  (20) 
{"1": {"label": "*4", "atom_type": "N3d"}, "2": {"label": "*3", "atom_type": "Cd"}, "5": {"label": "*0", "atom_type": "Cs"}, "6": {"label": "*1", "atom_type": "Cs"}, "10": {"label": "*2", "atom_type": "H0"}}

>  <type>  (20) 
unop_16

>  <geom_source>  (20) 
Heuristics

$$$$

     RDKit          3D

 13 11  0  0  0  0  0  0  0  0999 V2000
   -2.5314    0.2889    0.0006 O   0  0  0  0  0  0  0  0  0  0  0  0
   -1.1216    0.2234   -0.0030 N   0  0  0  0  0  0  0  0  0  0  0  0
   -0.5414   -0.8663    0.0033 C   0  0  0  0  0  3  0  0  0  0  0  0
   -2.7273    1.2359   -0.0060 H   0  0  0  0  0  0  0  0  0  0  0  0
   -0.9388   -1.8736    0.0107 H   0  0  0  0  0  0  0  0  0  0  0  0
    2.3714    0.8465    0.0026 C   0  0  0  0  0  0  0  0  0  0  0  0
    2.0725   -0.6257   -0.0034 C   0  0  0  0  0  0  0  0  0  0  0  0
    3.4495    1.0239    0.0012 H   0  0  0  0  0  0  0  0  0  0  0  0
    1.9499    1.3275   -0.8771 H   0  0  0  0  0  0  0  0  0  0  0  0
    1.9536    1.3197    0.8883 H   0  0  0  0  0  0  0  0  0  0  0  0
    0.7705   -0.7571   -0.0002 H   0  0  0  0  0  0  0  0  0  0  0  0
    2.4068   -1.1414    0.8901 H   0  0  0  0  0  0  0  0  0  0  0  0
    2.4018   -1.1331   -0.9035 H   0  0  0  0  0  0  0  0  0  0  0  0
  1  2  1  0
  1  4  1  0
  2  3  2  3
  3  5  1  0
  6  7  1  0
  6  8  1  0
  6  9  1  0
  6 10  1  0
  7 11  1  0
  7 12  1  0
  7 13  1  0
M  RAD  1   3   2
M  END
>  <reaction>  (21) 
rmg_rxn_15388

>  <mol_properties>  (21) 
{"1": {"label": "*4", "atom_type": "N3d"}, "2": {"label": "*3", "atom_type": "Cd"}, "5": {"label": "*0", "atom_type": "Cs"}, "6": {"label": "*1", "atom_type": "Cs"}, "10": {"label": "*2", "atom_type": "H0"}}

>  <type>  (21) 
unop_17

>  <geom_source>  (21) 
Heuristics

$$$$

     RDKit          3D

 13 11  0  0  0  0  0  0  0  0999 V2000
    0.5556    2.3589    0.8381 O   0  0  0  0  0  0  0  0  0  0  0  0
    0.2567    1.2255    0.1079 N   0  0  0  0  0  0  0  0  0  0  0  0
   -0.3077    0.3444    0.8139 C   0  0  0  0  0  0  0  0  0  0  0  0
    0.9721    2.9346    0.1938 H   0  0  0  0  0  0  0  0  0  0  0  0
   -0.5213    0.4878    1.8710 H   0  0  0  0  0  0  0  0  0  0  0  0
   -0.3077   -2.0860   -1.6548 C   0  0  0  0  0  0  0  0  0  0  0  0
   -0.3077   -2.0860   -0.1320 C   0  0  0  0  0  3  0  0  0  0  0  0
    0.5732   -1.5774   -2.0506 H   0  0  0  0  0  0  0  0  0  0  0  0
   -0.3077   -3.1031   -2.0506 H   0  0  0  0  0  0  0  0  0  0  0  0
   -1.1885   -1.5774   -2.0506 H   0  0  0  0  0  0  0  0  0  0  0  0
   -0.3077   -0.8654    0.3431 H   0  0  0  0  0  0  0  0  0  0  0  0
    0.5732   -2.5945    0.2639 H   0  0  0  0  0  0  0  0  0  0  0  0
   -1.1885   -2.5945    0.2639 H   0  0  0  0  0  0  0  0  0  0  0  0
  1  2  1  0
  1  4  1  0
  2  3  2  3
  3  5  1  0
  3 11  1  0
  6  7  1  0
  6  8  1  0
  6  9  1  0
  6 10  1  0
  7 12  1  0
  7 13  1  0
M  RAD  1   7   2
M  END
>  <reaction>  (22) 
rmg_rxn_15388

>  <mol_properties>  (22) 
{"1": {"label": "*4", "atom_type": "N3d"}, "2": {"label": "*3", "atom_type": "Cd"}, "5": {"label": "*0", "atom_type": "Cs"}, "6": {"label": "*1", "atom_type": "Cs"}, "10": {"label": "*2", "atom_type": "H0"}}

>  <type>  (22) 
unop_18

>  <geom_source>  (22) 
Heuristics

$$$$

     RDKit          3D

 13 11  0  0  0  0  0  0  0  0999 V2000
   -0.8105    2.0959    1.2639 O   0  0  0  0  0  0  0  0  0  0  0  0
   -0.4920    1.1934    0.2684 N   0  0  0  0  0  0  0  0  0  0  0  0
    0.4855    0.4621    0.5894 C   0  0  0  0  0  0  0  0  0  0  0  0
   -1.5541    2.5780    0.8969 H   0  0  0  0  0  0  0  0  0  0  0  0
    0.9980    0.5539    1.5447 H   0  0  0  0  0  0  0  0  0  0  0  0
    0.4855   -1.9683   -1.8792 C   0  0  0  0  0  0  0  0  0  0  0  0
    0.4855   -1.9683   -0.3565 C   0  0  0  0  0  3  0  0  0  0  0  0
    1.3664   -1.4597   -2.2751 H   0  0  0  0  0  0  0  0  0  0  0  0
    0.4855   -2.9854   -2.2751 H   0  0  0  0  0  0  0  0  0  0  0  0
   -0.3953   -1.4597   -2.2751 H   0  0  0  0  0  0  0  0  0  0  0  0
    0.4855   -0.7477    0.1186 H   0  0  0  0  0  0  0  0  0  0  0  0
    1.3664   -2.4768    0.0394 H   0  0  0  0  0  0  0  0  0  0  0  0
   -0.3953   -2.4768    0.0394 H   0  0  0  0  0  0  0  0  0  0  0  0
  1  2  1  0
  1  4  1  0
  2  3  2  3
  3  5  1  0
  3 11  1  0
  6  7  1  0
  6  8  1  0
  6  9  1  0
  6 10  1  0
  7 12  1  0
  7 13  1  0
M  RAD  1   7   2
M  END
>  <reaction>  (23) 
rmg_rxn_15388

>  <mol_properties>  (23) 
{"1": {"label": "*4", "atom_type": "N3d"}, "2": {"label": "*3", "atom_type": "Cd"}, "5": {"label": "*0", "atom_type": "Cs"}, "6": {"label": "*1", "atom_type": "Cs"}, "10": {"label": "*2", "atom_type": "H0"}}

>  <type>  (23) 
unop_19

>  <geom_source>  (23) 
Heuristics

$$$$

     RDKit          3D

 13 11  0  0  0  0  0  0  0  0999 V2000
   -0.1388    1.8391    1.9044 O   0  0  0  0  0  0  0  0  0  0  0  0
    0.4734    0.8473    1.1636 N   0  0  0  0  0  0  0  0  0  0  0  0
   -0.0910    0.6753    0.0476 C   0  0  0  0  0  0  0  0  0  0  0  0
    0.3794    1.8654    2.7111 H   0  0  0  0  0  0  0  0  0  0  0  0
   -0.9564    1.2544   -0.2676 H   0  0  0  0  0  0  0  0  0  0  0  0
   -0.0910   -1.7550   -2.4210 C   0  0  0  0  0  0  0  0  0  0  0  0
   -0.0910   -1.7550   -0.8983 C   0  0  0  0  0  3  0  0  0  0  0  0
    0.7898   -1.2465   -2.8169 H   0  0  0  0  0  0  0  0  0  0  0  0
   -0.0910   -2.7722   -2.8169 H   0  0  0  0  0  0  0  0  0  0  0  0
   -0.9719   -1.2465   -2.8169 H   0  0  0  0  0  0  0  0  0  0  0  0
   -0.0910   -0.5345   -0.4232 H   0  0  0  0  0  0  0  0  0  0  0  0
    0.7898   -2.2636   -0.5024 H   0  0  0  0  0  0  0  0  0  0  0  0
   -0.9719   -2.2636   -0.5024 H   0  0  0  0  0  0  0  0  0  0  0  0
  1  2  1  0
  1  4  1  0
  2  3  2  3
  3  5  1  0
  3 11  1  0
  6  7  1  0
  6  8  1  0
  6  9  1  0
  6 10  1  0
  7 12  1  0
  7 13  1  0
M  RAD  1   7   2
M  END
>  <reaction>  (24) 
rmg_rxn_15388

>  <mol_properties>  (24) 
{"1": {"label": "*4", "atom_type": "N3d"}, "2": {"label": "*3", "atom_type": "Cd"}, "5": {"label": "*0", "atom_type": "Cs"}, "6": {"label": "*1", "atom_type": "Cs"}, "10": {"label": "*2", "atom_type": "H0"}}

>  <type>  (24) 
unop_20

>  <geom_source>  (24) 
Heuristics

$$$$

     RDKit          3D

 13 11  0  0  0  0  0  0  0  0999 V2000
   -0.0000    2.4737    0.6594 O   0  0  0  0  0  0  0  0  0  0  0  0
    0.0000    1.2315    0.0562 N   0  0  0  0  0  0  0  0  0  0  0  0
    0.0000    0.2955    0.9032 C   0  0  0  0  0  0  0  0  0  0  0  0
   -0.0000    3.0810   -0.0830 H   0  0  0  0  0  0  0  0  0  0  0  0
    0.0000    0.4752    1.9762 H   0  0  0  0  0  0  0  0  0  0  0  0
    0.0000   -2.1349   -1.5655 C   0  0  0  0  0  0  0  0  0  0  0  0
    0.0000   -2.1349   -0.0427 C   0  0  0  0  0  3  0  0  0  0  0  0
    0.8808   -1.6263   -1.9613 H   0  0  0  0  0  0  0  0  0  0  0  0
    0.0000   -3.1520   -1.9613 H   0  0  0  0  0  0  0  0  0  0  0  0
   -0.8808   -1.6263   -1.9613 H   0  0  0  0  0  0  0  0  0  0  0  0
    0.0000   -0.9143    0.4323 H   0  0  0  0  0  0  0  0  0  0  0  0
    0.8808   -2.6434    0.3532 H   0  0  0  0  0  0  0  0  0  0  0  0
   -0.8808   -2.6434    0.3532 H   0  0  0  0  0  0  0  0  0  0  0  0
  1  2  1  0
  1  4  1  0
  2  3  2  3
  3  5  1  0
  3 11  1  0
  6  7  1  0
  6  8  1  0
  6  9  1  0
  6 10  1  0
  7 12  1  0
  7 13  1  0
M  RAD  1   7   2
M  END
>  <reaction>  (25) 
rmg_rxn_15388

>  <mol_properties>  (25) 
{"1": {"label": "*4", "atom_type": "N3d"}, "2": {"label": "*3", "atom_type": "Cd"}, "5": {"label": "*0", "atom_type": "Cs"}, "6": {"label": "*1", "atom_type": "Cs"}, "10": {"label": "*2", "atom_type": "H0"}}

>  <type>  (25) 
unop_21

>  <geom_source>  (25) 
Heuristics

$$$$

     RDKit          3D

 13 11  0  0  0  0  0  0  0  0999 V2000
    2.3304    0.3336   -0.6271 O   0  0  0  0  0  0  0  0  0  0  0  0
    2.3956   -0.6106    0.3699 N   0  0  0  0  0  0  0  0  0  0  0  0
   -2.0021    0.7521   -0.0883 C   0  0  0  0  0  0  0  0  0  0  0  0
   -0.7414   -0.0722   -0.2724 C   0  0  0  0  0  3  0  0  0  0  0  0
    1.3260   -0.9716    0.9970 C   0  0  0  0  0  0  0  0  0  0  0  0
   -2.5846    0.7690   -1.0335 H   0  0  0  0  0  0  0  0  0  0  0  0
   -2.6226    0.3078    0.7176 H   0  0  0  0  0  0  0  0  0  0  0  0
   -1.7298    1.7904    0.1938 H   0  0  0  0  0  0  0  0  0  0  0  0
   -1.0057   -1.1152   -0.5464 H   0  0  0  0  0  0  0  0  0  0  0  0
   -0.1106    0.3711   -1.0715 H   0  0  0  0  0  0  0  0  0  0  0  0
    1.3855   -1.7150    1.7801 H   0  0  0  0  0  0  0  0  0  0  0  0
    0.1874   -0.4522    0.6963 H   0  0  0  0  0  0  0  0  0  0  0  0
    3.1718    0.6130   -1.1154 H   0  0  0  0  0  0  0  0  0  0  0  0
  1  2  1  0
  1 13  1  0
  2  5  2  3
  3  4  1  0
  3  6  1  0
  3  7  1  0
  3  8  1  0
  4  9  1  0
  4 10  1  0
  5 11  1  0
  5 12  1  0
M  RAD  1   4   2
M  END
>  <reaction>  (26) 
rmg_rxn_15388

>  <mol_properties>  (26) 
{"1": {"label": "*4", "atom_type": "N3d"}, "2": {"label": "*3", "atom_type": "Cd"}, "5": {"label": "*0", "atom_type": "Cs"}, "6": {"label": "*1", "atom_type": "Cs"}, "10": {"label": "*2", "atom_type": "H0"}}

>  <type>  (26) 
unop_22

>  <geom_source>  (26) 
AutoTST

$$$$

     RDKit          3D

 13 11  0  0  0  0  0  0  0  0999 V2000
   -0.5556    2.3589    0.8381 O   0  0  0  0  0  0  0  0  0  0  0  0
   -0.2567    1.2255    0.1079 N   0  0  0  0  0  0  0  0  0  0  0  0
    0.3077    0.3444    0.8139 C   0  0  0  0  0  0  0  0  0  0  0  0
   -0.9721    2.9346    0.1938 H   0  0  0  0  0  0  0  0  0  0  0  0
    0.5213    0.4878    1.8710 H   0  0  0  0  0  0  0  0  0  0  0  0
    0.3077   -2.0860   -1.6547 C   0  0  0  0  0  0  0  0  0  0  0  0
    0.3077   -2.0860   -0.1320 C   0  0  0  0  0  3  0  0  0  0  0  0
    1.1885   -1.5774   -2.0506 H   0  0  0  0  0  0  0  0  0  0  0  0
    0.3077   -3.1031   -2.0506 H   0  0  0  0  0  0  0  0  0  0  0  0
   -0.5732   -1.5774   -2.0506 H   0  0  0  0  0  0  0  0  0  0  0  0
    0.3077   -0.8655    0.3431 H   0  0  0  0  0  0  0  0  0  0  0  0
    1.1885   -2.5945    0.2639 H   0  0  0  0  0  0  0  0  0  0  0  0
   -0.5732   -2.5945    0.2639 H   0  0  0  0  0  0  0  0  0  0  0  0
  1  2  1  0
  1  4  1  0
  2  3  2  3
  3  5  1  0
  3 11  1  0
  6  7  1  0
  6  8  1  0
  6  9  1  0
  6 10  1  0
  7 12  1  0
  7 13  1  0
M  RAD  1   7   2
M  END
>  <reaction>  (27) 
rmg_rxn_15388

>  <mol_properties>  (27) 
{"1": {"label": "*4", "atom_type": "N3d"}, "2": {"label": "*3", "atom_type": "Cd"}, "5": {"label": "*0", "atom_type": "Cs"}, "6": {"label": "*1", "atom_type": "Cs"}, "10": {"label": "*2", "atom_type": "H0"}}

>  <type>  (27) 
unop_23

>  <geom_source>  (27) 
gaussian_log

$$$$
