
     RDKit          3D

 10  9  0  0  0  0  0  0  0  0999 V2000
    2.0861   -0.0291   -0.2114 C   0  0  0  0  0  0  0  0  0  0  0  0
    0.8590   -0.0801    0.2151 C   0  0  0  0  0  0  0  0  0  0  0  0
   -0.3701   -0.1299    0.6360 C   0  0  0  0  0  0  0  0  0  0  0  0
   -1.5792    0.1084   -0.2228 C   0  0  0  0  0  0  0  0  0  0  0  0
    2.6495    0.8968   -0.1902 H   0  0  0  0  0  0  0  0  0  0  0  0
    2.5830   -0.9114   -0.5982 H   0  0  0  0  0  0  0  0  0  0  0  0
   -0.5397   -0.3602    1.6844 H   0  0  0  0  0  0  0  0  0  0  0  0
   -2.2286   -0.7700   -0.2248 H   0  0  0  0  0  0  0  0  0  0  0  0
   -1.2946    0.3298   -1.2505 H   0  0  0  0  0  0  0  0  0  0  0  0
   -2.1655    0.9457    0.1623 H   0  0  0  0  0  0  0  0  0  0  0  0
  1  2  2  0
  1  5  1  0
  1  6  1  0
  2  3  2  0
  3  4  1  0
  3  7  1  0
  4  8  1  0
  4  9  1  0
  4 10  1  0
M  END
>  <reaction>  (1) 
rmg_rxn_15392

>  <mol_properties>  (1) 
{"2": {"label": "donator", "atom_type": "Cd"}, "6": {"label": "d_hydrogen", "atom_type": "H0"}}

>  <type>  (1) 
r1h

$$$$

     RDKit          3D

  5  4  0  0  0  0  0  0  0  0999 V2000
    0.8934    0.3742    0.4948 O   0  0  0  0  0  0  0  0  0  0  0  0
    0.1582   -0.1610   -0.5904 N   0  0  0  0  0  0  0  0  0  0  0  0
   -1.0297   -0.3739   -0.4689 C   0  0  0  0  0  3  0  0  0  0  0  0
    1.7804    0.4382    0.1306 H   0  0  0  0  0  0  0  0  0  0  0  0
   -1.8023   -0.2775    0.2859 H   0  0  0  0  0  0  0  0  0  0  0  0
  1  2  1  0
  1  4  1  0
  2  3  2  3
  3  5  1  0
M  RAD  1   3   2
M  END
>  <reaction>  (2) 
rmg_rxn_15392

>  <mol_properties>  (2) 
{"2": {"label": "acceptor", "atom_type": "Cd"}}

>  <type>  (2) 
r2

$$$$

     RDKit          3D

  6  5  0  0  0  0  0  0  0  0999 V2000
    1.2314    0.0428    0.5088 O   0  0  0  0  0  0  0  0  0  0  0  0
    0.2987    0.2341   -0.4915 N   0  0  0  0  0  0  0  0  0  0  0  0
   -0.8599   -0.1122   -0.1290 C   0  0  0  0  0  0  0  0  0  0  0  0
    2.0507    0.3401    0.1082 H   0  0  0  0  0  0  0  0  0  0  0  0
   -1.0700   -0.5112    0.8610 H   0  0  0  0  0  0  0  0  0  0  0  0
   -1.6509    0.0064   -0.8574 H   0  0  0  0  0  0  0  0  0  0  0  0
  1  2  1  0
  1  4  1  0
  2  3  2  3
  3  5  1  0
  3  6  1  0
M  END
>  <reaction>  (3) 
rmg_rxn_15392

>  <mol_properties>  (3) 
{"2": {"label": "acceptor", "atom_type": "Cd"}, "5": {"label": "a_hydrogen", "atom_type": "H0"}}

>  <type>  (3) 
r2h

$$$$

     RDKit          3D

 15 13  0  0  0  0  0  0  0  0999 V2000
   -3.4469    0.4590   -0.0140 O   0  0  0  0  0  0  0  0  0  0  0  0
   -2.1480   -0.0654   -0.0087 N   0  0  0  0  0  0  0  0  0  0  0  0
   -1.2451    0.7825   -0.0066 C   0  0  0  0  0  3  0  0  0  0  0  0
   -3.9938   -0.3302   -0.0149 H   0  0  0  0  0  0  0  0  0  0  0  0
   -1.3064    1.8698   -0.0082 H   0  0  0  0  0  0  0  0  0  0  0  0
    3.2535    1.0802    0.0090 C   0  0  0  0  0  0  0  0  0  0  0  0
    2.2110    0.2888    0.0063 C   0  0  0  0  0  0  0  0  0  0  0  0
    1.1500   -0.4331    0.0034 C   0  0  0  0  0  0  0  0  0  0  0  0
    0.9231   -1.9052    0.0043 C   0  0  0  0  0  0  0  0  0  0  0  0
    3.7076    1.4119   -0.9174 H   0  0  0  0  0  0  0  0  0  0  0  0
    3.7010    1.4141    0.9378 H   0  0  0  0  0  0  0  0  0  0  0  0
    0.0910    0.2027   -0.0012 H   0  0  0  0  0  0  0  0  0  0  0  0
    1.8694   -2.4469    0.0083 H   0  0  0  0  0  0  0  0  0  0  0  0
    0.3502   -2.2023   -0.8760 H   0  0  0  0  0  0  0  0  0  0  0  0
    0.3440   -2.2002    0.8813 H   0  0  0  0  0  0  0  0  0  0  0  0
  1  2  1  0
  1  4  1  0
  2  3  2  3
  3  5  1  0
  6  7  2  0
  6 10  1  0
  6 11  1  0
  7  8  2  0
  8  9  1  0
  8 12  1  0
  9 13  1  0
  9 14  1  0
  9 15  1  0
M  RAD  1   3   2
M  END
>  <reaction>  (4) 
rmg_rxn_15392

>  <mol_properties>  (4) 
{"1": {"label": "*4", "atom_type": "N3d"}, "2": {"label": "*3", "atom_type": "Cd"}, "6": {"label": "*0", "atom_type": "Cdd"}, "7": {"label": "*1", "atom_type": "Cd"}, "11": {"label": "*2", "atom_type": "H0"}}

>  <type>  (4) 
ts

$$$$

     RDKit          3D

 15 13  0  0  0  0  0  0  0  0999 V2000
    3.3242   -0.4225   -0.0003 O   0  0  0  0  0  0  0  0  0  0  0  0
    2.0094    0.0733   -0.0008 N   0  0  0  0  0  0  0  0  0  0  0  0
    1.0644   -0.7339    0.0015 C   0  0  0  0  0  0  0  0  0  0  0  0
    3.8809    0.3683   -0.0024 H   0  0  0  0  0  0  0  0  0  0  0  0
    1.1018   -1.8169    0.0039 H   0  0  0  0  0  0  0  0  0  0  0  0
   -3.1756   -1.1731   -0.0005 C   0  0  0  0  0  0  0  0  0  0  0  0
   -2.2440   -0.2298   -0.0002 C   0  0  0  0  0  0  0  0  0  0  0  0
   -1.2301    0.5120    0.0002 C   0  0  0  0  0  3  0  0  0  0  0  0
   -0.8173    1.9239    0.0003 C   0  0  0  0  0  0  0  0  0  0  0  0
   -3.5927   -1.5443   -0.9210 H   0  0  0  0  0  0  0  0  0  0  0  0
   -3.5936   -1.5440    0.9197 H   0  0  0  0  0  0  0  0  0  0  0  0
   -0.0710   -0.1913    0.0009 H   0  0  0  0  0  0  0  0  0  0  0  0
   -0.2154    2.1386    0.8826 H   0  0  0  0  0  0  0  0  0  0  0  0
   -1.6912    2.5757   -0.0014 H   0  0  0  0  0  0  0  0  0  0  0  0
   -0.2125    2.1379   -0.8802 H   0  0  0  0  0  0  0  0  0  0  0  0
  1  2  1  0
  1  4  1  0
  2  3  2  3
  3  5  1  0
  3 12  1  0
  6  7  2  0
  6 10  1  0
  6 11  1  0
  7  8  2  0
  8  9  1  0
  9 13  1  0
  9 14  1  0
  9 15  1  0
M  RAD  1   8   2
M  END
>  <reaction>  (5) 
rmg_rxn_15392

>  <mol_properties>  (5) 
{"1": {"label": "*4", "atom_type": "N3d"}, "2": {"label": "*3", "atom_type": "Cd"}, "6": {"label": "*0", "atom_type": "Cdd"}, "7": {"label": "*1", "atom_type": "Cd"}, "11": {"label": "*2", "atom_type": "H0"}}

>  <type>  (5) 
unop_1

>  <geom_source>  (5) 
crest_best.xyz

$$$$

     RDKit          3D

 15 13  0  0  0  0  0  0  0  0999 V2000
    2.0193   -0.6567    2.5630 O   0  0  0  0  0  0  0  0  0  0  0  0
    1.6819   -0.0332    1.3779 N   0  0  0  0  0  0  0  0  0  0  0  0
    1.0247   -0.7941    0.6146 C   0  0  0  0  0  0  0  0  0  0  0  0
    2.5055    0.0194    3.0390 H   0  0  0  0  0  0  0  0  0  0  0  0
    0.7683   -1.8164    0.8844 H   0  0  0  0  0  0  0  0  0  0  0  0
   -1.0190    0.2603   -3.2035 C   0  0  0  0  0  0  0  0  0  0  0  0
   -1.0190    0.2603   -1.9033 C   0  0  0  0  0  0  0  0  0  0  0  0
   -1.0190    0.2603   -0.6033 C   0  0  0  0  0  3  0  0  0  0  0  0
   -2.1212    0.8161    0.2526 C   0  0  0  0  0  0  0  0  0  0  0  0
   -0.6002    1.0877   -3.7647 H   0  0  0  0  0  0  0  0  0  0  0  0
   -1.4354   -0.5684   -3.7647 H   0  0  0  0  0  0  0  0  0  0  0  0
    0.0051   -0.2681    0.0071 H   0  0  0  0  0  0  0  0  0  0  0  0
   -2.5348    0.0391    0.8995 H   0  0  0  0  0  0  0  0  0  0  0  0
   -2.9267    1.2223   -0.3577 H   0  0  0  0  0  0  0  0  0  0  0  0
   -1.7423    1.6106    0.8995 H   0  0  0  0  0  0  0  0  0  0  0  0
  1  2  1  0
  1  4  1  0
  2  3  2  3
  3  5  1  0
  3 12  1  0
  6  7  2  0
  6 10  1  0
  6 11  1  0
  7  8  2  0
  8  9  1  0
  9 13  1  0
  9 14  1  0
  9 15  1  0
M  RAD  1   8   2
M  END
>  <reaction>  (6) 
rmg_rxn_15392

>  <mol_properties>  (6) 
{"1": {"label": "*4", "atom_type": "N3d"}, "2": {"label": "*3", "atom_type": "Cd"}, "6": {"label": "*0", "atom_type": "Cdd"}, "7": {"label": "*1", "atom_type": "Cd"}, "11": {"label": "*2", "atom_type": "H0"}}

>  <type>  (6) 
unop_2

>  <geom_source>  (6) 
Heuristics

$$$$

     RDKit          3D

 15 13  0  0  0  0  0  0  0  0999 V2000
    3.3244   -0.4224   -0.0015 O   0  0  0  0  0  0  0  0  0  0  0  0
    2.0095    0.0732   -0.0029 N   0  0  0  0  0  0  0  0  0  0  0  0
    1.0646   -0.7339    0.0062 C   0  0  0  0  0  0  0  0  0  0  0  0
    3.8809    0.3684   -0.0098 H   0  0  0  0  0  0  0  0  0  0  0  0
    1.1022   -1.8169    0.0152 H   0  0  0  0  0  0  0  0  0  0  0  0
   -3.1762   -1.1726   -0.0023 C   0  0  0  0  0  0  0  0  0  0  0  0
   -2.2439   -0.2299   -0.0010 C   0  0  0  0  0  0  0  0  0  0  0  0
   -1.2300    0.5117    0.0010 C   0  0  0  0  0  3  0  0  0  0  0  0
   -0.8173    1.9237    0.0009 C   0  0  0  0  0  0  0  0  0  0  0  0
   -3.5918   -1.5443   -0.9233 H   0  0  0  0  0  0  0  0  0  0  0  0
   -3.5960   -1.5427    0.9174 H   0  0  0  0  0  0  0  0  0  0  0  0
   -0.0709   -0.1915    0.0038 H   0  0  0  0  0  0  0  0  0  0  0  0
   -0.2113    2.1371   -0.8789 H   0  0  0  0  0  0  0  0  0  0  0  0
   -0.2165    2.1390    0.8839 H   0  0  0  0  0  0  0  0  0  0  0  0
   -1.6913    2.5755   -0.0024 H   0  0  0  0  0  0  0  0  0  0  0  0
  1  2  1  0
  1  4  1  0
  2  3  2  3
  3  5  1  0
  3 12  1  0
  6  7  2  0
  6 10  1  0
  6 11  1  0
  7  8  2  0
  8  9  1  0
  9 13  1  0
  9 14  1  0
  9 15  1  0
M  RAD  1   8   2
M  END
>  <reaction>  (7) 
rmg_rxn_15392

>  <mol_properties>  (7) 
{"1": {"label": "*4", "atom_type": "N3d"}, "2": {"label": "*3", "atom_type": "Cd"}, "6": {"label": "*0", "atom_type": "Cdd"}, "7": {"label": "*1", "atom_type": "Cd"}, "11": {"label": "*2", "atom_type": "H0"}}

>  <type>  (7) 
unop_3

>  <geom_source>  (7) 
Heuristics

$$$$

     RDKit          3D

 15 13  0  0  0  0  0  0  0  0999 V2000
    3.3243   -0.4224   -0.0020 O   0  0  0  0  0  0  0  0  0  0  0  0
    2.0093    0.0731   -0.0038 N   0  0  0  0  0  0  0  0  0  0  0  0
    1.0644   -0.7340    0.0081 C   0  0  0  0  0  0  0  0  0  0  0  0
    3.8808    0.3685   -0.0125 H   0  0  0  0  0  0  0  0  0  0  0  0
    1.1020   -1.8170    0.0208 H   0  0  0  0  0  0  0  0  0  0  0  0
   -3.1760   -1.1726   -0.0030 C   0  0  0  0  0  0  0  0  0  0  0  0
   -2.2439   -0.2298   -0.0012 C   0  0  0  0  0  0  0  0  0  0  0  0
   -1.2300    0.5118    0.0010 C   0  0  0  0  0  3  0  0  0  0  0  0
   -0.8171    1.9238    0.0013 C   0  0  0  0  0  0  0  0  0  0  0  0
   -3.5913   -1.5442   -0.9241 H   0  0  0  0  0  0  0  0  0  0  0  0
   -3.5964   -1.5426    0.9165 H   0  0  0  0  0  0  0  0  0  0  0  0
   -0.0709   -0.1915    0.0053 H   0  0  0  0  0  0  0  0  0  0  0  0
   -0.2020    2.1349   -0.8727 H   0  0  0  0  0  0  0  0  0  0  0  0
   -0.2254    2.1412    0.8899 H   0  0  0  0  0  0  0  0  0  0  0  0
   -1.6908    2.5757   -0.0124 H   0  0  0  0  0  0  0  0  0  0  0  0
  1  2  1  0
  1  4  1  0
  2  3  2  3
  3  5  1  0
  3 12  1  0
  6  7  2  0
  6 10  1  0
  6 11  1  0
  7  8  2  0
  8  9  1  0
  9 13  1  0
  9 14  1  0
  9 15  1  0
M  RAD  1   8   2
M  END
>  <reaction>  (8) 
rmg_rxn_15392

>  <mol_properties>  (8) 
{"1": {"label": "*4", "atom_type": "N3d"}, "2": {"label": "*3", "atom_type": "Cd"}, "6": {"label": "*0", "atom_type": "Cdd"}, "7": {"label": "*1", "atom_type": "Cd"}, "11": {"label": "*2", "atom_type": "H0"}}

>  <type>  (8) 
unop_4

>  <geom_source>  (8) 
Heuristics

$$$$

     RDKit          3D

 15 13  0  0  0  0  0  0  0  0999 V2000
    3.3244    0.4226    0.0055 O   0  0  0  0  0  0  0  0  0  0  0  0
    2.0095   -0.0733    0.0090 N   0  0  0  0  0  0  0  0  0  0  0  0
    1.0646    0.7333   -0.0207 C   0  0  0  0  0  0  0  0  0  0  0  0
    3.8810   -0.3679    0.0315 H   0  0  0  0  0  0  0  0  0  0  0  0
    1.1021    1.8159   -0.0505 H   0  0  0  0  0  0  0  0  0  0  0  0
   -3.1753    1.1735    0.0077 C   0  0  0  0  0  0  0  0  0  0  0  0
   -2.2437    0.2302    0.0028 C   0  0  0  0  0  0  0  0  0  0  0  0
   -1.2302   -0.5119   -0.0028 C   0  0  0  0  0  3  0  0  0  0  0  0
   -0.8182   -1.9242   -0.0029 C   0  0  0  0  0  0  0  0  0  0  0  0
   -3.5856    1.5471    0.9303 H   0  0  0  0  0  0  0  0  0  0  0  0
   -3.6001    1.5421   -0.9103 H   0  0  0  0  0  0  0  0  0  0  0  0
   -0.0708    0.1908   -0.0138 H   0  0  0  0  0  0  0  0  0  0  0  0
   -0.1856   -2.1304    0.8596 H   0  0  0  0  0  0  0  0  0  0  0  0
   -0.2448   -2.1474   -0.9021 H   0  0  0  0  0  0  0  0  0  0  0  0
   -1.6918   -2.5753    0.0322 H   0  0  0  0  0  0  0  0  0  0  0  0
  1  2  1  0
  1  4  1  0
  2  3  2  3
  3  5  1  0
  3 12  1  0
  6  7  2  0
  6 10  1  0
  6 11  1  0
  7  8  2  0
  8  9  1  0
  9 13  1  0
  9 14  1  0
  9 15  1  0
M  RAD  1   8   2
M  END
>  <reaction>  (9) 
rmg_rxn_15392

>  <mol_properties>  (9) 
{"1": {"label": "*4", "atom_type": "N3d"}, "2": {"label": "*3", "atom_type": "Cd"}, "6": {"label": "*0", "atom_type": "Cdd"}, "7": {"label": "*1", "atom_type": "Cd"}, "11": {"label": "*2", "atom_type": "H0"}}

>  <type>  (9) 
unop_5

>  <geom_source>  (9) 
Heuristics

$$$$

     RDKit          3D

 15 13  0  0  0  0  0  0  0  0999 V2000
    2.9230   -0.7960    1.3620 O   0  0  0  0  0  0  0  0  0  0  0  0
    1.8605   -0.5842    0.5057 N   0  0  0  0  0  0  0  0  0  0  0  0
    0.7514   -0.6471    1.1051 C   0  0  0  0  0  0  0  0  0  0  0  0
    3.6884   -0.7223    0.7886 H   0  0  0  0  0  0  0  0  0  0  0  0
    0.6714   -0.8462    2.1717 H   0  0  0  0  0  0  0  0  0  0  0  0
   -1.2923    0.4073   -2.7130 C   0  0  0  0  0  0  0  0  0  0  0  0
   -1.2923    0.4073   -1.4129 C   0  0  0  0  0  0  0  0  0  0  0  0
   -1.2923    0.4073   -0.1128 C   0  0  0  0  0  3  0  0  0  0  0  0
   -2.3945    0.9632    0.7430 C   0  0  0  0  0  0  0  0  0  0  0  0
   -0.8735    1.2348   -3.2742 H   0  0  0  0  0  0  0  0  0  0  0  0
   -1.7087   -0.4214   -3.2742 H   0  0  0  0  0  0  0  0  0  0  0  0
   -0.2682   -0.1210    0.4975 H   0  0  0  0  0  0  0  0  0  0  0  0
   -2.8081    0.1862    1.3900 H   0  0  0  0  0  0  0  0  0  0  0  0
   -3.2000    1.3694    0.1328 H   0  0  0  0  0  0  0  0  0  0  0  0
   -2.0156    1.7576    1.3900 H   0  0  0  0  0  0  0  0  0  0  0  0
  1  2  1  0
  1  4  1  0
  2  3  2  3
  3  5  1  0
  3 12  1  0
  6  7  2  0
  6 10  1  0
  6 11  1  0
  7  8  2  0
  8  9  1  0
  9 13  1  0
  9 14  1  0
  9 15  1  0
M  RAD  1   8   2
M  END
>  <reaction>  (10) 
rmg_rxn_15392

>  <mol_properties>  (10) 
{"1": {"label": "*4", "atom_type": "N3d"}, "2": {"label": "*3", "atom_type": "Cd"}, "6": {"label": "*0", "atom_type": "Cdd"}, "7": {"label": "*1", "atom_type": "Cd"}, "11": {"label": "*2", "atom_type": "H0"}}

>  <type>  (10) 
unop_6

>  <geom_source>  (10) 
Heuristics

$$$$

     RDKit          3D

 15 13  0  0  0  0  0  0  0  0999 V2000
   -3.3245    0.4229   -0.0012 O   0  0  0  0  0  0  0  0  0  0  0  0
   -2.0099   -0.0738   -0.0019 N   0  0  0  0  0  0  0  0  0  0  0  0
   -1.0645    0.7327    0.0043 C   0  0  0  0  0  0  0  0  0  0  0  0
   -3.8817   -0.3674   -0.0064 H   0  0  0  0  0  0  0  0  0  0  0  0
   -1.1013    1.8157    0.0101 H   0  0  0  0  0  0  0  0  0  0  0  0
    3.1741    1.1749   -0.0016 C   0  0  0  0  0  0  0  0  0  0  0  0
    2.2436    0.2305   -0.0006 C   0  0  0  0  0  0  0  0  0  0  0  0
    1.2305   -0.5123    0.0006 C   0  0  0  0  0  3  0  0  0  0  0  0
    0.8195   -1.9248    0.0006 C   0  0  0  0  0  0  0  0  0  0  0  0
    3.5897    1.5469   -0.9225 H   0  0  0  0  0  0  0  0  0  0  0  0
    3.5928    1.5460    0.9182 H   0  0  0  0  0  0  0  0  0  0  0  0
    0.0708    0.1898    0.0028 H   0  0  0  0  0  0  0  0  0  0  0  0
    0.2095   -2.1379   -0.8765 H   0  0  0  0  0  0  0  0  0  0  0  0
    0.2234   -2.1419    0.8862 H   0  0  0  0  0  0  0  0  0  0  0  0
    1.6942   -2.5755   -0.0077 H   0  0  0  0  0  0  0  0  0  0  0  0
  1  2  1  0
  1  4  1  0
  2  3  2  3
  3  5  1  0
  3 12  1  0
  6  7  2  0
  6 10  1  0
  6 11  1  0
  7  8  2  0
  8  9  1  0
  9 13  1  0
  9 14  1  0
  9 15  1  0
M  RAD  1   8   2
M  END
>  <reaction>  (11) 
rmg_rxn_15392

>  <mol_properties>  (11) 
{"1": {"label": "*4", "atom_type": "N3d"}, "2": {"label": "*3", "atom_type": "Cd"}, "6": {"label": "*0", "atom_type": "Cdd"}, "7": {"label": "*1", "atom_type": "Cd"}, "11": {"label": "*2", "atom_type": "H0"}}

>  <type>  (11) 
unop_7

>  <geom_source>  (11) 
Heuristics

$$$$

     RDKit          3D

 15 13  0  0  0  0  0  0  0  0999 V2000
    1.9211   -1.1202    2.5380 O   0  0  0  0  0  0  0  0  0  0  0  0
    1.4025   -0.1638    1.6875 N   0  0  0  0  0  0  0  0  0  0  0  0
    1.1065   -0.6462    0.5591 C   0  0  0  0  0  0  0  0  0  0  0  0
    2.0991   -0.6289    3.3424 H   0  0  0  0  0  0  0  0  0  0  0  0
    1.2534   -1.6957    0.3130 H   0  0  0  0  0  0  0  0  0  0  0  0
   -0.9372    0.4082   -3.2590 C   0  0  0  0  0  0  0  0  0  0  0  0
   -0.9372    0.4082   -1.9588 C   0  0  0  0  0  0  0  0  0  0  0  0
   -0.9372    0.4082   -0.6588 C   0  0  0  0  0  3  0  0  0  0  0  0
   -2.0394    0.9641    0.1971 C   0  0  0  0  0  0  0  0  0  0  0  0
   -0.5184    1.2357   -3.8202 H   0  0  0  0  0  0  0  0  0  0  0  0
   -1.3536   -0.4205   -3.8202 H   0  0  0  0  0  0  0  0  0  0  0  0
    0.0870   -0.1202   -0.0484 H   0  0  0  0  0  0  0  0  0  0  0  0
   -2.4530    0.1871    0.8440 H   0  0  0  0  0  0  0  0  0  0  0  0
   -2.8449    1.3703   -0.4132 H   0  0  0  0  0  0  0  0  0  0  0  0
   -1.6605    1.7585    0.8440 H   0  0  0  0  0  0  0  0  0  0  0  0
  1  2  1  0
  1  4  1  0
  2  3  2  3
  3  5  1  0
  3 12  1  0
  6  7  2  0
  6 10  1  0
  6 11  1  0
  7  8  2  0
  8  9  1  0
  9 13  1  0
  9 14  1  0
  9 15  1  0
M  RAD  1   8   2
M  END
>  <reaction>  (12) 
rmg_rxn_15392

>  <mol_properties>  (12) 
{"1": {"label": "*4", "atom_type": "N3d"}, "2": {"label": "*3", "atom_type": "Cd"}, "6": {"label": "*0", "atom_type": "Cdd"}, "7": {"label": "*1", "atom_type": "Cd"}, "11": {"label": "*2", "atom_type": "H0"}}

>  <type>  (12) 
unop_8

>  <geom_source>  (12) 
Heuristics

$$$$

     RDKit          3D

 15 13  0  0  0  0  0  0  0  0999 V2000
    1.9007   -2.0243    1.8058 O   0  0  0  0  0  0  0  0  0  0  0  0
    1.3523   -1.3830    0.7127 N   0  0  0  0  0  0  0  0  0  0  0  0
    1.1219   -0.1642    0.9470 C   0  0  0  0  0  0  0  0  0  0  0  0
    2.0230   -2.9241    1.4970 H   0  0  0  0  0  0  0  0  0  0  0  0
    1.3398    0.3002    1.9064 H   0  0  0  0  0  0  0  0  0  0  0  0
   -0.9218    0.8902   -2.8712 C   0  0  0  0  0  0  0  0  0  0  0  0
   -0.9218    0.8902   -1.5710 C   0  0  0  0  0  0  0  0  0  0  0  0
   -0.9218    0.8902   -0.2709 C   0  0  0  0  0  3  0  0  0  0  0  0
   -2.0240    1.4461    0.5849 C   0  0  0  0  0  0  0  0  0  0  0  0
   -0.5029    1.7177   -3.4324 H   0  0  0  0  0  0  0  0  0  0  0  0
   -1.3381    0.0615   -3.4324 H   0  0  0  0  0  0  0  0  0  0  0  0
    0.1024    0.3619    0.3394 H   0  0  0  0  0  0  0  0  0  0  0  0
   -2.4375    0.6691    1.2319 H   0  0  0  0  0  0  0  0  0  0  0  0
   -2.8294    1.8523   -0.0253 H   0  0  0  0  0  0  0  0  0  0  0  0
   -1.6451    2.2405    1.2319 H   0  0  0  0  0  0  0  0  0  0  0  0
  1  2  1  0
  1  4  1  0
  2  3  2  3
  3  5  1  0
  3 12  1  0
  6  7  2  0
  6 10  1  0
  6 11  1  0
  7  8  2  0
  8  9  1  0
  9 13  1  0
  9 14  1  0
  9 15  1  0
M  RAD  1   8   2
M  END
>  <reaction>  (13) 
rmg_rxn_15392

>  <mol_properties>  (13) 
{"1": {"label": "*4", "atom_type": "N3d"}, "2": {"label": "*3", "atom_type": "Cd"}, "6": {"label": "*0", "atom_type": "Cdd"}, "7": {"label": "*1", "atom_type": "Cd"}, "11": {"label": "*2", "atom_type": "H0"}}

>  <type>  (13) 
unop_9

>  <geom_source>  (13) 
Heuristics

$$$$

     RDKit          3D

 15 13  0  0  0  0  0  0  0  0999 V2000
    3.3245   -0.4224    0.0007 O   0  0  0  0  0  0  0  0  0  0  0  0
    2.0096    0.0733    0.0014 N   0  0  0  0  0  0  0  0  0  0  0  0
    1.0646   -0.7338   -0.0028 C   0  0  0  0  0  0  0  0  0  0  0  0
    3.8811    0.3684    0.0044 H   0  0  0  0  0  0  0  0  0  0  0  0
    1.1021   -1.8168   -0.0068 H   0  0  0  0  0  0  0  0  0  0  0  0
   -3.1760   -1.1728    0.0013 C   0  0  0  0  0  0  0  0  0  0  0  0
   -2.2438   -0.2302    0.0000 C   0  0  0  0  0  0  0  0  0  0  0  0
   -1.2300    0.5118   -0.0006 C   0  0  0  0  0  3  0  0  0  0  0  0
   -0.8179    1.9239   -0.0003 C   0  0  0  0  0  0  0  0  0  0  0  0
   -3.5947   -1.5440   -0.9185 H   0  0  0  0  0  0  0  0  0  0  0  0
   -3.5925   -1.5439    0.9221 H   0  0  0  0  0  0  0  0  0  0  0  0
   -0.0708   -0.1912   -0.0018 H   0  0  0  0  0  0  0  0  0  0  0  0
   -0.2171    2.1392   -0.8832 H   0  0  0  0  0  0  0  0  0  0  0  0
   -0.2121    2.1376    0.8796 H   0  0  0  0  0  0  0  0  0  0  0  0
   -1.6921    2.5752    0.0027 H   0  0  0  0  0  0  0  0  0  0  0  0
  1  2  1  0
  1  4  1  0
  2  3  2  3
  3  5  1  0
  3 12  1  0
  6  7  2  0
  6 10  1  0
  6 11  1  0
  7  8  2  0
  8  9  1  0
  9 13  1  0
  9 14  1  0
  9 15  1  0
M  RAD  1   8   2
M  END
>  <reaction>  (14) 
rmg_rxn_15392

>  <mol_properties>  (14) 
{"1": {"label": "*4", "atom_type": "N3d"}, "2": {"label": "*3", "atom_type": "Cd"}, "6": {"label": "*0", "atom_type": "Cdd"}, "7": {"label": "*1", "atom_type": "Cd"}, "11": {"label": "*2", "atom_type": "H0"}}

>  <type>  (14) 
unop_10

>  <geom_source>  (14) 
Heuristics

$$$$

     RDKit          3D

 15 13  0  0  0  0  0  0  0  0999 V2000
    2.2007   -1.1333    2.3791 O   0  0  0  0  0  0  0  0  0  0  0  0
    1.0733   -0.5517    1.8336 N   0  0  0  0  0  0  0  0  0  0  0  0
    1.0990   -0.5649    0.5716 C   0  0  0  0  0  0  0  0  0  0  0  0
    2.0544   -1.0578    3.3241 H   0  0  0  0  0  0  0  0  0  0  0  0
    1.9250   -0.9911    0.0061 H   0  0  0  0  0  0  0  0  0  0  0  0
   -0.9447    0.4894   -3.2465 C   0  0  0  0  0  0  0  0  0  0  0  0
   -0.9447    0.4894   -1.9464 C   0  0  0  0  0  0  0  0  0  0  0  0
   -0.9447    0.4894   -0.6463 C   0  0  0  0  0  3  0  0  0  0  0  0
   -2.0469    1.0453    0.2095 C   0  0  0  0  0  0  0  0  0  0  0  0
   -0.5259    1.3169   -3.8077 H   0  0  0  0  0  0  0  0  0  0  0  0
   -1.3611   -0.3393   -3.8077 H   0  0  0  0  0  0  0  0  0  0  0  0
    0.0795   -0.0389   -0.0360 H   0  0  0  0  0  0  0  0  0  0  0  0
   -2.4605    0.2683    0.8565 H   0  0  0  0  0  0  0  0  0  0  0  0
   -2.8524    1.4515   -0.4007 H   0  0  0  0  0  0  0  0  0  0  0  0
   -1.6680    1.8398    0.8565 H   0  0  0  0  0  0  0  0  0  0  0  0
  1  2  1  0
  1  4  1  0
  2  3  2  3
  3  5  1  0
  3 12  1  0
  6  7  2  0
  6 10  1  0
  6 11  1  0
  7  8  2  0
  8  9  1  0
  9 13  1  0
  9 14  1  0
  9 15  1  0
M  RAD  1   8   2
M  END
>  <reaction>  (15) 
rmg_rxn_15392

>  <mol_properties>  (15) 
{"1": {"label": "*4", "atom_type": "N3d"}, "2": {"label": "*3", "atom_type": "Cd"}, "6": {"label": "*0", "atom_type": "Cdd"}, "7": {"label": "*1", "atom_type": "Cd"}, "11": {"label": "*2", "atom_type": "H0"}}

>  <type>  (15) 
unop_11

>  <geom_source>  (15) 
Heuristics

$$$$

     RDKit          3D

 15 13  0  0  0  0  0  0  0  0999 V2000
    3.3247   -0.4228    0.0014 O   0  0  0  0  0  0  0  0  0  0  0  0
    2.0101    0.0738    0.0033 N   0  0  0  0  0  0  0  0  0  0  0  0
    1.0647   -0.7328   -0.0064 C   0  0  0  0  0  0  0  0  0  0  0  0
    3.8818    0.3676    0.0102 H   0  0  0  0  0  0  0  0  0  0  0  0
    1.1016   -1.8158   -0.0160 H   0  0  0  0  0  0  0  0  0  0  0  0
   -3.1748   -1.1744    0.0025 C   0  0  0  0  0  0  0  0  0  0  0  0
   -2.2434   -0.2309    0.0008 C   0  0  0  0  0  0  0  0  0  0  0  0
   -1.2304    0.5121   -0.0010 C   0  0  0  0  0  3  0  0  0  0  0  0
   -0.8196    1.9246   -0.0010 C   0  0  0  0  0  0  0  0  0  0  0  0
   -3.5948   -1.5446   -0.9171 H   0  0  0  0  0  0  0  0  0  0  0  0
   -3.5904   -1.5458    0.9236 H   0  0  0  0  0  0  0  0  0  0  0  0
   -0.0706   -0.1900   -0.0044 H   0  0  0  0  0  0  0  0  0  0  0  0
   -0.2215    2.1413   -0.8855 H   0  0  0  0  0  0  0  0  0  0  0  0
   -0.2115    2.1382    0.8774 H   0  0  0  0  0  0  0  0  0  0  0  0
   -1.6944    2.5752    0.0050 H   0  0  0  0  0  0  0  0  0  0  0  0
  1  2  1  0
  1  4  1  0
  2  3  2  3
  3  5  1  0
  3 12  1  0
  6  7  2  0
  6 10  1  0
  6 11  1  0
  7  8  2  0
  8  9  1  0
  9 13  1  0
  9 14  1  0
  9 15  1  0
M  RAD  1   8   2
M  END
>  <reaction>  (16) 
rmg_rxn_15392

>  <mol_properties>  (16) 
{"1": {"label": "*4", "atom_type": "N3d"}, "2": {"label": "*3", "atom_type": "Cd"}, "6": {"label": "*0", "atom_type": "Cdd"}, "7": {"label": "*1", "atom_type": "Cd"}, "11": {"label": "*2", "atom_type": "H0"}}

>  <type>  (16) 
unop_12

>  <geom_source>  (16) 
Heuristics

$$$$

     RDKit          3D

 15 13  0  0  0  0  0  0  0  0999 V2000
    3.3245   -0.4228   -0.0008 O   0  0  0  0  0  0  0  0  0  0  0  0
    2.0099    0.0738   -0.0011 N   0  0  0  0  0  0  0  0  0  0  0  0
    1.0645   -0.7328    0.0028 C   0  0  0  0  0  0  0  0  0  0  0  0
    3.8816    0.3677   -0.0042 H   0  0  0  0  0  0  0  0  0  0  0  0
    1.1013   -1.8159    0.0067 H   0  0  0  0  0  0  0  0  0  0  0  0
   -3.1742   -1.1748   -0.0011 C   0  0  0  0  0  0  0  0  0  0  0  0
   -2.2436   -0.2305   -0.0004 C   0  0  0  0  0  0  0  0  0  0  0  0
   -1.2305    0.5122    0.0005 C   0  0  0  0  0  3  0  0  0  0  0  0
   -0.8195    1.9248    0.0003 C   0  0  0  0  0  0  0  0  0  0  0  0
   -3.5904   -1.5466   -0.9218 H   0  0  0  0  0  0  0  0  0  0  0  0
   -3.5924   -1.5459    0.9189 H   0  0  0  0  0  0  0  0  0  0  0  0
   -0.0708   -0.1900    0.0018 H   0  0  0  0  0  0  0  0  0  0  0  0
   -0.2143    2.1392   -0.8798 H   0  0  0  0  0  0  0  0  0  0  0  0
   -0.2184    2.1406    0.8830 H   0  0  0  0  0  0  0  0  0  0  0  0
   -1.6942    2.5754   -0.0022 H   0  0  0  0  0  0  0  0  0  0  0  0
  1  2  1  0
  1  4  1  0
  2  3  2  3
  3  5  1  0
  3 12  1  0
  6  7  2  0
  6 10  1  0
  6 11  1  0
  7  8  2  0
  8  9  1  0
  9 13  1  0
  9 14  1  0
  9 15  1  0
M  RAD  1   8   2
M  END
>  <reaction>  (17) 
rmg_rxn_15392

>  <mol_properties>  (17) 
{"1": {"label": "*4", "atom_type": "N3d"}, "2": {"label": "*3", "atom_type": "Cd"}, "6": {"label": "*0", "atom_type": "Cdd"}, "7": {"label": "*1", "atom_type": "Cd"}, "11": {"label": "*2", "atom_type": "H0"}}

>  <type>  (17) 
unop_13

>  <geom_source>  (17) 
Heuristics

$$$$

     RDKit          3D

 15 13  0  0  0  0  0  0  0  0999 V2000
    1.6554   -1.7453    2.2778 O   0  0  0  0  0  0  0  0  0  0  0  0
    1.1526   -1.4551    1.0248 N   0  0  0  0  0  0  0  0  0  0  0  0
    1.2264   -0.2230    0.7604 C   0  0  0  0  0  0  0  0  0  0  0  0
    1.5405   -2.6949    2.3487 H   0  0  0  0  0  0  0  0  0  0  0  0
    1.6420    0.5025    1.4564 H   0  0  0  0  0  0  0  0  0  0  0  0
   -0.8173    0.8314   -3.0578 C   0  0  0  0  0  0  0  0  0  0  0  0
   -0.8173    0.8314   -1.7576 C   0  0  0  0  0  0  0  0  0  0  0  0
   -0.8173    0.8314   -0.4575 C   0  0  0  0  0  3  0  0  0  0  0  0
   -1.9195    1.3872    0.3983 C   0  0  0  0  0  0  0  0  0  0  0  0
   -0.3985    1.6588   -3.6190 H   0  0  0  0  0  0  0  0  0  0  0  0
   -1.2337    0.0027   -3.6190 H   0  0  0  0  0  0  0  0  0  0  0  0
    0.2069    0.3030    0.1528 H   0  0  0  0  0  0  0  0  0  0  0  0
   -2.3331    0.6102    1.0453 H   0  0  0  0  0  0  0  0  0  0  0  0
   -2.7250    1.7934   -0.2120 H   0  0  0  0  0  0  0  0  0  0  0  0
   -1.5406    2.1817    1.0453 H   0  0  0  0  0  0  0  0  0  0  0  0
  1  2  1  0
  1  4  1  0
  2  3  2  3
  3  5  1  0
  3 12  1  0
  6  7  2  0
  6 10  1  0
  6 11  1  0
  7  8  2  0
  8  9  1  0
  9 13  1  0
  9 14  1  0
  9 15  1  0
M  RAD  1   8   2
M  END
>  <reaction>  (18) 
rmg_rxn_15392

>  <mol_properties>  (18) 
{"1": {"label": "*4", "atom_type": "N3d"}, "2": {"label": "*3", "atom_type": "Cd"}, "6": {"label": "*0", "atom_type": "Cdd"}, "7": {"label": "*1", "atom_type": "Cd"}, "11": {"label": "*2", "atom_type": "H0"}}

>  <type>  (18) 
unop_14

>  <geom_source>  (18) 
Heuristics

$$$$

     RDKit          3D

 15 13  0  0  0  0  0  0  0  0999 V2000
   -3.3242    0.4221   -0.0008 O   0  0  0  0  0  0  0  0  0  0  0  0
   -2.0089   -0.0727   -0.0016 N   0  0  0  0  0  0  0  0  0  0  0  0
   -1.0644    0.7350    0.0033 C   0  0  0  0  0  0  0  0  0  0  0  0
   -3.8802   -0.3692   -0.0050 H   0  0  0  0  0  0  0  0  0  0  0  0
   -1.1024    1.8180    0.0074 H   0  0  0  0  0  0  0  0  0  0  0  0
    3.1772    1.1712   -0.0012 C   0  0  0  0  0  0  0  0  0  0  0  0
    2.2443    0.2292   -0.0005 C   0  0  0  0  0  0  0  0  0  0  0  0
    1.2297   -0.5115    0.0004 C   0  0  0  0  0  3  0  0  0  0  0  0
    0.8155   -1.9231    0.0005 C   0  0  0  0  0  0  0  0  0  0  0  0
    3.5941    1.5422   -0.9219 H   0  0  0  0  0  0  0  0  0  0  0  0
    3.5964    1.5412    0.9188 H   0  0  0  0  0  0  0  0  0  0  0  0
    0.0711    0.1927    0.0022 H   0  0  0  0  0  0  0  0  0  0  0  0
    1.6886   -2.5758   -0.0050 H   0  0  0  0  0  0  0  0  0  0  0  0
    0.2072   -2.1354   -0.8780 H   0  0  0  0  0  0  0  0  0  0  0  0
    0.2164   -2.1381    0.8847 H   0  0  0  0  0  0  0  0  0  0  0  0
  1  2  1  0
  1  4  1  0
  2  3  2  3
  3  5  1  0
  3 12  1  0
  6  7  2  0
  6 10  1  0
  6 11  1  0
  7  8  2  0
  8  9  1  0
  9 13  1  0
  9 14  1  0
  9 15  1  0
M  RAD  1   8   2
M  END
>  <reaction>  (19) 
rmg_rxn_15392

>  <mol_properties>  (19) 
{"1": {"label": "*4", "atom_type": "N3d"}, "2": {"label": "*3", "atom_type": "Cd"}, "6": {"label": "*0", "atom_type": "Cdd"}, "7": {"label": "*1", "atom_type": "Cd"}, "11": {"label": "*2", "atom_type": "H0"}}

>  <type>  (19) 
unop_15

>  <geom_source>  (19) 
Heuristics

$$$$

     RDKit          3D

 15 13  0  0  0  0  0  0  0  0999 V2000
    1.7072   -1.2617    2.5630 O   0  0  0  0  0  0  0  0  0  0  0  0
    1.0035   -1.3481    1.3779 N   0  0  0  0  0  0  0  0  0  0  0  0
    1.2427   -0.3715    0.6146 C   0  0  0  0  0  0  0  0  0  0  0  0
    1.4380   -2.0497    3.0390 H   0  0  0  0  0  0  0  0  0  0  0  0
    1.9272    0.4299    0.8844 H   0  0  0  0  0  0  0  0  0  0  0  0
   -0.8010    0.6828   -3.2035 C   0  0  0  0  0  0  0  0  0  0  0  0
   -0.8010    0.6828   -1.9033 C   0  0  0  0  0  0  0  0  0  0  0  0
   -0.8010    0.6828   -0.6033 C   0  0  0  0  0  3  0  0  0  0  0  0
   -1.9032    1.2387    0.2526 C   0  0  0  0  0  0  0  0  0  0  0  0
   -0.3822    1.5103   -3.7647 H   0  0  0  0  0  0  0  0  0  0  0  0
   -1.2174   -0.1459   -3.7647 H   0  0  0  0  0  0  0  0  0  0  0  0
    0.2231    0.1545    0.0071 H   0  0  0  0  0  0  0  0  0  0  0  0
   -2.3168    0.4617    0.8995 H   0  0  0  0  0  0  0  0  0  0  0  0
   -2.7087    1.6449   -0.3577 H   0  0  0  0  0  0  0  0  0  0  0  0
   -1.5243    2.0332    0.8995 H   0  0  0  0  0  0  0  0  0  0  0  0
  1  2  1  0
  1  4  1  0
  2  3  2  3
  3  5  1  0
  3 12  1  0
  6  7  2  0
  6 10  1  0
  6 11  1  0
  7  8  2  0
  8  9  1  0
  9 13  1  0
  9 14  1  0
  9 15  1  0
M  RAD  1   8   2
M  END
>  <reaction>  (20) 
rmg_rxn_15392

>  <mol_properties>  (20) 
{"1": {"label": "*4", "atom_type": "N3d"}, "2": {"label": "*3", "atom_type": "Cd"}, "6": {"label": "*0", "atom_type": "Cdd"}, "7": {"label": "*1", "atom_type": "Cd"}, "11": {"label": "*2", "atom_type": "H0"}}

>  <type>  (20) 
unop_16

>  <geom_source>  (20) 
Heuristics

$$$$

     RDKit          3D

 15 13  0  0  0  0  0  0  0  0999 V2000
    3.3244   -0.4224    0.0049 O   0  0  0  0  0  0  0  0  0  0  0  0
    2.0094    0.0732    0.0072 N   0  0  0  0  0  0  0  0  0  0  0  0
    1.0646   -0.7338   -0.0175 C   0  0  0  0  0  0  0  0  0  0  0  0
    3.8808    0.3683    0.0265 H   0  0  0  0  0  0  0  0  0  0  0  0
    1.1022   -1.8165   -0.0420 H   0  0  0  0  0  0  0  0  0  0  0  0
   -3.1758   -1.1729    0.0064 C   0  0  0  0  0  0  0  0  0  0  0  0
   -2.2439   -0.2299    0.0026 C   0  0  0  0  0  0  0  0  0  0  0  0
   -1.2300    0.5117   -0.0025 C   0  0  0  0  0  3  0  0  0  0  0  0
   -0.8176    1.9239   -0.0024 C   0  0  0  0  0  0  0  0  0  0  0  0
   -3.5998   -1.5415   -0.9120 H   0  0  0  0  0  0  0  0  0  0  0  0
   -3.5871   -1.5463    0.9287 H   0  0  0  0  0  0  0  0  0  0  0  0
   -0.0709   -0.1913   -0.0120 H   0  0  0  0  0  0  0  0  0  0  0  0
   -0.2375    2.1453   -0.8977 H   0  0  0  0  0  0  0  0  0  0  0  0
   -0.1913    2.1314    0.8645 H   0  0  0  0  0  0  0  0  0  0  0  0
   -1.6913    2.5753    0.0254 H   0  0  0  0  0  0  0  0  0  0  0  0
  1  2  1  0
  1  4  1  0
  2  3  2  3
  3  5  1  0
  3 12  1  0
  6  7  2  0
  6 10  1  0
  6 11  1  0
  7  8  2  0
  8  9  1  0
  9 13  1  0
  9 14  1  0
  9 15  1  0
M  RAD  1   8   2
M  END
>  <reaction>  (21) 
rmg_rxn_15392

>  <mol_properties>  (21) 
{"1": {"label": "*4", "atom_type": "N3d"}, "2": {"label": "*3", "atom_type": "Cd"}, "6": {"label": "*0", "atom_type": "Cdd"}, "7": {"label": "*1", "atom_type": "Cd"}, "11": {"label": "*2", "atom_type": "H0"}}

>  <type>  (21) 
unop_17

>  <geom_source>  (21) 
Heuristics

$$$$

     RDKit          3D

 15 13  0  0  0  0  0  0  0  0999 V2000
    2.3834   -0.3343    2.2778 O   0  0  0  0  0  0  0  0  0  0  0  0
    1.8555   -0.0927    1.0248 N   0  0  0  0  0  0  0  0  0  0  0  0
    0.8942   -0.8669    0.7604 C   0  0  0  0  0  0  0  0  0  0  0  0
    3.0907    0.3097    2.3487 H   0  0  0  0  0  0  0  0  0  0  0  0
    0.5438   -1.6261    1.4564 H   0  0  0  0  0  0  0  0  0  0  0  0
   -1.1495    0.1875   -3.0578 C   0  0  0  0  0  0  0  0  0  0  0  0
   -1.1495    0.1875   -1.7576 C   0  0  0  0  0  0  0  0  0  0  0  0
   -1.1495    0.1875   -0.4575 C   0  0  0  0  0  3  0  0  0  0  0  0
   -2.2517    0.7433    0.3983 C   0  0  0  0  0  0  0  0  0  0  0  0
   -0.7307    1.0149   -3.6190 H   0  0  0  0  0  0  0  0  0  0  0  0
   -1.5659   -0.6412   -3.6190 H   0  0  0  0  0  0  0  0  0  0  0  0
   -0.1254   -0.3409    0.1528 H   0  0  0  0  0  0  0  0  0  0  0  0
   -2.6653   -0.0337    1.0453 H   0  0  0  0  0  0  0  0  0  0  0  0
   -3.0572    1.1495   -0.2120 H   0  0  0  0  0  0  0  0  0  0  0  0
   -1.8728    1.5378    1.0453 H   0  0  0  0  0  0  0  0  0  0  0  0
  1  2  1  0
  1  4  1  0
  2  3  2  3
  3  5  1  0
  3 12  1  0
  6  7  2  0
  6 10  1  0
  6 11  1  0
  7  8  2  0
  8  9  1  0
  9 13  1  0
  9 14  1  0
  9 15  1  0
M  RAD  1   8   2
M  END
>  <reaction>  (22) 
rmg_rxn_15392

>  <mol_properties>  (22) 
{"1": {"label": "*4", "atom_type": "N3d"}, "2": {"label": "*3", "atom_type": "Cd"}, "6": {"label": "*0", "atom_type": "Cdd"}, "7": {"label": "*1", "atom_type": "Cd"}, "11": {"label": "*2", "atom_type": "H0"}}

>  <type>  (22) 
unop_18

>  <geom_source>  (22) 
Heuristics

$$$$

     RDKit          3D

 15 13  0  0  0  0  0  0  0  0999 V2000
    3.3242   -0.4225   -0.0003 O   0  0  0  0  0  0  0  0  0  0  0  0
    2.0094    0.0732   -0.0008 N   0  0  0  0  0  0  0  0  0  0  0  0
    1.0644   -0.7339    0.0015 C   0  0  0  0  0  0  0  0  0  0  0  0
    3.8809    0.3683   -0.0024 H   0  0  0  0  0  0  0  0  0  0  0  0
    1.1018   -1.8169    0.0039 H   0  0  0  0  0  0  0  0  0  0  0  0
   -3.1756   -1.1731   -0.0005 C   0  0  0  0  0  0  0  0  0  0  0  0
   -2.2440   -0.2298   -0.0002 C   0  0  0  0  0  0  0  0  0  0  0  0
   -1.2301    0.5120    0.0002 C   0  0  0  0  0  3  0  0  0  0  0  0
   -0.8173    1.9239    0.0003 C   0  0  0  0  0  0  0  0  0  0  0  0
   -3.5927   -1.5443   -0.9210 H   0  0  0  0  0  0  0  0  0  0  0  0
   -3.5936   -1.5440    0.9197 H   0  0  0  0  0  0  0  0  0  0  0  0
   -0.0710   -0.1913    0.0009 H   0  0  0  0  0  0  0  0  0  0  0  0
   -0.2154    2.1386    0.8826 H   0  0  0  0  0  0  0  0  0  0  0  0
   -1.6912    2.5757   -0.0014 H   0  0  0  0  0  0  0  0  0  0  0  0
   -0.2125    2.1379   -0.8802 H   0  0  0  0  0  0  0  0  0  0  0  0
  1  2  1  0
  1  4  1  0
  2  3  2  3
  3  5  1  0
  3 12  1  0
  6  7  2  0
  6 10  1  0
  6 11  1  0
  7  8  2  0
  8  9  1  0
  9 13  1  0
  9 14  1  0
  9 15  1  0
M  RAD  1   8   2
M  END
>  <reaction>  (23) 
rmg_rxn_15392

>  <mol_properties>  (23) 
{"1": {"label": "*4", "atom_type": "N3d"}, "2": {"label": "*3", "atom_type": "Cd"}, "6": {"label": "*0", "atom_type": "Cdd"}, "7": {"label": "*1", "atom_type": "Cd"}, "11": {"label": "*2", "atom_type": "H0"}}

>  <type>  (23) 
unop_19

>  <geom_source>  (23) 
Heuristics

$$$$

     RDKit          3D

 15 13  0  0  0  0  0  0  0  0999 V2000
    2.3445   -1.9174    1.3620 O   0  0  0  0  0  0  0  0  0  0  0  0
    1.5561   -1.1744    0.5057 N   0  0  0  0  0  0  0  0  0  0  0  0
    0.9645   -0.2341    1.1051 C   0  0  0  0  0  0  0  0  0  0  0  0
    2.7280   -2.5839    0.7886 H   0  0  0  0  0  0  0  0  0  0  0  0
    1.0804   -0.0535    2.1717 H   0  0  0  0  0  0  0  0  0  0  0  0
   -1.0792    0.8203   -2.7130 C   0  0  0  0  0  0  0  0  0  0  0  0
   -1.0792    0.8203   -1.4129 C   0  0  0  0  0  0  0  0  0  0  0  0
   -1.0792    0.8203   -0.1128 C   0  0  0  0  0  3  0  0  0  0  0  0
   -2.1815    1.3762    0.7430 C   0  0  0  0  0  0  0  0  0  0  0  0
   -0.6604    1.6478   -3.2742 H   0  0  0  0  0  0  0  0  0  0  0  0
   -1.4956   -0.0084   -3.2742 H   0  0  0  0  0  0  0  0  0  0  0  0
   -0.0551    0.2920    0.4975 H   0  0  0  0  0  0  0  0  0  0  0  0
   -2.5950    0.5992    1.3900 H   0  0  0  0  0  0  0  0  0  0  0  0
   -2.9869    1.7824    0.1328 H   0  0  0  0  0  0  0  0  0  0  0  0
   -1.8025    2.1706    1.3900 H   0  0  0  0  0  0  0  0  0  0  0  0
  1  2  1  0
  1  4  1  0
  2  3  2  3
  3  5  1  0
  3 12  1  0
  6  7  2  0
  6 10  1  0
  6 11  1  0
  7  8  2  0
  8  9  1  0
  9 13  1  0
  9 14  1  0
  9 15  1  0
M  RAD  1   8   2
M  END
>  <reaction>  (24) 
rmg_rxn_15392

>  <mol_properties>  (24) 
{"1": {"label": "*4", "atom_type": "N3d"}, "2": {"label": "*3", "atom_type": "Cd"}, "6": {"label": "*0", "atom_type": "Cdd"}, "7": {"label": "*1", "atom_type": "Cd"}, "11": {"label": "*2", "atom_type": "H0"}}

>  <type>  (24) 
unop_20

>  <geom_source>  (24) 
Heuristics

$$$$

     RDKit          3D

 15 13  0  0  0  0  0  0  0  0999 V2000
    2.7529   -0.3725    1.8058 O   0  0  0  0  0  0  0  0  0  0  0  0
    1.9124   -0.2972    0.7127 N   0  0  0  0  0  0  0  0  0  0  0  0
    0.7857   -0.8159    0.9470 C   0  0  0  0  0  0  0  0  0  0  0  0
    3.5571    0.0494    1.4970 H   0  0  0  0  0  0  0  0  0  0  0  0
    0.5336   -1.2626    1.9064 H   0  0  0  0  0  0  0  0  0  0  0  0
   -1.2580    0.2385   -2.8712 C   0  0  0  0  0  0  0  0  0  0  0  0
   -1.2580    0.2385   -1.5710 C   0  0  0  0  0  0  0  0  0  0  0  0
   -1.2580    0.2385   -0.2709 C   0  0  0  0  0  3  0  0  0  0  0  0
   -2.3602    0.7943    0.5849 C   0  0  0  0  0  0  0  0  0  0  0  0
   -0.8392    1.0659   -3.4324 H   0  0  0  0  0  0  0  0  0  0  0  0
   -1.6744   -0.5902   -3.4324 H   0  0  0  0  0  0  0  0  0  0  0  0
   -0.2339   -0.2899    0.3394 H   0  0  0  0  0  0  0  0  0  0  0  0
   -2.7738    0.0173    1.2319 H   0  0  0  0  0  0  0  0  0  0  0  0
   -3.1657    1.2005   -0.0253 H   0  0  0  0  0  0  0  0  0  0  0  0
   -1.9813    1.5888    1.2319 H   0  0  0  0  0  0  0  0  0  0  0  0
  1  2  1  0
  1  4  1  0
  2  3  2  3
  3  5  1  0
  3 12  1  0
  6  7  2  0
  6 10  1  0
  6 11  1  0
  7  8  2  0
  8  9  1  0
  9 13  1  0
  9 14  1  0
  9 15  1  0
M  RAD  1   8   2
M  END
>  <reaction>  (25) 
rmg_rxn_15392

>  <mol_properties>  (25) 
{"1": {"label": "*4", "atom_type": "N3d"}, "2": {"label": "*3", "atom_type": "Cd"}, "6": {"label": "*0", "atom_type": "Cdd"}, "7": {"label": "*1", "atom_type": "Cd"}, "11": {"label": "*2", "atom_type": "H0"}}

>  <type>  (25) 
unop_21

>  <geom_source>  (25) 
Heuristics

$$$$

     RDKit          3D

 15 13  0  0  0  0  0  0  0  0999 V2000
    2.0279   -0.9131    2.5380 O   0  0  0  0  0  0  0  0  0  0  0  0
    0.9480   -1.0447    1.6875 N   0  0  0  0  0  0  0  0  0  0  0  0
    1.1695   -0.5240    0.5591 C   0  0  0  0  0  0  0  0  0  0  0  0
    1.7308   -1.3428    3.3424 H   0  0  0  0  0  0  0  0  0  0  0  0
    2.1099   -0.0354    0.3130 H   0  0  0  0  0  0  0  0  0  0  0  0
   -0.8741    0.5304   -3.2590 C   0  0  0  0  0  0  0  0  0  0  0  0
   -0.8741    0.5304   -1.9588 C   0  0  0  0  0  0  0  0  0  0  0  0
   -0.8741    0.5304   -0.6588 C   0  0  0  0  0  3  0  0  0  0  0  0
   -1.9764    1.0863    0.1971 C   0  0  0  0  0  0  0  0  0  0  0  0
   -0.4553    1.3579   -3.8202 H   0  0  0  0  0  0  0  0  0  0  0  0
   -1.2905   -0.2983   -3.8202 H   0  0  0  0  0  0  0  0  0  0  0  0
    0.1500    0.0020   -0.0484 H   0  0  0  0  0  0  0  0  0  0  0  0
   -2.3899    0.3093    0.8440 H   0  0  0  0  0  0  0  0  0  0  0  0
   -2.7818    1.4925   -0.4132 H   0  0  0  0  0  0  0  0  0  0  0  0
   -1.5975    1.8807    0.8440 H   0  0  0  0  0  0  0  0  0  0  0  0
  1  2  1  0
  1  4  1  0
  2  3  2  3
  3  5  1  0
  3 12  1  0
  6  7  2  0
  6 10  1  0
  6 11  1  0
  7  8  2  0
  8  9  1  0
  9 13  1  0
  9 14  1  0
  9 15  1  0
M  RAD  1   8   2
M  END
>  <reaction>  (26) 
rmg_rxn_15392

>  <mol_properties>  (26) 
{"1": {"label": "*4", "atom_type": "N3d"}, "2": {"label": "*3", "atom_type": "Cd"}, "6": {"label": "*0", "atom_type": "Cdd"}, "7": {"label": "*1", "atom_type": "Cd"}, "11": {"label": "*2", "atom_type": "H0"}}

>  <type>  (26) 
unop_22

>  <geom_source>  (26) 
Heuristics

$$$$

     RDKit          3D

 15 13  0  0  0  0  0  0  0  0999 V2000
    2.7663   -1.4251    1.1775 O   0  0  0  0  0  0  0  0  0  0  0  0
    1.7317   -0.8913    0.4347 N   0  0  0  0  0  0  0  0  0  0  0  0
    0.8184   -0.4202    1.1678 C   0  0  0  0  0  0  0  0  0  0  0  0
    3.3787   -1.7411    0.5103 H   0  0  0  0  0  0  0  0  0  0  0  0
    0.8668   -0.4452    2.2544 H   0  0  0  0  0  0  0  0  0  0  0  0
   -1.2253    0.6342   -2.6503 C   0  0  0  0  0  0  0  0  0  0  0  0
   -1.2253    0.6342   -1.3502 C   0  0  0  0  0  0  0  0  0  0  0  0
   -1.2253    0.6342   -0.0501 C   0  0  0  0  0  3  0  0  0  0  0  0
   -2.3275    1.1901    0.8057 C   0  0  0  0  0  0  0  0  0  0  0  0
   -0.8065    1.4617   -3.2115 H   0  0  0  0  0  0  0  0  0  0  0  0
   -1.6417   -0.1945   -3.2115 H   0  0  0  0  0  0  0  0  0  0  0  0
   -0.2012    0.1058    0.5602 H   0  0  0  0  0  0  0  0  0  0  0  0
   -2.7411    0.4131    1.4527 H   0  0  0  0  0  0  0  0  0  0  0  0
   -3.1330    1.5963    0.1955 H   0  0  0  0  0  0  0  0  0  0  0  0
   -1.9486    1.9845    1.4527 H   0  0  0  0  0  0  0  0  0  0  0  0
  1  2  1  0
  1  4  1  0
  2  3  2  3
  3  5  1  0
  3 12  1  0
  6  7  2  0
  6 10  1  0
  6 11  1  0
  7  8  2  0
  8  9  1  0
  9 13  1  0
  9 14  1  0
  9 15  1  0
M  RAD  1   8   2
M  END
>  <reaction>  (27) 
rmg_rxn_15392

>  <mol_properties>  (27) 
{"1": {"label": "*4", "atom_type": "N3d"}, "2": {"label": "*3", "atom_type": "Cd"}, "6": {"label": "*0", "atom_type": "Cdd"}, "7": {"label": "*1", "atom_type": "Cd"}, "11": {"label": "*2", "atom_type": "H0"}}

>  <type>  (27) 
unop_23

>  <geom_source>  (27) 
Heuristics

$$$$

     RDKit          3D

 15 13  0  0  0  0  0  0  0  0999 V2000
    3.3245   -0.4227   -0.0017 O   0  0  0  0  0  0  0  0  0  0  0  0
    2.0098    0.0736   -0.0030 N   0  0  0  0  0  0  0  0  0  0  0  0
    1.0645   -0.7331    0.0068 C   0  0  0  0  0  0  0  0  0  0  0  0
    3.8815    0.3678   -0.0104 H   0  0  0  0  0  0  0  0  0  0  0  0
    1.1015   -1.8161    0.0162 H   0  0  0  0  0  0  0  0  0  0  0  0
   -3.1748   -1.1742   -0.0025 C   0  0  0  0  0  0  0  0  0  0  0  0
   -2.2436   -0.2305   -0.0008 C   0  0  0  0  0  0  0  0  0  0  0  0
   -1.2303    0.5121    0.0009 C   0  0  0  0  0  3  0  0  0  0  0  0
   -0.8191    1.9245    0.0010 C   0  0  0  0  0  0  0  0  0  0  0  0
   -3.5895   -1.5464   -0.9237 H   0  0  0  0  0  0  0  0  0  0  0  0
   -3.5947   -1.5446    0.9170 H   0  0  0  0  0  0  0  0  0  0  0  0
   -0.0708   -0.1903    0.0046 H   0  0  0  0  0  0  0  0  0  0  0  0
   -1.6935    2.5754   -0.0145 H   0  0  0  0  0  0  0  0  0  0  0  0
   -0.2030    2.1359   -0.8723 H   0  0  0  0  0  0  0  0  0  0  0  0
   -0.2289    2.1432    0.8902 H   0  0  0  0  0  0  0  0  0  0  0  0
  1  2  1  0
  1  4  1  0
  2  3  2  3
  3  5  1  0
  3 12  1  0
  6  7  2  0
  6 10  1  0
  6 11  1  0
  7  8  2  0
  8  9  1  0
  9 13  1  0
  9 14  1  0
  9 15  1  0
M  RAD  1   8   2
M  END
>  <reaction>  (28) 
rmg_rxn_15392

>  <mol_properties>  (28) 
{"1": {"label": "*4", "atom_type": "N3d"}, "2": {"label": "*3", "atom_type": "Cd"}, "6": {"label": "*0", "atom_type": "Cdd"}, "7": {"label": "*1", "atom_type": "Cd"}, "11": {"label": "*2", "atom_type": "H0"}}

>  <type>  (28) 
unop_24

>  <geom_source>  (28) 
Heuristics

$$$$

     RDKit          3D

 15 13  0  0  0  0  0  0  0  0999 V2000
    3.2424   -0.6781    1.9467 O   0  0  0  0  0  0  0  0  0  0  0  0
    2.0485   -0.2644    1.3946 N   0  0  0  0  0  0  0  0  0  0  0  0
   -0.7186    1.7858   -0.7682 C   0  0  0  0  0  0  0  0  0  0  0  0
    1.7304   -0.5433    0.1714 C   0  0  0  0  0  0  0  0  0  0  0  0
   -2.6303   -1.2026   -0.1197 C   0  0  0  0  0  0  0  0  0  0  0  0
   -0.6253    0.4639   -0.0858 C   0  0  0  0  0  3  0  0  0  0  0  0
   -1.6285   -0.3703   -0.1026 C   0  0  0  0  0  0  0  0  0  0  0  0
   -0.9015    1.6425   -1.8544 H   0  0  0  0  0  0  0  0  0  0  0  0
    0.2364    2.3338   -0.6325 H   0  0  0  0  0  0  0  0  0  0  0  0
   -1.5443    2.3848   -0.3286 H   0  0  0  0  0  0  0  0  0  0  0  0
    2.3990   -1.1150   -0.4598 H   0  0  0  0  0  0  0  0  0  0  0  0
    0.5688   -0.1243   -0.3202 H   0  0  0  0  0  0  0  0  0  0  0  0
   -2.5482   -2.1582    0.3797 H   0  0  0  0  0  0  0  0  0  0  0  0
   -3.5442   -0.9376   -0.6336 H   0  0  0  0  0  0  0  0  0  0  0  0
    3.9155   -1.2169    1.4129 H   0  0  0  0  0  0  0  0  0  0  0  0
  1  2  1  0
  1 15  1  0
  2  4  2  3
  3  6  1  0
  3  8  1  0
  3  9  1  0
  3 10  1  0
  4 11  1  0
  4 12  1  0
  5  7  2  0
  5 13  1  0
  5 14  1  0
  6  7  2  0
M  RAD  1   6   2
M  END
>  <reaction>  (29) 
rmg_rxn_15392

>  <mol_properties>  (29) 
{"1": {"label": "*4", "atom_type": "N3d"}, "2": {"label": "*3", "atom_type": "Cd"}, "6": {"label": "*0", "atom_type": "Cdd"}, "7": {"label": "*1", "atom_type": "Cd"}, "11": {"label": "*2", "atom_type": "H0"}}

>  <type>  (29) 
unop_25

>  <geom_source>  (29) 
AutoTST

$$$$

     RDKit          3D

 15 13  0  0  0  0  0  0  0  0999 V2000
    2.9230   -0.7960    1.3620 O   0  0  0  0  0  0  0  0  0  0  0  0
    1.8605   -0.5842    0.5057 N   0  0  0  0  0  0  0  0  0  0  0  0
    0.7514   -0.6471    1.1051 C   0  0  0  0  0  0  0  0  0  0  0  0
    3.6884   -0.7223    0.7886 H   0  0  0  0  0  0  0  0  0  0  0  0
    0.6714   -0.8462    2.1717 H   0  0  0  0  0  0  0  0  0  0  0  0
   -1.2923    0.4073   -2.7130 C   0  0  0  0  0  0  0  0  0  0  0  0
   -1.2923    0.4073   -1.4129 C   0  0  0  0  0  0  0  0  0  0  0  0
   -1.2923    0.4073   -0.1128 C   0  0  0  0  0  3  0  0  0  0  0  0
   -2.3945    0.9632    0.7430 C   0  0  0  0  0  0  0  0  0  0  0  0
   -0.8735    1.2348   -3.2742 H   0  0  0  0  0  0  0  0  0  0  0  0
   -1.7087   -0.4214   -3.2742 H   0  0  0  0  0  0  0  0  0  0  0  0
   -0.2682   -0.1211    0.4975 H   0  0  0  0  0  0  0  0  0  0  0  0
   -2.8081    0.1862    1.3900 H   0  0  0  0  0  0  0  0  0  0  0  0
   -3.2000    1.3694    0.1328 H   0  0  0  0  0  0  0  0  0  0  0  0
   -2.0156    1.7576    1.3900 H   0  0  0  0  0  0  0  0  0  0  0  0
  1  2  1  0
  1  4  1  0
  2  3  2  3
  3  5  1  0
  3 12  1  0
  6  7  2  0
  6 10  1  0
  6 11  1  0
  7  8  2  0
  8  9  1  0
  9 13  1  0
  9 14  1  0
  9 15  1  0
M  RAD  1   8   2
M  END
>  <reaction>  (30) 
rmg_rxn_15392

>  <mol_properties>  (30) 
{"1": {"label": "*4", "atom_type": "N3d"}, "2": {"label": "*3", "atom_type": "Cd"}, "6": {"label": "*0", "atom_type": "Cdd"}, "7": {"label": "*1", "atom_type": "Cd"}, "11": {"label": "*2", "atom_type": "H0"}}

>  <type>  (30) 
unop_26

>  <geom_source>  (30) 
gaussian_log

$$$$
