
     RDKit          3D

  5  4  0  0  0  0  0  0  0  0999 V2000
   -0.4583    0.0384    0.1517 N   0  0  0  0  0  0  0  0  0  0  0  0
    0.7454   -0.3487    0.5322 N   0  0  0  0  0  0  0  0  0  0  0  0
    0.7566   -1.0388    1.5193 O   0  0  0  0  0  0  0  0  0  0  0  0
   -1.2688   -0.2521    0.6850 H   0  0  0  0  0  0  0  0  0  0  0  0
   -0.5137    0.6154   -0.6670 H   0  0  0  0  0  0  0  0  0  0  0  0
  1  2  1  0
  1  4  1  0
  1  5  1  0
  2  3  2  0
M  END
>  <reaction>  (1) 
rmg_rxn_16653

>  <mol_properties>  (1) 
{"0": {"label": "donator", "atom_type": "N3s"}, "3": {"label": "d_hydrogen", "atom_type": "H0"}}

>  <type>  (1) 
r1h

$$$$

     RDKit          3D

  7  6  0  0  0  0  0  0  0  0999 V2000
   -0.6441   -0.1356    0.0624 C   0  0  0  0  0  0  0  0  0  0  0  0
    0.8523    0.0148   -0.0333 C   0  0  0  0  0  0  0  0  0  0  0  0
    1.6700   -0.6077    0.6603 N   0  0  0  0  0  2  0  0  0  0  0  0
   -1.0940    0.8275    0.3091 H   0  0  0  0  0  0  0  0  0  0  0  0
   -0.9104   -0.8656    0.8237 H   0  0  0  0  0  0  0  0  0  0  0  0
   -1.0427   -0.4545   -0.9022 H   0  0  0  0  0  0  0  0  0  0  0  0
    1.2362    0.7308   -0.7748 H   0  0  0  0  0  0  0  0  0  0  0  0
  1  2  1  0
  1  4  1  0
  1  5  1  0
  1  6  1  0
  2  3  2  0
  2  7  1  0
M  RAD  1   3   2
M  END
>  <reaction>  (2) 
rmg_rxn_16653

>  <mol_properties>  (2) 
{"2": {"label": "acceptor", "atom_type": "N3d"}}

>  <type>  (2) 
r2

$$$$

     RDKit          3D

  8  7  0  0  0  0  0  0  0  0999 V2000
    0.9548    0.1194   -0.0790 C   0  0  0  0  0  0  0  0  0  0  0  0
   -0.4838   -0.2649    0.0193 C   0  0  0  0  0  0  0  0  0  0  0  0
   -0.8933   -1.1081    0.8664 N   0  0  0  0  0  0  0  0  0  0  0  0
    1.3360   -0.0983   -1.0800 H   0  0  0  0  0  0  0  0  0  0  0  0
    1.0698    1.1948    0.0786 H   0  0  0  0  0  0  0  0  0  0  0  0
    1.5426   -0.4219    0.6602 H   0  0  0  0  0  0  0  0  0  0  0  0
   -1.1575    0.2324   -0.6905 H   0  0  0  0  0  0  0  0  0  0  0  0
   -1.8989   -1.2455    0.7886 H   0  0  0  0  0  0  0  0  0  0  0  0
  1  2  1  0
  1  4  1  0
  1  5  1  0
  1  6  1  0
  2  3  2  3
  2  7  1  0
  3  8  1  0
M  END
>  <reaction>  (3) 
rmg_rxn_16653

>  <mol_properties>  (3) 
{"0": {"label": "a_hydrogen", "atom_type": "H0"}, "3": {"label": "acceptor", "atom_type": "N3d"}}

>  <type>  (3) 
r2h

$$$$

     RDKit          3D

 12 10  0  0  0  0  0  0  0  0999 V2000
    1.3697    0.9650    0.1525 N   0  0  0  0  0  0  0  0  0  0  0  0
    2.0760   -0.0246   -0.2231 N   0  0  0  0  0  0  0  0  0  0  0  0
    1.5724   -0.9591   -0.7936 O   0  0  0  0  0  1  0  0  0  0  0  0
    0.1050    1.0052   -0.1001 H   0  0  0  0  0  0  0  0  0  0  0  0
    1.9053    1.6762    0.6337 H   0  0  0  0  0  0  0  0  0  0  0  0
   -3.0809   -0.4764    0.0040 C   0  0  0  0  0  0  0  0  0  0  0  0
   -1.6133   -0.1860    0.1136 C   0  0  0  0  0  0  0  0  0  0  0  0
   -1.1108    0.8895   -0.2778 N   0  0  0  0  0  0  0  0  0  0  0  0
   -3.4878   -0.6893    0.9947 H   0  0  0  0  0  0  0  0  0  0  0  0
   -3.2287   -1.3672   -0.6102 H   0  0  0  0  0  0  0  0  0  0  0  0
   -3.6110    0.3645   -0.4380 H   0  0  0  0  0  0  0  0  0  0  0  0
   -0.9936   -0.9753    0.5545 H   0  0  0  0  0  0  0  0  0  0  0  0
  1  2  2  3
  1  5  1  0
  2  3  1  0
  4  8  1  0
  6  7  1  0
  6  9  1  0
  6 10  1  0
  6 11  1  0
  7  8  2  3
  7 12  1  0
M  RAD  1   3   2
M  END
>  <reaction>  (4) 
rmg_rxn_16653

>  <mol_properties>  (4) 
{"0": {"label": "*3", "atom_type": "N3d"}, "1": {"label": "*4", "atom_type": "N3d"}, "3": {"label": "*2", "atom_type": "H0"}, "6": {"label": "*0", "atom_type": "Cd"}, "7": {"label": "*1", "atom_type": "N3d"}}

>  <type>  (4) 
ts

$$$$

     RDKit          3D

 12 10  0  0  0  0  0  0  0  0999 V2000
    1.3608    0.9521    0.0012 N   0  0  0  0  0  0  0  0  0  0  0  0
    2.2297    0.0587    0.0014 N   0  0  0  0  0  0  0  0  0  0  0  0
    2.0446   -1.1346   -0.0017 O   0  0  0  0  0  1  0  0  0  0  0  0
    0.0735    0.8811   -0.0017 H   0  0  0  0  0  0  0  0  0  0  0  0
    1.7294    1.8971    0.0043 H   0  0  0  0  0  0  0  0  0  0  0  0
   -3.1435   -0.4143    0.0008 C   0  0  0  0  0  0  0  0  0  0  0  0
   -1.6554   -0.2612    0.0012 C   0  0  0  0  0  0  0  0  0  0  0  0
   -1.1035    0.8523   -0.0032 N   0  0  0  0  0  0  0  0  0  0  0  0
   -3.4486   -0.9722    0.8846 H   0  0  0  0  0  0  0  0  0  0  0  0
   -3.4475   -0.9799   -0.8785 H   0  0  0  0  0  0  0  0  0  0  0  0
   -3.6243    0.5598   -0.0037 H   0  0  0  0  0  0  0  0  0  0  0  0
   -1.1131   -1.2163    0.0053 H   0  0  0  0  0  0  0  0  0  0  0  0
  1  2  2  3
  1  5  1  0
  2  3  1  0
  4  8  1  0
  6  7  1  0
  6  9  1  0
  6 10  1  0
  6 11  1  0
  7  8  2  3
  7 12  1  0
M  RAD  1   3   2
M  END
>  <reaction>  (5) 
rmg_rxn_16653

>  <mol_properties>  (5) 
{"0": {"label": "*3", "atom_type": "N3d"}, "1": {"label": "*4", "atom_type": "N3d"}, "3": {"label": "*2", "atom_type": "H0"}, "6": {"label": "*0", "atom_type": "Cd"}, "7": {"label": "*1", "atom_type": "N3d"}}

>  <type>  (5) 
unop_1

>  <geom_source>  (5) 
crest_best.xyz

$$$$

     RDKit          3D

 12 10  0  0  0  0  0  0  0  0999 V2000
    0.3228   -1.0318    1.0044 N   0  0  0  0  0  0  0  0  0  0  0  0
    0.3228   -2.2346    0.4596 N   0  0  0  0  0  0  0  0  0  0  0  0
    0.3228   -2.2346   -0.7449 O   0  0  0  0  0  0  0  0  0  0  0  0
    0.3228   -0.0491    0.2892 H   0  0  0  0  0  0  0  0  0  0  0  0
    0.3228   -0.9854    2.0065 H   0  0  0  0  0  0  0  0  0  0  0  0
   -0.6192    3.1407   -0.1483 C   0  0  0  0  0  0  0  0  0  0  0  0
   -0.6985    1.6522   -0.2199 C   0  0  0  0  0  0  0  0  0  0  0  0
    0.3228    0.9384   -0.4296 N   0  0  0  0  0  2  0  0  0  0  0  0
   -1.2645    3.5899   -0.9074 H   0  0  0  0  0  0  0  0  0  0  0  0
    0.4064    3.4728   -0.2992 H   0  0  0  0  0  0  0  0  0  0  0  0
   -0.9779    3.4915    0.8227 H   0  0  0  0  0  0  0  0  0  0  0  0
   -1.6987    1.2228   -0.0786 H   0  0  0  0  0  0  0  0  0  0  0  0
  1  2  1  0
  1  4  1  0
  1  5  1  0
  2  3  2  0
  6  7  1  0
  6  9  1  0
  6 10  1  0
  6 11  1  0
  7  8  2  0
  7 12  1  0
M  RAD  1   8   2
M  END
>  <reaction>  (6) 
rmg_rxn_16653

>  <mol_properties>  (6) 
{"0": {"label": "*3", "atom_type": "N3d"}, "1": {"label": "*4", "atom_type": "N3d"}, "3": {"label": "*2", "atom_type": "H0"}, "6": {"label": "*0", "atom_type": "Cd"}, "7": {"label": "*1", "atom_type": "N3d"}}

>  <type>  (6) 
unop_2

>  <geom_source>  (6) 
Heuristics

$$$$

     RDKit          3D

 12 10  0  0  0  0  0  0  0  0999 V2000
    0.2814   -0.6529    1.5944 N   0  0  0  0  0  0  0  0  0  0  0  0
    0.2814   -1.8558    1.0497 N   0  0  0  0  0  0  0  0  0  0  0  0
    0.2814   -1.8558   -0.1548 O   0  0  0  0  0  0  0  0  0  0  0  0
    0.2813    0.3297    0.8792 H   0  0  0  0  0  0  0  0  0  0  0  0
    0.2813   -0.6066    2.5965 H   0  0  0  0  0  0  0  0  0  0  0  0
   -0.8187    2.1813   -1.8041 C   0  0  0  0  0  0  0  0  0  0  0  0
   -0.3083    1.0830   -0.9322 C   0  0  0  0  0  0  0  0  0  0  0  0
    0.2813    1.3173    0.1604 N   0  0  0  0  0  2  0  0  0  0  0  0
   -0.3559    2.1245   -2.7927 H   0  0  0  0  0  0  0  0  0  0  0  0
   -0.6045    3.1504   -1.3569 H   0  0  0  0  0  0  0  0  0  0  0  0
   -1.8968    2.0766   -1.9509 H   0  0  0  0  0  0  0  0  0  0  0  0
   -0.4792    0.0642   -1.3031 H   0  0  0  0  0  0  0  0  0  0  0  0
  1  2  1  0
  1  4  1  0
  1  5  1  0
  2  3  2  0
  6  7  1  0
  6  9  1  0
  6 10  1  0
  6 11  1  0
  7  8  2  0
  7 12  1  0
M  RAD  1   8   2
M  END
>  <reaction>  (7) 
rmg_rxn_16653

>  <mol_properties>  (7) 
{"0": {"label": "*3", "atom_type": "N3d"}, "1": {"label": "*4", "atom_type": "N3d"}, "3": {"label": "*2", "atom_type": "H0"}, "6": {"label": "*0", "atom_type": "Cd"}, "7": {"label": "*1", "atom_type": "N3d"}}

>  <type>  (7) 
unop_3

>  <geom_source>  (7) 
Heuristics

$$$$

     RDKit          3D

 12 10  0  0  0  0  0  0  0  0999 V2000
    0.1270   -1.1032    0.9453 N   0  0  0  0  0  0  0  0  0  0  0  0
    0.1270   -2.3060    0.4005 N   0  0  0  0  0  0  0  0  0  0  0  0
    0.1270   -2.3060   -0.8040 O   0  0  0  0  0  0  0  0  0  0  0  0
    0.1270   -0.1205    0.2301 H   0  0  0  0  0  0  0  0  0  0  0  0
    0.1270   -1.0568    1.9474 H   0  0  0  0  0  0  0  0  0  0  0  0
   -0.0693    3.2515   -0.1854 C   0  0  0  0  0  0  0  0  0  0  0  0
   -0.4626    1.8348    0.0700 C   0  0  0  0  0  0  0  0  0  0  0  0
    0.1270    0.8670   -0.4887 N   0  0  0  0  0  2  0  0  0  0  0  0
   -0.9180    3.8127   -0.5846 H   0  0  0  0  0  0  0  0  0  0  0  0
    0.7590    3.2932   -0.8905 H   0  0  0  0  0  0  0  0  0  0  0  0
    0.2218    3.7368    0.7498 H   0  0  0  0  0  0  0  0  0  0  0  0
   -1.2941    1.6922    0.7722 H   0  0  0  0  0  0  0  0  0  0  0  0
  1  2  1  0
  1  4  1  0
  1  5  1  0
  2  3  2  0
  6  7  1  0
  6  9  1  0
  6 10  1  0
  6 11  1  0
  7  8  2  0
  7 12  1  0
M  RAD  1   8   2
M  END
>  <reaction>  (8) 
rmg_rxn_16653

>  <mol_properties>  (8) 
{"0": {"label": "*3", "atom_type": "N3d"}, "1": {"label": "*4", "atom_type": "N3d"}, "3": {"label": "*2", "atom_type": "H0"}, "6": {"label": "*0", "atom_type": "Cd"}, "7": {"label": "*1", "atom_type": "N3d"}}

>  <type>  (8) 
unop_4

>  <geom_source>  (8) 
Heuristics

$$$$

     RDKit          3D

 12 10  0  0  0  0  0  0  0  0999 V2000
   -0.4483   -0.7673    1.3998 N   0  0  0  0  0  0  0  0  0  0  0  0
   -0.4483   -1.9701    0.8551 N   0  0  0  0  0  0  0  0  0  0  0  0
   -0.4483   -1.9701   -0.3494 O   0  0  0  0  0  0  0  0  0  0  0  0
   -0.4483    0.2154    0.6846 H   0  0  0  0  0  0  0  0  0  0  0  0
   -0.4483   -0.7209    2.4019 H   0  0  0  0  0  0  0  0  0  0  0  0
    1.2286    2.5005   -1.1833 C   0  0  0  0  0  0  0  0  0  0  0  0
    0.5729    1.2227   -0.7778 C   0  0  0  0  0  0  0  0  0  0  0  0
   -0.4483    1.2030   -0.0342 N   0  0  0  0  0  2  0  0  0  0  0  0
    2.2711    2.5106   -0.8548 H   0  0  0  0  0  0  0  0  0  0  0  0
    0.7024    3.3498   -0.7512 H   0  0  0  0  0  0  0  0  0  0  0  0
    1.2372    2.5913   -2.2725 H   0  0  0  0  0  0  0  0  0  0  0  0
    1.0360    0.3071   -1.1676 H   0  0  0  0  0  0  0  0  0  0  0  0
  1  2  1  0
  1  4  1  0
  1  5  1  0
  2  3  2  0
  6  7  1  0
  6  9  1  0
  6 10  1  0
  6 11  1  0
  7  8  2  0
  7 12  1  0
M  RAD  1   8   2
M  END
>  <reaction>  (9) 
rmg_rxn_16653

>  <mol_properties>  (9) 
{"0": {"label": "*3", "atom_type": "N3d"}, "1": {"label": "*4", "atom_type": "N3d"}, "3": {"label": "*2", "atom_type": "H0"}, "6": {"label": "*0", "atom_type": "Cd"}, "7": {"label": "*1", "atom_type": "N3d"}}

>  <type>  (9) 
unop_5

>  <geom_source>  (9) 
Heuristics

$$$$

     RDKit          3D

 12 10  0  0  0  0  0  0  0  0999 V2000
    0.0000   -1.1225    0.9681 N   0  0  0  0  0  0  0  0  0  0  0  0
    0.0000   -2.3253    0.4233 N   0  0  0  0  0  0  0  0  0  0  0  0
    0.0000   -2.3253   -0.7812 O   0  0  0  0  0  0  0  0  0  0  0  0
    0.0000   -0.1398    0.2529 H   0  0  0  0  0  0  0  0  0  0  0  0
    0.0000   -1.0761    1.9702 H   0  0  0  0  0  0  0  0  0  0  0  0
   -0.0000    3.2589   -0.4146 C   0  0  0  0  0  0  0  0  0  0  0  0
   -0.0000    1.9084    0.2205 C   0  0  0  0  0  0  0  0  0  0  0  0
   -0.0000    0.8477   -0.4660 N   0  0  0  0  0  2  0  0  0  0  0  0
   -0.8783    3.8260   -0.0956 H   0  0  0  0  0  0  0  0  0  0  0  0
   -0.0000    3.1671   -1.4993 H   0  0  0  0  0  0  0  0  0  0  0  0
    0.8783    3.8260   -0.0956 H   0  0  0  0  0  0  0  0  0  0  0  0
   -0.0000    1.9001    1.3181 H   0  0  0  0  0  0  0  0  0  0  0  0
  1  2  1  0
  1  4  1  0
  1  5  1  0
  2  3  2  0
  6  7  1  0
  6  9  1  0
  6 10  1  0
  6 11  1  0
  7  8  2  0
  7 12  1  0
M  RAD  1   8   2
M  END
>  <reaction>  (10) 
rmg_rxn_16653

>  <mol_properties>  (10) 
{"0": {"label": "*3", "atom_type": "N3d"}, "1": {"label": "*4", "atom_type": "N3d"}, "3": {"label": "*2", "atom_type": "H0"}, "6": {"label": "*0", "atom_type": "Cd"}, "7": {"label": "*1", "atom_type": "N3d"}}

>  <type>  (10) 
unop_6

>  <geom_source>  (10) 
Heuristics

$$$$

     RDKit          3D

 12 10  0  0  0  0  0  0  0  0999 V2000
   -0.4557   -0.9091    1.1760 N   0  0  0  0  0  0  0  0  0  0  0  0
   -0.4557   -2.1119    0.6313 N   0  0  0  0  0  0  0  0  0  0  0  0
   -0.4557   -2.1119   -0.5732 O   0  0  0  0  0  0  0  0  0  0  0  0
   -0.4557    0.0735    0.4608 H   0  0  0  0  0  0  0  0  0  0  0  0
   -0.4557   -0.8628    2.1781 H   0  0  0  0  0  0  0  0  0  0  0  0
    1.1177    2.8671   -0.5392 C   0  0  0  0  0  0  0  0  0  0  0  0
    0.7236    1.4279   -0.5249 C   0  0  0  0  0  0  0  0  0  0  0  0
   -0.4557    1.0611   -0.2580 N   0  0  0  0  0  2  0  0  0  0  0  0
    1.9208    3.0457    0.1804 H   0  0  0  0  0  0  0  0  0  0  0  0
    0.2634    3.4960   -0.2949 H   0  0  0  0  0  0  0  0  0  0  0  0
    1.5050    3.1426   -1.5235 H   0  0  0  0  0  0  0  0  0  0  0  0
    1.5236    0.7143   -0.7608 H   0  0  0  0  0  0  0  0  0  0  0  0
  1  2  1  0
  1  4  1  0
  1  5  1  0
  2  3  2  0
  6  7  1  0
  6  9  1  0
  6 10  1  0
  6 11  1  0
  7  8  2  0
  7 12  1  0
M  RAD  1   8   2
M  END
>  <reaction>  (11) 
rmg_rxn_16653

>  <mol_properties>  (11) 
{"0": {"label": "*3", "atom_type": "N3d"}, "1": {"label": "*4", "atom_type": "N3d"}, "3": {"label": "*2", "atom_type": "H0"}, "6": {"label": "*0", "atom_type": "Cd"}, "7": {"label": "*1", "atom_type": "N3d"}}

>  <type>  (11) 
unop_7

>  <geom_source>  (11) 
Heuristics

$$$$

     RDKit          3D

 12 10  0  0  0  0  0  0  0  0999 V2000
   -0.3228   -1.0318    1.0044 N   0  0  0  0  0  0  0  0  0  0  0  0
   -0.3228   -2.2346    0.4596 N   0  0  0  0  0  0  0  0  0  0  0  0
   -0.3228   -2.2346   -0.7449 O   0  0  0  0  0  0  0  0  0  0  0  0
   -0.3228   -0.0491    0.2892 H   0  0  0  0  0  0  0  0  0  0  0  0
   -0.3228   -0.9854    2.0065 H   0  0  0  0  0  0  0  0  0  0  0  0
    0.6192    3.1407   -0.1483 C   0  0  0  0  0  0  0  0  0  0  0  0
    0.6985    1.6522   -0.2199 C   0  0  0  0  0  0  0  0  0  0  0  0
   -0.3228    0.9384   -0.4296 N   0  0  0  0  0  2  0  0  0  0  0  0
    0.9779    3.4915    0.8227 H   0  0  0  0  0  0  0  0  0  0  0  0
   -0.4064    3.4728   -0.2993 H   0  0  0  0  0  0  0  0  0  0  0  0
    1.2645    3.5899   -0.9075 H   0  0  0  0  0  0  0  0  0  0  0  0
    1.6987    1.2228   -0.0786 H   0  0  0  0  0  0  0  0  0  0  0  0
  1  2  1  0
  1  4  1  0
  1  5  1  0
  2  3  2  0
  6  7  1  0
  6  9  1  0
  6 10  1  0
  6 11  1  0
  7  8  2  0
  7 12  1  0
M  RAD  1   8   2
M  END
>  <reaction>  (12) 
rmg_rxn_16653

>  <mol_properties>  (12) 
{"0": {"label": "*3", "atom_type": "N3d"}, "1": {"label": "*4", "atom_type": "N3d"}, "3": {"label": "*2", "atom_type": "H0"}, "6": {"label": "*0", "atom_type": "Cd"}, "7": {"label": "*1", "atom_type": "N3d"}}

>  <type>  (12) 
unop_8

>  <geom_source>  (12) 
Heuristics

$$$$

     RDKit          3D

 12 10  0  0  0  0  0  0  0  0999 V2000
    0.4557   -0.9091    1.1760 N   0  0  0  0  0  0  0  0  0  0  0  0
    0.4557   -2.1119    0.6313 N   0  0  0  0  0  0  0  0  0  0  0  0
    0.4557   -2.1119   -0.5732 O   0  0  0  0  0  0  0  0  0  0  0  0
    0.4557    0.0735    0.4608 H   0  0  0  0  0  0  0  0  0  0  0  0
    0.4557   -0.8628    2.1781 H   0  0  0  0  0  0  0  0  0  0  0  0
   -1.1177    2.8671   -0.5392 C   0  0  0  0  0  0  0  0  0  0  0  0
   -0.7236    1.4279   -0.5249 C   0  0  0  0  0  0  0  0  0  0  0  0
    0.4557    1.0611   -0.2580 N   0  0  0  0  0  2  0  0  0  0  0  0
   -1.5050    3.1426   -1.5235 H   0  0  0  0  0  0  0  0  0  0  0  0
   -0.2634    3.4960   -0.2949 H   0  0  0  0  0  0  0  0  0  0  0  0
   -1.9208    3.0457    0.1804 H   0  0  0  0  0  0  0  0  0  0  0  0
   -1.5236    0.7143   -0.7608 H   0  0  0  0  0  0  0  0  0  0  0  0
  1  2  1  0
  1  4  1  0
  1  5  1  0
  2  3  2  0
  6  7  1  0
  6  9  1  0
  6 10  1  0
  6 11  1  0
  7  8  2  0
  7 12  1  0
M  RAD  1   8   2
M  END
>  <reaction>  (13) 
rmg_rxn_16653

>  <mol_properties>  (13) 
{"0": {"label": "*3", "atom_type": "N3d"}, "1": {"label": "*4", "atom_type": "N3d"}, "3": {"label": "*2", "atom_type": "H0"}, "6": {"label": "*0", "atom_type": "Cd"}, "7": {"label": "*1", "atom_type": "N3d"}}

>  <type>  (13) 
unop_9

>  <geom_source>  (13) 
Heuristics

$$$$

     RDKit          3D

 12 10  0  0  0  0  0  0  0  0999 V2000
    1.3608    0.9521    0.0012 N   0  0  0  0  0  0  0  0  0  0  0  0
    2.2297    0.0587    0.0014 N   0  0  0  0  0  0  0  0  0  0  0  0
    2.0446   -1.1346   -0.0017 O   0  0  0  0  0  1  0  0  0  0  0  0
    0.0735    0.8811   -0.0017 H   0  0  0  0  0  0  0  0  0  0  0  0
    1.7294    1.8971    0.0043 H   0  0  0  0  0  0  0  0  0  0  0  0
   -3.1435   -0.4143    0.0008 C   0  0  0  0  0  0  0  0  0  0  0  0
   -1.6554   -0.2612    0.0012 C   0  0  0  0  0  0  0  0  0  0  0  0
   -1.1035    0.8523   -0.0032 N   0  0  0  0  0  0  0  0  0  0  0  0
   -3.4486   -0.9722    0.8846 H   0  0  0  0  0  0  0  0  0  0  0  0
   -3.4475   -0.9799   -0.8785 H   0  0  0  0  0  0  0  0  0  0  0  0
   -3.6243    0.5598   -0.0037 H   0  0  0  0  0  0  0  0  0  0  0  0
   -1.1131   -1.2163    0.0053 H   0  0  0  0  0  0  0  0  0  0  0  0
  1  2  2  3
  1  5  1  0
  2  3  1  0
  4  8  1  0
  6  7  1  0
  6  9  1  0
  6 10  1  0
  6 11  1  0
  7  8  2  3
  7 12  1  0
M  RAD  1   3   2
M  END
>  <reaction>  (14) 
rmg_rxn_16653

>  <mol_properties>  (14) 
{"0": {"label": "*3", "atom_type": "N3d"}, "1": {"label": "*4", "atom_type": "N3d"}, "3": {"label": "*2", "atom_type": "H0"}, "6": {"label": "*0", "atom_type": "Cd"}, "7": {"label": "*1", "atom_type": "N3d"}}

>  <type>  (14) 
unop_10

>  <geom_source>  (14) 
Heuristics

$$$$

     RDKit          3D

 12 10  0  0  0  0  0  0  0  0999 V2000
   -0.2813   -0.6529    1.5944 N   0  0  0  0  0  0  0  0  0  0  0  0
   -0.2813   -1.8558    1.0497 N   0  0  0  0  0  0  0  0  0  0  0  0
   -0.2813   -1.8558   -0.1548 O   0  0  0  0  0  0  0  0  0  0  0  0
   -0.2813    0.3297    0.8792 H   0  0  0  0  0  0  0  0  0  0  0  0
   -0.2813   -0.6066    2.5965 H   0  0  0  0  0  0  0  0  0  0  0  0
    0.8187    2.1813   -1.8041 C   0  0  0  0  0  0  0  0  0  0  0  0
    0.3083    1.0830   -0.9322 C   0  0  0  0  0  0  0  0  0  0  0  0
   -0.2813    1.3173    0.1604 N   0  0  0  0  0  2  0  0  0  0  0  0
    1.8968    2.0766   -1.9509 H   0  0  0  0  0  0  0  0  0  0  0  0
    0.6045    3.1504   -1.3569 H   0  0  0  0  0  0  0  0  0  0  0  0
    0.3559    2.1245   -2.7927 H   0  0  0  0  0  0  0  0  0  0  0  0
    0.4792    0.0642   -1.3031 H   0  0  0  0  0  0  0  0  0  0  0  0
  1  2  1  0
  1  4  1  0
  1  5  1  0
  2  3  2  0
  6  7  1  0
  6  9  1  0
  6 10  1  0
  6 11  1  0
  7  8  2  0
  7 12  1  0
M  RAD  1   8   2
M  END
>  <reaction>  (15) 
rmg_rxn_16653

>  <mol_properties>  (15) 
{"0": {"label": "*3", "atom_type": "N3d"}, "1": {"label": "*4", "atom_type": "N3d"}, "3": {"label": "*2", "atom_type": "H0"}, "6": {"label": "*0", "atom_type": "Cd"}, "7": {"label": "*1", "atom_type": "N3d"}}

>  <type>  (15) 
unop_11

>  <geom_source>  (15) 
Heuristics

$$$$

     RDKit          3D

 12 10  0  0  0  0  0  0  0  0999 V2000
    0.4483   -0.7673    1.3998 N   0  0  0  0  0  0  0  0  0  0  0  0
    0.4483   -1.9701    0.8551 N   0  0  0  0  0  0  0  0  0  0  0  0
    0.4483   -1.9701   -0.3494 O   0  0  0  0  0  0  0  0  0  0  0  0
    0.4483    0.2154    0.6846 H   0  0  0  0  0  0  0  0  0  0  0  0
    0.4483   -0.7209    2.4019 H   0  0  0  0  0  0  0  0  0  0  0  0
   -1.2286    2.5005   -1.1833 C   0  0  0  0  0  0  0  0  0  0  0  0
   -0.5729    1.2227   -0.7778 C   0  0  0  0  0  0  0  0  0  0  0  0
    0.4483    1.2030   -0.0342 N   0  0  0  0  0  2  0  0  0  0  0  0
   -1.2372    2.5913   -2.2725 H   0  0  0  0  0  0  0  0  0  0  0  0
   -0.7024    3.3498   -0.7512 H   0  0  0  0  0  0  0  0  0  0  0  0
   -2.2711    2.5106   -0.8548 H   0  0  0  0  0  0  0  0  0  0  0  0
   -1.0360    0.3071   -1.1676 H   0  0  0  0  0  0  0  0  0  0  0  0
  1  2  1  0
  1  4  1  0
  1  5  1  0
  2  3  2  0
  6  7  1  0
  6  9  1  0
  6 10  1  0
  6 11  1  0
  7  8  2  0
  7 12  1  0
M  RAD  1   8   2
M  END
>  <reaction>  (16) 
rmg_rxn_16653

>  <mol_properties>  (16) 
{"0": {"label": "*3", "atom_type": "N3d"}, "1": {"label": "*4", "atom_type": "N3d"}, "3": {"label": "*2", "atom_type": "H0"}, "6": {"label": "*0", "atom_type": "Cd"}, "7": {"label": "*1", "atom_type": "N3d"}}

>  <type>  (16) 
unop_12

>  <geom_source>  (16) 
Heuristics

$$$$

     RDKit          3D

 12 10  0  0  0  0  0  0  0  0999 V2000
   -0.1270   -1.1032    0.9453 N   0  0  0  0  0  0  0  0  0  0  0  0
   -0.1270   -2.3060    0.4005 N   0  0  0  0  0  0  0  0  0  0  0  0
   -0.1270   -2.3060   -0.8040 O   0  0  0  0  0  0  0  0  0  0  0  0
   -0.1270   -0.1205    0.2301 H   0  0  0  0  0  0  0  0  0  0  0  0
   -0.1270   -1.0568    1.9474 H   0  0  0  0  0  0  0  0  0  0  0  0
    0.0693    3.2515   -0.1854 C   0  0  0  0  0  0  0  0  0  0  0  0
    0.4626    1.8348    0.0700 C   0  0  0  0  0  0  0  0  0  0  0  0
   -0.1270    0.8670   -0.4887 N   0  0  0  0  0  2  0  0  0  0  0  0
   -0.2218    3.7368    0.7498 H   0  0  0  0  0  0  0  0  0  0  0  0
   -0.7590    3.2932   -0.8905 H   0  0  0  0  0  0  0  0  0  0  0  0
    0.9180    3.8127   -0.5846 H   0  0  0  0  0  0  0  0  0  0  0  0
    1.2941    1.6922    0.7722 H   0  0  0  0  0  0  0  0  0  0  0  0
  1  2  1  0
  1  4  1  0
  1  5  1  0
  2  3  2  0
  6  7  1  0
  6  9  1  0
  6 10  1  0
  6 11  1  0
  7  8  2  0
  7 12  1  0
M  RAD  1   8   2
M  END
>  <reaction>  (17) 
rmg_rxn_16653

>  <mol_properties>  (17) 
{"0": {"label": "*3", "atom_type": "N3d"}, "1": {"label": "*4", "atom_type": "N3d"}, "3": {"label": "*2", "atom_type": "H0"}, "6": {"label": "*0", "atom_type": "Cd"}, "7": {"label": "*1", "atom_type": "N3d"}}

>  <type>  (17) 
unop_13

>  <geom_source>  (17) 
Heuristics

$$$$

     RDKit          3D

 12 10  0  0  0  0  0  0  0  0999 V2000
    0.0000   -0.6089    1.6737 N   0  0  0  0  0  0  0  0  0  0  0  0
    0.0000   -1.8117    1.1290 N   0  0  0  0  0  0  0  0  0  0  0  0
    0.0000   -1.8117   -0.0756 O   0  0  0  0  0  0  0  0  0  0  0  0
    0.0000    0.3738    0.9585 H   0  0  0  0  0  0  0  0  0  0  0  0
    0.0000   -0.5625    2.6758 H   0  0  0  0  0  0  0  0  0  0  0  0
   -0.0000    2.0536   -2.0705 C   0  0  0  0  0  0  0  0  0  0  0  0
   -0.0000    1.0341   -0.9807 C   0  0  0  0  0  0  0  0  0  0  0  0
   -0.0000    1.3613    0.2397 N   0  0  0  0  0  2  0  0  0  0  0  0
    0.8783    1.9244   -2.7082 H   0  0  0  0  0  0  0  0  0  0  0  0
   -0.0000    3.0576   -1.6498 H   0  0  0  0  0  0  0  0  0  0  0  0
   -0.8783    1.9244   -2.7082 H   0  0  0  0  0  0  0  0  0  0  0  0
    0.0000   -0.0129   -1.3101 H   0  0  0  0  0  0  0  0  0  0  0  0
  1  2  1  0
  1  4  1  0
  1  5  1  0
  2  3  2  0
  6  7  1  0
  6  9  1  0
  6 10  1  0
  6 11  1  0
  7  8  2  0
  7 12  1  0
M  RAD  1   8   2
M  END
>  <reaction>  (18) 
rmg_rxn_16653

>  <mol_properties>  (18) 
{"0": {"label": "*3", "atom_type": "N3d"}, "1": {"label": "*4", "atom_type": "N3d"}, "3": {"label": "*2", "atom_type": "H0"}, "6": {"label": "*0", "atom_type": "Cd"}, "7": {"label": "*1", "atom_type": "N3d"}}

>  <type>  (18) 
unop_14

>  <geom_source>  (18) 
Heuristics

$$$$

     RDKit          3D

 12 10  0  0  0  0  0  0  0  0999 V2000
    0.2813   -0.6530    1.5944 N   0  0  0  0  0  0  0  0  0  0  0  0
    0.2813   -1.8558    1.0497 N   0  0  0  0  0  0  0  0  0  0  0  0
    0.2813   -1.8558   -0.1548 O   0  0  0  0  0  0  0  0  0  0  0  0
    0.2813    0.3297    0.8792 H   0  0  0  0  0  0  0  0  0  0  0  0
    0.2813   -0.6066    2.5965 H   0  0  0  0  0  0  0  0  0  0  0  0
   -0.8187    2.1813   -1.8041 C   0  0  0  0  0  0  0  0  0  0  0  0
   -0.3083    1.0830   -0.9322 C   0  0  0  0  0  0  0  0  0  0  0  0
    0.2813    1.3173    0.1604 N   0  0  0  0  0  2  0  0  0  0  0  0
   -0.3559    2.1245   -2.7927 H   0  0  0  0  0  0  0  0  0  0  0  0
   -0.6045    3.1504   -1.3569 H   0  0  0  0  0  0  0  0  0  0  0  0
   -1.8968    2.0766   -1.9509 H   0  0  0  0  0  0  0  0  0  0  0  0
   -0.4792    0.0642   -1.3031 H   0  0  0  0  0  0  0  0  0  0  0  0
  1  2  1  0
  1  4  1  0
  1  5  1  0
  2  3  2  0
  6  7  1  0
  6  9  1  0
  6 10  1  0
  6 11  1  0
  7  8  2  0
  7 12  1  0
M  RAD  1   8   2
M  END
>  <reaction>  (19) 
rmg_rxn_16653

>  <mol_properties>  (19) 
{"0": {"label": "*3", "atom_type": "N3d"}, "1": {"label": "*4", "atom_type": "N3d"}, "3": {"label": "*2", "atom_type": "H0"}, "6": {"label": "*0", "atom_type": "Cd"}, "7": {"label": "*1", "atom_type": "N3d"}}

>  <type>  (19) 
unop_15

>  <geom_source>  (19) 
gaussian_log

$$$$
