
     RDKit          3D

  3  2  0  0  0  0  0  0  0  0999 V2000
   -0.0007    0.6157    0.0000 S   0  0  0  0  0  0  0  0  0  0  0  0
   -0.9686   -0.3090    0.0000 H   0  0  0  0  0  0  0  0  0  0  0  0
    0.9693   -0.3067    0.0000 H   0  0  0  0  0  0  0  0  0  0  0  0
  1  2  1  0
  1  3  1  0
M  END
>  <reaction>  (1) 
rmg_rxn_76

>  <mol_properties>  (1) 
{"0": {"label": "donator", "atom_type": "S2s"}, "1": {"label": "d_hydrogen", "atom_type": "H0"}}

>  <type>  (1) 
r1h

$$$$

     RDKit          3D

  9  8  0  0  0  0  0  0  0  0999 V2000
    1.3246   -0.8124   -0.0809 C   0  0  0  0  0  2  0  0  0  0  0  0
    0.4082    0.3080    0.1518 C   0  0  0  0  0  0  0  0  0  0  0  0
   -1.0545   -0.0277   -0.1520 C   0  0  0  0  0  0  0  0  0  0  0  0
    2.3933   -0.9471    0.0203 H   0  0  0  0  0  0  0  0  0  0  0  0
    0.4898    0.6406    1.1970 H   0  0  0  0  0  0  0  0  0  0  0  0
    0.7134    1.1680   -0.4624 H   0  0  0  0  0  0  0  0  0  0  0  0
   -1.4014   -0.8515    0.4727 H   0  0  0  0  0  0  0  0  0  0  0  0
   -1.1767   -0.3214   -1.1952 H   0  0  0  0  0  0  0  0  0  0  0  0
   -1.6915    0.8372    0.0370 H   0  0  0  0  0  0  0  0  0  0  0  0
  1  2  1  0
  1  4  1  0
  2  3  1  0
  2  5  1  0
  2  6  1  0
  3  7  1  0
  3  8  1  0
  3  9  1  0
M  RAD  1   1   3
M  END
>  <reaction>  (2) 
rmg_rxn_76

>  <mol_properties>  (2) 
{"0": {"label": "acceptor", "atom_type": "Cs"}}

>  <type>  (2) 
r2

$$$$

     RDKit          3D

 10  9  0  0  0  0  0  0  0  0999 V2000
    1.4352    0.2660   -0.1351 C   0  0  0  0  0  3  0  0  0  0  0  0
    0.2236   -0.3243    0.4850 C   0  0  0  0  0  0  0  0  0  0  0  0
   -0.8893    0.6872    0.7364 C   0  0  0  0  0  0  0  0  0  0  0  0
    2.3577   -0.2958   -0.1940 H   0  0  0  0  0  0  0  0  0  0  0  0
    1.3935    1.2286   -0.6287 H   0  0  0  0  0  0  0  0  0  0  0  0
   -0.1633   -1.1318   -0.1556 H   0  0  0  0  0  0  0  0  0  0  0  0
    0.4945   -0.8215    1.4240 H   0  0  0  0  0  0  0  0  0  0  0  0
   -1.1991    1.1627   -0.1967 H   0  0  0  0  0  0  0  0  0  0  0  0
   -1.7660    0.2103    1.1768 H   0  0  0  0  0  0  0  0  0  0  0  0
   -0.5545    1.4732    1.4159 H   0  0  0  0  0  0  0  0  0  0  0  0
  1  2  1  0
  1  4  1  0
  1  5  1  0
  2  3  1  0
  2  6  1  0
  2  7  1  0
  3  8  1  0
  3  9  1  0
  3 10  1  0
M  RAD  1   1   2
M  END
>  <reaction>  (3) 
rmg_rxn_76

>  <mol_properties>  (3) 
{"0": {"label": "a_hydrogen", "atom_type": "H0"}, "1": {"label": "acceptor", "atom_type": "Cs"}}

>  <type>  (3) 
r2h

$$$$

     RDKit          3D

 12 10  0  0  0  0  0  0  0  0999 V2000
    0.8024   -0.9873   -1.6085 S   0  0  0  0  0  0  0  0  0  0  0  0
   -0.0371   -0.4350   -0.6048 H   0  0  0  0  0  0  0  0  0  0  0  0
    0.4982   -0.0054   -2.4668 H   0  0  0  0  0  0  0  0  0  0  0  0
   -1.0021    0.3604    0.4693 C   0  0  0  0  0  2  0  0  0  0  0  0
   -0.3166    1.3658    1.2902 C   0  0  0  0  0  0  0  0  0  0  0  0
    0.5874    2.3076    0.4901 C   0  0  0  0  0  0  0  0  0  0  0  0
   -1.9429   -0.1629    0.5739 H   0  0  0  0  0  0  0  0  0  0  0  0
   -1.0774    1.9497    1.8248 H   0  0  0  0  0  0  0  0  0  0  0  0
    0.2838    0.8684    2.0651 H   0  0  0  0  0  0  0  0  0  0  0  0
    0.0119    2.8599   -0.2538 H   0  0  0  0  0  0  0  0  0  0  0  0
    1.3637    1.7449   -0.0296 H   0  0  0  0  0  0  0  0  0  0  0  0
    1.0697    3.0257    1.1540 H   0  0  0  0  0  0  0  0  0  0  0  0
  1  2  1  0
  1  3  1  0
  4  5  1  0
  4  7  1  0
  5  6  1  0
  5  8  1  0
  5  9  1  0
  6 10  1  0
  6 11  1  0
  6 12  1  0
M  RAD  1   4   3
M  END
>  <reaction>  (4) 
rmg_rxn_76

>  <mol_properties>  (4) 
{"0": {"label": "*1", "atom_type": "S2s"}, "1": {"label": "*2", "atom_type": "H0"}, "2": {"label": "*0", "atom_type": "H0"}, "3": {"label": "*3", "atom_type": "Cs"}, "4": {"label": "*4", "atom_type": "Cs"}}

>  <type>  (4) 
ts

$$$$

     RDKit          3D

 12 10  0  0  0  0  0  0  0  0999 V2000
    0.3273   -2.0970   -0.5477 S   0  0  0  0  0  1  0  0  0  0  0  0
    0.3273   -0.4925   -0.4706 H   0  0  0  0  0  0  0  0  0  0  0  0
    0.3273   -2.0970   -1.8863 H   0  0  0  0  0  0  0  0  0  0  0  0
    0.3273    0.8041   -0.4083 C   0  0  0  0  0  3  0  0  0  0  0  0
   -0.7760    1.5330    0.2644 C   0  0  0  0  0  0  0  0  0  0  0  0
   -0.3069    2.4487    1.3898 C   0  0  0  0  0  0  0  0  0  0  0  0
    1.3532    1.1350   -0.3089 H   0  0  0  0  0  0  0  0  0  0  0  0
   -1.3304    2.1296   -0.4763 H   0  0  0  0  0  0  0  0  0  0  0  0
   -1.5112    0.8163    0.6491 H   0  0  0  0  0  0  0  0  0  0  0  0
    0.3961    3.1954    1.0145 H   0  0  0  0  0  0  0  0  0  0  0  0
    0.1985    1.8778    2.1710 H   0  0  0  0  0  0  0  0  0  0  0  0
   -1.1453    2.9771    1.8460 H   0  0  0  0  0  0  0  0  0  0  0  0
  1  3  1  0
  2  4  1  0
  4  5  1  0
  4  7  1  0
  5  6  1  0
  5  8  1  0
  5  9  1  0
  6 10  1  0
  6 11  1  0
  6 12  1  0
M  RAD  2   1   2   4   2
M  END
>  <reaction>  (5) 
rmg_rxn_76

>  <mol_properties>  (5) 
{"0": {"label": "*1", "atom_type": "S2s"}, "1": {"label": "*2", "atom_type": "H0"}, "2": {"label": "*0", "atom_type": "H0"}, "3": {"label": "*3", "atom_type": "Cs"}, "4": {"label": "*4", "atom_type": "Cs"}}

>  <type>  (5) 
unop_1

>  <geom_source>  (5) 
Heuristics

$$$$

     RDKit          3D

 12 10  0  0  0  0  0  0  0  0999 V2000
    0.3533   -2.2142    0.2486 S   0  0  0  0  0  1  0  0  0  0  0  0
    0.3533   -0.6097    0.3257 H   0  0  0  0  0  0  0  0  0  0  0  0
    0.3533   -2.2142   -1.0900 H   0  0  0  0  0  0  0  0  0  0  0  0
    0.3533    0.6869    0.3880 C   0  0  0  0  0  3  0  0  0  0  0  0
   -0.2836    1.4993   -0.6775 C   0  0  0  0  0  0  0  0  0  0  0  0
   -0.8285    2.8353   -0.1843 C   0  0  0  0  0  0  0  0  0  0  0  0
    0.6638    1.1398    1.3210 H   0  0  0  0  0  0  0  0  0  0  0  0
    0.4415    1.6835   -1.4851 H   0  0  0  0  0  0  0  0  0  0  0  0
   -1.0859    0.9219   -1.1520 H   0  0  0  0  0  0  0  0  0  0  0  0
   -0.0325    3.4402    0.2551 H   0  0  0  0  0  0  0  0  0  0  0  0
   -1.5938    2.6854    0.5795 H   0  0  0  0  0  0  0  0  0  0  0  0
   -1.2727    3.4074   -1.0002 H   0  0  0  0  0  0  0  0  0  0  0  0
  1  3  1  0
  2  4  1  0
  4  5  1  0
  4  7  1  0
  5  6  1  0
  5  8  1  0
  5  9  1  0
  6 10  1  0
  6 11  1  0
  6 12  1  0
M  RAD  2   1   2   4   2
M  END
>  <reaction>  (6) 
rmg_rxn_76

>  <mol_properties>  (6) 
{"0": {"label": "*1", "atom_type": "S2s"}, "1": {"label": "*2", "atom_type": "H0"}, "2": {"label": "*0", "atom_type": "H0"}, "3": {"label": "*3", "atom_type": "Cs"}, "4": {"label": "*4", "atom_type": "Cs"}}

>  <type>  (6) 
unop_2

>  <geom_source>  (6) 
Heuristics

$$$$

     RDKit          3D

 12 10  0  0  0  0  0  0  0  0999 V2000
    0.0657   -2.1224   -0.6222 S   0  0  0  0  0  1  0  0  0  0  0  0
    0.0657   -0.5179   -0.5451 H   0  0  0  0  0  0  0  0  0  0  0  0
    0.0657   -2.1224   -1.9608 H   0  0  0  0  0  0  0  0  0  0  0  0
    0.0657    0.7787   -0.4828 C   0  0  0  0  0  3  0  0  0  0  0  0
   -0.5713    1.4853    0.6556 C   0  0  0  0  0  0  0  0  0  0  0  0
    0.3078    2.5677    1.2725 C   0  0  0  0  0  0  0  0  0  0  0  0
    0.9174    1.2070   -0.9957 H   0  0  0  0  0  0  0  0  0  0  0  0
   -1.5194    1.9375    0.3261 H   0  0  0  0  0  0  0  0  0  0  0  0
   -0.8629    0.7594    1.4238 H   0  0  0  0  0  0  0  0  0  0  0  0
    0.5740    3.3216    0.5285 H   0  0  0  0  0  0  0  0  0  0  0  0
    1.2344    2.1416    1.6616 H   0  0  0  0  0  0  0  0  0  0  0  0
   -0.2030    3.0727    2.0935 H   0  0  0  0  0  0  0  0  0  0  0  0
  1  3  1  0
  2  4  1  0
  4  5  1  0
  4  7  1  0
  5  6  1  0
  5  8  1  0
  5  9  1  0
  6 10  1  0
  6 11  1  0
  6 12  1  0
M  RAD  2   1   2   4   2
M  END
>  <reaction>  (7) 
rmg_rxn_76

>  <mol_properties>  (7) 
{"0": {"label": "*1", "atom_type": "S2s"}, "1": {"label": "*2", "atom_type": "H0"}, "2": {"label": "*0", "atom_type": "H0"}, "3": {"label": "*3", "atom_type": "Cs"}, "4": {"label": "*4", "atom_type": "Cs"}}

>  <type>  (7) 
unop_3

>  <geom_source>  (7) 
Heuristics

$$$$

     RDKit          3D

 12 10  0  0  0  0  0  0  0  0999 V2000
   -0.4514   -2.2178    0.0507 S   0  0  0  0  0  1  0  0  0  0  0  0
   -0.4514   -0.6133    0.1278 H   0  0  0  0  0  0  0  0  0  0  0  0
   -0.4514   -2.2178   -1.2879 H   0  0  0  0  0  0  0  0  0  0  0  0
   -0.4514    0.6833    0.1901 C   0  0  0  0  0  3  0  0  0  0  0  0
    0.6518    1.4734   -0.4096 C   0  0  0  0  0  0  0  0  0  0  0  0
    0.7726    2.8835    0.1577 C   0  0  0  0  0  0  0  0  0  0  0  0
   -0.8978    0.9783    1.1312 H   0  0  0  0  0  0  0  0  0  0  0  0
    1.6065    0.9449   -0.2639 H   0  0  0  0  0  0  0  0  0  0  0  0
    0.5238    1.5192   -1.4976 H   0  0  0  0  0  0  0  0  0  0  0  0
    0.9413    2.8543    1.2364 H   0  0  0  0  0  0  0  0  0  0  0  0
   -0.1402    3.4547   -0.0216 H   0  0  0  0  0  0  0  0  0  0  0  0
    1.6042    3.4236   -0.2971 H   0  0  0  0  0  0  0  0  0  0  0  0
  1  3  1  0
  2  4  1  0
  4  5  1  0
  4  7  1  0
  5  6  1  0
  5  8  1  0
  5  9  1  0
  6 10  1  0
  6 11  1  0
  6 12  1  0
M  RAD  2   1   2   4   2
M  END
>  <reaction>  (8) 
rmg_rxn_76

>  <mol_properties>  (8) 
{"0": {"label": "*1", "atom_type": "S2s"}, "1": {"label": "*2", "atom_type": "H0"}, "2": {"label": "*0", "atom_type": "H0"}, "3": {"label": "*3", "atom_type": "Cs"}, "4": {"label": "*4", "atom_type": "Cs"}}

>  <type>  (8) 
unop_4

>  <geom_source>  (8) 
Heuristics

$$$$

     RDKit          3D

 12 10  0  0  0  0  0  0  0  0999 V2000
   -0.0540   -2.2020   -0.5416 S   0  0  0  0  0  1  0  0  0  0  0  0
   -0.0540   -0.5975   -0.4645 H   0  0  0  0  0  0  0  0  0  0  0  0
   -0.0540   -2.2020   -1.8802 H   0  0  0  0  0  0  0  0  0  0  0  0
   -0.0540    0.6991   -0.4022 C   0  0  0  0  0  3  0  0  0  0  0  0
   -0.0540    1.3974    0.9067 C   0  0  0  0  0  0  0  0  0  0  0  0
    0.2277    2.8923    0.8021 C   0  0  0  0  0  0  0  0  0  0  0  0
   -0.1548    1.2527   -1.3270 H   0  0  0  0  0  0  0  0  0  0  0  0
   -1.0244    1.2490    1.4047 H   0  0  0  0  0  0  0  0  0  0  0  0
    0.6758    0.9267    1.5761 H   0  0  0  0  0  0  0  0  0  0  0  0
   -0.5155    3.3836    0.1703 H   0  0  0  0  0  0  0  0  0  0  0  0
    1.2105    3.0734    0.3630 H   0  0  0  0  0  0  0  0  0  0  0  0
    0.2023    3.3698    1.7826 H   0  0  0  0  0  0  0  0  0  0  0  0
  1  3  1  0
  2  4  1  0
  4  5  1  0
  4  7  1  0
  5  6  1  0
  5  8  1  0
  5  9  1  0
  6 10  1  0
  6 11  1  0
  6 12  1  0
M  RAD  2   1   2   4   2
M  END
>  <reaction>  (9) 
rmg_rxn_76

>  <mol_properties>  (9) 
{"0": {"label": "*1", "atom_type": "S2s"}, "1": {"label": "*2", "atom_type": "H0"}, "2": {"label": "*0", "atom_type": "H0"}, "3": {"label": "*3", "atom_type": "Cs"}, "4": {"label": "*4", "atom_type": "Cs"}}

>  <type>  (9) 
unop_5

>  <geom_source>  (9) 
Heuristics

$$$$

     RDKit          3D

 12 10  0  0  0  0  0  0  0  0999 V2000
   -0.4715   -2.1857   -0.2356 S   0  0  0  0  0  1  0  0  0  0  0  0
   -0.4715   -0.5812   -0.1585 H   0  0  0  0  0  0  0  0  0  0  0  0
   -0.4715   -2.1857   -1.5742 H   0  0  0  0  0  0  0  0  0  0  0  0
   -0.4715    0.7154   -0.0963 C   0  0  0  0  0  3  0  0  0  0  0  0
    0.8024    1.4749   -0.0598 C   0  0  0  0  0  0  0  0  0  0  0  0
    0.7090    2.7889    0.7082 C   0  0  0  0  0  0  0  0  0  0  0  0
   -1.2663    0.9299    0.6068 H   0  0  0  0  0  0  0  0  0  0  0  0
    1.5912    0.8520    0.3892 H   0  0  0  0  0  0  0  0  0  0  0  0
    1.1482    1.6649   -1.0828 H   0  0  0  0  0  0  0  0  0  0  0  0
    0.4046    2.6128    1.7421 H   0  0  0  0  0  0  0  0  0  0  0  0
   -0.0266    3.4544    0.2527 H   0  0  0  0  0  0  0  0  0  0  0  0
    1.6690    3.3069    0.7250 H   0  0  0  0  0  0  0  0  0  0  0  0
  1  3  1  0
  2  4  1  0
  4  5  1  0
  4  7  1  0
  5  6  1  0
  5  8  1  0
  5  9  1  0
  6 10  1  0
  6 11  1  0
  6 12  1  0
M  RAD  2   1   2   4   2
M  END
>  <reaction>  (10) 
rmg_rxn_76

>  <mol_properties>  (10) 
{"0": {"label": "*1", "atom_type": "S2s"}, "1": {"label": "*2", "atom_type": "H0"}, "2": {"label": "*0", "atom_type": "H0"}, "3": {"label": "*3", "atom_type": "Cs"}, "4": {"label": "*4", "atom_type": "Cs"}}

>  <type>  (10) 
unop_6

>  <geom_source>  (10) 
Heuristics

$$$$

     RDKit          3D

 12 10  0  0  0  0  0  0  0  0999 V2000
   -0.3312   -2.1669   -0.4655 S   0  0  0  0  0  1  0  0  0  0  0  0
   -0.3312   -0.5624   -0.3884 H   0  0  0  0  0  0  0  0  0  0  0  0
   -0.3312   -2.1669   -1.8041 H   0  0  0  0  0  0  0  0  0  0  0  0
   -0.3312    0.7343   -0.3261 C   0  0  0  0  0  3  0  0  0  0  0  0
    0.7720    1.4632    0.3466 C   0  0  0  0  0  0  0  0  0  0  0  0
    0.3237    2.7434    1.0431 C   0  0  0  0  0  0  0  0  0  0  0  0
   -1.3646    0.9347   -0.0732 H   0  0  0  0  0  0  0  0  0  0  0  0
    1.2551    0.8037    1.0839 H   0  0  0  0  0  0  0  0  0  0  0  0
    1.5609    1.6909   -0.3801 H   0  0  0  0  0  0  0  0  0  0  0  0
   -0.4340    2.5282    1.7996 H   0  0  0  0  0  0  0  0  0  0  0  0
   -0.1096    3.4446    0.3274 H   0  0  0  0  0  0  0  0  0  0  0  0
    1.1601    3.2389    1.5379 H   0  0  0  0  0  0  0  0  0  0  0  0
  1  3  1  0
  2  4  1  0
  4  5  1  0
  4  7  1  0
  5  6  1  0
  5  8  1  0
  5  9  1  0
  6 10  1  0
  6 11  1  0
  6 12  1  0
M  RAD  2   1   2   4   2
M  END
>  <reaction>  (11) 
rmg_rxn_76

>  <mol_properties>  (11) 
{"0": {"label": "*1", "atom_type": "S2s"}, "1": {"label": "*2", "atom_type": "H0"}, "2": {"label": "*0", "atom_type": "H0"}, "3": {"label": "*3", "atom_type": "Cs"}, "4": {"label": "*4", "atom_type": "Cs"}}

>  <type>  (11) 
unop_7

>  <geom_source>  (11) 
Heuristics

$$$$

     RDKit          3D

 12 10  0  0  0  0  0  0  0  0999 V2000
    0.5085   -2.1201   -0.3129 S   0  0  0  0  0  1  0  0  0  0  0  0
    0.5085   -0.5156   -0.2358 H   0  0  0  0  0  0  0  0  0  0  0  0
    0.5085   -2.1201   -1.6515 H   0  0  0  0  0  0  0  0  0  0  0  0
    0.5085    0.7810   -0.1735 C   0  0  0  0  0  3  0  0  0  0  0  0
   -0.7654    1.5405   -0.1370 C   0  0  0  0  0  0  0  0  0  0  0  0
   -0.8649    2.5118    1.0342 C   0  0  0  0  0  0  0  0  0  0  0  0
    1.3722    1.1183    0.3852 H   0  0  0  0  0  0  0  0  0  0  0  0
   -0.8900    2.0987   -1.0777 H   0  0  0  0  0  0  0  0  0  0  0  0
   -1.6107    0.8425   -0.1151 H   0  0  0  0  0  0  0  0  0  0  0  0
   -0.0517    3.2402    1.0039 H   0  0  0  0  0  0  0  0  0  0  0  0
   -0.8020    1.9813    1.9861 H   0  0  0  0  0  0  0  0  0  0  0  0
   -1.8074    3.0607    1.0146 H   0  0  0  0  0  0  0  0  0  0  0  0
  1  3  1  0
  2  4  1  0
  4  5  1  0
  4  7  1  0
  5  6  1  0
  5  8  1  0
  5  9  1  0
  6 10  1  0
  6 11  1  0
  6 12  1  0
M  RAD  2   1   2   4   2
M  END
>  <reaction>  (12) 
rmg_rxn_76

>  <mol_properties>  (12) 
{"0": {"label": "*1", "atom_type": "S2s"}, "1": {"label": "*2", "atom_type": "H0"}, "2": {"label": "*0", "atom_type": "H0"}, "3": {"label": "*3", "atom_type": "Cs"}, "4": {"label": "*4", "atom_type": "Cs"}}

>  <type>  (12) 
unop_8

>  <geom_source>  (12) 
Heuristics

$$$$

     RDKit          3D

 12 10  0  0  0  0  0  0  0  0999 V2000
   -0.2559   -2.2443    0.2840 S   0  0  0  0  0  1  0  0  0  0  0  0
   -0.2559   -0.6398    0.3611 H   0  0  0  0  0  0  0  0  0  0  0  0
   -0.2559   -2.2443   -1.0547 H   0  0  0  0  0  0  0  0  0  0  0  0
   -0.2559    0.6568    0.4233 C   0  0  0  0  0  3  0  0  0  0  0  0
    0.3811    1.4693   -0.6421 C   0  0  0  0  0  0  0  0  0  0  0  0
    0.4174    2.9621   -0.3335 C   0  0  0  0  0  0  0  0  0  0  0  0
   -0.3843    1.0536    1.4223 H   0  0  0  0  0  0  0  0  0  0  0  0
    1.4085    1.1132   -0.8140 H   0  0  0  0  0  0  0  0  0  0  0  0
   -0.1344    1.2981   -1.5946 H   0  0  0  0  0  0  0  0  0  0  0  0
    0.9634    3.1532    0.5928 H   0  0  0  0  0  0  0  0  0  0  0  0
   -0.5922    3.3593   -0.2134 H   0  0  0  0  0  0  0  0  0  0  0  0
    0.9074    3.5200   -1.1327 H   0  0  0  0  0  0  0  0  0  0  0  0
  1  3  1  0
  2  4  1  0
  4  5  1  0
  4  7  1  0
  5  6  1  0
  5  8  1  0
  5  9  1  0
  6 10  1  0
  6 11  1  0
  6 12  1  0
M  RAD  2   1   2   4   2
M  END
>  <reaction>  (13) 
rmg_rxn_76

>  <mol_properties>  (13) 
{"0": {"label": "*1", "atom_type": "S2s"}, "1": {"label": "*2", "atom_type": "H0"}, "2": {"label": "*0", "atom_type": "H0"}, "3": {"label": "*3", "atom_type": "Cs"}, "4": {"label": "*4", "atom_type": "Cs"}}

>  <type>  (13) 
unop_9

>  <geom_source>  (13) 
Heuristics

$$$$

     RDKit          3D

 12 10  0  0  0  0  0  0  0  0999 V2000
    0.5226   -2.1653   -0.0111 S   0  0  0  0  0  1  0  0  0  0  0  0
    0.5226   -0.5608    0.0660 H   0  0  0  0  0  0  0  0  0  0  0  0
    0.5226   -2.1653   -1.3497 H   0  0  0  0  0  0  0  0  0  0  0  0
    0.5226    0.7358    0.1283 C   0  0  0  0  0  3  0  0  0  0  0  0
   -0.5806    1.5259   -0.4714 C   0  0  0  0  0  0  0  0  0  0  0  0
   -1.0730    2.6619    0.4185 C   0  0  0  0  0  0  0  0  0  0  0  0
    1.1020    1.1289    0.9539 H   0  0  0  0  0  0  0  0  0  0  0  0
   -0.2547    1.9419   -1.4371 H   0  0  0  0  0  0  0  0  0  0  0  0
   -1.4155    0.8615   -0.7238 H   0  0  0  0  0  0  0  0  0  0  0  0
   -0.2611    3.3560    0.6460 H   0  0  0  0  0  0  0  0  0  0  0  0
   -1.4571    2.2765    1.3648 H   0  0  0  0  0  0  0  0  0  0  0  0
   -1.8711    3.2267   -0.0654 H   0  0  0  0  0  0  0  0  0  0  0  0
  1  3  1  0
  2  4  1  0
  4  5  1  0
  4  7  1  0
  5  6  1  0
  5  8  1  0
  5  9  1  0
  6 10  1  0
  6 11  1  0
  6 12  1  0
M  RAD  2   1   2   4   2
M  END
>  <reaction>  (14) 
rmg_rxn_76

>  <mol_properties>  (14) 
{"0": {"label": "*1", "atom_type": "S2s"}, "1": {"label": "*2", "atom_type": "H0"}, "2": {"label": "*0", "atom_type": "H0"}, "3": {"label": "*3", "atom_type": "Cs"}, "4": {"label": "*4", "atom_type": "Cs"}}

>  <type>  (14) 
unop_10

>  <geom_source>  (14) 
Heuristics

$$$$

     RDKit          3D

 12 10  0  0  0  0  0  0  0  0999 V2000
   -0.1241   -2.1811   -0.5531 S   0  0  0  0  0  1  0  0  0  0  0  0
   -0.1241   -0.5766   -0.4760 H   0  0  0  0  0  0  0  0  0  0  0  0
   -0.1241   -2.1811   -1.8917 H   0  0  0  0  0  0  0  0  0  0  0  0
   -0.1241    0.7200   -0.4137 C   0  0  0  0  0  3  0  0  0  0  0  0
    0.5129    1.4265    0.7247 C   0  0  0  0  0  0  0  0  0  0  0  0
   -0.0614    2.8156    0.9807 C   0  0  0  0  0  0  0  0  0  0  0  0
   -1.0850    1.0384   -0.7973 H   0  0  0  0  0  0  0  0  0  0  0  0
    0.4105    0.8218    1.6389 H   0  0  0  0  0  0  0  0  0  0  0  0
    1.5944    1.4953    0.5578 H   0  0  0  0  0  0  0  0  0  0  0  0
   -1.1320    2.7602    1.1891 H   0  0  0  0  0  0  0  0  0  0  0  0
    0.0758    3.4599    0.1103 H   0  0  0  0  0  0  0  0  0  0  0  0
    0.4219    3.2930    1.8343 H   0  0  0  0  0  0  0  0  0  0  0  0
  1  3  1  0
  2  4  1  0
  4  5  1  0
  4  7  1  0
  5  6  1  0
  5  8  1  0
  5  9  1  0
  6 10  1  0
  6 11  1  0
  6 12  1  0
M  RAD  2   1   2   4   2
M  END
>  <reaction>  (15) 
rmg_rxn_76

>  <mol_properties>  (15) 
{"0": {"label": "*1", "atom_type": "S2s"}, "1": {"label": "*2", "atom_type": "H0"}, "2": {"label": "*0", "atom_type": "H0"}, "3": {"label": "*3", "atom_type": "Cs"}, "4": {"label": "*4", "atom_type": "Cs"}}

>  <type>  (15) 
unop_11

>  <geom_source>  (15) 
Heuristics

$$$$

     RDKit          3D

 12 10  0  0  0  0  0  0  0  0999 V2000
    0.0540   -2.2455    0.3634 S   0  0  0  0  0  1  0  0  0  0  0  0
    0.0540   -0.6410    0.4405 H   0  0  0  0  0  0  0  0  0  0  0  0
    0.0540   -2.2455   -0.9752 H   0  0  0  0  0  0  0  0  0  0  0  0
    0.0540    0.6556    0.5028 C   0  0  0  0  0  3  0  0  0  0  0  0
    0.0540    1.4762   -0.7331 C   0  0  0  0  0  0  0  0  0  0  0  0
   -0.2277    2.9542   -0.4857 C   0  0  0  0  0  0  0  0  0  0  0  0
    0.1548    1.1181    1.4764 H   0  0  0  0  0  0  0  0  0  0  0  0
    1.0244    1.3762   -1.2431 H   0  0  0  0  0  0  0  0  0  0  0  0
   -0.6758    1.0718   -1.4446 H   0  0  0  0  0  0  0  0  0  0  0  0
    0.5155    3.3826    0.1902 H   0  0  0  0  0  0  0  0  0  0  0  0
   -1.2105    3.0923   -0.0313 H   0  0  0  0  0  0  0  0  0  0  0  0
   -0.2023    3.5234   -1.4160 H   0  0  0  0  0  0  0  0  0  0  0  0
  1  3  1  0
  2  4  1  0
  4  5  1  0
  4  7  1  0
  5  6  1  0
  5  8  1  0
  5  9  1  0
  6 10  1  0
  6 11  1  0
  6 12  1  0
M  RAD  2   1   2   4   2
M  END
>  <reaction>  (16) 
rmg_rxn_76

>  <mol_properties>  (16) 
{"0": {"label": "*1", "atom_type": "S2s"}, "1": {"label": "*2", "atom_type": "H0"}, "2": {"label": "*0", "atom_type": "H0"}, "3": {"label": "*3", "atom_type": "Cs"}, "4": {"label": "*4", "atom_type": "Cs"}}

>  <type>  (16) 
unop_12

>  <geom_source>  (16) 
Heuristics

$$$$

     RDKit          3D

 12 10  0  0  0  0  0  0  0  0999 V2000
    0.3533   -2.2142    0.2486 S   0  0  0  0  0  1  0  0  0  0  0  0
    0.3533   -0.6097    0.3257 H   0  0  0  0  0  0  0  0  0  0  0  0
    0.3533   -2.2142   -1.0900 H   0  0  0  0  0  0  0  0  0  0  0  0
    0.3533    0.6869    0.3880 C   0  0  0  0  0  3  0  0  0  0  0  0
   -0.2836    1.4993   -0.6774 C   0  0  0  0  0  0  0  0  0  0  0  0
   -0.8285    2.8353   -0.1843 C   0  0  0  0  0  0  0  0  0  0  0  0
    0.6638    1.1398    1.3210 H   0  0  0  0  0  0  0  0  0  0  0  0
    0.4415    1.6835   -1.4851 H   0  0  0  0  0  0  0  0  0  0  0  0
   -1.0859    0.9219   -1.1520 H   0  0  0  0  0  0  0  0  0  0  0  0
   -0.0325    3.4402    0.2551 H   0  0  0  0  0  0  0  0  0  0  0  0
   -1.5938    2.6854    0.5795 H   0  0  0  0  0  0  0  0  0  0  0  0
   -1.2727    3.4074   -1.0002 H   0  0  0  0  0  0  0  0  0  0  0  0
  1  3  1  0
  2  4  1  0
  4  5  1  0
  4  7  1  0
  5  6  1  0
  5  8  1  0
  5  9  1  0
  6 10  1  0
  6 11  1  0
  6 12  1  0
M  RAD  2   1   2   4   2
M  END
>  <reaction>  (17) 
rmg_rxn_76

>  <mol_properties>  (17) 
{"0": {"label": "*1", "atom_type": "S2s"}, "1": {"label": "*2", "atom_type": "H0"}, "2": {"label": "*0", "atom_type": "H0"}, "3": {"label": "*3", "atom_type": "Cs"}, "4": {"label": "*4", "atom_type": "Cs"}}

>  <type>  (17) 
unop_13

>  <geom_source>  (17) 
gaussian_log

$$$$
