
     RDKit          3D

  6  5  0  0  0  0  0  0  0  0999 V2000
    1.2314    0.0428    0.5088 O   0  0  0  0  0  0  0  0  0  0  0  0
    0.2987    0.2341   -0.4915 N   0  0  0  0  0  0  0  0  0  0  0  0
   -0.8599   -0.1122   -0.1290 C   0  0  0  0  0  0  0  0  0  0  0  0
    2.0507    0.3401    0.1082 H   0  0  0  0  0  0  0  0  0  0  0  0
   -1.0700   -0.5112    0.8610 H   0  0  0  0  0  0  0  0  0  0  0  0
   -1.6509    0.0064   -0.8574 H   0  0  0  0  0  0  0  0  0  0  0  0
  1  2  1  0
  1  4  1  0
  2  3  2  3
  3  5  1  0
  3  6  1  0
M  END
>  <reaction>  (1) 
rmg_rxn_15386

>  <mol_properties>  (1) 
{"0": {"label": "donator", "atom_type": "O2s"}, "3": {"label": "d_hydrogen", "atom_type": "H0"}}

>  <type>  (1) 
r1h

$$$$

     RDKit          3D

  5  4  0  0  0  0  0  0  0  0999 V2000
    0.8934    0.3742    0.4948 O   0  0  0  0  0  0  0  0  0  0  0  0
    0.1582   -0.1610   -0.5904 N   0  0  0  0  0  0  0  0  0  0  0  0
   -1.0297   -0.3739   -0.4689 C   0  0  0  0  0  3  0  0  0  0  0  0
    1.7804    0.4382    0.1306 H   0  0  0  0  0  0  0  0  0  0  0  0
   -1.8023   -0.2775    0.2859 H   0  0  0  0  0  0  0  0  0  0  0  0
  1  2  1  0
  1  4  1  0
  2  3  2  3
  3  5  1  0
M  RAD  1   3   2
M  END
>  <reaction>  (2) 
rmg_rxn_15386

>  <mol_properties>  (2) 
{"2": {"label": "acceptor", "atom_type": "Cd"}}

>  <type>  (2) 
r2

$$$$

     RDKit          3D

  6  5  0  0  0  0  0  0  0  0999 V2000
    1.2314    0.0428    0.5088 O   0  0  0  0  0  0  0  0  0  0  0  0
    0.2987    0.2341   -0.4915 N   0  0  0  0  0  0  0  0  0  0  0  0
   -0.8599   -0.1122   -0.1290 C   0  0  0  0  0  0  0  0  0  0  0  0
    2.0507    0.3401    0.1082 H   0  0  0  0  0  0  0  0  0  0  0  0
   -1.0700   -0.5112    0.8610 H   0  0  0  0  0  0  0  0  0  0  0  0
   -1.6509    0.0064   -0.8574 H   0  0  0  0  0  0  0  0  0  0  0  0
  1  2  1  0
  1  4  1  0
  2  3  2  3
  3  5  1  0
  3  6  1  0
M  END
>  <reaction>  (3) 
rmg_rxn_15386

>  <mol_properties>  (3) 
{"2": {"label": "acceptor", "atom_type": "Cd"}, "5": {"label": "a_hydrogen", "atom_type": "H0"}}

>  <type>  (3) 
r2h

$$$$

     RDKit          3D

 11  9  0  0  0  0  0  0  0  0999 V2000
    0.5302    0.4707    3.1976 O   0  0  0  0  0  0  0  0  0  0  0  0
    0.6507    0.7863    1.8505 N   0  0  0  0  0  0  0  0  0  0  0  0
    0.0783    0.0543    1.0458 C   0  0  0  0  0  3  0  0  0  0  0  0
    1.0439    1.1587    3.6284 H   0  0  0  0  0  0  0  0  0  0  0  0
   -0.5372   -0.8380    1.1684 H   0  0  0  0  0  0  0  0  0  0  0  0
    0.1663    0.4425   -1.4153 O   0  0  0  0  0  0  0  0  0  0  0  0
   -0.5838   -0.5880   -1.8023 N   0  0  0  0  0  0  0  0  0  0  0  0
   -0.7534   -0.6970   -3.0527 C   0  0  0  0  0  0  0  0  0  0  0  0
    0.1971    0.3645   -0.2707 H   0  0  0  0  0  0  0  0  0  0  0  0
   -0.3196   -0.0012   -3.7669 H   0  0  0  0  0  0  0  0  0  0  0  0
   -1.3593   -1.5268   -3.3898 H   0  0  0  0  0  0  0  0  0  0  0  0
  1  2  1  0
  1  4  1  0
  2  3  2  3
  3  5  1  0
  6  7  1  0
  6  9  1  0
  7  8  2  3
  8 10  1  0
  8 11  1  0
M  RAD  1   3   2
M  END
>  <reaction>  (4) 
rmg_rxn_15386

>  <mol_properties>  (4) 
{"1": {"label": "*4", "atom_type": "N3d"}, "2": {"label": "*3", "atom_type": "Cd"}, "5": {"label": "*1", "atom_type": "O2s"}, "6": {"label": "*0", "atom_type": "N3d"}, "8": {"label": "*2", "atom_type": "H0"}}

>  <type>  (4) 
ts

$$$$

     RDKit          3D

 11  9  0  0  0  0  0  0  0  0999 V2000
    2.8763    0.3639    0.0019 O   0  0  0  0  0  0  0  0  0  0  0  0
    1.4827    0.2292    0.0092 N   0  0  0  0  0  0  0  0  0  0  0  0
    0.9662   -0.8982   -0.0166 C   0  0  0  0  0  3  0  0  0  0  0  0
    3.0333    1.3182    0.0277 H   0  0  0  0  0  0  0  0  0  0  0  0
    1.4470   -1.8679   -0.0462 H   0  0  0  0  0  0  0  0  0  0  0  0
   -1.5267   -0.9980    0.0087 O   0  0  0  0  0  0  0  0  0  0  0  0
   -2.2459    0.0402    0.0056 N   0  0  0  0  0  0  0  0  0  0  0  0
   -1.9230    1.2521   -0.0101 C   0  0  0  0  0  0  0  0  0  0  0  0
   -0.2859   -0.9174   -0.0031 H   0  0  0  0  0  0  0  0  0  0  0  0
   -0.8913    1.5925   -0.0244 H   0  0  0  0  0  0  0  0  0  0  0  0
   -2.7174    1.9769   -0.0102 H   0  0  0  0  0  0  0  0  0  0  0  0
  1  2  1  0
  1  4  1  0
  2  3  2  3
  3  5  1  0
  6  7  1  0
  6  9  1  0
  7  8  2  3
  8 10  1  0
  8 11  1  0
M  RAD  1   3   2
M  END
>  <reaction>  (5) 
rmg_rxn_15386

>  <mol_properties>  (5) 
{"1": {"label": "*4", "atom_type": "N3d"}, "2": {"label": "*3", "atom_type": "Cd"}, "5": {"label": "*1", "atom_type": "O2s"}, "6": {"label": "*0", "atom_type": "N3d"}, "8": {"label": "*2", "atom_type": "H0"}}

>  <type>  (5) 
unop_1

>  <geom_source>  (5) 
crest_best.xyz

$$$$

     RDKit          3D

 11  9  0  0  0  0  0  0  0  0999 V2000
    0.3163    1.0146    2.9468 O   0  0  0  0  0  0  0  0  0  0  0  0
    0.7157    0.4100    1.7713 N   0  0  0  0  0  0  0  0  0  0  0  0
   -0.2619   -0.0639    1.1284 C   0  0  0  0  0  3  0  0  0  0  0  0
    1.1400    1.3248    3.3280 H   0  0  0  0  0  0  0  0  0  0  0  0
   -1.2879    0.0098    1.4824 H   0  0  0  0  0  0  0  0  0  0  0  0
   -0.2619    0.3012   -1.2935 O   0  0  0  0  0  0  0  0  0  0  0  0
   -0.2619   -0.9796   -1.8098 N   0  0  0  0  0  0  0  0  0  0  0  0
   -0.2619   -0.9796   -3.0721 C   0  0  0  0  0  0  0  0  0  0  0  0
   -0.2619    0.1296   -0.1553 H   0  0  0  0  0  0  0  0  0  0  0  0
   -0.2619   -0.0633   -3.6588 H   0  0  0  0  0  0  0  0  0  0  0  0
   -0.2619   -1.9469   -3.5564 H   0  0  0  0  0  0  0  0  0  0  0  0
  1  2  1  0
  1  4  1  0
  2  3  2  3
  3  5  1  0
  6  7  1  0
  6  9  1  0
  7  8  2  3
  8 10  1  0
  8 11  1  0
M  RAD  1   3   2
M  END
>  <reaction>  (6) 
rmg_rxn_15386

>  <mol_properties>  (6) 
{"1": {"label": "*4", "atom_type": "N3d"}, "2": {"label": "*3", "atom_type": "Cd"}, "5": {"label": "*1", "atom_type": "O2s"}, "6": {"label": "*0", "atom_type": "N3d"}, "8": {"label": "*2", "atom_type": "H0"}}

>  <type>  (6) 
unop_2

>  <geom_source>  (6) 
Heuristics

$$$$

     RDKit          3D

 11  9  0  0  0  0  0  0  0  0999 V2000
    2.8767    0.3641    0.0007 O   0  0  0  0  0  0  0  0  0  0  0  0
    1.4831    0.2296   -0.0051 N   0  0  0  0  0  0  0  0  0  0  0  0
    0.9667   -0.8981    0.0057 C   0  0  0  0  0  3  0  0  0  0  0  0
    3.0339    1.3186   -0.0118 H   0  0  0  0  0  0  0  0  0  0  0  0
    1.4473   -1.8682    0.0198 H   0  0  0  0  0  0  0  0  0  0  0  0
   -1.5263   -0.9980   -0.0035 O   0  0  0  0  0  0  0  0  0  0  0  0
   -2.2463    0.0397   -0.0009 N   0  0  0  0  0  0  0  0  0  0  0  0
   -1.9244    1.2520    0.0035 C   0  0  0  0  0  0  0  0  0  0  0  0
   -0.2855   -0.9168   -0.0005 H   0  0  0  0  0  0  0  0  0  0  0  0
   -0.8928    1.5930    0.0056 H   0  0  0  0  0  0  0  0  0  0  0  0
   -2.7192    1.9761    0.0047 H   0  0  0  0  0  0  0  0  0  0  0  0
  1  2  1  0
  1  4  1  0
  2  3  2  3
  3  5  1  0
  6  7  1  0
  6  9  1  0
  7  8  2  3
  8 10  1  0
  8 11  1  0
M  RAD  1   3   2
M  END
>  <reaction>  (7) 
rmg_rxn_15386

>  <mol_properties>  (7) 
{"1": {"label": "*4", "atom_type": "N3d"}, "2": {"label": "*3", "atom_type": "Cd"}, "5": {"label": "*1", "atom_type": "O2s"}, "6": {"label": "*0", "atom_type": "N3d"}, "8": {"label": "*2", "atom_type": "H0"}}

>  <type>  (7) 
unop_3

>  <geom_source>  (7) 
Heuristics

$$$$

     RDKit          3D

 11  9  0  0  0  0  0  0  0  0999 V2000
    2.8778    0.3637   -0.0016 O   0  0  0  0  0  0  0  0  0  0  0  0
    1.4843    0.2299   -0.0147 N   0  0  0  0  0  0  0  0  0  0  0  0
    0.9670   -0.8968    0.0235 C   0  0  0  0  0  3  0  0  0  0  0  0
    3.0358    1.3175   -0.0401 H   0  0  0  0  0  0  0  0  0  0  0  0
    1.4465   -1.8664    0.0681 H   0  0  0  0  0  0  0  0  0  0  0  0
   -1.5258   -0.9979   -0.0128 O   0  0  0  0  0  0  0  0  0  0  0  0
   -2.2472    0.0389   -0.0070 N   0  0  0  0  0  0  0  0  0  0  0  0
   -1.9268    1.2514    0.0143 C   0  0  0  0  0  0  0  0  0  0  0  0
   -0.2852   -0.9156    0.0046 H   0  0  0  0  0  0  0  0  0  0  0  0
   -0.8960    1.5944    0.0318 H   0  0  0  0  0  0  0  0  0  0  0  0
   -2.7229    1.9742    0.0147 H   0  0  0  0  0  0  0  0  0  0  0  0
  1  2  1  0
  1  4  1  0
  2  3  2  3
  3  5  1  0
  6  7  1  0
  6  9  1  0
  7  8  2  3
  8 10  1  0
  8 11  1  0
M  RAD  1   3   2
M  END
>  <reaction>  (8) 
rmg_rxn_15386

>  <mol_properties>  (8) 
{"1": {"label": "*4", "atom_type": "N3d"}, "2": {"label": "*3", "atom_type": "Cd"}, "5": {"label": "*1", "atom_type": "O2s"}, "6": {"label": "*0", "atom_type": "N3d"}, "8": {"label": "*2", "atom_type": "H0"}}

>  <type>  (8) 
unop_4

>  <geom_source>  (8) 
Heuristics

$$$$

     RDKit          3D

 11  9  0  0  0  0  0  0  0  0999 V2000
    0.6074   -0.4078    2.9342 O   0  0  0  0  0  0  0  0  0  0  0  0
    0.3085   -0.4772    1.5878 N   0  0  0  0  0  0  0  0  0  0  0  0
   -0.2559    0.5736    1.1747 C   0  0  0  0  0  3  0  0  0  0  0  0
    1.0238   -1.2531    3.1131 H   0  0  0  0  0  0  0  0  0  0  0  0
   -0.4696    1.4192    1.8251 H   0  0  0  0  0  0  0  0  0  0  0  0
   -0.2559    0.9388   -1.2471 O   0  0  0  0  0  0  0  0  0  0  0  0
   -0.2559   -0.3420   -1.7635 N   0  0  0  0  0  0  0  0  0  0  0  0
   -0.2559   -0.3420   -3.0258 C   0  0  0  0  0  0  0  0  0  0  0  0
   -0.2559    0.7672   -0.1090 H   0  0  0  0  0  0  0  0  0  0  0  0
   -0.2559    0.5742   -3.6124 H   0  0  0  0  0  0  0  0  0  0  0  0
   -0.2559   -1.3094   -3.5101 H   0  0  0  0  0  0  0  0  0  0  0  0
  1  2  1  0
  1  4  1  0
  2  3  2  3
  3  5  1  0
  6  7  1  0
  6  9  1  0
  7  8  2  3
  8 10  1  0
  8 11  1  0
M  RAD  1   3   2
M  END
>  <reaction>  (9) 
rmg_rxn_15386

>  <mol_properties>  (9) 
{"1": {"label": "*4", "atom_type": "N3d"}, "2": {"label": "*3", "atom_type": "Cd"}, "5": {"label": "*1", "atom_type": "O2s"}, "6": {"label": "*0", "atom_type": "N3d"}, "8": {"label": "*2", "atom_type": "H0"}}

>  <type>  (9) 
unop_5

>  <geom_source>  (9) 
Heuristics

$$$$

     RDKit          3D

 11  9  0  0  0  0  0  0  0  0999 V2000
    2.8763   -0.3641   -0.0011 O   0  0  0  0  0  0  0  0  0  0  0  0
    1.4829   -0.2292   -0.0088 N   0  0  0  0  0  0  0  0  0  0  0  0
    0.9664    0.8983    0.0142 C   0  0  0  0  0  3  0  0  0  0  0  0
    3.0331   -1.3185   -0.0243 H   0  0  0  0  0  0  0  0  0  0  0  0
    1.4470    1.8681    0.0413 H   0  0  0  0  0  0  0  0  0  0  0  0
   -1.5266    0.9980   -0.0076 O   0  0  0  0  0  0  0  0  0  0  0  0
   -2.2461   -0.0401   -0.0045 N   0  0  0  0  0  0  0  0  0  0  0  0
   -1.9234   -1.2521    0.0088 C   0  0  0  0  0  0  0  0  0  0  0  0
   -0.2858    0.9173    0.0029 H   0  0  0  0  0  0  0  0  0  0  0  0
   -0.8918   -1.5928    0.0200 H   0  0  0  0  0  0  0  0  0  0  0  0
   -2.7179   -1.9767    0.0087 H   0  0  0  0  0  0  0  0  0  0  0  0
  1  2  1  0
  1  4  1  0
  2  3  2  3
  3  5  1  0
  6  7  1  0
  6  9  1  0
  7  8  2  3
  8 10  1  0
  8 11  1  0
M  RAD  1   3   2
M  END
>  <reaction>  (10) 
rmg_rxn_15386

>  <mol_properties>  (10) 
{"1": {"label": "*4", "atom_type": "N3d"}, "2": {"label": "*3", "atom_type": "Cd"}, "5": {"label": "*1", "atom_type": "O2s"}, "6": {"label": "*0", "atom_type": "N3d"}, "8": {"label": "*2", "atom_type": "H0"}}

>  <type>  (10) 
unop_6

>  <geom_source>  (10) 
Heuristics

$$$$

     RDKit          3D

 11  9  0  0  0  0  0  0  0  0999 V2000
   -0.1235    0.9153    3.0297 O   0  0  0  0  0  0  0  0  0  0  0  0
    0.4887    0.7662    1.8009 N   0  0  0  0  0  0  0  0  0  0  0  0
   -0.0757   -0.1162    1.0964 C   0  0  0  0  0  3  0  0  0  0  0  0
    0.3947    1.6019    3.4540 H   0  0  0  0  0  0  0  0  0  0  0  0
   -0.9411   -0.6778    1.4419 H   0  0  0  0  0  0  0  0  0  0  0  0
   -0.0757    0.2489   -1.3255 O   0  0  0  0  0  0  0  0  0  0  0  0
   -0.0757   -1.0319   -1.8418 N   0  0  0  0  0  0  0  0  0  0  0  0
   -0.0757   -1.0319   -3.1042 C   0  0  0  0  0  0  0  0  0  0  0  0
   -0.0757    0.0773   -0.1873 H   0  0  0  0  0  0  0  0  0  0  0  0
   -0.0757   -0.1157   -3.6908 H   0  0  0  0  0  0  0  0  0  0  0  0
   -0.0757   -1.9993   -3.5884 H   0  0  0  0  0  0  0  0  0  0  0  0
  1  2  1  0
  1  4  1  0
  2  3  2  3
  3  5  1  0
  6  7  1  0
  6  9  1  0
  7  8  2  3
  8 10  1  0
  8 11  1  0
M  RAD  1   3   2
M  END
>  <reaction>  (11) 
rmg_rxn_15386

>  <mol_properties>  (11) 
{"1": {"label": "*4", "atom_type": "N3d"}, "2": {"label": "*3", "atom_type": "Cd"}, "5": {"label": "*1", "atom_type": "O2s"}, "6": {"label": "*0", "atom_type": "N3d"}, "8": {"label": "*2", "atom_type": "H0"}}

>  <type>  (11) 
unop_7

>  <geom_source>  (11) 
Heuristics

$$$$

     RDKit          3D

 11  9  0  0  0  0  0  0  0  0999 V2000
   -0.8922    0.1350    2.9196 O   0  0  0  0  0  0  0  0  0  0  0  0
   -0.5737   -0.2794    1.6414 N   0  0  0  0  0  0  0  0  0  0  0  0
    0.4039    0.3629    1.1667 C   0  0  0  0  0  3  0  0  0  0  0  0
   -1.6358   -0.4232    3.1552 H   0  0  0  0  0  0  0  0  0  0  0  0
    0.9164    1.1459    1.7217 H   0  0  0  0  0  0  0  0  0  0  0  0
    0.4039    0.7281   -1.2551 O   0  0  0  0  0  0  0  0  0  0  0  0
    0.4039   -0.5527   -1.7714 N   0  0  0  0  0  0  0  0  0  0  0  0
    0.4039   -0.5527   -3.0338 C   0  0  0  0  0  0  0  0  0  0  0  0
    0.4039    0.5565   -0.1169 H   0  0  0  0  0  0  0  0  0  0  0  0
    0.4039    0.3635   -3.6204 H   0  0  0  0  0  0  0  0  0  0  0  0
    0.4039   -1.5201   -3.5181 H   0  0  0  0  0  0  0  0  0  0  0  0
  1  2  1  0
  1  4  1  0
  2  3  2  3
  3  5  1  0
  6  7  1  0
  6  9  1  0
  7  8  2  3
  8 10  1  0
  8 11  1  0
M  RAD  1   3   2
M  END
>  <reaction>  (12) 
rmg_rxn_15386

>  <mol_properties>  (12) 
{"1": {"label": "*4", "atom_type": "N3d"}, "2": {"label": "*3", "atom_type": "Cd"}, "5": {"label": "*1", "atom_type": "O2s"}, "6": {"label": "*0", "atom_type": "N3d"}, "8": {"label": "*2", "atom_type": "H0"}}

>  <type>  (12) 
unop_8

>  <geom_source>  (12) 
Heuristics

$$$$

     RDKit          3D

 11  9  0  0  0  0  0  0  0  0999 V2000
    2.8764    0.3641    0.0000 O   0  0  0  0  0  0  0  0  0  0  0  0
    1.4829    0.2293   -0.0001 N   0  0  0  0  0  0  0  0  0  0  0  0
    0.9664   -0.8984    0.0001 C   0  0  0  0  0  3  0  0  0  0  0  0
    3.0330    1.3188   -0.0003 H   0  0  0  0  0  0  0  0  0  0  0  0
    1.4471   -1.8686    0.0004 H   0  0  0  0  0  0  0  0  0  0  0  0
   -1.5266   -0.9980   -0.0001 O   0  0  0  0  0  0  0  0  0  0  0  0
   -2.2462    0.0401   -0.0000 N   0  0  0  0  0  0  0  0  0  0  0  0
   -1.9234    1.2521    0.0001 C   0  0  0  0  0  0  0  0  0  0  0  0
   -0.2858   -0.9173    0.0000 H   0  0  0  0  0  0  0  0  0  0  0  0
   -0.8917    1.5928    0.0002 H   0  0  0  0  0  0  0  0  0  0  0  0
   -2.7179    1.9767    0.0001 H   0  0  0  0  0  0  0  0  0  0  0  0
  1  2  1  0
  1  4  1  0
  2  3  2  3
  3  5  1  0
  6  7  1  0
  6  9  1  0
  7  8  2  3
  8 10  1  0
  8 11  1  0
M  RAD  1   3   2
M  END
>  <reaction>  (13) 
rmg_rxn_15386

>  <mol_properties>  (13) 
{"1": {"label": "*4", "atom_type": "N3d"}, "2": {"label": "*3", "atom_type": "Cd"}, "5": {"label": "*1", "atom_type": "O2s"}, "6": {"label": "*0", "atom_type": "N3d"}, "8": {"label": "*2", "atom_type": "H0"}}

>  <type>  (13) 
unop_9

>  <geom_source>  (13) 
Heuristics

$$$$

     RDKit          3D

 11  9  0  0  0  0  0  0  0  0999 V2000
    0.0000    0.6399    3.1371 O   0  0  0  0  0  0  0  0  0  0  0  0
    0.0000    0.9555    1.7927 N   0  0  0  0  0  0  0  0  0  0  0  0
    0.0000   -0.0765    1.0656 C   0  0  0  0  0  3  0  0  0  0  0  0
    0.0000    1.4976    3.5665 H   0  0  0  0  0  0  0  0  0  0  0  0
    0.0000   -1.0837    1.4768 H   0  0  0  0  0  0  0  0  0  0  0  0
   -0.0000    0.2887   -1.3562 O   0  0  0  0  0  0  0  0  0  0  0  0
   -0.0000   -0.9921   -1.8726 N   0  0  0  0  0  0  0  0  0  0  0  0
   -0.0000   -0.9921   -3.1349 C   0  0  0  0  0  0  0  0  0  0  0  0
   -0.0000    0.1171   -0.2181 H   0  0  0  0  0  0  0  0  0  0  0  0
   -0.0000   -0.0759   -3.7215 H   0  0  0  0  0  0  0  0  0  0  0  0
   -0.0000   -1.9595   -3.6192 H   0  0  0  0  0  0  0  0  0  0  0  0
  1  2  1  0
  1  4  1  0
  2  3  2  3
  3  5  1  0
  6  7  1  0
  6  9  1  0
  7  8  2  3
  8 10  1  0
  8 11  1  0
M  RAD  1   3   2
M  END
>  <reaction>  (14) 
rmg_rxn_15386

>  <mol_properties>  (14) 
{"1": {"label": "*4", "atom_type": "N3d"}, "2": {"label": "*3", "atom_type": "Cd"}, "5": {"label": "*1", "atom_type": "O2s"}, "6": {"label": "*0", "atom_type": "N3d"}, "8": {"label": "*2", "atom_type": "H0"}}

>  <type>  (14) 
unop_10

>  <geom_source>  (14) 
Heuristics

$$$$

     RDKit          3D

 11  9  0  0  0  0  0  0  0  0999 V2000
    2.8778    0.3639    0.0002 O   0  0  0  0  0  0  0  0  0  0  0  0
    1.4842    0.2300    0.0010 N   0  0  0  0  0  0  0  0  0  0  0  0
    0.9671   -0.8974   -0.0017 C   0  0  0  0  0  3  0  0  0  0  0  0
    3.0352    1.3185    0.0029 H   0  0  0  0  0  0  0  0  0  0  0  0
    1.4471   -1.8679   -0.0048 H   0  0  0  0  0  0  0  0  0  0  0  0
   -1.5259   -0.9979    0.0009 O   0  0  0  0  0  0  0  0  0  0  0  0
   -2.2472    0.0390    0.0005 N   0  0  0  0  0  0  0  0  0  0  0  0
   -1.9267    1.2516   -0.0010 C   0  0  0  0  0  0  0  0  0  0  0  0
   -0.2852   -0.9158   -0.0002 H   0  0  0  0  0  0  0  0  0  0  0  0
   -0.8956    1.5944   -0.0028 H   0  0  0  0  0  0  0  0  0  0  0  0
   -2.7226    1.9747   -0.0014 H   0  0  0  0  0  0  0  0  0  0  0  0
  1  2  1  0
  1  4  1  0
  2  3  2  3
  3  5  1  0
  6  7  1  0
  6  9  1  0
  7  8  2  3
  8 10  1  0
  8 11  1  0
M  RAD  1   3   2
M  END
>  <reaction>  (15) 
rmg_rxn_15386

>  <mol_properties>  (15) 
{"1": {"label": "*4", "atom_type": "N3d"}, "2": {"label": "*3", "atom_type": "Cd"}, "5": {"label": "*1", "atom_type": "O2s"}, "6": {"label": "*0", "atom_type": "N3d"}, "8": {"label": "*2", "atom_type": "H0"}}

>  <type>  (15) 
unop_11

>  <geom_source>  (15) 
Heuristics

$$$$

     RDKit          3D

 11  9  0  0  0  0  0  0  0  0999 V2000
   -0.7571    0.6977    2.9206 O   0  0  0  0  0  0  0  0  0  0  0  0
   -0.7298    0.0350    1.7094 N   0  0  0  0  0  0  0  0  0  0  0  0
    0.3990    0.1192    1.1507 C   0  0  0  0  0  3  0  0  0  0  0  0
   -1.6538    0.5566    3.2308 H   0  0  0  0  0  0  0  0  0  0  0  0
    1.2343    0.6571    1.5939 H   0  0  0  0  0  0  0  0  0  0  0  0
    0.3990    0.4844   -1.2712 O   0  0  0  0  0  0  0  0  0  0  0  0
    0.3990   -0.7964   -1.7875 N   0  0  0  0  0  0  0  0  0  0  0  0
    0.3990   -0.7964   -3.0499 C   0  0  0  0  0  0  0  0  0  0  0  0
    0.3990    0.3128   -0.1330 H   0  0  0  0  0  0  0  0  0  0  0  0
    0.3990    0.1198   -3.6365 H   0  0  0  0  0  0  0  0  0  0  0  0
    0.3990   -1.7638   -3.5341 H   0  0  0  0  0  0  0  0  0  0  0  0
  1  2  1  0
  1  4  1  0
  2  3  2  3
  3  5  1  0
  6  7  1  0
  6  9  1  0
  7  8  2  3
  8 10  1  0
  8 11  1  0
M  RAD  1   3   2
M  END
>  <reaction>  (16) 
rmg_rxn_15386

>  <mol_properties>  (16) 
{"1": {"label": "*4", "atom_type": "N3d"}, "2": {"label": "*3", "atom_type": "Cd"}, "5": {"label": "*1", "atom_type": "O2s"}, "6": {"label": "*0", "atom_type": "N3d"}, "8": {"label": "*2", "atom_type": "H0"}}

>  <type>  (16) 
unop_12

>  <geom_source>  (16) 
Heuristics

$$$$

     RDKit          3D

 11  9  0  0  0  0  0  0  0  0999 V2000
    2.8769    0.3641   -0.0007 O   0  0  0  0  0  0  0  0  0  0  0  0
    1.4834    0.2296   -0.0046 N   0  0  0  0  0  0  0  0  0  0  0  0
    0.9668   -0.8980    0.0077 C   0  0  0  0  0  3  0  0  0  0  0  0
    3.0339    1.3186   -0.0130 H   0  0  0  0  0  0  0  0  0  0  0  0
    1.4474   -1.8680    0.0220 H   0  0  0  0  0  0  0  0  0  0  0  0
   -1.5263   -0.9980   -0.0041 O   0  0  0  0  0  0  0  0  0  0  0  0
   -2.2465    0.0396   -0.0025 N   0  0  0  0  0  0  0  0  0  0  0  0
   -1.9249    1.2519    0.0046 C   0  0  0  0  0  0  0  0  0  0  0  0
   -0.2854   -0.9168    0.0015 H   0  0  0  0  0  0  0  0  0  0  0  0
   -0.8936    1.5937    0.0112 H   0  0  0  0  0  0  0  0  0  0  0  0
   -2.7201    1.9757    0.0053 H   0  0  0  0  0  0  0  0  0  0  0  0
  1  2  1  0
  1  4  1  0
  2  3  2  3
  3  5  1  0
  6  7  1  0
  6  9  1  0
  7  8  2  3
  8 10  1  0
  8 11  1  0
M  RAD  1   3   2
M  END
>  <reaction>  (17) 
rmg_rxn_15386

>  <mol_properties>  (17) 
{"1": {"label": "*4", "atom_type": "N3d"}, "2": {"label": "*3", "atom_type": "Cd"}, "5": {"label": "*1", "atom_type": "O2s"}, "6": {"label": "*0", "atom_type": "N3d"}, "8": {"label": "*2", "atom_type": "H0"}}

>  <type>  (17) 
unop_13

>  <geom_source>  (17) 
Heuristics

$$$$

     RDKit          3D

 11  9  0  0  0  0  0  0  0  0999 V2000
   -0.3163    1.0146    2.9468 O   0  0  0  0  0  0  0  0  0  0  0  0
   -0.7157    0.4100    1.7713 N   0  0  0  0  0  0  0  0  0  0  0  0
    0.2619   -0.0639    1.1284 C   0  0  0  0  0  3  0  0  0  0  0  0
   -1.1400    1.3248    3.3280 H   0  0  0  0  0  0  0  0  0  0  0  0
    1.2879    0.0098    1.4824 H   0  0  0  0  0  0  0  0  0  0  0  0
    0.2619    0.3012   -1.2935 O   0  0  0  0  0  0  0  0  0  0  0  0
    0.2619   -0.9796   -1.8098 N   0  0  0  0  0  0  0  0  0  0  0  0
    0.2619   -0.9796   -3.0721 C   0  0  0  0  0  0  0  0  0  0  0  0
    0.2619    0.1296   -0.1553 H   0  0  0  0  0  0  0  0  0  0  0  0
    0.2619   -0.0633   -3.6588 H   0  0  0  0  0  0  0  0  0  0  0  0
    0.2619   -1.9469   -3.5564 H   0  0  0  0  0  0  0  0  0  0  0  0
  1  2  1  0
  1  4  1  0
  2  3  2  3
  3  5  1  0
  6  7  1  0
  6  9  1  0
  7  8  2  3
  8 10  1  0
  8 11  1  0
M  RAD  1   3   2
M  END
>  <reaction>  (18) 
rmg_rxn_15386

>  <mol_properties>  (18) 
{"1": {"label": "*4", "atom_type": "N3d"}, "2": {"label": "*3", "atom_type": "Cd"}, "5": {"label": "*1", "atom_type": "O2s"}, "6": {"label": "*0", "atom_type": "N3d"}, "8": {"label": "*2", "atom_type": "H0"}}

>  <type>  (18) 
unop_14

>  <geom_source>  (18) 
Heuristics

$$$$

     RDKit          3D

 11  9  0  0  0  0  0  0  0  0999 V2000
    2.8761   -0.3639    0.0007 O   0  0  0  0  0  0  0  0  0  0  0  0
    1.4826   -0.2293    0.0042 N   0  0  0  0  0  0  0  0  0  0  0  0
    0.9662    0.8985   -0.0071 C   0  0  0  0  0  3  0  0  0  0  0  0
    3.0332   -1.3185    0.0124 H   0  0  0  0  0  0  0  0  0  0  0  0
    1.4471    1.8684   -0.0203 H   0  0  0  0  0  0  0  0  0  0  0  0
   -1.5269    0.9980    0.0037 O   0  0  0  0  0  0  0  0  0  0  0  0
   -2.2460   -0.0404    0.0024 N   0  0  0  0  0  0  0  0  0  0  0  0
   -1.9225   -1.2522   -0.0044 C   0  0  0  0  0  0  0  0  0  0  0  0
   -0.2861    0.9174   -0.0017 H   0  0  0  0  0  0  0  0  0  0  0  0
   -0.8905   -1.5920   -0.0107 H   0  0  0  0  0  0  0  0  0  0  0  0
   -2.7165   -1.9774   -0.0042 H   0  0  0  0  0  0  0  0  0  0  0  0
  1  2  1  0
  1  4  1  0
  2  3  2  3
  3  5  1  0
  6  7  1  0
  6  9  1  0
  7  8  2  3
  8 10  1  0
  8 11  1  0
M  RAD  1   3   2
M  END
>  <reaction>  (19) 
rmg_rxn_15386

>  <mol_properties>  (19) 
{"1": {"label": "*4", "atom_type": "N3d"}, "2": {"label": "*3", "atom_type": "Cd"}, "5": {"label": "*1", "atom_type": "O2s"}, "6": {"label": "*0", "atom_type": "N3d"}, "8": {"label": "*2", "atom_type": "H0"}}

>  <type>  (19) 
unop_15

>  <geom_source>  (19) 
Heuristics

$$$$

     RDKit          3D

 11  9  0  0  0  0  0  0  0  0999 V2000
    0.7571    0.6977    2.9206 O   0  0  0  0  0  0  0  0  0  0  0  0
    0.7298    0.0350    1.7094 N   0  0  0  0  0  0  0  0  0  0  0  0
   -0.3990    0.1192    1.1507 C   0  0  0  0  0  3  0  0  0  0  0  0
    1.6538    0.5566    3.2308 H   0  0  0  0  0  0  0  0  0  0  0  0
   -1.2343    0.6571    1.5939 H   0  0  0  0  0  0  0  0  0  0  0  0
   -0.3990    0.4844   -1.2712 O   0  0  0  0  0  0  0  0  0  0  0  0
   -0.3990   -0.7964   -1.7875 N   0  0  0  0  0  0  0  0  0  0  0  0
   -0.3990   -0.7964   -3.0499 C   0  0  0  0  0  0  0  0  0  0  0  0
   -0.3990    0.3128   -0.1330 H   0  0  0  0  0  0  0  0  0  0  0  0
   -0.3990    0.1198   -3.6365 H   0  0  0  0  0  0  0  0  0  0  0  0
   -0.3990   -1.7638   -3.5341 H   0  0  0  0  0  0  0  0  0  0  0  0
  1  2  1  0
  1  4  1  0
  2  3  2  3
  3  5  1  0
  6  7  1  0
  6  9  1  0
  7  8  2  3
  8 10  1  0
  8 11  1  0
M  RAD  1   3   2
M  END
>  <reaction>  (20) 
rmg_rxn_15386

>  <mol_properties>  (20) 
{"1": {"label": "*4", "atom_type": "N3d"}, "2": {"label": "*3", "atom_type": "Cd"}, "5": {"label": "*1", "atom_type": "O2s"}, "6": {"label": "*0", "atom_type": "N3d"}, "8": {"label": "*2", "atom_type": "H0"}}

>  <type>  (20) 
unop_16

>  <geom_source>  (20) 
Heuristics

$$$$

     RDKit          3D

 11  9  0  0  0  0  0  0  0  0999 V2000
    2.8763    0.3639    0.0019 O   0  0  0  0  0  0  0  0  0  0  0  0
    1.4827    0.2292    0.0092 N   0  0  0  0  0  0  0  0  0  0  0  0
    0.9662   -0.8982   -0.0166 C   0  0  0  0  0  3  0  0  0  0  0  0
    3.0333    1.3182    0.0277 H   0  0  0  0  0  0  0  0  0  0  0  0
    1.4470   -1.8679   -0.0462 H   0  0  0  0  0  0  0  0  0  0  0  0
   -1.5267   -0.9980    0.0087 O   0  0  0  0  0  0  0  0  0  0  0  0
   -2.2459    0.0402    0.0056 N   0  0  0  0  0  0  0  0  0  0  0  0
   -1.9230    1.2521   -0.0101 C   0  0  0  0  0  0  0  0  0  0  0  0
   -0.2859   -0.9174   -0.0031 H   0  0  0  0  0  0  0  0  0  0  0  0
   -0.8913    1.5925   -0.0244 H   0  0  0  0  0  0  0  0  0  0  0  0
   -2.7174    1.9769   -0.0102 H   0  0  0  0  0  0  0  0  0  0  0  0
  1  2  1  0
  1  4  1  0
  2  3  2  3
  3  5  1  0
  6  7  1  0
  6  9  1  0
  7  8  2  3
  8 10  1  0
  8 11  1  0
M  RAD  1   3   2
M  END
>  <reaction>  (21) 
rmg_rxn_15386

>  <mol_properties>  (21) 
{"1": {"label": "*4", "atom_type": "N3d"}, "2": {"label": "*3", "atom_type": "Cd"}, "5": {"label": "*1", "atom_type": "O2s"}, "6": {"label": "*0", "atom_type": "N3d"}, "8": {"label": "*2", "atom_type": "H0"}}

>  <type>  (21) 
unop_17

>  <geom_source>  (21) 
Heuristics

$$$$

     RDKit          3D

 11  9  0  0  0  0  0  0  0  0999 V2000
   -0.6074   -0.4078    2.9342 O   0  0  0  0  0  0  0  0  0  0  0  0
   -0.3085   -0.4772    1.5878 N   0  0  0  0  0  0  0  0  0  0  0  0
    0.2559    0.5736    1.1747 C   0  0  0  0  0  3  0  0  0  0  0  0
   -1.0238   -1.2531    3.1131 H   0  0  0  0  0  0  0  0  0  0  0  0
    0.4696    1.4192    1.8251 H   0  0  0  0  0  0  0  0  0  0  0  0
    0.2559    0.9388   -1.2471 O   0  0  0  0  0  0  0  0  0  0  0  0
    0.2559   -0.3420   -1.7635 N   0  0  0  0  0  0  0  0  0  0  0  0
    0.2559   -0.3420   -3.0258 C   0  0  0  0  0  0  0  0  0  0  0  0
    0.2559    0.7672   -0.1090 H   0  0  0  0  0  0  0  0  0  0  0  0
    0.2559    0.5742   -3.6124 H   0  0  0  0  0  0  0  0  0  0  0  0
    0.2559   -1.3094   -3.5101 H   0  0  0  0  0  0  0  0  0  0  0  0
  1  2  1  0
  1  4  1  0
  2  3  2  3
  3  5  1  0
  6  7  1  0
  6  9  1  0
  7  8  2  3
  8 10  1  0
  8 11  1  0
M  RAD  1   3   2
M  END
>  <reaction>  (22) 
rmg_rxn_15386

>  <mol_properties>  (22) 
{"1": {"label": "*4", "atom_type": "N3d"}, "2": {"label": "*3", "atom_type": "Cd"}, "5": {"label": "*1", "atom_type": "O2s"}, "6": {"label": "*0", "atom_type": "N3d"}, "8": {"label": "*2", "atom_type": "H0"}}

>  <type>  (22) 
unop_18

>  <geom_source>  (22) 
Heuristics

$$$$

     RDKit          3D

 11  9  0  0  0  0  0  0  0  0999 V2000
    0.8922    0.1350    2.9196 O   0  0  0  0  0  0  0  0  0  0  0  0
    0.5737   -0.2794    1.6414 N   0  0  0  0  0  0  0  0  0  0  0  0
   -0.4039    0.3629    1.1667 C   0  0  0  0  0  3  0  0  0  0  0  0
    1.6358   -0.4232    3.1552 H   0  0  0  0  0  0  0  0  0  0  0  0
   -0.9164    1.1459    1.7217 H   0  0  0  0  0  0  0  0  0  0  0  0
   -0.4039    0.7281   -1.2551 O   0  0  0  0  0  0  0  0  0  0  0  0
   -0.4039   -0.5527   -1.7714 N   0  0  0  0  0  0  0  0  0  0  0  0
   -0.4039   -0.5527   -3.0338 C   0  0  0  0  0  0  0  0  0  0  0  0
   -0.4039    0.5565   -0.1169 H   0  0  0  0  0  0  0  0  0  0  0  0
   -0.4039    0.3635   -3.6204 H   0  0  0  0  0  0  0  0  0  0  0  0
   -0.4039   -1.5201   -3.5181 H   0  0  0  0  0  0  0  0  0  0  0  0
  1  2  1  0
  1  4  1  0
  2  3  2  3
  3  5  1  0
  6  7  1  0
  6  9  1  0
  7  8  2  3
  8 10  1  0
  8 11  1  0
M  RAD  1   3   2
M  END
>  <reaction>  (23) 
rmg_rxn_15386

>  <mol_properties>  (23) 
{"1": {"label": "*4", "atom_type": "N3d"}, "2": {"label": "*3", "atom_type": "Cd"}, "5": {"label": "*1", "atom_type": "O2s"}, "6": {"label": "*0", "atom_type": "N3d"}, "8": {"label": "*2", "atom_type": "H0"}}

>  <type>  (23) 
unop_19

>  <geom_source>  (23) 
Heuristics

$$$$

     RDKit          3D

 11  9  0  0  0  0  0  0  0  0999 V2000
    0.1235    0.9153    3.0297 O   0  0  0  0  0  0  0  0  0  0  0  0
   -0.4887    0.7662    1.8009 N   0  0  0  0  0  0  0  0  0  0  0  0
    0.0757   -0.1162    1.0964 C   0  0  0  0  0  3  0  0  0  0  0  0
   -0.3947    1.6019    3.4540 H   0  0  0  0  0  0  0  0  0  0  0  0
    0.9411   -0.6778    1.4419 H   0  0  0  0  0  0  0  0  0  0  0  0
    0.0757    0.2489   -1.3255 O   0  0  0  0  0  0  0  0  0  0  0  0
    0.0757   -1.0319   -1.8418 N   0  0  0  0  0  0  0  0  0  0  0  0
    0.0757   -1.0319   -3.1042 C   0  0  0  0  0  0  0  0  0  0  0  0
    0.0757    0.0773   -0.1873 H   0  0  0  0  0  0  0  0  0  0  0  0
    0.0757   -0.1157   -3.6908 H   0  0  0  0  0  0  0  0  0  0  0  0
    0.0757   -1.9993   -3.5884 H   0  0  0  0  0  0  0  0  0  0  0  0
  1  2  1  0
  1  4  1  0
  2  3  2  3
  3  5  1  0
  6  7  1  0
  6  9  1  0
  7  8  2  3
  8 10  1  0
  8 11  1  0
M  RAD  1   3   2
M  END
>  <reaction>  (24) 
rmg_rxn_15386

>  <mol_properties>  (24) 
{"1": {"label": "*4", "atom_type": "N3d"}, "2": {"label": "*3", "atom_type": "Cd"}, "5": {"label": "*1", "atom_type": "O2s"}, "6": {"label": "*0", "atom_type": "N3d"}, "8": {"label": "*2", "atom_type": "H0"}}

>  <type>  (24) 
unop_20

>  <geom_source>  (24) 
Heuristics

$$$$

     RDKit          3D

 11  9  0  0  0  0  0  0  0  0999 V2000
    0.0000   -0.6370    2.9446 O   0  0  0  0  0  0  0  0  0  0  0  0
    0.0000   -0.5421    1.5669 N   0  0  0  0  0  0  0  0  0  0  0  0
    0.0000    0.6583    1.1764 C   0  0  0  0  0  3  0  0  0  0  0  0
    0.0000   -1.5832    3.1020 H   0  0  0  0  0  0  0  0  0  0  0  0
    0.0000    1.4996    1.8662 H   0  0  0  0  0  0  0  0  0  0  0  0
   -0.0000    1.0234   -1.2454 O   0  0  0  0  0  0  0  0  0  0  0  0
   -0.0000   -0.2574   -1.7618 N   0  0  0  0  0  0  0  0  0  0  0  0
   -0.0000   -0.2574   -3.0241 C   0  0  0  0  0  0  0  0  0  0  0  0
   -0.0000    0.8518   -0.1073 H   0  0  0  0  0  0  0  0  0  0  0  0
   -0.0000    0.6588   -3.6108 H   0  0  0  0  0  0  0  0  0  0  0  0
   -0.0000   -1.2248   -3.5084 H   0  0  0  0  0  0  0  0  0  0  0  0
  1  2  1  0
  1  4  1  0
  2  3  2  3
  3  5  1  0
  6  7  1  0
  6  9  1  0
  7  8  2  3
  8 10  1  0
  8 11  1  0
M  RAD  1   3   2
M  END
>  <reaction>  (25) 
rmg_rxn_15386

>  <mol_properties>  (25) 
{"1": {"label": "*4", "atom_type": "N3d"}, "2": {"label": "*3", "atom_type": "Cd"}, "5": {"label": "*1", "atom_type": "O2s"}, "6": {"label": "*0", "atom_type": "N3d"}, "8": {"label": "*2", "atom_type": "H0"}}

>  <type>  (25) 
unop_21

>  <geom_source>  (25) 
Heuristics

$$$$

     RDKit          3D

 11  9  0  0  0  0  0  0  0  0999 V2000
    2.8765   -0.3646    0.0002 O   0  0  0  0  0  0  0  0  0  0  0  0
    1.4831   -0.2290   -0.0002 N   0  0  0  0  0  0  0  0  0  0  0  0
    0.9667    0.8987   -0.0000 C   0  0  0  0  0  3  0  0  0  0  0  0
    3.0326   -1.3195   -0.0001 H   0  0  0  0  0  0  0  0  0  0  0  0
    1.4463    1.8693    0.0005 H   0  0  0  0  0  0  0  0  0  0  0  0
   -1.5264    0.9978    0.0000 O   0  0  0  0  0  0  0  0  0  0  0  0
   -2.2463   -0.0400    0.0000 N   0  0  0  0  0  0  0  0  0  0  0  0
   -1.9239   -1.2521    0.0001 C   0  0  0  0  0  0  0  0  0  0  0  0
   -0.2858    0.9168   -0.0003 H   0  0  0  0  0  0  0  0  0  0  0  0
   -0.8923   -1.5929   -0.0001 H   0  0  0  0  0  0  0  0  0  0  0  0
   -2.7185   -1.9765   -0.0002 H   0  0  0  0  0  0  0  0  0  0  0  0
  1  2  1  0
  1  4  1  0
  2  3  2  3
  3  5  1  0
  6  7  1  0
  6  9  1  0
  7  8  2  3
  8 10  1  0
  8 11  1  0
M  RAD  1   3   2
M  END
>  <reaction>  (26) 
rmg_rxn_15386

>  <mol_properties>  (26) 
{"1": {"label": "*4", "atom_type": "N3d"}, "2": {"label": "*3", "atom_type": "Cd"}, "5": {"label": "*1", "atom_type": "O2s"}, "6": {"label": "*0", "atom_type": "N3d"}, "8": {"label": "*2", "atom_type": "H0"}}

>  <type>  (26) 
unop_22

>  <geom_source>  (26) 
Heuristics

$$$$

     RDKit          3D

 11  9  0  0  0  0  0  0  0  0999 V2000
    0.9532    1.0615   -0.7497 O   0  0  0  0  0  0  0  0  0  0  0  0
   -1.0815   -0.5543   -1.4707 O   0  0  0  0  0  1  0  0  0  0  0  0
    1.2452    0.0821    0.1702 N   0  0  0  0  0  0  0  0  0  0  0  0
   -1.6562   -0.0665   -0.3206 N   0  0  0  0  0  0  0  0  0  0  0  0
    0.6067   -1.0406    0.1556 C   0  0  0  0  0  0  0  0  0  0  0  0
   -0.9210    0.4069    0.6304 C   0  0  0  0  0  0  0  0  0  0  0  0
   -0.2209   -1.2381   -0.6328 H   0  0  0  0  0  0  0  0  0  0  0  0
    0.8441   -1.8042    0.8836 H   0  0  0  0  0  0  0  0  0  0  0  0
    0.1576    0.4267    0.5361 H   0  0  0  0  0  0  0  0  0  0  0  0
   -1.3847    0.7877    1.5301 H   0  0  0  0  0  0  0  0  0  0  0  0
    1.4576    1.9388   -0.7323 H   0  0  0  0  0  0  0  0  0  0  0  0
  1  3  1  0
  1 11  1  0
  2  4  1  0
  3  5  2  3
  4  6  2  3
  5  7  1  0
  5  8  1  0
  6  9  1  0
  6 10  1  0
M  RAD  1   2   2
M  END
>  <reaction>  (27) 
rmg_rxn_15386

>  <mol_properties>  (27) 
{"1": {"label": "*4", "atom_type": "N3d"}, "2": {"label": "*3", "atom_type": "Cd"}, "5": {"label": "*1", "atom_type": "O2s"}, "6": {"label": "*0", "atom_type": "N3d"}, "8": {"label": "*2", "atom_type": "H0"}}

>  <type>  (27) 
unop_23

>  <geom_source>  (27) 
AutoTST

$$$$

     RDKit          3D

 11  9  0  0  0  0  0  0  0  0999 V2000
    0.8922    0.1350    2.9196 O   0  0  0  0  0  0  0  0  0  0  0  0
    0.5737   -0.2794    1.6414 N   0  0  0  0  0  0  0  0  0  0  0  0
   -0.4039    0.3629    1.1667 C   0  0  0  0  0  3  0  0  0  0  0  0
    1.6358   -0.4232    3.1552 H   0  0  0  0  0  0  0  0  0  0  0  0
   -0.9164    1.1459    1.7217 H   0  0  0  0  0  0  0  0  0  0  0  0
   -0.4039    0.7281   -1.2551 O   0  0  0  0  0  0  0  0  0  0  0  0
   -0.4039   -0.5527   -1.7714 N   0  0  0  0  0  0  0  0  0  0  0  0
   -0.4039   -0.5527   -3.0338 C   0  0  0  0  0  0  0  0  0  0  0  0
   -0.4039    0.5565   -0.1169 H   0  0  0  0  0  0  0  0  0  0  0  0
   -0.4039    0.3635   -3.6204 H   0  0  0  0  0  0  0  0  0  0  0  0
   -0.4039   -1.5201   -3.5181 H   0  0  0  0  0  0  0  0  0  0  0  0
  1  2  1  0
  1  4  1  0
  2  3  2  3
  3  5  1  0
  6  7  1  0
  6  9  1  0
  7  8  2  3
  8 10  1  0
  8 11  1  0
M  RAD  1   3   2
M  END
>  <reaction>  (28) 
rmg_rxn_15386

>  <mol_properties>  (28) 
{"1": {"label": "*4", "atom_type": "N3d"}, "2": {"label": "*3", "atom_type": "Cd"}, "5": {"label": "*1", "atom_type": "O2s"}, "6": {"label": "*0", "atom_type": "N3d"}, "8": {"label": "*2", "atom_type": "H0"}}

>  <type>  (28) 
unop_24

>  <geom_source>  (28) 
gaussian_log

$$$$
