
     RDKit          3D

 14 14  0  0  0  0  0  0  0  0999 V2000
   -1.1778    0.2241    0.1818 C   0  0  0  0  0  0  0  0  0  0  0  0
   -0.5633   -1.1636    0.0678 C   0  0  0  0  0  0  0  0  0  0  0  0
    0.6943   -1.1996    0.7146 O   0  0  0  0  0  0  0  0  0  0  0  0
    1.5547   -0.2288    0.2011 C   0  0  0  0  0  0  0  0  0  0  0  0
    1.0729    1.0696    0.3698 O   0  0  0  0  0  0  0  0  0  0  0  0
   -0.1607    1.2493   -0.2989 C   0  0  0  0  0  0  0  0  0  0  0  0
   -2.0927    0.2866   -0.4117 H   0  0  0  0  0  0  0  0  0  0  0  0
   -1.4303    0.4248    1.2248 H   0  0  0  0  0  0  0  0  0  0  0  0
   -1.1822   -1.9235    0.5431 H   0  0  0  0  0  0  0  0  0  0  0  0
   -0.4389   -1.4347   -0.9919 H   0  0  0  0  0  0  0  0  0  0  0  0
    1.7250   -0.4207   -0.8742 H   0  0  0  0  0  0  0  0  0  0  0  0
    2.4896   -0.3010    0.7524 H   0  0  0  0  0  0  0  0  0  0  0  0
   -0.0080    1.1481   -1.3844 H   0  0  0  0  0  0  0  0  0  0  0  0
   -0.4826    2.2695   -0.0942 H   0  0  0  0  0  0  0  0  0  0  0  0
  1  2  1  0
  1  6  1  0
  1  7  1  0
  1  8  1  0
  2  3  1  0
  2  9  1  0
  2 10  1  0
  3  4  1  0
  4  5  1  0
  4 11  1  0
  4 12  1  0
  5  6  1  0
  6 13  1  0
  6 14  1  0
M  END
>  <reaction>  (1) 
rmg_rxn_15617

>  <mol_properties>  (1) 
{"1": {"label": "donator", "atom_type": "Cs"}, "8": {"label": "d_hydrogen", "atom_type": "H0"}}

>  <type>  (1) 
r1h

$$$$

     RDKit          3D

  8  7  0  0  0  0  0  0  0  0999 V2000
    1.7077   -0.1964   -0.0607 C   0  0  0  0  0  3  0  0  0  0  0  0
    0.4209   -0.4565    0.2808 O   0  0  0  0  0  0  0  0  0  0  0  0
   -0.4607    0.4385   -0.2968 N   0  0  0  0  0  0  0  0  0  0  0  0
   -1.6584    0.1416   -0.0244 C   0  0  0  0  0  0  0  0  0  0  0  0
    2.4163   -0.7685    0.5170 H   0  0  0  0  0  0  0  0  0  0  0  0
    1.9214    0.7645   -0.5045 H   0  0  0  0  0  0  0  0  0  0  0  0
   -2.4185    0.7953   -0.4307 H   0  0  0  0  0  0  0  0  0  0  0  0
   -1.9286   -0.7185    0.5831 H   0  0  0  0  0  0  0  0  0  0  0  0
  1  2  1  0
  1  5  1  0
  1  6  1  0
  2  3  1  0
  3  4  2  3
  4  7  1  0
  4  8  1  0
M  RAD  1   1   2
M  END
>  <reaction>  (2) 
rmg_rxn_15617

>  <mol_properties>  (2) 
{"0": {"label": "acceptor", "atom_type": "Cs"}}

>  <type>  (2) 
r2

$$$$

     RDKit          3D

  9  8  0  0  0  0  0  0  0  0999 V2000
   -1.5470   -0.0755   -0.1976 C   0  0  0  0  0  0  0  0  0  0  0  0
   -0.2885    0.4507    0.1749 O   0  0  0  0  0  0  0  0  0  0  0  0
   -0.1502    1.7216   -0.3294 N   0  0  0  0  0  0  0  0  0  0  0  0
    0.9626    2.2353   -0.0219 C   0  0  0  0  0  0  0  0  0  0  0  0
   -1.6392   -0.1356   -1.2844 H   0  0  0  0  0  0  0  0  0  0  0  0
   -2.3597    0.5337    0.2044 H   0  0  0  0  0  0  0  0  0  0  0  0
   -1.5879   -1.0750    0.2318 H   0  0  0  0  0  0  0  0  0  0  0  0
    1.1497    3.2381   -0.3820 H   0  0  0  0  0  0  0  0  0  0  0  0
    1.7060    1.7101    0.5739 H   0  0  0  0  0  0  0  0  0  0  0  0
  1  2  1  0
  1  5  1  0
  1  6  1  0
  1  7  1  0
  2  3  1  0
  3  4  2  3
  4  8  1  0
  4  9  1  0
M  END
>  <reaction>  (3) 
rmg_rxn_15617

>  <mol_properties>  (3) 
{"0": {"label": "acceptor", "atom_type": "Cs"}, "8": {"label": "a_hydrogen", "atom_type": "H0"}}

>  <type>  (3) 
r2h

$$$$

     RDKit          3D

 22 21  0  0  0  0  0  0  0  0999 V2000
    1.3961   -1.7041   -0.2332 C   0  0  0  0  0  3  0  0  0  0  0  0
    2.1315   -0.7082    0.4037 O   0  0  0  0  0  0  0  0  0  0  0  0
    2.2289    0.4152   -0.3835 N   0  0  0  0  0  0  0  0  0  0  0  0
    2.8812    1.3364    0.1864 C   0  0  0  0  0  0  0  0  0  0  0  0
    1.5834   -1.7515   -1.3048 H   0  0  0  0  0  0  0  0  0  0  0  0
    1.5708   -2.6383    0.2944 H   0  0  0  0  0  0  0  0  0  0  0  0
    3.0052    2.2552   -0.3707 H   0  0  0  0  0  0  0  0  0  0  0  0
    3.3031    1.2269    1.1828 H   0  0  0  0  0  0  0  0  0  0  0  0
   -1.5421   -0.5385    1.2957 C   0  0  0  0  0  0  0  0  0  0  0  0
   -1.2915   -1.2877    0.0061 C   0  0  0  0  0  0  0  0  0  0  0  0
   -1.7559   -0.6227   -1.1207 O   0  0  0  0  0  0  0  0  0  0  0  0
   -1.3245    0.7149   -1.1730 C   0  0  0  0  0  0  0  0  0  0  0  0
   -1.7132    1.4477   -0.0547 O   0  0  0  0  0  0  0  0  0  0  0  0
   -1.1330    0.9172    1.1242 C   0  0  0  0  0  0  0  0  0  0  0  0
   -2.6066   -0.5859    1.5475 H   0  0  0  0  0  0  0  0  0  0  0  0
   -0.9811   -0.9998    2.1116 H   0  0  0  0  0  0  0  0  0  0  0  0
    0.0339   -1.4626   -0.1102 H   0  0  0  0  0  0  0  0  0  0  0  0
   -1.6805   -2.3048   -0.0100 H   0  0  0  0  0  0  0  0  0  0  0  0
   -1.8032    1.1637   -2.0402 H   0  0  0  0  0  0  0  0  0  0  0  0
   -0.2285    0.7334   -1.2739 H   0  0  0  0  0  0  0  0  0  0  0  0
   -1.4834    1.5342    1.9504 H   0  0  0  0  0  0  0  0  0  0  0  0
   -0.0403    0.9999    1.0653 H   0  0  0  0  0  0  0  0  0  0  0  0
  1  2  1  0
  1  5  1  0
  1  6  1  0
  2  3  1  0
  3  4  2  3
  4  7  1  0
  4  8  1  0
  9 10  1  0
  9 14  1  0
  9 15  1  0
  9 16  1  0
 10 11  1  0
 10 17  1  0
 10 18  1  0
 11 12  1  0
 12 13  1  0
 12 19  1  0
 12 20  1  0
 13 14  1  0
 14 21  1  0
 14 22  1  0
M  RAD  1   1   2
M  END
>  <reaction>  (4) 
rmg_rxn_15617

>  <mol_properties>  (4) 
{"0": {"label": "*3", "atom_type": "Cs"}, "1": {"label": "*4", "atom_type": "O2s"}, "9": {"label": "*1", "atom_type": "Cs"}, "10": {"label": "*0", "atom_type": "O2s"}, "16": {"label": "*2", "atom_type": "H0"}}

>  <type>  (4) 
ts

$$$$

     RDKit          3D

 22 21  0  0  0  0  0  0  0  0999 V2000
    1.3460   -1.7379   -0.1627 C   0  0  0  0  0  0  0  0  0  0  0  0
    2.0622   -0.6961    0.4126 O   0  0  0  0  0  0  0  0  0  0  0  0
    2.1540    0.4030   -0.4191 N   0  0  0  0  0  0  0  0  0  0  0  0
    2.7896    1.3945    0.0408 C   0  0  0  0  0  0  0  0  0  0  0  0
    1.5459   -1.8594   -1.2250 H   0  0  0  0  0  0  0  0  0  0  0  0
    1.5440   -2.6299    0.4213 H   0  0  0  0  0  0  0  0  0  0  0  0
    2.8626    2.2544   -0.6003 H   0  0  0  0  0  0  0  0  0  0  0  0
    3.2533    1.4218    1.0220 H   0  0  0  0  0  0  0  0  0  0  0  0
   -1.5865   -0.5897    1.2848 C   0  0  0  0  0  0  0  0  0  0  0  0
   -1.2715   -1.2919   -0.0248 C   0  0  0  0  0  3  0  0  0  0  0  0
   -1.6266   -0.5581   -1.1572 O   0  0  0  0  0  0  0  0  0  0  0  0
   -1.1778    0.7699   -1.1191 C   0  0  0  0  0  0  0  0  0  0  0  0
   -1.6005    1.4660    0.0106 O   0  0  0  0  0  0  0  0  0  0  0  0
   -1.1077    0.8607    1.1928 C   0  0  0  0  0  0  0  0  0  0  0  0
   -2.6692   -0.5933    1.4492 H   0  0  0  0  0  0  0  0  0  0  0  0
   -1.1027   -1.1015    2.1164 H   0  0  0  0  0  0  0  0  0  0  0  0
    0.0422   -1.5100   -0.0744 H   0  0  0  0  0  0  0  0  0  0  0  0
   -1.7260   -2.2771   -0.1203 H   0  0  0  0  0  0  0  0  0  0  0  0
   -1.6145    1.2701   -1.9862 H   0  0  0  0  0  0  0  0  0  0  0  0
   -0.0697    0.7857   -1.1832 H   0  0  0  0  0  0  0  0  0  0  0  0
   -1.4875    1.4620    2.0201 H   0  0  0  0  0  0  0  0  0  0  0  0
   -0.0094    0.8974    1.1950 H   0  0  0  0  0  0  0  0  0  0  0  0
  1  2  1  0
  1  5  1  0
  1  6  1  0
  1 17  1  0
  2  3  1  0
  3  4  2  3
  4  7  1  0
  4  8  1  0
  9 10  1  0
  9 14  1  0
  9 15  1  0
  9 16  1  0
 10 11  1  0
 10 18  1  0
 11 12  1  0
 12 13  1  0
 12 19  1  0
 12 20  1  0
 13 14  1  0
 14 21  1  0
 14 22  1  0
M  RAD  1  10   2
M  END
>  <reaction>  (5) 
rmg_rxn_15617

>  <mol_properties>  (5) 
{"0": {"label": "*3", "atom_type": "Cs"}, "1": {"label": "*4", "atom_type": "O2s"}, "9": {"label": "*1", "atom_type": "Cs"}, "10": {"label": "*0", "atom_type": "O2s"}, "16": {"label": "*2", "atom_type": "H0"}}

>  <type>  (5) 
unop_1

>  <geom_source>  (5) 
crest_best.xyz

$$$$

     RDKit          3D

 22 21  0  0  0  0  0  0  0  0999 V2000
   -0.2890   -1.8582    0.5022 C   0  0  0  0  0  0  0  0  0  0  0  0
    0.8591   -2.1434    1.2767 O   0  0  0  0  0  0  0  0  0  0  0  0
    0.4955   -2.8381    2.4054 N   0  0  0  0  0  0  0  0  0  0  0  0
    1.4911   -3.1169    3.1320 C   0  0  0  0  0  0  0  0  0  0  0  0
   -0.7836   -2.7784    0.1831 H   0  0  0  0  0  0  0  0  0  0  0  0
   -0.9944   -1.2400    1.0621 H   0  0  0  0  0  0  0  0  0  0  0  0
    1.2886   -3.6649    4.0424 H   0  0  0  0  0  0  0  0  0  0  0  0
    2.5068   -2.8282    2.8703 H   0  0  0  0  0  0  0  0  0  0  0  0
    0.0923    0.5353   -1.9972 C   0  0  0  0  0  0  0  0  0  0  0  0
    0.0923    0.5353   -0.4752 C   0  0  0  0  0  3  0  0  0  0  0  0
   -0.9559    1.3479    0.0169 O   0  0  0  0  0  0  0  0  0  0  0  0
   -0.8650    2.6475   -0.4824 C   0  0  0  0  0  0  0  0  0  0  0  0
   -0.9559    2.7037   -1.8735 O   0  0  0  0  0  0  0  0  0  0  0  0
    0.0923    1.9770   -2.4853 C   0  0  0  0  0  0  0  0  0  0  0  0
    0.9663    0.0029   -2.3791 H   0  0  0  0  0  0  0  0  0  0  0  0
   -0.8042    0.0292   -2.3602 H   0  0  0  0  0  0  0  0  0  0  0  0
   -0.0984   -0.6617    0.0136 H   0  0  0  0  0  0  0  0  0  0  0  0
    1.0560    0.9113   -0.0985 H   0  0  0  0  0  0  0  0  0  0  0  0
    0.0903    3.0996   -0.1582 H   0  0  0  0  0  0  0  0  0  0  0  0
   -1.7061    3.2080   -0.0804 H   0  0  0  0  0  0  0  0  0  0  0  0
    1.0560    2.4544   -2.2500 H   0  0  0  0  0  0  0  0  0  0  0  0
   -0.0666    2.0429   -3.5608 H   0  0  0  0  0  0  0  0  0  0  0  0
  1  2  1  0
  1  5  1  0
  1  6  1  0
  1 17  1  0
  2  3  1  0
  3  4  2  3
  4  7  1  0
  4  8  1  0
  9 10  1  0
  9 14  1  0
  9 15  1  0
  9 16  1  0
 10 11  1  0
 10 18  1  0
 11 12  1  0
 12 13  1  0
 12 19  1  0
 12 20  1  0
 13 14  1  0
 14 21  1  0
 14 22  1  0
M  RAD  1  10   2
M  END
>  <reaction>  (6) 
rmg_rxn_15617

>  <mol_properties>  (6) 
{"0": {"label": "*3", "atom_type": "Cs"}, "1": {"label": "*4", "atom_type": "O2s"}, "9": {"label": "*1", "atom_type": "Cs"}, "10": {"label": "*0", "atom_type": "O2s"}, "16": {"label": "*2", "atom_type": "H0"}}

>  <type>  (6) 
unop_2

>  <geom_source>  (6) 
Heuristics

$$$$

     RDKit          3D

 22 21  0  0  0  0  0  0  0  0999 V2000
   -1.6967    1.7371    0.1731 C   0  0  0  0  0  0  0  0  0  0  0  0
   -2.4565    0.6434   -0.2711 O   0  0  0  0  0  0  0  0  0  0  0  0
   -2.0087   -0.5406    0.2793 N   0  0  0  0  0  0  0  0  0  0  0  0
   -2.6458   -1.5799   -0.0384 C   0  0  0  0  0  0  0  0  0  0  0  0
   -1.6246    1.8232    1.2399 H   0  0  0  0  0  0  0  0  0  0  0  0
   -2.0954    2.6207   -0.3068 H   0  0  0  0  0  0  0  0  0  0  0  0
   -2.2972   -2.5059    0.3843 H   0  0  0  0  0  0  0  0  0  0  0  0
   -3.5046   -1.5916   -0.7022 H   0  0  0  0  0  0  0  0  0  0  0  0
    1.6933    0.6346    1.2662 C   0  0  0  0  0  0  0  0  0  0  0  0
    1.4078    1.3375   -0.0242 C   0  0  0  0  0  3  0  0  0  0  0  0
    1.5965    0.6500   -1.2012 O   0  0  0  0  0  0  0  0  0  0  0  0
    1.2426   -0.7074   -1.1545 C   0  0  0  0  0  0  0  0  0  0  0  0
    1.7395   -1.3865   -0.0536 O   0  0  0  0  0  0  0  0  0  0  0  0
    1.2418   -0.8234    1.1525 C   0  0  0  0  0  0  0  0  0  0  0  0
    2.7736    0.6545    1.4739 H   0  0  0  0  0  0  0  0  0  0  0  0
    1.1855    1.1342    2.0925 H   0  0  0  0  0  0  0  0  0  0  0  0
   -0.5977    1.6253    0.0303 H   0  0  0  0  0  0  0  0  0  0  0  0
    1.6989    2.3709   -0.1391 H   0  0  0  0  0  0  0  0  0  0  0  0
    1.6732   -1.1696   -2.0466 H   0  0  0  0  0  0  0  0  0  0  0  0
    0.1362   -0.7861   -1.1829 H   0  0  0  0  0  0  0  0  0  0  0  0
    1.6486   -1.4355    1.9583 H   0  0  0  0  0  0  0  0  0  0  0  0
    0.1438   -0.8824    1.1562 H   0  0  0  0  0  0  0  0  0  0  0  0
  1  2  1  0
  1  5  1  0
  1  6  1  0
  1 17  1  0
  2  3  1  0
  3  4  2  3
  4  7  1  0
  4  8  1  0
  9 10  1  0
  9 14  1  0
  9 15  1  0
  9 16  1  0
 10 11  1  0
 10 18  1  0
 11 12  1  0
 12 13  1  0
 12 19  1  0
 12 20  1  0
 13 14  1  0
 14 21  1  0
 14 22  1  0
M  RAD  1  10   2
M  END
>  <reaction>  (7) 
rmg_rxn_15617

>  <mol_properties>  (7) 
{"0": {"label": "*3", "atom_type": "Cs"}, "1": {"label": "*4", "atom_type": "O2s"}, "9": {"label": "*1", "atom_type": "Cs"}, "10": {"label": "*0", "atom_type": "O2s"}, "16": {"label": "*2", "atom_type": "H0"}}

>  <type>  (7) 
unop_3

>  <geom_source>  (7) 
Heuristics

$$$$

     RDKit          3D

 22 21  0  0  0  0  0  0  0  0999 V2000
   -0.1755   -1.5177    1.2753 C   0  0  0  0  0  0  0  0  0  0  0  0
    0.3712   -2.4112    0.3254 O   0  0  0  0  0  0  0  0  0  0  0  0
    0.5943   -3.6330    0.9138 N   0  0  0  0  0  0  0  0  0  0  0  0
    1.0843   -4.4680    0.1017 C   0  0  0  0  0  0  0  0  0  0  0  0
   -1.1320   -1.8861    1.6530 H   0  0  0  0  0  0  0  0  0  0  0  0
    0.5124   -1.3657    2.1100 H   0  0  0  0  0  0  0  0  0  0  0  0
    1.2898   -5.4572    0.4884 H   0  0  0  0  0  0  0  0  0  0  0  0
    1.2949   -4.2215   -0.9367 H   0  0  0  0  0  0  0  0  0  0  0  0
    0.2058    0.8758   -1.2242 C   0  0  0  0  0  0  0  0  0  0  0  0
    0.2058    0.8758    0.2979 C   0  0  0  0  0  3  0  0  0  0  0  0
   -0.8424    1.6884    0.7900 O   0  0  0  0  0  0  0  0  0  0  0  0
   -0.7515    2.9880    0.2907 C   0  0  0  0  0  0  0  0  0  0  0  0
   -0.8424    3.0442   -1.1004 O   0  0  0  0  0  0  0  0  0  0  0  0
    0.2058    2.3175   -1.7123 C   0  0  0  0  0  0  0  0  0  0  0  0
    1.0798    0.3434   -1.6060 H   0  0  0  0  0  0  0  0  0  0  0  0
   -0.6907    0.3697   -1.5872 H   0  0  0  0  0  0  0  0  0  0  0  0
    0.0151   -0.3212    0.7867 H   0  0  0  0  0  0  0  0  0  0  0  0
    1.1695    1.2518    0.6746 H   0  0  0  0  0  0  0  0  0  0  0  0
    0.2038    3.4400    0.6149 H   0  0  0  0  0  0  0  0  0  0  0  0
   -1.5926    3.5485    0.6926 H   0  0  0  0  0  0  0  0  0  0  0  0
    1.1695    2.7949   -1.4770 H   0  0  0  0  0  0  0  0  0  0  0  0
    0.0469    2.3834   -2.7877 H   0  0  0  0  0  0  0  0  0  0  0  0
  1  2  1  0
  1  5  1  0
  1  6  1  0
  1 17  1  0
  2  3  1  0
  3  4  2  3
  4  7  1  0
  4  8  1  0
  9 10  1  0
  9 14  1  0
  9 15  1  0
  9 16  1  0
 10 11  1  0
 10 18  1  0
 11 12  1  0
 12 13  1  0
 12 19  1  0
 12 20  1  0
 13 14  1  0
 14 21  1  0
 14 22  1  0
M  RAD  1  10   2
M  END
>  <reaction>  (8) 
rmg_rxn_15617

>  <mol_properties>  (8) 
{"0": {"label": "*3", "atom_type": "Cs"}, "1": {"label": "*4", "atom_type": "O2s"}, "9": {"label": "*1", "atom_type": "Cs"}, "10": {"label": "*0", "atom_type": "O2s"}, "16": {"label": "*2", "atom_type": "H0"}}

>  <type>  (8) 
unop_4

>  <geom_source>  (8) 
Heuristics

$$$$

     RDKit          3D

 22 21  0  0  0  0  0  0  0  0999 V2000
   -0.0673   -1.9127    0.3836 C   0  0  0  0  0  0  0  0  0  0  0  0
    0.6182   -1.9355    1.6202 O   0  0  0  0  0  0  0  0  0  0  0  0
    0.0385   -2.8614    2.4541 N   0  0  0  0  0  0  0  0  0  0  0  0
    0.6183   -2.9185    3.5753 C   0  0  0  0  0  0  0  0  0  0  0  0
   -0.0151   -2.8857   -0.1101 H   0  0  0  0  0  0  0  0  0  0  0  0
   -1.1130   -1.6291    0.5218 H   0  0  0  0  0  0  0  0  0  0  0  0
    0.2210   -3.6256    4.2912 H   0  0  0  0  0  0  0  0  0  0  0  0
    1.4747   -2.2957    3.8247 H   0  0  0  0  0  0  0  0  0  0  0  0
    0.3141    0.4808   -2.1158 C   0  0  0  0  0  0  0  0  0  0  0  0
    0.3141    0.4808   -0.5938 C   0  0  0  0  0  3  0  0  0  0  0  0
   -0.7342    1.2934   -0.1017 O   0  0  0  0  0  0  0  0  0  0  0  0
   -0.6433    2.5930   -0.6010 C   0  0  0  0  0  0  0  0  0  0  0  0
   -0.7342    2.6492   -1.9921 O   0  0  0  0  0  0  0  0  0  0  0  0
    0.3141    1.9225   -2.6039 C   0  0  0  0  0  0  0  0  0  0  0  0
    1.1881   -0.0517   -2.4977 H   0  0  0  0  0  0  0  0  0  0  0  0
   -0.5825   -0.0254   -2.4788 H   0  0  0  0  0  0  0  0  0  0  0  0
    0.1234   -0.7162   -0.1050 H   0  0  0  0  0  0  0  0  0  0  0  0
    1.2777    0.8568   -0.2171 H   0  0  0  0  0  0  0  0  0  0  0  0
    0.3121    3.0450   -0.2768 H   0  0  0  0  0  0  0  0  0  0  0  0
   -1.4843    3.1535   -0.1990 H   0  0  0  0  0  0  0  0  0  0  0  0
    1.2777    2.3998   -2.3686 H   0  0  0  0  0  0  0  0  0  0  0  0
    0.1552    1.9884   -3.6794 H   0  0  0  0  0  0  0  0  0  0  0  0
  1  2  1  0
  1  5  1  0
  1  6  1  0
  1 17  1  0
  2  3  1  0
  3  4  2  3
  4  7  1  0
  4  8  1  0
  9 10  1  0
  9 14  1  0
  9 15  1  0
  9 16  1  0
 10 11  1  0
 10 18  1  0
 11 12  1  0
 12 13  1  0
 12 19  1  0
 12 20  1  0
 13 14  1  0
 14 21  1  0
 14 22  1  0
M  RAD  1  10   2
M  END
>  <reaction>  (9) 
rmg_rxn_15617

>  <mol_properties>  (9) 
{"0": {"label": "*3", "atom_type": "Cs"}, "1": {"label": "*4", "atom_type": "O2s"}, "9": {"label": "*1", "atom_type": "Cs"}, "10": {"label": "*0", "atom_type": "O2s"}, "16": {"label": "*2", "atom_type": "H0"}}

>  <type>  (9) 
unop_5

>  <geom_source>  (9) 
Heuristics

$$$$

     RDKit          3D

 22 21  0  0  0  0  0  0  0  0999 V2000
    0.6875   -1.7825    1.0299 C   0  0  0  0  0  0  0  0  0  0  0  0
   -0.5726   -2.1994    0.5422 O   0  0  0  0  0  0  0  0  0  0  0  0
   -1.1786   -3.0181    1.4648 N   0  0  0  0  0  0  0  0  0  0  0  0
   -2.3114   -3.4177    1.0726 C   0  0  0  0  0  0  0  0  0  0  0  0
    0.5794   -1.2169    1.9582 H   0  0  0  0  0  0  0  0  0  0  0  0
    1.3440   -2.6390    1.1987 H   0  0  0  0  0  0  0  0  0  0  0  0
   -2.8551   -4.0686    1.7441 H   0  0  0  0  0  0  0  0  0  0  0  0
   -2.7335   -3.1314    0.1117 H   0  0  0  0  0  0  0  0  0  0  0  0
    1.0688    0.6110   -1.4695 C   0  0  0  0  0  0  0  0  0  0  0  0
    1.0688    0.6110    0.0526 C   0  0  0  0  0  3  0  0  0  0  0  0
    0.0206    1.4236    0.5447 O   0  0  0  0  0  0  0  0  0  0  0  0
    0.1115    2.7232    0.0453 C   0  0  0  0  0  0  0  0  0  0  0  0
    0.0206    2.7794   -1.3457 O   0  0  0  0  0  0  0  0  0  0  0  0
    1.0688    2.0527   -1.9576 C   0  0  0  0  0  0  0  0  0  0  0  0
    1.9428    0.0786   -1.8514 H   0  0  0  0  0  0  0  0  0  0  0  0
    0.1723    0.1049   -1.8325 H   0  0  0  0  0  0  0  0  0  0  0  0
    0.8781   -0.5860    0.5414 H   0  0  0  0  0  0  0  0  0  0  0  0
    2.0325    0.9870    0.4293 H   0  0  0  0  0  0  0  0  0  0  0  0
    1.0668    3.1753    0.3696 H   0  0  0  0  0  0  0  0  0  0  0  0
   -0.7296    3.2837    0.4473 H   0  0  0  0  0  0  0  0  0  0  0  0
    2.0325    2.5301   -1.7223 H   0  0  0  0  0  0  0  0  0  0  0  0
    0.9099    2.1186   -3.0330 H   0  0  0  0  0  0  0  0  0  0  0  0
  1  2  1  0
  1  5  1  0
  1  6  1  0
  1 17  1  0
  2  3  1  0
  3  4  2  3
  4  7  1  0
  4  8  1  0
  9 10  1  0
  9 14  1  0
  9 15  1  0
  9 16  1  0
 10 11  1  0
 10 18  1  0
 11 12  1  0
 12 13  1  0
 12 19  1  0
 12 20  1  0
 13 14  1  0
 14 21  1  0
 14 22  1  0
M  RAD  1  10   2
M  END
>  <reaction>  (10) 
rmg_rxn_15617

>  <mol_properties>  (10) 
{"0": {"label": "*3", "atom_type": "Cs"}, "1": {"label": "*4", "atom_type": "O2s"}, "9": {"label": "*1", "atom_type": "Cs"}, "10": {"label": "*0", "atom_type": "O2s"}, "16": {"label": "*2", "atom_type": "H0"}}

>  <type>  (10) 
unop_6

>  <geom_source>  (10) 
Heuristics

$$$$

     RDKit          3D

 22 21  0  0  0  0  0  0  0  0999 V2000
    1.6995    1.7355    0.1744 C   0  0  0  0  0  0  0  0  0  0  0  0
    2.4588    0.6410   -0.2688 O   0  0  0  0  0  0  0  0  0  0  0  0
    2.0084   -0.5428    0.2804 N   0  0  0  0  0  0  0  0  0  0  0  0
    2.6460   -1.5822   -0.0357 C   0  0  0  0  0  0  0  0  0  0  0  0
    1.6300    1.8220    1.2420 H   0  0  0  0  0  0  0  0  0  0  0  0
    2.1010    2.6183   -0.3048 H   0  0  0  0  0  0  0  0  0  0  0  0
    2.2960   -2.5083    0.3858 H   0  0  0  0  0  0  0  0  0  0  0  0
    3.5066   -1.5940   -0.6973 H   0  0  0  0  0  0  0  0  0  0  0  0
   -1.6972    0.6507    1.2564 C   0  0  0  0  0  0  0  0  0  0  0  0
   -1.4026    1.3386   -0.0401 C   0  0  0  0  0  3  0  0  0  0  0  0
   -1.5876    0.6392   -1.2106 O   0  0  0  0  0  0  0  0  0  0  0  0
   -1.2401   -0.7191   -1.1475 C   0  0  0  0  0  0  0  0  0  0  0  0
   -1.7468   -1.3841   -0.0423 O   0  0  0  0  0  0  0  0  0  0  0  0
   -1.2527   -0.8107    1.1604 C   0  0  0  0  0  0  0  0  0  0  0  0
   -1.1905    1.1565    2.0796 H   0  0  0  0  0  0  0  0  0  0  0  0
   -2.7783    0.6784    1.4591 H   0  0  0  0  0  0  0  0  0  0  0  0
    0.6003    1.6250    0.0241 H   0  0  0  0  0  0  0  0  0  0  0  0
   -1.6900    2.3716   -0.1675 H   0  0  0  0  0  0  0  0  0  0  0  0
   -0.1340   -0.8032   -1.1681 H   0  0  0  0  0  0  0  0  0  0  0  0
   -1.6676   -1.1889   -2.0371 H   0  0  0  0  0  0  0  0  0  0  0  0
   -0.1551   -0.8754    1.1705 H   0  0  0  0  0  0  0  0  0  0  0  0
   -1.6669   -1.4122    1.9704 H   0  0  0  0  0  0  0  0  0  0  0  0
  1  2  1  0
  1  5  1  0
  1  6  1  0
  1 17  1  0
  2  3  1  0
  3  4  2  3
  4  7  1  0
  4  8  1  0
  9 10  1  0
  9 14  1  0
  9 15  1  0
  9 16  1  0
 10 11  1  0
 10 18  1  0
 11 12  1  0
 12 13  1  0
 12 19  1  0
 12 20  1  0
 13 14  1  0
 14 21  1  0
 14 22  1  0
M  RAD  1  10   2
M  END
>  <reaction>  (11) 
rmg_rxn_15617

>  <mol_properties>  (11) 
{"0": {"label": "*3", "atom_type": "Cs"}, "1": {"label": "*4", "atom_type": "O2s"}, "9": {"label": "*1", "atom_type": "Cs"}, "10": {"label": "*0", "atom_type": "O2s"}, "16": {"label": "*2", "atom_type": "H0"}}

>  <type>  (11) 
unop_7

>  <geom_source>  (11) 
Heuristics

$$$$

     RDKit          3D

 22 21  0  0  0  0  0  0  0  0999 V2000
    0.1099   -1.9205    0.3654 C   0  0  0  0  0  0  0  0  0  0  0  0
    0.1340   -1.7689    1.7711 O   0  0  0  0  0  0  0  0  0  0  0  0
   -0.0604   -2.9895    2.3719 N   0  0  0  0  0  0  0  0  0  0  0  0
   -0.0470   -2.9050    3.6326 C   0  0  0  0  0  0  0  0  0  0  0  0
    0.9069   -2.5883    0.0307 H   0  0  0  0  0  0  0  0  0  0  0  0
   -0.8552   -2.3075    0.0307 H   0  0  0  0  0  0  0  0  0  0  0  0
   -0.1936   -3.8254    4.1819 H   0  0  0  0  0  0  0  0  0  0  0  0
    0.1031   -1.9628    4.1554 H   0  0  0  0  0  0  0  0  0  0  0  0
    0.4913    0.4730   -2.1340 C   0  0  0  0  0  0  0  0  0  0  0  0
    0.4913    0.4730   -0.6120 C   0  0  0  0  0  3  0  0  0  0  0  0
   -0.5570    1.2856   -0.1199 O   0  0  0  0  0  0  0  0  0  0  0  0
   -0.4661    2.5851   -0.6192 C   0  0  0  0  0  0  0  0  0  0  0  0
   -0.5570    2.6413   -2.0103 O   0  0  0  0  0  0  0  0  0  0  0  0
    0.4913    1.9146   -2.6221 C   0  0  0  0  0  0  0  0  0  0  0  0
    1.3653   -0.0595   -2.5159 H   0  0  0  0  0  0  0  0  0  0  0  0
   -0.4053   -0.0332   -2.4971 H   0  0  0  0  0  0  0  0  0  0  0  0
    0.3005   -0.7240   -0.1232 H   0  0  0  0  0  0  0  0  0  0  0  0
    1.4549    0.8489   -0.2353 H   0  0  0  0  0  0  0  0  0  0  0  0
    0.4892    3.0372   -0.2950 H   0  0  0  0  0  0  0  0  0  0  0  0
   -1.3072    3.1457   -0.2172 H   0  0  0  0  0  0  0  0  0  0  0  0
    1.4549    2.3920   -2.3869 H   0  0  0  0  0  0  0  0  0  0  0  0
    0.3323    1.9805   -3.6976 H   0  0  0  0  0  0  0  0  0  0  0  0
  1  2  1  0
  1  5  1  0
  1  6  1  0
  1 17  1  0
  2  3  1  0
  3  4  2  3
  4  7  1  0
  4  8  1  0
  9 10  1  0
  9 14  1  0
  9 15  1  0
  9 16  1  0
 10 11  1  0
 10 18  1  0
 11 12  1  0
 12 13  1  0
 12 19  1  0
 12 20  1  0
 13 14  1  0
 14 21  1  0
 14 22  1  0
M  RAD  1  10   2
M  END
>  <reaction>  (12) 
rmg_rxn_15617

>  <mol_properties>  (12) 
{"0": {"label": "*3", "atom_type": "Cs"}, "1": {"label": "*4", "atom_type": "O2s"}, "9": {"label": "*1", "atom_type": "Cs"}, "10": {"label": "*0", "atom_type": "O2s"}, "16": {"label": "*2", "atom_type": "H0"}}

>  <type>  (12) 
unop_8

>  <geom_source>  (12) 
Heuristics

$$$$

     RDKit          3D

 22 21  0  0  0  0  0  0  0  0999 V2000
    1.6620    1.7438    0.2125 C   0  0  0  0  0  0  0  0  0  0  0  0
    2.3941    0.6668   -0.3082 O   0  0  0  0  0  0  0  0  0  0  0  0
    2.0497   -0.5191    0.3173 N   0  0  0  0  0  0  0  0  0  0  0  0
    2.6909   -1.5420   -0.0394 C   0  0  0  0  0  0  0  0  0  0  0  0
    1.9316    1.9897    1.2366 H   0  0  0  0  0  0  0  0  0  0  0  0
    1.7402    2.5718   -0.4598 H   0  0  0  0  0  0  0  0  0  0  0  0
    2.4233   -2.4685    0.4380 H   0  0  0  0  0  0  0  0  0  0  0  0
    3.4770   -1.5412   -0.7884 H   0  0  0  0  0  0  0  0  0  0  0  0
   -1.7314    0.6176    1.2569 C   0  0  0  0  0  0  0  0  0  0  0  0
   -1.4463    1.3224   -0.0319 C   0  0  0  0  0  3  0  0  0  0  0  0
   -1.5915    0.6254   -1.2097 O   0  0  0  0  0  0  0  0  0  0  0  0
   -1.2050   -0.7228   -1.1509 C   0  0  0  0  0  0  0  0  0  0  0  0
   -1.6994   -1.4091   -0.0539 O   0  0  0  0  0  0  0  0  0  0  0  0
   -1.2354   -0.8267    1.1566 C   0  0  0  0  0  0  0  0  0  0  0  0
   -1.2491    1.1356    2.0869 H   0  0  0  0  0  0  0  0  0  0  0  0
   -2.8148    0.6064    1.4486 H   0  0  0  0  0  0  0  0  0  0  0  0
    0.5609    1.6422    0.0848 H   0  0  0  0  0  0  0  0  0  0  0  0
   -1.7624    2.3471   -0.1575 H   0  0  0  0  0  0  0  0  0  0  0  0
   -0.0971   -0.7747   -1.1651 H   0  0  0  0  0  0  0  0  0  0  0  0
   -1.6117   -1.1994   -2.0467 H   0  0  0  0  0  0  0  0  0  0  0  0
   -0.1363   -0.8528    1.1770 H   0  0  0  0  0  0  0  0  0  0  0  0
   -1.6355   -1.4475    1.9589 H   0  0  0  0  0  0  0  0  0  0  0  0
  1  2  1  0
  1  5  1  0
  1  6  1  0
  1 17  1  0
  2  3  1  0
  3  4  2  3
  4  7  1  0
  4  8  1  0
  9 10  1  0
  9 14  1  0
  9 15  1  0
  9 16  1  0
 10 11  1  0
 10 18  1  0
 11 12  1  0
 12 13  1  0
 12 19  1  0
 12 20  1  0
 13 14  1  0
 14 21  1  0
 14 22  1  0
M  RAD  1  10   2
M  END
>  <reaction>  (13) 
rmg_rxn_15617

>  <mol_properties>  (13) 
{"0": {"label": "*3", "atom_type": "Cs"}, "1": {"label": "*4", "atom_type": "O2s"}, "9": {"label": "*1", "atom_type": "Cs"}, "10": {"label": "*0", "atom_type": "O2s"}, "16": {"label": "*2", "atom_type": "H0"}}

>  <type>  (13) 
unop_9

>  <geom_source>  (13) 
Heuristics

$$$$

     RDKit          3D

 22 21  0  0  0  0  0  0  0  0999 V2000
    0.6762   -1.9176    0.7393 C   0  0  0  0  0  0  0  0  0  0  0  0
   -0.7239   -2.0545    0.8827 O   0  0  0  0  0  0  0  0  0  0  0  0
   -1.0062   -2.7379    2.0412 N   0  0  0  0  0  0  0  0  0  0  0  0
   -2.2492   -2.8857    2.2136 C   0  0  0  0  0  0  0  0  0  0  0  0
    1.1008   -1.3527    1.5722 H   0  0  0  0  0  0  0  0  0  0  0  0
    1.1600   -2.8949    0.6769 H   0  0  0  0  0  0  0  0  0  0  0  0
   -2.5553   -3.4154    3.1058 H   0  0  0  0  0  0  0  0  0  0  0  0
   -2.9877   -2.5060    1.5108 H   0  0  0  0  0  0  0  0  0  0  0  0
    1.0576    0.4759   -1.7601 C   0  0  0  0  0  0  0  0  0  0  0  0
    1.0576    0.4759   -0.2381 C   0  0  0  0  0  3  0  0  0  0  0  0
    0.0093    1.2885    0.2540 O   0  0  0  0  0  0  0  0  0  0  0  0
    0.1002    2.5881   -0.2453 C   0  0  0  0  0  0  0  0  0  0  0  0
    0.0093    2.6443   -1.6363 O   0  0  0  0  0  0  0  0  0  0  0  0
    1.0576    1.9176   -2.2482 C   0  0  0  0  0  0  0  0  0  0  0  0
    1.9316   -0.0565   -2.1420 H   0  0  0  0  0  0  0  0  0  0  0  0
    0.1610   -0.0302   -2.1231 H   0  0  0  0  0  0  0  0  0  0  0  0
    0.8668   -0.7211    0.2507 H   0  0  0  0  0  0  0  0  0  0  0  0
    2.0212    0.8519    0.1387 H   0  0  0  0  0  0  0  0  0  0  0  0
    1.0555    3.0401    0.0789 H   0  0  0  0  0  0  0  0  0  0  0  0
   -0.7409    3.1486    0.1567 H   0  0  0  0  0  0  0  0  0  0  0  0
    2.0212    2.3950   -2.0129 H   0  0  0  0  0  0  0  0  0  0  0  0
    0.8986    1.9835   -3.3237 H   0  0  0  0  0  0  0  0  0  0  0  0
  1  2  1  0
  1  5  1  0
  1  6  1  0
  1 17  1  0
  2  3  1  0
  3  4  2  3
  4  7  1  0
  4  8  1  0
  9 10  1  0
  9 14  1  0
  9 15  1  0
  9 16  1  0
 10 11  1  0
 10 18  1  0
 11 12  1  0
 12 13  1  0
 12 19  1  0
 12 20  1  0
 13 14  1  0
 14 21  1  0
 14 22  1  0
M  RAD  1  10   2
M  END
>  <reaction>  (14) 
rmg_rxn_15617

>  <mol_properties>  (14) 
{"0": {"label": "*3", "atom_type": "Cs"}, "1": {"label": "*4", "atom_type": "O2s"}, "9": {"label": "*1", "atom_type": "Cs"}, "10": {"label": "*0", "atom_type": "O2s"}, "16": {"label": "*2", "atom_type": "H0"}}

>  <type>  (14) 
unop_10

>  <geom_source>  (14) 
Heuristics

$$$$

     RDKit          3D

 22 21  0  0  0  0  0  0  0  0999 V2000
    0.5084   -1.9852    0.5022 C   0  0  0  0  0  0  0  0  0  0  0  0
   -0.6715   -1.8995    1.2767 O   0  0  0  0  0  0  0  0  0  0  0  0
   -0.5418   -2.6728    2.4054 N   0  0  0  0  0  0  0  0  0  0  0  0
   -1.5747   -2.6283    3.1320 C   0  0  0  0  0  0  0  0  0  0  0  0
    1.3710   -1.6169    1.0621 H   0  0  0  0  0  0  0  0  0  0  0  0
    0.6925   -3.0136    0.1831 H   0  0  0  0  0  0  0  0  0  0  0  0
   -1.5525   -3.2121    4.0425 H   0  0  0  0  0  0  0  0  0  0  0  0
   -2.4505   -2.0383    2.8703 H   0  0  0  0  0  0  0  0  0  0  0  0
    0.8898    0.4083   -1.9972 C   0  0  0  0  0  0  0  0  0  0  0  0
    0.8898    0.4083   -0.4752 C   0  0  0  0  0  3  0  0  0  0  0  0
   -0.1585    1.2209    0.0169 O   0  0  0  0  0  0  0  0  0  0  0  0
   -0.0676    2.5204   -0.4824 C   0  0  0  0  0  0  0  0  0  0  0  0
   -0.1585    2.5766   -1.8735 O   0  0  0  0  0  0  0  0  0  0  0  0
    0.8898    1.8499   -2.4853 C   0  0  0  0  0  0  0  0  0  0  0  0
    1.7638   -0.1242   -2.3791 H   0  0  0  0  0  0  0  0  0  0  0  0
   -0.0068   -0.0979   -2.3602 H   0  0  0  0  0  0  0  0  0  0  0  0
    0.6991   -0.7888    0.0136 H   0  0  0  0  0  0  0  0  0  0  0  0
    1.8534    0.7842   -0.0985 H   0  0  0  0  0  0  0  0  0  0  0  0
    0.8878    2.9725   -0.1582 H   0  0  0  0  0  0  0  0  0  0  0  0
   -0.9086    3.0809   -0.0804 H   0  0  0  0  0  0  0  0  0  0  0  0
    1.8534    2.3273   -2.2500 H   0  0  0  0  0  0  0  0  0  0  0  0
    0.7309    1.9158   -3.5608 H   0  0  0  0  0  0  0  0  0  0  0  0
  1  2  1  0
  1  5  1  0
  1  6  1  0
  1 17  1  0
  2  3  1  0
  3  4  2  3
  4  7  1  0
  4  8  1  0
  9 10  1  0
  9 14  1  0
  9 15  1  0
  9 16  1  0
 10 11  1  0
 10 18  1  0
 11 12  1  0
 12 13  1  0
 12 19  1  0
 12 20  1  0
 13 14  1  0
 14 21  1  0
 14 22  1  0
M  RAD  1  10   2
M  END
>  <reaction>  (15) 
rmg_rxn_15617

>  <mol_properties>  (15) 
{"0": {"label": "*3", "atom_type": "Cs"}, "1": {"label": "*4", "atom_type": "O2s"}, "9": {"label": "*1", "atom_type": "Cs"}, "10": {"label": "*0", "atom_type": "O2s"}, "16": {"label": "*2", "atom_type": "H0"}}

>  <type>  (15) 
unop_11

>  <geom_source>  (15) 
Heuristics

$$$$

     RDKit          3D

 22 21  0  0  0  0  0  0  0  0999 V2000
   -0.4275   -1.7417    0.7393 C   0  0  0  0  0  0  0  0  0  0  0  0
    0.8607   -2.3070    0.8827 O   0  0  0  0  0  0  0  0  0  0  0  0
    0.9166   -3.0443    2.0412 N   0  0  0  0  0  0  0  0  0  0  0  0
    2.0522   -3.5711    2.2136 C   0  0  0  0  0  0  0  0  0  0  0  0
   -1.1911   -2.5203    0.6769 H   0  0  0  0  0  0  0  0  0  0  0  0
   -0.6555   -1.0728    1.5722 H   0  0  0  0  0  0  0  0  0  0  0  0
    2.1785   -4.1697    3.1058 H   0  0  0  0  0  0  0  0  0  0  0  0
    2.8721   -3.4397    1.5108 H   0  0  0  0  0  0  0  0  0  0  0  0
   -0.0461    0.6518   -1.7601 C   0  0  0  0  0  0  0  0  0  0  0  0
   -0.0461    0.6518   -0.2381 C   0  0  0  0  0  3  0  0  0  0  0  0
   -1.0944    1.4644    0.2540 O   0  0  0  0  0  0  0  0  0  0  0  0
   -1.0035    2.7639   -0.2453 C   0  0  0  0  0  0  0  0  0  0  0  0
   -1.0944    2.8201   -1.6363 O   0  0  0  0  0  0  0  0  0  0  0  0
   -0.0461    2.0934   -2.2482 C   0  0  0  0  0  0  0  0  0  0  0  0
    0.8279    0.1193   -2.1420 H   0  0  0  0  0  0  0  0  0  0  0  0
   -0.9427    0.1456   -2.1231 H   0  0  0  0  0  0  0  0  0  0  0  0
   -0.2368   -0.5452    0.2507 H   0  0  0  0  0  0  0  0  0  0  0  0
    0.9175    1.0277    0.1387 H   0  0  0  0  0  0  0  0  0  0  0  0
   -0.0481    3.2160    0.0789 H   0  0  0  0  0  0  0  0  0  0  0  0
   -1.8445    3.3244    0.1567 H   0  0  0  0  0  0  0  0  0  0  0  0
    0.9175    2.5708   -2.0129 H   0  0  0  0  0  0  0  0  0  0  0  0
   -0.2050    2.1593   -3.3237 H   0  0  0  0  0  0  0  0  0  0  0  0
  1  2  1  0
  1  5  1  0
  1  6  1  0
  1 17  1  0
  2  3  1  0
  3  4  2  3
  4  7  1  0
  4  8  1  0
  9 10  1  0
  9 14  1  0
  9 15  1  0
  9 16  1  0
 10 11  1  0
 10 18  1  0
 11 12  1  0
 12 13  1  0
 12 19  1  0
 12 20  1  0
 13 14  1  0
 14 21  1  0
 14 22  1  0
M  RAD  1  10   2
M  END
>  <reaction>  (16) 
rmg_rxn_15617

>  <mol_properties>  (16) 
{"0": {"label": "*3", "atom_type": "Cs"}, "1": {"label": "*4", "atom_type": "O2s"}, "9": {"label": "*1", "atom_type": "Cs"}, "10": {"label": "*0", "atom_type": "O2s"}, "16": {"label": "*2", "atom_type": "H0"}}

>  <type>  (16) 
unop_12

>  <geom_source>  (16) 
Heuristics

$$$$

     RDKit          3D

 22 21  0  0  0  0  0  0  0  0999 V2000
    1.3460   -1.7379   -0.1627 C   0  0  0  0  0  0  0  0  0  0  0  0
    2.0622   -0.6961    0.4126 O   0  0  0  0  0  0  0  0  0  0  0  0
    2.1540    0.4030   -0.4191 N   0  0  0  0  0  0  0  0  0  0  0  0
    2.7896    1.3945    0.0408 C   0  0  0  0  0  0  0  0  0  0  0  0
    1.5459   -1.8594   -1.2250 H   0  0  0  0  0  0  0  0  0  0  0  0
    1.5440   -2.6299    0.4213 H   0  0  0  0  0  0  0  0  0  0  0  0
    2.8626    2.2544   -0.6003 H   0  0  0  0  0  0  0  0  0  0  0  0
    3.2533    1.4218    1.0220 H   0  0  0  0  0  0  0  0  0  0  0  0
   -1.5865   -0.5897    1.2848 C   0  0  0  0  0  0  0  0  0  0  0  0
   -1.2715   -1.2919   -0.0248 C   0  0  0  0  0  3  0  0  0  0  0  0
   -1.6266   -0.5581   -1.1572 O   0  0  0  0  0  0  0  0  0  0  0  0
   -1.1778    0.7699   -1.1191 C   0  0  0  0  0  0  0  0  0  0  0  0
   -1.6005    1.4660    0.0106 O   0  0  0  0  0  0  0  0  0  0  0  0
   -1.1077    0.8607    1.1928 C   0  0  0  0  0  0  0  0  0  0  0  0
   -2.6692   -0.5933    1.4492 H   0  0  0  0  0  0  0  0  0  0  0  0
   -1.1027   -1.1015    2.1164 H   0  0  0  0  0  0  0  0  0  0  0  0
    0.0422   -1.5100   -0.0744 H   0  0  0  0  0  0  0  0  0  0  0  0
   -1.7260   -2.2771   -0.1203 H   0  0  0  0  0  0  0  0  0  0  0  0
   -1.6145    1.2701   -1.9862 H   0  0  0  0  0  0  0  0  0  0  0  0
   -0.0697    0.7857   -1.1832 H   0  0  0  0  0  0  0  0  0  0  0  0
   -1.4875    1.4620    2.0201 H   0  0  0  0  0  0  0  0  0  0  0  0
   -0.0094    0.8974    1.1950 H   0  0  0  0  0  0  0  0  0  0  0  0
  1  2  1  0
  1  5  1  0
  1  6  1  0
  1 17  1  0
  2  3  1  0
  3  4  2  3
  4  7  1  0
  4  8  1  0
  9 10  1  0
  9 14  1  0
  9 15  1  0
  9 16  1  0
 10 11  1  0
 10 18  1  0
 11 12  1  0
 12 13  1  0
 12 19  1  0
 12 20  1  0
 13 14  1  0
 14 21  1  0
 14 22  1  0
M  RAD  1  10   2
M  END
>  <reaction>  (17) 
rmg_rxn_15617

>  <mol_properties>  (17) 
{"0": {"label": "*3", "atom_type": "Cs"}, "1": {"label": "*4", "atom_type": "O2s"}, "9": {"label": "*1", "atom_type": "Cs"}, "10": {"label": "*0", "atom_type": "O2s"}, "16": {"label": "*2", "atom_type": "H0"}}

>  <type>  (17) 
unop_13

>  <geom_source>  (17) 
Heuristics

$$$$

     RDKit          3D

 22 21  0  0  0  0  0  0  0  0999 V2000
    0.5064   -1.6263    1.2753 C   0  0  0  0  0  0  0  0  0  0  0  0
   -0.2910   -2.3057    0.3254 O   0  0  0  0  0  0  0  0  0  0  0  0
   -0.8828   -3.3977    0.9138 N   0  0  0  0  0  0  0  0  0  0  0  0
   -1.6080   -4.0390    0.1017 C   0  0  0  0  0  0  0  0  0  0  0  0
   -0.1003   -1.2681    2.1100 H   0  0  0  0  0  0  0  0  0  0  0  0
    1.3009   -2.2738    1.6530 H   0  0  0  0  0  0  0  0  0  0  0  0
   -2.1108   -4.9153    0.4884 H   0  0  0  0  0  0  0  0  0  0  0  0
   -1.7315   -3.7393   -0.9368 H   0  0  0  0  0  0  0  0  0  0  0  0
    0.8878    0.7672   -1.2242 C   0  0  0  0  0  0  0  0  0  0  0  0
    0.8878    0.7672    0.2979 C   0  0  0  0  0  3  0  0  0  0  0  0
   -0.1605    1.5798    0.7900 O   0  0  0  0  0  0  0  0  0  0  0  0
   -0.0696    2.8793    0.2907 C   0  0  0  0  0  0  0  0  0  0  0  0
   -0.1605    2.9355   -1.1004 O   0  0  0  0  0  0  0  0  0  0  0  0
    0.8878    2.2088   -1.7123 C   0  0  0  0  0  0  0  0  0  0  0  0
    1.7618    0.2347   -1.6060 H   0  0  0  0  0  0  0  0  0  0  0  0
   -0.0088    0.2610   -1.5872 H   0  0  0  0  0  0  0  0  0  0  0  0
    0.6970   -0.4299    0.7867 H   0  0  0  0  0  0  0  0  0  0  0  0
    1.8514    1.1431    0.6746 H   0  0  0  0  0  0  0  0  0  0  0  0
    0.8857    3.3314    0.6149 H   0  0  0  0  0  0  0  0  0  0  0  0
   -0.9107    3.4398    0.6926 H   0  0  0  0  0  0  0  0  0  0  0  0
    1.8514    2.6862   -1.4770 H   0  0  0  0  0  0  0  0  0  0  0  0
    0.7288    2.2747   -2.7877 H   0  0  0  0  0  0  0  0  0  0  0  0
  1  2  1  0
  1  5  1  0
  1  6  1  0
  1 17  1  0
  2  3  1  0
  3  4  2  3
  4  7  1  0
  4  8  1  0
  9 10  1  0
  9 14  1  0
  9 15  1  0
  9 16  1  0
 10 11  1  0
 10 18  1  0
 11 12  1  0
 12 13  1  0
 12 19  1  0
 12 20  1  0
 13 14  1  0
 14 21  1  0
 14 22  1  0
M  RAD  1  10   2
M  END
>  <reaction>  (18) 
rmg_rxn_15617

>  <mol_properties>  (18) 
{"0": {"label": "*3", "atom_type": "Cs"}, "1": {"label": "*4", "atom_type": "O2s"}, "9": {"label": "*1", "atom_type": "Cs"}, "10": {"label": "*0", "atom_type": "O2s"}, "16": {"label": "*2", "atom_type": "H0"}}

>  <type>  (18) 
unop_14

>  <geom_source>  (18) 
Heuristics

$$$$

     RDKit          3D

 22 21  0  0  0  0  0  0  0  0999 V2000
   -0.3962   -1.6098    1.0299 C   0  0  0  0  0  0  0  0  0  0  0  0
    0.6719   -2.3977    0.5422 O   0  0  0  0  0  0  0  0  0  0  0  0
    0.9935   -3.3642    1.4648 N   0  0  0  0  0  0  0  0  0  0  0  0
    1.9460   -4.0960    1.0726 C   0  0  0  0  0  0  0  0  0  0  0  0
   -1.2864   -2.2198    1.1987 H   0  0  0  0  0  0  0  0  0  0  0  0
   -0.1177   -1.1058    1.9582 H   0  0  0  0  0  0  0  0  0  0  0  0
    2.2604   -4.8838    1.7441 H   0  0  0  0  0  0  0  0  0  0  0  0
    2.4362   -3.9551    0.1117 H   0  0  0  0  0  0  0  0  0  0  0  0
   -0.0148    0.7837   -1.4695 C   0  0  0  0  0  0  0  0  0  0  0  0
   -0.0148    0.7837    0.0526 C   0  0  0  0  0  3  0  0  0  0  0  0
   -1.0631    1.5963    0.5447 O   0  0  0  0  0  0  0  0  0  0  0  0
   -0.9722    2.8959    0.0453 C   0  0  0  0  0  0  0  0  0  0  0  0
   -1.0631    2.9521   -1.3457 O   0  0  0  0  0  0  0  0  0  0  0  0
   -0.0148    2.2254   -1.9576 C   0  0  0  0  0  0  0  0  0  0  0  0
    0.8592    0.2512   -1.8513 H   0  0  0  0  0  0  0  0  0  0  0  0
   -0.9114    0.2775   -1.8325 H   0  0  0  0  0  0  0  0  0  0  0  0
   -0.2055   -0.4133    0.5414 H   0  0  0  0  0  0  0  0  0  0  0  0
    0.9488    1.1597    0.4293 H   0  0  0  0  0  0  0  0  0  0  0  0
   -0.0168    3.3479    0.3696 H   0  0  0  0  0  0  0  0  0  0  0  0
   -1.8132    3.4564    0.4473 H   0  0  0  0  0  0  0  0  0  0  0  0
    0.9488    2.7027   -1.7223 H   0  0  0  0  0  0  0  0  0  0  0  0
   -0.1737    2.2913   -3.0330 H   0  0  0  0  0  0  0  0  0  0  0  0
  1  2  1  0
  1  5  1  0
  1  6  1  0
  1 17  1  0
  2  3  1  0
  3  4  2  3
  4  7  1  0
  4  8  1  0
  9 10  1  0
  9 14  1  0
  9 15  1  0
  9 16  1  0
 10 11  1  0
 10 18  1  0
 11 12  1  0
 12 13  1  0
 12 19  1  0
 12 20  1  0
 13 14  1  0
 14 21  1  0
 14 22  1  0
M  RAD  1  10   2
M  END
>  <reaction>  (19) 
rmg_rxn_15617

>  <mol_properties>  (19) 
{"0": {"label": "*3", "atom_type": "Cs"}, "1": {"label": "*4", "atom_type": "O2s"}, "9": {"label": "*1", "atom_type": "Cs"}, "10": {"label": "*0", "atom_type": "O2s"}, "16": {"label": "*2", "atom_type": "H0"}}

>  <type>  (19) 
unop_15

>  <geom_source>  (19) 
Heuristics

$$$$

     RDKit          3D

 22 21  0  0  0  0  0  0  0  0999 V2000
    0.2807   -1.9681    0.3836 C   0  0  0  0  0  0  0  0  0  0  0  0
   -0.3780   -1.7768    1.6202 O   0  0  0  0  0  0  0  0  0  0  0  0
   -0.1146   -2.8370    2.4541 N   0  0  0  0  0  0  0  0  0  0  0  0
   -0.6835   -2.7111    3.5753 C   0  0  0  0  0  0  0  0  0  0  0  0
    1.3628   -2.0236    0.5218 H   0  0  0  0  0  0  0  0  0  0  0  0
   -0.0712   -2.8768   -0.1101 H   0  0  0  0  0  0  0  0  0  0  0  0
   -0.5256   -3.5066    4.2912 H   0  0  0  0  0  0  0  0  0  0  0  0
   -1.3040   -1.8530    3.8247 H   0  0  0  0  0  0  0  0  0  0  0  0
    0.6621    0.4254   -2.1158 C   0  0  0  0  0  0  0  0  0  0  0  0
    0.6621    0.4254   -0.5938 C   0  0  0  0  0  3  0  0  0  0  0  0
   -0.3862    1.2380   -0.1017 O   0  0  0  0  0  0  0  0  0  0  0  0
   -0.2953    2.5375   -0.6010 C   0  0  0  0  0  0  0  0  0  0  0  0
   -0.3862    2.5937   -1.9921 O   0  0  0  0  0  0  0  0  0  0  0  0
    0.6621    1.8670   -2.6039 C   0  0  0  0  0  0  0  0  0  0  0  0
    1.5361   -0.1071   -2.4977 H   0  0  0  0  0  0  0  0  0  0  0  0
   -0.2345   -0.0808   -2.4789 H   0  0  0  0  0  0  0  0  0  0  0  0
    0.4713   -0.7717   -0.1050 H   0  0  0  0  0  0  0  0  0  0  0  0
    1.6257    0.8013   -0.2171 H   0  0  0  0  0  0  0  0  0  0  0  0
    0.6600    2.9896   -0.2768 H   0  0  0  0  0  0  0  0  0  0  0  0
   -1.1364    3.0980   -0.1990 H   0  0  0  0  0  0  0  0  0  0  0  0
    1.6257    2.3444   -2.3686 H   0  0  0  0  0  0  0  0  0  0  0  0
    0.5031    1.9329   -3.6794 H   0  0  0  0  0  0  0  0  0  0  0  0
  1  2  1  0
  1  5  1  0
  1  6  1  0
  1 17  1  0
  2  3  1  0
  3  4  2  3
  4  7  1  0
  4  8  1  0
  9 10  1  0
  9 14  1  0
  9 15  1  0
  9 16  1  0
 10 11  1  0
 10 18  1  0
 11 12  1  0
 12 13  1  0
 12 19  1  0
 12 20  1  0
 13 14  1  0
 14 21  1  0
 14 22  1  0
M  RAD  1  10   2
M  END
>  <reaction>  (20) 
rmg_rxn_15617

>  <mol_properties>  (20) 
{"0": {"label": "*3", "atom_type": "Cs"}, "1": {"label": "*4", "atom_type": "O2s"}, "9": {"label": "*1", "atom_type": "Cs"}, "10": {"label": "*0", "atom_type": "O2s"}, "16": {"label": "*2", "atom_type": "H0"}}

>  <type>  (20) 
unop_16

>  <geom_source>  (20) 
Heuristics

$$$$

     RDKit          3D

 22 21  0  0  0  0  0  0  0  0999 V2000
    0.1739   -1.5191    1.3734 C   0  0  0  0  0  0  0  0  0  0  0  0
    0.0378   -2.3729    0.2544 O   0  0  0  0  0  0  0  0  0  0  0  0
   -0.1679   -3.6637    0.6791 N   0  0  0  0  0  0  0  0  0  0  0  0
   -0.2958   -4.4665   -0.2883 C   0  0  0  0  0  0  0  0  0  0  0  0
   -0.7312   -1.5293    1.9849 H   0  0  0  0  0  0  0  0  0  0  0  0
    1.0309   -1.8101    1.9849 H   0  0  0  0  0  0  0  0  0  0  0  0
   -0.4614   -5.5056   -0.0374 H   0  0  0  0  0  0  0  0  0  0  0  0
   -0.2447   -4.1459   -1.3267 H   0  0  0  0  0  0  0  0  0  0  0  0
    0.5552    0.8744   -1.1260 C   0  0  0  0  0  0  0  0  0  0  0  0
    0.5552    0.8744    0.3960 C   0  0  0  0  0  3  0  0  0  0  0  0
   -0.4931    1.6870    0.8881 O   0  0  0  0  0  0  0  0  0  0  0  0
   -0.4021    2.9866    0.3888 C   0  0  0  0  0  0  0  0  0  0  0  0
   -0.4931    3.0428   -1.0023 O   0  0  0  0  0  0  0  0  0  0  0  0
    0.5552    2.3161   -1.6141 C   0  0  0  0  0  0  0  0  0  0  0  0
    1.4292    0.3419   -1.5079 H   0  0  0  0  0  0  0  0  0  0  0  0
   -0.3413    0.3682   -1.4891 H   0  0  0  0  0  0  0  0  0  0  0  0
    0.3645   -0.3226    0.8848 H   0  0  0  0  0  0  0  0  0  0  0  0
    1.5189    1.2504    0.7727 H   0  0  0  0  0  0  0  0  0  0  0  0
    0.5532    3.4386    0.7130 H   0  0  0  0  0  0  0  0  0  0  0  0
   -1.2432    3.5471    0.7908 H   0  0  0  0  0  0  0  0  0  0  0  0
    1.5189    2.7934   -1.3788 H   0  0  0  0  0  0  0  0  0  0  0  0
    0.3963    2.3820   -2.6896 H   0  0  0  0  0  0  0  0  0  0  0  0
  1  2  1  0
  1  5  1  0
  1  6  1  0
  1 17  1  0
  2  3  1  0
  3  4  2  3
  4  7  1  0
  4  8  1  0
  9 10  1  0
  9 14  1  0
  9 15  1  0
  9 16  1  0
 10 11  1  0
 10 18  1  0
 11 12  1  0
 12 13  1  0
 12 19  1  0
 12 20  1  0
 13 14  1  0
 14 21  1  0
 14 22  1  0
M  RAD  1  10   2
M  END
>  <reaction>  (21) 
rmg_rxn_15617

>  <mol_properties>  (21) 
{"0": {"label": "*3", "atom_type": "Cs"}, "1": {"label": "*4", "atom_type": "O2s"}, "9": {"label": "*1", "atom_type": "Cs"}, "10": {"label": "*0", "atom_type": "O2s"}, "16": {"label": "*2", "atom_type": "H0"}}

>  <type>  (21) 
unop_17

>  <geom_source>  (21) 
Heuristics

$$$$

     RDKit          3D

 22 21  0  0  0  0  0  0  0  0999 V2000
   -2.1597    1.5510    0.2558 O   0  0  0  0  0  0  0  0  0  0  0  0
   -1.0505    0.2071   -1.3906 O   0  0  0  0  0  0  0  0  0  0  0  0
    3.0126   -0.9331   -0.8319 O   0  0  0  0  0  0  0  0  0  0  0  0
    3.6751    0.2232   -0.4511 N   0  0  0  0  0  0  0  0  0  0  0  0
   -1.6401   -0.7586    0.7199 C   0  0  0  0  0  0  0  0  0  0  0  0
   -2.7339    0.3047    0.5909 C   0  0  0  0  0  0  0  0  0  0  0  0
   -1.5369    1.4925   -1.0269 C   0  0  0  0  0  0  0  0  0  0  0  0
    1.8377   -1.4173   -0.1879 C   0  0  0  0  0  0  0  0  0  0  0  0
   -0.5144   -0.4099   -0.2479 C   0  0  0  0  0  3  0  0  0  0  0  0
    3.3128    0.9923    0.5293 C   0  0  0  0  0  0  0  0  0  0  0  0
   -2.0600   -1.7603    0.4835 H   0  0  0  0  0  0  0  0  0  0  0  0
   -1.2322   -0.7695    1.7529 H   0  0  0  0  0  0  0  0  0  0  0  0
   -3.4828    0.0038   -0.1777 H   0  0  0  0  0  0  0  0  0  0  0  0
   -3.2713    0.4005    1.5579 H   0  0  0  0  0  0  0  0  0  0  0  0
   -0.6950    2.2174   -1.0472 H   0  0  0  0  0  0  0  0  0  0  0  0
   -2.2694    1.8220   -1.7936 H   0  0  0  0  0  0  0  0  0  0  0  0
    1.5047   -2.3480   -0.6911 H   0  0  0  0  0  0  0  0  0  0  0  0
    2.0540   -1.6452    0.8770 H   0  0  0  0  0  0  0  0  0  0  0  0
    0.8588   -0.5050   -0.2759 H   0  0  0  0  0  0  0  0  0  0  0  0
    0.0549   -1.3193   -0.5336 H   0  0  0  0  0  0  0  0  0  0  0  0
    2.4432    0.7750    1.1339 H   0  0  0  0  0  0  0  0  0  0  0  0
    3.8925    1.8769    0.7542 H   0  0  0  0  0  0  0  0  0  0  0  0
  1  6  1  0
  1  7  1  0
  2  9  1  0
  2  7  1  0
  3  8  1  0
  3  4  1  0
  4 10  2  3
  5  9  1  0
  5  6  1  0
  5 11  1  0
  5 12  1  0
  6 13  1  0
  6 14  1  0
  7 15  1  0
  7 16  1  0
  8 17  1  0
  8 18  1  0
  8 19  1  0
  9 20  1  0
 10 21  1  0
 10 22  1  0
M  RAD  1   9   2
M  END
>  <reaction>  (22) 
rmg_rxn_15617

>  <mol_properties>  (22) 
{"0": {"label": "*3", "atom_type": "Cs"}, "1": {"label": "*4", "atom_type": "O2s"}, "9": {"label": "*1", "atom_type": "Cs"}, "10": {"label": "*0", "atom_type": "O2s"}, "16": {"label": "*2", "atom_type": "H0"}}

>  <type>  (22) 
unop_18

>  <geom_source>  (22) 
AutoTST

$$$$

     RDKit          3D

 22 21  0  0  0  0  0  0  0  0999 V2000
   -0.1755   -1.5177    1.2753 C   0  0  0  0  0  0  0  0  0  0  0  0
    0.3712   -2.4112    0.3254 O   0  0  0  0  0  0  0  0  0  0  0  0
    0.5943   -3.6330    0.9138 N   0  0  0  0  0  0  0  0  0  0  0  0
    1.0843   -4.4680    0.1017 C   0  0  0  0  0  0  0  0  0  0  0  0
   -1.1320   -1.8861    1.6530 H   0  0  0  0  0  0  0  0  0  0  0  0
    0.5124   -1.3657    2.1100 H   0  0  0  0  0  0  0  0  0  0  0  0
    1.2898   -5.4572    0.4884 H   0  0  0  0  0  0  0  0  0  0  0  0
    1.2949   -4.2215   -0.9367 H   0  0  0  0  0  0  0  0  0  0  0  0
    0.2058    0.8758   -1.2242 C   0  0  0  0  0  0  0  0  0  0  0  0
    0.2058    0.8758    0.2979 C   0  0  0  0  0  3  0  0  0  0  0  0
   -0.8425    1.6884    0.7900 O   0  0  0  0  0  0  0  0  0  0  0  0
   -0.7515    2.9880    0.2907 C   0  0  0  0  0  0  0  0  0  0  0  0
   -0.8425    3.0442   -1.1004 O   0  0  0  0  0  0  0  0  0  0  0  0
    0.2058    2.3175   -1.7123 C   0  0  0  0  0  0  0  0  0  0  0  0
    1.0798    0.3434   -1.6060 H   0  0  0  0  0  0  0  0  0  0  0  0
   -0.6907    0.3697   -1.5872 H   0  0  0  0  0  0  0  0  0  0  0  0
    0.0151   -0.3212    0.7867 H   0  0  0  0  0  0  0  0  0  0  0  0
    1.1695    1.2518    0.6746 H   0  0  0  0  0  0  0  0  0  0  0  0
    0.2038    3.4400    0.6149 H   0  0  0  0  0  0  0  0  0  0  0  0
   -1.5926    3.5485    0.6926 H   0  0  0  0  0  0  0  0  0  0  0  0
    1.1695    2.7949   -1.4770 H   0  0  0  0  0  0  0  0  0  0  0  0
    0.0469    2.3834   -2.7877 H   0  0  0  0  0  0  0  0  0  0  0  0
  1  2  1  0
  1  5  1  0
  1  6  1  0
  1 17  1  0
  2  3  1  0
  3  4  2  3
  4  7  1  0
  4  8  1  0
  9 10  1  0
  9 14  1  0
  9 15  1  0
  9 16  1  0
 10 11  1  0
 10 18  1  0
 11 12  1  0
 12 13  1  0
 12 19  1  0
 12 20  1  0
 13 14  1  0
 14 21  1  0
 14 22  1  0
M  RAD  1  10   2
M  END
>  <reaction>  (23) 
rmg_rxn_15617

>  <mol_properties>  (23) 
{"0": {"label": "*3", "atom_type": "Cs"}, "1": {"label": "*4", "atom_type": "O2s"}, "9": {"label": "*1", "atom_type": "Cs"}, "10": {"label": "*0", "atom_type": "O2s"}, "16": {"label": "*2", "atom_type": "H0"}}

>  <type>  (23) 
unop_19

>  <geom_source>  (23) 
gaussian_log

$$$$
