
     RDKit          3D

  5  4  0  0  0  0  0  0  0  0999 V2000
    0.7361   -0.2872    0.4035 N   0  0  0  0  0  2  0  0  0  0  0  0
   -0.3891   -0.1505   -0.3131 N   0  0  0  0  0  0  0  0  0  0  0  0
    1.4909    0.0686   -0.1831 H   0  0  0  0  0  0  0  0  0  0  0  0
   -1.1819   -0.6340    0.0744 H   0  0  0  0  0  0  0  0  0  0  0  0
   -0.3592   -0.1189   -1.3223 H   0  0  0  0  0  0  0  0  0  0  0  0
  1  2  1  0
  1  3  1  0
  2  4  1  0
  2  5  1  0
M  RAD  1   1   2
M  END
>  <reaction>  (1) 
rmg_rxn_16571

>  <mol_properties>  (1) 
{"0": {"label": "donator", "atom_type": "N3s"}, "2": {"label": "d_hydrogen", "atom_type": "H0"}}

>  <type>  (1) 
r1h

$$$$

     RDKit          3D

  7  6  0  0  0  0  0  0  0  0999 V2000
   -0.8795   -0.0543   -0.1090 C   0  0  0  0  0  0  0  0  0  0  0  0
    0.2563    0.5049    0.6648 C   0  0  0  0  0  3  0  0  0  0  0  0
    1.4650    0.3007    0.5496 N   0  0  0  0  0  0  0  0  0  0  0  0
   -0.5274   -0.7435   -0.8820 H   0  0  0  0  0  0  0  0  0  0  0  0
   -1.5593   -0.5772    0.5650 H   0  0  0  0  0  0  0  0  0  0  0  0
   -1.4422    0.7576   -0.5717 H   0  0  0  0  0  0  0  0  0  0  0  0
    2.0861    0.7906    1.1888 H   0  0  0  0  0  0  0  0  0  0  0  0
  1  2  1  0
  1  4  1  0
  1  5  1  0
  1  6  1  0
  2  3  2  3
  3  7  1  0
M  RAD  1   2   2
M  END
>  <reaction>  (2) 
rmg_rxn_16571

>  <mol_properties>  (2) 
{"1": {"label": "acceptor", "atom_type": "Cd"}}

>  <type>  (2) 
r2

$$$$

     RDKit          3D

  8  7  0  0  0  0  0  0  0  0999 V2000
    0.9548    0.1194   -0.0790 C   0  0  0  0  0  0  0  0  0  0  0  0
   -0.4838   -0.2649    0.0193 C   0  0  0  0  0  0  0  0  0  0  0  0
   -0.8933   -1.1081    0.8664 N   0  0  0  0  0  0  0  0  0  0  0  0
    1.3360   -0.0983   -1.0800 H   0  0  0  0  0  0  0  0  0  0  0  0
    1.0698    1.1948    0.0786 H   0  0  0  0  0  0  0  0  0  0  0  0
    1.5426   -0.4219    0.6602 H   0  0  0  0  0  0  0  0  0  0  0  0
   -1.1575    0.2324   -0.6905 H   0  0  0  0  0  0  0  0  0  0  0  0
   -1.8989   -1.2455    0.7886 H   0  0  0  0  0  0  0  0  0  0  0  0
  1  2  1  0
  1  4  1  0
  1  5  1  0
  1  6  1  0
  2  3  2  3
  2  7  1  0
  3  8  1  0
M  END
>  <reaction>  (3) 
rmg_rxn_16571

>  <mol_properties>  (3) 
{"0": {"label": "a_hydrogen", "atom_type": "H0"}, "2": {"label": "acceptor", "atom_type": "Cd"}}

>  <type>  (3) 
r2h

$$$$

     RDKit          3D

 12 10  0  0  0  0  0  0  0  0999 V2000
   -0.5088   -1.6545   -0.3936 N   0  0  0  0  0  2  0  0  0  0  0  0
    0.2230   -1.5253   -1.5099 N   0  0  0  0  0  0  0  0  0  0  0  0
   -0.4663   -0.5258    0.0987 H   0  0  0  0  0  0  0  0  0  0  0  0
    0.4926   -2.4048   -1.9264 H   0  0  0  0  0  0  0  0  0  0  0  0
    0.9567   -0.8246   -1.5224 H   0  0  0  0  0  0  0  0  0  0  0  0
    0.1181    0.9841    1.8613 C   0  0  0  0  0  0  0  0  0  0  0  0
   -0.2093    0.7869    0.4223 C   0  0  0  0  0  3  0  0  0  0  0  0
   -0.2329    1.6695   -0.4566 N   0  0  0  0  0  0  0  0  0  0  0  0
    0.3565    2.0291    2.0640 H   0  0  0  0  0  0  0  0  0  0  0  0
   -0.7304    0.6736    2.4738 H   0  0  0  0  0  0  0  0  0  0  0  0
    0.9617    0.3494    2.1384 H   0  0  0  0  0  0  0  0  0  0  0  0
   -0.5019    1.3293   -1.3792 H   0  0  0  0  0  0  0  0  0  0  0  0
  1  2  1  0
  1  3  1  0
  2  4  1  0
  2  5  1  0
  6  7  1  0
  6  9  1  0
  6 10  1  0
  6 11  1  0
  7  8  2  3
  8 12  1  0
M  RAD  2   1   2   7   2
M  END
>  <reaction>  (4) 
rmg_rxn_16571

>  <mol_properties>  (4) 
{"0": {"label": "*1", "atom_type": "N3s"}, "1": {"label": "*0", "atom_type": "N3s"}, "2": {"label": "*2", "atom_type": "H0"}, "6": {"label": "*3", "atom_type": "Cd"}, "7": {"label": "*4", "atom_type": "N3d"}}

>  <type>  (4) 
ts

$$$$

     RDKit          3D

 12 10  0  0  0  0  0  0  0  0999 V2000
    1.3815   -0.9144    0.0007 N   0  0  0  0  0  2  0  0  0  0  0  0
    2.0283    0.1611   -0.0007 N   0  0  0  0  0  0  0  0  0  0  0  0
    0.1493   -0.7205    0.0012 H   0  0  0  0  0  0  0  0  0  0  0  0
    2.3223    0.6398   -0.8703 H   0  0  0  0  0  0  0  0  0  0  0  0
    2.3235    0.6415    0.8675 H   0  0  0  0  0  0  0  0  0  0  0  0
   -2.1481   -0.6492   -0.0005 C   0  0  0  0  0  0  0  0  0  0  0  0
   -0.8625    0.0628    0.0005 C   0  0  0  0  0  3  0  0  0  0  0  0
   -0.6642    1.2839    0.0003 N   0  0  0  0  0  0  0  0  0  0  0  0
   -2.9779    0.0554   -0.0020 H   0  0  0  0  0  0  0  0  0  0  0  0
   -2.2049   -1.2898   -0.8792 H   0  0  0  0  0  0  0  0  0  0  0  0
   -2.2071   -1.2885    0.8790 H   0  0  0  0  0  0  0  0  0  0  0  0
    0.3173    1.5772    0.0008 H   0  0  0  0  0  0  0  0  0  0  0  0
  1  2  1  0
  1  3  1  0
  2  4  1  0
  2  5  1  0
  6  7  1  0
  6  9  1  0
  6 10  1  0
  6 11  1  0
  7  8  2  3
  8 12  1  0
M  RAD  2   1   2   7   2
M  END
>  <reaction>  (5) 
rmg_rxn_16571

>  <mol_properties>  (5) 
{"0": {"label": "*1", "atom_type": "N3s"}, "1": {"label": "*0", "atom_type": "N3s"}, "2": {"label": "*2", "atom_type": "H0"}, "6": {"label": "*3", "atom_type": "Cd"}, "7": {"label": "*4", "atom_type": "N3d"}}

>  <type>  (5) 
unop_1

>  <geom_source>  (5) 
crest_best.xyz

$$$$

     RDKit          3D

 12 10  0  0  0  0  0  0  0  0999 V2000
   -0.0066   -1.5841   -0.3264 N   0  0  0  0  0  2  0  0  0  0  0  0
   -0.0066   -1.5841   -1.6674 N   0  0  0  0  0  0  0  0  0  0  0  0
   -0.0066   -0.4084    0.0139 H   0  0  0  0  0  0  0  0  0  0  0  0
    0.1813   -2.4841   -2.0762 H   0  0  0  0  0  0  0  0  0  0  0  0
    0.3554   -0.7957   -2.1848 H   0  0  0  0  0  0  0  0  0  0  0  0
   -1.1719    1.2898    1.2056 C   0  0  0  0  0  0  0  0  0  0  0  0
   -0.0066    0.8569    0.3800 C   0  0  0  0  0  3  0  0  0  0  0  0
    1.1715    1.2330    0.6387 N   0  0  0  0  0  0  0  0  0  0  0  0
   -0.8427    1.9417    2.0128 H   0  0  0  0  0  0  0  0  0  0  0  0
   -1.9000    1.8169    0.5838 H   0  0  0  0  0  0  0  0  0  0  0  0
   -1.6822    0.4186    1.6243 H   0  0  0  0  0  0  0  0  0  0  0  0
    1.8346    0.8411   -0.0267 H   0  0  0  0  0  0  0  0  0  0  0  0
  1  2  1  0
  1  3  1  0
  2  4  1  0
  2  5  1  0
  6  7  1  0
  6  9  1  0
  6 10  1  0
  6 11  1  0
  7  8  2  3
  8 12  1  0
M  RAD  2   1   2   7   2
M  END
>  <reaction>  (6) 
rmg_rxn_16571

>  <mol_properties>  (6) 
{"0": {"label": "*1", "atom_type": "N3s"}, "1": {"label": "*0", "atom_type": "N3s"}, "2": {"label": "*2", "atom_type": "H0"}, "6": {"label": "*3", "atom_type": "Cd"}, "7": {"label": "*4", "atom_type": "N3d"}}

>  <type>  (6) 
unop_2

>  <geom_source>  (6) 
Heuristics

$$$$

     RDKit          3D

 12 10  0  0  0  0  0  0  0  0999 V2000
    0.0824   -1.6759   -0.1543 N   0  0  0  0  0  2  0  0  0  0  0  0
    0.0824   -1.6759   -1.4953 N   0  0  0  0  0  0  0  0  0  0  0  0
    0.0824   -0.5001    0.1859 H   0  0  0  0  0  0  0  0  0  0  0  0
    0.2703   -2.5759   -1.9042 H   0  0  0  0  0  0  0  0  0  0  0  0
    0.4443   -0.8875   -2.0128 H   0  0  0  0  0  0  0  0  0  0  0  0
   -0.5904    1.7089   -0.3880 C   0  0  0  0  0  0  0  0  0  0  0  0
    0.0824    0.7651    0.5521 C   0  0  0  0  0  3  0  0  0  0  0  0
    0.3211    1.0759    1.7532 N   0  0  0  0  0  0  0  0  0  0  0  0
   -0.8204    2.6458    0.1163 H   0  0  0  0  0  0  0  0  0  0  0  0
    0.0525    1.9057   -1.2497 H   0  0  0  0  0  0  0  0  0  0  0  0
   -1.5121    1.2651   -0.7730 H   0  0  0  0  0  0  0  0  0  0  0  0
    0.7829    0.3126    2.2433 H   0  0  0  0  0  0  0  0  0  0  0  0
  1  2  1  0
  1  3  1  0
  2  4  1  0
  2  5  1  0
  6  7  1  0
  6  9  1  0
  6 10  1  0
  6 11  1  0
  7  8  2  3
  8 12  1  0
M  RAD  2   1   2   7   2
M  END
>  <reaction>  (7) 
rmg_rxn_16571

>  <mol_properties>  (7) 
{"0": {"label": "*1", "atom_type": "N3s"}, "1": {"label": "*0", "atom_type": "N3s"}, "2": {"label": "*2", "atom_type": "H0"}, "6": {"label": "*3", "atom_type": "Cd"}, "7": {"label": "*4", "atom_type": "N3d"}}

>  <type>  (7) 
unop_3

>  <geom_source>  (7) 
Heuristics

$$$$

     RDKit          3D

 12 10  0  0  0  0  0  0  0  0999 V2000
   -0.0688   -1.6167   -0.2880 N   0  0  0  0  0  2  0  0  0  0  0  0
   -0.0688   -1.6167   -1.6290 N   0  0  0  0  0  0  0  0  0  0  0  0
   -0.0688   -0.4410    0.0522 H   0  0  0  0  0  0  0  0  0  0  0  0
    0.1192   -2.5167   -2.0379 H   0  0  0  0  0  0  0  0  0  0  0  0
    0.2932   -0.8283   -2.1465 H   0  0  0  0  0  0  0  0  0  0  0  0
   -0.7416    1.1203    1.7171 C   0  0  0  0  0  0  0  0  0  0  0  0
   -0.0688    0.8243    0.4183 C   0  0  0  0  0  3  0  0  0  0  0  0
    0.9164    1.5003    0.0074 N   0  0  0  0  0  0  0  0  0  0  0  0
   -0.2613    1.9646    2.2085 H   0  0  0  0  0  0  0  0  0  0  0  0
   -1.7982    1.3460    1.5520 H   0  0  0  0  0  0  0  0  0  0  0  0
   -0.7013    0.2454    2.3710 H   0  0  0  0  0  0  0  0  0  0  0  0
    1.2447    1.1575   -0.8930 H   0  0  0  0  0  0  0  0  0  0  0  0
  1  2  1  0
  1  3  1  0
  2  4  1  0
  2  5  1  0
  6  7  1  0
  6  9  1  0
  6 10  1  0
  6 11  1  0
  7  8  2  3
  8 12  1  0
M  RAD  2   1   2   7   2
M  END
>  <reaction>  (8) 
rmg_rxn_16571

>  <mol_properties>  (8) 
{"0": {"label": "*1", "atom_type": "N3s"}, "1": {"label": "*0", "atom_type": "N3s"}, "2": {"label": "*2", "atom_type": "H0"}, "6": {"label": "*3", "atom_type": "Cd"}, "7": {"label": "*4", "atom_type": "N3d"}}

>  <type>  (8) 
unop_4

>  <geom_source>  (8) 
Heuristics

$$$$

     RDKit          3D

 12 10  0  0  0  0  0  0  0  0999 V2000
   -0.1293   -1.6333   -0.2302 N   0  0  0  0  0  2  0  0  0  0  0  0
   -0.1293   -1.6333   -1.5712 N   0  0  0  0  0  0  0  0  0  0  0  0
   -0.1293   -0.4575    0.1100 H   0  0  0  0  0  0  0  0  0  0  0  0
    0.0586   -2.5333   -1.9801 H   0  0  0  0  0  0  0  0  0  0  0  0
    0.2327   -0.8449   -2.0887 H   0  0  0  0  0  0  0  0  0  0  0  0
    1.0360    1.6146    0.0093 C   0  0  0  0  0  0  0  0  0  0  0  0
   -0.1293    0.8077    0.4762 C   0  0  0  0  0  3  0  0  0  0  0  0
   -0.7110    1.0470    1.5719 N   0  0  0  0  0  0  0  0  0  0  0  0
    1.2742    2.3905    0.7347 H   0  0  0  0  0  0  0  0  0  0  0  0
    1.9069    0.9705   -0.1366 H   0  0  0  0  0  0  0  0  0  0  0  0
    0.8141    2.0737   -0.9575 H   0  0  0  0  0  0  0  0  0  0  0  0
   -1.4808    0.3991    1.7261 H   0  0  0  0  0  0  0  0  0  0  0  0
  1  2  1  0
  1  3  1  0
  2  4  1  0
  2  5  1  0
  6  7  1  0
  6  9  1  0
  6 10  1  0
  6 11  1  0
  7  8  2  3
  8 12  1  0
M  RAD  2   1   2   7   2
M  END
>  <reaction>  (9) 
rmg_rxn_16571

>  <mol_properties>  (9) 
{"0": {"label": "*1", "atom_type": "N3s"}, "1": {"label": "*0", "atom_type": "N3s"}, "2": {"label": "*2", "atom_type": "H0"}, "6": {"label": "*3", "atom_type": "Cd"}, "7": {"label": "*4", "atom_type": "N3d"}}

>  <type>  (9) 
unop_5

>  <geom_source>  (9) 
Heuristics

$$$$

     RDKit          3D

 12 10  0  0  0  0  0  0  0  0999 V2000
   -0.0076   -1.6615   -0.2377 N   0  0  0  0  0  2  0  0  0  0  0  0
   -0.0076   -1.6615   -1.5787 N   0  0  0  0  0  0  0  0  0  0  0  0
   -0.0076   -0.4857    0.1026 H   0  0  0  0  0  0  0  0  0  0  0  0
    0.1804   -2.5615   -1.9875 H   0  0  0  0  0  0  0  0  0  0  0  0
    0.3544   -0.8731   -2.0962 H   0  0  0  0  0  0  0  0  0  0  0  0
   -0.0076    1.0254    1.9406 C   0  0  0  0  0  0  0  0  0  0  0  0
   -0.0076    0.7795    0.4687 C   0  0  0  0  0  3  0  0  0  0  0  0
   -0.0076    1.7275   -0.3666 N   0  0  0  0  0  0  0  0  0  0  0  0
   -0.0076    2.0945    2.1459 H   0  0  0  0  0  0  0  0  0  0  0  0
   -0.8858    0.5648    2.4002 H   0  0  0  0  0  0  0  0  0  0  0  0
    0.8707    0.5648    2.4002 H   0  0  0  0  0  0  0  0  0  0  0  0
   -0.0076    1.3736   -1.3210 H   0  0  0  0  0  0  0  0  0  0  0  0
  1  2  1  0
  1  3  1  0
  2  4  1  0
  2  5  1  0
  6  7  1  0
  6  9  1  0
  6 10  1  0
  6 11  1  0
  7  8  2  3
  8 12  1  0
M  RAD  2   1   2   7   2
M  END
>  <reaction>  (10) 
rmg_rxn_16571

>  <mol_properties>  (10) 
{"0": {"label": "*1", "atom_type": "N3s"}, "1": {"label": "*0", "atom_type": "N3s"}, "2": {"label": "*2", "atom_type": "H0"}, "6": {"label": "*3", "atom_type": "Cd"}, "7": {"label": "*4", "atom_type": "N3d"}}

>  <type>  (10) 
unop_6

>  <geom_source>  (10) 
Heuristics

$$$$

     RDKit          3D

 12 10  0  0  0  0  0  0  0  0999 V2000
   -0.0904   -1.5953   -0.3009 N   0  0  0  0  0  2  0  0  0  0  0  0
   -0.0904   -1.5953   -1.6419 N   0  0  0  0  0  0  0  0  0  0  0  0
   -0.0904   -0.4195    0.0393 H   0  0  0  0  0  0  0  0  0  0  0  0
    0.0975   -2.4953   -2.0508 H   0  0  0  0  0  0  0  0  0  0  0  0
    0.2716   -0.8069   -2.1594 H   0  0  0  0  0  0  0  0  0  0  0  0
    1.2552    1.4656    0.5848 C   0  0  0  0  0  0  0  0  0  0  0  0
   -0.0904    0.8457    0.4054 C   0  0  0  0  0  3  0  0  0  0  0  0
   -1.0472    1.0870    1.1945 N   0  0  0  0  0  0  0  0  0  0  0  0
    1.2589    2.1164    1.4575 H   0  0  0  0  0  0  0  0  0  0  0  0
    2.0154    0.6895    0.7042 H   0  0  0  0  0  0  0  0  0  0  0  0
    1.5262    2.0429   -0.3029 H   0  0  0  0  0  0  0  0  0  0  0  0
   -1.8852    0.5790    0.9189 H   0  0  0  0  0  0  0  0  0  0  0  0
  1  2  1  0
  1  3  1  0
  2  4  1  0
  2  5  1  0
  6  7  1  0
  6  9  1  0
  6 10  1  0
  6 11  1  0
  7  8  2  3
  8 12  1  0
M  RAD  2   1   2   7   2
M  END
>  <reaction>  (11) 
rmg_rxn_16571

>  <mol_properties>  (11) 
{"0": {"label": "*1", "atom_type": "N3s"}, "1": {"label": "*0", "atom_type": "N3s"}, "2": {"label": "*2", "atom_type": "H0"}, "6": {"label": "*3", "atom_type": "Cd"}, "7": {"label": "*4", "atom_type": "N3d"}}

>  <type>  (11) 
unop_7

>  <geom_source>  (11) 
Heuristics

$$$$

     RDKit          3D

 12 10  0  0  0  0  0  0  0  0999 V2000
   -0.0086   -1.5841   -0.3264 N   0  0  0  0  0  2  0  0  0  0  0  0
   -0.0086   -1.5841   -1.6674 N   0  0  0  0  0  0  0  0  0  0  0  0
   -0.0086   -0.4084    0.0139 H   0  0  0  0  0  0  0  0  0  0  0  0
    0.1794   -2.4841   -2.0762 H   0  0  0  0  0  0  0  0  0  0  0  0
    0.3534   -0.7957   -2.1848 H   0  0  0  0  0  0  0  0  0  0  0  0
    1.1568    1.2898    1.2056 C   0  0  0  0  0  0  0  0  0  0  0  0
   -0.0086    0.8569    0.3800 C   0  0  0  0  0  3  0  0  0  0  0  0
   -1.1867    1.2330    0.6387 N   0  0  0  0  0  0  0  0  0  0  0  0
    0.8275    1.9417    2.0128 H   0  0  0  0  0  0  0  0  0  0  0  0
    1.6671    0.4186    1.6243 H   0  0  0  0  0  0  0  0  0  0  0  0
    1.8849    1.8169    0.5838 H   0  0  0  0  0  0  0  0  0  0  0  0
   -1.8498    0.8411   -0.0267 H   0  0  0  0  0  0  0  0  0  0  0  0
  1  2  1  0
  1  3  1  0
  2  4  1  0
  2  5  1  0
  6  7  1  0
  6  9  1  0
  6 10  1  0
  6 11  1  0
  7  8  2  3
  8 12  1  0
M  RAD  2   1   2   7   2
M  END
>  <reaction>  (12) 
rmg_rxn_16571

>  <mol_properties>  (12) 
{"0": {"label": "*1", "atom_type": "N3s"}, "1": {"label": "*0", "atom_type": "N3s"}, "2": {"label": "*2", "atom_type": "H0"}, "6": {"label": "*3", "atom_type": "Cd"}, "7": {"label": "*4", "atom_type": "N3d"}}

>  <type>  (12) 
unop_8

>  <geom_source>  (12) 
Heuristics

$$$$

     RDKit          3D

 12 10  0  0  0  0  0  0  0  0999 V2000
    0.0752   -1.5953   -0.3009 N   0  0  0  0  0  2  0  0  0  0  0  0
    0.0752   -1.5953   -1.6419 N   0  0  0  0  0  0  0  0  0  0  0  0
    0.0752   -0.4195    0.0393 H   0  0  0  0  0  0  0  0  0  0  0  0
    0.2632   -2.4953   -2.0508 H   0  0  0  0  0  0  0  0  0  0  0  0
    0.4372   -0.8069   -2.1594 H   0  0  0  0  0  0  0  0  0  0  0  0
   -1.2704    1.4656    0.5848 C   0  0  0  0  0  0  0  0  0  0  0  0
    0.0752    0.8457    0.4054 C   0  0  0  0  0  3  0  0  0  0  0  0
    1.0321    1.0870    1.1945 N   0  0  0  0  0  0  0  0  0  0  0  0
   -1.2741    2.1164    1.4575 H   0  0  0  0  0  0  0  0  0  0  0  0
   -1.5413    2.0429   -0.3029 H   0  0  0  0  0  0  0  0  0  0  0  0
   -2.0306    0.6895    0.7042 H   0  0  0  0  0  0  0  0  0  0  0  0
    1.8700    0.5790    0.9189 H   0  0  0  0  0  0  0  0  0  0  0  0
  1  2  1  0
  1  3  1  0
  2  4  1  0
  2  5  1  0
  6  7  1  0
  6  9  1  0
  6 10  1  0
  6 11  1  0
  7  8  2  3
  8 12  1  0
M  RAD  2   1   2   7   2
M  END
>  <reaction>  (13) 
rmg_rxn_16571

>  <mol_properties>  (13) 
{"0": {"label": "*1", "atom_type": "N3s"}, "1": {"label": "*0", "atom_type": "N3s"}, "2": {"label": "*2", "atom_type": "H0"}, "6": {"label": "*3", "atom_type": "Cd"}, "7": {"label": "*4", "atom_type": "N3d"}}

>  <type>  (13) 
unop_9

>  <geom_source>  (13) 
Heuristics

$$$$

     RDKit          3D

 12 10  0  0  0  0  0  0  0  0999 V2000
    1.3815   -0.9144    0.0007 N   0  0  0  0  0  2  0  0  0  0  0  0
    2.0283    0.1611   -0.0007 N   0  0  0  0  0  0  0  0  0  0  0  0
    0.1493   -0.7205    0.0012 H   0  0  0  0  0  0  0  0  0  0  0  0
    2.3223    0.6398   -0.8703 H   0  0  0  0  0  0  0  0  0  0  0  0
    2.3235    0.6415    0.8675 H   0  0  0  0  0  0  0  0  0  0  0  0
   -2.1481   -0.6492   -0.0005 C   0  0  0  0  0  0  0  0  0  0  0  0
   -0.8625    0.0628    0.0005 C   0  0  0  0  0  3  0  0  0  0  0  0
   -0.6642    1.2839    0.0003 N   0  0  0  0  0  0  0  0  0  0  0  0
   -2.9779    0.0554   -0.0020 H   0  0  0  0  0  0  0  0  0  0  0  0
   -2.2049   -1.2898   -0.8792 H   0  0  0  0  0  0  0  0  0  0  0  0
   -2.2071   -1.2885    0.8790 H   0  0  0  0  0  0  0  0  0  0  0  0
    0.3173    1.5772    0.0008 H   0  0  0  0  0  0  0  0  0  0  0  0
  1  2  1  0
  1  3  1  0
  2  4  1  0
  2  5  1  0
  6  7  1  0
  6  9  1  0
  6 10  1  0
  6 11  1  0
  7  8  2  3
  8 12  1  0
M  RAD  2   1   2   7   2
M  END
>  <reaction>  (14) 
rmg_rxn_16571

>  <mol_properties>  (14) 
{"0": {"label": "*1", "atom_type": "N3s"}, "1": {"label": "*0", "atom_type": "N3s"}, "2": {"label": "*2", "atom_type": "H0"}, "6": {"label": "*3", "atom_type": "Cd"}, "7": {"label": "*4", "atom_type": "N3d"}}

>  <type>  (14) 
unop_10

>  <geom_source>  (14) 
Heuristics

$$$$

     RDKit          3D

 12 10  0  0  0  0  0  0  0  0999 V2000
   -0.0975   -1.6759   -0.1543 N   0  0  0  0  0  2  0  0  0  0  0  0
   -0.0975   -1.6759   -1.4953 N   0  0  0  0  0  0  0  0  0  0  0  0
   -0.0975   -0.5001    0.1859 H   0  0  0  0  0  0  0  0  0  0  0  0
    0.0904   -2.5759   -1.9042 H   0  0  0  0  0  0  0  0  0  0  0  0
    0.2645   -0.8875   -2.0128 H   0  0  0  0  0  0  0  0  0  0  0  0
    0.5753    1.7089   -0.3880 C   0  0  0  0  0  0  0  0  0  0  0  0
   -0.0975    0.7651    0.5521 C   0  0  0  0  0  3  0  0  0  0  0  0
   -0.3362    1.0759    1.7532 N   0  0  0  0  0  0  0  0  0  0  0  0
    0.8052    2.6458    0.1163 H   0  0  0  0  0  0  0  0  0  0  0  0
    1.4969    1.2651   -0.7730 H   0  0  0  0  0  0  0  0  0  0  0  0
   -0.0676    1.9057   -1.2497 H   0  0  0  0  0  0  0  0  0  0  0  0
   -0.7981    0.3126    2.2433 H   0  0  0  0  0  0  0  0  0  0  0  0
  1  2  1  0
  1  3  1  0
  2  4  1  0
  2  5  1  0
  6  7  1  0
  6  9  1  0
  6 10  1  0
  6 11  1  0
  7  8  2  3
  8 12  1  0
M  RAD  2   1   2   7   2
M  END
>  <reaction>  (15) 
rmg_rxn_16571

>  <mol_properties>  (15) 
{"0": {"label": "*1", "atom_type": "N3s"}, "1": {"label": "*0", "atom_type": "N3s"}, "2": {"label": "*2", "atom_type": "H0"}, "6": {"label": "*3", "atom_type": "Cd"}, "7": {"label": "*4", "atom_type": "N3d"}}

>  <type>  (15) 
unop_11

>  <geom_source>  (15) 
Heuristics

$$$$

     RDKit          3D

 12 10  0  0  0  0  0  0  0  0999 V2000
    0.1141   -1.6333   -0.2302 N   0  0  0  0  0  2  0  0  0  0  0  0
    0.1141   -1.6333   -1.5712 N   0  0  0  0  0  0  0  0  0  0  0  0
    0.1141   -0.4575    0.1100 H   0  0  0  0  0  0  0  0  0  0  0  0
    0.3021   -2.5333   -1.9801 H   0  0  0  0  0  0  0  0  0  0  0  0
    0.4761   -0.8449   -2.0887 H   0  0  0  0  0  0  0  0  0  0  0  0
   -1.0512    1.6146    0.0093 C   0  0  0  0  0  0  0  0  0  0  0  0
    0.1141    0.8077    0.4762 C   0  0  0  0  0  3  0  0  0  0  0  0
    0.6958    1.0470    1.5719 N   0  0  0  0  0  0  0  0  0  0  0  0
   -1.2894    2.3905    0.7347 H   0  0  0  0  0  0  0  0  0  0  0  0
   -0.8292    2.0737   -0.9575 H   0  0  0  0  0  0  0  0  0  0  0  0
   -1.9221    0.9705   -0.1366 H   0  0  0  0  0  0  0  0  0  0  0  0
    1.4656    0.3991    1.7261 H   0  0  0  0  0  0  0  0  0  0  0  0
  1  2  1  0
  1  3  1  0
  2  4  1  0
  2  5  1  0
  6  7  1  0
  6  9  1  0
  6 10  1  0
  6 11  1  0
  7  8  2  3
  8 12  1  0
M  RAD  2   1   2   7   2
M  END
>  <reaction>  (16) 
rmg_rxn_16571

>  <mol_properties>  (16) 
{"0": {"label": "*1", "atom_type": "N3s"}, "1": {"label": "*0", "atom_type": "N3s"}, "2": {"label": "*2", "atom_type": "H0"}, "6": {"label": "*3", "atom_type": "Cd"}, "7": {"label": "*4", "atom_type": "N3d"}}

>  <type>  (16) 
unop_12

>  <geom_source>  (16) 
Heuristics

$$$$

     RDKit          3D

 12 10  0  0  0  0  0  0  0  0999 V2000
    0.0536   -1.6167   -0.2880 N   0  0  0  0  0  2  0  0  0  0  0  0
    0.0536   -1.6167   -1.6290 N   0  0  0  0  0  0  0  0  0  0  0  0
    0.0536   -0.4410    0.0522 H   0  0  0  0  0  0  0  0  0  0  0  0
    0.2416   -2.5167   -2.0379 H   0  0  0  0  0  0  0  0  0  0  0  0
    0.4156   -0.8283   -2.1465 H   0  0  0  0  0  0  0  0  0  0  0  0
    0.7264    1.1203    1.7171 C   0  0  0  0  0  0  0  0  0  0  0  0
    0.0536    0.8243    0.4183 C   0  0  0  0  0  3  0  0  0  0  0  0
   -0.9315    1.5003    0.0074 N   0  0  0  0  0  0  0  0  0  0  0  0
    0.2461    1.9646    2.2085 H   0  0  0  0  0  0  0  0  0  0  0  0
    0.6861    0.2454    2.3710 H   0  0  0  0  0  0  0  0  0  0  0  0
    1.7830    1.3460    1.5520 H   0  0  0  0  0  0  0  0  0  0  0  0
   -1.2599    1.1574   -0.8930 H   0  0  0  0  0  0  0  0  0  0  0  0
  1  2  1  0
  1  3  1  0
  2  4  1  0
  2  5  1  0
  6  7  1  0
  6  9  1  0
  6 10  1  0
  6 11  1  0
  7  8  2  3
  8 12  1  0
M  RAD  2   1   2   7   2
M  END
>  <reaction>  (17) 
rmg_rxn_16571

>  <mol_properties>  (17) 
{"0": {"label": "*1", "atom_type": "N3s"}, "1": {"label": "*0", "atom_type": "N3s"}, "2": {"label": "*2", "atom_type": "H0"}, "6": {"label": "*3", "atom_type": "Cd"}, "7": {"label": "*4", "atom_type": "N3d"}}

>  <type>  (17) 
unop_13

>  <geom_source>  (17) 
Heuristics

$$$$

     RDKit          3D

 12 10  0  0  0  0  0  0  0  0999 V2000
   -0.0076   -1.6953   -0.1210 N   0  0  0  0  0  2  0  0  0  0  0  0
   -0.0076   -1.6953   -1.4620 N   0  0  0  0  0  0  0  0  0  0  0  0
   -0.0076   -0.5195    0.2192 H   0  0  0  0  0  0  0  0  0  0  0  0
    0.1804   -2.5952   -1.8708 H   0  0  0  0  0  0  0  0  0  0  0  0
    0.3544   -0.9069   -1.9795 H   0  0  0  0  0  0  0  0  0  0  0  0
   -0.0076    1.7397   -0.5278 C   0  0  0  0  0  0  0  0  0  0  0  0
   -0.0076    0.7458    0.5854 C   0  0  0  0  0  3  0  0  0  0  0  0
   -0.0076    1.1012    1.7978 N   0  0  0  0  0  0  0  0  0  0  0  0
   -0.0076    2.7531   -0.1305 H   0  0  0  0  0  0  0  0  0  0  0  0
    0.8707    1.5957   -1.1623 H   0  0  0  0  0  0  0  0  0  0  0  0
   -0.8858    1.5957   -1.1623 H   0  0  0  0  0  0  0  0  0  0  0  0
   -0.0076    0.2923    2.4157 H   0  0  0  0  0  0  0  0  0  0  0  0
  1  2  1  0
  1  3  1  0
  2  4  1  0
  2  5  1  0
  6  7  1  0
  6  9  1  0
  6 10  1  0
  6 11  1  0
  7  8  2  3
  8 12  1  0
M  RAD  2   1   2   7   2
M  END
>  <reaction>  (18) 
rmg_rxn_16571

>  <mol_properties>  (18) 
{"0": {"label": "*1", "atom_type": "N3s"}, "1": {"label": "*0", "atom_type": "N3s"}, "2": {"label": "*2", "atom_type": "H0"}, "6": {"label": "*3", "atom_type": "Cd"}, "7": {"label": "*4", "atom_type": "N3d"}}

>  <type>  (18) 
unop_14

>  <geom_source>  (18) 
Heuristics

$$$$

     RDKit          3D

 12 10  0  0  0  0  0  0  0  0999 V2000
    0.0824   -1.6759   -0.1543 N   0  0  0  0  0  2  0  0  0  0  0  0
    0.0824   -1.6759   -1.4953 N   0  0  0  0  0  0  0  0  0  0  0  0
    0.0824   -0.5001    0.1859 H   0  0  0  0  0  0  0  0  0  0  0  0
    0.2703   -2.5759   -1.9042 H   0  0  0  0  0  0  0  0  0  0  0  0
    0.4443   -0.8875   -2.0128 H   0  0  0  0  0  0  0  0  0  0  0  0
   -0.5904    1.7089   -0.3880 C   0  0  0  0  0  0  0  0  0  0  0  0
    0.0824    0.7651    0.5521 C   0  0  0  0  0  3  0  0  0  0  0  0
    0.3211    1.0759    1.7532 N   0  0  0  0  0  0  0  0  0  0  0  0
   -0.8204    2.6458    0.1163 H   0  0  0  0  0  0  0  0  0  0  0  0
    0.0525    1.9057   -1.2497 H   0  0  0  0  0  0  0  0  0  0  0  0
   -1.5121    1.2651   -0.7730 H   0  0  0  0  0  0  0  0  0  0  0  0
    0.7829    0.3125    2.2433 H   0  0  0  0  0  0  0  0  0  0  0  0
  1  2  1  0
  1  3  1  0
  2  4  1  0
  2  5  1  0
  6  7  1  0
  6  9  1  0
  6 10  1  0
  6 11  1  0
  7  8  2  3
  8 12  1  0
M  RAD  2   1   2   7   2
M  END
>  <reaction>  (19) 
rmg_rxn_16571

>  <mol_properties>  (19) 
{"0": {"label": "*1", "atom_type": "N3s"}, "1": {"label": "*0", "atom_type": "N3s"}, "2": {"label": "*2", "atom_type": "H0"}, "6": {"label": "*3", "atom_type": "Cd"}, "7": {"label": "*4", "atom_type": "N3d"}}

>  <type>  (19) 
unop_15

>  <geom_source>  (19) 
gaussian_log

$$$$
