
     RDKit          3D

  9  8  0  0  0  0  0  0  0  0999 V2000
   -1.0314    0.2323   -0.1227 C   0  0  0  0  0  0  0  0  0  0  0  0
    0.3094   -0.4511    0.0063 C   0  0  0  0  0  0  0  0  0  0  0  0
    0.3197   -1.7698    0.6841 N   0  0  0  0  0  0  0  0  0  0  0  0
   -0.7498   -2.1455    1.0557 O   0  0  0  0  0  0  0  0  0  0  0  0
   -1.4744    0.4198    0.8552 H   0  0  0  0  0  0  0  0  0  0  0  0
   -0.9073    1.1865   -0.6350 H   0  0  0  0  0  0  0  0  0  0  0  0
   -1.7319   -0.3778   -0.6927 H   0  0  0  0  0  0  0  0  0  0  0  0
    1.0375    0.1401    0.5713 H   0  0  0  0  0  0  0  0  0  0  0  0
    0.7826   -0.6494   -0.9609 H   0  0  0  0  0  0  0  0  0  0  0  0
  1  2  1  0
  1  5  1  0
  1  6  1  0
  1  7  1  0
  2  3  1  0
  2  8  1  0
  2  9  1  0
  3  4  2  0
M  END
>  <reaction>  (1) 
rmg_rxn_245

>  <mol_properties>  (1) 
{"0": {"label": "donator", "atom_type": "Cs"}, "4": {"label": "d_hydrogen", "atom_type": "H0"}}

>  <type>  (1) 
r1h

$$$$

     RDKit          3D

 17 16  0  0  0  0  0  0  0  0999 V2000
    2.3128   -0.1525    1.1777 C   0  0  0  0  0  3  0  0  0  0  0  0
    1.7469    0.7266    0.1254 C   0  0  0  0  0  0  0  0  0  0  0  0
    1.6374    2.1830    0.5408 C   0  0  0  0  0  0  0  0  0  0  0  0
    2.9245    2.6874    0.7877 O   0  0  0  0  0  0  0  0  0  0  0  0
    2.9227    4.0197    1.2361 C   0  0  0  0  0  0  0  0  0  0  0  0
    4.3491    4.4603    1.4693 C   0  0  0  0  0  0  0  0  0  0  0  0
    2.1393   -1.2196    1.1557 H   0  0  0  0  0  0  0  0  0  0  0  0
    3.0313    0.2400    1.8838 H   0  0  0  0  0  0  0  0  0  0  0  0
    0.7555    0.3746   -0.1764 H   0  0  0  0  0  0  0  0  0  0  0  0
    2.3678    0.6841   -0.7826 H   0  0  0  0  0  0  0  0  0  0  0  0
    1.0170    2.2718    1.4449 H   0  0  0  0  0  0  0  0  0  0  0  0
    1.1499    2.7653   -0.2546 H   0  0  0  0  0  0  0  0  0  0  0  0
    2.4379    4.6655    0.4891 H   0  0  0  0  0  0  0  0  0  0  0  0
    2.3377    4.1015    2.1638 H   0  0  0  0  0  0  0  0  0  0  0  0
    4.9261    4.3920    0.5465 H   0  0  0  0  0  0  0  0  0  0  0  0
    4.3728    5.4939    1.8180 H   0  0  0  0  0  0  0  0  0  0  0  0
    4.8260    3.8299    2.2206 H   0  0  0  0  0  0  0  0  0  0  0  0
  1  2  1  0
  1  7  1  0
  1  8  1  0
  2  3  1  0
  2  9  1  0
  2 10  1  0
  3  4  1  0
  3 11  1  0
  3 12  1  0
  4  5  1  0
  5  6  1  0
  5 13  1  0
  5 14  1  0
  6 15  1  0
  6 16  1  0
  6 17  1  0
M  RAD  1   1   2
M  END
>  <reaction>  (2) 
rmg_rxn_245

>  <mol_properties>  (2) 
{"0": {"label": "acceptor", "atom_type": "Cs"}}

>  <type>  (2) 
r2

$$$$

     RDKit          3D

 18 17  0  0  0  0  0  0  0  0999 V2000
    2.2026   -0.7213   -0.2612 C   0  0  0  0  0  0  0  0  0  0  0  0
    1.5384    0.2638    0.6915 C   0  0  0  0  0  0  0  0  0  0  0  0
    2.2584    1.5946    0.7694 C   0  0  0  0  0  0  0  0  0  0  0  0
    2.2212    2.2185   -0.4893 O   0  0  0  0  0  0  0  0  0  0  0  0
    2.8988    3.4488   -0.5204 C   0  0  0  0  0  0  0  0  0  0  0  0
    2.7981    4.0296   -1.9118 C   0  0  0  0  0  0  0  0  0  0  0  0
    3.2294   -0.9309    0.0486 H   0  0  0  0  0  0  0  0  0  0  0  0
    2.2338   -0.3181   -1.2734 H   0  0  0  0  0  0  0  0  0  0  0  0
    1.6610   -1.6680   -0.2875 H   0  0  0  0  0  0  0  0  0  0  0  0
    1.4990   -0.1566    1.7002 H   0  0  0  0  0  0  0  0  0  0  0  0
    0.5055    0.4455    0.3835 H   0  0  0  0  0  0  0  0  0  0  0  0
    3.3038    1.4410    1.0808 H   0  0  0  0  0  0  0  0  0  0  0  0
    1.7844    2.2410    1.5226 H   0  0  0  0  0  0  0  0  0  0  0  0
    2.4596    4.1376    0.2164 H   0  0  0  0  0  0  0  0  0  0  0  0
    3.9524    3.3035   -0.2397 H   0  0  0  0  0  0  0  0  0  0  0  0
    1.7543    4.1869   -2.1856 H   0  0  0  0  0  0  0  0  0  0  0  0
    3.2472    3.3545   -2.6411 H   0  0  0  0  0  0  0  0  0  0  0  0
    3.3178    4.9878   -1.9600 H   0  0  0  0  0  0  0  0  0  0  0  0
  1  2  1  0
  1  7  1  0
  1  8  1  0
  1  9  1  0
  2  3  1  0
  2 10  1  0
  2 11  1  0
  3  4  1  0
  3 12  1  0
  3 13  1  0
  4  5  1  0
  5  6  1  0
  5 14  1  0
  5 15  1  0
  6 16  1  0
  6 17  1  0
  6 18  1  0
M  END
>  <reaction>  (3) 
rmg_rxn_245

>  <mol_properties>  (3) 
{"0": {"label": "a_hydrogen", "atom_type": "H0"}, "1": {"label": "acceptor", "atom_type": "Cs"}}

>  <type>  (3) 
r2h

$$$$

     RDKit          3D

 26 24  0  0  0  0  0  0  0  0999 V2000
    2.6354   -0.5795    1.0987 C   0  0  0  0  0  3  0  0  0  0  0  0
    3.1207    0.2928    2.2095 C   0  0  0  0  0  0  0  0  0  0  0  0
    2.2143    0.4746    3.3694 N   0  0  0  0  0  0  0  0  0  0  0  0
    1.2189   -0.1833    3.3344 O   0  0  0  0  0  0  0  0  0  0  0  0
    1.5633    0.0403    0.5600 H   0  0  0  0  0  0  0  0  0  0  0  0
    3.3401   -0.6578    0.2749 H   0  0  0  0  0  0  0  0  0  0  0  0
    2.2465   -1.5452    1.4101 H   0  0  0  0  0  0  0  0  0  0  0  0
    3.3465    1.3133    1.8828 H   0  0  0  0  0  0  0  0  0  0  0  0
    4.0473   -0.0686    2.6769 H   0  0  0  0  0  0  0  0  0  0  0  0
    0.4702    0.6476    0.1019 C   0  0  0  0  0  0  0  0  0  0  0  0
   -0.6611   -0.3268    0.2981 C   0  0  0  0  0  0  0  0  0  0  0  0
   -2.0118    0.2322   -0.1140 C   0  0  0  0  0  0  0  0  0  0  0  0
   -1.9970    0.5144   -1.4903 O   0  0  0  0  0  0  0  0  0  0  0  0
   -3.2040    1.0614   -1.9577 C   0  0  0  0  0  0  0  0  0  0  0  0
   -3.0813    1.3251   -3.4406 C   0  0  0  0  0  0  0  0  0  0  0  0
    0.6985    0.8806   -0.9355 H   0  0  0  0  0  0  0  0  0  0  0  0
    0.4005    1.5469    0.7143 H   0  0  0  0  0  0  0  0  0  0  0  0
   -0.7195   -0.6159    1.3506 H   0  0  0  0  0  0  0  0  0  0  0  0
   -0.4746   -1.2378   -0.2768 H   0  0  0  0  0  0  0  0  0  0  0  0
   -2.2319    1.1473    0.4568 H   0  0  0  0  0  0  0  0  0  0  0  0
   -2.8048   -0.4956    0.1132 H   0  0  0  0  0  0  0  0  0  0  0  0
   -4.0329    0.3663   -1.7581 H   0  0  0  0  0  0  0  0  0  0  0  0
   -3.4264    1.9938   -1.4183 H   0  0  0  0  0  0  0  0  0  0  0  0
   -2.8750    0.3987   -3.9778 H   0  0  0  0  0  0  0  0  0  0  0  0
   -4.0086    1.7510   -3.8268 H   0  0  0  0  0  0  0  0  0  0  0  0
   -2.2693    2.0258   -3.6381 H   0  0  0  0  0  0  0  0  0  0  0  0
  1  2  1  0
  1  6  1  0
  1  7  1  0
  2  3  1  0
  2  8  1  0
  2  9  1  0
  3  4  2  0
  5 10  1  0
 10 11  1  0
 10 16  1  0
 10 17  1  0
 11 12  1  0
 11 18  1  0
 11 19  1  0
 12 13  1  0
 12 20  1  0
 12 21  1  0
 13 14  1  0
 14 15  1  0
 14 22  1  0
 14 23  1  0
 15 24  1  0
 15 25  1  0
 15 26  1  0
M  RAD  1   1   2
M  END
>  <reaction>  (4) 
rmg_rxn_245

>  <mol_properties>  (4) 
{"0": {"label": "*3", "atom_type": "Cs"}, "1": {"label": "*4", "atom_type": "Cs"}, "4": {"label": "*2", "atom_type": "H0"}, "9": {"label": "*1", "atom_type": "Cs"}, "10": {"label": "*0", "atom_type": "Cs"}}

>  <type>  (4) 
ts

$$$$

     RDKit          3D

 26 24  0  0  0  0  0  0  0  0999 V2000
    2.3767    0.0972    1.7984 C   0  0  0  0  0  0  0  0  0  0  0  0
    2.3767   -1.0797    2.7451 C   0  0  0  0  0  0  0  0  0  0  0  0
    2.3767   -2.4279    2.1278 N   0  0  0  0  0  0  0  0  0  0  0  0
    2.3767   -2.4279    0.9349 O   0  0  0  0  0  0  0  0  0  0  0  0
    1.3205    0.0845    1.0273 H   0  0  0  0  0  0  0  0  0  0  0  0
    2.3767    1.0257    2.3698 H   0  0  0  0  0  0  0  0  0  0  0  0
    3.2568    0.0866    1.1558 H   0  0  0  0  0  0  0  0  0  0  0  0
    1.5055   -1.0946    3.4081 H   0  0  0  0  0  0  0  0  0  0  0  0
    3.2479   -1.0946    3.4081 H   0  0  0  0  0  0  0  0  0  0  0  0
    0.2632    0.0717    0.2553 C   0  0  0  0  0  3  0  0  0  0  0  0
   -0.5712    1.3311    0.4478 C   0  0  0  0  0  0  0  0  0  0  0  0
   -1.1278    1.8807   -0.8496 C   0  0  0  0  0  0  0  0  0  0  0  0
   -2.0062    0.9406   -1.4149 O   0  0  0  0  0  0  0  0  0  0  0  0
   -2.5456    1.3527   -2.6448 C   0  0  0  0  0  0  0  0  0  0  0  0
   -3.4695    0.2743   -3.1616 C   0  0  0  0  0  0  0  0  0  0  0  0
   -0.3334   -0.7216   -0.1949 H   0  0  0  0  0  0  0  0  0  0  0  0
    1.1150    0.2653   -0.4015 H   0  0  0  0  0  0  0  0  0  0  0  0
    0.0326    2.1150    0.9134 H   0  0  0  0  0  0  0  0  0  0  0  0
   -1.4049    1.1290    1.1252 H   0  0  0  0  0  0  0  0  0  0  0  0
   -0.3069    2.0961   -1.5519 H   0  0  0  0  0  0  0  0  0  0  0  0
   -1.6581    2.8268   -0.6665 H   0  0  0  0  0  0  0  0  0  0  0  0
   -3.0926    2.2985   -2.5165 H   0  0  0  0  0  0  0  0  0  0  0  0
   -1.7356    1.5424   -3.3644 H   0  0  0  0  0  0  0  0  0  0  0  0
   -4.2807    0.0952   -2.4551 H   0  0  0  0  0  0  0  0  0  0  0  0
   -3.9017    0.5731   -4.1179 H   0  0  0  0  0  0  0  0  0  0  0  0
   -2.9248   -0.6597   -3.3040 H   0  0  0  0  0  0  0  0  0  0  0  0
  1  2  1  0
  1  5  1  0
  1  6  1  0
  1  7  1  0
  2  3  1  0
  2  8  1  0
  2  9  1  0
  3  4  2  0
 10 11  1  0
 10 16  1  0
 10 17  1  0
 11 12  1  0
 11 18  1  0
 11 19  1  0
 12 13  1  0
 12 20  1  0
 12 21  1  0
 13 14  1  0
 14 15  1  0
 14 22  1  0
 14 23  1  0
 15 24  1  0
 15 25  1  0
 15 26  1  0
M  RAD  1  10   2
M  END
>  <reaction>  (5) 
rmg_rxn_245

>  <mol_properties>  (5) 
{"0": {"label": "*3", "atom_type": "Cs"}, "1": {"label": "*4", "atom_type": "Cs"}, "4": {"label": "*2", "atom_type": "H0"}, "9": {"label": "*1", "atom_type": "Cs"}, "10": {"label": "*0", "atom_type": "Cs"}}

>  <type>  (5) 
unop_1

>  <geom_source>  (5) 
Heuristics

$$$$

     RDKit          3D

 26 24  0  0  0  0  0  0  0  0999 V2000
    2.6418    0.9771    1.4781 C   0  0  0  0  0  0  0  0  0  0  0  0
    2.6418   -0.1998    2.4248 C   0  0  0  0  0  0  0  0  0  0  0  0
    2.6418   -1.5480    1.8076 N   0  0  0  0  0  0  0  0  0  0  0  0
    2.6418   -1.5480    0.6146 O   0  0  0  0  0  0  0  0  0  0  0  0
    1.5857    0.9644    0.7070 H   0  0  0  0  0  0  0  0  0  0  0  0
    2.6418    1.9056    2.0495 H   0  0  0  0  0  0  0  0  0  0  0  0
    3.5220    0.9665    0.8355 H   0  0  0  0  0  0  0  0  0  0  0  0
    1.7706   -0.2147    3.0879 H   0  0  0  0  0  0  0  0  0  0  0  0
    3.5130   -0.2147    3.0879 H   0  0  0  0  0  0  0  0  0  0  0  0
    0.5284    0.9517   -0.0649 C   0  0  0  0  0  3  0  0  0  0  0  0
   -0.6550    0.2989    0.6370 C   0  0  0  0  0  0  0  0  0  0  0  0
   -1.9869    0.6392    0.0003 C   0  0  0  0  0  0  0  0  0  0  0  0
   -2.0167    0.1389   -1.3127 O   0  0  0  0  0  0  0  0  0  0  0  0
   -3.2068    0.4401   -1.9957 C   0  0  0  0  0  0  0  0  0  0  0  0
   -3.1334   -0.1399   -3.3892 C   0  0  0  0  0  0  0  0  0  0  0  0
    0.5839    0.6325   -1.1057 H   0  0  0  0  0  0  0  0  0  0  0  0
    0.4367    2.0406   -0.0521 H   0  0  0  0  0  0  0  0  0  0  0  0
   -0.6924    0.6141    1.6835 H   0  0  0  0  0  0  0  0  0  0  0  0
   -0.5381   -0.7879    0.6376 H   0  0  0  0  0  0  0  0  0  0  0  0
   -2.1323    1.7311   -0.0113 H   0  0  0  0  0  0  0  0  0  0  0  0
   -2.8112    0.2059    0.5856 H   0  0  0  0  0  0  0  0  0  0  0  0
   -4.0675    0.0241   -1.4510 H   0  0  0  0  0  0  0  0  0  0  0  0
   -3.3480    1.5301   -2.0398 H   0  0  0  0  0  0  0  0  0  0  0  0
   -3.0073   -1.2223   -3.3464 H   0  0  0  0  0  0  0  0  0  0  0  0
   -4.0492    0.0814   -3.9395 H   0  0  0  0  0  0  0  0  0  0  0  0
   -2.2896    0.2835   -3.9353 H   0  0  0  0  0  0  0  0  0  0  0  0
  1  2  1  0
  1  5  1  0
  1  6  1  0
  1  7  1  0
  2  3  1  0
  2  8  1  0
  2  9  1  0
  3  4  2  0
 10 11  1  0
 10 16  1  0
 10 17  1  0
 11 12  1  0
 11 18  1  0
 11 19  1  0
 12 13  1  0
 12 20  1  0
 12 21  1  0
 13 14  1  0
 14 15  1  0
 14 22  1  0
 14 23  1  0
 15 24  1  0
 15 25  1  0
 15 26  1  0
M  RAD  1  10   2
M  END
>  <reaction>  (6) 
rmg_rxn_245

>  <mol_properties>  (6) 
{"0": {"label": "*3", "atom_type": "Cs"}, "1": {"label": "*4", "atom_type": "Cs"}, "4": {"label": "*2", "atom_type": "H0"}, "9": {"label": "*1", "atom_type": "Cs"}, "10": {"label": "*0", "atom_type": "Cs"}}

>  <type>  (6) 
unop_2

>  <geom_source>  (6) 
Heuristics

$$$$

     RDKit          3D

 26 24  0  0  0  0  0  0  0  0999 V2000
    2.3825    0.2135    1.8517 C   0  0  0  0  0  0  0  0  0  0  0  0
    2.3825   -0.9634    2.7984 C   0  0  0  0  0  0  0  0  0  0  0  0
    2.3825   -2.3116    2.1811 N   0  0  0  0  0  0  0  0  0  0  0  0
    2.3825   -2.3116    0.9882 O   0  0  0  0  0  0  0  0  0  0  0  0
    1.3263    0.2008    1.0806 H   0  0  0  0  0  0  0  0  0  0  0  0
    2.3825    1.1420    2.4231 H   0  0  0  0  0  0  0  0  0  0  0  0
    3.2626    0.2029    1.2091 H   0  0  0  0  0  0  0  0  0  0  0  0
    1.5113   -0.9783    3.4614 H   0  0  0  0  0  0  0  0  0  0  0  0
    3.2537   -0.9783    3.4614 H   0  0  0  0  0  0  0  0  0  0  0  0
    0.2690    0.1880    0.3086 C   0  0  0  0  0  3  0  0  0  0  0  0
   -0.1425    1.6017   -0.0806 C   0  0  0  0  0  0  0  0  0  0  0  0
   -0.8309    1.6717   -1.4284 C   0  0  0  0  0  0  0  0  0  0  0  0
   -2.0300    0.9406   -1.3774 O   0  0  0  0  0  0  0  0  0  0  0  0
   -2.7217    0.9207   -2.6000 C   0  0  0  0  0  0  0  0  0  0  0  0
   -3.9874    0.1119   -2.4349 C   0  0  0  0  0  0  0  0  0  0  0  0
   -0.6010   -0.4663    0.3627 H   0  0  0  0  0  0  0  0  0  0  0  0
    0.9604   -0.2326   -0.4258 H   0  0  0  0  0  0  0  0  0  0  0  0
    0.7354    2.2526   -0.1173 H   0  0  0  0  0  0  0  0  0  0  0  0
   -0.8143    2.0182    0.6744 H   0  0  0  0  0  0  0  0  0  0  0  0
   -0.1736    1.2596   -2.2103 H   0  0  0  0  0  0  0  0  0  0  0  0
   -1.0405    2.7179   -1.6955 H   0  0  0  0  0  0  0  0  0  0  0  0
   -2.9600    1.9481   -2.9130 H   0  0  0  0  0  0  0  0  0  0  0  0
   -2.0853    0.4832   -3.3834 H   0  0  0  0  0  0  0  0  0  0  0  0
   -4.6253    0.5528   -1.6680 H   0  0  0  0  0  0  0  0  0  0  0  0
   -4.5427    0.0829   -3.3737 H   0  0  0  0  0  0  0  0  0  0  0  0
   -3.7515   -0.9111   -2.1397 H   0  0  0  0  0  0  0  0  0  0  0  0
  1  2  1  0
  1  5  1  0
  1  6  1  0
  1  7  1  0
  2  3  1  0
  2  8  1  0
  2  9  1  0
  3  4  2  0
 10 11  1  0
 10 16  1  0
 10 17  1  0
 11 12  1  0
 11 18  1  0
 11 19  1  0
 12 13  1  0
 12 20  1  0
 12 21  1  0
 13 14  1  0
 14 15  1  0
 14 22  1  0
 14 23  1  0
 15 24  1  0
 15 25  1  0
 15 26  1  0
M  RAD  1  10   2
M  END
>  <reaction>  (7) 
rmg_rxn_245

>  <mol_properties>  (7) 
{"0": {"label": "*3", "atom_type": "Cs"}, "1": {"label": "*4", "atom_type": "Cs"}, "4": {"label": "*2", "atom_type": "H0"}, "9": {"label": "*1", "atom_type": "Cs"}, "10": {"label": "*0", "atom_type": "Cs"}}

>  <type>  (7) 
unop_3

>  <geom_source>  (7) 
Heuristics

$$$$

     RDKit          3D

 26 24  0  0  0  0  0  0  0  0999 V2000
    1.3453    0.7590    2.4205 C   0  0  0  0  0  0  0  0  0  0  0  0
    1.3453   -0.4179    3.3672 C   0  0  0  0  0  0  0  0  0  0  0  0
    1.3453   -1.7661    2.7499 N   0  0  0  0  0  0  0  0  0  0  0  0
    1.3453   -1.7661    1.5570 O   0  0  0  0  0  0  0  0  0  0  0  0
    0.2891    0.7463    1.6494 H   0  0  0  0  0  0  0  0  0  0  0  0
    1.3453    1.6875    2.9919 H   0  0  0  0  0  0  0  0  0  0  0  0
    2.2254    0.7484    1.7779 H   0  0  0  0  0  0  0  0  0  0  0  0
    0.4741   -0.4328    4.0302 H   0  0  0  0  0  0  0  0  0  0  0  0
    2.2165   -0.4328    4.0302 H   0  0  0  0  0  0  0  0  0  0  0  0
   -0.7682    0.7335    0.8774 C   0  0  0  0  0  3  0  0  0  0  0  0
   -0.8191   -0.5365    0.0386 C   0  0  0  0  0  0  0  0  0  0  0  0
   -1.4744   -0.3322   -1.3120 C   0  0  0  0  0  0  0  0  0  0  0  0
   -0.7128    0.5764   -2.0666 O   0  0  0  0  0  0  0  0  0  0  0  0
   -1.2672    0.8546   -3.3270 C   0  0  0  0  0  0  0  0  0  0  0  0
   -0.3749    1.8368   -4.0499 C   0  0  0  0  0  0  0  0  0  0  0  0
   -0.2028    1.5121    0.3653 H   0  0  0  0  0  0  0  0  0  0  0  0
   -1.7742    1.1173    1.0649 H   0  0  0  0  0  0  0  0  0  0  0  0
   -1.3755   -1.3150    0.5679 H   0  0  0  0  0  0  0  0  0  0  0  0
    0.1913   -0.9219   -0.1206 H   0  0  0  0  0  0  0  0  0  0  0  0
   -2.4976    0.0544   -1.1811 H   0  0  0  0  0  0  0  0  0  0  0  0
   -1.5530   -1.2903   -1.8465 H   0  0  0  0  0  0  0  0  0  0  0  0
   -1.3651   -0.0750   -3.9073 H   0  0  0  0  0  0  0  0  0  0  0  0
   -2.2790    1.2696   -3.2080 H   0  0  0  0  0  0  0  0  0  0  0  0
    0.6246    1.4206   -4.1805 H   0  0  0  0  0  0  0  0  0  0  0  0
   -0.7861    2.0679   -5.0338 H   0  0  0  0  0  0  0  0  0  0  0  0
   -0.2899    2.7646   -3.4830 H   0  0  0  0  0  0  0  0  0  0  0  0
  1  2  1  0
  1  5  1  0
  1  6  1  0
  1  7  1  0
  2  3  1  0
  2  8  1  0
  2  9  1  0
  3  4  2  0
 10 11  1  0
 10 16  1  0
 10 17  1  0
 11 12  1  0
 11 18  1  0
 11 19  1  0
 12 13  1  0
 12 20  1  0
 12 21  1  0
 13 14  1  0
 14 15  1  0
 14 22  1  0
 14 23  1  0
 15 24  1  0
 15 25  1  0
 15 26  1  0
M  RAD  1  10   2
M  END
>  <reaction>  (8) 
rmg_rxn_245

>  <mol_properties>  (8) 
{"0": {"label": "*3", "atom_type": "Cs"}, "1": {"label": "*4", "atom_type": "Cs"}, "4": {"label": "*2", "atom_type": "H0"}, "9": {"label": "*1", "atom_type": "Cs"}, "10": {"label": "*0", "atom_type": "Cs"}}

>  <type>  (8) 
unop_4

>  <geom_source>  (8) 
Heuristics

$$$$

     RDKit          3D

 26 24  0  0  0  0  0  0  0  0999 V2000
    2.4673   -0.0245    1.5744 C   0  0  0  0  0  0  0  0  0  0  0  0
    2.4673   -1.2015    2.5211 C   0  0  0  0  0  0  0  0  0  0  0  0
    2.4673   -2.5496    1.9038 N   0  0  0  0  0  0  0  0  0  0  0  0
    2.4673   -2.5496    0.7109 O   0  0  0  0  0  0  0  0  0  0  0  0
    1.4111   -0.0372    0.8033 H   0  0  0  0  0  0  0  0  0  0  0  0
    2.4673    0.9039    2.1458 H   0  0  0  0  0  0  0  0  0  0  0  0
    3.3474   -0.0351    0.9318 H   0  0  0  0  0  0  0  0  0  0  0  0
    1.5961   -1.2163    3.1841 H   0  0  0  0  0  0  0  0  0  0  0  0
    3.3385   -1.2163    3.1841 H   0  0  0  0  0  0  0  0  0  0  0  0
    0.3538   -0.0500    0.0313 C   0  0  0  0  0  3  0  0  0  0  0  0
    0.3567    1.1377   -0.9219 C   0  0  0  0  0  0  0  0  0  0  0  0
   -0.8452    1.1644   -1.8437 C   0  0  0  0  0  0  0  0  0  0  0  0
   -2.0154    1.3096   -1.0791 O   0  0  0  0  0  0  0  0  0  0  0  0
   -3.1885    1.3088   -1.8520 C   0  0  0  0  0  0  0  0  0  0  0  0
   -4.3799    1.4686   -0.9363 C   0  0  0  0  0  0  0  0  0  0  0  0
   -0.5321   -0.0334    0.6661 H   0  0  0  0  0  0  0  0  0  0  0  0
    0.3535   -0.9929   -0.5211 H   0  0  0  0  0  0  0  0  0  0  0  0
    1.2565    1.1194   -1.5431 H   0  0  0  0  0  0  0  0  0  0  0  0
    0.3813    2.0728   -0.3563 H   0  0  0  0  0  0  0  0  0  0  0  0
   -0.8933    0.2326   -2.4292 H   0  0  0  0  0  0  0  0  0  0  0  0
   -0.7589    1.9957   -2.5588 H   0  0  0  0  0  0  0  0  0  0  0  0
   -3.1549    2.1279   -2.5857 H   0  0  0  0  0  0  0  0  0  0  0  0
   -3.2628    0.3692   -2.4192 H   0  0  0  0  0  0  0  0  0  0  0  0
   -4.3140    2.4064   -0.3837 H   0  0  0  0  0  0  0  0  0  0  0  0
   -5.3044    1.4713   -1.5157 H   0  0  0  0  0  0  0  0  0  0  0  0
   -4.4228    0.6486   -0.2185 H   0  0  0  0  0  0  0  0  0  0  0  0
  1  2  1  0
  1  5  1  0
  1  6  1  0
  1  7  1  0
  2  3  1  0
  2  8  1  0
  2  9  1  0
  3  4  2  0
 10 11  1  0
 10 16  1  0
 10 17  1  0
 11 12  1  0
 11 18  1  0
 11 19  1  0
 12 13  1  0
 12 20  1  0
 12 21  1  0
 13 14  1  0
 14 15  1  0
 14 22  1  0
 14 23  1  0
 15 24  1  0
 15 25  1  0
 15 26  1  0
M  RAD  1  10   2
M  END
>  <reaction>  (9) 
rmg_rxn_245

>  <mol_properties>  (9) 
{"0": {"label": "*3", "atom_type": "Cs"}, "1": {"label": "*4", "atom_type": "Cs"}, "4": {"label": "*2", "atom_type": "H0"}, "9": {"label": "*1", "atom_type": "Cs"}, "10": {"label": "*0", "atom_type": "Cs"}}

>  <type>  (9) 
unop_5

>  <geom_source>  (9) 
Heuristics

$$$$

     RDKit          3D

 26 24  0  0  0  0  0  0  0  0999 V2000
    1.2566    0.1088    2.3326 C   0  0  0  0  0  0  0  0  0  0  0  0
    1.2566   -1.0682    3.2794 C   0  0  0  0  0  0  0  0  0  0  0  0
    1.2566   -2.4163    2.6621 N   0  0  0  0  0  0  0  0  0  0  0  0
    1.2566   -2.4163    1.4691 O   0  0  0  0  0  0  0  0  0  0  0  0
    0.2005    0.0961    1.5615 H   0  0  0  0  0  0  0  0  0  0  0  0
    1.2566    1.0372    2.9041 H   0  0  0  0  0  0  0  0  0  0  0  0
    2.1368    0.0982    1.6900 H   0  0  0  0  0  0  0  0  0  0  0  0
    0.3854   -1.0830    3.9424 H   0  0  0  0  0  0  0  0  0  0  0  0
    2.1278   -1.0830    3.9424 H   0  0  0  0  0  0  0  0  0  0  0  0
   -0.8568    0.0833    0.7896 C   0  0  0  0  0  3  0  0  0  0  0  0
   -0.5899   -0.6935   -0.4928 C   0  0  0  0  0  0  0  0  0  0  0  0
   -1.2209   -0.0595   -1.7155 C   0  0  0  0  0  0  0  0  0  0  0  0
   -0.6526    1.2080   -1.9285 O   0  0  0  0  0  0  0  0  0  0  0  0
   -1.2054    1.8880   -3.0266 C   0  0  0  0  0  0  0  0  0  0  0  0
   -0.5275    3.2315   -3.1640 C   0  0  0  0  0  0  0  0  0  0  0  0
   -0.4600    1.0959    0.7172 H   0  0  0  0  0  0  0  0  0  0  0  0
   -1.9297    0.1562    0.9848 H   0  0  0  0  0  0  0  0  0  0  0  0
   -0.9785   -1.7118   -0.4037 H   0  0  0  0  0  0  0  0  0  0  0  0
    0.4865   -0.7791   -0.6626 H   0  0  0  0  0  0  0  0  0  0  0  0
   -2.3089    0.0369   -1.5723 H   0  0  0  0  0  0  0  0  0  0  0  0
   -1.0625   -0.6949   -2.5992 H   0  0  0  0  0  0  0  0  0  0  0  0
   -1.0703    1.2937   -3.9425 H   0  0  0  0  0  0  0  0  0  0  0  0
   -2.2881    2.0167   -2.8812 H   0  0  0  0  0  0  0  0  0  0  0  0
    0.5441    3.1045   -3.3220 H   0  0  0  0  0  0  0  0  0  0  0  0
   -0.9410    3.7786   -4.0126 H   0  0  0  0  0  0  0  0  0  0  0  0
   -0.6741    3.8275   -2.2625 H   0  0  0  0  0  0  0  0  0  0  0  0
  1  2  1  0
  1  5  1  0
  1  6  1  0
  1  7  1  0
  2  3  1  0
  2  8  1  0
  2  9  1  0
  3  4  2  0
 10 11  1  0
 10 16  1  0
 10 17  1  0
 11 12  1  0
 11 18  1  0
 11 19  1  0
 12 13  1  0
 12 20  1  0
 12 21  1  0
 13 14  1  0
 14 15  1  0
 14 22  1  0
 14 23  1  0
 15 24  1  0
 15 25  1  0
 15 26  1  0
M  RAD  1  10   2
M  END
>  <reaction>  (10) 
rmg_rxn_245

>  <mol_properties>  (10) 
{"0": {"label": "*3", "atom_type": "Cs"}, "1": {"label": "*4", "atom_type": "Cs"}, "4": {"label": "*2", "atom_type": "H0"}, "9": {"label": "*1", "atom_type": "Cs"}, "10": {"label": "*0", "atom_type": "Cs"}}

>  <type>  (10) 
unop_6

>  <geom_source>  (10) 
Heuristics

$$$$

     RDKit          3D

 26 24  0  0  0  0  0  0  0  0999 V2000
    1.5041   -0.4073    1.9891 C   0  0  0  0  0  0  0  0  0  0  0  0
    1.5041   -1.5842    2.9358 C   0  0  0  0  0  0  0  0  0  0  0  0
    1.5041   -2.9324    2.3186 N   0  0  0  0  0  0  0  0  0  0  0  0
    1.5041   -2.9324    1.1256 O   0  0  0  0  0  0  0  0  0  0  0  0
    0.4479   -0.4200    1.2180 H   0  0  0  0  0  0  0  0  0  0  0  0
    1.5041    0.5212    2.5605 H   0  0  0  0  0  0  0  0  0  0  0  0
    2.3842   -0.4179    1.3465 H   0  0  0  0  0  0  0  0  0  0  0  0
    0.6329   -1.5991    3.5989 H   0  0  0  0  0  0  0  0  0  0  0  0
    2.3753   -1.5991    3.5989 H   0  0  0  0  0  0  0  0  0  0  0  0
   -0.6094   -0.4328    0.4461 C   0  0  0  0  0  3  0  0  0  0  0  0
   -0.2147   -0.5097   -1.0228 C   0  0  0  0  0  0  0  0  0  0  0  0
   -1.0799    0.3536   -1.9180 C   0  0  0  0  0  0  0  0  0  0  0  0
   -0.9153    1.7035   -1.5633 O   0  0  0  0  0  0  0  0  0  0  0  0
   -1.7107    2.5787   -2.3215 C   0  0  0  0  0  0  0  0  0  0  0  0
   -1.4583    3.9955   -1.8605 C   0  0  0  0  0  0  0  0  0  0  0  0
   -0.5261    0.5894    0.8151 H   0  0  0  0  0  0  0  0  0  0  0  0
   -1.6427   -0.7585    0.5894 H   0  0  0  0  0  0  0  0  0  0  0  0
   -0.2875   -1.5413   -1.3784 H   0  0  0  0  0  0  0  0  0  0  0  0
    0.8273   -0.2043   -1.1479 H   0  0  0  0  0  0  0  0  0  0  0  0
   -2.1379    0.0650   -1.8134 H   0  0  0  0  0  0  0  0  0  0  0  0
   -0.8036    0.2064   -2.9724 H   0  0  0  0  0  0  0  0  0  0  0  0
   -1.4706    2.4735   -3.3900 H   0  0  0  0  0  0  0  0  0  0  0  0
   -2.7728    2.3188   -2.2015 H   0  0  0  0  0  0  0  0  0  0  0  0
   -0.4082    4.2587   -1.9920 H   0  0  0  0  0  0  0  0  0  0  0  0
   -2.0662    4.6946   -2.4369 H   0  0  0  0  0  0  0  0  0  0  0  0
   -1.7108    4.1047   -0.8052 H   0  0  0  0  0  0  0  0  0  0  0  0
  1  2  1  0
  1  5  1  0
  1  6  1  0
  1  7  1  0
  2  3  1  0
  2  8  1  0
  2  9  1  0
  3  4  2  0
 10 11  1  0
 10 16  1  0
 10 17  1  0
 11 12  1  0
 11 18  1  0
 11 19  1  0
 12 13  1  0
 12 20  1  0
 12 21  1  0
 13 14  1  0
 14 15  1  0
 14 22  1  0
 14 23  1  0
 15 24  1  0
 15 25  1  0
 15 26  1  0
M  RAD  1  10   2
M  END
>  <reaction>  (11) 
rmg_rxn_245

>  <mol_properties>  (11) 
{"0": {"label": "*3", "atom_type": "Cs"}, "1": {"label": "*4", "atom_type": "Cs"}, "4": {"label": "*2", "atom_type": "H0"}, "9": {"label": "*1", "atom_type": "Cs"}, "10": {"label": "*0", "atom_type": "Cs"}}

>  <type>  (11) 
unop_7

>  <geom_source>  (11) 
Heuristics

$$$$

     RDKit          3D

 26 24  0  0  0  0  0  0  0  0999 V2000
    2.5510    0.1414    1.5628 C   0  0  0  0  0  0  0  0  0  0  0  0
    2.5510   -1.0355    2.5095 C   0  0  0  0  0  0  0  0  0  0  0  0
    2.5510   -2.3837    1.8923 N   0  0  0  0  0  0  0  0  0  0  0  0
    2.5510   -2.3837    0.6993 O   0  0  0  0  0  0  0  0  0  0  0  0
    1.4948    0.1287    0.7917 H   0  0  0  0  0  0  0  0  0  0  0  0
    2.5510    1.0699    2.1342 H   0  0  0  0  0  0  0  0  0  0  0  0
    3.4311    0.1308    0.9202 H   0  0  0  0  0  0  0  0  0  0  0  0
    1.6798   -1.0504    3.1726 H   0  0  0  0  0  0  0  0  0  0  0  0
    3.4222   -1.0504    3.1726 H   0  0  0  0  0  0  0  0  0  0  0  0
    0.4375    0.1160    0.0197 C   0  0  0  0  0  3  0  0  0  0  0  0
   -0.7148    0.8821    0.6557 C   0  0  0  0  0  0  0  0  0  0  0  0
   -1.5025    1.7081   -0.3405 C   0  0  0  0  0  0  0  0  0  0  0  0
   -2.1035    0.8544   -1.2813 O   0  0  0  0  0  0  0  0  0  0  0  0
   -2.8293    1.5394   -2.2700 C   0  0  0  0  0  0  0  0  0  0  0  0
   -3.4293    0.5330   -3.2243 C   0  0  0  0  0  0  0  0  0  0  0  0
    0.0701   -0.5718   -0.7419 H   0  0  0  0  0  0  0  0  0  0  0  0
    1.1436    0.7999   -0.4578 H   0  0  0  0  0  0  0  0  0  0  0  0
   -0.3366    1.5577    1.4280 H   0  0  0  0  0  0  0  0  0  0  0  0
   -1.3996    0.1881    1.1497 H   0  0  0  0  0  0  0  0  0  0  0  0
   -0.8356    2.4198   -0.8526 H   0  0  0  0  0  0  0  0  0  0  0  0
   -2.2733    2.2973    0.1776 H   0  0  0  0  0  0  0  0  0  0  0  0
   -3.6200    2.1452   -1.8029 H   0  0  0  0  0  0  0  0  0  0  0  0
   -2.1664    2.2325   -2.8088 H   0  0  0  0  0  0  0  0  0  0  0  0
   -4.0974   -0.1459   -2.6933 H   0  0  0  0  0  0  0  0  0  0  0  0
   -3.9995    1.0430   -4.0023 H   0  0  0  0  0  0  0  0  0  0  0  0
   -2.6453   -0.0575   -3.6996 H   0  0  0  0  0  0  0  0  0  0  0  0
  1  2  1  0
  1  5  1  0
  1  6  1  0
  1  7  1  0
  2  3  1  0
  2  8  1  0
  2  9  1  0
  3  4  2  0
 10 11  1  0
 10 16  1  0
 10 17  1  0
 11 12  1  0
 11 18  1  0
 11 19  1  0
 12 13  1  0
 12 20  1  0
 12 21  1  0
 13 14  1  0
 14 15  1  0
 14 22  1  0
 14 23  1  0
 15 24  1  0
 15 25  1  0
 15 26  1  0
M  RAD  1  10   2
M  END
>  <reaction>  (12) 
rmg_rxn_245

>  <mol_properties>  (12) 
{"0": {"label": "*3", "atom_type": "Cs"}, "1": {"label": "*4", "atom_type": "Cs"}, "4": {"label": "*2", "atom_type": "H0"}, "9": {"label": "*1", "atom_type": "Cs"}, "10": {"label": "*0", "atom_type": "Cs"}}

>  <type>  (12) 
unop_8

>  <geom_source>  (12) 
Heuristics

$$$$

     RDKit          3D

 26 24  0  0  0  0  0  0  0  0999 V2000
    1.7408    1.2521    2.2166 C   0  0  0  0  0  0  0  0  0  0  0  0
    1.7408    0.0751    3.1633 C   0  0  0  0  0  0  0  0  0  0  0  0
    1.7408   -1.2730    2.5460 N   0  0  0  0  0  0  0  0  0  0  0  0
    1.7408   -1.2730    1.3531 O   0  0  0  0  0  0  0  0  0  0  0  0
    0.6846    1.2393    1.4454 H   0  0  0  0  0  0  0  0  0  0  0  0
    1.7408    2.1805    2.7880 H   0  0  0  0  0  0  0  0  0  0  0  0
    2.6209    1.2415    1.5740 H   0  0  0  0  0  0  0  0  0  0  0  0
    0.8696    0.0602    3.8263 H   0  0  0  0  0  0  0  0  0  0  0  0
    2.6120    0.0602    3.8263 H   0  0  0  0  0  0  0  0  0  0  0  0
   -0.3727    1.2266    0.6735 C   0  0  0  0  0  3  0  0  0  0  0  0
   -0.8464   -0.1977    0.4163 C   0  0  0  0  0  0  0  0  0  0  0  0
   -1.7706   -0.3113   -0.7788 C   0  0  0  0  0  0  0  0  0  0  0  0
   -1.0753    0.0605   -1.9421 O   0  0  0  0  0  0  0  0  0  0  0  0
   -1.8682    0.0194   -3.1011 C   0  0  0  0  0  0  0  0  0  0  0  0
   -1.0278    0.4358   -4.2859 C   0  0  0  0  0  0  0  0  0  0  0  0
    0.1732    1.6132   -0.1871 H   0  0  0  0  0  0  0  0  0  0  0  0
   -1.2199    1.8913    0.8601 H   0  0  0  0  0  0  0  0  0  0  0  0
   -1.3794   -0.5807    1.2910 H   0  0  0  0  0  0  0  0  0  0  0  0
    0.0117   -0.8553    0.2553 H   0  0  0  0  0  0  0  0  0  0  0  0
   -2.6476    0.3410   -0.6418 H   0  0  0  0  0  0  0  0  0  0  0  0
   -2.1419   -1.3420   -0.8771 H   0  0  0  0  0  0  0  0  0  0  0  0
   -2.2643   -0.9963   -3.2487 H   0  0  0  0  0  0  0  0  0  0  0  0
   -2.7324    0.6904   -2.9878 H   0  0  0  0  0  0  0  0  0  0  0  0
   -0.1783   -0.2372   -4.4073 H   0  0  0  0  0  0  0  0  0  0  0  0
   -1.6237    0.4108   -5.1996 H   0  0  0  0  0  0  0  0  0  0  0  0
   -0.6474    1.4485   -4.1475 H   0  0  0  0  0  0  0  0  0  0  0  0
  1  2  1  0
  1  5  1  0
  1  6  1  0
  1  7  1  0
  2  3  1  0
  2  8  1  0
  2  9  1  0
  3  4  2  0
 10 11  1  0
 10 16  1  0
 10 17  1  0
 11 12  1  0
 11 18  1  0
 11 19  1  0
 12 13  1  0
 12 20  1  0
 12 21  1  0
 13 14  1  0
 14 15  1  0
 14 22  1  0
 14 23  1  0
 15 24  1  0
 15 25  1  0
 15 26  1  0
M  RAD  1  10   2
M  END
>  <reaction>  (13) 
rmg_rxn_245

>  <mol_properties>  (13) 
{"0": {"label": "*3", "atom_type": "Cs"}, "1": {"label": "*4", "atom_type": "Cs"}, "4": {"label": "*2", "atom_type": "H0"}, "9": {"label": "*1", "atom_type": "Cs"}, "10": {"label": "*0", "atom_type": "Cs"}}

>  <type>  (13) 
unop_9

>  <geom_source>  (13) 
Heuristics

$$$$

     RDKit          3D

 26 24  0  0  0  0  0  0  0  0999 V2000
    2.7041    0.4766    1.3968 C   0  0  0  0  0  0  0  0  0  0  0  0
    2.7041   -0.7004    2.3436 C   0  0  0  0  0  0  0  0  0  0  0  0
    2.7041   -2.0485    1.7263 N   0  0  0  0  0  0  0  0  0  0  0  0
    2.7041   -2.0485    0.5333 O   0  0  0  0  0  0  0  0  0  0  0  0
    1.6479    0.4639    0.6257 H   0  0  0  0  0  0  0  0  0  0  0  0
    2.7041    1.4050    1.9683 H   0  0  0  0  0  0  0  0  0  0  0  0
    3.5842    0.4660    0.7542 H   0  0  0  0  0  0  0  0  0  0  0  0
    1.8329   -0.7152    3.0066 H   0  0  0  0  0  0  0  0  0  0  0  0
    3.5753   -0.7152    3.0066 H   0  0  0  0  0  0  0  0  0  0  0  0
    0.5906    0.4511   -0.1462 C   0  0  0  0  0  3  0  0  0  0  0  0
   -0.6894    0.5174    0.6762 C   0  0  0  0  0  0  0  0  0  0  0  0
   -1.8132    1.2489   -0.0290 C   0  0  0  0  0  0  0  0  0  0  0  0
   -2.1627    0.5502   -1.1972 O   0  0  0  0  0  0  0  0  0  0  0  0
   -3.1782    1.1778   -1.9377 C   0  0  0  0  0  0  0  0  0  0  0  0
   -3.4739    0.3487   -3.1660 C   0  0  0  0  0  0  0  0  0  0  0  0
    0.4173   -0.0677   -1.0890 H   0  0  0  0  0  0  0  0  0  0  0  0
    0.9575    1.4542   -0.3775 H   0  0  0  0  0  0  0  0  0  0  0  0
   -0.5007    1.0263    1.6256 H   0  0  0  0  0  0  0  0  0  0  0  0
   -1.0314   -0.4917    0.9203 H   0  0  0  0  0  0  0  0  0  0  0  0
   -1.4959    2.2722   -0.2850 H   0  0  0  0  0  0  0  0  0  0  0  0
   -2.6874    1.3337    0.6331 H   0  0  0  0  0  0  0  0  0  0  0  0
   -4.0818    1.2850   -1.3195 H   0  0  0  0  0  0  0  0  0  0  0  0
   -2.8607    2.1911   -2.2251 H   0  0  0  0  0  0  0  0  0  0  0  0
   -3.8020   -0.6517   -2.8818 H   0  0  0  0  0  0  0  0  0  0  0  0
   -4.2618    0.8173   -3.7578 H   0  0  0  0  0  0  0  0  0  0  0  0
   -2.5827    0.2549   -3.7875 H   0  0  0  0  0  0  0  0  0  0  0  0
  1  2  1  0
  1  5  1  0
  1  6  1  0
  1  7  1  0
  2  3  1  0
  2  8  1  0
  2  9  1  0
  3  4  2  0
 10 11  1  0
 10 16  1  0
 10 17  1  0
 11 12  1  0
 11 18  1  0
 11 19  1  0
 12 13  1  0
 12 20  1  0
 12 21  1  0
 13 14  1  0
 14 15  1  0
 14 22  1  0
 14 23  1  0
 15 24  1  0
 15 25  1  0
 15 26  1  0
M  RAD  1  10   2
M  END
>  <reaction>  (14) 
rmg_rxn_245

>  <mol_properties>  (14) 
{"0": {"label": "*3", "atom_type": "Cs"}, "1": {"label": "*4", "atom_type": "Cs"}, "4": {"label": "*2", "atom_type": "H0"}, "9": {"label": "*1", "atom_type": "Cs"}, "10": {"label": "*0", "atom_type": "Cs"}}

>  <type>  (14) 
unop_10

>  <geom_source>  (14) 
Heuristics

$$$$

     RDKit          3D

 26 24  0  0  0  0  0  0  0  0999 V2000
    2.0290   -0.4969    1.5846 C   0  0  0  0  0  0  0  0  0  0  0  0
    2.0290   -1.6739    2.5313 C   0  0  0  0  0  0  0  0  0  0  0  0
    2.0290   -3.0220    1.9141 N   0  0  0  0  0  0  0  0  0  0  0  0
    2.0290   -3.0220    0.7211 O   0  0  0  0  0  0  0  0  0  0  0  0
    0.9728   -0.5096    0.8135 H   0  0  0  0  0  0  0  0  0  0  0  0
    2.0290    0.4315    2.1561 H   0  0  0  0  0  0  0  0  0  0  0  0
    2.9091   -0.5075    0.9420 H   0  0  0  0  0  0  0  0  0  0  0  0
    1.1578   -1.6887    3.1944 H   0  0  0  0  0  0  0  0  0  0  0  0
    2.9002   -1.6887    3.1944 H   0  0  0  0  0  0  0  0  0  0  0  0
   -0.0845   -0.5224    0.0416 C   0  0  0  0  0  3  0  0  0  0  0  0
    0.2135    0.1197   -1.3068 C   0  0  0  0  0  0  0  0  0  0  0  0
   -1.0054    0.7502   -1.9486 C   0  0  0  0  0  0  0  0  0  0  0  0
   -1.4692    1.7992   -1.1364 O   0  0  0  0  0  0  0  0  0  0  0  0
   -2.6241    2.4221   -1.6382 C   0  0  0  0  0  0  0  0  0  0  0  0
   -3.0355    3.5275   -0.6935 C   0  0  0  0  0  0  0  0  0  0  0  0
   -0.4664    0.2171    0.7454 H   0  0  0  0  0  0  0  0  0  0  0  0
   -0.8359   -1.3095   -0.0593 H   0  0  0  0  0  0  0  0  0  0  0  0
    0.6099   -0.6274   -2.0000 H   0  0  0  0  0  0  0  0  0  0  0  0
    0.9833    0.8877   -1.1948 H   0  0  0  0  0  0  0  0  0  0  0  0
   -1.7982   -0.0039   -2.0759 H   0  0  0  0  0  0  0  0  0  0  0  0
   -0.7547    1.1330   -2.9488 H   0  0  0  0  0  0  0  0  0  0  0  0
   -2.4259    2.8277   -2.6414 H   0  0  0  0  0  0  0  0  0  0  0  0
   -3.4331    1.6839   -1.7417 H   0  0  0  0  0  0  0  0  0  0  0  0
   -2.2393    4.2670   -0.6009 H   0  0  0  0  0  0  0  0  0  0  0  0
   -3.9320    4.0271   -1.0637 H   0  0  0  0  0  0  0  0  0  0  0  0
   -3.2473    3.1242    0.2974 H   0  0  0  0  0  0  0  0  0  0  0  0
  1  2  1  0
  1  5  1  0
  1  6  1  0
  1  7  1  0
  2  3  1  0
  2  8  1  0
  2  9  1  0
  3  4  2  0
 10 11  1  0
 10 16  1  0
 10 17  1  0
 11 12  1  0
 11 18  1  0
 11 19  1  0
 12 13  1  0
 12 20  1  0
 12 21  1  0
 13 14  1  0
 14 15  1  0
 14 22  1  0
 14 23  1  0
 15 24  1  0
 15 25  1  0
 15 26  1  0
M  RAD  1  10   2
M  END
>  <reaction>  (15) 
rmg_rxn_245

>  <mol_properties>  (15) 
{"0": {"label": "*3", "atom_type": "Cs"}, "1": {"label": "*4", "atom_type": "Cs"}, "4": {"label": "*2", "atom_type": "H0"}, "9": {"label": "*1", "atom_type": "Cs"}, "10": {"label": "*0", "atom_type": "Cs"}}

>  <type>  (15) 
unop_11

>  <geom_source>  (15) 
Heuristics

$$$$

     RDKit          3D

 26 24  0  0  0  0  0  0  0  0999 V2000
    2.2709    1.3321    1.8209 C   0  0  0  0  0  0  0  0  0  0  0  0
    2.2709    0.1552    2.7676 C   0  0  0  0  0  0  0  0  0  0  0  0
    2.2709   -1.1930    2.1504 N   0  0  0  0  0  0  0  0  0  0  0  0
    2.2709   -1.1930    0.9574 O   0  0  0  0  0  0  0  0  0  0  0  0
    1.2148    1.3194    1.0498 H   0  0  0  0  0  0  0  0  0  0  0  0
    2.2709    2.2606    2.3923 H   0  0  0  0  0  0  0  0  0  0  0  0
    3.1511    1.3215    1.1783 H   0  0  0  0  0  0  0  0  0  0  0  0
    1.3997    0.1403    3.4307 H   0  0  0  0  0  0  0  0  0  0  0  0
    3.1421    0.1403    3.4307 H   0  0  0  0  0  0  0  0  0  0  0  0
    0.1575    1.3066    0.2778 C   0  0  0  0  0  3  0  0  0  0  0  0
   -0.7308    0.1083    0.5846 C   0  0  0  0  0  0  0  0  0  0  0  0
   -1.9742    0.0520   -0.2790 C   0  0  0  0  0  0  0  0  0  0  0  0
   -1.6000   -0.1027   -1.6247 O   0  0  0  0  0  0  0  0  0  0  0  0
   -2.6933   -0.1292   -2.5065 C   0  0  0  0  0  0  0  0  0  0  0  0
   -2.1814   -0.2972   -3.9183 C   0  0  0  0  0  0  0  0  0  0  0  0
    0.4926    1.2834   -0.7591 H   0  0  0  0  0  0  0  0  0  0  0  0
   -0.3836    2.2431    0.4350 H   0  0  0  0  0  0  0  0  0  0  0  0
   -1.0488    0.1336    1.6306 H   0  0  0  0  0  0  0  0  0  0  0  0
   -0.1699   -0.8197    0.4465 H   0  0  0  0  0  0  0  0  0  0  0  0
   -2.5611    0.9762   -0.1571 H   0  0  0  0  0  0  0  0  0  0  0  0
   -2.6159   -0.7859    0.0307 H   0  0  0  0  0  0  0  0  0  0  0  0
   -3.3690   -0.9561   -2.2416 H   0  0  0  0  0  0  0  0  0  0  0  0
   -3.2709    0.8025   -2.4152 H   0  0  0  0  0  0  0  0  0  0  0  0
   -1.6202   -1.2275   -4.0131 H   0  0  0  0  0  0  0  0  0  0  0  0
   -3.0146   -0.3212   -4.6223 H   0  0  0  0  0  0  0  0  0  0  0  0
   -1.5238    0.5302   -4.1873 H   0  0  0  0  0  0  0  0  0  0  0  0
  1  2  1  0
  1  5  1  0
  1  6  1  0
  1  7  1  0
  2  3  1  0
  2  8  1  0
  2  9  1  0
  3  4  2  0
 10 11  1  0
 10 16  1  0
 10 17  1  0
 11 12  1  0
 11 18  1  0
 11 19  1  0
 12 13  1  0
 12 20  1  0
 12 21  1  0
 13 14  1  0
 14 15  1  0
 14 22  1  0
 14 23  1  0
 15 24  1  0
 15 25  1  0
 15 26  1  0
M  RAD  1  10   2
M  END
>  <reaction>  (16) 
rmg_rxn_245

>  <mol_properties>  (16) 
{"0": {"label": "*3", "atom_type": "Cs"}, "1": {"label": "*4", "atom_type": "Cs"}, "4": {"label": "*2", "atom_type": "H0"}, "9": {"label": "*1", "atom_type": "Cs"}, "10": {"label": "*0", "atom_type": "Cs"}}

>  <type>  (16) 
unop_12

>  <geom_source>  (16) 
Heuristics

$$$$

     RDKit          3D

 26 24  0  0  0  0  0  0  0  0999 V2000
   -2.0663    0.0077   -1.0573 O   0  0  0  0  0  0  0  0  0  0  0  0
    3.9739    2.5499   -0.2228 O   0  0  0  0  0  0  0  0  0  0  0  0
    3.4192    1.5015   -0.3546 N   0  0  0  0  0  0  0  0  0  0  0  0
   -0.5591   -0.9573    0.5656 C   0  0  0  0  0  0  0  0  0  0  0  0
   -0.8387    0.2118   -0.3827 C   0  0  0  0  0  0  0  0  0  0  0  0
   -3.1095    0.7075   -0.4115 C   0  0  0  0  0  0  0  0  0  0  0  0
    0.7983   -0.8048    1.2431 C   0  0  0  0  0  0  0  0  0  0  0  0
   -4.4328    0.3523   -1.0715 C   0  0  0  0  0  0  0  0  0  0  0  0
    3.9455    0.3154    0.2688 C   0  0  0  0  0  0  0  0  0  0  0  0
    3.0516   -0.8685   -0.0559 C   0  0  0  0  0  3  0  0  0  0  0  0
   -1.3484   -1.0076    1.3457 H   0  0  0  0  0  0  0  0  0  0  0  0
   -0.5714   -1.9089   -0.0083 H   0  0  0  0  0  0  0  0  0  0  0  0
   -0.7884    1.1814    0.1693 H   0  0  0  0  0  0  0  0  0  0  0  0
   -0.0354    0.2458   -1.1495 H   0  0  0  0  0  0  0  0  0  0  0  0
   -3.1730    0.4336    0.6662 H   0  0  0  0  0  0  0  0  0  0  0  0
   -2.9544    1.8060   -0.5067 H   0  0  0  0  0  0  0  0  0  0  0  0
    0.8266    0.1279    1.8459 H   0  0  0  0  0  0  0  0  0  0  0  0
    0.9779   -1.6694    1.9163 H   0  0  0  0  0  0  0  0  0  0  0  0
    1.7625   -0.7680    0.3296 H   0  0  0  0  0  0  0  0  0  0  0  0
   -5.2600    0.9021   -0.5748 H   0  0  0  0  0  0  0  0  0  0  0  0
   -4.4089    0.6316   -2.1462 H   0  0  0  0  0  0  0  0  0  0  0  0
   -4.6206   -0.7387   -0.9822 H   0  0  0  0  0  0  0  0  0  0  0  0
    4.9739    0.1194   -0.1051 H   0  0  0  0  0  0  0  0  0  0  0  0
    3.9777    0.4577    1.3702 H   0  0  0  0  0  0  0  0  0  0  0  0
    3.4246   -1.7783    0.4601 H   0  0  0  0  0  0  0  0  0  0  0  0
    3.0353   -1.0503   -1.1517 H   0  0  0  0  0  0  0  0  0  0  0  0
  1  6  1  0
  1  5  1  0
  2  3  2  0
  3  9  1  0
  4  7  1  0
  4  5  1  0
  4 11  1  0
  4 12  1  0
  5 13  1  0
  5 14  1  0
  6  8  1  0
  6 15  1  0
  6 16  1  0
  7 17  1  0
  7 18  1  0
  7 19  1  0
  8 20  1  0
  8 21  1  0
  8 22  1  0
  9 10  1  0
  9 23  1  0
  9 24  1  0
 10 25  1  0
 10 26  1  0
M  RAD  1  10   2
M  END
>  <reaction>  (17) 
rmg_rxn_245

>  <mol_properties>  (17) 
{"0": {"label": "*3", "atom_type": "Cs"}, "1": {"label": "*4", "atom_type": "Cs"}, "4": {"label": "*2", "atom_type": "H0"}, "9": {"label": "*1", "atom_type": "Cs"}, "10": {"label": "*0", "atom_type": "Cs"}}

>  <type>  (17) 
unop_13

>  <geom_source>  (17) 
AutoTST

$$$$

     RDKit          3D

 26 24  0  0  0  0  0  0  0  0999 V2000
    2.6418    0.9771    1.4781 C   0  0  0  0  0  0  0  0  0  0  0  0
    2.6418   -0.1998    2.4248 C   0  0  0  0  0  0  0  0  0  0  0  0
    2.6418   -1.5480    1.8076 N   0  0  0  0  0  0  0  0  0  0  0  0
    2.6418   -1.5480    0.6146 O   0  0  0  0  0  0  0  0  0  0  0  0
    1.5857    0.9644    0.7070 H   0  0  0  0  0  0  0  0  0  0  0  0
    2.6418    1.9056    2.0495 H   0  0  0  0  0  0  0  0  0  0  0  0
    3.5219    0.9665    0.8355 H   0  0  0  0  0  0  0  0  0  0  0  0
    1.7706   -0.2147    3.0879 H   0  0  0  0  0  0  0  0  0  0  0  0
    3.5130   -0.2147    3.0879 H   0  0  0  0  0  0  0  0  0  0  0  0
    0.5284    0.9516   -0.0649 C   0  0  0  0  0  3  0  0  0  0  0  0
   -0.6550    0.2989    0.6370 C   0  0  0  0  0  0  0  0  0  0  0  0
   -1.9869    0.6392    0.0003 C   0  0  0  0  0  0  0  0  0  0  0  0
   -2.0167    0.1389   -1.3127 O   0  0  0  0  0  0  0  0  0  0  0  0
   -3.2068    0.4401   -1.9957 C   0  0  0  0  0  0  0  0  0  0  0  0
   -3.1334   -0.1399   -3.3892 C   0  0  0  0  0  0  0  0  0  0  0  0
    0.5839    0.6325   -1.1057 H   0  0  0  0  0  0  0  0  0  0  0  0
    0.4367    2.0406   -0.0520 H   0  0  0  0  0  0  0  0  0  0  0  0
   -0.6924    0.6141    1.6835 H   0  0  0  0  0  0  0  0  0  0  0  0
   -0.5381   -0.7879    0.6376 H   0  0  0  0  0  0  0  0  0  0  0  0
   -2.1323    1.7311   -0.0113 H   0  0  0  0  0  0  0  0  0  0  0  0
   -2.8112    0.2059    0.5856 H   0  0  0  0  0  0  0  0  0  0  0  0
   -4.0675    0.0241   -1.4510 H   0  0  0  0  0  0  0  0  0  0  0  0
   -3.3480    1.5301   -2.0398 H   0  0  0  0  0  0  0  0  0  0  0  0
   -3.0073   -1.2223   -3.3464 H   0  0  0  0  0  0  0  0  0  0  0  0
   -4.0492    0.0814   -3.9395 H   0  0  0  0  0  0  0  0  0  0  0  0
   -2.2896    0.2835   -3.9353 H   0  0  0  0  0  0  0  0  0  0  0  0
  1  2  1  0
  1  5  1  0
  1  6  1  0
  1  7  1  0
  2  3  1  0
  2  8  1  0
  2  9  1  0
  3  4  2  0
 10 11  1  0
 10 16  1  0
 10 17  1  0
 11 12  1  0
 11 18  1  0
 11 19  1  0
 12 13  1  0
 12 20  1  0
 12 21  1  0
 13 14  1  0
 14 15  1  0
 14 22  1  0
 14 23  1  0
 15 24  1  0
 15 25  1  0
 15 26  1  0
M  RAD  1  10   2
M  END
>  <reaction>  (18) 
rmg_rxn_245

>  <mol_properties>  (18) 
{"0": {"label": "*3", "atom_type": "Cs"}, "1": {"label": "*4", "atom_type": "Cs"}, "4": {"label": "*2", "atom_type": "H0"}, "9": {"label": "*1", "atom_type": "Cs"}, "10": {"label": "*0", "atom_type": "Cs"}}

>  <type>  (18) 
unop_14

>  <geom_source>  (18) 
gaussian_log

$$$$
