
     RDKit          3D

  9  8  0  0  0  0  0  0  0  0999 V2000
   -1.2461    0.5037    0.0950 C   0  0  0  0  0  0  0  0  0  0  0  0
   -0.0155   -0.3334    0.0640 C   0  0  0  0  0  0  0  0  0  0  0  0
    1.0697    0.1457   -0.3733 N   0  0  0  0  0  0  0  0  0  0  0  0
    2.1001   -0.7834   -0.3224 O   0  0  0  0  0  0  0  0  0  0  0  0
   -2.0357    0.0440   -0.5039 H   0  0  0  0  0  0  0  0  0  0  0  0
   -1.6237    0.5897    1.1166 H   0  0  0  0  0  0  0  0  0  0  0  0
   -1.0397    1.4998   -0.2929 H   0  0  0  0  0  0  0  0  0  0  0  0
   -0.0537   -1.3634    0.4205 H   0  0  0  0  0  0  0  0  0  0  0  0
    2.8478   -0.2985   -0.6758 H   0  0  0  0  0  0  0  0  0  0  0  0
  1  2  1  0
  1  5  1  0
  1  6  1  0
  1  7  1  0
  2  3  2  3
  2  8  1  0
  3  4  1  0
  4  9  1  0
M  END
>  <reaction>  (1) 
rmg_rxn_15402

>  <mol_properties>  (1) 
{"3": {"label": "donator", "atom_type": "O2s"}, "8": {"label": "d_hydrogen", "atom_type": "H0"}}

>  <type>  (1) 
r1h

$$$$

     RDKit          3D

  5  4  0  0  0  0  0  0  0  0999 V2000
    0.8934    0.3742    0.4948 O   0  0  0  0  0  0  0  0  0  0  0  0
    0.1582   -0.1610   -0.5904 N   0  0  0  0  0  0  0  0  0  0  0  0
   -1.0297   -0.3739   -0.4689 C   0  0  0  0  0  3  0  0  0  0  0  0
    1.7805    0.4382    0.1306 H   0  0  0  0  0  0  0  0  0  0  0  0
   -1.8023   -0.2775    0.2859 H   0  0  0  0  0  0  0  0  0  0  0  0
  1  2  1  0
  1  4  1  0
  2  3  2  3
  3  5  1  0
M  RAD  1   3   2
M  END
>  <reaction>  (2) 
rmg_rxn_15402

>  <mol_properties>  (2) 
{"2": {"label": "acceptor", "atom_type": "Cd"}}

>  <type>  (2) 
r2

$$$$

     RDKit          3D

  6  5  0  0  0  0  0  0  0  0999 V2000
    1.2314    0.0428    0.5088 O   0  0  0  0  0  0  0  0  0  0  0  0
    0.2987    0.2341   -0.4915 N   0  0  0  0  0  0  0  0  0  0  0  0
   -0.8599   -0.1122   -0.1290 C   0  0  0  0  0  0  0  0  0  0  0  0
    2.0507    0.3401    0.1082 H   0  0  0  0  0  0  0  0  0  0  0  0
   -1.0700   -0.5112    0.8610 H   0  0  0  0  0  0  0  0  0  0  0  0
   -1.6509    0.0064   -0.8574 H   0  0  0  0  0  0  0  0  0  0  0  0
  1  2  1  0
  1  4  1  0
  2  3  2  3
  3  5  1  0
  3  6  1  0
M  END
>  <reaction>  (3) 
rmg_rxn_15402

>  <mol_properties>  (3) 
{"2": {"label": "acceptor", "atom_type": "Cd"}, "5": {"label": "a_hydrogen", "atom_type": "H0"}}

>  <type>  (3) 
r2h

$$$$

     RDKit          3D

 14 12  0  0  0  0  0  0  0  0999 V2000
    3.7563    0.5228   -0.0121 O   0  0  0  0  0  0  0  0  0  0  0  0
    2.6362   -0.3008    0.0044 N   0  0  0  0  0  0  0  0  0  0  0  0
    1.5367    0.2509   -0.0040 C   0  0  0  0  0  3  0  0  0  0  0  0
    4.4847   -0.1033   -0.0017 H   0  0  0  0  0  0  0  0  0  0  0  0
    1.2419    1.3010   -0.0227 H   0  0  0  0  0  0  0  0  0  0  0  0
   -3.7054    0.8226   -0.0071 C   0  0  0  0  0  0  0  0  0  0  0  0
   -2.6775   -0.2548    0.0110 C   0  0  0  0  0  0  0  0  0  0  0  0
   -1.4442    0.0379    0.0040 N   0  0  0  0  0  0  0  0  0  0  0  0
   -0.6097   -1.0106    0.0218 O   0  0  0  0  0  0  0  0  0  0  0  0
   -3.2303    1.8020   -0.0256 H   0  0  0  0  0  0  0  0  0  0  0  0
   -4.3497    0.7234   -0.8839 H   0  0  0  0  0  0  0  0  0  0  0  0
   -4.3473    0.7553    0.8745 H   0  0  0  0  0  0  0  0  0  0  0  0
   -2.9939   -1.2978    0.0304 H   0  0  0  0  0  0  0  0  0  0  0  0
    0.4365   -0.5433    0.0119 H   0  0  0  0  0  0  0  0  0  0  0  0
  1  2  1  0
  1  4  1  0
  2  3  2  3
  3  5  1  0
  6  7  1  0
  6 10  1  0
  6 11  1  0
  6 12  1  0
  7  8  2  3
  7 13  1  0
  8  9  1  0
  9 14  1  0
M  RAD  1   3   2
M  END
>  <reaction>  (4) 
rmg_rxn_15402

>  <mol_properties>  (4) 
{"1": {"label": "*4", "atom_type": "N3d"}, "2": {"label": "*3", "atom_type": "Cd"}, "7": {"label": "*0", "atom_type": "N3d"}, "8": {"label": "*1", "atom_type": "O2s"}, "13": {"label": "*2", "atom_type": "H0"}}

>  <type>  (4) 
ts

$$$$

     RDKit          3D

 14 12  0  0  0  0  0  0  0  0999 V2000
   -3.0853   -0.9189    0.0001 O   0  0  0  0  0  0  0  0  0  0  0  0
   -1.8234   -0.3902   -0.0002 N   0  0  0  0  0  0  0  0  0  0  0  0
   -1.6234    0.8365    0.0000 C   0  0  0  0  0  3  0  0  0  0  0  0
   -3.7697   -0.2225    0.0006 H   0  0  0  0  0  0  0  0  0  0  0  0
   -2.3687    1.6316    0.0006 H   0  0  0  0  0  0  0  0  0  0  0  0
    2.9062   -1.3285    0.0001 C   0  0  0  0  0  0  0  0  0  0  0  0
    1.6541   -0.5278   -0.0002 C   0  0  0  0  0  0  0  0  0  0  0  0
    1.6940    0.7281    0.0001 N   0  0  0  0  0  0  0  0  0  0  0  0
    0.7556    1.5820   -0.0000 O   0  0  0  0  0  0  0  0  0  0  0  0
    2.9371   -1.9693   -0.8799 H   0  0  0  0  0  0  0  0  0  0  0  0
    3.7754   -0.6773    0.0016 H   0  0  0  0  0  0  0  0  0  0  0  0
    2.9355   -1.9711    0.8789 H   0  0  0  0  0  0  0  0  0  0  0  0
    0.7019   -1.0607   -0.0008 H   0  0  0  0  0  0  0  0  0  0  0  0
   -0.4296    1.2012   -0.0002 H   0  0  0  0  0  0  0  0  0  0  0  0
  1  2  1  0
  1  4  1  0
  2  3  2  3
  3  5  1  0
  6  7  1  0
  6 10  1  0
  6 11  1  0
  6 12  1  0
  7  8  2  3
  7 13  1  0
  8  9  1  0
  9 14  1  0
M  RAD  1   3   2
M  END
>  <reaction>  (5) 
rmg_rxn_15402

>  <mol_properties>  (5) 
{"1": {"label": "*4", "atom_type": "N3d"}, "2": {"label": "*3", "atom_type": "Cd"}, "7": {"label": "*0", "atom_type": "N3d"}, "8": {"label": "*1", "atom_type": "O2s"}, "13": {"label": "*2", "atom_type": "H0"}}

>  <type>  (5) 
unop_1

>  <geom_source>  (5) 
crest_best.xyz

$$$$

     RDKit          3D

 14 12  0  0  0  0  0  0  0  0999 V2000
   -0.3519    2.3297    2.9036 O   0  0  0  0  0  0  0  0  0  0  0  0
   -0.7513    1.6172    1.7901 N   0  0  0  0  0  0  0  0  0  0  0  0
    0.2262    1.2995    1.0573 C   0  0  0  0  0  3  0  0  0  0  0  0
   -1.1756    2.5034    3.3633 H   0  0  0  0  0  0  0  0  0  0  0  0
    1.2523    1.5686    1.2990 H   0  0  0  0  0  0  0  0  0  0  0  0
    0.2262   -1.8646   -3.3424 C   0  0  0  0  0  0  0  0  0  0  0  0
    0.2262   -1.8646   -1.8538 C   0  0  0  0  0  0  0  0  0  0  0  0
    0.2262   -0.7726   -1.2170 N   0  0  0  0  0  0  0  0  0  0  0  0
    0.2262   -0.9772    0.1562 O   0  0  0  0  0  0  0  0  0  0  0  0
    1.1057   -2.3885   -3.7242 H   0  0  0  0  0  0  0  0  0  0  0  0
   -0.6532   -2.3885   -3.7242 H   0  0  0  0  0  0  0  0  0  0  0  0
    0.2262   -0.8450   -3.7238 H   0  0  0  0  0  0  0  0  0  0  0  0
    0.2262   -2.8122   -1.3136 H   0  0  0  0  0  0  0  0  0  0  0  0
    0.2262    0.0924    0.5796 H   0  0  0  0  0  0  0  0  0  0  0  0
  1  2  1  0
  1  4  1  0
  2  3  2  3
  3  5  1  0
  6  7  1  0
  6 10  1  0
  6 11  1  0
  6 12  1  0
  7  8  2  3
  7 13  1  0
  8  9  1  0
  9 14  1  0
M  RAD  1   3   2
M  END
>  <reaction>  (6) 
rmg_rxn_15402

>  <mol_properties>  (6) 
{"1": {"label": "*4", "atom_type": "N3d"}, "2": {"label": "*3", "atom_type": "Cd"}, "7": {"label": "*0", "atom_type": "N3d"}, "8": {"label": "*1", "atom_type": "O2s"}, "13": {"label": "*2", "atom_type": "H0"}}

>  <type>  (6) 
unop_2

>  <geom_source>  (6) 
Heuristics

$$$$

     RDKit          3D

 14 12  0  0  0  0  0  0  0  0999 V2000
   -3.0597   -0.4875   -0.0005 O   0  0  0  0  0  0  0  0  0  0  0  0
   -1.7256   -0.1823   -0.0002 N   0  0  0  0  0  2  0  0  0  0  0  0
   -1.3096    0.9891    0.0008 C   0  0  0  0  0  3  0  0  0  0  0  0
   -3.6123    0.3171    0.0003 H   0  0  0  0  0  0  0  0  0  0  0  0
   -1.9054    1.9010    0.0014 H   0  0  0  0  0  0  0  0  0  0  0  0
    1.1493   -1.7065    0.0005 C   0  0  0  0  0  0  0  0  0  0  0  0
    2.2257   -0.6654   -0.0001 C   0  0  0  0  0  3  0  0  0  0  0  0
    2.1120    0.5828   -0.0004 N   0  0  0  0  0  2  0  0  0  0  0  0
    1.1492    1.4026   -0.0001 O   0  0  0  0  0  1  0  0  0  0  0  0
    1.2670   -2.3375    0.8806 H   0  0  0  0  0  0  0  0  0  0  0  0
    0.1544   -1.2682    0.0008 H   0  0  0  0  0  0  0  0  0  0  0  0
    1.2663   -2.3376   -0.8796 H   0  0  0  0  0  0  0  0  0  0  0  0
    3.2492   -1.0185   -0.0007 H   0  0  0  0  0  0  0  0  0  0  0  0
   -0.0760    1.1311    0.0007 H   0  0  0  0  0  0  0  0  0  0  0  0
  1  2  1  0
  1  4  1  0
  2  3  1  0
  3  5  1  0
  3 14  1  0
  6 12  1  0
  6 10  1  0
  6 11  1  0
  6  7  1  0
  7  8  1  0
  7 13  1  0
  8  9  1  0
M  RAD  5   2   2   3   2   7   2   8   2   9   2
M  END
>  <reaction>  (7) 
rmg_rxn_15402

>  <mol_properties>  (7) 
{"1": {"label": "*4", "atom_type": "N3d"}, "2": {"label": "*3", "atom_type": "Cd"}, "7": {"label": "*0", "atom_type": "N3d"}, "8": {"label": "*1", "atom_type": "O2s"}, "13": {"label": "*2", "atom_type": "H0"}}

>  <type>  (7) 
unop_3

>  <geom_source>  (7) 
Heuristics

$$$$

     RDKit          3D

 14 12  0  0  0  0  0  0  0  0999 V2000
    3.8534    0.3959   -0.0003 O   0  0  0  0  0  0  0  0  0  0  0  0
    2.6070   -0.2312   -0.0010 N   0  0  0  0  0  0  0  0  0  0  0  0
    1.5416    0.3887    0.0014 C   0  0  0  0  0  3  0  0  0  0  0  0
    4.4946   -0.3290   -0.0027 H   0  0  0  0  0  0  0  0  0  0  0  0
    1.3479    1.4551    0.0044 H   0  0  0  0  0  0  0  0  0  0  0  0
   -3.7245    0.8066   -0.0006 C   0  0  0  0  0  0  0  0  0  0  0  0
   -2.7493   -0.3152   -0.0003 C   0  0  0  0  0  0  0  0  0  0  0  0
   -1.5127   -0.0783    0.0002 N   0  0  0  0  0  0  0  0  0  0  0  0
   -0.5592   -0.9553    0.0006 O   0  0  0  0  0  0  0  0  0  0  0  0
   -3.2053    1.7603   -0.0027 H   0  0  0  0  0  0  0  0  0  0  0  0
   -4.3650    0.7425   -0.8793 H   0  0  0  0  0  0  0  0  0  0  0  0
   -4.3622    0.7451    0.8803 H   0  0  0  0  0  0  0  0  0  0  0  0
   -3.1460   -1.3325   -0.0005 H   0  0  0  0  0  0  0  0  0  0  0  0
    0.5140   -0.3474    0.0014 H   0  0  0  0  0  0  0  0  0  0  0  0
  1  2  1  0
  1  4  1  0
  2  3  2  3
  3  5  1  0
  6  7  1  0
  6 10  1  0
  6 11  1  0
  6 12  1  0
  7  8  2  3
  7 13  1  0
  8  9  1  0
  9 14  1  0
M  RAD  1   3   2
M  END
>  <reaction>  (8) 
rmg_rxn_15402

>  <mol_properties>  (8) 
{"1": {"label": "*4", "atom_type": "N3d"}, "2": {"label": "*3", "atom_type": "Cd"}, "7": {"label": "*0", "atom_type": "N3d"}, "8": {"label": "*1", "atom_type": "O2s"}, "13": {"label": "*2", "atom_type": "H0"}}

>  <type>  (8) 
unop_4

>  <geom_source>  (8) 
Heuristics

$$$$

     RDKit          3D

 14 12  0  0  0  0  0  0  0  0999 V2000
    3.0855   -0.9190   -0.0002 O   0  0  0  0  0  0  0  0  0  0  0  0
    1.8235   -0.3903   -0.0008 N   0  0  0  0  0  0  0  0  0  0  0  0
    1.6236    0.8364    0.0011 C   0  0  0  0  0  3  0  0  0  0  0  0
    3.7698   -0.2226    0.0015 H   0  0  0  0  0  0  0  0  0  0  0  0
    2.3690    1.6315    0.0033 H   0  0  0  0  0  0  0  0  0  0  0  0
   -2.9068   -1.3281    0.0003 C   0  0  0  0  0  0  0  0  0  0  0  0
   -1.6543   -0.5279    0.0003 C   0  0  0  0  0  0  0  0  0  0  0  0
   -1.6939    0.7280   -0.0004 N   0  0  0  0  0  0  0  0  0  0  0  0
   -0.7554    1.5819   -0.0004 O   0  0  0  0  0  0  0  0  0  0  0  0
   -2.9365   -1.9706   -0.8785 H   0  0  0  0  0  0  0  0  0  0  0  0
   -2.9376   -1.9690    0.8803 H   0  0  0  0  0  0  0  0  0  0  0  0
   -3.7757   -0.6766   -0.0009 H   0  0  0  0  0  0  0  0  0  0  0  0
   -0.7024   -1.0612    0.0009 H   0  0  0  0  0  0  0  0  0  0  0  0
    0.4298    1.2011    0.0003 H   0  0  0  0  0  0  0  0  0  0  0  0
  1  2  1  0
  1  4  1  0
  2  3  2  3
  3  5  1  0
  6  7  1  0
  6 10  1  0
  6 11  1  0
  6 12  1  0
  7  8  2  3
  7 13  1  0
  8  9  1  0
  9 14  1  0
M  RAD  1   3   2
M  END
>  <reaction>  (9) 
rmg_rxn_15402

>  <mol_properties>  (9) 
{"1": {"label": "*4", "atom_type": "N3d"}, "2": {"label": "*3", "atom_type": "Cd"}, "7": {"label": "*0", "atom_type": "N3d"}, "8": {"label": "*1", "atom_type": "O2s"}, "13": {"label": "*2", "atom_type": "H0"}}

>  <type>  (9) 
unop_5

>  <geom_source>  (9) 
Heuristics

$$$$

     RDKit          3D

 14 12  0  0  0  0  0  0  0  0999 V2000
   -0.6422    3.0717    1.5893 O   0  0  0  0  0  0  0  0  0  0  0  0
   -0.3433    1.9425    0.8527 N   0  0  0  0  0  0  0  0  0  0  0  0
    0.2211    1.0574    1.5537 C   0  0  0  0  0  3  0  0  0  0  0  0
   -1.0586    3.6511    0.9484 H   0  0  0  0  0  0  0  0  0  0  0  0
    0.4347    1.1947    2.6115 H   0  0  0  0  0  0  0  0  0  0  0  0
    0.2211   -2.1068   -2.8461 C   0  0  0  0  0  0  0  0  0  0  0  0
    0.2211   -2.1068   -1.3574 C   0  0  0  0  0  0  0  0  0  0  0  0
    0.2211   -1.0147   -0.7206 N   0  0  0  0  0  0  0  0  0  0  0  0
    0.2211   -1.2194    0.6526 O   0  0  0  0  0  0  0  0  0  0  0  0
    1.1005   -2.6306   -3.2279 H   0  0  0  0  0  0  0  0  0  0  0  0
   -0.6583   -2.6306   -3.2279 H   0  0  0  0  0  0  0  0  0  0  0  0
    0.2211   -1.0871   -3.2275 H   0  0  0  0  0  0  0  0  0  0  0  0
    0.2211   -3.0543   -0.8173 H   0  0  0  0  0  0  0  0  0  0  0  0
    0.2211   -0.1497    1.0759 H   0  0  0  0  0  0  0  0  0  0  0  0
  1  2  1  0
  1  4  1  0
  2  3  2  3
  3  5  1  0
  6  7  1  0
  6 10  1  0
  6 11  1  0
  6 12  1  0
  7  8  2  3
  7 13  1  0
  8  9  1  0
  9 14  1  0
M  RAD  1   3   2
M  END
>  <reaction>  (10) 
rmg_rxn_15402

>  <mol_properties>  (10) 
{"1": {"label": "*4", "atom_type": "N3d"}, "2": {"label": "*3", "atom_type": "Cd"}, "7": {"label": "*0", "atom_type": "N3d"}, "8": {"label": "*1", "atom_type": "O2s"}, "13": {"label": "*2", "atom_type": "H0"}}

>  <type>  (10) 
unop_6

>  <geom_source>  (10) 
Heuristics

$$$$

     RDKit          3D

 14 12  0  0  0  0  0  0  0  0999 V2000
    3.8526    0.3976   -0.0057 O   0  0  0  0  0  0  0  0  0  0  0  0
    2.6072   -0.2314   -0.0063 N   0  0  0  0  0  0  0  0  0  0  0  0
    1.5411    0.3871    0.0153 C   0  0  0  0  0  3  0  0  0  0  0  0
    4.4949   -0.3262   -0.0261 H   0  0  0  0  0  0  0  0  0  0  0  0
    1.3464    1.4531    0.0375 H   0  0  0  0  0  0  0  0  0  0  0  0
   -3.7231    0.8083   -0.0053 C   0  0  0  0  0  0  0  0  0  0  0  0
   -2.7493   -0.3146   -0.0038 C   0  0  0  0  0  0  0  0  0  0  0  0
   -1.5124   -0.0792    0.0027 N   0  0  0  0  0  0  0  0  0  0  0  0
   -0.5597   -0.9570    0.0045 O   0  0  0  0  0  0  0  0  0  0  0  0
   -3.2029    1.7615    0.0003 H   0  0  0  0  0  0  0  0  0  0  0  0
   -4.3578    0.7490   -0.8886 H   0  0  0  0  0  0  0  0  0  0  0  0
   -4.3668    0.7436    0.8710 H   0  0  0  0  0  0  0  0  0  0  0  0
   -3.1473   -1.3313   -0.0086 H   0  0  0  0  0  0  0  0  0  0  0  0
    0.5139   -0.3497    0.0098 H   0  0  0  0  0  0  0  0  0  0  0  0
  1  2  1  0
  1  4  1  0
  2  3  2  3
  3  5  1  0
  6  7  1  0
  6 10  1  0
  6 11  1  0
  6 12  1  0
  7  8  2  3
  7 13  1  0
  8  9  1  0
  9 14  1  0
M  RAD  1   3   2
M  END
>  <reaction>  (11) 
rmg_rxn_15402

>  <mol_properties>  (11) 
{"1": {"label": "*4", "atom_type": "N3d"}, "2": {"label": "*3", "atom_type": "Cd"}, "7": {"label": "*0", "atom_type": "N3d"}, "8": {"label": "*1", "atom_type": "O2s"}, "13": {"label": "*2", "atom_type": "H0"}}

>  <type>  (11) 
unop_7

>  <geom_source>  (11) 
Heuristics

$$$$

     RDKit          3D

 14 12  0  0  0  0  0  0  0  0999 V2000
    0.1132    2.4515    2.8677 O   0  0  0  0  0  0  0  0  0  0  0  0
   -0.4990    1.4640    2.1212 N   0  0  0  0  0  0  0  0  0  0  0  0
    0.0654    1.2983    1.0043 C   0  0  0  0  0  3  0  0  0  0  0  0
   -0.4050    2.4733    3.6746 H   0  0  0  0  0  0  0  0  0  0  0  0
    0.9308    1.8793    0.6924 H   0  0  0  0  0  0  0  0  0  0  0  0
    0.0654   -1.8658   -3.3954 C   0  0  0  0  0  0  0  0  0  0  0  0
    0.0654   -1.8658   -1.9068 C   0  0  0  0  0  0  0  0  0  0  0  0
    0.0654   -0.7738   -1.2700 N   0  0  0  0  0  0  0  0  0  0  0  0
    0.0654   -0.9784    0.1032 O   0  0  0  0  0  0  0  0  0  0  0  0
    0.9448   -2.3897   -3.7772 H   0  0  0  0  0  0  0  0  0  0  0  0
   -0.8140   -2.3897   -3.7772 H   0  0  0  0  0  0  0  0  0  0  0  0
    0.0654   -0.8461   -3.7769 H   0  0  0  0  0  0  0  0  0  0  0  0
    0.0654   -2.8133   -1.3666 H   0  0  0  0  0  0  0  0  0  0  0  0
    0.0654    0.0912    0.5266 H   0  0  0  0  0  0  0  0  0  0  0  0
  1  2  1  0
  1  4  1  0
  2  3  2  3
  3  5  1  0
  6  7  1  0
  6 10  1  0
  6 11  1  0
  6 12  1  0
  7  8  2  3
  7 13  1  0
  8  9  1  0
  9 14  1  0
M  RAD  1   3   2
M  END
>  <reaction>  (12) 
rmg_rxn_15402

>  <mol_properties>  (12) 
{"1": {"label": "*4", "atom_type": "N3d"}, "2": {"label": "*3", "atom_type": "Cd"}, "7": {"label": "*0", "atom_type": "N3d"}, "8": {"label": "*1", "atom_type": "O2s"}, "13": {"label": "*2", "atom_type": "H0"}}

>  <type>  (12) 
unop_8

>  <geom_source>  (12) 
Heuristics

$$$$

     RDKit          3D

 14 12  0  0  0  0  0  0  0  0999 V2000
    0.9471    2.7728    2.0766 O   0  0  0  0  0  0  0  0  0  0  0  0
    0.6286    1.8760    1.0760 N   0  0  0  0  0  0  0  0  0  0  0  0
   -0.3489    1.1429    1.3928 C   0  0  0  0  0  3  0  0  0  0  0  0
    1.6907    3.2570    1.7124 H   0  0  0  0  0  0  0  0  0  0  0  0
   -0.8615    1.2292    2.3486 H   0  0  0  0  0  0  0  0  0  0  0  0
   -0.3489   -2.0213   -3.0069 C   0  0  0  0  0  0  0  0  0  0  0  0
   -0.3489   -2.0213   -1.5183 C   0  0  0  0  0  0  0  0  0  0  0  0
   -0.3489   -0.9292   -0.8815 N   0  0  0  0  0  0  0  0  0  0  0  0
   -0.3489   -1.1339    0.4917 O   0  0  0  0  0  0  0  0  0  0  0  0
    0.5305   -2.5451   -3.3887 H   0  0  0  0  0  0  0  0  0  0  0  0
   -1.2283   -2.5451   -3.3887 H   0  0  0  0  0  0  0  0  0  0  0  0
   -0.3489   -1.0016   -3.3884 H   0  0  0  0  0  0  0  0  0  0  0  0
   -0.3489   -2.9688   -0.9781 H   0  0  0  0  0  0  0  0  0  0  0  0
   -0.3489   -0.0642    0.9151 H   0  0  0  0  0  0  0  0  0  0  0  0
  1  2  1  0
  1  4  1  0
  2  3  2  3
  3  5  1  0
  6  7  1  0
  6 10  1  0
  6 11  1  0
  6 12  1  0
  7  8  2  3
  7 13  1  0
  8  9  1  0
  9 14  1  0
M  RAD  1   3   2
M  END
>  <reaction>  (13) 
rmg_rxn_15402

>  <mol_properties>  (13) 
{"1": {"label": "*4", "atom_type": "N3d"}, "2": {"label": "*3", "atom_type": "Cd"}, "7": {"label": "*0", "atom_type": "N3d"}, "8": {"label": "*1", "atom_type": "O2s"}, "13": {"label": "*2", "atom_type": "H0"}}

>  <type>  (13) 
unop_9

>  <geom_source>  (13) 
Heuristics

$$$$

     RDKit          3D

 14 12  0  0  0  0  0  0  0  0999 V2000
    3.3159    0.8711    0.0001 O   0  0  0  0  0  0  0  0  0  0  0  0
    2.0198    0.3489    0.0002 N   0  0  0  0  0  0  0  0  0  0  0  0
    1.7932   -0.8649   -0.0005 C   0  0  0  0  0  3  0  0  0  0  0  0
    3.1952    1.8311    0.0006 H   0  0  0  0  0  0  0  0  0  0  0  0
    2.4803   -1.7022   -0.0015 H   0  0  0  0  0  0  0  0  0  0  0  0
   -3.0984    1.2853   -0.0002 C   0  0  0  0  0  0  0  0  0  0  0  0
   -2.5344   -0.0902    0.0002 C   0  0  0  0  0  0  0  0  0  0  0  0
   -1.2881   -0.2604   -0.0001 N   0  0  0  0  0  0  0  0  0  0  0  0
   -0.6493   -1.3814    0.0003 O   0  0  0  0  0  0  0  0  0  0  0  0
   -2.2989    2.0199   -0.0010 H   0  0  0  0  0  0  0  0  0  0  0  0
   -3.7240    1.4311   -0.8799 H   0  0  0  0  0  0  0  0  0  0  0  0
   -3.7232    1.4321    0.8798 H   0  0  0  0  0  0  0  0  0  0  0  0
   -3.2370   -0.9266    0.0008 H   0  0  0  0  0  0  0  0  0  0  0  0
    0.5668   -1.1489   -0.0001 H   0  0  0  0  0  0  0  0  0  0  0  0
  1  2  1  0
  1  4  1  0
  2  3  2  3
  3  5  1  0
  6  7  1  0
  6 10  1  0
  6 11  1  0
  6 12  1  0
  7  8  2  3
  7 13  1  0
  8  9  1  0
  9 14  1  0
M  RAD  1   3   2
M  END
>  <reaction>  (14) 
rmg_rxn_15402

>  <mol_properties>  (14) 
{"1": {"label": "*4", "atom_type": "N3d"}, "2": {"label": "*3", "atom_type": "Cd"}, "7": {"label": "*0", "atom_type": "N3d"}, "8": {"label": "*1", "atom_type": "O2s"}, "13": {"label": "*2", "atom_type": "H0"}}

>  <type>  (14) 
unop_10

>  <geom_source>  (14) 
Heuristics

$$$$

     RDKit          3D

 14 12  0  0  0  0  0  0  0  0999 V2000
    0.0000    2.6890    2.6810 O   0  0  0  0  0  0  0  0  0  0  0  0
    0.0000    1.3681    2.2782 N   0  0  0  0  0  0  0  0  0  0  0  0
    0.0000    1.2581    1.0207 C   0  0  0  0  0  3  0  0  0  0  0  0
    0.0000    2.6292    3.6383 H   0  0  0  0  0  0  0  0  0  0  0  0
    0.0000    2.1197    0.3564 H   0  0  0  0  0  0  0  0  0  0  0  0
   -0.0000   -1.9061   -3.3791 C   0  0  0  0  0  0  0  0  0  0  0  0
   -0.0000   -1.9061   -1.8904 C   0  0  0  0  0  0  0  0  0  0  0  0
   -0.0000   -0.8140   -1.2536 N   0  0  0  0  0  0  0  0  0  0  0  0
   -0.0000   -1.0187    0.1196 O   0  0  0  0  0  0  0  0  0  0  0  0
    0.8794   -2.4299   -3.7609 H   0  0  0  0  0  0  0  0  0  0  0  0
   -0.8794   -2.4299   -3.7609 H   0  0  0  0  0  0  0  0  0  0  0  0
   -0.0000   -0.8864   -3.7605 H   0  0  0  0  0  0  0  0  0  0  0  0
   -0.0000   -2.8536   -1.3503 H   0  0  0  0  0  0  0  0  0  0  0  0
   -0.0000    0.0510    0.5430 H   0  0  0  0  0  0  0  0  0  0  0  0
  1  2  1  0
  1  4  1  0
  2  3  2  3
  3  5  1  0
  6  7  1  0
  6 10  1  0
  6 11  1  0
  6 12  1  0
  7  8  2  3
  7 13  1  0
  8  9  1  0
  9 14  1  0
M  RAD  1   3   2
M  END
>  <reaction>  (15) 
rmg_rxn_15402

>  <mol_properties>  (15) 
{"1": {"label": "*4", "atom_type": "N3d"}, "2": {"label": "*3", "atom_type": "Cd"}, "7": {"label": "*0", "atom_type": "N3d"}, "8": {"label": "*1", "atom_type": "O2s"}, "13": {"label": "*2", "atom_type": "H0"}}

>  <type>  (15) 
unop_11

>  <geom_source>  (15) 
Heuristics

$$$$

     RDKit          3D

 14 12  0  0  0  0  0  0  0  0999 V2000
   -3.0856   -0.9189   -0.0000 O   0  0  0  0  0  0  0  0  0  0  0  0
   -1.8236   -0.3903    0.0003 N   0  0  0  0  0  0  0  0  0  0  0  0
   -1.6236    0.8364   -0.0003 C   0  0  0  0  0  3  0  0  0  0  0  0
   -3.7699   -0.2224   -0.0008 H   0  0  0  0  0  0  0  0  0  0  0  0
   -2.3690    1.6315   -0.0012 H   0  0  0  0  0  0  0  0  0  0  0  0
    2.9069   -1.3281   -0.0002 C   0  0  0  0  0  0  0  0  0  0  0  0
    1.6544   -0.5279    0.0002 C   0  0  0  0  0  0  0  0  0  0  0  0
    1.6939    0.7280   -0.0000 N   0  0  0  0  0  0  0  0  0  0  0  0
    0.7555    1.5819    0.0001 O   0  0  0  0  0  0  0  0  0  0  0  0
    2.9371   -1.9706    0.8786 H   0  0  0  0  0  0  0  0  0  0  0  0
    2.9373   -1.9690   -0.8802 H   0  0  0  0  0  0  0  0  0  0  0  0
    3.7757   -0.6765    0.0004 H   0  0  0  0  0  0  0  0  0  0  0  0
    0.7025   -1.0612    0.0005 H   0  0  0  0  0  0  0  0  0  0  0  0
   -0.4298    1.2010    0.0000 H   0  0  0  0  0  0  0  0  0  0  0  0
  1  2  1  0
  1  4  1  0
  2  3  2  3
  3  5  1  0
  6  7  1  0
  6 10  1  0
  6 11  1  0
  6 12  1  0
  7  8  2  3
  7 13  1  0
  8  9  1  0
  9 14  1  0
M  RAD  1   3   2
M  END
>  <reaction>  (16) 
rmg_rxn_15402

>  <mol_properties>  (16) 
{"1": {"label": "*4", "atom_type": "N3d"}, "2": {"label": "*3", "atom_type": "Cd"}, "7": {"label": "*0", "atom_type": "N3d"}, "8": {"label": "*1", "atom_type": "O2s"}, "13": {"label": "*2", "atom_type": "H0"}}

>  <type>  (16) 
unop_12

>  <geom_source>  (16) 
Heuristics

$$$$

     RDKit          3D

 14 12  0  0  0  0  0  0  0  0999 V2000
    0.8114    2.4762    2.5934 O   0  0  0  0  0  0  0  0  0  0  0  0
    0.7841    1.7621    1.4117 N   0  0  0  0  0  0  0  0  0  0  0  0
   -0.3447    1.2367    1.2038 C   0  0  0  0  0  3  0  0  0  0  0  0
    1.7080    2.8153    2.6272 H   0  0  0  0  0  0  0  0  0  0  0  0
   -1.1801    1.3496    1.8916 H   0  0  0  0  0  0  0  0  0  0  0  0
   -0.3447   -1.9275   -3.1960 C   0  0  0  0  0  0  0  0  0  0  0  0
   -0.3447   -1.9275   -1.7073 C   0  0  0  0  0  0  0  0  0  0  0  0
   -0.3447   -0.8354   -1.0705 N   0  0  0  0  0  0  0  0  0  0  0  0
   -0.3447   -1.0401    0.3027 O   0  0  0  0  0  0  0  0  0  0  0  0
    0.5347   -2.4513   -3.5778 H   0  0  0  0  0  0  0  0  0  0  0  0
   -1.2242   -2.4513   -3.5778 H   0  0  0  0  0  0  0  0  0  0  0  0
   -0.3447   -0.9078   -3.5774 H   0  0  0  0  0  0  0  0  0  0  0  0
   -0.3447   -2.8750   -1.1672 H   0  0  0  0  0  0  0  0  0  0  0  0
   -0.3447    0.0296    0.7260 H   0  0  0  0  0  0  0  0  0  0  0  0
  1  2  1  0
  1  4  1  0
  2  3  2  3
  3  5  1  0
  6  7  1  0
  6 10  1  0
  6 11  1  0
  6 12  1  0
  7  8  2  3
  7 13  1  0
  8  9  1  0
  9 14  1  0
M  RAD  1   3   2
M  END
>  <reaction>  (17) 
rmg_rxn_15402

>  <mol_properties>  (17) 
{"1": {"label": "*4", "atom_type": "N3d"}, "2": {"label": "*3", "atom_type": "Cd"}, "7": {"label": "*0", "atom_type": "N3d"}, "8": {"label": "*1", "atom_type": "O2s"}, "13": {"label": "*2", "atom_type": "H0"}}

>  <type>  (17) 
unop_13

>  <geom_source>  (17) 
Heuristics

$$$$

     RDKit          3D

 14 12  0  0  0  0  0  0  0  0999 V2000
   -3.3214   -0.8682   -0.0002 O   0  0  0  0  0  0  0  0  0  0  0  0
   -2.0238   -0.3497   -0.0008 N   0  0  0  0  0  0  0  0  0  0  0  0
   -1.7936    0.8634    0.0016 C   0  0  0  0  0  3  0  0  0  0  0  0
   -3.2035   -1.8286   -0.0025 H   0  0  0  0  0  0  0  0  0  0  0  0
   -2.4781    1.7027    0.0044 H   0  0  0  0  0  0  0  0  0  0  0  0
    3.1045   -1.2827    0.0008 C   0  0  0  0  0  0  0  0  0  0  0  0
    2.5370    0.0913   -0.0009 C   0  0  0  0  0  0  0  0  0  0  0  0
    1.2903    0.2587    0.0005 N   0  0  0  0  0  0  0  0  0  0  0  0
    0.6492    1.3784   -0.0008 O   0  0  0  0  0  0  0  0  0  0  0  0
    2.3069   -2.0194    0.0059 H   0  0  0  0  0  0  0  0  0  0  0  0
    3.7267   -1.4298   -0.8811 H   0  0  0  0  0  0  0  0  0  0  0  0
    3.7335   -1.4249    0.8786 H   0  0  0  0  0  0  0  0  0  0  0  0
    3.2375    0.9295   -0.0033 H   0  0  0  0  0  0  0  0  0  0  0  0
   -0.5666    1.1448    0.0005 H   0  0  0  0  0  0  0  0  0  0  0  0
  1  2  1  0
  1  4  1  0
  2  3  2  3
  3  5  1  0
  6  7  1  0
  6 10  1  0
  6 11  1  0
  6 12  1  0
  7  8  2  3
  7 13  1  0
  8  9  1  0
  9 14  1  0
M  RAD  1   3   2
M  END
>  <reaction>  (18) 
rmg_rxn_15402

>  <mol_properties>  (18) 
{"1": {"label": "*4", "atom_type": "N3d"}, "2": {"label": "*3", "atom_type": "Cd"}, "7": {"label": "*0", "atom_type": "N3d"}, "8": {"label": "*1", "atom_type": "O2s"}, "13": {"label": "*2", "atom_type": "H0"}}

>  <type>  (18) 
unop_14

>  <geom_source>  (18) 
Heuristics

$$$$

     RDKit          3D

 14 12  0  0  0  0  0  0  0  0999 V2000
    0.3519    2.3297    2.9036 O   0  0  0  0  0  0  0  0  0  0  0  0
    0.7513    1.6172    1.7901 N   0  0  0  0  0  0  0  0  0  0  0  0
   -0.2262    1.2995    1.0573 C   0  0  0  0  0  3  0  0  0  0  0  0
    1.1756    2.5034    3.3633 H   0  0  0  0  0  0  0  0  0  0  0  0
   -1.2523    1.5686    1.2990 H   0  0  0  0  0  0  0  0  0  0  0  0
   -0.2262   -1.8646   -3.3424 C   0  0  0  0  0  0  0  0  0  0  0  0
   -0.2262   -1.8646   -1.8538 C   0  0  0  0  0  0  0  0  0  0  0  0
   -0.2262   -0.7726   -1.2170 N   0  0  0  0  0  0  0  0  0  0  0  0
   -0.2262   -0.9772    0.1562 O   0  0  0  0  0  0  0  0  0  0  0  0
    0.6532   -2.3885   -3.7242 H   0  0  0  0  0  0  0  0  0  0  0  0
   -1.1057   -2.3885   -3.7242 H   0  0  0  0  0  0  0  0  0  0  0  0
   -0.2262   -0.8450   -3.7238 H   0  0  0  0  0  0  0  0  0  0  0  0
   -0.2262   -2.8122   -1.3136 H   0  0  0  0  0  0  0  0  0  0  0  0
   -0.2262    0.0924    0.5796 H   0  0  0  0  0  0  0  0  0  0  0  0
  1  2  1  0
  1  4  1  0
  2  3  2  3
  3  5  1  0
  6  7  1  0
  6 10  1  0
  6 11  1  0
  6 12  1  0
  7  8  2  3
  7 13  1  0
  8  9  1  0
  9 14  1  0
M  RAD  1   3   2
M  END
>  <reaction>  (19) 
rmg_rxn_15402

>  <mol_properties>  (19) 
{"1": {"label": "*4", "atom_type": "N3d"}, "2": {"label": "*3", "atom_type": "Cd"}, "7": {"label": "*0", "atom_type": "N3d"}, "8": {"label": "*1", "atom_type": "O2s"}, "13": {"label": "*2", "atom_type": "H0"}}

>  <type>  (19) 
unop_15

>  <geom_source>  (19) 
Heuristics

$$$$

     RDKit          3D

 14 12  0  0  0  0  0  0  0  0999 V2000
    3.8525    0.3973    0.0132 O   0  0  0  0  0  0  0  0  0  0  0  0
    2.6067   -0.2310    0.0167 N   0  0  0  0  0  0  0  0  0  0  0  0
    1.5414    0.3869   -0.0378 C   0  0  0  0  0  3  0  0  0  0  0  0
    4.4939   -0.3258    0.0634 H   0  0  0  0  0  0  0  0  0  0  0  0
    1.3481    1.4519   -0.0948 H   0  0  0  0  0  0  0  0  0  0  0  0
   -3.7228    0.8085    0.0134 C   0  0  0  0  0  0  0  0  0  0  0  0
   -2.7494   -0.3147    0.0077 C   0  0  0  0  0  0  0  0  0  0  0  0
   -1.5125   -0.0795   -0.0052 N   0  0  0  0  0  0  0  0  0  0  0  0
   -0.5596   -0.9568   -0.0109 O   0  0  0  0  0  0  0  0  0  0  0  0
   -4.3699    0.7443   -0.8605 H   0  0  0  0  0  0  0  0  0  0  0  0
   -4.3541    0.7491    0.8990 H   0  0  0  0  0  0  0  0  0  0  0  0
   -3.2023    1.7615    0.0061 H   0  0  0  0  0  0  0  0  0  0  0  0
   -3.1475   -1.3314    0.0154 H   0  0  0  0  0  0  0  0  0  0  0  0
    0.5141   -0.3492   -0.0234 H   0  0  0  0  0  0  0  0  0  0  0  0
  1  2  1  0
  1  4  1  0
  2  3  2  3
  3  5  1  0
  6  7  1  0
  6 10  1  0
  6 11  1  0
  6 12  1  0
  7  8  2  3
  7 13  1  0
  8  9  1  0
  9 14  1  0
M  RAD  1   3   2
M  END
>  <reaction>  (20) 
rmg_rxn_15402

>  <mol_properties>  (20) 
{"1": {"label": "*4", "atom_type": "N3d"}, "2": {"label": "*3", "atom_type": "Cd"}, "7": {"label": "*0", "atom_type": "N3d"}, "8": {"label": "*1", "atom_type": "O2s"}, "13": {"label": "*2", "atom_type": "H0"}}

>  <type>  (20) 
unop_16

>  <geom_source>  (20) 
Heuristics

$$$$

     RDKit          3D

 14 12  0  0  0  0  0  0  0  0999 V2000
   -0.8114    2.4762    2.5934 O   0  0  0  0  0  0  0  0  0  0  0  0
   -0.7841    1.7621    1.4117 N   0  0  0  0  0  0  0  0  0  0  0  0
    0.3447    1.2367    1.2038 C   0  0  0  0  0  3  0  0  0  0  0  0
   -1.7080    2.8153    2.6272 H   0  0  0  0  0  0  0  0  0  0  0  0
    1.1801    1.3496    1.8916 H   0  0  0  0  0  0  0  0  0  0  0  0
    0.3447   -1.9275   -3.1960 C   0  0  0  0  0  0  0  0  0  0  0  0
    0.3447   -1.9275   -1.7073 C   0  0  0  0  0  0  0  0  0  0  0  0
    0.3447   -0.8354   -1.0705 N   0  0  0  0  0  0  0  0  0  0  0  0
    0.3447   -1.0401    0.3027 O   0  0  0  0  0  0  0  0  0  0  0  0
    1.2242   -2.4513   -3.5778 H   0  0  0  0  0  0  0  0  0  0  0  0
   -0.5347   -2.4513   -3.5778 H   0  0  0  0  0  0  0  0  0  0  0  0
    0.3447   -0.9078   -3.5774 H   0  0  0  0  0  0  0  0  0  0  0  0
    0.3447   -2.8750   -1.1672 H   0  0  0  0  0  0  0  0  0  0  0  0
    0.3447    0.0296    0.7260 H   0  0  0  0  0  0  0  0  0  0  0  0
  1  2  1  0
  1  4  1  0
  2  3  2  3
  3  5  1  0
  6  7  1  0
  6 10  1  0
  6 11  1  0
  6 12  1  0
  7  8  2  3
  7 13  1  0
  8  9  1  0
  9 14  1  0
M  RAD  1   3   2
M  END
>  <reaction>  (21) 
rmg_rxn_15402

>  <mol_properties>  (21) 
{"1": {"label": "*4", "atom_type": "N3d"}, "2": {"label": "*3", "atom_type": "Cd"}, "7": {"label": "*0", "atom_type": "N3d"}, "8": {"label": "*1", "atom_type": "O2s"}, "13": {"label": "*2", "atom_type": "H0"}}

>  <type>  (21) 
unop_17

>  <geom_source>  (21) 
Heuristics

$$$$

     RDKit          3D

 14 12  0  0  0  0  0  0  0  0999 V2000
   -3.0853   -0.9189    0.0001 O   0  0  0  0  0  0  0  0  0  0  0  0
   -1.8234   -0.3902   -0.0002 N   0  0  0  0  0  0  0  0  0  0  0  0
   -1.6234    0.8365    0.0000 C   0  0  0  0  0  3  0  0  0  0  0  0
   -3.7697   -0.2225    0.0006 H   0  0  0  0  0  0  0  0  0  0  0  0
   -2.3687    1.6316    0.0006 H   0  0  0  0  0  0  0  0  0  0  0  0
    2.9062   -1.3285    0.0001 C   0  0  0  0  0  0  0  0  0  0  0  0
    1.6541   -0.5278   -0.0002 C   0  0  0  0  0  0  0  0  0  0  0  0
    1.6940    0.7281    0.0001 N   0  0  0  0  0  0  0  0  0  0  0  0
    0.7556    1.5820   -0.0000 O   0  0  0  0  0  0  0  0  0  0  0  0
    2.9371   -1.9693   -0.8799 H   0  0  0  0  0  0  0  0  0  0  0  0
    3.7754   -0.6773    0.0016 H   0  0  0  0  0  0  0  0  0  0  0  0
    2.9355   -1.9711    0.8789 H   0  0  0  0  0  0  0  0  0  0  0  0
    0.7019   -1.0607   -0.0008 H   0  0  0  0  0  0  0  0  0  0  0  0
   -0.4296    1.2012   -0.0002 H   0  0  0  0  0  0  0  0  0  0  0  0
  1  2  1  0
  1  4  1  0
  2  3  2  3
  3  5  1  0
  6  7  1  0
  6 10  1  0
  6 11  1  0
  6 12  1  0
  7  8  2  3
  7 13  1  0
  8  9  1  0
  9 14  1  0
M  RAD  1   3   2
M  END
>  <reaction>  (22) 
rmg_rxn_15402

>  <mol_properties>  (22) 
{"1": {"label": "*4", "atom_type": "N3d"}, "2": {"label": "*3", "atom_type": "Cd"}, "7": {"label": "*0", "atom_type": "N3d"}, "8": {"label": "*1", "atom_type": "O2s"}, "13": {"label": "*2", "atom_type": "H0"}}

>  <type>  (22) 
unop_18

>  <geom_source>  (22) 
Heuristics

$$$$

     RDKit          3D

 14 12  0  0  0  0  0  0  0  0999 V2000
    0.6422    3.0717    1.5893 O   0  0  0  0  0  0  0  0  0  0  0  0
    0.3433    1.9425    0.8527 N   0  0  0  0  0  0  0  0  0  0  0  0
   -0.2211    1.0574    1.5537 C   0  0  0  0  0  3  0  0  0  0  0  0
    1.0586    3.6511    0.9484 H   0  0  0  0  0  0  0  0  0  0  0  0
   -0.4347    1.1947    2.6115 H   0  0  0  0  0  0  0  0  0  0  0  0
   -0.2211   -2.1068   -2.8461 C   0  0  0  0  0  0  0  0  0  0  0  0
   -0.2211   -2.1068   -1.3574 C   0  0  0  0  0  0  0  0  0  0  0  0
   -0.2211   -1.0147   -0.7206 N   0  0  0  0  0  0  0  0  0  0  0  0
   -0.2211   -1.2194    0.6526 O   0  0  0  0  0  0  0  0  0  0  0  0
    0.6583   -2.6306   -3.2279 H   0  0  0  0  0  0  0  0  0  0  0  0
   -1.1005   -2.6306   -3.2279 H   0  0  0  0  0  0  0  0  0  0  0  0
   -0.2211   -1.0871   -3.2275 H   0  0  0  0  0  0  0  0  0  0  0  0
   -0.2211   -3.0543   -0.8173 H   0  0  0  0  0  0  0  0  0  0  0  0
   -0.2211   -0.1497    1.0759 H   0  0  0  0  0  0  0  0  0  0  0  0
  1  2  1  0
  1  4  1  0
  2  3  2  3
  3  5  1  0
  6  7  1  0
  6 10  1  0
  6 11  1  0
  6 12  1  0
  7  8  2  3
  7 13  1  0
  8  9  1  0
  9 14  1  0
M  RAD  1   3   2
M  END
>  <reaction>  (23) 
rmg_rxn_15402

>  <mol_properties>  (23) 
{"1": {"label": "*4", "atom_type": "N3d"}, "2": {"label": "*3", "atom_type": "Cd"}, "7": {"label": "*0", "atom_type": "N3d"}, "8": {"label": "*1", "atom_type": "O2s"}, "13": {"label": "*2", "atom_type": "H0"}}

>  <type>  (23) 
unop_19

>  <geom_source>  (23) 
Heuristics

$$$$

     RDKit          3D

 14 12  0  0  0  0  0  0  0  0999 V2000
   -0.9471    2.7728    2.0766 O   0  0  0  0  0  0  0  0  0  0  0  0
   -0.6286    1.8760    1.0760 N   0  0  0  0  0  0  0  0  0  0  0  0
    0.3489    1.1429    1.3928 C   0  0  0  0  0  3  0  0  0  0  0  0
   -1.6907    3.2570    1.7124 H   0  0  0  0  0  0  0  0  0  0  0  0
    0.8615    1.2292    2.3486 H   0  0  0  0  0  0  0  0  0  0  0  0
    0.3489   -2.0213   -3.0069 C   0  0  0  0  0  0  0  0  0  0  0  0
    0.3489   -2.0213   -1.5183 C   0  0  0  0  0  0  0  0  0  0  0  0
    0.3489   -0.9292   -0.8815 N   0  0  0  0  0  0  0  0  0  0  0  0
    0.3489   -1.1339    0.4917 O   0  0  0  0  0  0  0  0  0  0  0  0
    1.2283   -2.5451   -3.3887 H   0  0  0  0  0  0  0  0  0  0  0  0
   -0.5305   -2.5451   -3.3887 H   0  0  0  0  0  0  0  0  0  0  0  0
    0.3489   -1.0016   -3.3884 H   0  0  0  0  0  0  0  0  0  0  0  0
    0.3489   -2.9688   -0.9781 H   0  0  0  0  0  0  0  0  0  0  0  0
    0.3489   -0.0642    0.9151 H   0  0  0  0  0  0  0  0  0  0  0  0
  1  2  1  0
  1  4  1  0
  2  3  2  3
  3  5  1  0
  6  7  1  0
  6 10  1  0
  6 11  1  0
  6 12  1  0
  7  8  2  3
  7 13  1  0
  8  9  1  0
  9 14  1  0
M  RAD  1   3   2
M  END
>  <reaction>  (24) 
rmg_rxn_15402

>  <mol_properties>  (24) 
{"1": {"label": "*4", "atom_type": "N3d"}, "2": {"label": "*3", "atom_type": "Cd"}, "7": {"label": "*0", "atom_type": "N3d"}, "8": {"label": "*1", "atom_type": "O2s"}, "13": {"label": "*2", "atom_type": "H0"}}

>  <type>  (24) 
unop_20

>  <geom_source>  (24) 
Heuristics

$$$$

     RDKit          3D

 14 12  0  0  0  0  0  0  0  0999 V2000
   -0.1132    2.4515    2.8677 O   0  0  0  0  0  0  0  0  0  0  0  0
    0.4990    1.4640    2.1212 N   0  0  0  0  0  0  0  0  0  0  0  0
   -0.0654    1.2983    1.0043 C   0  0  0  0  0  3  0  0  0  0  0  0
    0.4050    2.4733    3.6746 H   0  0  0  0  0  0  0  0  0  0  0  0
   -0.9308    1.8793    0.6924 H   0  0  0  0  0  0  0  0  0  0  0  0
   -0.0654   -1.8658   -3.3954 C   0  0  0  0  0  0  0  0  0  0  0  0
   -0.0654   -1.8658   -1.9068 C   0  0  0  0  0  0  0  0  0  0  0  0
   -0.0654   -0.7738   -1.2700 N   0  0  0  0  0  0  0  0  0  0  0  0
   -0.0654   -0.9784    0.1032 O   0  0  0  0  0  0  0  0  0  0  0  0
    0.8140   -2.3897   -3.7772 H   0  0  0  0  0  0  0  0  0  0  0  0
   -0.9448   -2.3897   -3.7772 H   0  0  0  0  0  0  0  0  0  0  0  0
   -0.0654   -0.8461   -3.7769 H   0  0  0  0  0  0  0  0  0  0  0  0
   -0.0654   -2.8133   -1.3666 H   0  0  0  0  0  0  0  0  0  0  0  0
   -0.0654    0.0912    0.5266 H   0  0  0  0  0  0  0  0  0  0  0  0
  1  2  1  0
  1  4  1  0
  2  3  2  3
  3  5  1  0
  6  7  1  0
  6 10  1  0
  6 11  1  0
  6 12  1  0
  7  8  2  3
  7 13  1  0
  8  9  1  0
  9 14  1  0
M  RAD  1   3   2
M  END
>  <reaction>  (25) 
rmg_rxn_15402

>  <mol_properties>  (25) 
{"1": {"label": "*4", "atom_type": "N3d"}, "2": {"label": "*3", "atom_type": "Cd"}, "7": {"label": "*0", "atom_type": "N3d"}, "8": {"label": "*1", "atom_type": "O2s"}, "13": {"label": "*2", "atom_type": "H0"}}

>  <type>  (25) 
unop_21

>  <geom_source>  (25) 
Heuristics

$$$$

     RDKit          3D

 14 12  0  0  0  0  0  0  0  0999 V2000
    0.0000    3.2014    1.3863 O   0  0  0  0  0  0  0  0  0  0  0  0
    0.0000    1.9627    0.7760 N   0  0  0  0  0  0  0  0  0  0  0  0
    0.0000    1.0219    1.6176 C   0  0  0  0  0  3  0  0  0  0  0  0
    0.0000    3.8130    0.6474 H   0  0  0  0  0  0  0  0  0  0  0  0
    0.0000    1.1955    2.6916 H   0  0  0  0  0  0  0  0  0  0  0  0
   -0.0000   -2.1423   -2.7821 C   0  0  0  0  0  0  0  0  0  0  0  0
   -0.0000   -2.1423   -1.2935 C   0  0  0  0  0  0  0  0  0  0  0  0
   -0.0000   -1.0502   -0.6567 N   0  0  0  0  0  0  0  0  0  0  0  0
   -0.0000   -1.2549    0.7165 O   0  0  0  0  0  0  0  0  0  0  0  0
    0.8794   -2.6661   -3.1639 H   0  0  0  0  0  0  0  0  0  0  0  0
   -0.8794   -2.6661   -3.1639 H   0  0  0  0  0  0  0  0  0  0  0  0
   -0.0000   -1.1226   -3.1635 H   0  0  0  0  0  0  0  0  0  0  0  0
   -0.0000   -3.0898   -0.7533 H   0  0  0  0  0  0  0  0  0  0  0  0
   -0.0000   -0.1852    1.1399 H   0  0  0  0  0  0  0  0  0  0  0  0
  1  2  1  0
  1  4  1  0
  2  3  2  3
  3  5  1  0
  6  7  1  0
  6 10  1  0
  6 11  1  0
  6 12  1  0
  7  8  2  3
  7 13  1  0
  8  9  1  0
  9 14  1  0
M  RAD  1   3   2
M  END
>  <reaction>  (26) 
rmg_rxn_15402

>  <mol_properties>  (26) 
{"1": {"label": "*4", "atom_type": "N3d"}, "2": {"label": "*3", "atom_type": "Cd"}, "7": {"label": "*0", "atom_type": "N3d"}, "8": {"label": "*1", "atom_type": "O2s"}, "13": {"label": "*2", "atom_type": "H0"}}

>  <type>  (26) 
unop_22

>  <geom_source>  (26) 
Heuristics

$$$$

     RDKit          3D

 14 12  0  0  0  0  0  0  0  0999 V2000
    3.0862    0.9186   -0.0000 O   0  0  0  0  0  0  0  0  0  0  0  0
    1.8240    0.3904    0.0002 N   0  0  0  0  0  0  0  0  0  0  0  0
    1.6235   -0.8362   -0.0000 C   0  0  0  0  0  3  0  0  0  0  0  0
    3.7702    0.2219   -0.0004 H   0  0  0  0  0  0  0  0  0  0  0  0
    2.3685   -1.6316   -0.0004 H   0  0  0  0  0  0  0  0  0  0  0  0
   -2.9072    1.3280   -0.0000 C   0  0  0  0  0  0  0  0  0  0  0  0
   -1.6547    0.5279   -0.0001 C   0  0  0  0  0  0  0  0  0  0  0  0
   -1.6942   -0.7281    0.0000 N   0  0  0  0  0  0  0  0  0  0  0  0
   -0.7554   -1.5817    0.0000 O   0  0  0  0  0  0  0  0  0  0  0  0
   -2.9377    1.9694   -0.8796 H   0  0  0  0  0  0  0  0  0  0  0  0
   -3.7761    0.6764    0.0004 H   0  0  0  0  0  0  0  0  0  0  0  0
   -2.9373    1.9700    0.8792 H   0  0  0  0  0  0  0  0  0  0  0  0
   -0.7028    1.0611   -0.0001 H   0  0  0  0  0  0  0  0  0  0  0  0
    0.4296   -1.2006    0.0001 H   0  0  0  0  0  0  0  0  0  0  0  0
  1  2  1  0
  1  4  1  0
  2  3  2  3
  3  5  1  0
  6  7  1  0
  6 10  1  0
  6 11  1  0
  6 12  1  0
  7  8  2  3
  7 13  1  0
  8  9  1  0
  9 14  1  0
M  RAD  1   3   2
M  END
>  <reaction>  (27) 
rmg_rxn_15402

>  <mol_properties>  (27) 
{"1": {"label": "*4", "atom_type": "N3d"}, "2": {"label": "*3", "atom_type": "Cd"}, "7": {"label": "*0", "atom_type": "N3d"}, "8": {"label": "*1", "atom_type": "O2s"}, "13": {"label": "*2", "atom_type": "H0"}}

>  <type>  (27) 
unop_23

>  <geom_source>  (27) 
Heuristics

$$$$

     RDKit          3D

 14 12  0  0  0  0  0  0  0  0999 V2000
    2.8467    1.0309   -0.2544 O   0  0  0  0  0  0  0  0  0  0  0  0
    0.4413   -0.7642   -0.3406 O   0  0  0  0  0  1  0  0  0  0  0  0
    3.2441    0.0363    0.6078 N   0  0  0  0  0  2  0  0  0  0  0  0
   -0.7281   -0.2624    0.1806 N   0  0  0  0  0  2  0  0  0  0  0  0
   -3.0021    0.5230   -0.0118 C   0  0  0  0  0  0  0  0  0  0  0  0
   -1.7395   -0.0209   -0.5879 C   0  0  0  0  0  3  0  0  0  0  0  0
    2.6064   -1.0862    0.6504 C   0  0  0  0  0  3  0  0  0  0  0  0
   -2.8031    1.5014    0.4736 H   0  0  0  0  0  0  0  0  0  0  0  0
   -3.7524    0.6650   -0.8175 H   0  0  0  0  0  0  0  0  0  0  0  0
   -3.4084   -0.1860    0.7398 H   0  0  0  0  0  0  0  0  0  0  0  0
   -1.6739   -0.2123   -1.6525 H   0  0  0  0  0  0  0  0  0  0  0  0
    1.6907   -1.2706   -0.0374 H   0  0  0  0  0  0  0  0  0  0  0  0
    2.9272   -1.8619    1.3322 H   0  0  0  0  0  0  0  0  0  0  0  0
    3.3511    1.9079   -0.2823 H   0  0  0  0  0  0  0  0  0  0  0  0
  1 14  1  0
  1  3  1  0
  2  4  1  0
  3  7  1  0
  4  6  1  0
  5  8  1  0
  5 10  1  0
  5  6  1  0
  5  9  1  0
  6 11  1  0
  7 12  1  0
  7 13  1  0
M  RAD  5   2   2   3   2   4   2   6   2   7   2
M  END
>  <reaction>  (28) 
rmg_rxn_15402

>  <mol_properties>  (28) 
{"1": {"label": "*4", "atom_type": "N3d"}, "2": {"label": "*3", "atom_type": "Cd"}, "7": {"label": "*0", "atom_type": "N3d"}, "8": {"label": "*1", "atom_type": "O2s"}, "13": {"label": "*2", "atom_type": "H0"}}

>  <type>  (28) 
unop_24

>  <geom_source>  (28) 
AutoTST

$$$$

     RDKit          3D

 14 12  0  0  0  0  0  0  0  0999 V2000
   -0.6422    3.0717    1.5893 O   0  0  0  0  0  0  0  0  0  0  0  0
   -0.3433    1.9425    0.8527 N   0  0  0  0  0  0  0  0  0  0  0  0
    0.2211    1.0574    1.5537 C   0  0  0  0  0  3  0  0  0  0  0  0
   -1.0586    3.6511    0.9484 H   0  0  0  0  0  0  0  0  0  0  0  0
    0.4348    1.1947    2.6115 H   0  0  0  0  0  0  0  0  0  0  0  0
    0.2211   -2.1068   -2.8461 C   0  0  0  0  0  0  0  0  0  0  0  0
    0.2211   -2.1068   -1.3574 C   0  0  0  0  0  0  0  0  0  0  0  0
    0.2211   -1.0147   -0.7206 N   0  0  0  0  0  0  0  0  0  0  0  0
    0.2211   -1.2194    0.6526 O   0  0  0  0  0  0  0  0  0  0  0  0
    1.1005   -2.6306   -3.2279 H   0  0  0  0  0  0  0  0  0  0  0  0
   -0.6583   -2.6306   -3.2279 H   0  0  0  0  0  0  0  0  0  0  0  0
    0.2211   -1.0871   -3.2275 H   0  0  0  0  0  0  0  0  0  0  0  0
    0.2211   -3.0543   -0.8173 H   0  0  0  0  0  0  0  0  0  0  0  0
    0.2211   -0.1497    1.0759 H   0  0  0  0  0  0  0  0  0  0  0  0
  1  2  1  0
  1  4  1  0
  2  3  2  3
  3  5  1  0
  6  7  1  0
  6 10  1  0
  6 11  1  0
  6 12  1  0
  7  8  2  3
  7 13  1  0
  8  9  1  0
  9 14  1  0
M  RAD  1   3   2
M  END
>  <reaction>  (29) 
rmg_rxn_15402

>  <mol_properties>  (29) 
{"1": {"label": "*4", "atom_type": "N3d"}, "2": {"label": "*3", "atom_type": "Cd"}, "7": {"label": "*0", "atom_type": "N3d"}, "8": {"label": "*1", "atom_type": "O2s"}, "13": {"label": "*2", "atom_type": "H0"}}

>  <type>  (29) 
unop_25

>  <geom_source>  (29) 
gaussian_log

$$$$
