
     RDKit          3D

  9  8  0  0  0  0  0  0  0  0999 V2000
   -1.2461    0.5037    0.0950 C   0  0  0  0  0  0  0  0  0  0  0  0
   -0.0155   -0.3334    0.0640 C   0  0  0  0  0  0  0  0  0  0  0  0
    1.0697    0.1457   -0.3733 N   0  0  0  0  0  0  0  0  0  0  0  0
    2.1001   -0.7834   -0.3224 O   0  0  0  0  0  0  0  0  0  0  0  0
   -2.0357    0.0440   -0.5039 H   0  0  0  0  0  0  0  0  0  0  0  0
   -1.6237    0.5897    1.1166 H   0  0  0  0  0  0  0  0  0  0  0  0
   -1.0397    1.4998   -0.2929 H   0  0  0  0  0  0  0  0  0  0  0  0
   -0.0537   -1.3634    0.4205 H   0  0  0  0  0  0  0  0  0  0  0  0
    2.8478   -0.2985   -0.6758 H   0  0  0  0  0  0  0  0  0  0  0  0
  1  2  1  0
  1  5  1  0
  1  6  1  0
  1  7  1  0
  2  3  2  3
  2  8  1  0
  3  4  1  0
  4  9  1  0
M  END
>  <reaction>  (1) 
rmg_rxn_543

>  <mol_properties>  (1) 
{"3": {"label": "donator", "atom_type": "O2s"}, "8": {"label": "d_hydrogen", "atom_type": "H0"}}

>  <type>  (1) 
r1h

$$$$

     RDKit          3D

 11 10  0  0  0  0  0  0  0  0999 V2000
    2.2312    0.7411   -0.3115 C   0  0  0  0  0  3  0  0  0  0  0  0
    0.6426    1.1039   -0.7896 S   0  0  0  0  0  0  0  0  0  0  0  0
    0.9085    2.4168   -2.0061 C   0  0  0  0  0  0  0  0  0  0  0  0
    1.5570    1.9429   -3.2967 C   0  0  0  0  0  0  0  0  0  0  0  0
    2.3707   -0.0938    0.3575 H   0  0  0  0  0  0  0  0  0  0  0  0
    3.0432    1.4267   -0.5066 H   0  0  0  0  0  0  0  0  0  0  0  0
    1.4997    3.2005   -1.5289 H   0  0  0  0  0  0  0  0  0  0  0  0
   -0.0844    2.8269   -2.1951 H   0  0  0  0  0  0  0  0  0  0  0  0
    0.9451    1.1830   -3.7838 H   0  0  0  0  0  0  0  0  0  0  0  0
    1.6803    2.7812   -3.9857 H   0  0  0  0  0  0  0  0  0  0  0  0
    2.5399    1.5119   -3.1043 H   0  0  0  0  0  0  0  0  0  0  0  0
  1  2  1  0
  1  5  1  0
  1  6  1  0
  2  3  1  0
  3  4  1  0
  3  7  1  0
  3  8  1  0
  4  9  1  0
  4 10  1  0
  4 11  1  0
M  RAD  1   1   2
M  END
>  <reaction>  (2) 
rmg_rxn_543

>  <mol_properties>  (2) 
{"0": {"label": "acceptor", "atom_type": "Cs"}}

>  <type>  (2) 
r2

$$$$

     RDKit          3D

 12 11  0  0  0  0  0  0  0  0999 V2000
    1.8075    0.1979    0.4695 C   0  0  0  0  0  0  0  0  0  0  0  0
    1.0072   -0.8859   -0.7259 S   0  0  0  0  0  0  0  0  0  0  0  0
   -0.7258   -0.6904   -0.2447 C   0  0  0  0  0  0  0  0  0  0  0  0
   -1.0856   -1.2776    1.1108 C   0  0  0  0  0  0  0  0  0  0  0  0
    1.7126   -0.1777    1.4878 H   0  0  0  0  0  0  0  0  0  0  0  0
    1.4024    1.2089    0.4095 H   0  0  0  0  0  0  0  0  0  0  0  0
    2.8647    0.2298    0.2095 H   0  0  0  0  0  0  0  0  0  0  0  0
   -1.2866   -1.1892   -1.0369 H   0  0  0  0  0  0  0  0  0  0  0  0
   -0.9814    0.3707   -0.2917 H   0  0  0  0  0  0  0  0  0  0  0  0
   -0.5492   -0.7768    1.9180 H   0  0  0  0  0  0  0  0  0  0  0  0
   -0.8418   -2.3397    1.1503 H   0  0  0  0  0  0  0  0  0  0  0  0
   -2.1545   -1.1604    1.3035 H   0  0  0  0  0  0  0  0  0  0  0  0
  1  2  1  0
  1  5  1  0
  1  6  1  0
  1  7  1  0
  2  3  1  0
  3  4  1  0
  3  8  1  0
  3  9  1  0
  4 10  1  0
  4 11  1  0
  4 12  1  0
M  END
>  <reaction>  (3) 
rmg_rxn_543

>  <mol_properties>  (3) 
{"0": {"label": "a_hydrogen", "atom_type": "H0"}, "1": {"label": "acceptor", "atom_type": "Cs"}}

>  <type>  (3) 
r2h

$$$$

     RDKit          3D

 20 18  0  0  0  0  0  0  0  0999 V2000
   -0.0575   -2.6149   -2.1258 C   0  0  0  0  0  0  0  0  0  0  0  0
   -0.2973   -2.6366   -0.6549 C   0  0  0  0  0  0  0  0  0  0  0  0
   -0.0934   -1.5956    0.0423 N   0  0  0  0  0  0  0  0  0  0  0  0
   -0.3233   -1.6651    1.3385 O   0  0  0  0  0  0  0  0  0  0  0  0
    0.6748   -3.3744   -2.4107 H   0  0  0  0  0  0  0  0  0  0  0  0
   -0.9771   -2.8322   -2.6754 H   0  0  0  0  0  0  0  0  0  0  0  0
    0.3147   -1.6380   -2.4321 H   0  0  0  0  0  0  0  0  0  0  0  0
   -0.6479   -3.5525   -0.1786 H   0  0  0  0  0  0  0  0  0  0  0  0
    0.0227   -0.5476    1.7378 H   0  0  0  0  0  0  0  0  0  0  0  0
    0.3944    0.6906    1.9703 C   0  0  0  0  0  3  0  0  0  0  0  0
    0.7834    1.3618    0.4270 S   0  0  0  0  0  0  0  0  0  0  0  0
   -0.8696    1.6314   -0.2595 C   0  0  0  0  0  0  0  0  0  0  0  0
   -0.7833    1.9266   -1.7464 C   0  0  0  0  0  0  0  0  0  0  0  0
    1.2722    0.6356    2.6089 H   0  0  0  0  0  0  0  0  0  0  0  0
   -0.4670    1.1412    2.4610 H   0  0  0  0  0  0  0  0  0  0  0  0
   -1.3349    2.4566    0.2821 H   0  0  0  0  0  0  0  0  0  0  0  0
   -1.4415    0.7222   -0.0774 H   0  0  0  0  0  0  0  0  0  0  0  0
   -0.3470    1.0829   -2.2821 H   0  0  0  0  0  0  0  0  0  0  0  0
   -1.7816    2.1066   -2.1474 H   0  0  0  0  0  0  0  0  0  0  0  0
   -0.1764    2.8115   -1.9450 H   0  0  0  0  0  0  0  0  0  0  0  0
  1  2  1  0
  1  5  1  0
  1  6  1  0
  1  7  1  0
  2  3  2  3
  2  8  1  0
  3  4  1  0
  4  9  1  0
 10 11  1  0
 10 14  1  0
 10 15  1  0
 11 12  1  0
 12 13  1  0
 12 16  1  0
 12 17  1  0
 13 18  1  0
 13 19  1  0
 13 20  1  0
M  RAD  1  10   2
M  END
>  <reaction>  (4) 
rmg_rxn_543

>  <mol_properties>  (4) 
{"2": {"label": "*0", "atom_type": "N3d"}, "3": {"label": "*1", "atom_type": "O2s"}, "8": {"label": "*2", "atom_type": "H0"}, "9": {"label": "*3", "atom_type": "Cs"}, "10": {"label": "*4", "atom_type": "S2s"}}

>  <type>  (4) 
ts

$$$$

     RDKit          3D

 20 18  0  0  0  0  0  0  0  0999 V2000
    0.7918   -1.6758   -3.7432 C   0  0  0  0  0  0  0  0  0  0  0  0
    0.7918   -1.6758   -2.2545 C   0  0  0  0  0  0  0  0  0  0  0  0
    0.7918   -0.5837   -1.6177 N   0  0  0  0  0  0  0  0  0  0  0  0
    0.7918   -0.7884   -0.2445 O   0  0  0  0  0  0  0  0  0  0  0  0
    1.6712   -2.1996   -4.1250 H   0  0  0  0  0  0  0  0  0  0  0  0
   -0.0876   -2.1996   -4.1250 H   0  0  0  0  0  0  0  0  0  0  0  0
    0.7918   -0.6561   -4.1246 H   0  0  0  0  0  0  0  0  0  0  0  0
    0.7918   -2.6233   -1.7144 H   0  0  0  0  0  0  0  0  0  0  0  0
    0.7918    0.2813    0.1788 H   0  0  0  0  0  0  0  0  0  0  0  0
    0.7918    1.4969    0.6600 C   0  0  0  0  0  3  0  0  0  0  0  0
   -0.6548    1.8162    1.6846 S   0  0  0  0  0  0  0  0  0  0  0  0
   -1.0449    0.1397    2.2417 C   0  0  0  0  0  0  0  0  0  0  0  0
   -1.5416   -0.7988    1.1536 C   0  0  0  0  0  0  0  0  0  0  0  0
    1.1734    2.4658    0.3408 H   0  0  0  0  0  0  0  0  0  0  0  0
    1.5681    0.9870    1.2319 H   0  0  0  0  0  0  0  0  0  0  0  0
   -1.8123    0.2779    3.0051 H   0  0  0  0  0  0  0  0  0  0  0  0
   -0.1661   -0.2726    2.7429 H   0  0  0  0  0  0  0  0  0  0  0  0
   -0.7792   -0.9652    0.3912 H   0  0  0  0  0  0  0  0  0  0  0  0
   -1.7988   -1.7713    1.5796 H   0  0  0  0  0  0  0  0  0  0  0  0
   -2.4265   -0.3910    0.6641 H   0  0  0  0  0  0  0  0  0  0  0  0
  1  2  1  0
  1  5  1  0
  1  6  1  0
  1  7  1  0
  2  3  2  3
  2  8  1  0
  3  4  1  0
  4  9  1  0
 10 11  1  0
 10 14  1  0
 10 15  1  0
 11 12  1  0
 12 13  1  0
 12 16  1  0
 12 17  1  0
 13 18  1  0
 13 19  1  0
 13 20  1  0
M  RAD  1  10   2
M  END
>  <reaction>  (5) 
rmg_rxn_543

>  <mol_properties>  (5) 
{"2": {"label": "*0", "atom_type": "N3d"}, "3": {"label": "*1", "atom_type": "O2s"}, "8": {"label": "*2", "atom_type": "H0"}, "9": {"label": "*3", "atom_type": "Cs"}, "10": {"label": "*4", "atom_type": "S2s"}}

>  <type>  (5) 
unop_1

>  <geom_source>  (5) 
Heuristics

$$$$

     RDKit          3D

 20 18  0  0  0  0  0  0  0  0999 V2000
    0.6968   -2.1909   -2.6141 C   0  0  0  0  0  0  0  0  0  0  0  0
    0.6968   -2.1909   -1.1254 C   0  0  0  0  0  0  0  0  0  0  0  0
    0.6968   -1.0988   -0.4886 N   0  0  0  0  0  0  0  0  0  0  0  0
    0.6968   -1.3035    0.8846 O   0  0  0  0  0  0  0  0  0  0  0  0
    1.5763   -2.7147   -2.9959 H   0  0  0  0  0  0  0  0  0  0  0  0
   -0.1826   -2.7147   -2.9959 H   0  0  0  0  0  0  0  0  0  0  0  0
    0.6968   -1.1712   -2.9955 H   0  0  0  0  0  0  0  0  0  0  0  0
    0.6968   -3.1384   -0.5853 H   0  0  0  0  0  0  0  0  0  0  0  0
    0.6968   -0.2338    1.3079 H   0  0  0  0  0  0  0  0  0  0  0  0
    0.6968    0.9818    1.7891 C   0  0  0  0  0  3  0  0  0  0  0  0
   -0.1384    2.1408    0.6920 S   0  0  0  0  0  0  0  0  0  0  0  0
   -1.6661    1.2339    0.3502 C   0  0  0  0  0  0  0  0  0  0  0  0
   -1.4915   -0.0273   -0.4807 C   0  0  0  0  0  0  0  0  0  0  0  0
    1.6039    1.4737    2.1375 H   0  0  0  0  0  0  0  0  0  0  0  0
    0.0735    0.7462    2.6526 H   0  0  0  0  0  0  0  0  0  0  0  0
   -2.2975    1.9521   -0.1755 H   0  0  0  0  0  0  0  0  0  0  0  0
   -2.1575    1.0117    1.3002 H   0  0  0  0  0  0  0  0  0  0  0  0
   -0.8790   -0.7659    0.0385 H   0  0  0  0  0  0  0  0  0  0  0  0
   -2.4620   -0.4869   -0.6814 H   0  0  0  0  0  0  0  0  0  0  0  0
   -1.0128    0.1995   -1.4338 H   0  0  0  0  0  0  0  0  0  0  0  0
  1  2  1  0
  1  5  1  0
  1  6  1  0
  1  7  1  0
  2  3  2  3
  2  8  1  0
  3  4  1  0
  4  9  1  0
 10 11  1  0
 10 14  1  0
 10 15  1  0
 11 12  1  0
 12 13  1  0
 12 16  1  0
 12 17  1  0
 13 18  1  0
 13 19  1  0
 13 20  1  0
M  RAD  1  10   2
M  END
>  <reaction>  (6) 
rmg_rxn_543

>  <mol_properties>  (6) 
{"2": {"label": "*0", "atom_type": "N3d"}, "3": {"label": "*1", "atom_type": "O2s"}, "8": {"label": "*2", "atom_type": "H0"}, "9": {"label": "*3", "atom_type": "Cs"}, "10": {"label": "*4", "atom_type": "S2s"}}

>  <type>  (6) 
unop_2

>  <geom_source>  (6) 
Heuristics

$$$$

     RDKit          3D

 20 18  0  0  0  0  0  0  0  0999 V2000
    0.3252   -1.5656   -4.0842 C   0  0  0  0  0  0  0  0  0  0  0  0
    0.3252   -1.5656   -2.5955 C   0  0  0  0  0  0  0  0  0  0  0  0
    0.3252   -0.4735   -1.9587 N   0  0  0  0  0  0  0  0  0  0  0  0
    0.3252   -0.6782   -0.5855 O   0  0  0  0  0  0  0  0  0  0  0  0
    1.2046   -2.0894   -4.4660 H   0  0  0  0  0  0  0  0  0  0  0  0
   -0.5542   -2.0894   -4.4660 H   0  0  0  0  0  0  0  0  0  0  0  0
    0.3252   -0.5459   -4.4656 H   0  0  0  0  0  0  0  0  0  0  0  0
    0.3252   -2.5131   -2.0554 H   0  0  0  0  0  0  0  0  0  0  0  0
    0.3252    0.3915   -0.1622 H   0  0  0  0  0  0  0  0  0  0  0  0
    0.3252    1.6071    0.3189 C   0  0  0  0  0  3  0  0  0  0  0  0
   -0.5100    1.7014    1.9121 S   0  0  0  0  0  0  0  0  0  0  0  0
   -0.0004    0.1295    2.6487 C   0  0  0  0  0  0  0  0  0  0  0  0
   -0.5783   -1.1088    1.9822 C   0  0  0  0  0  0  0  0  0  0  0  0
    0.1604    2.5603   -0.1815 H   0  0  0  0  0  0  0  0  0  0  0  0
    1.3983    1.4627    0.4508 H   0  0  0  0  0  0  0  0  0  0  0  0
   -0.3331    0.1941    3.6860 H   0  0  0  0  0  0  0  0  0  0  0  0
    1.0912    0.0917    2.6650 H   0  0  0  0  0  0  0  0  0  0  0  0
   -0.2396   -1.2011    0.9493 H   0  0  0  0  0  0  0  0  0  0  0  0
   -0.2616   -2.0089    2.5142 H   0  0  0  0  0  0  0  0  0  0  0  0
   -1.6682   -1.0747    1.9792 H   0  0  0  0  0  0  0  0  0  0  0  0
  1  2  1  0
  1  5  1  0
  1  6  1  0
  1  7  1  0
  2  3  2  3
  2  8  1  0
  3  4  1  0
  4  9  1  0
 10 11  1  0
 10 14  1  0
 10 15  1  0
 11 12  1  0
 12 13  1  0
 12 16  1  0
 12 17  1  0
 13 18  1  0
 13 19  1  0
 13 20  1  0
M  RAD  1  10   2
M  END
>  <reaction>  (7) 
rmg_rxn_543

>  <mol_properties>  (7) 
{"2": {"label": "*0", "atom_type": "N3d"}, "3": {"label": "*1", "atom_type": "O2s"}, "8": {"label": "*2", "atom_type": "H0"}, "9": {"label": "*3", "atom_type": "Cs"}, "10": {"label": "*4", "atom_type": "S2s"}}

>  <type>  (7) 
unop_3

>  <geom_source>  (7) 
Heuristics

$$$$

     RDKit          3D

 20 18  0  0  0  0  0  0  0  0999 V2000
   -0.4578   -2.5430   -2.5993 C   0  0  0  0  0  0  0  0  0  0  0  0
   -0.4578   -2.5430   -1.1107 C   0  0  0  0  0  0  0  0  0  0  0  0
   -0.4578   -1.4509   -0.4739 N   0  0  0  0  0  0  0  0  0  0  0  0
   -0.4578   -1.6556    0.8993 O   0  0  0  0  0  0  0  0  0  0  0  0
    0.4216   -3.0668   -2.9811 H   0  0  0  0  0  0  0  0  0  0  0  0
   -1.3372   -3.0668   -2.9811 H   0  0  0  0  0  0  0  0  0  0  0  0
   -0.4578   -1.5233   -2.9807 H   0  0  0  0  0  0  0  0  0  0  0  0
   -0.4578   -3.4905   -0.5705 H   0  0  0  0  0  0  0  0  0  0  0  0
   -0.4578   -0.5859    1.3227 H   0  0  0  0  0  0  0  0  0  0  0  0
   -0.4578    0.6297    1.8038 C   0  0  0  0  0  3  0  0  0  0  0  0
    0.9888    1.5637    1.2753 S   0  0  0  0  0  0  0  0  0  0  0  0
    0.2937    2.4994   -0.1084 C   0  0  0  0  0  0  0  0  0  0  0  0
   -0.0906    1.6642   -1.3193 C   0  0  0  0  0  0  0  0  0  0  0  0
   -0.1736    0.0904    2.7064 H   0  0  0  0  0  0  0  0  0  0  0  0
   -1.2860    1.2983    2.0426 H   0  0  0  0  0  0  0  0  0  0  0  0
    1.0734    3.2160   -0.3719 H   0  0  0  0  0  0  0  0  0  0  0  0
   -0.5598    3.0756    0.2563 H   0  0  0  0  0  0  0  0  0  0  0  0
   -0.8843    0.9551   -1.0797 H   0  0  0  0  0  0  0  0  0  0  0  0
   -0.4553    2.3072   -2.1236 H   0  0  0  0  0  0  0  0  0  0  0  0
    0.7664    1.1005   -1.6892 H   0  0  0  0  0  0  0  0  0  0  0  0
  1  2  1  0
  1  5  1  0
  1  6  1  0
  1  7  1  0
  2  3  2  3
  2  8  1  0
  3  4  1  0
  4  9  1  0
 10 11  1  0
 10 14  1  0
 10 15  1  0
 11 12  1  0
 12 13  1  0
 12 16  1  0
 12 17  1  0
 13 18  1  0
 13 19  1  0
 13 20  1  0
M  RAD  1  10   2
M  END
>  <reaction>  (8) 
rmg_rxn_543

>  <mol_properties>  (8) 
{"2": {"label": "*0", "atom_type": "N3d"}, "3": {"label": "*1", "atom_type": "O2s"}, "8": {"label": "*2", "atom_type": "H0"}, "9": {"label": "*3", "atom_type": "Cs"}, "10": {"label": "*4", "atom_type": "S2s"}}

>  <type>  (8) 
unop_4

>  <geom_source>  (8) 
Heuristics

$$$$

     RDKit          3D

 20 18  0  0  0  0  0  0  0  0999 V2000
   -0.3778   -1.6960   -4.1204 C   0  0  0  0  0  0  0  0  0  0  0  0
   -0.3778   -1.6960   -2.6317 C   0  0  0  0  0  0  0  0  0  0  0  0
   -0.3778   -0.6040   -1.9950 N   0  0  0  0  0  0  0  0  0  0  0  0
   -0.3778   -0.8086   -0.6218 O   0  0  0  0  0  0  0  0  0  0  0  0
    0.5016   -2.2199   -4.5022 H   0  0  0  0  0  0  0  0  0  0  0  0
   -1.2572   -2.2199   -4.5022 H   0  0  0  0  0  0  0  0  0  0  0  0
   -0.3778   -0.6763   -4.5018 H   0  0  0  0  0  0  0  0  0  0  0  0
   -0.3778   -2.6435   -2.0916 H   0  0  0  0  0  0  0  0  0  0  0  0
   -0.3778    0.2610   -0.1984 H   0  0  0  0  0  0  0  0  0  0  0  0
   -0.3778    1.4767    0.2827 C   0  0  0  0  0  3  0  0  0  0  0  0
   -0.3778    1.4886    2.0839 S   0  0  0  0  0  0  0  0  0  0  0  0
    1.2528    0.7813    2.4216 C   0  0  0  0  0  0  0  0  0  0  0  0
    1.4075   -0.6835    2.0449 C   0  0  0  0  0  0  0  0  0  0  0  0
   -1.2918    1.9754   -0.0369 H   0  0  0  0  0  0  0  0  0  0  0  0
    0.4771    2.0291   -0.1094 H   0  0  0  0  0  0  0  0  0  0  0  0
    1.3907    0.9150    3.4958 H   0  0  0  0  0  0  0  0  0  0  0  0
    2.0071    1.3951    1.9238 H   0  0  0  0  0  0  0  0  0  0  0  0
    1.2930   -0.8337    0.9704 H   0  0  0  0  0  0  0  0  0  0  0  0
    2.4001   -1.0443    2.3238 H   0  0  0  0  0  0  0  0  0  0  0  0
    0.6619   -1.2954    2.5535 H   0  0  0  0  0  0  0  0  0  0  0  0
  1  2  1  0
  1  5  1  0
  1  6  1  0
  1  7  1  0
  2  3  2  3
  2  8  1  0
  3  4  1  0
  4  9  1  0
 10 11  1  0
 10 14  1  0
 10 15  1  0
 11 12  1  0
 12 13  1  0
 12 16  1  0
 12 17  1  0
 13 18  1  0
 13 19  1  0
 13 20  1  0
M  RAD  1  10   2
M  END
>  <reaction>  (9) 
rmg_rxn_543

>  <mol_properties>  (9) 
{"2": {"label": "*0", "atom_type": "N3d"}, "3": {"label": "*1", "atom_type": "O2s"}, "8": {"label": "*2", "atom_type": "H0"}, "9": {"label": "*3", "atom_type": "Cs"}, "10": {"label": "*4", "atom_type": "S2s"}}

>  <type>  (9) 
unop_5

>  <geom_source>  (9) 
Heuristics

$$$$

     RDKit          3D

 20 18  0  0  0  0  0  0  0  0999 V2000
   -0.7842   -2.4768   -2.9333 C   0  0  0  0  0  0  0  0  0  0  0  0
   -0.7842   -2.4768   -1.4446 C   0  0  0  0  0  0  0  0  0  0  0  0
   -0.7842   -1.3848   -0.8078 N   0  0  0  0  0  0  0  0  0  0  0  0
   -0.7842   -1.5895    0.5654 O   0  0  0  0  0  0  0  0  0  0  0  0
    0.0952   -3.0007   -3.3151 H   0  0  0  0  0  0  0  0  0  0  0  0
   -1.6637   -3.0007   -3.3151 H   0  0  0  0  0  0  0  0  0  0  0  0
   -0.7842   -1.4572   -3.3147 H   0  0  0  0  0  0  0  0  0  0  0  0
   -0.7842   -3.4244   -0.9045 H   0  0  0  0  0  0  0  0  0  0  0  0
   -0.7842   -0.5198    0.9887 H   0  0  0  0  0  0  0  0  0  0  0  0
   -0.7842    0.6958    1.4699 C   0  0  0  0  0  3  0  0  0  0  0  0
    0.8862    1.3225    1.7179 S   0  0  0  0  0  0  0  0  0  0  0  0
    1.0115    2.4901    0.3416 C   0  0  0  0  0  0  0  0  0  0  0  0
    1.0385    1.8541   -1.0391 C   0  0  0  0  0  0  0  0  0  0  0  0
   -1.0045    0.0408    2.3116 H   0  0  0  0  0  0  0  0  0  0  0  0
   -1.5082    1.5117    1.4633 H   0  0  0  0  0  0  0  0  0  0  0  0
    1.9392    3.0335    0.5289 H   0  0  0  0  0  0  0  0  0  0  0  0
    0.1960    3.2123    0.4239 H   0  0  0  0  0  0  0  0  0  0  0  0
    0.1097    1.3230   -1.2523 H   0  0  0  0  0  0  0  0  0  0  0  0
    1.1633    2.6205   -1.8076 H   0  0  0  0  0  0  0  0  0  0  0  0
    1.8614    1.1437   -1.1227 H   0  0  0  0  0  0  0  0  0  0  0  0
  1  2  1  0
  1  5  1  0
  1  6  1  0
  1  7  1  0
  2  3  2  3
  2  8  1  0
  3  4  1  0
  4  9  1  0
 10 11  1  0
 10 14  1  0
 10 15  1  0
 11 12  1  0
 12 13  1  0
 12 16  1  0
 12 17  1  0
 13 18  1  0
 13 19  1  0
 13 20  1  0
M  RAD  1  10   2
M  END
>  <reaction>  (10) 
rmg_rxn_543

>  <mol_properties>  (10) 
{"2": {"label": "*0", "atom_type": "N3d"}, "3": {"label": "*1", "atom_type": "O2s"}, "8": {"label": "*2", "atom_type": "H0"}, "9": {"label": "*3", "atom_type": "Cs"}, "10": {"label": "*4", "atom_type": "S2s"}}

>  <type>  (10) 
unop_6

>  <geom_source>  (10) 
Heuristics

$$$$

     RDKit          3D

 20 18  0  0  0  0  0  0  0  0999 V2000
   -0.9224   -2.3137   -3.3599 C   0  0  0  0  0  0  0  0  0  0  0  0
   -0.9224   -2.3137   -1.8713 C   0  0  0  0  0  0  0  0  0  0  0  0
   -0.9224   -1.2216   -1.2345 N   0  0  0  0  0  0  0  0  0  0  0  0
   -0.9224   -1.4263    0.1387 O   0  0  0  0  0  0  0  0  0  0  0  0
   -0.0430   -2.8375   -3.7417 H   0  0  0  0  0  0  0  0  0  0  0  0
   -1.8018   -2.8375   -3.7417 H   0  0  0  0  0  0  0  0  0  0  0  0
   -0.9224   -1.2940   -3.7414 H   0  0  0  0  0  0  0  0  0  0  0  0
   -0.9224   -3.2612   -1.3311 H   0  0  0  0  0  0  0  0  0  0  0  0
   -0.9224   -0.3566    0.5621 H   0  0  0  0  0  0  0  0  0  0  0  0
   -0.9224    0.8590    1.0432 C   0  0  0  0  0  3  0  0  0  0  0  0
    0.5242    1.1783    2.0678 S   0  0  0  0  0  0  0  0  0  0  0  0
    1.4781    2.2553    0.9708 C   0  0  0  0  0  0  0  0  0  0  0  0
    2.0282    1.5779   -0.2742 C   0  0  0  0  0  0  0  0  0  0  0  0
   -1.6200    0.2846    1.6511 H   0  0  0  0  0  0  0  0  0  0  0  0
   -1.4031    1.7926    0.7479 H   0  0  0  0  0  0  0  0  0  0  0  0
    2.2932    2.6263    1.5944 H   0  0  0  0  0  0  0  0  0  0  0  0
    0.8601    3.1166    0.7069 H   0  0  0  0  0  0  0  0  0  0  0  0
    1.2263    1.2182   -0.9205 H   0  0  0  0  0  0  0  0  0  0  0  0
    2.6288    2.2816   -0.8552 H   0  0  0  0  0  0  0  0  0  0  0  0
    2.6553    0.7266   -0.0074 H   0  0  0  0  0  0  0  0  0  0  0  0
  1  2  1  0
  1  5  1  0
  1  6  1  0
  1  7  1  0
  2  3  2  3
  2  8  1  0
  3  4  1  0
  4  9  1  0
 10 11  1  0
 10 14  1  0
 10 15  1  0
 11 12  1  0
 12 13  1  0
 12 16  1  0
 12 17  1  0
 13 18  1  0
 13 19  1  0
 13 20  1  0
M  RAD  1  10   2
M  END
>  <reaction>  (11) 
rmg_rxn_543

>  <mol_properties>  (11) 
{"2": {"label": "*0", "atom_type": "N3d"}, "3": {"label": "*1", "atom_type": "O2s"}, "8": {"label": "*2", "atom_type": "H0"}, "9": {"label": "*3", "atom_type": "Cs"}, "10": {"label": "*4", "atom_type": "S2s"}}

>  <type>  (11) 
unop_7

>  <geom_source>  (11) 
Heuristics

$$$$

     RDKit          3D

 20 18  0  0  0  0  0  0  0  0999 V2000
    0.9641   -1.8478   -3.3112 C   0  0  0  0  0  0  0  0  0  0  0  0
    0.9641   -1.8478   -1.8225 C   0  0  0  0  0  0  0  0  0  0  0  0
    0.9641   -0.7557   -1.1857 N   0  0  0  0  0  0  0  0  0  0  0  0
    0.9641   -0.9604    0.1875 O   0  0  0  0  0  0  0  0  0  0  0  0
    1.8435   -2.3716   -3.6930 H   0  0  0  0  0  0  0  0  0  0  0  0
    0.0847   -2.3716   -3.6930 H   0  0  0  0  0  0  0  0  0  0  0  0
    0.9641   -0.8281   -3.6926 H   0  0  0  0  0  0  0  0  0  0  0  0
    0.9641   -2.7953   -1.2824 H   0  0  0  0  0  0  0  0  0  0  0  0
    0.9641    0.1093    0.6108 H   0  0  0  0  0  0  0  0  0  0  0  0
    0.9641    1.3249    1.0919 C   0  0  0  0  0  3  0  0  0  0  0  0
   -0.7063    1.9516    1.3400 S   0  0  0  0  0  0  0  0  0  0  0  0
   -1.6081    0.4040    1.5948 C   0  0  0  0  0  0  0  0  0  0  0  0
   -1.7086   -0.4895    0.3688 C   0  0  0  0  0  0  0  0  0  0  0  0
    1.6196    2.1917    1.0195 H   0  0  0  0  0  0  0  0  0  0  0  0
    1.2811    0.7172    1.9405 H   0  0  0  0  0  0  0  0  0  0  0  0
   -2.6014    0.7178    1.9200 H   0  0  0  0  0  0  0  0  0  0  0  0
   -1.1517   -0.1297    2.4316 H   0  0  0  0  0  0  0  0  0  0  0  0
   -0.7254   -0.8300    0.0412 H   0  0  0  0  0  0  0  0  0  0  0  0
   -2.3061   -1.3761    0.5933 H   0  0  0  0  0  0  0  0  0  0  0  0
   -2.1766    0.0416   -0.4607 H   0  0  0  0  0  0  0  0  0  0  0  0
  1  2  1  0
  1  5  1  0
  1  6  1  0
  1  7  1  0
  2  3  2  3
  2  8  1  0
  3  4  1  0
  4  9  1  0
 10 11  1  0
 10 14  1  0
 10 15  1  0
 11 12  1  0
 12 13  1  0
 12 16  1  0
 12 17  1  0
 13 18  1  0
 13 19  1  0
 13 20  1  0
M  RAD  1  10   2
M  END
>  <reaction>  (12) 
rmg_rxn_543

>  <mol_properties>  (12) 
{"2": {"label": "*0", "atom_type": "N3d"}, "3": {"label": "*1", "atom_type": "O2s"}, "8": {"label": "*2", "atom_type": "H0"}, "9": {"label": "*3", "atom_type": "Cs"}, "10": {"label": "*4", "atom_type": "S2s"}}

>  <type>  (12) 
unop_8

>  <geom_source>  (12) 
Heuristics

$$$$

     RDKit          3D

 20 18  0  0  0  0  0  0  0  0999 V2000
   -0.0309   -2.4969   -2.4303 C   0  0  0  0  0  0  0  0  0  0  0  0
   -0.0309   -2.4969   -0.9416 C   0  0  0  0  0  0  0  0  0  0  0  0
   -0.0309   -1.4048   -0.3048 N   0  0  0  0  0  0  0  0  0  0  0  0
   -0.0309   -1.6095    1.0684 O   0  0  0  0  0  0  0  0  0  0  0  0
    0.8486   -3.0207   -2.8121 H   0  0  0  0  0  0  0  0  0  0  0  0
   -0.9103   -3.0207   -2.8121 H   0  0  0  0  0  0  0  0  0  0  0  0
   -0.0309   -1.4772   -2.8117 H   0  0  0  0  0  0  0  0  0  0  0  0
   -0.0309   -3.4444   -0.4015 H   0  0  0  0  0  0  0  0  0  0  0  0
   -0.0309   -0.5398    1.4917 H   0  0  0  0  0  0  0  0  0  0  0  0
   -0.0309    0.6758    1.9729 C   0  0  0  0  0  3  0  0  0  0  0  0
    0.8043    1.8349    0.8758 S   0  0  0  0  0  0  0  0  0  0  0  0
   -0.5424    2.2485   -0.2592 C   0  0  0  0  0  0  0  0  0  0  0  0
   -0.9897    1.1125   -1.1654 C   0  0  0  0  0  0  0  0  0  0  0  0
    0.6732    0.4276    2.7659 H   0  0  0  0  0  0  0  0  0  0  0  0
   -0.9145    1.1326    2.4205 H   0  0  0  0  0  0  0  0  0  0  0  0
   -0.1541    3.0783   -0.8521 H   0  0  0  0  0  0  0  0  0  0  0  0
   -1.3806    2.6370    0.3238 H   0  0  0  0  0  0  0  0  0  0  0  0
   -1.4003    0.2812   -0.5906 H   0  0  0  0  0  0  0  0  0  0  0  0
   -1.7690    1.4568   -1.8491 H   0  0  0  0  0  0  0  0  0  0  0  0
   -0.1540    0.7355   -1.7558 H   0  0  0  0  0  0  0  0  0  0  0  0
  1  2  1  0
  1  5  1  0
  1  6  1  0
  1  7  1  0
  2  3  2  3
  2  8  1  0
  3  4  1  0
  4  9  1  0
 10 11  1  0
 10 14  1  0
 10 15  1  0
 11 12  1  0
 12 13  1  0
 12 16  1  0
 12 17  1  0
 13 18  1  0
 13 19  1  0
 13 20  1  0
M  RAD  1  10   2
M  END
>  <reaction>  (13) 
rmg_rxn_543

>  <mol_properties>  (13) 
{"2": {"label": "*0", "atom_type": "N3d"}, "3": {"label": "*1", "atom_type": "O2s"}, "8": {"label": "*2", "atom_type": "H0"}, "9": {"label": "*3", "atom_type": "Cs"}, "10": {"label": "*4", "atom_type": "S2s"}}

>  <type>  (13) 
unop_9

>  <geom_source>  (13) 
Heuristics

$$$$

     RDKit          3D

 20 18  0  0  0  0  0  0  0  0999 V2000
    0.9079   -2.0227   -2.9118 C   0  0  0  0  0  0  0  0  0  0  0  0
    0.9079   -2.0227   -1.4232 C   0  0  0  0  0  0  0  0  0  0  0  0
    0.9079   -0.9306   -0.7864 N   0  0  0  0  0  0  0  0  0  0  0  0
    0.9079   -1.1353    0.5868 O   0  0  0  0  0  0  0  0  0  0  0  0
    1.7873   -2.5465   -3.2936 H   0  0  0  0  0  0  0  0  0  0  0  0
    0.0285   -2.5465   -3.2936 H   0  0  0  0  0  0  0  0  0  0  0  0
    0.9079   -1.0030   -3.2933 H   0  0  0  0  0  0  0  0  0  0  0  0
    0.9079   -2.9702   -0.8830 H   0  0  0  0  0  0  0  0  0  0  0  0
    0.9079   -0.0656    1.0102 H   0  0  0  0  0  0  0  0  0  0  0  0
    0.9079    1.1500    1.4913 C   0  0  0  0  0  3  0  0  0  0  0  0
   -0.5387    2.0840    0.9627 S   0  0  0  0  0  0  0  0  0  0  0  0
   -1.7863    0.7742    0.9280 C   0  0  0  0  0  0  0  0  0  0  0  0
   -1.5863   -0.2740   -0.1549 C   0  0  0  0  0  0  0  0  0  0  0  0
    1.7126    1.8692    1.6377 H   0  0  0  0  0  0  0  0  0  0  0  0
    0.7176    0.6413    2.4372 H   0  0  0  0  0  0  0  0  0  0  0  0
   -2.7303    1.3009    0.7786 H   0  0  0  0  0  0  0  0  0  0  0  0
   -1.8314    0.3117    1.9167 H   0  0  0  0  0  0  0  0  0  0  0  0
   -0.6562   -0.8254   -0.0100 H   0  0  0  0  0  0  0  0  0  0  0  0
   -2.4042   -0.9980   -0.1381 H   0  0  0  0  0  0  0  0  0  0  0  0
   -1.5550    0.1890   -1.1417 H   0  0  0  0  0  0  0  0  0  0  0  0
  1  2  1  0
  1  5  1  0
  1  6  1  0
  1  7  1  0
  2  3  2  3
  2  8  1  0
  3  4  1  0
  4  9  1  0
 10 11  1  0
 10 14  1  0
 10 15  1  0
 11 12  1  0
 12 13  1  0
 12 16  1  0
 12 17  1  0
 13 18  1  0
 13 19  1  0
 13 20  1  0
M  RAD  1  10   2
M  END
>  <reaction>  (14) 
rmg_rxn_543

>  <mol_properties>  (14) 
{"2": {"label": "*0", "atom_type": "N3d"}, "3": {"label": "*1", "atom_type": "O2s"}, "8": {"label": "*2", "atom_type": "H0"}, "9": {"label": "*3", "atom_type": "Cs"}, "10": {"label": "*4", "atom_type": "S2s"}}

>  <type>  (14) 
unop_10

>  <geom_source>  (14) 
Heuristics

$$$$

     RDKit          3D

 20 18  0  0  0  0  0  0  0  0999 V2000
   -0.8261   -2.0505   -3.7929 C   0  0  0  0  0  0  0  0  0  0  0  0
   -0.8261   -2.0505   -2.3042 C   0  0  0  0  0  0  0  0  0  0  0  0
   -0.8261   -0.9584   -1.6674 N   0  0  0  0  0  0  0  0  0  0  0  0
   -0.8261   -1.1631   -0.2942 O   0  0  0  0  0  0  0  0  0  0  0  0
    0.0533   -2.5743   -4.1747 H   0  0  0  0  0  0  0  0  0  0  0  0
   -1.7055   -2.5743   -4.1747 H   0  0  0  0  0  0  0  0  0  0  0  0
   -0.8261   -1.0308   -4.1743 H   0  0  0  0  0  0  0  0  0  0  0  0
   -0.8261   -2.9980   -1.7641 H   0  0  0  0  0  0  0  0  0  0  0  0
   -0.8261   -0.0935    0.1291 H   0  0  0  0  0  0  0  0  0  0  0  0
   -0.8261    1.1222    0.6103 C   0  0  0  0  0  3  0  0  0  0  0  0
    0.0091    1.2165    2.2034 S   0  0  0  0  0  0  0  0  0  0  0  0
    1.6615    1.7375    1.6827 C   0  0  0  0  0  0  0  0  0  0  0  0
    2.4444    0.6977    0.8969 C   0  0  0  0  0  0  0  0  0  0  0  0
   -1.8731    0.9023    0.8146 H   0  0  0  0  0  0  0  0  0  0  0  0
   -0.7657    2.0751    0.0830 H   0  0  0  0  0  0  0  0  0  0  0  0
    2.1771    1.9791    2.6137 H   0  0  0  0  0  0  0  0  0  0  0  0
    1.5699    2.6678    1.1174 H   0  0  0  0  0  0  0  0  0  0  0  0
    1.9540    0.4585   -0.0477 H   0  0  0  0  0  0  0  0  0  0  0  0
    3.4439    1.0718    0.6635 H   0  0  0  0  0  0  0  0  0  0  0  0
    2.5457   -0.2251    1.4689 H   0  0  0  0  0  0  0  0  0  0  0  0
  1  2  1  0
  1  5  1  0
  1  6  1  0
  1  7  1  0
  2  3  2  3
  2  8  1  0
  3  4  1  0
  4  9  1  0
 10 11  1  0
 10 14  1  0
 10 15  1  0
 11 12  1  0
 12 13  1  0
 12 16  1  0
 12 17  1  0
 13 18  1  0
 13 19  1  0
 13 20  1  0
M  RAD  1  10   2
M  END
>  <reaction>  (15) 
rmg_rxn_543

>  <mol_properties>  (15) 
{"2": {"label": "*0", "atom_type": "N3d"}, "3": {"label": "*1", "atom_type": "O2s"}, "8": {"label": "*2", "atom_type": "H0"}, "9": {"label": "*3", "atom_type": "Cs"}, "10": {"label": "*4", "atom_type": "S2s"}}

>  <type>  (15) 
unop_11

>  <geom_source>  (15) 
Heuristics

$$$$

     RDKit          3D

 20 18  0  0  0  0  0  0  0  0999 V2000
    0.3778   -2.3591   -2.4450 C   0  0  0  0  0  0  0  0  0  0  0  0
    0.3778   -2.3591   -0.9564 C   0  0  0  0  0  0  0  0  0  0  0  0
    0.3778   -1.2670   -0.3196 N   0  0  0  0  0  0  0  0  0  0  0  0
    0.3778   -1.4717    1.0536 O   0  0  0  0  0  0  0  0  0  0  0  0
    1.2572   -2.8829   -2.8268 H   0  0  0  0  0  0  0  0  0  0  0  0
   -0.5016   -2.8829   -2.8268 H   0  0  0  0  0  0  0  0  0  0  0  0
    0.3778   -1.3394   -2.8265 H   0  0  0  0  0  0  0  0  0  0  0  0
    0.3778   -3.3066   -0.4162 H   0  0  0  0  0  0  0  0  0  0  0  0
    0.3778   -0.4020    1.4770 H   0  0  0  0  0  0  0  0  0  0  0  0
    0.3778    0.8136    1.9581 C   0  0  0  0  0  3  0  0  0  0  0  0
    0.3778    2.0550    0.6529 S   0  0  0  0  0  0  0  0  0  0  0  0
   -1.2528    1.7704   -0.0773 C   0  0  0  0  0  0  0  0  0  0  0  0
   -1.4075    0.4445   -0.8051 C   0  0  0  0  0  0  0  0  0  0  0  0
    1.2918    0.9585    2.5325 H   0  0  0  0  0  0  0  0  0  0  0  0
   -0.4771    0.9480    2.6221 H   0  0  0  0  0  0  0  0  0  0  0  0
   -1.3907    2.6030   -0.7691 H   0  0  0  0  0  0  0  0  0  0  0  0
   -2.0071    1.8772    0.7057 H   0  0  0  0  0  0  0  0  0  0  0  0
   -1.2930   -0.4004   -0.1245 H   0  0  0  0  0  0  0  0  0  0  0  0
   -2.4002    0.3723   -1.2554 H   0  0  0  0  0  0  0  0  0  0  0  0
   -0.6619    0.3463   -1.5947 H   0  0  0  0  0  0  0  0  0  0  0  0
  1  2  1  0
  1  5  1  0
  1  6  1  0
  1  7  1  0
  2  3  2  3
  2  8  1  0
  3  4  1  0
  4  9  1  0
 10 11  1  0
 10 14  1  0
 10 15  1  0
 11 12  1  0
 12 13  1  0
 12 16  1  0
 12 17  1  0
 13 18  1  0
 13 19  1  0
 13 20  1  0
M  RAD  1  10   2
M  END
>  <reaction>  (16) 
rmg_rxn_543

>  <mol_properties>  (16) 
{"2": {"label": "*0", "atom_type": "N3d"}, "3": {"label": "*1", "atom_type": "O2s"}, "8": {"label": "*2", "atom_type": "H0"}, "9": {"label": "*3", "atom_type": "Cs"}, "10": {"label": "*4", "atom_type": "S2s"}}

>  <type>  (16) 
unop_12

>  <geom_source>  (16) 
Heuristics

$$$$

     RDKit          3D

 20 18  0  0  0  0  0  0  0  0999 V2000
   -1.5203    0.0363    0.2152 S   0  0  0  0  0  0  0  0  0  0  0  0
    1.5943   -0.3676   -0.4881 O   0  0  0  0  0  1  0  0  0  0  0  0
    2.4138    0.5605    0.1103 N   0  0  0  0  0  2  0  0  0  0  0  0
   -3.1239   -0.8197    0.0601 C   0  0  0  0  0  0  0  0  0  0  0  0
   -4.1360   -0.2025    1.0132 C   0  0  0  0  0  0  0  0  0  0  0  0
    4.5354    1.6678    0.4220 C   0  0  0  0  0  0  0  0  0  0  0  0
   -0.6855   -0.9870   -1.0379 C   0  0  0  0  0  0  0  0  0  0  0  0
    3.6564    0.6580   -0.2334 C   0  0  0  0  0  3  0  0  0  0  0  0
   -3.4986   -0.7260   -0.9816 H   0  0  0  0  0  0  0  0  0  0  0  0
   -2.9988   -1.8957    0.3066 H   0  0  0  0  0  0  0  0  0  0  0  0
   -5.1096   -0.7272    0.9145 H   0  0  0  0  0  0  0  0  0  0  0  0
   -3.7822   -0.2989    2.0617 H   0  0  0  0  0  0  0  0  0  0  0  0
   -4.2825    0.8718    0.7724 H   0  0  0  0  0  0  0  0  0  0  0  0
    5.5605    1.6040    0.0007 H   0  0  0  0  0  0  0  0  0  0  0  0
    4.1342    2.6876    0.2441 H   0  0  0  0  0  0  0  0  0  0  0  0
    4.5807    1.4744    1.5143 H   0  0  0  0  0  0  0  0  0  0  0  0
   -0.6919   -2.0525   -0.7268 H   0  0  0  0  0  0  0  0  0  0  0  0
   -1.1932   -0.8791   -2.0190 H   0  0  0  0  0  0  0  0  0  0  0  0
    0.4834   -0.6114   -1.1504 H   0  0  0  0  0  0  0  0  0  0  0  0
    4.0638    0.0073   -0.9982 H   0  0  0  0  0  0  0  0  0  0  0  0
  1  7  1  0
  1  4  1  0
  2  3  1  0
  3  8  1  0
  4  5  1  0
  4 10  1  0
  4  9  1  0
  5 12  1  0
  5 11  1  0
  5 13  1  0
  6 14  1  0
  6  8  1  0
  6 16  1  0
  6 15  1  0
  7 19  1  0
  7 17  1  0
  7 18  1  0
  8 20  1  0
M  RAD  3   2   2   3   2   8   2
M  END
>  <reaction>  (17) 
rmg_rxn_543

>  <mol_properties>  (17) 
{"2": {"label": "*0", "atom_type": "N3d"}, "3": {"label": "*1", "atom_type": "O2s"}, "8": {"label": "*2", "atom_type": "H0"}, "9": {"label": "*3", "atom_type": "Cs"}, "10": {"label": "*4", "atom_type": "S2s"}}

>  <type>  (17) 
unop_13

>  <geom_source>  (17) 
AutoTST

$$$$

     RDKit          3D

 20 18  0  0  0  0  0  0  0  0999 V2000
    0.6968   -2.1909   -2.6141 C   0  0  0  0  0  0  0  0  0  0  0  0
    0.6968   -2.1909   -1.1254 C   0  0  0  0  0  0  0  0  0  0  0  0
    0.6968   -1.0988   -0.4886 N   0  0  0  0  0  0  0  0  0  0  0  0
    0.6968   -1.3035    0.8846 O   0  0  0  0  0  0  0  0  0  0  0  0
    1.5762   -2.7147   -2.9959 H   0  0  0  0  0  0  0  0  0  0  0  0
   -0.1826   -2.7147   -2.9959 H   0  0  0  0  0  0  0  0  0  0  0  0
    0.6968   -1.1712   -2.9955 H   0  0  0  0  0  0  0  0  0  0  0  0
    0.6968   -3.1384   -0.5853 H   0  0  0  0  0  0  0  0  0  0  0  0
    0.6968   -0.2338    1.3079 H   0  0  0  0  0  0  0  0  0  0  0  0
    0.6968    0.9818    1.7891 C   0  0  0  0  0  3  0  0  0  0  0  0
   -0.1384    2.1408    0.6920 S   0  0  0  0  0  0  0  0  0  0  0  0
   -1.6661    1.2339    0.3502 C   0  0  0  0  0  0  0  0  0  0  0  0
   -1.4915   -0.0273   -0.4807 C   0  0  0  0  0  0  0  0  0  0  0  0
    1.6039    1.4737    2.1375 H   0  0  0  0  0  0  0  0  0  0  0  0
    0.0735    0.7462    2.6526 H   0  0  0  0  0  0  0  0  0  0  0  0
   -2.2975    1.9521   -0.1755 H   0  0  0  0  0  0  0  0  0  0  0  0
   -2.1575    1.0117    1.3002 H   0  0  0  0  0  0  0  0  0  0  0  0
   -0.8790   -0.7659    0.0385 H   0  0  0  0  0  0  0  0  0  0  0  0
   -2.4620   -0.4869   -0.6814 H   0  0  0  0  0  0  0  0  0  0  0  0
   -1.0128    0.1995   -1.4338 H   0  0  0  0  0  0  0  0  0  0  0  0
  1  2  1  0
  1  5  1  0
  1  6  1  0
  1  7  1  0
  2  3  2  3
  2  8  1  0
  3  4  1  0
  4  9  1  0
 10 11  1  0
 10 14  1  0
 10 15  1  0
 11 12  1  0
 12 13  1  0
 12 16  1  0
 12 17  1  0
 13 18  1  0
 13 19  1  0
 13 20  1  0
M  RAD  1  10   2
M  END
>  <reaction>  (18) 
rmg_rxn_543

>  <mol_properties>  (18) 
{"2": {"label": "*0", "atom_type": "N3d"}, "3": {"label": "*1", "atom_type": "O2s"}, "8": {"label": "*2", "atom_type": "H0"}, "9": {"label": "*3", "atom_type": "Cs"}, "10": {"label": "*4", "atom_type": "S2s"}}

>  <type>  (18) 
unop_14

>  <geom_source>  (18) 
gaussian_log

$$$$
