
     RDKit          3D

  3  2  0  0  0  0  0  0  0  0999 V2000
   -0.0007    0.6157    0.0000 S   0  0  0  0  0  0  0  0  0  0  0  0
   -0.9686   -0.3090    0.0000 H   0  0  0  0  0  0  0  0  0  0  0  0
    0.9693   -0.3067    0.0000 H   0  0  0  0  0  0  0  0  0  0  0  0
  1  2  1  0
  1  3  1  0
M  END
>  <reaction>  (1) 
rmg_rxn_260

>  <mol_properties>  (1) 
{"0": {"label": "donator", "atom_type": "S2s"}, "1": {"label": "d_hydrogen", "atom_type": "H0"}}

>  <type>  (1) 
r1h

$$$$

     RDKit          3D

 13 13  0  0  0  0  0  0  0  0999 V2000
   -0.9087    1.0135    0.2744 C   0  0  0  0  0  3  0  0  0  0  0  0
   -1.1528   -0.4306   -0.0132 C   0  0  0  0  0  0  0  0  0  0  0  0
    0.1597   -1.1985    0.0580 C   0  0  0  0  0  0  0  0  0  0  0  0
    1.1497   -0.5125   -0.6902 O   0  0  0  0  0  0  0  0  0  0  0  0
    1.3593    0.7608   -0.1866 C   0  0  0  0  0  0  0  0  0  0  0  0
    0.2092    1.5798   -0.2538 O   0  0  0  0  0  0  0  0  0  0  0  0
   -1.7260    1.7182    0.3534 H   0  0  0  0  0  0  0  0  0  0  0  0
   -1.8796   -0.8393    0.6913 H   0  0  0  0  0  0  0  0  0  0  0  0
   -1.5725   -0.5507   -1.0227 H   0  0  0  0  0  0  0  0  0  0  0  0
    0.4914   -1.2968    1.1007 H   0  0  0  0  0  0  0  0  0  0  0  0
    0.0732   -2.1931   -0.3758 H   0  0  0  0  0  0  0  0  0  0  0  0
    1.6805    0.7077    0.8652 H   0  0  0  0  0  0  0  0  0  0  0  0
    2.1167    1.2415   -0.8007 H   0  0  0  0  0  0  0  0  0  0  0  0
  1  2  1  0
  1  6  1  0
  1  7  1  0
  2  3  1  0
  2  8  1  0
  2  9  1  0
  3  4  1  0
  3 10  1  0
  3 11  1  0
  4  5  1  0
  5  6  1  0
  5 12  1  0
  5 13  1  0
M  RAD  1   1   2
M  END
>  <reaction>  (2) 
rmg_rxn_260

>  <mol_properties>  (2) 
{"0": {"label": "acceptor", "atom_type": "Cs"}}

>  <type>  (2) 
r2

$$$$

     RDKit          3D

 14 14  0  0  0  0  0  0  0  0999 V2000
   -1.1778    0.2241    0.1818 C   0  0  0  0  0  0  0  0  0  0  0  0
   -0.5633   -1.1636    0.0678 C   0  0  0  0  0  0  0  0  0  0  0  0
    0.6943   -1.1996    0.7146 O   0  0  0  0  0  0  0  0  0  0  0  0
    1.5547   -0.2288    0.2011 C   0  0  0  0  0  0  0  0  0  0  0  0
    1.0729    1.0696    0.3698 O   0  0  0  0  0  0  0  0  0  0  0  0
   -0.1607    1.2493   -0.2989 C   0  0  0  0  0  0  0  0  0  0  0  0
   -2.0927    0.2866   -0.4117 H   0  0  0  0  0  0  0  0  0  0  0  0
   -1.4303    0.4248    1.2248 H   0  0  0  0  0  0  0  0  0  0  0  0
   -1.1822   -1.9235    0.5431 H   0  0  0  0  0  0  0  0  0  0  0  0
   -0.4389   -1.4347   -0.9919 H   0  0  0  0  0  0  0  0  0  0  0  0
    1.7250   -0.4207   -0.8742 H   0  0  0  0  0  0  0  0  0  0  0  0
    2.4896   -0.3010    0.7524 H   0  0  0  0  0  0  0  0  0  0  0  0
   -0.0080    1.1481   -1.3844 H   0  0  0  0  0  0  0  0  0  0  0  0
   -0.4826    2.2695   -0.0942 H   0  0  0  0  0  0  0  0  0  0  0  0
  1  2  1  0
  1  6  1  0
  1  7  1  0
  1  8  1  0
  2  3  1  0
  2  9  1  0
  2 10  1  0
  3  4  1  0
  4  5  1  0
  4 11  1  0
  4 12  1  0
  5  6  1  0
  6 13  1  0
  6 14  1  0
M  END
>  <reaction>  (3) 
rmg_rxn_260

>  <mol_properties>  (3) 
{"0": {"label": "a_hydrogen", "atom_type": "H0"}, "1": {"label": "acceptor", "atom_type": "Cs"}}

>  <type>  (3) 
r2h

$$$$

     RDKit          3D

 16 15  0  0  0  0  0  0  0  0999 V2000
    0.4998   -2.9027   -0.4718 S   0  0  0  0  0  1  0  0  0  0  0  0
    0.7084   -1.4648   -0.1345 H   0  0  0  0  0  0  0  0  0  0  0  0
   -0.7339   -2.8364    0.0458 H   0  0  0  0  0  0  0  0  0  0  0  0
    0.7151   -0.0181    0.1862 C   0  0  0  0  0  0  0  0  0  0  0  0
    0.7911    0.6607   -1.1491 C   0  0  0  0  0  0  0  0  0  0  0  0
    0.2929    2.0988   -1.0006 C   0  0  0  0  0  0  0  0  0  0  0  0
   -0.9679    2.0950   -0.3594 O   0  0  0  0  0  0  0  0  0  0  0  0
   -0.8919    1.5195    0.8963 C   0  0  0  0  0  0  0  0  0  0  0  0
   -0.4644    0.1674    0.8579 O   0  0  0  0  0  0  0  0  0  0  0  0
    1.5984    0.0002    0.8301 H   0  0  0  0  0  0  0  0  0  0  0  0
    1.8107    0.6352   -1.5344 H   0  0  0  0  0  0  0  0  0  0  0  0
    0.1424    0.1388   -1.8567 H   0  0  0  0  0  0  0  0  0  0  0  0
    1.0050    2.6982   -0.4162 H   0  0  0  0  0  0  0  0  0  0  0  0
    0.1534    2.5739   -1.9701 H   0  0  0  0  0  0  0  0  0  0  0  0
   -0.1943    2.0854    1.5345 H   0  0  0  0  0  0  0  0  0  0  0  0
   -1.8904    1.5136    1.3253 H   0  0  0  0  0  0  0  0  0  0  0  0
  1  3  1  0
  2  4  1  0
  4  5  1  0
  4  9  1  0
  4 10  1  0
  5  6  1  0
  5 11  1  0
  5 12  1  0
  6  7  1  0
  6 13  1  0
  6 14  1  0
  7  8  1  0
  8  9  1  0
  8 15  1  0
  8 16  1  0
M  RAD  1   1   2
M  END
>  <reaction>  (4) 
rmg_rxn_260

>  <mol_properties>  (4) 
{"0": {"label": "*3", "atom_type": "S2s"}, "1": {"label": "*2", "atom_type": "H0"}, "2": {"label": "*4", "atom_type": "H0"}, "3": {"label": "*1", "atom_type": "Cs"}, "8": {"label": "*0", "atom_type": "O2s"}}

>  <type>  (4) 
ts

$$$$

     RDKit          3D

 16 15  0  0  0  0  0  0  0  0999 V2000
   -0.0814   -2.4904   -1.0544 S   0  0  0  0  0  1  0  0  0  0  0  0
   -0.0814   -0.8859   -0.9773 H   0  0  0  0  0  0  0  0  0  0  0  0
   -0.0814   -2.4904   -2.3930 H   0  0  0  0  0  0  0  0  0  0  0  0
   -0.0814    0.4195   -0.9146 C   0  0  0  0  0  0  0  0  0  0  0  0
   -1.3038    0.9542   -0.1823 C   0  0  0  0  0  0  0  0  0  0  0  0
   -0.8450    1.9606    0.8633 C   0  0  0  0  0  0  0  0  0  0  0  0
    0.1603    1.3954    1.6825 O   0  0  0  0  0  0  0  0  0  0  0  0
    1.2370    0.9410    0.9205 C   0  0  0  0  0  0  0  0  0  0  0  0
    0.8785   -0.0539    0.0106 O   0  0  0  0  0  0  0  0  0  0  0  0
    0.3650    1.2138   -1.5325 H   0  0  0  0  0  0  0  0  0  0  0  0
   -1.9957    1.4230   -0.8858 H   0  0  0  0  0  0  0  0  0  0  0  0
   -1.8215    0.1291    0.3106 H   0  0  0  0  0  0  0  0  0  0  0  0
   -0.4524    2.8633    0.3705 H   0  0  0  0  0  0  0  0  0  0  0  0
   -1.6570    2.2597    1.5247 H   0  0  0  0  0  0  0  0  0  0  0  0
    1.6868    1.7917    0.3763 H   0  0  0  0  0  0  0  0  0  0  0  0
    1.9589    0.5057    1.6079 H   0  0  0  0  0  0  0  0  0  0  0  0
  1  3  1  0
  2  4  1  0
  4  5  1  0
  4  9  1  0
  4 10  1  0
  5  6  1  0
  5 11  1  0
  5 12  1  0
  6  7  1  0
  6 13  1  0
  6 14  1  0
  7  8  1  0
  8  9  1  0
  8 15  1  0
  8 16  1  0
M  RAD  1   1   2
M  END
>  <reaction>  (5) 
rmg_rxn_260

>  <mol_properties>  (5) 
{"0": {"label": "*3", "atom_type": "S2s"}, "1": {"label": "*2", "atom_type": "H0"}, "2": {"label": "*4", "atom_type": "H0"}, "3": {"label": "*1", "atom_type": "Cs"}, "8": {"label": "*0", "atom_type": "O2s"}}

>  <type>  (5) 
unop_1

>  <geom_source>  (5) 
Heuristics

$$$$

     RDKit          3D

 16 15  0  0  0  0  0  0  0  0999 V2000
    0.7515   -2.8140   -0.2259 S   0  0  0  0  0  1  0  0  0  0  0  0
    0.7515   -1.2095   -0.1488 H   0  0  0  0  0  0  0  0  0  0  0  0
    0.7515   -2.8140   -1.5645 H   0  0  0  0  0  0  0  0  0  0  0  0
    0.7515    0.0960   -0.0861 C   0  0  0  0  0  0  0  0  0  0  0  0
    0.0457    0.7232   -1.2799 C   0  0  0  0  0  0  0  0  0  0  0  0
   -0.5090    2.0777   -0.8625 C   0  0  0  0  0  0  0  0  0  0  0  0
   -1.2884    1.9498    0.3112 O   0  0  0  0  0  0  0  0  0  0  0  0
   -0.5527    1.3712    1.3459 C   0  0  0  0  0  0  0  0  0  0  0  0
   -0.1029    0.0861    1.0414 O   0  0  0  0  0  0  0  0  0  0  0  0
    1.6656    0.6617    0.1510 H   0  0  0  0  0  0  0  0  0  0  0  0
    0.7383    0.8357   -2.1171 H   0  0  0  0  0  0  0  0  0  0  0  0
   -0.7749    0.0769   -1.5971 H   0  0  0  0  0  0  0  0  0  0  0  0
    0.3164    2.7828   -0.6800 H   0  0  0  0  0  0  0  0  0  0  0  0
   -1.1588    2.5043   -1.6254 H   0  0  0  0  0  0  0  0  0  0  0  0
    0.3126    2.0158    1.5863 H   0  0  0  0  0  0  0  0  0  0  0  0
   -1.2141    1.2872    2.2053 H   0  0  0  0  0  0  0  0  0  0  0  0
  1  3  1  0
  2  4  1  0
  4  5  1  0
  4  9  1  0
  4 10  1  0
  5  6  1  0
  5 11  1  0
  5 12  1  0
  6  7  1  0
  6 13  1  0
  6 14  1  0
  7  8  1  0
  8  9  1  0
  8 15  1  0
  8 16  1  0
M  RAD  1   1   2
M  END
>  <reaction>  (6) 
rmg_rxn_260

>  <mol_properties>  (6) 
{"0": {"label": "*3", "atom_type": "S2s"}, "1": {"label": "*2", "atom_type": "H0"}, "2": {"label": "*4", "atom_type": "H0"}, "3": {"label": "*1", "atom_type": "Cs"}, "8": {"label": "*0", "atom_type": "O2s"}}

>  <type>  (6) 
unop_2

>  <geom_source>  (6) 
Heuristics

$$$$

     RDKit          3D

 16 15  0  0  0  0  0  0  0  0999 V2000
   -0.5186   -2.6476   -0.8127 S   0  0  0  0  0  1  0  0  0  0  0  0
   -0.5186   -1.0431   -0.7356 H   0  0  0  0  0  0  0  0  0  0  0  0
   -0.5186   -2.6476   -2.1513 H   0  0  0  0  0  0  0  0  0  0  0  0
   -0.5186    0.2624   -0.6729 C   0  0  0  0  0  0  0  0  0  0  0  0
   -1.2244    0.7723    0.5755 C   0  0  0  0  0  0  0  0  0  0  0  0
   -0.4635    1.9781    1.1082 C   0  0  0  0  0  0  0  0  0  0  0  0
    0.9072    1.6650    1.2650 O   0  0  0  0  0  0  0  0  0  0  0  0
    1.4626    1.2133    0.0676 C   0  0  0  0  0  0  0  0  0  0  0  0
    0.8554    0.0516   -0.4100 O   0  0  0  0  0  0  0  0  0  0  0  0
   -0.6282    0.9902   -1.4915 H   0  0  0  0  0  0  0  0  0  0  0  0
   -2.2574    1.0434    0.3463 H   0  0  0  0  0  0  0  0  0  0  0  0
   -1.2353   -0.0138    1.3330 H   0  0  0  0  0  0  0  0  0  0  0  0
   -0.5693    2.8266    0.4150 H   0  0  0  0  0  0  0  0  0  0  0  0
   -0.8277    2.2900    2.0861 H   0  0  0  0  0  0  0  0  0  0  0  0
    1.3854    2.0087   -0.6962 H   0  0  0  0  0  0  0  0  0  0  0  0
    2.5057    0.9756    0.2643 H   0  0  0  0  0  0  0  0  0  0  0  0
  1  3  1  0
  2  4  1  0
  4  5  1  0
  4  9  1  0
  4 10  1  0
  5  6  1  0
  5 11  1  0
  5 12  1  0
  6  7  1  0
  6 13  1  0
  6 14  1  0
  7  8  1  0
  8  9  1  0
  8 15  1  0
  8 16  1  0
M  RAD  1   1   2
M  END
>  <reaction>  (7) 
rmg_rxn_260

>  <mol_properties>  (7) 
{"0": {"label": "*3", "atom_type": "S2s"}, "1": {"label": "*2", "atom_type": "H0"}, "2": {"label": "*4", "atom_type": "H0"}, "3": {"label": "*1", "atom_type": "Cs"}, "8": {"label": "*0", "atom_type": "O2s"}}

>  <type>  (7) 
unop_3

>  <geom_source>  (7) 
Heuristics

$$$$

     RDKit          3D

 16 15  0  0  0  0  0  0  0  0999 V2000
   -0.1242   -3.1385   -0.0333 S   0  0  0  0  0  1  0  0  0  0  0  0
   -0.1242   -1.5340    0.0438 H   0  0  0  0  0  0  0  0  0  0  0  0
   -0.1242   -3.1385   -1.3719 H   0  0  0  0  0  0  0  0  0  0  0  0
   -0.1242   -0.2285    0.1065 C   0  0  0  0  0  0  0  0  0  0  0  0
    1.0982    0.3739   -0.5712 C   0  0  0  0  0  0  0  0  0  0  0  0
    1.3377    1.7641    0.0004 C   0  0  0  0  0  0  0  0  0  0  0  0
    0.1548    2.5366   -0.0725 O   0  0  0  0  0  0  0  0  0  0  0  0
   -0.9032    1.9037    0.5806 C   0  0  0  0  0  0  0  0  0  0  0  0
   -1.2200    0.6627    0.0273 O   0  0  0  0  0  0  0  0  0  0  0  0
    0.0984   -0.4436    1.1629 H   0  0  0  0  0  0  0  0  0  0  0  0
    1.9737   -0.2600   -0.4132 H   0  0  0  0  0  0  0  0  0  0  0  0
    0.9177    0.4492   -1.6452 H   0  0  0  0  0  0  0  0  0  0  0  0
    1.6632    1.6892    1.0494 H   0  0  0  0  0  0  0  0  0  0  0  0
    2.1014    2.3069   -0.5550 H   0  0  0  0  0  0  0  0  0  0  0  0
   -0.6514    1.7758    1.6494 H   0  0  0  0  0  0  0  0  0  0  0  0
   -1.7785    2.5400    0.4702 H   0  0  0  0  0  0  0  0  0  0  0  0
  1  3  1  0
  2  4  1  0
  4  5  1  0
  4  9  1  0
  4 10  1  0
  5  6  1  0
  5 11  1  0
  5 12  1  0
  6  7  1  0
  6 13  1  0
  6 14  1  0
  7  8  1  0
  8  9  1  0
  8 15  1  0
  8 16  1  0
M  RAD  1   1   2
M  END
>  <reaction>  (8) 
rmg_rxn_260

>  <mol_properties>  (8) 
{"0": {"label": "*3", "atom_type": "S2s"}, "1": {"label": "*2", "atom_type": "H0"}, "2": {"label": "*4", "atom_type": "H0"}, "3": {"label": "*1", "atom_type": "Cs"}, "8": {"label": "*0", "atom_type": "O2s"}}

>  <type>  (8) 
unop_4

>  <geom_source>  (8) 
Heuristics

$$$$

     RDKit          3D

 16 15  0  0  0  0  0  0  0  0999 V2000
   -0.4957   -2.9845   -0.3491 S   0  0  0  0  0  1  0  0  0  0  0  0
   -0.4957   -1.3800   -0.2720 H   0  0  0  0  0  0  0  0  0  0  0  0
   -0.4957   -2.9845   -1.6877 H   0  0  0  0  0  0  0  0  0  0  0  0
   -0.4957   -0.0745   -0.2093 C   0  0  0  0  0  0  0  0  0  0  0  0
   -0.4957    0.4263    1.2280 C   0  0  0  0  0  0  0  0  0  0  0  0
   -0.2689    1.9313    1.2204 C   0  0  0  0  0  0  0  0  0  0  0  0
    0.8807    2.2519    0.4608 O   0  0  0  0  0  0  0  0  0  0  0  0
    0.7821    1.7553   -0.8393 C   0  0  0  0  0  0  0  0  0  0  0  0
    0.6674    0.3656   -0.8838 O   0  0  0  0  0  0  0  0  0  0  0  0
   -1.3882    0.2953   -0.7371 H   0  0  0  0  0  0  0  0  0  0  0  0
   -1.4426    0.1853    1.7164 H   0  0  0  0  0  0  0  0  0  0  0  0
    0.3100   -0.0595    1.7817 H   0  0  0  0  0  0  0  0  0  0  0  0
   -1.1454    2.4423    0.7932 H   0  0  0  0  0  0  0  0  0  0  0  0
   -0.1015    2.3231    2.2228 H   0  0  0  0  0  0  0  0  0  0  0  0
   -0.0902    2.2121   -1.3418 H   0  0  0  0  0  0  0  0  0  0  0  0
    1.7009    2.0207   -1.3575 H   0  0  0  0  0  0  0  0  0  0  0  0
  1  3  1  0
  2  4  1  0
  4  5  1  0
  4  9  1  0
  4 10  1  0
  5  6  1  0
  5 11  1  0
  5 12  1  0
  6  7  1  0
  6 13  1  0
  6 14  1  0
  7  8  1  0
  8  9  1  0
  8 15  1  0
  8 16  1  0
M  RAD  1   1   2
M  END
>  <reaction>  (9) 
rmg_rxn_260

>  <mol_properties>  (9) 
{"0": {"label": "*3", "atom_type": "S2s"}, "1": {"label": "*2", "atom_type": "H0"}, "2": {"label": "*4", "atom_type": "H0"}, "3": {"label": "*1", "atom_type": "Cs"}, "8": {"label": "*0", "atom_type": "O2s"}}

>  <type>  (9) 
unop_5

>  <geom_source>  (9) 
Heuristics

$$$$

     RDKit          3D

 16 15  0  0  0  0  0  0  0  0999 V2000
   -0.1622   -3.1251   -0.2303 S   0  0  0  0  0  1  0  0  0  0  0  0
   -0.1622   -1.5206   -0.1532 H   0  0  0  0  0  0  0  0  0  0  0  0
   -0.1622   -3.1251   -1.5689 H   0  0  0  0  0  0  0  0  0  0  0  0
   -0.1622   -0.2152   -0.0905 C   0  0  0  0  0  0  0  0  0  0  0  0
    1.2493    0.3534   -0.0632 C   0  0  0  0  0  0  0  0  0  0  0  0
    1.2373    1.6517    0.7311 C   0  0  0  0  0  0  0  0  0  0  0  0
    0.2368    2.5215    0.2372 O   0  0  0  0  0  0  0  0  0  0  0  0
   -1.0180    1.9119    0.2578 C   0  0  0  0  0  0  0  0  0  0  0  0
   -1.0794    0.7658   -0.5354 O   0  0  0  0  0  0  0  0  0  0  0  0
   -0.4501   -0.5574    0.9154 H   0  0  0  0  0  0  0  0  0  0  0  0
    1.9409   -0.3628    0.3863 H   0  0  0  0  0  0  0  0  0  0  0  0
    1.5791    0.5554   -1.0841 H   0  0  0  0  0  0  0  0  0  0  0  0
    1.0480    1.4409    1.7948 H   0  0  0  0  0  0  0  0  0  0  0  0
    2.1833    2.1857    0.6530 H   0  0  0  0  0  0  0  0  0  0  0  0
   -1.2832    1.6524    1.2992 H   0  0  0  0  0  0  0  0  0  0  0  0
   -1.7309    2.6254   -0.1491 H   0  0  0  0  0  0  0  0  0  0  0  0
  1  3  1  0
  2  4  1  0
  4  5  1  0
  4  9  1  0
  4 10  1  0
  5  6  1  0
  5 11  1  0
  5 12  1  0
  6  7  1  0
  6 13  1  0
  6 14  1  0
  7  8  1  0
  8  9  1  0
  8 15  1  0
  8 16  1  0
M  RAD  1   1   2
M  END
>  <reaction>  (10) 
rmg_rxn_260

>  <mol_properties>  (10) 
{"0": {"label": "*3", "atom_type": "S2s"}, "1": {"label": "*2", "atom_type": "H0"}, "2": {"label": "*4", "atom_type": "H0"}, "3": {"label": "*1", "atom_type": "Cs"}, "8": {"label": "*0", "atom_type": "O2s"}}

>  <type>  (10) 
unop_6

>  <geom_source>  (10) 
Heuristics

$$$$

     RDKit          3D

 16 15  0  0  0  0  0  0  0  0999 V2000
   -0.0901   -3.1204   -0.3082 S   0  0  0  0  0  1  0  0  0  0  0  0
   -0.0901   -1.5159   -0.2312 H   0  0  0  0  0  0  0  0  0  0  0  0
   -0.0901   -3.1204   -1.6469 H   0  0  0  0  0  0  0  0  0  0  0  0
   -0.0901   -0.2104   -0.1684 C   0  0  0  0  0  0  0  0  0  0  0  0
    1.1324    0.3243    0.5638 C   0  0  0  0  0  0  0  0  0  0  0  0
    0.7520    1.6190    1.2680 C   0  0  0  0  0  0  0  0  0  0  0  0
    0.1443    2.5145    0.3569 O   0  0  0  0  0  0  0  0  0  0  0  0
   -0.9665    1.9348   -0.2567 C   0  0  0  0  0  0  0  0  0  0  0  0
   -0.6476    0.7941   -0.9940 O   0  0  0  0  0  0  0  0  0  0  0  0
   -0.8451   -0.5502    0.5571 H   0  0  0  0  0  0  0  0  0  0  0  0
    1.4967   -0.4102    1.2857 H   0  0  0  0  0  0  0  0  0  0  0  0
    1.9287    0.5230   -0.1561 H   0  0  0  0  0  0  0  0  0  0  0  0
    0.0563    1.4079    2.0945 H   0  0  0  0  0  0  0  0  0  0  0  0
    1.6219    2.1307    1.6775 H   0  0  0  0  0  0  0  0  0  0  0  0
   -1.7180    1.6771    0.5121 H   0  0  0  0  0  0  0  0  0  0  0  0
   -1.3706    2.6670   -0.9522 H   0  0  0  0  0  0  0  0  0  0  0  0
  1  3  1  0
  2  4  1  0
  4  5  1  0
  4  9  1  0
  4 10  1  0
  5  6  1  0
  5 11  1  0
  5 12  1  0
  6  7  1  0
  6 13  1  0
  6 14  1  0
  7  8  1  0
  8  9  1  0
  8 15  1  0
  8 16  1  0
M  RAD  1   1   2
M  END
>  <reaction>  (11) 
rmg_rxn_260

>  <mol_properties>  (11) 
{"0": {"label": "*3", "atom_type": "S2s"}, "1": {"label": "*2", "atom_type": "H0"}, "2": {"label": "*4", "atom_type": "H0"}, "3": {"label": "*1", "atom_type": "Cs"}, "8": {"label": "*0", "atom_type": "O2s"}}

>  <type>  (11) 
unop_7

>  <geom_source>  (11) 
Heuristics

$$$$

     RDKit          3D

 16 15  0  0  0  0  0  0  0  0999 V2000
    0.3982   -2.5040   -0.9661 S   0  0  0  0  0  1  0  0  0  0  0  0
    0.3982   -0.8995   -0.8890 H   0  0  0  0  0  0  0  0  0  0  0  0
    0.3982   -2.5040   -2.3047 H   0  0  0  0  0  0  0  0  0  0  0  0
    0.3982    0.4060   -0.8263 C   0  0  0  0  0  0  0  0  0  0  0  0
   -1.0134    0.9746   -0.7990 C   0  0  0  0  0  0  0  0  0  0  0  0
   -1.1093    1.9886    0.3320 C   0  0  0  0  0  0  0  0  0  0  0  0
   -0.6560    1.4179    1.5445 O   0  0  0  0  0  0  0  0  0  0  0  0
    0.6457    0.9318    1.4187 C   0  0  0  0  0  0  0  0  0  0  0  0
    0.7617   -0.0705    0.4552 O   0  0  0  0  0  0  0  0  0  0  0  0
    1.1109    1.1821   -1.1451 H   0  0  0  0  0  0  0  0  0  0  0  0
   -1.2542    1.4449   -1.7550 H   0  0  0  0  0  0  0  0  0  0  0  0
   -1.7267    0.1669   -0.6239 H   0  0  0  0  0  0  0  0  0  0  0  0
   -0.5027    2.8761    0.0947 H   0  0  0  0  0  0  0  0  0  0  0  0
   -2.1350    2.3130    0.5023 H   0  0  0  0  0  0  0  0  0  0  0  0
    1.3261    1.7655    1.1653 H   0  0  0  0  0  0  0  0  0  0  0  0
    0.9213    0.4941    2.3756 H   0  0  0  0  0  0  0  0  0  0  0  0
  1  3  1  0
  2  4  1  0
  4  5  1  0
  4  9  1  0
  4 10  1  0
  5  6  1  0
  5 11  1  0
  5 12  1  0
  6  7  1  0
  6 13  1  0
  6 14  1  0
  7  8  1  0
  8  9  1  0
  8 15  1  0
  8 16  1  0
M  RAD  1   1   2
M  END
>  <reaction>  (12) 
rmg_rxn_260

>  <mol_properties>  (12) 
{"0": {"label": "*3", "atom_type": "S2s"}, "1": {"label": "*2", "atom_type": "H0"}, "2": {"label": "*4", "atom_type": "H0"}, "3": {"label": "*1", "atom_type": "Cs"}, "8": {"label": "*0", "atom_type": "O2s"}}

>  <type>  (12) 
unop_8

>  <geom_source>  (12) 
Heuristics

$$$$

     RDKit          3D

 16 15  0  0  0  0  0  0  0  0999 V2000
    0.1223   -3.1161    0.1320 S   0  0  0  0  0  1  0  0  0  0  0  0
    0.1223   -1.5116    0.2091 H   0  0  0  0  0  0  0  0  0  0  0  0
    0.1223   -3.1161   -1.2066 H   0  0  0  0  0  0  0  0  0  0  0  0
    0.1223   -0.2062    0.2718 C   0  0  0  0  0  0  0  0  0  0  0  0
    0.8281    0.4211   -0.9220 C   0  0  0  0  0  0  0  0  0  0  0  0
    0.9830    1.9138   -0.6684 C   0  0  0  0  0  0  0  0  0  0  0  0
   -0.2641    2.4866   -0.3246 O   0  0  0  0  0  0  0  0  0  0  0  0
   -0.8259    1.8479    0.7812 C   0  0  0  0  0  0  0  0  0  0  0  0
   -1.0735    0.4929    0.5595 O   0  0  0  0  0  0  0  0  0  0  0  0
    0.7814   -0.1844    1.1532 H   0  0  0  0  0  0  0  0  0  0  0  0
    1.8047   -0.0435   -1.0756 H   0  0  0  0  0  0  0  0  0  0  0  0
    0.2284    0.2659   -1.8209 H   0  0  0  0  0  0  0  0  0  0  0  0
    1.7026    2.0847    0.1469 H   0  0  0  0  0  0  0  0  0  0  0  0
    1.3378    2.4424   -1.5521 H   0  0  0  0  0  0  0  0  0  0  0  0
   -0.1536    1.9609    1.6515 H   0  0  0  0  0  0  0  0  0  0  0  0
   -1.7841    2.3239    0.9773 H   0  0  0  0  0  0  0  0  0  0  0  0
  1  3  1  0
  2  4  1  0
  4  5  1  0
  4  9  1  0
  4 10  1  0
  5  6  1  0
  5 11  1  0
  5 12  1  0
  6  7  1  0
  6 13  1  0
  6 14  1  0
  7  8  1  0
  8  9  1  0
  8 15  1  0
  8 16  1  0
M  RAD  1   1   2
M  END
>  <reaction>  (13) 
rmg_rxn_260

>  <mol_properties>  (13) 
{"0": {"label": "*3", "atom_type": "S2s"}, "1": {"label": "*2", "atom_type": "H0"}, "2": {"label": "*4", "atom_type": "H0"}, "3": {"label": "*1", "atom_type": "Cs"}, "8": {"label": "*0", "atom_type": "O2s"}}

>  <type>  (13) 
unop_9

>  <geom_source>  (13) 
Heuristics

$$$$

     RDKit          3D

 16 15  0  0  0  0  0  0  0  0999 V2000
    0.7147   -2.6247   -0.6419 S   0  0  0  0  0  1  0  0  0  0  0  0
    0.7147   -1.0202   -0.5648 H   0  0  0  0  0  0  0  0  0  0  0  0
    0.7147   -2.6247   -1.9805 H   0  0  0  0  0  0  0  0  0  0  0  0
    0.7147    0.2852   -0.5021 C   0  0  0  0  0  0  0  0  0  0  0  0
   -0.5077    0.8877   -1.1797 C   0  0  0  0  0  0  0  0  0  0  0  0
   -1.0174    2.0427   -0.3297 C   0  0  0  0  0  0  0  0  0  0  0  0
   -1.2039    1.6239    1.0087 O   0  0  0  0  0  0  0  0  0  0  0  0
   -0.0284    1.0932    1.5406 C   0  0  0  0  0  0  0  0  0  0  0  0
    0.4250   -0.0289    0.8466 O   0  0  0  0  0  0  0  0  0  0  0  0
    1.5553    0.9950   -0.5412 H   0  0  0  0  0  0  0  0  0  0  0  0
   -0.2552    1.2351   -2.1841 H   0  0  0  0  0  0  0  0  0  0  0  0
   -1.2871    0.1279   -1.2646 H   0  0  0  0  0  0  0  0  0  0  0  0
   -0.2988    2.8762   -0.3567 H   0  0  0  0  0  0  0  0  0  0  0  0
   -1.9804    2.4121   -0.6797 H   0  0  0  0  0  0  0  0  0  0  0  0
    0.7588    1.8693    1.5386 H   0  0  0  0  0  0  0  0  0  0  0  0
   -0.2476    0.7773    2.5581 H   0  0  0  0  0  0  0  0  0  0  0  0
  1  3  1  0
  2  4  1  0
  4  5  1  0
  4  9  1  0
  4 10  1  0
  5  6  1  0
  5 11  1  0
  5 12  1  0
  6  7  1  0
  6 13  1  0
  6 14  1  0
  7  8  1  0
  8  9  1  0
  8 15  1  0
  8 16  1  0
M  RAD  1   1   2
M  END
>  <reaction>  (14) 
rmg_rxn_260

>  <mol_properties>  (14) 
{"0": {"label": "*3", "atom_type": "S2s"}, "1": {"label": "*2", "atom_type": "H0"}, "2": {"label": "*4", "atom_type": "H0"}, "3": {"label": "*1", "atom_type": "Cs"}, "8": {"label": "*0", "atom_type": "O2s"}}

>  <type>  (14) 
unop_10

>  <geom_source>  (14) 
Heuristics

$$$$

     RDKit          3D

 16 15  0  0  0  0  0  0  0  0999 V2000
   -0.1387   -3.1264   -0.2455 S   0  0  0  0  0  1  0  0  0  0  0  0
   -0.1387   -1.5219   -0.1684 H   0  0  0  0  0  0  0  0  0  0  0  0
   -0.1387   -3.1264   -1.5841 H   0  0  0  0  0  0  0  0  0  0  0  0
   -0.1387   -0.2165   -0.1057 C   0  0  0  0  0  0  0  0  0  0  0  0
    0.5671    0.2935    1.1427 C   0  0  0  0  0  0  0  0  0  0  0  0
    0.1070    1.7183    1.4159 C   0  0  0  0  0  0  0  0  0  0  0  0
    0.2605    2.5157    0.2574 O   0  0  0  0  0  0  0  0  0  0  0  0
   -0.4257    1.9687   -0.8272 C   0  0  0  0  0  0  0  0  0  0  0  0
    0.0295    0.6962   -1.1735 O   0  0  0  0  0  0  0  0  0  0  0  0
   -1.2124   -0.3506    0.0968 H   0  0  0  0  0  0  0  0  0  0  0  0
    0.3447   -0.3500    1.9969 H   0  0  0  0  0  0  0  0  0  0  0  0
    1.6463    0.2857    0.9783 H   0  0  0  0  0  0  0  0  0  0  0  0
   -0.9494    1.7203    1.7254 H   0  0  0  0  0  0  0  0  0  0  0  0
    0.6931    2.1919    2.2023 H   0  0  0  0  0  0  0  0  0  0  0  0
   -1.5051    1.9216   -0.5930 H   0  0  0  0  0  0  0  0  0  0  0  0
   -0.2505    2.6185   -1.6818 H   0  0  0  0  0  0  0  0  0  0  0  0
  1  3  1  0
  2  4  1  0
  4  5  1  0
  4  9  1  0
  4 10  1  0
  5  6  1  0
  5 11  1  0
  5 12  1  0
  6  7  1  0
  6 13  1  0
  6 14  1  0
  7  8  1  0
  8  9  1  0
  8 15  1  0
  8 16  1  0
M  RAD  1   1   2
M  END
>  <reaction>  (15) 
rmg_rxn_260

>  <mol_properties>  (15) 
{"0": {"label": "*3", "atom_type": "S2s"}, "1": {"label": "*2", "atom_type": "H0"}, "2": {"label": "*4", "atom_type": "H0"}, "3": {"label": "*1", "atom_type": "Cs"}, "8": {"label": "*0", "atom_type": "O2s"}}

>  <type>  (15) 
unop_11

>  <geom_source>  (15) 
Heuristics

$$$$

     RDKit          3D

 16 15  0  0  0  0  0  0  0  0999 V2000
    0.4957   -3.0053    0.0836 S   0  0  0  0  0  1  0  0  0  0  0  0
    0.4957   -1.4008    0.1607 H   0  0  0  0  0  0  0  0  0  0  0  0
    0.4957   -3.0053   -1.2550 H   0  0  0  0  0  0  0  0  0  0  0  0
    0.4957   -0.0953    0.2234 C   0  0  0  0  0  0  0  0  0  0  0  0
    0.4957    0.5410   -1.1592 C   0  0  0  0  0  0  0  0  0  0  0  0
    0.2689    2.0384   -1.0074 C   0  0  0  0  0  0  0  0  0  0  0  0
   -0.8807    2.2846   -0.2205 O   0  0  0  0  0  0  0  0  0  0  0  0
   -0.7821    1.6657    1.0259 C   0  0  0  0  0  0  0  0  0  0  0  0
   -0.6674    0.2781    0.9370 O   0  0  0  0  0  0  0  0  0  0  0  0
    1.3882    0.2222    0.7842 H   0  0  0  0  0  0  0  0  0  0  0  0
    1.4426    0.3479   -1.6685 H   0  0  0  0  0  0  0  0  0  0  0  0
   -0.3100    0.1105   -1.7570 H   0  0  0  0  0  0  0  0  0  0  0  0
    1.1454    2.5060   -0.5332 H   0  0  0  0  0  0  0  0  0  0  0  0
    0.1015    2.5244   -1.9676 H   0  0  0  0  0  0  0  0  0  0  0  0
    0.0902    2.0722    1.5699 H   0  0  0  0  0  0  0  0  0  0  0  0
   -1.7009    1.8802    1.5671 H   0  0  0  0  0  0  0  0  0  0  0  0
  1  3  1  0
  2  4  1  0
  4  5  1  0
  4  9  1  0
  4 10  1  0
  5  6  1  0
  5 11  1  0
  5 12  1  0
  6  7  1  0
  6 13  1  0
  6 14  1  0
  7  8  1  0
  8  9  1  0
  8 15  1  0
  8 16  1  0
M  RAD  1   1   2
M  END
>  <reaction>  (16) 
rmg_rxn_260

>  <mol_properties>  (16) 
{"0": {"label": "*3", "atom_type": "S2s"}, "1": {"label": "*2", "atom_type": "H0"}, "2": {"label": "*4", "atom_type": "H0"}, "3": {"label": "*1", "atom_type": "Cs"}, "8": {"label": "*0", "atom_type": "O2s"}}

>  <type>  (16) 
unop_12

>  <geom_source>  (16) 
Heuristics

$$$$

     RDKit          3D

 16 15  0  0  0  0  0  0  0  0999 V2000
    0.7515   -2.8140   -0.2259 S   0  0  0  0  0  1  0  0  0  0  0  0
    0.7515   -1.2095   -0.1488 H   0  0  0  0  0  0  0  0  0  0  0  0
    0.7515   -2.8140   -1.5645 H   0  0  0  0  0  0  0  0  0  0  0  0
    0.7515    0.0959   -0.0861 C   0  0  0  0  0  0  0  0  0  0  0  0
    0.0457    0.7232   -1.2799 C   0  0  0  0  0  0  0  0  0  0  0  0
   -0.5090    2.0777   -0.8625 C   0  0  0  0  0  0  0  0  0  0  0  0
   -1.2884    1.9498    0.3112 O   0  0  0  0  0  0  0  0  0  0  0  0
   -0.5527    1.3712    1.3459 C   0  0  0  0  0  0  0  0  0  0  0  0
   -0.1029    0.0861    1.0413 O   0  0  0  0  0  0  0  0  0  0  0  0
    1.6656    0.6617    0.1510 H   0  0  0  0  0  0  0  0  0  0  0  0
    0.7383    0.8357   -2.1171 H   0  0  0  0  0  0  0  0  0  0  0  0
   -0.7749    0.0769   -1.5971 H   0  0  0  0  0  0  0  0  0  0  0  0
    0.3164    2.7828   -0.6800 H   0  0  0  0  0  0  0  0  0  0  0  0
   -1.1588    2.5043   -1.6254 H   0  0  0  0  0  0  0  0  0  0  0  0
    0.3126    2.0158    1.5863 H   0  0  0  0  0  0  0  0  0  0  0  0
   -1.2141    1.2872    2.2053 H   0  0  0  0  0  0  0  0  0  0  0  0
  1  3  1  0
  2  4  1  0
  4  5  1  0
  4  9  1  0
  4 10  1  0
  5  6  1  0
  5 11  1  0
  5 12  1  0
  6  7  1  0
  6 13  1  0
  6 14  1  0
  7  8  1  0
  8  9  1  0
  8 15  1  0
  8 16  1  0
M  RAD  1   1   2
M  END
>  <reaction>  (17) 
rmg_rxn_260

>  <mol_properties>  (17) 
{"0": {"label": "*3", "atom_type": "S2s"}, "1": {"label": "*2", "atom_type": "H0"}, "2": {"label": "*4", "atom_type": "H0"}, "3": {"label": "*1", "atom_type": "Cs"}, "8": {"label": "*0", "atom_type": "O2s"}}

>  <type>  (17) 
unop_13

>  <geom_source>  (17) 
gaussian_log

$$$$
