
     RDKit          3D

 14 14  0  0  0  0  0  0  0  0999 V2000
   -1.1778    0.2241    0.1818 C   0  0  0  0  0  0  0  0  0  0  0  0
   -0.5633   -1.1636    0.0678 C   0  0  0  0  0  0  0  0  0  0  0  0
    0.6943   -1.1996    0.7146 O   0  0  0  0  0  0  0  0  0  0  0  0
    1.5547   -0.2288    0.2011 C   0  0  0  0  0  0  0  0  0  0  0  0
    1.0729    1.0696    0.3698 O   0  0  0  0  0  0  0  0  0  0  0  0
   -0.1607    1.2493   -0.2989 C   0  0  0  0  0  0  0  0  0  0  0  0
   -2.0927    0.2866   -0.4117 H   0  0  0  0  0  0  0  0  0  0  0  0
   -1.4303    0.4248    1.2248 H   0  0  0  0  0  0  0  0  0  0  0  0
   -1.1822   -1.9235    0.5431 H   0  0  0  0  0  0  0  0  0  0  0  0
   -0.4389   -1.4347   -0.9919 H   0  0  0  0  0  0  0  0  0  0  0  0
    1.7250   -0.4207   -0.8742 H   0  0  0  0  0  0  0  0  0  0  0  0
    2.4896   -0.3010    0.7524 H   0  0  0  0  0  0  0  0  0  0  0  0
   -0.0080    1.1481   -1.3844 H   0  0  0  0  0  0  0  0  0  0  0  0
   -0.4826    2.2695   -0.0942 H   0  0  0  0  0  0  0  0  0  0  0  0
  1  2  1  0
  1  6  1  0
  1  7  1  0
  1  8  1  0
  2  3  1  0
  2  9  1  0
  2 10  1  0
  3  4  1  0
  4  5  1  0
  4 11  1  0
  4 12  1  0
  5  6  1  0
  6 13  1  0
  6 14  1  0
M  END
>  <reaction>  (1) 
rmg_rxn_15420

>  <mol_properties>  (1) 
{"0": {"label": "donator", "atom_type": "Cs"}, "6": {"label": "d_hydrogen", "atom_type": "H0"}}

>  <type>  (1) 
r1h

$$$$

     RDKit          3D

  5  4  0  0  0  0  0  0  0  0999 V2000
    0.8934    0.3742    0.4948 O   0  0  0  0  0  0  0  0  0  0  0  0
    0.1582   -0.1610   -0.5904 N   0  0  0  0  0  0  0  0  0  0  0  0
   -1.0297   -0.3739   -0.4689 C   0  0  0  0  0  3  0  0  0  0  0  0
    1.7804    0.4382    0.1306 H   0  0  0  0  0  0  0  0  0  0  0  0
   -1.8023   -0.2775    0.2859 H   0  0  0  0  0  0  0  0  0  0  0  0
  1  2  1  0
  1  4  1  0
  2  3  2  3
  3  5  1  0
M  RAD  1   3   2
M  END
>  <reaction>  (2) 
rmg_rxn_15420

>  <mol_properties>  (2) 
{"2": {"label": "acceptor", "atom_type": "Cd"}}

>  <type>  (2) 
r2

$$$$

     RDKit          3D

  6  5  0  0  0  0  0  0  0  0999 V2000
    1.2314    0.0428    0.5088 O   0  0  0  0  0  0  0  0  0  0  0  0
    0.2987    0.2341   -0.4915 N   0  0  0  0  0  0  0  0  0  0  0  0
   -0.8599   -0.1122   -0.1290 C   0  0  0  0  0  0  0  0  0  0  0  0
    2.0507    0.3401    0.1082 H   0  0  0  0  0  0  0  0  0  0  0  0
   -1.0700   -0.5112    0.8610 H   0  0  0  0  0  0  0  0  0  0  0  0
   -1.6509    0.0064   -0.8574 H   0  0  0  0  0  0  0  0  0  0  0  0
  1  2  1  0
  1  4  1  0
  2  3  2  3
  3  5  1  0
  3  6  1  0
M  END
>  <reaction>  (3) 
rmg_rxn_15420

>  <mol_properties>  (3) 
{"2": {"label": "acceptor", "atom_type": "Cd"}, "5": {"label": "a_hydrogen", "atom_type": "H0"}}

>  <type>  (3) 
r2h

$$$$

     RDKit          3D

 19 18  0  0  0  0  0  0  0  0999 V2000
    2.0616   -1.0826    0.1527 O   0  0  0  0  0  0  0  0  0  0  0  0
    2.5995    0.1622    0.2428 N   0  0  0  0  0  0  0  0  0  0  0  0
    1.9161    1.1811    0.0030 C   0  0  0  0  0  3  0  0  0  0  0  0
    1.1135   -1.0279   -0.0825 H   0  0  0  0  0  0  0  0  0  0  0  0
    2.3818    2.1589    0.0848 H   0  0  0  0  0  0  0  0  0  0  0  0
   -0.6914    1.2041   -0.7115 C   0  0  0  0  0  0  0  0  0  0  0  0
   -0.8904   -0.0700   -1.4868 C   0  0  0  0  0  0  0  0  0  0  0  0
   -0.6975   -1.1891   -0.6307 O   0  0  0  0  0  0  0  0  0  0  0  0
   -1.5288   -1.1149    0.5012 C   0  0  0  0  0  0  0  0  0  0  0  0
   -1.2499   -0.0055    1.2891 O   0  0  0  0  0  0  0  0  0  0  0  0
   -1.4597    1.2056    0.5847 C   0  0  0  0  0  0  0  0  0  0  0  0
    0.6111    1.1887   -0.3605 H   0  0  0  0  0  0  0  0  0  0  0  0
   -0.8094    2.1104   -1.3033 H   0  0  0  0  0  0  0  0  0  0  0  0
   -1.9027   -0.1191   -1.9169 H   0  0  0  0  0  0  0  0  0  0  0  0
   -0.1721   -0.1717   -2.3003 H   0  0  0  0  0  0  0  0  0  0  0  0
   -1.3307   -2.0003    1.1002 H   0  0  0  0  0  0  0  0  0  0  0  0
   -2.5803   -1.0960    0.1692 H   0  0  0  0  0  0  0  0  0  0  0  0
   -1.1377    2.0097    1.2456 H   0  0  0  0  0  0  0  0  0  0  0  0
   -2.5379    1.3352    0.3925 H   0  0  0  0  0  0  0  0  0  0  0  0
  1  2  1  0
  1  4  1  0
  2  3  2  3
  3  5  1  0
  6  7  1  0
  6 11  1  0
  6 12  1  0
  6 13  1  0
  7  8  1  0
  7 14  1  0
  7 15  1  0
  8  9  1  0
  9 10  1  0
  9 16  1  0
  9 17  1  0
 10 11  1  0
 11 18  1  0
 11 19  1  0
M  RAD  1   3   2
M  END
>  <reaction>  (4) 
rmg_rxn_15420

>  <mol_properties>  (4) 
{"1": {"label": "*4", "atom_type": "N3d"}, "2": {"label": "*3", "atom_type": "Cd"}, "5": {"label": "*1", "atom_type": "Cs"}, "6": {"label": "*0", "atom_type": "Cs"}, "11": {"label": "*2", "atom_type": "H0"}}

>  <type>  (4) 
ts

$$$$

     RDKit          3D

 19 18  0  0  0  0  0  0  0  0999 V2000
    3.9562   -0.0507   -0.4149 O   0  0  0  0  0  0  0  0  0  0  0  0
    2.7142   -0.0433    0.2455 N   0  0  0  0  0  0  0  0  0  0  0  0
    1.6810    0.2982   -0.3355 C   0  0  0  0  0  0  0  0  0  0  0  0
    4.5846   -0.3562    0.2541 H   0  0  0  0  0  0  0  0  0  0  0  0
    1.5003    0.6233   -1.3504 H   0  0  0  0  0  0  0  0  0  0  0  0
   -0.4787    0.1490    1.1550 C   0  0  0  0  0  3  0  0  0  0  0  0
   -1.3761    1.2716    0.6801 C   0  0  0  0  0  0  0  0  0  0  0  0
   -1.7771    1.0633   -0.6626 O   0  0  0  0  0  0  0  0  0  0  0  0
   -2.3685   -0.1895   -0.8258 C   0  0  0  0  0  0  0  0  0  0  0  0
   -1.5173   -1.2497   -0.5164 O   0  0  0  0  0  0  0  0  0  0  0  0
   -1.0960   -1.1955    0.8352 C   0  0  0  0  0  0  0  0  0  0  0  0
    0.6176    0.2283    0.4246 H   0  0  0  0  0  0  0  0  0  0  0  0
   -0.1693    0.2481    2.1904 H   0  0  0  0  0  0  0  0  0  0  0  0
   -2.2760    1.3366    1.3216 H   0  0  0  0  0  0  0  0  0  0  0  0
   -0.8661    2.2369    0.6970 H   0  0  0  0  0  0  0  0  0  0  0  0
   -2.6235   -0.2849   -1.8830 H   0  0  0  0  0  0  0  0  0  0  0  0
   -3.2881   -0.2528   -0.2042 H   0  0  0  0  0  0  0  0  0  0  0  0
   -0.3808   -2.0105    0.9617 H   0  0  0  0  0  0  0  0  0  0  0  0
   -1.9661   -1.3812    1.4940 H   0  0  0  0  0  0  0  0  0  0  0  0
  1  2  1  0
  1  4  1  0
  2  3  2  3
  3  5  1  0
  3 12  1  0
  6  7  1  0
  6 11  1  0
  6 13  1  0
  7  8  1  0
  7 14  1  0
  7 15  1  0
  8  9  1  0
  9 10  1  0
  9 16  1  0
  9 17  1  0
 10 11  1  0
 11 18  1  0
 11 19  1  0
M  RAD  1   6   2
M  END
>  <reaction>  (5) 
rmg_rxn_15420

>  <mol_properties>  (5) 
{"1": {"label": "*4", "atom_type": "N3d"}, "2": {"label": "*3", "atom_type": "Cd"}, "5": {"label": "*1", "atom_type": "Cs"}, "6": {"label": "*0", "atom_type": "Cs"}, "11": {"label": "*2", "atom_type": "H0"}}

>  <type>  (5) 
unop_1

>  <geom_source>  (5) 
crest_best.xyz

$$$$

     RDKit          3D

 19 18  0  0  0  0  0  0  0  0999 V2000
    0.4899   -3.2702    2.6446 O   0  0  0  0  0  0  0  0  0  0  0  0
    0.9691   -2.5853    1.5454 N   0  0  0  0  0  0  0  0  0  0  0  0
    0.0348   -2.1458    0.8190 C   0  0  0  0  0  0  0  0  0  0  0  0
    1.2880   -3.5441    3.1008 H   0  0  0  0  0  0  0  0  0  0  0  0
   -1.0154   -2.3029    1.0553 H   0  0  0  0  0  0  0  0  0  0  0  0
    0.3086    0.2832   -0.0930 C   0  0  0  0  0  3  0  0  0  0  0  0
    0.3086    0.2832   -1.6151 C   0  0  0  0  0  0  0  0  0  0  0  0
    0.3086    1.6096   -2.1072 O   0  0  0  0  0  0  0  0  0  0  0  0
   -0.7742    2.3339   -1.6079 C   0  0  0  0  0  0  0  0  0  0  0  0
   -0.7629    2.4402   -0.2168 O   0  0  0  0  0  0  0  0  0  0  0  0
   -0.8308    1.1665    0.3951 C   0  0  0  0  0  0  0  0  0  0  0  0
    0.1711   -0.9371    0.3652 H   0  0  0  0  0  0  0  0  0  0  0  0
    1.2580    0.6817    0.2700 H   0  0  0  0  0  0  0  0  0  0  0  0
    1.1944   -0.2023   -2.0224 H   0  0  0  0  0  0  0  0  0  0  0  0
   -0.5789   -0.2480   -1.9918 H   0  0  0  0  0  0  0  0  0  0  0  0
   -1.7167    1.8558   -1.9321 H   0  0  0  0  0  0  0  0  0  0  0  0
   -0.7019    3.3420   -2.0098 H   0  0  0  0  0  0  0  0  0  0  0  0
   -1.7984    0.6973    0.1598 H   0  0  0  0  0  0  0  0  0  0  0  0
   -0.7855    1.3325    1.4705 H   0  0  0  0  0  0  0  0  0  0  0  0
  1  2  1  0
  1  4  1  0
  2  3  2  3
  3  5  1  0
  3 12  1  0
  6  7  1  0
  6 11  1  0
  6 13  1  0
  7  8  1  0
  7 14  1  0
  7 15  1  0
  8  9  1  0
  9 10  1  0
  9 16  1  0
  9 17  1  0
 10 11  1  0
 11 18  1  0
 11 19  1  0
M  RAD  1   6   2
M  END
>  <reaction>  (6) 
rmg_rxn_15420

>  <mol_properties>  (6) 
{"1": {"label": "*4", "atom_type": "N3d"}, "2": {"label": "*3", "atom_type": "Cd"}, "5": {"label": "*1", "atom_type": "Cs"}, "6": {"label": "*0", "atom_type": "Cs"}, "11": {"label": "*2", "atom_type": "H0"}}

>  <type>  (6) 
unop_2

>  <geom_source>  (6) 
Heuristics

$$$$

     RDKit          3D

 19 18  0  0  0  0  0  0  0  0999 V2000
    3.9615   -0.0449    0.4137 O   0  0  0  0  0  0  0  0  0  0  0  0
    2.7193   -0.0430   -0.2461 N   0  0  0  0  0  0  0  0  0  0  0  0
    1.6822    0.2770    0.3404 C   0  0  0  0  0  0  0  0  0  0  0  0
    4.5934   -0.3328   -0.2600 H   0  0  0  0  0  0  0  0  0  0  0  0
    1.4983    0.5851    1.3599 H   0  0  0  0  0  0  0  0  0  0  0  0
   -0.4756    0.1336   -1.1535 C   0  0  0  0  0  3  0  0  0  0  0  0
   -1.1066   -1.2025   -0.8253 C   0  0  0  0  0  0  0  0  0  0  0  0
   -1.5330   -1.2423    0.5251 O   0  0  0  0  0  0  0  0  0  0  0  0
   -2.3752   -0.1717    0.8233 C   0  0  0  0  0  0  0  0  0  0  0  0
   -1.7713    1.0740    0.6528 O   0  0  0  0  0  0  0  0  0  0  0  0
   -1.3637    1.2684   -0.6901 C   0  0  0  0  0  0  0  0  0  0  0  0
    0.6197    0.2082   -0.4210 H   0  0  0  0  0  0  0  0  0  0  0  0
   -0.1623    0.2217   -2.1888 H   0  0  0  0  0  0  0  0  0  0  0  0
   -1.9761   -1.3851   -1.4859 H   0  0  0  0  0  0  0  0  0  0  0  0
   -0.3988   -2.0252   -0.9431 H   0  0  0  0  0  0  0  0  0  0  0  0
   -2.6349   -0.2566    1.8803 H   0  0  0  0  0  0  0  0  0  0  0  0
   -3.2932   -0.2311    0.1989 H   0  0  0  0  0  0  0  0  0  0  0  0
   -0.8441    2.2285   -0.7123 H   0  0  0  0  0  0  0  0  0  0  0  0
   -2.2607    1.3374   -1.3353 H   0  0  0  0  0  0  0  0  0  0  0  0
  1  2  1  0
  1  4  1  0
  2  3  2  3
  3  5  1  0
  3 12  1  0
  6  7  1  0
  6 11  1  0
  6 13  1  0
  7  8  1  0
  7 14  1  0
  7 15  1  0
  8  9  1  0
  9 10  1  0
  9 16  1  0
  9 17  1  0
 10 11  1  0
 11 18  1  0
 11 19  1  0
M  RAD  1   6   2
M  END
>  <reaction>  (7) 
rmg_rxn_15420

>  <mol_properties>  (7) 
{"1": {"label": "*4", "atom_type": "N3d"}, "2": {"label": "*3", "atom_type": "Cd"}, "5": {"label": "*1", "atom_type": "Cs"}, "6": {"label": "*0", "atom_type": "Cs"}, "11": {"label": "*2", "atom_type": "H0"}}

>  <type>  (7) 
unop_3

>  <geom_source>  (7) 
Heuristics

$$$$

     RDKit          3D

 19 18  0  0  0  0  0  0  0  0999 V2000
    0.6913   -4.0648    1.2059 O   0  0  0  0  0  0  0  0  0  0  0  0
    0.5224   -2.8950    0.4917 N   0  0  0  0  0  0  0  0  0  0  0  0
    0.0591   -1.9661    1.2100 C   0  0  0  0  0  0  0  0  0  0  0  0
    1.0417   -4.6745    0.5536 H   0  0  0  0  0  0  0  0  0  0  0  0
   -0.1709   -2.0994    2.2649 H   0  0  0  0  0  0  0  0  0  0  0  0
    0.3329    0.4629    0.2979 C   0  0  0  0  0  3  0  0  0  0  0  0
    0.3329    0.4629   -1.2241 C   0  0  0  0  0  0  0  0  0  0  0  0
    0.3329    1.7893   -1.7162 O   0  0  0  0  0  0  0  0  0  0  0  0
   -0.7499    2.5136   -1.2169 C   0  0  0  0  0  0  0  0  0  0  0  0
   -0.7386    2.6199    0.1741 O   0  0  0  0  0  0  0  0  0  0  0  0
   -0.8065    1.3462    0.7860 C   0  0  0  0  0  0  0  0  0  0  0  0
    0.1954   -0.7574    0.7562 H   0  0  0  0  0  0  0  0  0  0  0  0
    1.2823    0.8614    0.6609 H   0  0  0  0  0  0  0  0  0  0  0  0
    1.2187   -0.0226   -1.6315 H   0  0  0  0  0  0  0  0  0  0  0  0
   -0.5546   -0.0683   -1.6008 H   0  0  0  0  0  0  0  0  0  0  0  0
   -1.6925    2.0355   -1.5411 H   0  0  0  0  0  0  0  0  0  0  0  0
   -0.6776    3.5217   -1.6189 H   0  0  0  0  0  0  0  0  0  0  0  0
   -1.7742    0.8770    0.5507 H   0  0  0  0  0  0  0  0  0  0  0  0
   -0.7612    1.5122    1.8615 H   0  0  0  0  0  0  0  0  0  0  0  0
  1  2  1  0
  1  4  1  0
  2  3  2  3
  3  5  1  0
  3 12  1  0
  6  7  1  0
  6 11  1  0
  6 13  1  0
  7  8  1  0
  7 14  1  0
  7 15  1  0
  8  9  1  0
  9 10  1  0
  9 16  1  0
  9 17  1  0
 10 11  1  0
 11 18  1  0
 11 19  1  0
M  RAD  1   6   2
M  END
>  <reaction>  (8) 
rmg_rxn_15420

>  <mol_properties>  (8) 
{"1": {"label": "*4", "atom_type": "N3d"}, "2": {"label": "*3", "atom_type": "Cd"}, "5": {"label": "*1", "atom_type": "Cs"}, "6": {"label": "*0", "atom_type": "Cs"}, "11": {"label": "*2", "atom_type": "H0"}}

>  <type>  (8) 
unop_4

>  <geom_source>  (8) 
Heuristics

$$$$

     RDKit          3D

 19 18  0  0  0  0  0  0  0  0999 V2000
   -0.0210   -3.3349    2.6180 O   0  0  0  0  0  0  0  0  0  0  0  0
    0.6996   -2.4078    1.8911 N   0  0  0  0  0  0  0  0  0  0  0  0
    0.1597   -2.1581    0.7777 C   0  0  0  0  0  0  0  0  0  0  0  0
    0.4897   -3.4305    3.4242 H   0  0  0  0  0  0  0  0  0  0  0  0
   -0.7645   -2.6322    0.4544 H   0  0  0  0  0  0  0  0  0  0  0  0
    0.4335    0.2709   -0.1344 C   0  0  0  0  0  3  0  0  0  0  0  0
    0.4335    0.2709   -1.6564 C   0  0  0  0  0  0  0  0  0  0  0  0
    0.4335    1.5973   -2.1485 O   0  0  0  0  0  0  0  0  0  0  0  0
   -0.6493    2.3216   -1.6492 C   0  0  0  0  0  0  0  0  0  0  0  0
   -0.6380    2.4279   -0.2581 O   0  0  0  0  0  0  0  0  0  0  0  0
   -0.7059    1.1541    0.3537 C   0  0  0  0  0  0  0  0  0  0  0  0
    0.2960   -0.9495    0.3239 H   0  0  0  0  0  0  0  0  0  0  0  0
    1.3829    0.6694    0.2286 H   0  0  0  0  0  0  0  0  0  0  0  0
    1.3193   -0.2146   -2.0637 H   0  0  0  0  0  0  0  0  0  0  0  0
   -0.4540   -0.2604   -2.0331 H   0  0  0  0  0  0  0  0  0  0  0  0
   -1.5918    1.8435   -1.9734 H   0  0  0  0  0  0  0  0  0  0  0  0
   -0.5770    3.3297   -2.0512 H   0  0  0  0  0  0  0  0  0  0  0  0
   -1.6735    0.6850    0.1184 H   0  0  0  0  0  0  0  0  0  0  0  0
   -0.6606    1.3201    1.4292 H   0  0  0  0  0  0  0  0  0  0  0  0
  1  2  1  0
  1  4  1  0
  2  3  2  3
  3  5  1  0
  3 12  1  0
  6  7  1  0
  6 11  1  0
  6 13  1  0
  7  8  1  0
  7 14  1  0
  7 15  1  0
  8  9  1  0
  9 10  1  0
  9 16  1  0
  9 17  1  0
 10 11  1  0
 11 18  1  0
 11 19  1  0
M  RAD  1   6   2
M  END
>  <reaction>  (9) 
rmg_rxn_15420

>  <mol_properties>  (9) 
{"1": {"label": "*4", "atom_type": "N3d"}, "2": {"label": "*3", "atom_type": "Cd"}, "5": {"label": "*1", "atom_type": "Cs"}, "6": {"label": "*0", "atom_type": "Cs"}, "11": {"label": "*2", "atom_type": "H0"}}

>  <type>  (9) 
unop_5

>  <geom_source>  (9) 
Heuristics

$$$$

     RDKit          3D

 19 18  0  0  0  0  0  0  0  0999 V2000
   -0.9780   -3.5674    1.7347 O   0  0  0  0  0  0  0  0  0  0  0  0
   -0.5589   -2.6924    0.7520 N   0  0  0  0  0  0  0  0  0  0  0  0
    0.4939   -2.0797    1.0832 C   0  0  0  0  0  0  0  0  0  0  0  0
   -1.7703   -3.9580    1.3610 H   0  0  0  0  0  0  0  0  0  0  0  0
    0.9915   -2.2417    2.0371 H   0  0  0  0  0  0  0  0  0  0  0  0
    0.7677    0.3493    0.1711 C   0  0  0  0  0  3  0  0  0  0  0  0
    0.7677    0.3493   -1.3509 C   0  0  0  0  0  0  0  0  0  0  0  0
    0.7677    1.6756   -1.8430 O   0  0  0  0  0  0  0  0  0  0  0  0
   -0.3151    2.4000   -1.3437 C   0  0  0  0  0  0  0  0  0  0  0  0
   -0.3038    2.5062    0.0473 O   0  0  0  0  0  0  0  0  0  0  0  0
   -0.3717    1.2325    0.6592 C   0  0  0  0  0  0  0  0  0  0  0  0
    0.6302   -0.8711    0.6294 H   0  0  0  0  0  0  0  0  0  0  0  0
    1.7171    0.7478    0.5341 H   0  0  0  0  0  0  0  0  0  0  0  0
    1.6535   -0.1362   -1.7583 H   0  0  0  0  0  0  0  0  0  0  0  0
   -0.1198   -0.1820   -1.7276 H   0  0  0  0  0  0  0  0  0  0  0  0
   -1.2576    1.9219   -1.6679 H   0  0  0  0  0  0  0  0  0  0  0  0
   -0.2428    3.4081   -1.7457 H   0  0  0  0  0  0  0  0  0  0  0  0
   -1.3393    0.7634    0.4239 H   0  0  0  0  0  0  0  0  0  0  0  0
   -0.3264    1.3985    1.7347 H   0  0  0  0  0  0  0  0  0  0  0  0
  1  2  1  0
  1  4  1  0
  2  3  2  3
  3  5  1  0
  3 12  1  0
  6  7  1  0
  6 11  1  0
  6 13  1  0
  7  8  1  0
  7 14  1  0
  7 15  1  0
  8  9  1  0
  9 10  1  0
  9 16  1  0
  9 17  1  0
 10 11  1  0
 11 18  1  0
 11 19  1  0
M  RAD  1   6   2
M  END
>  <reaction>  (10) 
rmg_rxn_15420

>  <mol_properties>  (10) 
{"1": {"label": "*4", "atom_type": "N3d"}, "2": {"label": "*3", "atom_type": "Cd"}, "5": {"label": "*1", "atom_type": "Cs"}, "6": {"label": "*0", "atom_type": "Cs"}, "11": {"label": "*2", "atom_type": "H0"}}

>  <type>  (10) 
unop_6

>  <geom_source>  (10) 
Heuristics

$$$$

     RDKit          3D

 19 18  0  0  0  0  0  0  0  0999 V2000
    2.0422    1.1040    0.1680 O   0  0  0  0  0  0  0  0  0  0  0  0
    2.5215   -0.1453    0.2537 N   0  0  0  0  0  0  0  0  0  0  0  0
    1.8861   -1.1809    0.0079 C   0  0  0  0  0  0  0  0  0  0  0  0
    1.0879    1.1379   -0.0920 H   0  0  0  0  0  0  0  0  0  0  0  0
    2.3840   -2.1279    0.1189 H   0  0  0  0  0  0  0  0  0  0  0  0
   -0.6553   -1.2348   -0.7182 C   0  0  0  0  0  3  0  0  0  0  0  0
   -1.4597   -1.2169    0.5664 C   0  0  0  0  0  0  0  0  0  0  0  0
   -1.2216   -0.0141    1.2846 O   0  0  0  0  0  0  0  0  0  0  0  0
   -1.4836    1.1032    0.5020 C   0  0  0  0  0  0  0  0  0  0  0  0
   -0.6722    1.1721   -0.6402 O   0  0  0  0  0  0  0  0  0  0  0  0
   -0.8913    0.0481   -1.4875 C   0  0  0  0  0  0  0  0  0  0  0  0
    0.6228   -1.2299   -0.3645 H   0  0  0  0  0  0  0  0  0  0  0  0
   -0.8243   -2.1261   -1.3148 H   0  0  0  0  0  0  0  0  0  0  0  0
   -2.5416   -1.3001    0.3519 H   0  0  0  0  0  0  0  0  0  0  0  0
   -1.1718   -2.0271    1.2386 H   0  0  0  0  0  0  0  0  0  0  0  0
   -1.2547    1.9828    1.1071 H   0  0  0  0  0  0  0  0  0  0  0  0
   -2.5484    1.1173    0.1930 H   0  0  0  0  0  0  0  0  0  0  0  0
   -0.1993    0.1609   -2.3250 H   0  0  0  0  0  0  0  0  0  0  0  0
   -1.9246    0.0944   -1.8743 H   0  0  0  0  0  0  0  0  0  0  0  0
  1  2  1  0
  1  4  1  0
  2  3  2  3
  3  5  1  0
  3 12  1  0
  6  7  1  0
  6 11  1  0
  6 13  1  0
  7  8  1  0
  7 14  1  0
  7 15  1  0
  8  9  1  0
  9 10  1  0
  9 16  1  0
  9 17  1  0
 10 11  1  0
 11 18  1  0
 11 19  1  0
M  RAD  1   6   2
M  END
>  <reaction>  (11) 
rmg_rxn_15420

>  <mol_properties>  (11) 
{"1": {"label": "*4", "atom_type": "N3d"}, "2": {"label": "*3", "atom_type": "Cd"}, "5": {"label": "*1", "atom_type": "Cs"}, "6": {"label": "*0", "atom_type": "Cs"}, "11": {"label": "*2", "atom_type": "H0"}}

>  <type>  (11) 
unop_7

>  <geom_source>  (11) 
Heuristics

$$$$

     RDKit          3D

 19 18  0  0  0  0  0  0  0  0999 V2000
    0.0500   -3.5871    2.4228 O   0  0  0  0  0  0  0  0  0  0  0  0
    0.1989   -2.2668    2.0462 N   0  0  0  0  0  0  0  0  0  0  0  0
    0.2140   -2.1329    0.7911 C   0  0  0  0  0  0  0  0  0  0  0  0
    0.0546   -3.5465    3.3812 H   0  0  0  0  0  0  0  0  0  0  0  0
    0.1189   -2.9759    0.1100 H   0  0  0  0  0  0  0  0  0  0  0  0
    0.4877    0.2961   -0.1210 C   0  0  0  0  0  3  0  0  0  0  0  0
    0.4877    0.2961   -1.6430 C   0  0  0  0  0  0  0  0  0  0  0  0
    0.4877    1.6225   -2.1351 O   0  0  0  0  0  0  0  0  0  0  0  0
   -0.5950    2.3468   -1.6358 C   0  0  0  0  0  0  0  0  0  0  0  0
   -0.5838    2.4531   -0.2448 O   0  0  0  0  0  0  0  0  0  0  0  0
   -0.6517    1.1794    0.3671 C   0  0  0  0  0  0  0  0  0  0  0  0
    0.3502   -0.9243    0.3373 H   0  0  0  0  0  0  0  0  0  0  0  0
    1.4371    0.6946    0.2420 H   0  0  0  0  0  0  0  0  0  0  0  0
    1.3735   -0.1894   -2.0504 H   0  0  0  0  0  0  0  0  0  0  0  0
   -0.3998   -0.2351   -2.0197 H   0  0  0  0  0  0  0  0  0  0  0  0
   -1.5376    1.8687   -1.9600 H   0  0  0  0  0  0  0  0  0  0  0  0
   -0.5228    3.3549   -2.0378 H   0  0  0  0  0  0  0  0  0  0  0  0
   -1.6193    0.7102    0.1318 H   0  0  0  0  0  0  0  0  0  0  0  0
   -0.6064    1.3454    1.4426 H   0  0  0  0  0  0  0  0  0  0  0  0
  1  2  1  0
  1  4  1  0
  2  3  2  3
  3  5  1  0
  3 12  1  0
  6  7  1  0
  6 11  1  0
  6 13  1  0
  7  8  1  0
  7 14  1  0
  7 15  1  0
  8  9  1  0
  9 10  1  0
  9 16  1  0
  9 17  1  0
 10 11  1  0
 11 18  1  0
 11 19  1  0
M  RAD  1   6   2
M  END
>  <reaction>  (12) 
rmg_rxn_15420

>  <mol_properties>  (12) 
{"1": {"label": "*4", "atom_type": "N3d"}, "2": {"label": "*3", "atom_type": "Cd"}, "5": {"label": "*1", "atom_type": "Cs"}, "6": {"label": "*0", "atom_type": "Cs"}, "11": {"label": "*2", "atom_type": "H0"}}

>  <type>  (12) 
unop_8

>  <geom_source>  (12) 
Heuristics

$$$$

     RDKit          3D

 19 18  0  0  0  0  0  0  0  0999 V2000
    2.0427   -1.1036    0.1679 O   0  0  0  0  0  0  0  0  0  0  0  0
    2.5215    0.1459    0.2538 N   0  0  0  0  0  0  0  0  0  0  0  0
    1.8857    1.1813    0.0084 C   0  0  0  0  0  0  0  0  0  0  0  0
    1.0885   -1.1379   -0.0923 H   0  0  0  0  0  0  0  0  0  0  0  0
    2.3830    2.1285    0.1195 H   0  0  0  0  0  0  0  0  0  0  0  0
   -0.6554    1.2344   -0.7187 C   0  0  0  0  0  3  0  0  0  0  0  0
   -0.8910   -0.0489   -1.4875 C   0  0  0  0  0  0  0  0  0  0  0  0
   -0.6716   -1.1725   -0.6396 O   0  0  0  0  0  0  0  0  0  0  0  0
   -1.4832   -1.1033    0.5025 C   0  0  0  0  0  0  0  0  0  0  0  0
   -1.2220    0.0147    1.2844 O   0  0  0  0  0  0  0  0  0  0  0  0
   -1.4605    1.2168    0.5654 C   0  0  0  0  0  0  0  0  0  0  0  0
    0.6224    1.2298   -0.3643 H   0  0  0  0  0  0  0  0  0  0  0  0
   -0.8243    2.1254   -1.3159 H   0  0  0  0  0  0  0  0  0  0  0  0
   -1.9243   -0.0957   -1.8743 H   0  0  0  0  0  0  0  0  0  0  0  0
   -0.1989   -0.1620   -2.3249 H   0  0  0  0  0  0  0  0  0  0  0  0
   -1.2536   -1.9824    1.1082 H   0  0  0  0  0  0  0  0  0  0  0  0
   -2.5479   -1.1185    0.1934 H   0  0  0  0  0  0  0  0  0  0  0  0
   -1.1736    2.0276    1.2373 H   0  0  0  0  0  0  0  0  0  0  0  0
   -2.5424    1.2992    0.3502 H   0  0  0  0  0  0  0  0  0  0  0  0
  1  2  1  0
  1  4  1  0
  2  3  2  3
  3  5  1  0
  3 12  1  0
  6  7  1  0
  6 11  1  0
  6 13  1  0
  7  8  1  0
  7 14  1  0
  7 15  1  0
  8  9  1  0
  9 10  1  0
  9 16  1  0
  9 17  1  0
 10 11  1  0
 11 18  1  0
 11 19  1  0
M  RAD  1   6   2
M  END
>  <reaction>  (13) 
rmg_rxn_15420

>  <mol_properties>  (13) 
{"1": {"label": "*4", "atom_type": "N3d"}, "2": {"label": "*3", "atom_type": "Cd"}, "5": {"label": "*1", "atom_type": "Cs"}, "6": {"label": "*0", "atom_type": "Cs"}, "11": {"label": "*2", "atom_type": "H0"}}

>  <type>  (13) 
unop_9

>  <geom_source>  (13) 
Heuristics

$$$$

     RDKit          3D

 19 18  0  0  0  0  0  0  0  0999 V2000
   -0.8079   -3.2785    2.2992 O   0  0  0  0  0  0  0  0  0  0  0  0
   -0.6982   -2.5488    1.1318 N   0  0  0  0  0  0  0  0  0  0  0  0
    0.4828   -2.1492    0.9343 C   0  0  0  0  0  0  0  0  0  0  0  0
   -1.7370   -3.5155    2.3263 H   0  0  0  0  0  0  0  0  0  0  0  0
    1.2987   -2.3685    1.6197 H   0  0  0  0  0  0  0  0  0  0  0  0
    0.7566    0.2798    0.0222 C   0  0  0  0  0  3  0  0  0  0  0  0
    0.7566    0.2798   -1.4998 C   0  0  0  0  0  0  0  0  0  0  0  0
    0.7566    1.6062   -1.9919 O   0  0  0  0  0  0  0  0  0  0  0  0
   -0.3262    2.3305   -1.4926 C   0  0  0  0  0  0  0  0  0  0  0  0
   -0.3149    2.4368   -0.1016 O   0  0  0  0  0  0  0  0  0  0  0  0
   -0.3828    1.1630    0.5103 C   0  0  0  0  0  0  0  0  0  0  0  0
    0.6191   -0.9406    0.4804 H   0  0  0  0  0  0  0  0  0  0  0  0
    1.7060    0.6783    0.3852 H   0  0  0  0  0  0  0  0  0  0  0  0
    1.6424   -0.2057   -1.9072 H   0  0  0  0  0  0  0  0  0  0  0  0
   -0.1309   -0.2514   -1.8766 H   0  0  0  0  0  0  0  0  0  0  0  0
   -1.2688    1.8524   -1.8168 H   0  0  0  0  0  0  0  0  0  0  0  0
   -0.2539    3.3386   -1.8946 H   0  0  0  0  0  0  0  0  0  0  0  0
   -1.3505    0.6939    0.2750 H   0  0  0  0  0  0  0  0  0  0  0  0
   -0.3375    1.3291    1.5858 H   0  0  0  0  0  0  0  0  0  0  0  0
  1  2  1  0
  1  4  1  0
  2  3  2  3
  3  5  1  0
  3 12  1  0
  6  7  1  0
  6 11  1  0
  6 13  1  0
  7  8  1  0
  7 14  1  0
  7 15  1  0
  8  9  1  0
  9 10  1  0
  9 16  1  0
  9 17  1  0
 10 11  1  0
 11 18  1  0
 11 19  1  0
M  RAD  1   6   2
M  END
>  <reaction>  (14) 
rmg_rxn_15420

>  <mol_properties>  (14) 
{"1": {"label": "*4", "atom_type": "N3d"}, "2": {"label": "*3", "atom_type": "Cd"}, "5": {"label": "*1", "atom_type": "Cs"}, "6": {"label": "*0", "atom_type": "Cs"}, "11": {"label": "*2", "atom_type": "H0"}}

>  <type>  (14) 
unop_10

>  <geom_source>  (14) 
Heuristics

$$$$

     RDKit          3D

 19 18  0  0  0  0  0  0  0  0999 V2000
    3.9633    0.0442    0.4130 O   0  0  0  0  0  0  0  0  0  0  0  0
    2.7204    0.0433   -0.2456 N   0  0  0  0  0  0  0  0  0  0  0  0
    1.6834   -0.2747    0.3420 C   0  0  0  0  0  0  0  0  0  0  0  0
    4.5949    0.3305   -0.2615 H   0  0  0  0  0  0  0  0  0  0  0  0
    1.4997   -0.5814    1.3621 H   0  0  0  0  0  0  0  0  0  0  0  0
   -0.4742   -0.1312   -1.1522 C   0  0  0  0  0  3  0  0  0  0  0  0
   -1.3614   -1.2678   -0.6915 C   0  0  0  0  0  0  0  0  0  0  0  0
   -1.7719   -1.0756    0.6507 O   0  0  0  0  0  0  0  0  0  0  0  0
   -2.3779    0.1691    0.8214 C   0  0  0  0  0  0  0  0  0  0  0  0
   -1.5365    1.2411    0.5263 O   0  0  0  0  0  0  0  0  0  0  0  0
   -1.1074    1.2036   -0.8233 C   0  0  0  0  0  0  0  0  0  0  0  0
    0.6205   -0.2050   -0.4188 H   0  0  0  0  0  0  0  0  0  0  0  0
   -0.1594   -0.2176   -2.1871 H   0  0  0  0  0  0  0  0  0  0  0  0
   -2.2571   -1.3376   -1.3385 H   0  0  0  0  0  0  0  0  0  0  0  0
   -0.8403   -2.2271   -0.7138 H   0  0  0  0  0  0  0  0  0  0  0  0
   -2.6401    0.2525    1.8779 H   0  0  0  0  0  0  0  0  0  0  0  0
   -3.2946    0.2280    0.1950 H   0  0  0  0  0  0  0  0  0  0  0  0
   -0.4004    2.0274   -0.9386 H   0  0  0  0  0  0  0  0  0  0  0  0
   -1.9758    1.3860   -1.4852 H   0  0  0  0  0  0  0  0  0  0  0  0
  1  2  1  0
  1  4  1  0
  2  3  2  3
  3  5  1  0
  3 12  1  0
  6  7  1  0
  6 11  1  0
  6 13  1  0
  7  8  1  0
  7 14  1  0
  7 15  1  0
  8  9  1  0
  9 10  1  0
  9 16  1  0
  9 17  1  0
 10 11  1  0
 11 18  1  0
 11 19  1  0
M  RAD  1   6   2
M  END
>  <reaction>  (15) 
rmg_rxn_15420

>  <mol_properties>  (15) 
{"1": {"label": "*4", "atom_type": "N3d"}, "2": {"label": "*3", "atom_type": "Cd"}, "5": {"label": "*1", "atom_type": "Cs"}, "6": {"label": "*0", "atom_type": "Cs"}, "11": {"label": "*2", "atom_type": "H0"}}

>  <type>  (15) 
unop_11

>  <geom_source>  (15) 
Heuristics

$$$$

     RDKit          3D

 19 18  0  0  0  0  0  0  0  0999 V2000
   -0.3082   -3.1803    2.6446 O   0  0  0  0  0  0  0  0  0  0  0  0
   -0.6229   -2.4059    1.5454 N   0  0  0  0  0  0  0  0  0  0  0  0
    0.3857   -2.1853    0.8190 C   0  0  0  0  0  0  0  0  0  0  0  0
   -1.1473   -3.2696    3.1008 H   0  0  0  0  0  0  0  0  0  0  0  0
    1.3747   -2.5723    1.0553 H   0  0  0  0  0  0  0  0  0  0  0  0
    0.6595    0.2437   -0.0930 C   0  0  0  0  0  3  0  0  0  0  0  0
    0.6595    0.2437   -1.6151 C   0  0  0  0  0  0  0  0  0  0  0  0
    0.6595    1.5700   -2.1072 O   0  0  0  0  0  0  0  0  0  0  0  0
   -0.4233    2.2944   -1.6079 C   0  0  0  0  0  0  0  0  0  0  0  0
   -0.4120    2.4007   -0.2168 O   0  0  0  0  0  0  0  0  0  0  0  0
   -0.4799    1.1269    0.3951 C   0  0  0  0  0  0  0  0  0  0  0  0
    0.5219   -0.9767    0.3652 H   0  0  0  0  0  0  0  0  0  0  0  0
    1.6088    0.6422    0.2700 H   0  0  0  0  0  0  0  0  0  0  0  0
    1.5453   -0.2418   -2.0224 H   0  0  0  0  0  0  0  0  0  0  0  0
   -0.2280   -0.2876   -1.9918 H   0  0  0  0  0  0  0  0  0  0  0  0
   -1.3659    1.8163   -1.9321 H   0  0  0  0  0  0  0  0  0  0  0  0
   -0.3510    3.3025   -2.0098 H   0  0  0  0  0  0  0  0  0  0  0  0
   -1.4476    0.6578    0.1598 H   0  0  0  0  0  0  0  0  0  0  0  0
   -0.4346    1.2929    1.4705 H   0  0  0  0  0  0  0  0  0  0  0  0
  1  2  1  0
  1  4  1  0
  2  3  2  3
  3  5  1  0
  3 12  1  0
  6  7  1  0
  6 11  1  0
  6 13  1  0
  7  8  1  0
  7 14  1  0
  7 15  1  0
  8  9  1  0
  9 10  1  0
  9 16  1  0
  9 17  1  0
 10 11  1  0
 11 18  1  0
 11 19  1  0
M  RAD  1   6   2
M  END
>  <reaction>  (16) 
rmg_rxn_15420

>  <mol_properties>  (16) 
{"1": {"label": "*4", "atom_type": "N3d"}, "2": {"label": "*3", "atom_type": "Cd"}, "5": {"label": "*1", "atom_type": "Cs"}, "6": {"label": "*0", "atom_type": "Cs"}, "11": {"label": "*2", "atom_type": "H0"}}

>  <type>  (16) 
unop_12

>  <geom_source>  (16) 
Heuristics

$$$$

     RDKit          3D

 19 18  0  0  0  0  0  0  0  0999 V2000
    0.9552   -3.4772    2.2992 O   0  0  0  0  0  0  0  0  0  0  0  0
    1.0106   -2.7415    1.1318 N   0  0  0  0  0  0  0  0  0  0  0  0
   -0.0518   -2.0889    0.9343 C   0  0  0  0  0  0  0  0  0  0  0  0
    1.8081   -3.9151    2.3263 H   0  0  0  0  0  0  0  0  0  0  0  0
   -0.8960   -2.1211    1.6197 H   0  0  0  0  0  0  0  0  0  0  0  0
    0.2220    0.3401    0.0222 C   0  0  0  0  0  3  0  0  0  0  0  0
    0.2220    0.3401   -1.4998 C   0  0  0  0  0  0  0  0  0  0  0  0
    0.2220    1.6664   -1.9919 O   0  0  0  0  0  0  0  0  0  0  0  0
   -0.8608    2.3908   -1.4926 C   0  0  0  0  0  0  0  0  0  0  0  0
   -0.8495    2.4970   -0.1016 O   0  0  0  0  0  0  0  0  0  0  0  0
   -0.9174    1.2233    0.5103 C   0  0  0  0  0  0  0  0  0  0  0  0
    0.0844   -0.8803    0.4804 H   0  0  0  0  0  0  0  0  0  0  0  0
    1.1713    0.7386    0.3852 H   0  0  0  0  0  0  0  0  0  0  0  0
    1.1078   -0.1454   -1.9072 H   0  0  0  0  0  0  0  0  0  0  0  0
   -0.6655   -0.1912   -1.8766 H   0  0  0  0  0  0  0  0  0  0  0  0
   -1.8034    1.9127   -1.8168 H   0  0  0  0  0  0  0  0  0  0  0  0
   -0.7885    3.3989   -1.8946 H   0  0  0  0  0  0  0  0  0  0  0  0
   -1.8851    0.7542    0.2750 H   0  0  0  0  0  0  0  0  0  0  0  0
   -0.8721    1.3893    1.5858 H   0  0  0  0  0  0  0  0  0  0  0  0
  1  2  1  0
  1  4  1  0
  2  3  2  3
  3  5  1  0
  3 12  1  0
  6  7  1  0
  6 11  1  0
  6 13  1  0
  7  8  1  0
  7 14  1  0
  7 15  1  0
  8  9  1  0
  9 10  1  0
  9 16  1  0
  9 17  1  0
 10 11  1  0
 11 18  1  0
 11 19  1  0
M  RAD  1   6   2
M  END
>  <reaction>  (17) 
rmg_rxn_15420

>  <mol_properties>  (17) 
{"1": {"label": "*4", "atom_type": "N3d"}, "2": {"label": "*3", "atom_type": "Cd"}, "5": {"label": "*1", "atom_type": "Cs"}, "6": {"label": "*0", "atom_type": "Cs"}, "11": {"label": "*2", "atom_type": "H0"}}

>  <type>  (17) 
unop_13

>  <geom_source>  (17) 
Heuristics

$$$$

     RDKit          3D

 19 18  0  0  0  0  0  0  0  0999 V2000
    3.9562   -0.0507   -0.4149 O   0  0  0  0  0  0  0  0  0  0  0  0
    2.7142   -0.0433    0.2455 N   0  0  0  0  0  0  0  0  0  0  0  0
    1.6810    0.2982   -0.3355 C   0  0  0  0  0  0  0  0  0  0  0  0
    4.5846   -0.3562    0.2541 H   0  0  0  0  0  0  0  0  0  0  0  0
    1.5003    0.6233   -1.3504 H   0  0  0  0  0  0  0  0  0  0  0  0
   -0.4787    0.1490    1.1550 C   0  0  0  0  0  3  0  0  0  0  0  0
   -1.3761    1.2716    0.6801 C   0  0  0  0  0  0  0  0  0  0  0  0
   -1.7771    1.0633   -0.6626 O   0  0  0  0  0  0  0  0  0  0  0  0
   -2.3685   -0.1895   -0.8258 C   0  0  0  0  0  0  0  0  0  0  0  0
   -1.5173   -1.2497   -0.5164 O   0  0  0  0  0  0  0  0  0  0  0  0
   -1.0960   -1.1955    0.8352 C   0  0  0  0  0  0  0  0  0  0  0  0
    0.6176    0.2283    0.4246 H   0  0  0  0  0  0  0  0  0  0  0  0
   -0.1693    0.2481    2.1904 H   0  0  0  0  0  0  0  0  0  0  0  0
   -2.2760    1.3366    1.3216 H   0  0  0  0  0  0  0  0  0  0  0  0
   -0.8661    2.2369    0.6970 H   0  0  0  0  0  0  0  0  0  0  0  0
   -2.6235   -0.2849   -1.8830 H   0  0  0  0  0  0  0  0  0  0  0  0
   -3.2881   -0.2528   -0.2042 H   0  0  0  0  0  0  0  0  0  0  0  0
   -0.3808   -2.0105    0.9617 H   0  0  0  0  0  0  0  0  0  0  0  0
   -1.9661   -1.3812    1.4940 H   0  0  0  0  0  0  0  0  0  0  0  0
  1  2  1  0
  1  4  1  0
  2  3  2  3
  3  5  1  0
  3 12  1  0
  6  7  1  0
  6 11  1  0
  6 13  1  0
  7  8  1  0
  7 14  1  0
  7 15  1  0
  8  9  1  0
  9 10  1  0
  9 16  1  0
  9 17  1  0
 10 11  1  0
 11 18  1  0
 11 19  1  0
M  RAD  1   6   2
M  END
>  <reaction>  (18) 
rmg_rxn_15420

>  <mol_properties>  (18) 
{"1": {"label": "*4", "atom_type": "N3d"}, "2": {"label": "*3", "atom_type": "Cd"}, "5": {"label": "*1", "atom_type": "Cs"}, "6": {"label": "*0", "atom_type": "Cs"}, "11": {"label": "*2", "atom_type": "H0"}}

>  <type>  (18) 
unop_14

>  <geom_source>  (18) 
Heuristics

$$$$

     RDKit          3D

 19 18  0  0  0  0  0  0  0  0999 V2000
   -0.6815   -3.9100    1.2059 O   0  0  0  0  0  0  0  0  0  0  0  0
   -0.2564   -2.8072    0.4917 N   0  0  0  0  0  0  0  0  0  0  0  0
    0.4020   -2.0047    1.2100 C   0  0  0  0  0  0  0  0  0  0  0  0
   -1.1588   -4.4265    0.5536 H   0  0  0  0  0  0  0  0  0  0  0  0
    0.5966   -2.1859    2.2649 H   0  0  0  0  0  0  0  0  0  0  0  0
    0.6758    0.4243    0.2979 C   0  0  0  0  0  3  0  0  0  0  0  0
    0.6758    0.4243   -1.2241 C   0  0  0  0  0  0  0  0  0  0  0  0
    0.6758    1.7506   -1.7162 O   0  0  0  0  0  0  0  0  0  0  0  0
   -0.4070    2.4750   -1.2169 C   0  0  0  0  0  0  0  0  0  0  0  0
   -0.3957    2.5812    0.1741 O   0  0  0  0  0  0  0  0  0  0  0  0
   -0.4636    1.3075    0.7860 C   0  0  0  0  0  0  0  0  0  0  0  0
    0.5383   -0.7961    0.7562 H   0  0  0  0  0  0  0  0  0  0  0  0
    1.6252    0.8228    0.6609 H   0  0  0  0  0  0  0  0  0  0  0  0
    1.5616   -0.0612   -1.6315 H   0  0  0  0  0  0  0  0  0  0  0  0
   -0.2117   -0.1070   -1.6008 H   0  0  0  0  0  0  0  0  0  0  0  0
   -1.3496    1.9969   -1.5411 H   0  0  0  0  0  0  0  0  0  0  0  0
   -0.3347    3.4831   -1.6189 H   0  0  0  0  0  0  0  0  0  0  0  0
   -1.4313    0.8384    0.5507 H   0  0  0  0  0  0  0  0  0  0  0  0
   -0.4183    1.4735    1.8615 H   0  0  0  0  0  0  0  0  0  0  0  0
  1  2  1  0
  1  4  1  0
  2  3  2  3
  3  5  1  0
  3 12  1  0
  6  7  1  0
  6 11  1  0
  6 13  1  0
  7  8  1  0
  7 14  1  0
  7 15  1  0
  8  9  1  0
  9 10  1  0
  9 16  1  0
  9 17  1  0
 10 11  1  0
 11 18  1  0
 11 19  1  0
M  RAD  1   6   2
M  END
>  <reaction>  (19) 
rmg_rxn_15420

>  <mol_properties>  (19) 
{"1": {"label": "*4", "atom_type": "N3d"}, "2": {"label": "*3", "atom_type": "Cd"}, "5": {"label": "*1", "atom_type": "Cs"}, "6": {"label": "*0", "atom_type": "Cs"}, "11": {"label": "*2", "atom_type": "H0"}}

>  <type>  (19) 
unop_15

>  <geom_source>  (19) 
Heuristics

$$$$

     RDKit          3D

 19 18  0  0  0  0  0  0  0  0999 V2000
    1.0567   -3.7967    1.7347 O   0  0  0  0  0  0  0  0  0  0  0  0
    0.8428   -2.8504    0.7520 N   0  0  0  0  0  0  0  0  0  0  0  0
   -0.0472   -2.0187    1.0832 C   0  0  0  0  0  0  0  0  0  0  0  0
    1.7422   -4.3539    1.3610 H   0  0  0  0  0  0  0  0  0  0  0  0
   -0.5683   -2.0659    2.0371 H   0  0  0  0  0  0  0  0  0  0  0  0
    0.2266    0.4103    0.1711 C   0  0  0  0  0  3  0  0  0  0  0  0
    0.2266    0.4103   -1.3509 C   0  0  0  0  0  0  0  0  0  0  0  0
    0.2266    1.7366   -1.8430 O   0  0  0  0  0  0  0  0  0  0  0  0
   -0.8562    2.4610   -1.3437 C   0  0  0  0  0  0  0  0  0  0  0  0
   -0.8449    2.5672    0.0473 O   0  0  0  0  0  0  0  0  0  0  0  0
   -0.9128    1.2935    0.6592 C   0  0  0  0  0  0  0  0  0  0  0  0
    0.0891   -0.8101    0.6294 H   0  0  0  0  0  0  0  0  0  0  0  0
    1.1760    0.8088    0.5341 H   0  0  0  0  0  0  0  0  0  0  0  0
    1.1124   -0.0752   -1.7583 H   0  0  0  0  0  0  0  0  0  0  0  0
   -0.6609   -0.1210   -1.7276 H   0  0  0  0  0  0  0  0  0  0  0  0
   -1.7988    1.9829   -1.6679 H   0  0  0  0  0  0  0  0  0  0  0  0
   -0.7839    3.4691   -1.7457 H   0  0  0  0  0  0  0  0  0  0  0  0
   -1.8805    0.8244    0.4239 H   0  0  0  0  0  0  0  0  0  0  0  0
   -0.8675    1.4595    1.7347 H   0  0  0  0  0  0  0  0  0  0  0  0
  1  2  1  0
  1  4  1  0
  2  3  2  3
  3  5  1  0
  3 12  1  0
  6  7  1  0
  6 11  1  0
  6 13  1  0
  7  8  1  0
  7 14  1  0
  7 15  1  0
  8  9  1  0
  9 10  1  0
  9 16  1  0
  9 17  1  0
 10 11  1  0
 11 18  1  0
 11 19  1  0
M  RAD  1   6   2
M  END
>  <reaction>  (20) 
rmg_rxn_15420

>  <mol_properties>  (20) 
{"1": {"label": "*4", "atom_type": "N3d"}, "2": {"label": "*3", "atom_type": "Cd"}, "5": {"label": "*1", "atom_type": "Cs"}, "6": {"label": "*0", "atom_type": "Cs"}, "11": {"label": "*2", "atom_type": "H0"}}

>  <type>  (20) 
unop_16

>  <geom_source>  (20) 
Heuristics

$$$$

     RDKit          3D

 19 18  0  0  0  0  0  0  0  0999 V2000
    0.1754   -3.3571    2.6180 O   0  0  0  0  0  0  0  0  0  0  0  0
   -0.3207   -2.2928    1.8911 N   0  0  0  0  0  0  0  0  0  0  0  0
    0.2612   -2.1695    0.7777 C   0  0  0  0  0  0  0  0  0  0  0  0
   -0.3437   -3.3365    3.4242 H   0  0  0  0  0  0  0  0  0  0  0  0
    1.0567   -2.8375    0.4544 H   0  0  0  0  0  0  0  0  0  0  0  0
    0.5350    0.2595   -0.1344 C   0  0  0  0  0  3  0  0  0  0  0  0
    0.5350    0.2595   -1.6564 C   0  0  0  0  0  0  0  0  0  0  0  0
    0.5350    1.5858   -2.1485 O   0  0  0  0  0  0  0  0  0  0  0  0
   -0.5478    2.3102   -1.6492 C   0  0  0  0  0  0  0  0  0  0  0  0
   -0.5365    2.4164   -0.2581 O   0  0  0  0  0  0  0  0  0  0  0  0
   -0.6044    1.1427    0.3537 C   0  0  0  0  0  0  0  0  0  0  0  0
    0.3974   -0.9609    0.3239 H   0  0  0  0  0  0  0  0  0  0  0  0
    1.4843    0.6580    0.2286 H   0  0  0  0  0  0  0  0  0  0  0  0
    1.4207   -0.2260   -2.0637 H   0  0  0  0  0  0  0  0  0  0  0  0
   -0.3525   -0.2718   -2.0331 H   0  0  0  0  0  0  0  0  0  0  0  0
   -1.4904    1.8321   -1.9734 H   0  0  0  0  0  0  0  0  0  0  0  0
   -0.4755    3.3183   -2.0512 H   0  0  0  0  0  0  0  0  0  0  0  0
   -1.5721    0.6736    0.1184 H   0  0  0  0  0  0  0  0  0  0  0  0
   -0.5591    1.3087    1.4292 H   0  0  0  0  0  0  0  0  0  0  0  0
  1  2  1  0
  1  4  1  0
  2  3  2  3
  3  5  1  0
  3 12  1  0
  6  7  1  0
  6 11  1  0
  6 13  1  0
  7  8  1  0
  7 14  1  0
  7 15  1  0
  8  9  1  0
  9 10  1  0
  9 16  1  0
  9 17  1  0
 10 11  1  0
 11 18  1  0
 11 19  1  0
M  RAD  1   6   2
M  END
>  <reaction>  (21) 
rmg_rxn_15420

>  <mol_properties>  (21) 
{"1": {"label": "*4", "atom_type": "N3d"}, "2": {"label": "*3", "atom_type": "Cd"}, "5": {"label": "*1", "atom_type": "Cs"}, "6": {"label": "*0", "atom_type": "Cs"}, "11": {"label": "*2", "atom_type": "H0"}}

>  <type>  (21) 
unop_17

>  <geom_source>  (21) 
Heuristics

$$$$

     RDKit          3D

 19 18  0  0  0  0  0  0  0  0999 V2000
   -0.0100   -4.1198    0.9862 O   0  0  0  0  0  0  0  0  0  0  0  0
    0.1301   -2.8771    0.4004 N   0  0  0  0  0  0  0  0  0  0  0  0
    0.2336   -1.9589    1.2604 C   0  0  0  0  0  0  0  0  0  0  0  0
   -0.0769   -4.7129    0.2353 H   0  0  0  0  0  0  0  0  0  0  0  0
    0.2118   -2.1524    2.3308 H   0  0  0  0  0  0  0  0  0  0  0  0
    0.5074    0.4701    0.3484 C   0  0  0  0  0  3  0  0  0  0  0  0
    0.5074    0.4701   -1.1737 C   0  0  0  0  0  0  0  0  0  0  0  0
    0.5074    1.7965   -1.6658 O   0  0  0  0  0  0  0  0  0  0  0  0
   -0.5754    2.5208   -1.1665 C   0  0  0  0  0  0  0  0  0  0  0  0
   -0.5641    2.6271    0.2246 O   0  0  0  0  0  0  0  0  0  0  0  0
   -0.6320    1.3534    0.8365 C   0  0  0  0  0  0  0  0  0  0  0  0
    0.3698   -0.7502    0.8066 H   0  0  0  0  0  0  0  0  0  0  0  0
    1.4567    0.8686    0.7114 H   0  0  0  0  0  0  0  0  0  0  0  0
    1.3931   -0.0154   -1.5810 H   0  0  0  0  0  0  0  0  0  0  0  0
   -0.3801   -0.0611   -1.5504 H   0  0  0  0  0  0  0  0  0  0  0  0
   -1.5180    2.0427   -1.4907 H   0  0  0  0  0  0  0  0  0  0  0  0
   -0.5032    3.5290   -1.5684 H   0  0  0  0  0  0  0  0  0  0  0  0
   -1.5997    0.8843    0.6012 H   0  0  0  0  0  0  0  0  0  0  0  0
   -0.5868    1.5194    1.9119 H   0  0  0  0  0  0  0  0  0  0  0  0
  1  2  1  0
  1  4  1  0
  2  3  2  3
  3  5  1  0
  3 12  1  0
  6  7  1  0
  6 11  1  0
  6 13  1  0
  7  8  1  0
  7 14  1  0
  7 15  1  0
  8  9  1  0
  9 10  1  0
  9 16  1  0
  9 17  1  0
 10 11  1  0
 11 18  1  0
 11 19  1  0
M  RAD  1   6   2
M  END
>  <reaction>  (22) 
rmg_rxn_15420

>  <mol_properties>  (22) 
{"1": {"label": "*4", "atom_type": "N3d"}, "2": {"label": "*3", "atom_type": "Cd"}, "5": {"label": "*1", "atom_type": "Cs"}, "6": {"label": "*0", "atom_type": "Cs"}, "11": {"label": "*2", "atom_type": "H0"}}

>  <type>  (22) 
unop_18

>  <geom_source>  (22) 
Heuristics

$$$$

     RDKit          3D

 19 18  0  0  0  0  0  0  0  0999 V2000
   -1.6057    1.5896   -0.3262 O   0  0  0  0  0  0  0  0  0  0  0  0
   -2.0413   -0.7391    0.0489 O   0  0  0  0  0  0  0  0  0  0  0  0
    3.5298    0.3825    0.4071 O   0  0  0  0  0  0  0  0  0  0  0  0
    3.3413   -0.9303    0.0312 N   0  0  0  0  0  0  0  0  0  0  0  0
   -0.5932    1.3640    0.6297 C   0  0  0  0  0  0  0  0  0  0  0  0
   -0.7273   -0.8741   -0.4465 C   0  0  0  0  0  0  0  0  0  0  0  0
   -2.5698    0.5414   -0.2849 C   0  0  0  0  0  0  0  0  0  0  0  0
    0.1992    0.1129    0.2595 C   0  0  0  0  0  3  0  0  0  0  0  0
    2.1941   -1.3589   -0.3864 C   0  0  0  0  0  0  0  0  0  0  0  0
    0.0974    2.2322    0.6380 H   0  0  0  0  0  0  0  0  0  0  0  0
   -1.0301    1.2679    1.6507 H   0  0  0  0  0  0  0  0  0  0  0  0
   -0.6997   -0.7014   -1.5464 H   0  0  0  0  0  0  0  0  0  0  0  0
   -0.3732   -1.9102   -0.2624 H   0  0  0  0  0  0  0  0  0  0  0  0
   -3.3546    0.8045    0.4557 H   0  0  0  0  0  0  0  0  0  0  0  0
   -3.0658    0.4773   -1.2766 H   0  0  0  0  0  0  0  0  0  0  0  0
    0.6376   -0.3391    1.1756 H   0  0  0  0  0  0  0  0  0  0  0  0
    2.0799   -2.3951   -0.6736 H   0  0  0  0  0  0  0  0  0  0  0  0
    1.2063   -0.5831   -0.4629 H   0  0  0  0  0  0  0  0  0  0  0  0
    2.7752    1.0589    0.3693 H   0  0  0  0  0  0  0  0  0  0  0  0
  1  5  1  0
  1  7  1  0
  2  6  1  0
  2  7  1  0
  3  4  1  0
  3 19  1  0
  4  9  2  3
  5  8  1  0
  5 10  1  0
  5 11  1  0
  6  8  1  0
  6 12  1  0
  6 13  1  0
  7 14  1  0
  7 15  1  0
  8 16  1  0
  9 17  1  0
  9 18  1  0
M  RAD  1   8   2
M  END
>  <reaction>  (23) 
rmg_rxn_15420

>  <mol_properties>  (23) 
{"1": {"label": "*4", "atom_type": "N3d"}, "2": {"label": "*3", "atom_type": "Cd"}, "5": {"label": "*1", "atom_type": "Cs"}, "6": {"label": "*0", "atom_type": "Cs"}, "11": {"label": "*2", "atom_type": "H0"}}

>  <type>  (23) 
unop_19

>  <geom_source>  (23) 
AutoTST

$$$$

     RDKit          3D

 19 18  0  0  0  0  0  0  0  0999 V2000
    0.6913   -4.0648    1.2059 O   0  0  0  0  0  0  0  0  0  0  0  0
    0.5224   -2.8950    0.4917 N   0  0  0  0  0  0  0  0  0  0  0  0
    0.0591   -1.9661    1.2100 C   0  0  0  0  0  0  0  0  0  0  0  0
    1.0417   -4.6745    0.5536 H   0  0  0  0  0  0  0  0  0  0  0  0
   -0.1709   -2.0994    2.2649 H   0  0  0  0  0  0  0  0  0  0  0  0
    0.3329    0.4629    0.2979 C   0  0  0  0  0  3  0  0  0  0  0  0
    0.3329    0.4629   -1.2241 C   0  0  0  0  0  0  0  0  0  0  0  0
    0.3329    1.7893   -1.7162 O   0  0  0  0  0  0  0  0  0  0  0  0
   -0.7499    2.5136   -1.2169 C   0  0  0  0  0  0  0  0  0  0  0  0
   -0.7386    2.6199    0.1741 O   0  0  0  0  0  0  0  0  0  0  0  0
   -0.8065    1.3462    0.7860 C   0  0  0  0  0  0  0  0  0  0  0  0
    0.1954   -0.7574    0.7562 H   0  0  0  0  0  0  0  0  0  0  0  0
    1.2823    0.8614    0.6609 H   0  0  0  0  0  0  0  0  0  0  0  0
    1.2187   -0.0226   -1.6315 H   0  0  0  0  0  0  0  0  0  0  0  0
   -0.5546   -0.0683   -1.6008 H   0  0  0  0  0  0  0  0  0  0  0  0
   -1.6925    2.0355   -1.5411 H   0  0  0  0  0  0  0  0  0  0  0  0
   -0.6776    3.5217   -1.6189 H   0  0  0  0  0  0  0  0  0  0  0  0
   -1.7742    0.8770    0.5507 H   0  0  0  0  0  0  0  0  0  0  0  0
   -0.7612    1.5122    1.8615 H   0  0  0  0  0  0  0  0  0  0  0  0
  1  2  1  0
  1  4  1  0
  2  3  2  3
  3  5  1  0
  3 12  1  0
  6  7  1  0
  6 11  1  0
  6 13  1  0
  7  8  1  0
  7 14  1  0
  7 15  1  0
  8  9  1  0
  9 10  1  0
  9 16  1  0
  9 17  1  0
 10 11  1  0
 11 18  1  0
 11 19  1  0
M  RAD  1   6   2
M  END
>  <reaction>  (24) 
rmg_rxn_15420

>  <mol_properties>  (24) 
{"1": {"label": "*4", "atom_type": "N3d"}, "2": {"label": "*3", "atom_type": "Cd"}, "5": {"label": "*1", "atom_type": "Cs"}, "6": {"label": "*0", "atom_type": "Cs"}, "11": {"label": "*2", "atom_type": "H0"}}

>  <type>  (24) 
unop_20

>  <geom_source>  (24) 
gaussian_log

$$$$
