
     RDKit          3D

 14 13  0  0  0  0  0  0  0  0999 V2000
    1.8106   -0.5953    0.5577 C   0  0  0  0  0  0  0  0  0  0  0  0
    0.5197    0.2064    0.6554 C   0  0  0  0  0  0  0  0  0  0  0  0
   -0.5206   -0.2080   -0.3788 C   0  0  0  0  0  0  0  0  0  0  0  0
   -1.8114    0.5937   -0.2812 C   0  0  0  0  0  0  0  0  0  0  0  0
    2.2725   -0.4752   -0.4251 H   0  0  0  0  0  0  0  0  0  0  0  0
    1.6214   -1.6612    0.7052 H   0  0  0  0  0  0  0  0  0  0  0  0
    2.5364   -0.2784    1.3084 H   0  0  0  0  0  0  0  0  0  0  0  0
    0.0930    0.0950    1.6574 H   0  0  0  0  0  0  0  0  0  0  0  0
    0.7393    1.2723    0.5354 H   0  0  0  0  0  0  0  0  0  0  0  0
   -0.7402   -1.2739   -0.2588 H   0  0  0  0  0  0  0  0  0  0  0  0
   -0.0938   -0.0965   -1.3808 H   0  0  0  0  0  0  0  0  0  0  0  0
   -1.6222    1.6596   -0.4287 H   0  0  0  0  0  0  0  0  0  0  0  0
   -2.2734    0.4736    0.7017 H   0  0  0  0  0  0  0  0  0  0  0  0
   -2.5373    0.2768   -1.0318 H   0  0  0  0  0  0  0  0  0  0  0  0
  1  2  1  0
  1  5  1  0
  1  6  1  0
  1  7  1  0
  2  3  1  0
  2  8  1  0
  2  9  1  0
  3  4  1  0
  3 10  1  0
  3 11  1  0
  4 12  1  0
  4 13  1  0
  4 14  1  0
M  END
>  <reaction>  (1) 
rmg_rxn_159

>  <mol_properties>  (1) 
{"2": {"label": "donator", "atom_type": "Cs"}, "10": {"label": "d_hydrogen", "atom_type": "H0"}}

>  <type>  (1) 
r1h

$$$$

     RDKit          3D

 17 16  0  0  0  0  0  0  0  0999 V2000
    3.2128    0.1260   -0.7228 C   0  0  0  0  0  3  0  0  0  0  0  0
    2.0005    0.6432   -0.0603 C   0  0  0  0  0  0  0  0  0  0  0  0
    0.8631    0.3123   -0.8103 O   0  0  0  0  0  0  0  0  0  0  0  0
   -0.3318    0.7959   -0.2483 C   0  0  0  0  0  0  0  0  0  0  0  0
   -1.5012    0.3530   -1.1031 C   0  0  0  0  0  0  0  0  0  0  0  0
   -1.6702   -1.1598   -1.1495 C   0  0  0  0  0  0  0  0  0  0  0  0
    4.1735    0.2150   -0.2365 H   0  0  0  0  0  0  0  0  0  0  0  0
    3.1498   -0.2831   -1.7202 H   0  0  0  0  0  0  0  0  0  0  0  0
    2.0642    1.7419    0.0625 H   0  0  0  0  0  0  0  0  0  0  0  0
    1.9152    0.2371    0.9639 H   0  0  0  0  0  0  0  0  0  0  0  0
   -0.4457    0.4113    0.7774 H   0  0  0  0  0  0  0  0  0  0  0  0
   -0.2986    1.8934   -0.1853 H   0  0  0  0  0  0  0  0  0  0  0  0
   -1.3614    0.7468   -2.1131 H   0  0  0  0  0  0  0  0  0  0  0  0
   -2.4051    0.8206   -0.7031 H   0  0  0  0  0  0  0  0  0  0  0  0
   -1.8374   -1.5641   -0.1481 H   0  0  0  0  0  0  0  0  0  0  0  0
   -0.7790   -1.6360   -1.5583 H   0  0  0  0  0  0  0  0  0  0  0  0
   -2.5223   -1.4403   -1.7702 H   0  0  0  0  0  0  0  0  0  0  0  0
  1  2  1  0
  1  7  1  0
  1  8  1  0
  2  3  1  0
  2  9  1  0
  2 10  1  0
  3  4  1  0
  4  5  1  0
  4 11  1  0
  4 12  1  0
  5  6  1  0
  5 13  1  0
  5 14  1  0
  6 15  1  0
  6 16  1  0
  6 17  1  0
M  RAD  1   1   2
M  END
>  <reaction>  (2) 
rmg_rxn_159

>  <mol_properties>  (2) 
{"0": {"label": "acceptor", "atom_type": "Cs"}}

>  <type>  (2) 
r2

$$$$

     RDKit          3D

 18 17  0  0  0  0  0  0  0  0999 V2000
    2.2026   -0.7213   -0.2612 C   0  0  0  0  0  0  0  0  0  0  0  0
    1.5384    0.2638    0.6915 C   0  0  0  0  0  0  0  0  0  0  0  0
    2.2584    1.5946    0.7694 C   0  0  0  0  0  0  0  0  0  0  0  0
    2.2212    2.2185   -0.4893 O   0  0  0  0  0  0  0  0  0  0  0  0
    2.8988    3.4488   -0.5204 C   0  0  0  0  0  0  0  0  0  0  0  0
    2.7981    4.0296   -1.9118 C   0  0  0  0  0  0  0  0  0  0  0  0
    3.2294   -0.9309    0.0486 H   0  0  0  0  0  0  0  0  0  0  0  0
    2.2338   -0.3181   -1.2734 H   0  0  0  0  0  0  0  0  0  0  0  0
    1.6610   -1.6680   -0.2875 H   0  0  0  0  0  0  0  0  0  0  0  0
    1.4990   -0.1566    1.7002 H   0  0  0  0  0  0  0  0  0  0  0  0
    0.5055    0.4455    0.3835 H   0  0  0  0  0  0  0  0  0  0  0  0
    3.3038    1.4410    1.0808 H   0  0  0  0  0  0  0  0  0  0  0  0
    1.7844    2.2410    1.5226 H   0  0  0  0  0  0  0  0  0  0  0  0
    2.4596    4.1376    0.2164 H   0  0  0  0  0  0  0  0  0  0  0  0
    3.9524    3.3035   -0.2397 H   0  0  0  0  0  0  0  0  0  0  0  0
    1.7543    4.1869   -2.1856 H   0  0  0  0  0  0  0  0  0  0  0  0
    3.2472    3.3545   -2.6411 H   0  0  0  0  0  0  0  0  0  0  0  0
    3.3178    4.9878   -1.9600 H   0  0  0  0  0  0  0  0  0  0  0  0
  1  2  1  0
  1  7  1  0
  1  8  1  0
  1  9  1  0
  2  3  1  0
  2 10  1  0
  2 11  1  0
  3  4  1  0
  3 12  1  0
  3 13  1  0
  4  5  1  0
  5  6  1  0
  5 14  1  0
  5 15  1  0
  6 16  1  0
  6 17  1  0
  6 18  1  0
M  END
>  <reaction>  (3) 
rmg_rxn_159

>  <mol_properties>  (3) 
{"0": {"label": "a_hydrogen", "atom_type": "H0"}, "1": {"label": "acceptor", "atom_type": "Cs"}}

>  <type>  (3) 
r2h

$$$$

     RDKit          3D

 31 29  0  0  0  0  0  0  0  0999 V2000
   -3.2201   -1.7892   -0.0385 C   0  0  0  0  0  0  0  0  0  0  0  0
   -2.2678   -2.1100    1.1060 C   0  0  0  0  0  0  0  0  0  0  0  0
   -2.0742   -0.9575    2.0616 C   0  0  0  0  0  0  0  0  0  0  0  0
   -1.1110   -1.1967    3.1960 C   0  0  0  0  0  0  0  0  0  0  0  0
   -2.8540   -0.9453   -0.6273 H   0  0  0  0  0  0  0  0  0  0  0  0
   -4.2091   -1.5223    0.3405 H   0  0  0  0  0  0  0  0  0  0  0  0
   -3.3374   -2.6412   -0.7098 H   0  0  0  0  0  0  0  0  0  0  0  0
   -2.6411   -2.9808    1.6601 H   0  0  0  0  0  0  0  0  0  0  0  0
   -1.2932   -2.4094    0.7051 H   0  0  0  0  0  0  0  0  0  0  0  0
   -3.0210   -0.5228    2.3898 H   0  0  0  0  0  0  0  0  0  0  0  0
   -1.5458    0.0052    1.3510 H   0  0  0  0  0  0  0  0  0  0  0  0
   -0.1321   -1.5041    2.8188 H   0  0  0  0  0  0  0  0  0  0  0  0
   -1.4679   -1.9904    3.8608 H   0  0  0  0  0  0  0  0  0  0  0  0
   -0.9714   -0.2977    3.7986 H   0  0  0  0  0  0  0  0  0  0  0  0
   -0.8560    0.9389    0.5916 C   0  0  0  0  0  3  0  0  0  0  0  0
    0.1320    0.1429   -0.2011 C   0  0  0  0  0  0  0  0  0  0  0  0
    0.9351    1.0047   -0.9775 O   0  0  0  0  0  0  0  0  0  0  0  0
    1.8872    0.3194   -1.7528 C   0  0  0  0  0  0  0  0  0  0  0  0
    2.7271    1.3223   -2.5172 C   0  0  0  0  0  0  0  0  0  0  0  0
    3.5367    2.2395   -1.6103 C   0  0  0  0  0  0  0  0  0  0  0  0
   -0.4118    1.5967    1.3351 H   0  0  0  0  0  0  0  0  0  0  0  0
   -1.6226    1.4337   -0.0001 H   0  0  0  0  0  0  0  0  0  0  0  0
   -0.3897   -0.5682   -0.8593 H   0  0  0  0  0  0  0  0  0  0  0  0
    0.7708   -0.4497    0.4715 H   0  0  0  0  0  0  0  0  0  0  0  0
    2.5303   -0.2937   -1.1015 H   0  0  0  0  0  0  0  0  0  0  0  0
    1.3815   -0.3648   -2.4501 H   0  0  0  0  0  0  0  0  0  0  0  0
    2.0657    1.9140   -3.1552 H   0  0  0  0  0  0  0  0  0  0  0  0
    3.3940    0.7657   -3.1816 H   0  0  0  0  0  0  0  0  0  0  0  0
    4.2204    1.6623   -0.9827 H   0  0  0  0  0  0  0  0  0  0  0  0
    2.8802    2.8103   -0.9536 H   0  0  0  0  0  0  0  0  0  0  0  0
    4.1318    2.9433   -2.1941 H   0  0  0  0  0  0  0  0  0  0  0  0
  1  2  1  0
  1  5  1  0
  1  6  1  0
  1  7  1  0
  2  3  1  0
  2  8  1  0
  2  9  1  0
  3  4  1  0
  3 10  1  0
  3 11  1  0
  4 12  1  0
  4 13  1  0
  4 14  1  0
 15 16  1  0
 15 21  1  0
 15 22  1  0
 16 17  1  0
 16 23  1  0
 16 24  1  0
 17 18  1  0
 18 19  1  0
 18 25  1  0
 18 26  1  0
 19 20  1  0
 19 27  1  0
 19 28  1  0
 20 29  1  0
 20 30  1  0
 20 31  1  0
M  RAD  1  15   2
M  END
>  <reaction>  (4) 
rmg_rxn_159

>  <mol_properties>  (4) 
{"1": {"label": "*0", "atom_type": "Cs"}, "2": {"label": "*1", "atom_type": "Cs"}, "10": {"label": "*2", "atom_type": "H0"}, "14": {"label": "*3", "atom_type": "Cs"}, "15": {"label": "*4", "atom_type": "Cs"}}

>  <type>  (4) 
ts

$$$$

     RDKit          3D

 31 29  0  0  0  0  0  0  0  0999 V2000
   -1.6502   -3.4974   -1.0457 C   0  0  0  0  0  0  0  0  0  0  0  0
   -1.6502   -3.4974    0.4770 C   0  0  0  0  0  0  0  0  0  0  0  0
   -1.6502   -2.0950    1.0744 C   0  0  0  0  0  3  0  0  0  0  0  0
   -1.6502   -2.0950    2.5971 C   0  0  0  0  0  0  0  0  0  0  0  0
   -0.7687   -2.9840   -1.4371 H   0  0  0  0  0  0  0  0  0  0  0  0
   -2.5318   -2.9840   -1.4371 H   0  0  0  0  0  0  0  0  0  0  0  0
   -1.6502   -4.5125   -1.4461 H   0  0  0  0  0  0  0  0  0  0  0  0
   -2.5253   -4.0433    0.8443 H   0  0  0  0  0  0  0  0  0  0  0  0
   -0.7752   -4.0433    0.8443 H   0  0  0  0  0  0  0  0  0  0  0  0
   -2.5253   -1.5491    0.7071 H   0  0  0  0  0  0  0  0  0  0  0  0
   -0.6002   -1.4399    0.6336 H   0  0  0  0  0  0  0  0  0  0  0  0
   -0.7687   -2.6084    2.9884 H   0  0  0  0  0  0  0  0  0  0  0  0
   -2.5318   -2.6084    2.9884 H   0  0  0  0  0  0  0  0  0  0  0  0
   -1.6502   -1.0799    2.9974 H   0  0  0  0  0  0  0  0  0  0  0  0
    0.4463   -0.7871    0.1943 C   0  0  0  0  0  0  0  0  0  0  0  0
    0.0138    0.4486   -0.5604 C   0  0  0  0  0  0  0  0  0  0  0  0
    0.8891    1.5027   -0.2499 O   0  0  0  0  0  0  0  0  0  0  0  0
    0.5695    2.7031   -0.9072 C   0  0  0  0  0  0  0  0  0  0  0  0
    1.5882    3.7628   -0.5404 C   0  0  0  0  0  0  0  0  0  0  0  0
    2.9994    3.4209   -0.9993 C   0  0  0  0  0  0  0  0  0  0  0  0
    1.4617   -1.0699   -0.0856 H   0  0  0  0  0  0  0  0  0  0  0  0
    0.4237   -0.6057    1.2694 H   0  0  0  0  0  0  0  0  0  0  0  0
   -1.0162    0.7239   -0.2890 H   0  0  0  0  0  0  0  0  0  0  0  0
    0.0235    0.2603   -1.6441 H   0  0  0  0  0  0  0  0  0  0  0  0
    0.5654    2.5440   -1.9971 H   0  0  0  0  0  0  0  0  0  0  0  0
   -0.4409    3.0301   -0.6207 H   0  0  0  0  0  0  0  0  0  0  0  0
    1.5694    3.9019    0.5436 H   0  0  0  0  0  0  0  0  0  0  0  0
    1.2659    4.7077   -0.9867 H   0  0  0  0  0  0  0  0  0  0  0  0
    3.0381    3.3024   -2.0851 H   0  0  0  0  0  0  0  0  0  0  0  0
    3.3366    2.4876   -0.5483 H   0  0  0  0  0  0  0  0  0  0  0  0
    3.7035    4.2073   -0.7233 H   0  0  0  0  0  0  0  0  0  0  0  0
  1  2  1  0
  1  5  1  0
  1  6  1  0
  1  7  1  0
  2  3  1  0
  2  8  1  0
  2  9  1  0
  3  4  1  0
  3 10  1  0
  4 12  1  0
  4 13  1  0
  4 14  1  0
 11 15  1  0
 15 16  1  0
 15 21  1  0
 15 22  1  0
 16 17  1  0
 16 23  1  0
 16 24  1  0
 17 18  1  0
 18 19  1  0
 18 25  1  0
 18 26  1  0
 19 20  1  0
 19 27  1  0
 19 28  1  0
 20 29  1  0
 20 30  1  0
 20 31  1  0
M  RAD  1   3   2
M  END
>  <reaction>  (5) 
rmg_rxn_159

>  <mol_properties>  (5) 
{"1": {"label": "*0", "atom_type": "Cs"}, "2": {"label": "*1", "atom_type": "Cs"}, "10": {"label": "*2", "atom_type": "H0"}, "14": {"label": "*3", "atom_type": "Cs"}, "15": {"label": "*4", "atom_type": "Cs"}}

>  <type>  (5) 
unop_1

>  <geom_source>  (5) 
Heuristics

$$$$

     RDKit          3D

 31 29  0  0  0  0  0  0  0  0999 V2000
   -2.2255   -2.1737   -0.1089 C   0  0  0  0  0  0  0  0  0  0  0  0
   -2.2255   -2.1737    1.4138 C   0  0  0  0  0  0  0  0  0  0  0  0
   -2.2255   -0.7713    2.0112 C   0  0  0  0  0  3  0  0  0  0  0  0
   -2.2255   -0.7713    3.5339 C   0  0  0  0  0  0  0  0  0  0  0  0
   -1.3440   -1.6604   -0.5003 H   0  0  0  0  0  0  0  0  0  0  0  0
   -3.1070   -1.6604   -0.5003 H   0  0  0  0  0  0  0  0  0  0  0  0
   -2.2255   -3.1888   -0.5093 H   0  0  0  0  0  0  0  0  0  0  0  0
   -3.1005   -2.7196    1.7811 H   0  0  0  0  0  0  0  0  0  0  0  0
   -1.3505   -2.7196    1.7811 H   0  0  0  0  0  0  0  0  0  0  0  0
   -3.1005   -0.2254    1.6439 H   0  0  0  0  0  0  0  0  0  0  0  0
   -1.1755   -0.1163    1.5704 H   0  0  0  0  0  0  0  0  0  0  0  0
   -1.3440   -1.2847    3.9252 H   0  0  0  0  0  0  0  0  0  0  0  0
   -3.1070   -1.2847    3.9252 H   0  0  0  0  0  0  0  0  0  0  0  0
   -2.2255    0.2438    3.9342 H   0  0  0  0  0  0  0  0  0  0  0  0
   -0.1289    0.5366    1.1311 C   0  0  0  0  0  0  0  0  0  0  0  0
    0.2513    0.0494   -0.2479 C   0  0  0  0  0  0  0  0  0  0  0  0
    1.0760    1.0082   -0.8594 O   0  0  0  0  0  0  0  0  0  0  0  0
    1.4865    0.6450   -2.1534 C   0  0  0  0  0  0  0  0  0  0  0  0
    2.3987    1.7186   -2.7106 C   0  0  0  0  0  0  0  0  0  0  0  0
    3.6871    1.8816   -1.9151 C   0  0  0  0  0  0  0  0  0  0  0  0
    0.7616    0.6859    1.7427 H   0  0  0  0  0  0  0  0  0  0  0  0
   -0.6652    1.4840    1.0672 H   0  0  0  0  0  0  0  0  0  0  0  0
   -0.6485   -0.1159   -0.8589 H   0  0  0  0  0  0  0  0  0  0  0  0
    0.7799   -0.9131   -0.1834 H   0  0  0  0  0  0  0  0  0  0  0  0
    2.0151   -0.3209   -2.1216 H   0  0  0  0  0  0  0  0  0  0  0  0
    0.6084    0.5159   -2.8031 H   0  0  0  0  0  0  0  0  0  0  0  0
    1.8496    2.6635   -2.7331 H   0  0  0  0  0  0  0  0  0  0  0  0
    2.6274    1.4602   -3.7483 H   0  0  0  0  0  0  0  0  0  0  0  0
    4.2588    0.9502   -1.9042 H   0  0  0  0  0  0  0  0  0  0  0  0
    3.4711    2.1540   -0.8820 H   0  0  0  0  0  0  0  0  0  0  0  0
    4.3201    2.6578   -2.3475 H   0  0  0  0  0  0  0  0  0  0  0  0
  1  2  1  0
  1  5  1  0
  1  6  1  0
  1  7  1  0
  2  3  1  0
  2  8  1  0
  2  9  1  0
  3  4  1  0
  3 10  1  0
  4 12  1  0
  4 13  1  0
  4 14  1  0
 11 15  1  0
 15 16  1  0
 15 21  1  0
 15 22  1  0
 16 17  1  0
 16 23  1  0
 16 24  1  0
 17 18  1  0
 18 19  1  0
 18 25  1  0
 18 26  1  0
 19 20  1  0
 19 27  1  0
 19 28  1  0
 20 29  1  0
 20 30  1  0
 20 31  1  0
M  RAD  1   3   2
M  END
>  <reaction>  (6) 
rmg_rxn_159

>  <mol_properties>  (6) 
{"1": {"label": "*0", "atom_type": "Cs"}, "2": {"label": "*1", "atom_type": "Cs"}, "10": {"label": "*2", "atom_type": "H0"}, "14": {"label": "*3", "atom_type": "Cs"}, "15": {"label": "*4", "atom_type": "Cs"}}

>  <type>  (6) 
unop_2

>  <geom_source>  (6) 
Heuristics

$$$$

     RDKit          3D

 31 29  0  0  0  0  0  0  0  0999 V2000
   -1.9112   -3.4671   -1.4027 C   0  0  0  0  0  0  0  0  0  0  0  0
   -1.9112   -3.4671    0.1200 C   0  0  0  0  0  0  0  0  0  0  0  0
   -1.9112   -2.0647    0.7174 C   0  0  0  0  0  3  0  0  0  0  0  0
   -1.9112   -2.0647    2.2401 C   0  0  0  0  0  0  0  0  0  0  0  0
   -1.0297   -2.9538   -1.7941 H   0  0  0  0  0  0  0  0  0  0  0  0
   -2.7927   -2.9538   -1.7941 H   0  0  0  0  0  0  0  0  0  0  0  0
   -1.9112   -4.4822   -1.8031 H   0  0  0  0  0  0  0  0  0  0  0  0
   -2.7862   -4.0130    0.4873 H   0  0  0  0  0  0  0  0  0  0  0  0
   -1.0362   -4.0130    0.4873 H   0  0  0  0  0  0  0  0  0  0  0  0
   -2.7862   -1.5189    0.3501 H   0  0  0  0  0  0  0  0  0  0  0  0
   -0.8611   -1.4097    0.2766 H   0  0  0  0  0  0  0  0  0  0  0  0
   -1.0297   -2.5781    2.6314 H   0  0  0  0  0  0  0  0  0  0  0  0
   -2.7927   -2.5781    2.6314 H   0  0  0  0  0  0  0  0  0  0  0  0
   -1.9112   -1.0496    2.6404 H   0  0  0  0  0  0  0  0  0  0  0  0
    0.1854   -0.7568   -0.1627 C   0  0  0  0  0  0  0  0  0  0  0  0
   -0.1140    0.7224   -0.2382 C   0  0  0  0  0  0  0  0  0  0  0  0
    1.0816    1.4394   -0.0650 O   0  0  0  0  0  0  0  0  0  0  0  0
    0.9077    2.8329   -0.1202 C   0  0  0  0  0  0  0  0  0  0  0  0
    2.2522    3.5133    0.0369 C   0  0  0  0  0  0  0  0  0  0  0  0
    3.2229    3.1881   -1.0905 C   0  0  0  0  0  0  0  0  0  0  0  0
    0.8918   -1.0440   -0.9424 H   0  0  0  0  0  0  0  0  0  0  0  0
    0.6196   -1.0099    0.8051 H   0  0  0  0  0  0  0  0  0  0  0  0
   -0.8386    1.0081    0.5387 H   0  0  0  0  0  0  0  0  0  0  0  0
   -0.5647    0.9745   -1.2094 H   0  0  0  0  0  0  0  0  0  0  0  0
    0.4509    3.1158   -1.0818 H   0  0  0  0  0  0  0  0  0  0  0  0
    0.2211    3.1570    0.6757 H   0  0  0  0  0  0  0  0  0  0  0  0
    2.6806    3.2177    0.9980 H   0  0  0  0  0  0  0  0  0  0  0  0
    2.0794    4.5920    0.0853 H   0  0  0  0  0  0  0  0  0  0  0  0
    2.8174    3.5004   -2.0561 H   0  0  0  0  0  0  0  0  0  0  0  0
    3.4139    2.1161   -1.1384 H   0  0  0  0  0  0  0  0  0  0  0  0
    4.1764    3.6986   -0.9472 H   0  0  0  0  0  0  0  0  0  0  0  0
  1  2  1  0
  1  5  1  0
  1  6  1  0
  1  7  1  0
  2  3  1  0
  2  8  1  0
  2  9  1  0
  3  4  1  0
  3 10  1  0
  4 12  1  0
  4 13  1  0
  4 14  1  0
 11 15  1  0
 15 16  1  0
 15 21  1  0
 15 22  1  0
 16 17  1  0
 16 23  1  0
 16 24  1  0
 17 18  1  0
 18 19  1  0
 18 25  1  0
 18 26  1  0
 19 20  1  0
 19 27  1  0
 19 28  1  0
 20 29  1  0
 20 30  1  0
 20 31  1  0
M  RAD  1   3   2
M  END
>  <reaction>  (7) 
rmg_rxn_159

>  <mol_properties>  (7) 
{"1": {"label": "*0", "atom_type": "Cs"}, "2": {"label": "*1", "atom_type": "Cs"}, "10": {"label": "*2", "atom_type": "H0"}, "14": {"label": "*3", "atom_type": "Cs"}, "15": {"label": "*4", "atom_type": "Cs"}}

>  <type>  (7) 
unop_3

>  <geom_source>  (7) 
Heuristics

$$$$

     RDKit          3D

 31 29  0  0  0  0  0  0  0  0999 V2000
   -2.8456   -2.0804   -2.0343 C   0  0  0  0  0  0  0  0  0  0  0  0
   -2.8456   -2.0804   -0.5116 C   0  0  0  0  0  0  0  0  0  0  0  0
   -2.8456   -0.6781    0.0858 C   0  0  0  0  0  3  0  0  0  0  0  0
   -2.8456   -0.6781    1.6085 C   0  0  0  0  0  0  0  0  0  0  0  0
   -1.9641   -1.5671   -2.4257 H   0  0  0  0  0  0  0  0  0  0  0  0
   -3.7271   -1.5671   -2.4257 H   0  0  0  0  0  0  0  0  0  0  0  0
   -2.8456   -3.0955   -2.4347 H   0  0  0  0  0  0  0  0  0  0  0  0
   -3.7206   -2.6263   -0.1443 H   0  0  0  0  0  0  0  0  0  0  0  0
   -1.9706   -2.6263   -0.1443 H   0  0  0  0  0  0  0  0  0  0  0  0
   -3.7206   -0.1322   -0.2815 H   0  0  0  0  0  0  0  0  0  0  0  0
   -1.7956   -0.0230   -0.3550 H   0  0  0  0  0  0  0  0  0  0  0  0
   -1.9641   -1.1914    1.9998 H   0  0  0  0  0  0  0  0  0  0  0  0
   -3.7271   -1.1914    1.9998 H   0  0  0  0  0  0  0  0  0  0  0  0
   -2.8456    0.3370    2.0088 H   0  0  0  0  0  0  0  0  0  0  0  0
   -0.7490    0.6299   -0.7943 C   0  0  0  0  0  0  0  0  0  0  0  0
    0.5205   -0.0837   -0.3910 C   0  0  0  0  0  0  0  0  0  0  0  0
    1.5353    0.8674   -0.1927 O   0  0  0  0  0  0  0  0  0  0  0  0
    2.7631    0.2997    0.1883 C   0  0  0  0  0  0  0  0  0  0  0  0
    3.7771    1.4023    0.4152 C   0  0  0  0  0  0  0  0  0  0  0  0
    3.3993    2.3374    1.5563 C   0  0  0  0  0  0  0  0  0  0  0  0
   -1.0590    1.3278   -0.0157 H   0  0  0  0  0  0  0  0  0  0  0  0
   -0.5958    1.1900   -1.7174 H   0  0  0  0  0  0  0  0  0  0  0  0
    0.8236   -0.7989   -1.1700 H   0  0  0  0  0  0  0  0  0  0  0  0
    0.3611   -0.6596    0.5326 H   0  0  0  0  0  0  0  0  0  0  0  0
    2.6334   -0.2899    1.1097 H   0  0  0  0  0  0  0  0  0  0  0  0
    3.1167   -0.3886   -0.5933 H   0  0  0  0  0  0  0  0  0  0  0  0
    3.8877    1.9686   -0.5132 H   0  0  0  0  0  0  0  0  0  0  0  0
    4.7440    0.9333    0.6174 H   0  0  0  0  0  0  0  0  0  0  0  0
    3.3087    1.7880    2.4966 H   0  0  0  0  0  0  0  0  0  0  0  0
    2.4434    2.8220    1.3580 H   0  0  0  0  0  0  0  0  0  0  0  0
    4.1535    3.1138    1.6937 H   0  0  0  0  0  0  0  0  0  0  0  0
  1  2  1  0
  1  5  1  0
  1  6  1  0
  1  7  1  0
  2  3  1  0
  2  8  1  0
  2  9  1  0
  3  4  1  0
  3 10  1  0
  4 12  1  0
  4 13  1  0
  4 14  1  0
 11 15  1  0
 15 16  1  0
 15 21  1  0
 15 22  1  0
 16 17  1  0
 16 23  1  0
 16 24  1  0
 17 18  1  0
 18 19  1  0
 18 25  1  0
 18 26  1  0
 19 20  1  0
 19 27  1  0
 19 28  1  0
 20 29  1  0
 20 30  1  0
 20 31  1  0
M  RAD  1   3   2
M  END
>  <reaction>  (8) 
rmg_rxn_159

>  <mol_properties>  (8) 
{"1": {"label": "*0", "atom_type": "Cs"}, "2": {"label": "*1", "atom_type": "Cs"}, "10": {"label": "*2", "atom_type": "H0"}, "14": {"label": "*3", "atom_type": "Cs"}, "15": {"label": "*4", "atom_type": "Cs"}}

>  <type>  (8) 
unop_4

>  <geom_source>  (8) 
Heuristics

$$$$

     RDKit          3D

 31 29  0  0  0  0  0  0  0  0999 V2000
   -2.0027   -3.4267   -1.4309 C   0  0  0  0  0  0  0  0  0  0  0  0
   -2.0027   -3.4267    0.0918 C   0  0  0  0  0  0  0  0  0  0  0  0
   -2.0027   -2.0243    0.6891 C   0  0  0  0  0  3  0  0  0  0  0  0
   -2.0027   -2.0243    2.2118 C   0  0  0  0  0  0  0  0  0  0  0  0
   -1.1212   -2.9133   -1.8223 H   0  0  0  0  0  0  0  0  0  0  0  0
   -2.8842   -2.9133   -1.8223 H   0  0  0  0  0  0  0  0  0  0  0  0
   -2.0027   -4.4418   -1.8313 H   0  0  0  0  0  0  0  0  0  0  0  0
   -2.8777   -3.9725    0.4591 H   0  0  0  0  0  0  0  0  0  0  0  0
   -1.1277   -3.9725    0.4591 H   0  0  0  0  0  0  0  0  0  0  0  0
   -2.8777   -1.4784    0.3218 H   0  0  0  0  0  0  0  0  0  0  0  0
   -0.9526   -1.3692    0.2484 H   0  0  0  0  0  0  0  0  0  0  0  0
   -1.1212   -2.5376    2.6032 H   0  0  0  0  0  0  0  0  0  0  0  0
   -2.8842   -2.5376    2.6032 H   0  0  0  0  0  0  0  0  0  0  0  0
   -2.0027   -1.0092    2.6122 H   0  0  0  0  0  0  0  0  0  0  0  0
    0.0939   -0.7164   -0.1909 C   0  0  0  0  0  0  0  0  0  0  0  0
    0.1200    0.6801    0.3860 C   0  0  0  0  0  0  0  0  0  0  0  0
    1.2519    1.3542   -0.1018 O   0  0  0  0  0  0  0  0  0  0  0  0
    1.3661    2.6698    0.3792 C   0  0  0  0  0  0  0  0  0  0  0  0
    2.5894    3.3229   -0.2309 C   0  0  0  0  0  0  0  0  0  0  0  0
    2.5030    3.4586   -1.7453 C   0  0  0  0  0  0  0  0  0  0  0  0
    0.0474   -0.6791   -1.2799 H   0  0  0  0  0  0  0  0  0  0  0  0
    0.9911   -1.2655    0.0966 H   0  0  0  0  0  0  0  0  0  0  0  0
    0.1510    0.6415    1.4850 H   0  0  0  0  0  0  0  0  0  0  0  0
   -0.7918    1.2285    0.1071 H   0  0  0  0  0  0  0  0  0  0  0  0
    0.4623    3.2435    0.1197 H   0  0  0  0  0  0  0  0  0  0  0  0
    1.4449    2.6626    1.4763 H   0  0  0  0  0  0  0  0  0  0  0  0
    3.4697    2.7361    0.0437 H   0  0  0  0  0  0  0  0  0  0  0  0
    2.7091    4.3079    0.2289 H   0  0  0  0  0  0  0  0  0  0  0  0
    1.6400    4.0638   -2.0337 H   0  0  0  0  0  0  0  0  0  0  0  0
    2.3984    2.4806   -2.2151 H   0  0  0  0  0  0  0  0  0  0  0  0
    3.3969    3.9369   -2.1483 H   0  0  0  0  0  0  0  0  0  0  0  0
  1  2  1  0
  1  5  1  0
  1  6  1  0
  1  7  1  0
  2  3  1  0
  2  8  1  0
  2  9  1  0
  3  4  1  0
  3 10  1  0
  4 12  1  0
  4 13  1  0
  4 14  1  0
 11 15  1  0
 15 16  1  0
 15 21  1  0
 15 22  1  0
 16 17  1  0
 16 23  1  0
 16 24  1  0
 17 18  1  0
 18 19  1  0
 18 25  1  0
 18 26  1  0
 19 20  1  0
 19 27  1  0
 19 28  1  0
 20 29  1  0
 20 30  1  0
 20 31  1  0
M  RAD  1   3   2
M  END
>  <reaction>  (9) 
rmg_rxn_159

>  <mol_properties>  (9) 
{"1": {"label": "*0", "atom_type": "Cs"}, "2": {"label": "*1", "atom_type": "Cs"}, "10": {"label": "*2", "atom_type": "H0"}, "14": {"label": "*3", "atom_type": "Cs"}, "15": {"label": "*4", "atom_type": "Cs"}}

>  <type>  (9) 
unop_5

>  <geom_source>  (9) 
Heuristics

$$$$

     RDKit          3D

 31 29  0  0  0  0  0  0  0  0999 V2000
   -2.5159   -2.6474   -2.3299 C   0  0  0  0  0  0  0  0  0  0  0  0
   -2.5159   -2.6474   -0.8072 C   0  0  0  0  0  0  0  0  0  0  0  0
   -2.5159   -1.2450   -0.2098 C   0  0  0  0  0  3  0  0  0  0  0  0
   -2.5159   -1.2450    1.3129 C   0  0  0  0  0  0  0  0  0  0  0  0
   -1.6344   -2.1340   -2.7212 H   0  0  0  0  0  0  0  0  0  0  0  0
   -3.3974   -2.1340   -2.7212 H   0  0  0  0  0  0  0  0  0  0  0  0
   -2.5159   -3.6625   -2.7302 H   0  0  0  0  0  0  0  0  0  0  0  0
   -3.3910   -3.1932   -0.4399 H   0  0  0  0  0  0  0  0  0  0  0  0
   -1.6409   -3.1932   -0.4399 H   0  0  0  0  0  0  0  0  0  0  0  0
   -3.3910   -0.6991   -0.5771 H   0  0  0  0  0  0  0  0  0  0  0  0
   -1.4659   -0.5899   -0.6506 H   0  0  0  0  0  0  0  0  0  0  0  0
   -1.6344   -1.7583    1.7043 H   0  0  0  0  0  0  0  0  0  0  0  0
   -3.3974   -1.7583    1.7043 H   0  0  0  0  0  0  0  0  0  0  0  0
   -2.5159   -0.2299    1.7133 H   0  0  0  0  0  0  0  0  0  0  0  0
   -0.4194    0.0629   -1.0899 C   0  0  0  0  0  0  0  0  0  0  0  0
    0.7553   -0.1459   -0.1625 C   0  0  0  0  0  0  0  0  0  0  0  0
    1.4604    1.0630   -0.0397 O   0  0  0  0  0  0  0  0  0  0  0  0
    2.5773    0.9720    0.8084 C   0  0  0  0  0  0  0  0  0  0  0  0
    3.2449    2.3284    0.9065 C   0  0  0  0  0  0  0  0  0  0  0  0
    2.3529    3.3906    1.5352 C   0  0  0  0  0  0  0  0  0  0  0  0
   -1.0872    0.8289   -0.6941 H   0  0  0  0  0  0  0  0  0  0  0  0
   -0.0766    0.3810   -2.0751 H   0  0  0  0  0  0  0  0  0  0  0  0
    1.4201   -0.9298   -0.5546 H   0  0  0  0  0  0  0  0  0  0  0  0
    0.4095   -0.4800    0.8269 H   0  0  0  0  0  0  0  0  0  0  0  0
    2.2623    0.6326    1.8079 H   0  0  0  0  0  0  0  0  0  0  0  0
    3.2850    0.2261    0.4178 H   0  0  0  0  0  0  0  0  0  0  0  0
    3.5488    2.6392   -0.0964 H   0  0  0  0  0  0  0  0  0  0  0  0
    4.1605    2.2108    1.4928 H   0  0  0  0  0  0  0  0  0  0  0  0
    2.0606    3.1040    2.5485 H   0  0  0  0  0  0  0  0  0  0  0  0
    1.4434    3.5267    0.9501 H   0  0  0  0  0  0  0  0  0  0  0  0
    2.8676    4.3508    1.5944 H   0  0  0  0  0  0  0  0  0  0  0  0
  1  2  1  0
  1  5  1  0
  1  6  1  0
  1  7  1  0
  2  3  1  0
  2  8  1  0
  2  9  1  0
  3  4  1  0
  3 10  1  0
  4 12  1  0
  4 13  1  0
  4 14  1  0
 11 15  1  0
 15 16  1  0
 15 21  1  0
 15 22  1  0
 16 17  1  0
 16 23  1  0
 16 24  1  0
 17 18  1  0
 18 19  1  0
 18 25  1  0
 18 26  1  0
 19 20  1  0
 19 27  1  0
 19 28  1  0
 20 29  1  0
 20 30  1  0
 20 31  1  0
M  RAD  1   3   2
M  END
>  <reaction>  (10) 
rmg_rxn_159

>  <mol_properties>  (10) 
{"1": {"label": "*0", "atom_type": "Cs"}, "2": {"label": "*1", "atom_type": "Cs"}, "10": {"label": "*2", "atom_type": "H0"}, "14": {"label": "*3", "atom_type": "Cs"}, "15": {"label": "*4", "atom_type": "Cs"}}

>  <type>  (10) 
unop_6

>  <geom_source>  (10) 
Heuristics

$$$$

     RDKit          3D

 31 29  0  0  0  0  0  0  0  0999 V2000
   -2.1227   -3.1754   -2.1857 C   0  0  0  0  0  0  0  0  0  0  0  0
   -2.1227   -3.1754   -0.6630 C   0  0  0  0  0  0  0  0  0  0  0  0
   -2.1227   -1.7730   -0.0656 C   0  0  0  0  0  3  0  0  0  0  0  0
   -2.1227   -1.7730    1.4571 C   0  0  0  0  0  0  0  0  0  0  0  0
   -1.2412   -2.6620   -2.5771 H   0  0  0  0  0  0  0  0  0  0  0  0
   -3.0042   -2.6620   -2.5771 H   0  0  0  0  0  0  0  0  0  0  0  0
   -2.1227   -4.1905   -2.5861 H   0  0  0  0  0  0  0  0  0  0  0  0
   -2.9977   -3.7213   -0.2957 H   0  0  0  0  0  0  0  0  0  0  0  0
   -1.2477   -3.7213   -0.2957 H   0  0  0  0  0  0  0  0  0  0  0  0
   -2.9977   -1.2271   -0.4330 H   0  0  0  0  0  0  0  0  0  0  0  0
   -1.0726   -1.1179   -0.5064 H   0  0  0  0  0  0  0  0  0  0  0  0
   -1.2412   -2.2864    1.8484 H   0  0  0  0  0  0  0  0  0  0  0  0
   -3.0042   -2.2864    1.8484 H   0  0  0  0  0  0  0  0  0  0  0  0
   -2.1227   -0.7579    1.8574 H   0  0  0  0  0  0  0  0  0  0  0  0
   -0.0261   -0.4651   -0.9457 C   0  0  0  0  0  0  0  0  0  0  0  0
    0.8511   -0.0433    0.2102 C   0  0  0  0  0  0  0  0  0  0  0  0
    1.3445    1.2483   -0.0389 O   0  0  0  0  0  0  0  0  0  0  0  0
    2.1755    1.7335    0.9852 C   0  0  0  0  0  0  0  0  0  0  0  0
    2.6230    3.1402    0.6445 C   0  0  0  0  0  0  0  0  0  0  0  0
    1.4702    4.1320    0.5634 C   0  0  0  0  0  0  0  0  0  0  0  0
   -0.8644    0.2231   -1.0602 H   0  0  0  0  0  0  0  0  0  0  0  0
    0.5437   -0.4710   -1.8755 H   0  0  0  0  0  0  0  0  0  0  0  0
    1.6875   -0.7469    0.3348 H   0  0  0  0  0  0  0  0  0  0  0  0
    0.2791   -0.0511    1.1498 H   0  0  0  0  0  0  0  0  0  0  0  0
    1.6305    1.7317    1.9426 H   0  0  0  0  0  0  0  0  0  0  0  0
    3.0478    1.0742    1.1044 H   0  0  0  0  0  0  0  0  0  0  0  0
    3.1617    3.1124   -0.3062 H   0  0  0  0  0  0  0  0  0  0  0  0
    3.3404    3.4585    1.4060 H   0  0  0  0  0  0  0  0  0  0  0  0
    0.9367    4.1880    1.5156 H   0  0  0  0  0  0  0  0  0  0  0  0
    0.7561    3.8321   -0.2035 H   0  0  0  0  0  0  0  0  0  0  0  0
    1.8299    5.1333    0.3221 H   0  0  0  0  0  0  0  0  0  0  0  0
  1  2  1  0
  1  5  1  0
  1  6  1  0
  1  7  1  0
  2  3  1  0
  2  8  1  0
  2  9  1  0
  3  4  1  0
  3 10  1  0
  4 12  1  0
  4 13  1  0
  4 14  1  0
 11 15  1  0
 15 16  1  0
 15 21  1  0
 15 22  1  0
 16 17  1  0
 16 23  1  0
 16 24  1  0
 17 18  1  0
 18 19  1  0
 18 25  1  0
 18 26  1  0
 19 20  1  0
 19 27  1  0
 19 28  1  0
 20 29  1  0
 20 30  1  0
 20 31  1  0
M  RAD  1   3   2
M  END
>  <reaction>  (11) 
rmg_rxn_159

>  <mol_properties>  (11) 
{"1": {"label": "*0", "atom_type": "Cs"}, "2": {"label": "*1", "atom_type": "Cs"}, "10": {"label": "*2", "atom_type": "H0"}, "14": {"label": "*3", "atom_type": "Cs"}, "15": {"label": "*4", "atom_type": "Cs"}}

>  <type>  (11) 
unop_7

>  <geom_source>  (11) 
Heuristics

$$$$

     RDKit          3D

 31 29  0  0  0  0  0  0  0  0999 V2000
   -1.5738   -3.2611   -0.5069 C   0  0  0  0  0  0  0  0  0  0  0  0
   -1.5738   -3.2611    1.0158 C   0  0  0  0  0  0  0  0  0  0  0  0
   -1.5738   -1.8587    1.6131 C   0  0  0  0  0  3  0  0  0  0  0  0
   -1.5738   -1.8587    3.1358 C   0  0  0  0  0  0  0  0  0  0  0  0
   -0.6923   -2.7477   -0.8983 H   0  0  0  0  0  0  0  0  0  0  0  0
   -2.4553   -2.7477   -0.8983 H   0  0  0  0  0  0  0  0  0  0  0  0
   -1.5738   -4.2762   -0.9073 H   0  0  0  0  0  0  0  0  0  0  0  0
   -2.4489   -3.8069    1.3831 H   0  0  0  0  0  0  0  0  0  0  0  0
   -0.6988   -3.8069    1.3831 H   0  0  0  0  0  0  0  0  0  0  0  0
   -2.4489   -1.3128    1.2458 H   0  0  0  0  0  0  0  0  0  0  0  0
   -0.5238   -1.2036    1.1724 H   0  0  0  0  0  0  0  0  0  0  0  0
   -0.6923   -2.3720    3.5272 H   0  0  0  0  0  0  0  0  0  0  0  0
   -2.4553   -2.3720    3.5272 H   0  0  0  0  0  0  0  0  0  0  0  0
   -1.5738   -0.8436    3.5362 H   0  0  0  0  0  0  0  0  0  0  0  0
    0.5227   -0.5508    0.7331 C   0  0  0  0  0  0  0  0  0  0  0  0
    0.1851    0.1802   -0.5457 C   0  0  0  0  0  0  0  0  0  0  0  0
    0.8132    1.4367   -0.5326 O   0  0  0  0  0  0  0  0  0  0  0  0
    0.5597    2.1975   -1.6867 C   0  0  0  0  0  0  0  0  0  0  0  0
    1.3079    3.5117   -1.5961 C   0  0  0  0  0  0  0  0  0  0  0  0
    2.8204    3.3381   -1.5578 C   0  0  0  0  0  0  0  0  0  0  0  0
    1.6009   -0.6898    0.8205 H   0  0  0  0  0  0  0  0  0  0  0  0
    0.1774    0.0149    1.5991 H   0  0  0  0  0  0  0  0  0  0  0  0
   -0.9037    0.3060   -0.6406 H   0  0  0  0  0  0  0  0  0  0  0  0
    0.5213   -0.3977   -1.4192 H   0  0  0  0  0  0  0  0  0  0  0  0
    0.8812    1.6404   -2.5810 H   0  0  0  0  0  0  0  0  0  0  0  0
   -0.5205    2.3798   -1.7860 H   0  0  0  0  0  0  0  0  0  0  0  0
    0.9685    4.0436   -0.7035 H   0  0  0  0  0  0  0  0  0  0  0  0
    1.0209    4.1220   -2.4569 H   0  0  0  0  0  0  0  0  0  0  0  0
    3.1769    2.8284   -2.4564 H   0  0  0  0  0  0  0  0  0  0  0  0
    3.1190    2.7432   -0.6946 H   0  0  0  0  0  0  0  0  0  0  0  0
    3.3251    4.3035   -1.4981 H   0  0  0  0  0  0  0  0  0  0  0  0
  1  2  1  0
  1  5  1  0
  1  6  1  0
  1  7  1  0
  2  3  1  0
  2  8  1  0
  2  9  1  0
  3  4  1  0
  3 10  1  0
  4 12  1  0
  4 13  1  0
  4 14  1  0
 11 15  1  0
 15 16  1  0
 15 21  1  0
 15 22  1  0
 16 17  1  0
 16 23  1  0
 16 24  1  0
 17 18  1  0
 18 19  1  0
 18 25  1  0
 18 26  1  0
 19 20  1  0
 19 27  1  0
 19 28  1  0
 20 29  1  0
 20 30  1  0
 20 31  1  0
M  RAD  1   3   2
M  END
>  <reaction>  (12) 
rmg_rxn_159

>  <mol_properties>  (12) 
{"1": {"label": "*0", "atom_type": "Cs"}, "2": {"label": "*1", "atom_type": "Cs"}, "10": {"label": "*2", "atom_type": "H0"}, "14": {"label": "*3", "atom_type": "Cs"}, "15": {"label": "*4", "atom_type": "Cs"}}

>  <type>  (12) 
unop_8

>  <geom_source>  (12) 
Heuristics

$$$$

     RDKit          3D

 31 29  0  0  0  0  0  0  0  0999 V2000
   -2.9373   -1.7175   -1.3681 C   0  0  0  0  0  0  0  0  0  0  0  0
   -2.9373   -1.7175    0.1546 C   0  0  0  0  0  0  0  0  0  0  0  0
   -2.9373   -0.3151    0.7519 C   0  0  0  0  0  3  0  0  0  0  0  0
   -2.9373   -0.3151    2.2746 C   0  0  0  0  0  0  0  0  0  0  0  0
   -2.0557   -1.2041   -1.7595 H   0  0  0  0  0  0  0  0  0  0  0  0
   -3.8188   -1.2041   -1.7595 H   0  0  0  0  0  0  0  0  0  0  0  0
   -2.9373   -2.7326   -1.7685 H   0  0  0  0  0  0  0  0  0  0  0  0
   -3.8123   -2.2634    0.5219 H   0  0  0  0  0  0  0  0  0  0  0  0
   -2.0622   -2.2634    0.5219 H   0  0  0  0  0  0  0  0  0  0  0  0
   -3.8123    0.2308    0.3846 H   0  0  0  0  0  0  0  0  0  0  0  0
   -1.8872    0.3399    0.3112 H   0  0  0  0  0  0  0  0  0  0  0  0
   -2.0557   -0.8285    2.6660 H   0  0  0  0  0  0  0  0  0  0  0  0
   -3.8188   -0.8285    2.6660 H   0  0  0  0  0  0  0  0  0  0  0  0
   -2.9373    0.7000    2.6750 H   0  0  0  0  0  0  0  0  0  0  0  0
   -0.8407    0.9928   -0.1281 C   0  0  0  0  0  0  0  0  0  0  0  0
    0.2957    0.0357   -0.4040 C   0  0  0  0  0  0  0  0  0  0  0  0
    1.4976    0.7603   -0.4665 O   0  0  0  0  0  0  0  0  0  0  0  0
    2.6206   -0.0458   -0.7197 C   0  0  0  0  0  0  0  0  0  0  0  0
    3.8660    0.8170   -0.7294 C   0  0  0  0  0  0  0  0  0  0  0  0
    4.1457    1.4795    0.6130 C   0  0  0  0  0  0  0  0  0  0  0  0
   -0.6838    1.5093    0.8195 H   0  0  0  0  0  0  0  0  0  0  0  0
   -0.9118    1.7398   -0.9195 H   0  0  0  0  0  0  0  0  0  0  0  0
    0.1286   -0.4963   -1.3524 H   0  0  0  0  0  0  0  0  0  0  0  0
    0.3579   -0.7257    0.3875 H   0  0  0  0  0  0  0  0  0  0  0  0
    2.7059   -0.8239    0.0553 H   0  0  0  0  0  0  0  0  0  0  0  0
    2.5043   -0.5583   -1.6860 H   0  0  0  0  0  0  0  0  0  0  0  0
    3.7557    1.5770   -1.5072 H   0  0  0  0  0  0  0  0  0  0  0  0
    4.7100    0.1856   -1.0206 H   0  0  0  0  0  0  0  0  0  0  0  0
    4.2820    0.7299    1.3965 H   0  0  0  0  0  0  0  0  0  0  0  0
    3.3164    2.1232    0.9061 H   0  0  0  0  0  0  0  0  0  0  0  0
    5.0508    2.0870    0.5700 H   0  0  0  0  0  0  0  0  0  0  0  0
  1  2  1  0
  1  5  1  0
  1  6  1  0
  1  7  1  0
  2  3  1  0
  2  8  1  0
  2  9  1  0
  3  4  1  0
  3 10  1  0
  4 12  1  0
  4 13  1  0
  4 14  1  0
 11 15  1  0
 15 16  1  0
 15 21  1  0
 15 22  1  0
 16 17  1  0
 16 23  1  0
 16 24  1  0
 17 18  1  0
 18 19  1  0
 18 25  1  0
 18 26  1  0
 19 20  1  0
 19 27  1  0
 19 28  1  0
 20 29  1  0
 20 30  1  0
 20 31  1  0
M  RAD  1   3   2
M  END
>  <reaction>  (13) 
rmg_rxn_159

>  <mol_properties>  (13) 
{"1": {"label": "*0", "atom_type": "Cs"}, "2": {"label": "*1", "atom_type": "Cs"}, "10": {"label": "*2", "atom_type": "H0"}, "14": {"label": "*3", "atom_type": "Cs"}, "15": {"label": "*4", "atom_type": "Cs"}}

>  <type>  (13) 
unop_9

>  <geom_source>  (13) 
Heuristics

$$$$

     RDKit          3D

 31 29  0  0  0  0  0  0  0  0999 V2000
   -1.7828   -2.7644   -0.1104 C   0  0  0  0  0  0  0  0  0  0  0  0
   -1.7828   -2.7644    1.4123 C   0  0  0  0  0  0  0  0  0  0  0  0
   -1.7828   -1.3621    2.0097 C   0  0  0  0  0  3  0  0  0  0  0  0
   -1.7828   -1.3621    3.5324 C   0  0  0  0  0  0  0  0  0  0  0  0
   -0.9012   -2.2511   -0.5017 H   0  0  0  0  0  0  0  0  0  0  0  0
   -2.6643   -2.2511   -0.5017 H   0  0  0  0  0  0  0  0  0  0  0  0
   -1.7828   -3.7795   -0.5107 H   0  0  0  0  0  0  0  0  0  0  0  0
   -2.6578   -3.3103    1.7797 H   0  0  0  0  0  0  0  0  0  0  0  0
   -0.9077   -3.3103    1.7797 H   0  0  0  0  0  0  0  0  0  0  0  0
   -2.6578   -0.8162    1.6424 H   0  0  0  0  0  0  0  0  0  0  0  0
   -0.7327   -0.7070    1.5689 H   0  0  0  0  0  0  0  0  0  0  0  0
   -0.9012   -1.8754    3.9238 H   0  0  0  0  0  0  0  0  0  0  0  0
   -2.6643   -1.8754    3.9238 H   0  0  0  0  0  0  0  0  0  0  0  0
   -1.7828   -0.3469    3.9328 H   0  0  0  0  0  0  0  0  0  0  0  0
    0.3138   -0.0541    1.1296 C   0  0  0  0  0  0  0  0  0  0  0  0
    0.2736    0.0462   -0.3776 C   0  0  0  0  0  0  0  0  0  0  0  0
    0.8813    1.2501   -0.7712 O   0  0  0  0  0  0  0  0  0  0  0  0
    0.8947    1.4372   -2.1640 C   0  0  0  0  0  0  0  0  0  0  0  0
    1.6017    2.7371   -2.4891 C   0  0  0  0  0  0  0  0  0  0  0  0
    3.0664    2.7424   -2.0723 C   0  0  0  0  0  0  0  0  0  0  0  0
    1.3443   -0.0393    1.4863 H   0  0  0  0  0  0  0  0  0  0  0  0
   -0.2191    0.7826    1.5827 H   0  0  0  0  0  0  0  0  0  0  0  0
   -0.7655    0.0153   -0.7374 H   0  0  0  0  0  0  0  0  0  0  0  0
    0.7995   -0.8055   -0.8338 H   0  0  0  0  0  0  0  0  0  0  0  0
    1.4109    0.5943   -2.6503 H   0  0  0  0  0  0  0  0  0  0  0  0
   -0.1351    1.4564   -2.5499 H   0  0  0  0  0  0  0  0  0  0  0  0
    1.0685    3.5547   -1.9972 H   0  0  0  0  0  0  0  0  0  0  0  0
    1.5164    2.9059   -3.5662 H   0  0  0  0  0  0  0  0  0  0  0  0
    3.6176    1.9441   -2.5755 H   0  0  0  0  0  0  0  0  0  0  0  0
    3.1625    2.5897   -0.9974 H   0  0  0  0  0  0  0  0  0  0  0  0
    3.5436    3.6901   -2.3264 H   0  0  0  0  0  0  0  0  0  0  0  0
  1  2  1  0
  1  5  1  0
  1  6  1  0
  1  7  1  0
  2  3  1  0
  2  8  1  0
  2  9  1  0
  3  4  1  0
  3 10  1  0
  4 12  1  0
  4 13  1  0
  4 14  1  0
 11 15  1  0
 15 16  1  0
 15 21  1  0
 15 22  1  0
 16 17  1  0
 16 23  1  0
 16 24  1  0
 17 18  1  0
 18 19  1  0
 18 25  1  0
 18 26  1  0
 19 20  1  0
 19 27  1  0
 19 28  1  0
 20 29  1  0
 20 30  1  0
 20 31  1  0
M  RAD  1   3   2
M  END
>  <reaction>  (14) 
rmg_rxn_159

>  <mol_properties>  (14) 
{"1": {"label": "*0", "atom_type": "Cs"}, "2": {"label": "*1", "atom_type": "Cs"}, "10": {"label": "*2", "atom_type": "H0"}, "14": {"label": "*3", "atom_type": "Cs"}, "15": {"label": "*4", "atom_type": "Cs"}}

>  <type>  (14) 
unop_10

>  <geom_source>  (14) 
Heuristics

$$$$

     RDKit          3D

 31 29  0  0  0  0  0  0  0  0999 V2000
   -1.9048   -3.4499   -1.7303 C   0  0  0  0  0  0  0  0  0  0  0  0
   -1.9048   -3.4499   -0.2076 C   0  0  0  0  0  0  0  0  0  0  0  0
   -1.9048   -2.0475    0.3898 C   0  0  0  0  0  3  0  0  0  0  0  0
   -1.9048   -2.0475    1.9125 C   0  0  0  0  0  0  0  0  0  0  0  0
   -1.0233   -2.9365   -2.1217 H   0  0  0  0  0  0  0  0  0  0  0  0
   -2.7863   -2.9365   -2.1217 H   0  0  0  0  0  0  0  0  0  0  0  0
   -1.9048   -4.4650   -2.1307 H   0  0  0  0  0  0  0  0  0  0  0  0
   -2.7798   -3.9958    0.1597 H   0  0  0  0  0  0  0  0  0  0  0  0
   -1.0297   -3.9958    0.1597 H   0  0  0  0  0  0  0  0  0  0  0  0
   -2.7798   -1.5016    0.0224 H   0  0  0  0  0  0  0  0  0  0  0  0
   -0.8547   -1.3924   -0.0510 H   0  0  0  0  0  0  0  0  0  0  0  0
   -1.0233   -2.5608    2.3038 H   0  0  0  0  0  0  0  0  0  0  0  0
   -2.7863   -2.5608    2.3038 H   0  0  0  0  0  0  0  0  0  0  0  0
   -1.9048   -1.0324    2.3128 H   0  0  0  0  0  0  0  0  0  0  0  0
    0.1918   -0.7396   -0.4903 C   0  0  0  0  0  0  0  0  0  0  0  0
    0.6486    0.2698    0.5373 C   0  0  0  0  0  0  0  0  0  0  0  0
    1.2749    1.3407   -0.1219 O   0  0  0  0  0  0  0  0  0  0  0  0
    1.7370    2.3388    0.7530 C   0  0  0  0  0  0  0  0  0  0  0  0
    2.3584    3.4626   -0.0509 C   0  0  0  0  0  0  0  0  0  0  0  0
    1.3642    4.1644   -0.9665 C   0  0  0  0  0  0  0  0  0  0  0  0
   -0.5143   -0.2842   -1.1856 H   0  0  0  0  0  0  0  0  0  0  0  0
    1.0419   -1.1160   -1.0604 H   0  0  0  0  0  0  0  0  0  0  0  0
    1.3486   -0.1946    1.2476 H   0  0  0  0  0  0  0  0  0  0  0  0
   -0.2077    0.6385    1.1212 H   0  0  0  0  0  0  0  0  0  0  0  0
    0.9005    2.7241    1.3573 H   0  0  0  0  0  0  0  0  0  0  0  0
    2.4752    1.9147    1.4494 H   0  0  0  0  0  0  0  0  0  0  0  0
    3.1850    3.0537   -0.6377 H   0  0  0  0  0  0  0  0  0  0  0  0
    2.7927    4.1786    0.6523 H   0  0  0  0  0  0  0  0  0  0  0  0
    0.5437    4.5992   -0.3902 H   0  0  0  0  0  0  0  0  0  0  0  0
    0.9359    3.4623   -1.6818 H   0  0  0  0  0  0  0  0  0  0  0  0
    1.8447    4.9695   -1.5243 H   0  0  0  0  0  0  0  0  0  0  0  0
  1  2  1  0
  1  5  1  0
  1  6  1  0
  1  7  1  0
  2  3  1  0
  2  8  1  0
  2  9  1  0
  3  4  1  0
  3 10  1  0
  4 12  1  0
  4 13  1  0
  4 14  1  0
 11 15  1  0
 15 16  1  0
 15 21  1  0
 15 22  1  0
 16 17  1  0
 16 23  1  0
 16 24  1  0
 17 18  1  0
 18 19  1  0
 18 25  1  0
 18 26  1  0
 19 20  1  0
 19 27  1  0
 19 28  1  0
 20 29  1  0
 20 30  1  0
 20 31  1  0
M  RAD  1   3   2
M  END
>  <reaction>  (15) 
rmg_rxn_159

>  <mol_properties>  (15) 
{"1": {"label": "*0", "atom_type": "Cs"}, "2": {"label": "*1", "atom_type": "Cs"}, "10": {"label": "*2", "atom_type": "H0"}, "14": {"label": "*3", "atom_type": "Cs"}, "15": {"label": "*4", "atom_type": "Cs"}}

>  <type>  (15) 
unop_11

>  <geom_source>  (15) 
Heuristics

$$$$

     RDKit          3D

 31 29  0  0  0  0  0  0  0  0999 V2000
   -2.6986   -1.7499   -0.5968 C   0  0  0  0  0  0  0  0  0  0  0  0
   -2.6986   -1.7499    0.9259 C   0  0  0  0  0  0  0  0  0  0  0  0
   -2.6986   -0.3475    1.5233 C   0  0  0  0  0  3  0  0  0  0  0  0
   -2.6986   -0.3475    3.0460 C   0  0  0  0  0  0  0  0  0  0  0  0
   -1.8171   -1.2365   -0.9881 H   0  0  0  0  0  0  0  0  0  0  0  0
   -3.5801   -1.2365   -0.9881 H   0  0  0  0  0  0  0  0  0  0  0  0
   -2.6986   -2.7650   -0.9971 H   0  0  0  0  0  0  0  0  0  0  0  0
   -3.5736   -2.2957    1.2932 H   0  0  0  0  0  0  0  0  0  0  0  0
   -1.8236   -2.2957    1.2932 H   0  0  0  0  0  0  0  0  0  0  0  0
   -3.5736    0.1984    1.1560 H   0  0  0  0  0  0  0  0  0  0  0  0
   -1.6485    0.3076    1.0825 H   0  0  0  0  0  0  0  0  0  0  0  0
   -1.8171   -0.8608    3.4374 H   0  0  0  0  0  0  0  0  0  0  0  0
   -3.5801   -0.8608    3.4374 H   0  0  0  0  0  0  0  0  0  0  0  0
   -2.6986    0.6676    3.4464 H   0  0  0  0  0  0  0  0  0  0  0  0
   -0.6020    0.9604    0.6432 C   0  0  0  0  0  0  0  0  0  0  0  0
    0.2089    0.0862   -0.2850 C   0  0  0  0  0  0  0  0  0  0  0  0
    1.3220    0.8126   -0.7397 O   0  0  0  0  0  0  0  0  0  0  0  0
    2.1443    0.0813   -1.6138 C   0  0  0  0  0  0  0  0  0  0  0  0
    3.3318    0.9320   -2.0156 C   0  0  0  0  0  0  0  0  0  0  0  0
    4.2281    1.3017   -0.8412 C   0  0  0  0  0  0  0  0  0  0  0  0
   -0.0012    1.2690    1.4995 H   0  0  0  0  0  0  0  0  0  0  0  0
   -0.9448    1.8555    0.1229 H   0  0  0  0  0  0  0  0  0  0  0  0
   -0.4028   -0.2375   -1.1403 H   0  0  0  0  0  0  0  0  0  0  0  0
    0.5424   -0.8230    0.2367 H   0  0  0  0  0  0  0  0  0  0  0  0
    2.4898   -0.8407   -1.1199 H   0  0  0  0  0  0  0  0  0  0  0  0
    1.5721   -0.2193   -2.5037 H   0  0  0  0  0  0  0  0  0  0  0  0
    2.9611    1.8368   -2.5042 H   0  0  0  0  0  0  0  0  0  0  0  0
    3.9035    0.3784   -2.7656 H   0  0  0  0  0  0  0  0  0  0  0  0
    4.6256    0.4060   -0.3573 H   0  0  0  0  0  0  0  0  0  0  0  0
    3.6716    1.8672   -0.0938 H   0  0  0  0  0  0  0  0  0  0  0  0
    5.0737    1.9085   -1.1684 H   0  0  0  0  0  0  0  0  0  0  0  0
  1  2  1  0
  1  5  1  0
  1  6  1  0
  1  7  1  0
  2  3  1  0
  2  8  1  0
  2  9  1  0
  3  4  1  0
  3 10  1  0
  4 12  1  0
  4 13  1  0
  4 14  1  0
 11 15  1  0
 15 16  1  0
 15 21  1  0
 15 22  1  0
 16 17  1  0
 16 23  1  0
 16 24  1  0
 17 18  1  0
 18 19  1  0
 18 25  1  0
 18 26  1  0
 19 20  1  0
 19 27  1  0
 19 28  1  0
 20 29  1  0
 20 30  1  0
 20 31  1  0
M  RAD  1   3   2
M  END
>  <reaction>  (16) 
rmg_rxn_159

>  <mol_properties>  (16) 
{"1": {"label": "*0", "atom_type": "Cs"}, "2": {"label": "*1", "atom_type": "Cs"}, "10": {"label": "*2", "atom_type": "H0"}, "14": {"label": "*3", "atom_type": "Cs"}, "15": {"label": "*4", "atom_type": "Cs"}}

>  <type>  (16) 
unop_12

>  <geom_source>  (16) 
Heuristics

$$$$

     RDKit          3D

 31 29  0  0  0  0  0  0  0  0999 V2000
   -2.1621   -0.0999    1.0784 O   0  0  0  0  0  0  0  0  0  0  0  0
   -3.6870    1.7603    1.1457 C   0  0  0  0  0  0  0  0  0  0  0  0
    3.2856   -1.1826    0.0991 C   0  0  0  0  0  0  0  0  0  0  0  0
   -2.2615    1.2719    1.4044 C   0  0  0  0  0  0  0  0  0  0  0  0
   -0.8156   -0.5296    1.1437 C   0  0  0  0  0  0  0  0  0  0  0  0
   -4.0447    1.7053   -0.3382 C   0  0  0  0  0  0  0  0  0  0  0  0
    3.4787    0.3286    0.0121 C   0  0  0  0  0  0  0  0  0  0  0  0
   -0.1871   -0.5080   -0.2441 C   0  0  0  0  0  0  0  0  0  0  0  0
    2.3767   -1.6522   -2.2347 C   0  0  0  0  0  0  0  0  0  0  0  0
    2.0895   -1.6515   -0.7355 C   0  0  0  0  0  3  0  0  0  0  0  0
   -3.7805    2.8099    1.4995 H   0  0  0  0  0  0  0  0  0  0  0  0
   -4.4043    1.1363    1.7218 H   0  0  0  0  0  0  0  0  0  0  0  0
    4.2140   -1.7035   -0.2217 H   0  0  0  0  0  0  0  0  0  0  0  0
    3.0967   -1.4479    1.1616 H   0  0  0  0  0  0  0  0  0  0  0  0
   -0.8068   -1.5781    1.5084 H   0  0  0  0  0  0  0  0  0  0  0  0
   -0.1883    0.0584    1.8550 H   0  0  0  0  0  0  0  0  0  0  0  0
   -1.5555    1.8894    0.8023 H   0  0  0  0  0  0  0  0  0  0  0  0
   -2.0364    1.4194    2.4847 H   0  0  0  0  0  0  0  0  0  0  0  0
   -0.7872   -1.1281   -0.9433 H   0  0  0  0  0  0  0  0  0  0  0  0
   -0.1372    0.5314   -0.6304 H   0  0  0  0  0  0  0  0  0  0  0  0
    1.0186   -0.9899   -0.1809 H   0  0  0  0  0  0  0  0  0  0  0  0
   -3.9990    0.6600   -0.7108 H   0  0  0  0  0  0  0  0  0  0  0  0
   -3.3453    2.3356   -0.9277 H   0  0  0  0  0  0  0  0  0  0  0  0
   -5.0766    2.0878   -0.4852 H   0  0  0  0  0  0  0  0  0  0  0  0
    4.2751    0.6408    0.7202 H   0  0  0  0  0  0  0  0  0  0  0  0
    2.5379    0.8542    0.2821 H   0  0  0  0  0  0  0  0  0  0  0  0
    3.7882    0.6271   -1.0109 H   0  0  0  0  0  0  0  0  0  0  0  0
    1.4954   -2.0566   -2.7747 H   0  0  0  0  0  0  0  0  0  0  0  0
    2.5609   -0.6203   -2.5971 H   0  0  0  0  0  0  0  0  0  0  0  0
    3.2573   -2.2900   -2.4616 H   0  0  0  0  0  0  0  0  0  0  0  0
    1.8007   -2.6781   -0.4221 H   0  0  0  0  0  0  0  0  0  0  0  0
  1  5  1  0
  1  4  1  0
  2  6  1  0
  2  4  1  0
  2 11  1  0
  2 12  1  0
  3  7  1  0
  3 10  1  0
  3 13  1  0
  3 14  1  0
  4 17  1  0
  4 18  1  0
  5  8  1  0
  5 15  1  0
  5 16  1  0
  6 22  1  0
  6 23  1  0
  6 24  1  0
  7 25  1  0
  7 26  1  0
  7 27  1  0
  8 19  1  0
  8 20  1  0
  8 21  1  0
  9 10  1  0
  9 28  1  0
  9 29  1  0
  9 30  1  0
 10 31  1  0
M  RAD  1  10   2
M  END
>  <reaction>  (17) 
rmg_rxn_159

>  <mol_properties>  (17) 
{"1": {"label": "*0", "atom_type": "Cs"}, "2": {"label": "*1", "atom_type": "Cs"}, "10": {"label": "*2", "atom_type": "H0"}, "14": {"label": "*3", "atom_type": "Cs"}, "15": {"label": "*4", "atom_type": "Cs"}}

>  <type>  (17) 
unop_13

>  <geom_source>  (17) 
AutoTST

$$$$

     RDKit          3D

 31 29  0  0  0  0  0  0  0  0999 V2000
   -2.2255   -2.1737   -0.1089 C   0  0  0  0  0  0  0  0  0  0  0  0
   -2.2255   -2.1737    1.4138 C   0  0  0  0  0  0  0  0  0  0  0  0
   -2.2255   -0.7713    2.0112 C   0  0  0  0  0  3  0  0  0  0  0  0
   -2.2255   -0.7713    3.5339 C   0  0  0  0  0  0  0  0  0  0  0  0
   -1.3440   -1.6603   -0.5003 H   0  0  0  0  0  0  0  0  0  0  0  0
   -3.1070   -1.6603   -0.5003 H   0  0  0  0  0  0  0  0  0  0  0  0
   -2.2255   -3.1888   -0.5093 H   0  0  0  0  0  0  0  0  0  0  0  0
   -3.1006   -2.7196    1.7811 H   0  0  0  0  0  0  0  0  0  0  0  0
   -1.3505   -2.7196    1.7811 H   0  0  0  0  0  0  0  0  0  0  0  0
   -3.1006   -0.2254    1.6439 H   0  0  0  0  0  0  0  0  0  0  0  0
   -1.1755   -0.1163    1.5704 H   0  0  0  0  0  0  0  0  0  0  0  0
   -1.3440   -1.2847    3.9252 H   0  0  0  0  0  0  0  0  0  0  0  0
   -3.1070   -1.2847    3.9252 H   0  0  0  0  0  0  0  0  0  0  0  0
   -2.2255    0.2438    3.9342 H   0  0  0  0  0  0  0  0  0  0  0  0
   -0.1290    0.5366    1.1311 C   0  0  0  0  0  0  0  0  0  0  0  0
    0.2513    0.0494   -0.2479 C   0  0  0  0  0  0  0  0  0  0  0  0
    1.0760    1.0083   -0.8594 O   0  0  0  0  0  0  0  0  0  0  0  0
    1.4865    0.6450   -2.1534 C   0  0  0  0  0  0  0  0  0  0  0  0
    2.3988    1.7187   -2.7106 C   0  0  0  0  0  0  0  0  0  0  0  0
    3.6871    1.8816   -1.9151 C   0  0  0  0  0  0  0  0  0  0  0  0
    0.7616    0.6859    1.7427 H   0  0  0  0  0  0  0  0  0  0  0  0
   -0.6652    1.4840    1.0672 H   0  0  0  0  0  0  0  0  0  0  0  0
   -0.6485   -0.1159   -0.8589 H   0  0  0  0  0  0  0  0  0  0  0  0
    0.7799   -0.9131   -0.1834 H   0  0  0  0  0  0  0  0  0  0  0  0
    2.0151   -0.3209   -2.1216 H   0  0  0  0  0  0  0  0  0  0  0  0
    0.6084    0.5160   -2.8031 H   0  0  0  0  0  0  0  0  0  0  0  0
    1.8496    2.6635   -2.7331 H   0  0  0  0  0  0  0  0  0  0  0  0
    2.6274    1.4602   -3.7483 H   0  0  0  0  0  0  0  0  0  0  0  0
    4.2588    0.9502   -1.9042 H   0  0  0  0  0  0  0  0  0  0  0  0
    3.4711    2.1540   -0.8820 H   0  0  0  0  0  0  0  0  0  0  0  0
    4.3201    2.6578   -2.3475 H   0  0  0  0  0  0  0  0  0  0  0  0
  1  2  1  0
  1  5  1  0
  1  6  1  0
  1  7  1  0
  2  3  1  0
  2  8  1  0
  2  9  1  0
  3  4  1  0
  3 10  1  0
  4 12  1  0
  4 13  1  0
  4 14  1  0
 11 15  1  0
 15 16  1  0
 15 21  1  0
 15 22  1  0
 16 17  1  0
 16 23  1  0
 16 24  1  0
 17 18  1  0
 18 19  1  0
 18 25  1  0
 18 26  1  0
 19 20  1  0
 19 27  1  0
 19 28  1  0
 20 29  1  0
 20 30  1  0
 20 31  1  0
M  RAD  1   3   2
M  END
>  <reaction>  (18) 
rmg_rxn_159

>  <mol_properties>  (18) 
{"1": {"label": "*0", "atom_type": "Cs"}, "2": {"label": "*1", "atom_type": "Cs"}, "10": {"label": "*2", "atom_type": "H0"}, "14": {"label": "*3", "atom_type": "Cs"}, "15": {"label": "*4", "atom_type": "Cs"}}

>  <type>  (18) 
unop_14

>  <geom_source>  (18) 
gaussian_log

$$$$
