
     RDKit          3D

 14 14  0  0  0  0  0  0  0  0999 V2000
   -1.1778    0.2241    0.1818 C   0  0  0  0  0  0  0  0  0  0  0  0
   -0.5633   -1.1636    0.0678 C   0  0  0  0  0  0  0  0  0  0  0  0
    0.6943   -1.1996    0.7146 O   0  0  0  0  0  0  0  0  0  0  0  0
    1.5547   -0.2288    0.2011 C   0  0  0  0  0  0  0  0  0  0  0  0
    1.0729    1.0696    0.3698 O   0  0  0  0  0  0  0  0  0  0  0  0
   -0.1607    1.2493   -0.2989 C   0  0  0  0  0  0  0  0  0  0  0  0
   -2.0927    0.2866   -0.4117 H   0  0  0  0  0  0  0  0  0  0  0  0
   -1.4303    0.4248    1.2248 H   0  0  0  0  0  0  0  0  0  0  0  0
   -1.1822   -1.9235    0.5431 H   0  0  0  0  0  0  0  0  0  0  0  0
   -0.4389   -1.4347   -0.9919 H   0  0  0  0  0  0  0  0  0  0  0  0
    1.7250   -0.4207   -0.8742 H   0  0  0  0  0  0  0  0  0  0  0  0
    2.4896   -0.3010    0.7524 H   0  0  0  0  0  0  0  0  0  0  0  0
   -0.0080    1.1481   -1.3844 H   0  0  0  0  0  0  0  0  0  0  0  0
   -0.4826    2.2695   -0.0942 H   0  0  0  0  0  0  0  0  0  0  0  0
  1  2  1  0
  1  6  1  0
  1  7  1  0
  1  8  1  0
  2  3  1  0
  2  9  1  0
  2 10  1  0
  3  4  1  0
  4  5  1  0
  4 11  1  0
  4 12  1  0
  5  6  1  0
  6 13  1  0
  6 14  1  0
M  END
>  <reaction>  (1) 
rmg_rxn_628

>  <mol_properties>  (1) 
{"0": {"label": "donator", "atom_type": "Cs"}, "6": {"label": "d_hydrogen", "atom_type": "H0"}}

>  <type>  (1) 
r1h

$$$$

     RDKit          3D

 14 13  0  0  0  0  0  0  0  0999 V2000
    2.6694    0.2813   -0.6046 C   0  0  0  0  0  3  0  0  0  0  0  0
    1.5626   -0.5075   -0.0103 C   0  0  0  0  0  0  0  0  0  0  0  0
    0.5522   -0.8487   -0.9278 O   0  0  0  0  0  0  0  0  0  0  0  0
    0.9505   -1.8204   -1.8682 C   0  0  0  0  0  0  0  0  0  0  0  0
   -0.2101   -2.1029   -2.7930 C   0  0  0  0  0  0  0  0  0  0  0  0
    2.4666    0.9443   -1.4355 H   0  0  0  0  0  0  0  0  0  0  0  0
    3.6339    0.3312   -0.1179 H   0  0  0  0  0  0  0  0  0  0  0  0
    1.0573    0.0741    0.7733 H   0  0  0  0  0  0  0  0  0  0  0  0
    1.9580   -1.4106    0.4809 H   0  0  0  0  0  0  0  0  0  0  0  0
    1.8195   -1.4649   -2.4379 H   0  0  0  0  0  0  0  0  0  0  0  0
    1.2587   -2.7372   -1.3440 H   0  0  0  0  0  0  0  0  0  0  0  0
   -0.5051   -1.1971   -3.3238 H   0  0  0  0  0  0  0  0  0  0  0  0
    0.0686   -2.8601   -3.5276 H   0  0  0  0  0  0  0  0  0  0  0  0
   -1.0699   -2.4661   -2.2289 H   0  0  0  0  0  0  0  0  0  0  0  0
  1  2  1  0
  1  6  1  0
  1  7  1  0
  2  3  1  0
  2  8  1  0
  2  9  1  0
  3  4  1  0
  4  5  1  0
  4 10  1  0
  4 11  1  0
  5 12  1  0
  5 13  1  0
  5 14  1  0
M  RAD  1   1   2
M  END
>  <reaction>  (2) 
rmg_rxn_628

>  <mol_properties>  (2) 
{"0": {"label": "acceptor", "atom_type": "Cs"}}

>  <type>  (2) 
r2

$$$$

     RDKit          3D

 15 14  0  0  0  0  0  0  0  0999 V2000
    2.4145    0.0817    0.4065 C   0  0  0  0  0  0  0  0  0  0  0  0
    1.1257   -0.2220   -0.3219 C   0  0  0  0  0  0  0  0  0  0  0  0
    1.0983   -1.5879   -0.6512 O   0  0  0  0  0  0  0  0  0  0  0  0
   -0.0685   -1.9694   -1.3352 C   0  0  0  0  0  0  0  0  0  0  0  0
    0.0024   -3.4478   -1.6403 C   0  0  0  0  0  0  0  0  0  0  0  0
    3.2736   -0.1534   -0.2229 H   0  0  0  0  0  0  0  0  0  0  0  0
    2.4581    1.1389    0.6728 H   0  0  0  0  0  0  0  0  0  0  0  0
    2.4855   -0.5095    1.3201 H   0  0  0  0  0  0  0  0  0  0  0  0
    0.2597    0.0294    0.3083 H   0  0  0  0  0  0  0  0  0  0  0  0
    1.0482    0.3858   -1.2356 H   0  0  0  0  0  0  0  0  0  0  0  0
   -0.9535   -1.7457   -0.7211 H   0  0  0  0  0  0  0  0  0  0  0  0
   -0.1650   -1.3894   -2.2650 H   0  0  0  0  0  0  0  0  0  0  0  0
    0.0831   -4.0247   -0.7183 H   0  0  0  0  0  0  0  0  0  0  0  0
   -0.8950   -3.7674   -2.1724 H   0  0  0  0  0  0  0  0  0  0  0  0
    0.8712   -3.6686   -2.2613 H   0  0  0  0  0  0  0  0  0  0  0  0
  1  2  1  0
  1  6  1  0
  1  7  1  0
  1  8  1  0
  2  3  1  0
  2  9  1  0
  2 10  1  0
  3  4  1  0
  4  5  1  0
  4 11  1  0
  4 12  1  0
  5 13  1  0
  5 14  1  0
  5 15  1  0
M  END
>  <reaction>  (3) 
rmg_rxn_628

>  <mol_properties>  (3) 
{"0": {"label": "a_hydrogen", "atom_type": "H0"}, "1": {"label": "acceptor", "atom_type": "Cs"}}

>  <type>  (3) 
r2h

$$$$

     RDKit          3D

 28 27  0  0  0  0  0  0  0  0999 V2000
   -1.4375    0.7300    0.5543 C   0  0  0  0  0  0  0  0  0  0  0  0
   -0.2914    1.7052    0.6582 C   0  0  0  0  0  0  0  0  0  0  0  0
   -0.3240    2.6120   -0.4396 O   0  0  0  0  0  0  0  0  0  0  0  0
   -0.3120    1.9254   -1.6527 C   0  0  0  0  0  0  0  0  0  0  0  0
   -1.4189    1.0909   -1.8207 O   0  0  0  0  0  0  0  0  0  0  0  0
   -1.4555    0.0890   -0.8110 C   0  0  0  0  0  0  0  0  0  0  0  0
   -1.1929   -0.2361    1.4520 H   0  0  0  0  0  0  0  0  0  0  0  0
   -2.3980    1.1530    0.8456 H   0  0  0  0  0  0  0  0  0  0  0  0
   -0.3445    2.3100    1.5620 H   0  0  0  0  0  0  0  0  0  0  0  0
    0.6608    1.1574    0.6547 H   0  0  0  0  0  0  0  0  0  0  0  0
    0.6131    1.3243   -1.7261 H   0  0  0  0  0  0  0  0  0  0  0  0
   -0.3461    2.6691   -2.4463 H   0  0  0  0  0  0  0  0  0  0  0  0
   -0.5810   -0.5682   -0.9246 H   0  0  0  0  0  0  0  0  0  0  0  0
   -2.3584   -0.4946   -0.9845 H   0  0  0  0  0  0  0  0  0  0  0  0
   -0.8272   -1.2364    2.2778 C   0  0  0  0  0  3  0  0  0  0  0  0
   -0.0207   -2.1741    1.4353 C   0  0  0  0  0  0  0  0  0  0  0  0
    1.0814   -1.4768    0.9086 O   0  0  0  0  0  0  0  0  0  0  0  0
    1.8539   -2.2397    0.0138 C   0  0  0  0  0  0  0  0  0  0  0  0
    2.9652   -1.3715   -0.5278 C   0  0  0  0  0  0  0  0  0  0  0  0
   -0.2575   -0.7416    3.0618 H   0  0  0  0  0  0  0  0  0  0  0  0
   -1.7621   -1.6572    2.6407 H   0  0  0  0  0  0  0  0  0  0  0  0
   -0.6373   -2.5781    0.6177 H   0  0  0  0  0  0  0  0  0  0  0  0
    0.3290   -3.0366    2.0260 H   0  0  0  0  0  0  0  0  0  0  0  0
    2.2639   -3.1207    0.5276 H   0  0  0  0  0  0  0  0  0  0  0  0
    1.2189   -2.6071   -0.8059 H   0  0  0  0  0  0  0  0  0  0  0  0
    3.5985   -1.0100    0.2829 H   0  0  0  0  0  0  0  0  0  0  0  0
    3.5832   -1.9383   -1.2254 H   0  0  0  0  0  0  0  0  0  0  0  0
    2.5532   -0.5086   -1.0534 H   0  0  0  0  0  0  0  0  0  0  0  0
  1  2  1  0
  1  6  1  0
  1  7  1  0
  1  8  1  0
  2  3  1  0
  2  9  1  0
  2 10  1  0
  3  4  1  0
  4  5  1  0
  4 11  1  0
  4 12  1  0
  5  6  1  0
  6 13  1  0
  6 14  1  0
 15 16  1  0
 15 20  1  0
 15 21  1  0
 16 17  1  0
 16 22  1  0
 16 23  1  0
 17 18  1  0
 18 19  1  0
 18 24  1  0
 18 25  1  0
 19 26  1  0
 19 27  1  0
 19 28  1  0
M  RAD  1  15   2
M  END
>  <reaction>  (4) 
rmg_rxn_628

>  <mol_properties>  (4) 
{"0": {"label": "*1", "atom_type": "Cs"}, "1": {"label": "*0", "atom_type": "Cs"}, "6": {"label": "*2", "atom_type": "H0"}, "14": {"label": "*3", "atom_type": "Cs"}, "15": {"label": "*4", "atom_type": "Cs"}}

>  <type>  (4) 
ts

$$$$

     RDKit          3D

 28 27  0  0  0  0  0  0  0  0999 V2000
   -0.4490    0.2631   -0.6028 C   0  0  0  0  0  3  0  0  0  0  0  0
   -0.4490    0.2631   -2.1248 C   0  0  0  0  0  0  0  0  0  0  0  0
   -0.4490    1.5895   -2.6169 O   0  0  0  0  0  0  0  0  0  0  0  0
   -1.5318    2.3138   -2.1176 C   0  0  0  0  0  0  0  0  0  0  0  0
   -1.5205    2.4201   -0.7265 O   0  0  0  0  0  0  0  0  0  0  0  0
   -1.5884    1.1464   -0.1147 C   0  0  0  0  0  0  0  0  0  0  0  0
   -0.5866   -0.9572   -0.1445 H   0  0  0  0  0  0  0  0  0  0  0  0
    0.5003    0.6616   -0.2397 H   0  0  0  0  0  0  0  0  0  0  0  0
    0.4368   -0.2224   -2.5321 H   0  0  0  0  0  0  0  0  0  0  0  0
   -1.3365   -0.2681   -2.5015 H   0  0  0  0  0  0  0  0  0  0  0  0
   -2.4744    1.8357   -2.4418 H   0  0  0  0  0  0  0  0  0  0  0  0
   -1.4595    3.3220   -2.5196 H   0  0  0  0  0  0  0  0  0  0  0  0
   -2.5561    0.6773   -0.3499 H   0  0  0  0  0  0  0  0  0  0  0  0
   -1.5431    1.3124    0.9608 H   0  0  0  0  0  0  0  0  0  0  0  0
   -0.7239   -2.1756    0.3130 C   0  0  0  0  0  0  0  0  0  0  0  0
    0.4663   -2.5600    1.1611 C   0  0  0  0  0  0  0  0  0  0  0  0
    1.1170   -1.3909    1.5913 O   0  0  0  0  0  0  0  0  0  0  0  0
    2.2436   -1.6467    2.3915 C   0  0  0  0  0  0  0  0  0  0  0  0
    2.8659   -0.3310    2.7981 C   0  0  0  0  0  0  0  0  0  0  0  0
   -1.4223   -1.5667    0.8882 H   0  0  0  0  0  0  0  0  0  0  0  0
   -1.2458   -3.0691   -0.0331 H   0  0  0  0  0  0  0  0  0  0  0  0
    1.1629   -3.1865    0.5844 H   0  0  0  0  0  0  0  0  0  0  0  0
    0.1435   -3.1513    2.0308 H   0  0  0  0  0  0  0  0  0  0  0  0
    1.9490   -2.2236    3.2807 H   0  0  0  0  0  0  0  0  0  0  0  0
    2.9684   -2.2587    1.8343 H   0  0  0  0  0  0  0  0  0  0  0  0
    2.1529    0.2704    3.3632 H   0  0  0  0  0  0  0  0  0  0  0  0
    3.7443   -0.5049    3.4214 H   0  0  0  0  0  0  0  0  0  0  0  0
    3.1717    0.2353    1.9177 H   0  0  0  0  0  0  0  0  0  0  0  0
  1  2  1  0
  1  6  1  0
  1  8  1  0
  2  3  1  0
  2  9  1  0
  2 10  1  0
  3  4  1  0
  4  5  1  0
  4 11  1  0
  4 12  1  0
  5  6  1  0
  6 13  1  0
  6 14  1  0
  7 15  1  0
 15 16  1  0
 15 20  1  0
 15 21  1  0
 16 17  1  0
 16 22  1  0
 16 23  1  0
 17 18  1  0
 18 19  1  0
 18 24  1  0
 18 25  1  0
 19 26  1  0
 19 27  1  0
 19 28  1  0
M  RAD  1   1   2
M  END
>  <reaction>  (5) 
rmg_rxn_628

>  <mol_properties>  (5) 
{"0": {"label": "*1", "atom_type": "Cs"}, "1": {"label": "*0", "atom_type": "Cs"}, "6": {"label": "*2", "atom_type": "H0"}, "14": {"label": "*3", "atom_type": "Cs"}, "15": {"label": "*4", "atom_type": "Cs"}}

>  <type>  (5) 
unop_1

>  <geom_source>  (5) 
Heuristics

$$$$

     RDKit          3D

 28 27  0  0  0  0  0  0  0  0999 V2000
   -0.3641    0.8483    0.7102 C   0  0  0  0  0  3  0  0  0  0  0  0
   -0.3641    0.8483   -0.8119 C   0  0  0  0  0  0  0  0  0  0  0  0
   -0.3641    2.1747   -1.3040 O   0  0  0  0  0  0  0  0  0  0  0  0
   -1.4469    2.8990   -0.8047 C   0  0  0  0  0  0  0  0  0  0  0  0
   -1.4356    3.0053    0.5864 O   0  0  0  0  0  0  0  0  0  0  0  0
   -1.5035    1.7316    1.1983 C   0  0  0  0  0  0  0  0  0  0  0  0
   -0.5017   -0.3720    1.1684 H   0  0  0  0  0  0  0  0  0  0  0  0
    0.5852    1.2469    1.0732 H   0  0  0  0  0  0  0  0  0  0  0  0
    0.5217    0.3628   -1.2192 H   0  0  0  0  0  0  0  0  0  0  0  0
   -1.2516    0.3171   -1.1886 H   0  0  0  0  0  0  0  0  0  0  0  0
   -2.3895    2.4210   -1.1289 H   0  0  0  0  0  0  0  0  0  0  0  0
   -1.3746    3.9072   -1.2066 H   0  0  0  0  0  0  0  0  0  0  0  0
   -2.4712    1.2625    0.9630 H   0  0  0  0  0  0  0  0  0  0  0  0
   -1.4582    1.8976    2.2737 H   0  0  0  0  0  0  0  0  0  0  0  0
   -0.6390   -1.5904    1.6259 C   0  0  0  0  0  0  0  0  0  0  0  0
   -0.0393   -2.5884    0.6626 C   0  0  0  0  0  0  0  0  0  0  0  0
    1.1805   -2.0826    0.1817 O   0  0  0  0  0  0  0  0  0  0  0  0
    1.8181   -2.9449   -0.7266 C   0  0  0  0  0  0  0  0  0  0  0  0
    3.1125   -2.3104   -1.1799 C   0  0  0  0  0  0  0  0  0  0  0  0
    0.0346   -1.4181    2.4661 H   0  0  0  0  0  0  0  0  0  0  0  0
   -1.5888   -1.9625    2.0131 H   0  0  0  0  0  0  0  0  0  0  0  0
   -0.7260   -2.7727   -0.1769 H   0  0  0  0  0  0  0  0  0  0  0  0
    0.1262   -3.5540    1.1631 H   0  0  0  0  0  0  0  0  0  0  0  0
    2.0130   -3.9161   -0.2481 H   0  0  0  0  0  0  0  0  0  0  0  0
    1.1608   -3.1348   -1.5881 H   0  0  0  0  0  0  0  0  0  0  0  0
    3.7709   -2.1351   -0.3283 H   0  0  0  0  0  0  0  0  0  0  0  0
    3.6262   -2.9633   -1.8873 H   0  0  0  0  0  0  0  0  0  0  0  0
    2.9192   -1.3543   -1.6675 H   0  0  0  0  0  0  0  0  0  0  0  0
  1  2  1  0
  1  6  1  0
  1  8  1  0
  2  3  1  0
  2  9  1  0
  2 10  1  0
  3  4  1  0
  4  5  1  0
  4 11  1  0
  4 12  1  0
  5  6  1  0
  6 13  1  0
  6 14  1  0
  7 15  1  0
 15 16  1  0
 15 20  1  0
 15 21  1  0
 16 17  1  0
 16 22  1  0
 16 23  1  0
 17 18  1  0
 18 19  1  0
 18 24  1  0
 18 25  1  0
 19 26  1  0
 19 27  1  0
 19 28  1  0
M  RAD  1   1   2
M  END
>  <reaction>  (6) 
rmg_rxn_628

>  <mol_properties>  (6) 
{"0": {"label": "*1", "atom_type": "Cs"}, "1": {"label": "*0", "atom_type": "Cs"}, "6": {"label": "*2", "atom_type": "H0"}, "14": {"label": "*3", "atom_type": "Cs"}, "15": {"label": "*4", "atom_type": "Cs"}}

>  <type>  (6) 
unop_2

>  <geom_source>  (6) 
Heuristics

$$$$

     RDKit          3D

 28 27  0  0  0  0  0  0  0  0999 V2000
    0.0876    0.1155   -0.9543 C   0  0  0  0  0  3  0  0  0  0  0  0
    0.0876    0.1155   -2.4763 C   0  0  0  0  0  0  0  0  0  0  0  0
    0.0876    1.4419   -2.9684 O   0  0  0  0  0  0  0  0  0  0  0  0
   -0.9952    2.1662   -2.4691 C   0  0  0  0  0  0  0  0  0  0  0  0
   -0.9839    2.2725   -1.0781 O   0  0  0  0  0  0  0  0  0  0  0  0
   -1.0518    0.9987   -0.4662 C   0  0  0  0  0  0  0  0  0  0  0  0
   -0.0499   -1.1049   -0.4960 H   0  0  0  0  0  0  0  0  0  0  0  0
    1.0370    0.5140   -0.5913 H   0  0  0  0  0  0  0  0  0  0  0  0
    0.9734   -0.3700   -2.8837 H   0  0  0  0  0  0  0  0  0  0  0  0
   -0.7999   -0.4158   -2.8530 H   0  0  0  0  0  0  0  0  0  0  0  0
   -1.9377    1.6881   -2.7933 H   0  0  0  0  0  0  0  0  0  0  0  0
   -0.9229    3.1743   -2.8711 H   0  0  0  0  0  0  0  0  0  0  0  0
   -2.0194    0.5296   -0.7015 H   0  0  0  0  0  0  0  0  0  0  0  0
   -1.0065    1.1647    0.6093 H   0  0  0  0  0  0  0  0  0  0  0  0
   -0.1873   -2.3232   -0.0385 C   0  0  0  0  0  0  0  0  0  0  0  0
    0.5084   -2.4696    1.2950 C   0  0  0  0  0  0  0  0  0  0  0  0
    0.4564   -1.2405    1.9744 O   0  0  0  0  0  0  0  0  0  0  0  0
    1.0810   -1.2764    3.2328 C   0  0  0  0  0  0  0  0  0  0  0  0
    0.9692    0.0867    3.8755 C   0  0  0  0  0  0  0  0  0  0  0  0
   -1.2294   -2.0353    0.1038 H   0  0  0  0  0  0  0  0  0  0  0  0
   -0.1593   -3.2672   -0.5851 H   0  0  0  0  0  0  0  0  0  0  0  0
    1.5556   -2.7745    1.1507 H   0  0  0  0  0  0  0  0  0  0  0  0
    0.0237   -3.2521    1.8975 H   0  0  0  0  0  0  0  0  0  0  0  0
    0.6054   -2.0400    3.8660 H   0  0  0  0  0  0  0  0  0  0  0  0
    2.1372   -1.5624    3.1193 H   0  0  0  0  0  0  0  0  0  0  0  0
   -0.0776    0.3648    4.0019 H   0  0  0  0  0  0  0  0  0  0  0  0
    1.4483    0.0828    4.8558 H   0  0  0  0  0  0  0  0  0  0  0  0
    1.4533    0.8422    3.2556 H   0  0  0  0  0  0  0  0  0  0  0  0
  1  2  1  0
  1  6  1  0
  1  8  1  0
  2  3  1  0
  2  9  1  0
  2 10  1  0
  3  4  1  0
  4  5  1  0
  4 11  1  0
  4 12  1  0
  5  6  1  0
  6 13  1  0
  6 14  1  0
  7 15  1  0
 15 16  1  0
 15 20  1  0
 15 21  1  0
 16 17  1  0
 16 22  1  0
 16 23  1  0
 17 18  1  0
 18 19  1  0
 18 24  1  0
 18 25  1  0
 19 26  1  0
 19 27  1  0
 19 28  1  0
M  RAD  1   1   2
M  END
>  <reaction>  (7) 
rmg_rxn_628

>  <mol_properties>  (7) 
{"0": {"label": "*1", "atom_type": "Cs"}, "1": {"label": "*0", "atom_type": "Cs"}, "6": {"label": "*2", "atom_type": "H0"}, "14": {"label": "*3", "atom_type": "Cs"}, "15": {"label": "*4", "atom_type": "Cs"}}

>  <type>  (7) 
unop_3

>  <geom_source>  (7) 
Heuristics

$$$$

     RDKit          3D

 28 27  0  0  0  0  0  0  0  0999 V2000
    1.0280    1.1060    0.7359 C   0  0  0  0  0  3  0  0  0  0  0  0
    1.0280    1.1060   -0.7862 C   0  0  0  0  0  0  0  0  0  0  0  0
    1.0280    2.4323   -1.2783 O   0  0  0  0  0  0  0  0  0  0  0  0
   -0.0548    3.1567   -0.7790 C   0  0  0  0  0  0  0  0  0  0  0  0
   -0.0435    3.2629    0.6121 O   0  0  0  0  0  0  0  0  0  0  0  0
   -0.1114    1.9892    1.2240 C   0  0  0  0  0  0  0  0  0  0  0  0
    0.8904   -0.1144    1.1941 H   0  0  0  0  0  0  0  0  0  0  0  0
    1.9773    1.5045    1.0989 H   0  0  0  0  0  0  0  0  0  0  0  0
    1.9138    0.6204   -1.1935 H   0  0  0  0  0  0  0  0  0  0  0  0
    0.1405    0.5747   -1.1629 H   0  0  0  0  0  0  0  0  0  0  0  0
   -0.9974    2.6786   -1.1032 H   0  0  0  0  0  0  0  0  0  0  0  0
    0.0175    4.1648   -1.1809 H   0  0  0  0  0  0  0  0  0  0  0  0
   -1.0791    1.5201    0.9887 H   0  0  0  0  0  0  0  0  0  0  0  0
   -0.0661    2.1552    2.2994 H   0  0  0  0  0  0  0  0  0  0  0  0
    0.7531   -1.3328    1.6516 C   0  0  0  0  0  0  0  0  0  0  0  0
   -0.5482   -1.9342    1.1737 C   0  0  0  0  0  0  0  0  0  0  0  0
   -0.3180   -2.6235   -0.0293 O   0  0  0  0  0  0  0  0  0  0  0  0
   -1.4760   -3.2211   -0.5555 C   0  0  0  0  0  0  0  0  0  0  0  0
   -1.1209   -3.9319   -1.8409 C   0  0  0  0  0  0  0  0  0  0  0  0
    1.4953   -2.1135    1.8213 H   0  0  0  0  0  0  0  0  0  0  0  0
    0.5986   -0.7915    2.5863 H   0  0  0  0  0  0  0  0  0  0  0  0
   -1.3007   -1.1472    1.0170 H   0  0  0  0  0  0  0  0  0  0  0  0
   -0.9535   -2.6235    1.9293 H   0  0  0  0  0  0  0  0  0  0  0  0
   -1.8960   -3.9307    0.1727 H   0  0  0  0  0  0  0  0  0  0  0  0
   -2.2433   -2.4545   -0.7396 H   0  0  0  0  0  0  0  0  0  0  0  0
   -0.3710   -4.7021   -1.6571 H   0  0  0  0  0  0  0  0  0  0  0  0
   -2.0064   -4.4045   -2.2687 H   0  0  0  0  0  0  0  0  0  0  0  0
   -0.7181   -3.2267   -2.5688 H   0  0  0  0  0  0  0  0  0  0  0  0
  1  2  1  0
  1  6  1  0
  1  8  1  0
  2  3  1  0
  2  9  1  0
  2 10  1  0
  3  4  1  0
  4  5  1  0
  4 11  1  0
  4 12  1  0
  5  6  1  0
  6 13  1  0
  6 14  1  0
  7 15  1  0
 15 16  1  0
 15 20  1  0
 15 21  1  0
 16 17  1  0
 16 22  1  0
 16 23  1  0
 17 18  1  0
 18 19  1  0
 18 24  1  0
 18 25  1  0
 19 26  1  0
 19 27  1  0
 19 28  1  0
M  RAD  1   1   2
M  END
>  <reaction>  (8) 
rmg_rxn_628

>  <mol_properties>  (8) 
{"0": {"label": "*1", "atom_type": "Cs"}, "1": {"label": "*0", "atom_type": "Cs"}, "6": {"label": "*2", "atom_type": "H0"}, "14": {"label": "*3", "atom_type": "Cs"}, "15": {"label": "*4", "atom_type": "Cs"}}

>  <type>  (8) 
unop_4

>  <geom_source>  (8) 
Heuristics

$$$$

     RDKit          3D

 28 27  0  0  0  0  0  0  0  0999 V2000
    0.8500    0.2129   -0.9594 C   0  0  0  0  0  3  0  0  0  0  0  0
    0.8500    0.2129   -2.4814 C   0  0  0  0  0  0  0  0  0  0  0  0
    0.8500    1.5392   -2.9735 O   0  0  0  0  0  0  0  0  0  0  0  0
   -0.2328    2.2636   -2.4742 C   0  0  0  0  0  0  0  0  0  0  0  0
   -0.2215    2.3698   -1.0831 O   0  0  0  0  0  0  0  0  0  0  0  0
   -0.2894    1.0961   -0.4712 C   0  0  0  0  0  0  0  0  0  0  0  0
    0.7124   -1.0075   -0.5011 H   0  0  0  0  0  0  0  0  0  0  0  0
    1.7993    0.6114   -0.5963 H   0  0  0  0  0  0  0  0  0  0  0  0
    1.7358   -0.2727   -2.8887 H   0  0  0  0  0  0  0  0  0  0  0  0
   -0.0375   -0.3184   -2.8581 H   0  0  0  0  0  0  0  0  0  0  0  0
   -1.1754    1.7855   -2.7984 H   0  0  0  0  0  0  0  0  0  0  0  0
   -0.1605    3.2717   -2.8762 H   0  0  0  0  0  0  0  0  0  0  0  0
   -1.2571    0.6270   -0.7065 H   0  0  0  0  0  0  0  0  0  0  0  0
   -0.2441    1.2621    0.6042 H   0  0  0  0  0  0  0  0  0  0  0  0
    0.5751   -2.2259   -0.0436 C   0  0  0  0  0  0  0  0  0  0  0  0
    0.5750   -2.2271    1.4675 C   0  0  0  0  0  0  0  0  0  0  0  0
   -0.4942   -1.4378    1.9247 O   0  0  0  0  0  0  0  0  0  0  0  0
   -0.5781   -1.3770    3.3262 C   0  0  0  0  0  0  0  0  0  0  0  0
   -1.7539   -0.5089    3.7104 C   0  0  0  0  0  0  0  0  0  0  0  0
   -0.3614   -2.6333   -0.4261 H   0  0  0  0  0  0  0  0  0  0  0  0
    1.3984   -2.8337   -0.4220 H   0  0  0  0  0  0  0  0  0  0  0  0
    1.5259   -1.8297    1.8523 H   0  0  0  0  0  0  0  0  0  0  0  0
    0.4744   -3.2533    1.8510 H   0  0  0  0  0  0  0  0  0  0  0  0
   -0.6970   -2.3897    3.7391 H   0  0  0  0  0  0  0  0  0  0  0  0
    0.3546   -0.9662    3.7404 H   0  0  0  0  0  0  0  0  0  0  0  0
   -2.6809   -0.9232    3.3127 H   0  0  0  0  0  0  0  0  0  0  0  0
   -1.8390   -0.4469    4.7964 H   0  0  0  0  0  0  0  0  0  0  0  0
   -1.6300    0.4995    3.3139 H   0  0  0  0  0  0  0  0  0  0  0  0
  1  2  1  0
  1  6  1  0
  1  8  1  0
  2  3  1  0
  2  9  1  0
  2 10  1  0
  3  4  1  0
  4  5  1  0
  4 11  1  0
  4 12  1  0
  5  6  1  0
  6 13  1  0
  6 14  1  0
  7 15  1  0
 15 16  1  0
 15 20  1  0
 15 21  1  0
 16 17  1  0
 16 22  1  0
 16 23  1  0
 17 18  1  0
 18 19  1  0
 18 24  1  0
 18 25  1  0
 19 26  1  0
 19 27  1  0
 19 28  1  0
M  RAD  1   1   2
M  END
>  <reaction>  (9) 
rmg_rxn_628

>  <mol_properties>  (9) 
{"0": {"label": "*1", "atom_type": "Cs"}, "1": {"label": "*0", "atom_type": "Cs"}, "6": {"label": "*2", "atom_type": "H0"}, "14": {"label": "*3", "atom_type": "Cs"}, "15": {"label": "*4", "atom_type": "Cs"}}

>  <type>  (9) 
unop_5

>  <geom_source>  (9) 
Heuristics

$$$$

     RDKit          3D

 28 27  0  0  0  0  0  0  0  0999 V2000
    1.3736    0.9885    0.3469 C   0  0  0  0  0  3  0  0  0  0  0  0
    1.3736    0.9885   -1.1751 C   0  0  0  0  0  0  0  0  0  0  0  0
    1.3736    2.3149   -1.6672 O   0  0  0  0  0  0  0  0  0  0  0  0
    0.2908    3.0392   -1.1679 C   0  0  0  0  0  0  0  0  0  0  0  0
    0.3020    3.1455    0.2231 O   0  0  0  0  0  0  0  0  0  0  0  0
    0.2342    1.8718    0.8350 C   0  0  0  0  0  0  0  0  0  0  0  0
    1.2360   -0.2319    0.8051 H   0  0  0  0  0  0  0  0  0  0  0  0
    2.3229    1.3870    0.7099 H   0  0  0  0  0  0  0  0  0  0  0  0
    2.2593    0.5030   -1.5825 H   0  0  0  0  0  0  0  0  0  0  0  0
    0.4860    0.4573   -1.5519 H   0  0  0  0  0  0  0  0  0  0  0  0
   -0.6518    2.5611   -1.4921 H   0  0  0  0  0  0  0  0  0  0  0  0
    0.3630    4.0473   -1.5699 H   0  0  0  0  0  0  0  0  0  0  0  0
   -0.7335    1.4026    0.5997 H   0  0  0  0  0  0  0  0  0  0  0  0
    0.2794    2.0378    1.9105 H   0  0  0  0  0  0  0  0  0  0  0  0
    1.0987   -1.4502    1.2626 C   0  0  0  0  0  0  0  0  0  0  0  0
   -0.3634   -1.7846    1.4477 C   0  0  0  0  0  0  0  0  0  0  0  0
   -0.8034   -2.5348    0.3438 O   0  0  0  0  0  0  0  0  0  0  0  0
   -2.1592   -2.8959    0.4246 C   0  0  0  0  0  0  0  0  0  0  0  0
   -2.5285   -3.6947   -0.8039 C   0  0  0  0  0  0  0  0  0  0  0  0
    1.6926   -2.3618    1.1881 H   0  0  0  0  0  0  0  0  0  0  0  0
    1.4631   -0.8666    2.1095 H   0  0  0  0  0  0  0  0  0  0  0  0
   -0.9597   -0.8645    1.5377 H   0  0  0  0  0  0  0  0  0  0  0  0
   -0.5120   -2.3583    2.3745 H   0  0  0  0  0  0  0  0  0  0  0  0
   -2.3364   -3.4872    1.3352 H   0  0  0  0  0  0  0  0  0  0  0  0
   -2.7840   -1.9934    0.4983 H   0  0  0  0  0  0  0  0  0  0  0  0
   -1.9199   -4.5971   -0.8700 H   0  0  0  0  0  0  0  0  0  0  0  0
   -3.5791   -3.9867   -0.7632 H   0  0  0  0  0  0  0  0  0  0  0  0
   -2.3672   -3.1042   -1.7064 H   0  0  0  0  0  0  0  0  0  0  0  0
  1  2  1  0
  1  6  1  0
  1  8  1  0
  2  3  1  0
  2  9  1  0
  2 10  1  0
  3  4  1  0
  4  5  1  0
  4 11  1  0
  4 12  1  0
  5  6  1  0
  6 13  1  0
  6 14  1  0
  7 15  1  0
 15 16  1  0
 15 20  1  0
 15 21  1  0
 16 17  1  0
 16 22  1  0
 16 23  1  0
 17 18  1  0
 18 19  1  0
 18 24  1  0
 18 25  1  0
 19 26  1  0
 19 27  1  0
 19 28  1  0
M  RAD  1   1   2
M  END
>  <reaction>  (10) 
rmg_rxn_628

>  <mol_properties>  (10) 
{"0": {"label": "*1", "atom_type": "Cs"}, "1": {"label": "*0", "atom_type": "Cs"}, "6": {"label": "*2", "atom_type": "H0"}, "14": {"label": "*3", "atom_type": "Cs"}, "15": {"label": "*4", "atom_type": "Cs"}}

>  <type>  (10) 
unop_6

>  <geom_source>  (10) 
Heuristics

$$$$

     RDKit          3D

 28 27  0  0  0  0  0  0  0  0999 V2000
    1.4884    0.7983   -0.1320 C   0  0  0  0  0  3  0  0  0  0  0  0
    1.4884    0.7983   -1.6541 C   0  0  0  0  0  0  0  0  0  0  0  0
    1.4884    2.1247   -2.1462 O   0  0  0  0  0  0  0  0  0  0  0  0
    0.4056    2.8490   -1.6469 C   0  0  0  0  0  0  0  0  0  0  0  0
    0.4169    2.9553   -0.2558 O   0  0  0  0  0  0  0  0  0  0  0  0
    0.3490    1.6816    0.3561 C   0  0  0  0  0  0  0  0  0  0  0  0
    1.3509   -0.4220    0.3262 H   0  0  0  0  0  0  0  0  0  0  0  0
    2.4378    1.1968    0.2310 H   0  0  0  0  0  0  0  0  0  0  0  0
    2.3742    0.3128   -2.0614 H   0  0  0  0  0  0  0  0  0  0  0  0
    0.6009    0.2671   -2.0308 H   0  0  0  0  0  0  0  0  0  0  0  0
   -0.5370    2.3709   -1.9711 H   0  0  0  0  0  0  0  0  0  0  0  0
    0.4779    3.8572   -2.0489 H   0  0  0  0  0  0  0  0  0  0  0  0
   -0.6186    1.2125    0.1208 H   0  0  0  0  0  0  0  0  0  0  0  0
    0.3943    1.8476    1.4315 H   0  0  0  0  0  0  0  0  0  0  0  0
    1.2135   -1.6404    0.7837 C   0  0  0  0  0  0  0  0  0  0  0  0
   -0.0323   -1.7502    1.6318 C   0  0  0  0  0  0  0  0  0  0  0  0
   -1.0616   -2.3160    0.8601 O   0  0  0  0  0  0  0  0  0  0  0  0
   -2.2683   -2.4596    1.5661 C   0  0  0  0  0  0  0  0  0  0  0  0
   -3.3024   -3.0732    0.6509 C   0  0  0  0  0  0  0  0  0  0  0  0
    1.5262   -2.6251    0.4347 H   0  0  0  0  0  0  0  0  0  0  0  0
    2.0279   -1.2027    1.3632 H   0  0  0  0  0  0  0  0  0  0  0  0
   -0.3383   -0.7580    1.9956 H   0  0  0  0  0  0  0  0  0  0  0  0
    0.1592   -2.3744    2.5172 H   0  0  0  0  0  0  0  0  0  0  0  0
   -2.1121   -3.0951    2.4504 H   0  0  0  0  0  0  0  0  0  0  0  0
   -2.6097   -1.4787    1.9288 H   0  0  0  0  0  0  0  0  0  0  0  0
   -2.9715   -4.0521    0.3024 H   0  0  0  0  0  0  0  0  0  0  0  0
   -4.2498   -3.1945    1.1786 H   0  0  0  0  0  0  0  0  0  0  0  0
   -3.4687   -2.4367   -0.2188 H   0  0  0  0  0  0  0  0  0  0  0  0
  1  2  1  0
  1  6  1  0
  1  8  1  0
  2  3  1  0
  2  9  1  0
  2 10  1  0
  3  4  1  0
  4  5  1  0
  4 11  1  0
  4 12  1  0
  5  6  1  0
  6 13  1  0
  6 14  1  0
  7 15  1  0
 15 16  1  0
 15 20  1  0
 15 21  1  0
 16 17  1  0
 16 22  1  0
 16 23  1  0
 17 18  1  0
 18 19  1  0
 18 24  1  0
 18 25  1  0
 19 26  1  0
 19 27  1  0
 19 28  1  0
M  RAD  1   1   2
M  END
>  <reaction>  (11) 
rmg_rxn_628

>  <mol_properties>  (11) 
{"0": {"label": "*1", "atom_type": "Cs"}, "1": {"label": "*0", "atom_type": "Cs"}, "6": {"label": "*2", "atom_type": "H0"}, "14": {"label": "*3", "atom_type": "Cs"}, "15": {"label": "*4", "atom_type": "Cs"}}

>  <type>  (11) 
unop_7

>  <geom_source>  (11) 
Heuristics

$$$$

     RDKit          3D

 28 27  0  0  0  0  0  0  0  0999 V2000
   -0.6653    0.4694   -0.1209 C   0  0  0  0  0  3  0  0  0  0  0  0
   -0.6653    0.4694   -1.6429 C   0  0  0  0  0  0  0  0  0  0  0  0
   -0.6653    1.7958   -2.1350 O   0  0  0  0  0  0  0  0  0  0  0  0
   -1.7481    2.5201   -1.6357 C   0  0  0  0  0  0  0  0  0  0  0  0
   -1.7368    2.6264   -0.2447 O   0  0  0  0  0  0  0  0  0  0  0  0
   -1.8047    1.3526    0.3672 C   0  0  0  0  0  0  0  0  0  0  0  0
   -0.8028   -0.7510    0.3373 H   0  0  0  0  0  0  0  0  0  0  0  0
    0.2841    0.8679    0.2421 H   0  0  0  0  0  0  0  0  0  0  0  0
    0.2205   -0.0161   -2.0503 H   0  0  0  0  0  0  0  0  0  0  0  0
   -1.5528   -0.0618   -2.0197 H   0  0  0  0  0  0  0  0  0  0  0  0
   -2.6906    2.0420   -1.9599 H   0  0  0  0  0  0  0  0  0  0  0  0
   -1.6758    3.5282   -2.0377 H   0  0  0  0  0  0  0  0  0  0  0  0
   -2.7723    0.8835    0.1319 H   0  0  0  0  0  0  0  0  0  0  0  0
   -1.7594    1.5187    1.4427 H   0  0  0  0  0  0  0  0  0  0  0  0
   -0.9401   -1.9693    0.7948 C   0  0  0  0  0  0  0  0  0  0  0  0
    0.4108   -2.6208    0.9799 C   0  0  0  0  0  0  0  0  0  0  0  0
    1.3922   -1.6190    1.0705 O   0  0  0  0  0  0  0  0  0  0  0  0
    2.6900   -2.1292    1.2449 C   0  0  0  0  0  0  0  0  0  0  0  0
    3.6634   -0.9764    1.3300 C   0  0  0  0  0  0  0  0  0  0  0  0
   -1.1689   -1.3176    1.6388 H   0  0  0  0  0  0  0  0  0  0  0  0
   -1.7195   -2.7294    0.7218 H   0  0  0  0  0  0  0  0  0  0  0  0
    0.6340   -3.2894    0.1353 H   0  0  0  0  0  0  0  0  0  0  0  0
    0.4186   -3.2371    1.8912 H   0  0  0  0  0  0  0  0  0  0  0  0
    2.7340   -2.7377    2.1603 H   0  0  0  0  0  0  0  0  0  0  0  0
    2.9494   -2.7899    0.4044 H   0  0  0  0  0  0  0  0  0  0  0  0
    3.4159   -0.3287    2.1718 H   0  0  0  0  0  0  0  0  0  0  0  0
    4.6798   -1.3491    1.4658 H   0  0  0  0  0  0  0  0  0  0  0  0
    3.6312   -0.3809    0.4169 H   0  0  0  0  0  0  0  0  0  0  0  0
  1  2  1  0
  1  6  1  0
  1  8  1  0
  2  3  1  0
  2  9  1  0
  2 10  1  0
  3  4  1  0
  4  5  1  0
  4 11  1  0
  4 12  1  0
  5  6  1  0
  6 13  1  0
  6 14  1  0
  7 15  1  0
 15 16  1  0
 15 20  1  0
 15 21  1  0
 16 17  1  0
 16 22  1  0
 16 23  1  0
 17 18  1  0
 18 19  1  0
 18 24  1  0
 18 25  1  0
 19 26  1  0
 19 27  1  0
 19 28  1  0
M  RAD  1   1   2
M  END
>  <reaction>  (12) 
rmg_rxn_628

>  <mol_properties>  (12) 
{"0": {"label": "*1", "atom_type": "Cs"}, "1": {"label": "*0", "atom_type": "Cs"}, "6": {"label": "*2", "atom_type": "H0"}, "14": {"label": "*3", "atom_type": "Cs"}, "15": {"label": "*4", "atom_type": "Cs"}}

>  <type>  (12) 
unop_8

>  <geom_source>  (12) 
Heuristics

$$$$

     RDKit          3D

 28 27  0  0  0  0  0  0  0  0999 V2000
    0.5342    1.1153    0.9401 C   0  0  0  0  0  3  0  0  0  0  0  0
    0.5342    1.1153   -0.5819 C   0  0  0  0  0  0  0  0  0  0  0  0
    0.5342    2.4417   -1.0740 O   0  0  0  0  0  0  0  0  0  0  0  0
   -0.5485    3.1660   -0.5747 C   0  0  0  0  0  0  0  0  0  0  0  0
   -0.5373    3.2723    0.8164 O   0  0  0  0  0  0  0  0  0  0  0  0
   -0.6052    1.9985    1.4282 C   0  0  0  0  0  0  0  0  0  0  0  0
    0.3967   -0.1051    1.3984 H   0  0  0  0  0  0  0  0  0  0  0  0
    1.4836    1.5138    1.3032 H   0  0  0  0  0  0  0  0  0  0  0  0
    1.4200    0.6298   -0.9892 H   0  0  0  0  0  0  0  0  0  0  0  0
   -0.3533    0.5840   -0.9586 H   0  0  0  0  0  0  0  0  0  0  0  0
   -1.4911    2.6879   -0.8989 H   0  0  0  0  0  0  0  0  0  0  0  0
   -0.4763    4.1741   -0.9767 H   0  0  0  0  0  0  0  0  0  0  0  0
   -1.5728    1.5294    1.1930 H   0  0  0  0  0  0  0  0  0  0  0  0
   -0.5599    2.1645    2.5037 H   0  0  0  0  0  0  0  0  0  0  0  0
    0.2594   -1.3234    1.8559 C   0  0  0  0  0  0  0  0  0  0  0  0
   -0.5474   -2.1629    0.8926 C   0  0  0  0  0  0  0  0  0  0  0  0
    0.2785   -2.5529   -0.1756 O   0  0  0  0  0  0  0  0  0  0  0  0
   -0.3859   -3.3421   -1.1299 C   0  0  0  0  0  0  0  0  0  0  0  0
    0.5856   -3.7051   -2.2290 C   0  0  0  0  0  0  0  0  0  0  0  0
    1.1040   -1.8934    2.2445 H   0  0  0  0  0  0  0  0  0  0  0  0
   -0.3626   -1.0085    2.6953 H   0  0  0  0  0  0  0  0  0  0  0  0
   -1.4076   -1.5920    0.5126 H   0  0  0  0  0  0  0  0  0  0  0  0
   -0.9485   -3.0524    1.4007 H   0  0  0  0  0  0  0  0  0  0  0  0
   -0.7844   -4.2503   -0.6538 H   0  0  0  0  0  0  0  0  0  0  0  0
   -1.2435   -2.7899   -1.5419 H   0  0  0  0  0  0  0  0  0  0  0  0
    1.4290   -4.2654   -1.8238 H   0  0  0  0  0  0  0  0  0  0  0  0
    0.0910   -4.3192   -2.9831 H   0  0  0  0  0  0  0  0  0  0  0  0
    0.9701   -2.8059   -2.7114 H   0  0  0  0  0  0  0  0  0  0  0  0
  1  2  1  0
  1  6  1  0
  1  8  1  0
  2  3  1  0
  2  9  1  0
  2 10  1  0
  3  4  1  0
  4  5  1  0
  4 11  1  0
  4 12  1  0
  5  6  1  0
  6 13  1  0
  6 14  1  0
  7 15  1  0
 15 16  1  0
 15 20  1  0
 15 21  1  0
 16 17  1  0
 16 22  1  0
 16 23  1  0
 17 18  1  0
 18 19  1  0
 18 24  1  0
 18 25  1  0
 19 26  1  0
 19 27  1  0
 19 28  1  0
M  RAD  1   1   2
M  END
>  <reaction>  (13) 
rmg_rxn_628

>  <mol_properties>  (13) 
{"0": {"label": "*1", "atom_type": "Cs"}, "1": {"label": "*0", "atom_type": "Cs"}, "6": {"label": "*2", "atom_type": "H0"}, "14": {"label": "*3", "atom_type": "Cs"}, "15": {"label": "*4", "atom_type": "Cs"}}

>  <type>  (13) 
unop_9

>  <geom_source>  (13) 
Heuristics

$$$$

     RDKit          3D

 28 27  0  0  0  0  0  0  0  0999 V2000
   -0.6137    0.6680    0.3467 C   0  0  0  0  0  3  0  0  0  0  0  0
   -0.6137    0.6680   -1.1753 C   0  0  0  0  0  0  0  0  0  0  0  0
   -0.6137    1.9944   -1.6674 O   0  0  0  0  0  0  0  0  0  0  0  0
   -1.6965    2.7187   -1.1681 C   0  0  0  0  0  0  0  0  0  0  0  0
   -1.6852    2.8250    0.2230 O   0  0  0  0  0  0  0  0  0  0  0  0
   -1.7531    1.5513    0.8349 C   0  0  0  0  0  0  0  0  0  0  0  0
   -0.7512   -0.5523    0.8050 H   0  0  0  0  0  0  0  0  0  0  0  0
    0.3357    1.0665    0.7098 H   0  0  0  0  0  0  0  0  0  0  0  0
    0.2721    0.1825   -1.5826 H   0  0  0  0  0  0  0  0  0  0  0  0
   -1.5012    0.1368   -1.5520 H   0  0  0  0  0  0  0  0  0  0  0  0
   -2.6391    2.2407   -1.4923 H   0  0  0  0  0  0  0  0  0  0  0  0
   -1.6242    3.7269   -1.5701 H   0  0  0  0  0  0  0  0  0  0  0  0
   -2.7208    1.0822    0.5996 H   0  0  0  0  0  0  0  0  0  0  0  0
   -1.7078    1.7173    1.9103 H   0  0  0  0  0  0  0  0  0  0  0  0
   -0.8886   -1.7707    1.2625 C   0  0  0  0  0  0  0  0  0  0  0  0
    0.2462   -2.6467    0.7845 C   0  0  0  0  0  0  0  0  0  0  0  0
    1.3830   -1.8475    0.5752 O   0  0  0  0  0  0  0  0  0  0  0  0
    2.4977   -2.5766    0.1268 C   0  0  0  0  0  0  0  0  0  0  0  0
    3.6589   -1.6290   -0.0660 C   0  0  0  0  0  0  0  0  0  0  0  0
   -0.6212   -1.2747    2.1962 H   0  0  0  0  0  0  0  0  0  0  0  0
   -1.7839   -2.3709    1.4321 H   0  0  0  0  0  0  0  0  0  0  0  0
   -0.0301   -3.1580   -0.1495 H   0  0  0  0  0  0  0  0  0  0  0  0
    0.4681   -3.4274    1.5272 H   0  0  0  0  0  0  0  0  0  0  0  0
    2.7553   -3.3562    0.8590 H   0  0  0  0  0  0  0  0  0  0  0  0
    2.2571   -3.0868   -0.8177 H   0  0  0  0  0  0  0  0  0  0  0  0
    3.9078   -1.1336    0.8731 H   0  0  0  0  0  0  0  0  0  0  0  0
    4.5376   -2.1739   -0.4146 H   0  0  0  0  0  0  0  0  0  0  0  0
    3.4099   -0.8643   -0.8026 H   0  0  0  0  0  0  0  0  0  0  0  0
  1  2  1  0
  1  6  1  0
  1  8  1  0
  2  3  1  0
  2  9  1  0
  2 10  1  0
  3  4  1  0
  4  5  1  0
  4 11  1  0
  4 12  1  0
  5  6  1  0
  6 13  1  0
  6 14  1  0
  7 15  1  0
 15 16  1  0
 15 20  1  0
 15 21  1  0
 16 17  1  0
 16 22  1  0
 16 23  1  0
 17 18  1  0
 18 19  1  0
 18 24  1  0
 18 25  1  0
 19 26  1  0
 19 27  1  0
 19 28  1  0
M  RAD  1   1   2
M  END
>  <reaction>  (14) 
rmg_rxn_628

>  <mol_properties>  (14) 
{"0": {"label": "*1", "atom_type": "Cs"}, "1": {"label": "*0", "atom_type": "Cs"}, "6": {"label": "*2", "atom_type": "H0"}, "14": {"label": "*3", "atom_type": "Cs"}, "15": {"label": "*4", "atom_type": "Cs"}}

>  <type>  (14) 
unop_10

>  <geom_source>  (14) 
Heuristics

$$$$

     RDKit          3D

 28 27  0  0  0  0  0  0  0  0999 V2000
    1.3458    0.5383   -0.6016 C   0  0  0  0  0  3  0  0  0  0  0  0
    1.3458    0.5383   -2.1236 C   0  0  0  0  0  0  0  0  0  0  0  0
    1.3458    1.8647   -2.6157 O   0  0  0  0  0  0  0  0  0  0  0  0
    0.2630    2.5890   -2.1164 C   0  0  0  0  0  0  0  0  0  0  0  0
    0.2743    2.6953   -0.7254 O   0  0  0  0  0  0  0  0  0  0  0  0
    0.2064    1.4215   -0.1135 C   0  0  0  0  0  0  0  0  0  0  0  0
    1.2083   -0.6821   -0.1434 H   0  0  0  0  0  0  0  0  0  0  0  0
    2.2952    0.9368   -0.2386 H   0  0  0  0  0  0  0  0  0  0  0  0
    2.2316    0.0528   -2.5310 H   0  0  0  0  0  0  0  0  0  0  0  0
    0.4583    0.0070   -2.5004 H   0  0  0  0  0  0  0  0  0  0  0  0
   -0.6796    2.1109   -2.4406 H   0  0  0  0  0  0  0  0  0  0  0  0
    0.3353    3.5971   -2.5184 H   0  0  0  0  0  0  0  0  0  0  0  0
   -0.7613    0.9524   -0.3488 H   0  0  0  0  0  0  0  0  0  0  0  0
    0.2517    1.5875    0.9620 H   0  0  0  0  0  0  0  0  0  0  0  0
    1.0709   -1.9004    0.3141 C   0  0  0  0  0  0  0  0  0  0  0  0
    0.3601   -1.8883    1.6476 C   0  0  0  0  0  0  0  0  0  0  0  0
   -1.0263   -1.9505    1.4266 O   0  0  0  0  0  0  0  0  0  0  0  0
   -1.7774   -1.9444    2.6144 C   0  0  0  0  0  0  0  0  0  0  0  0
   -3.2464   -2.0137    2.2667 C   0  0  0  0  0  0  0  0  0  0  0  0
    0.8355   -2.8121   -0.2360 H   0  0  0  0  0  0  0  0  0  0  0  0
    2.1511   -1.8527    0.4611 H   0  0  0  0  0  0  0  0  0  0  0  0
    0.6101   -0.9752    2.2081 H   0  0  0  0  0  0  0  0  0  0  0  0
    0.6808   -2.7428    2.2619 H   0  0  0  0  0  0  0  0  0  0  0  0
   -1.4907   -2.7998    3.2439 H   0  0  0  0  0  0  0  0  0  0  0  0
   -1.5614   -1.0322    3.1901 H   0  0  0  0  0  0  0  0  0  0  0  0
   -3.4643   -2.9250    1.7086 H   0  0  0  0  0  0  0  0  0  0  0  0
   -3.8505   -2.0103    3.1753 H   0  0  0  0  0  0  0  0  0  0  0  0
   -3.5350   -1.1584    1.6548 H   0  0  0  0  0  0  0  0  0  0  0  0
  1  2  1  0
  1  6  1  0
  1  8  1  0
  2  3  1  0
  2  9  1  0
  2 10  1  0
  3  4  1  0
  4  5  1  0
  4 11  1  0
  4 12  1  0
  5  6  1  0
  6 13  1  0
  6 14  1  0
  7 15  1  0
 15 16  1  0
 15 20  1  0
 15 21  1  0
 16 17  1  0
 16 22  1  0
 16 23  1  0
 17 18  1  0
 18 19  1  0
 18 24  1  0
 18 25  1  0
 19 26  1  0
 19 27  1  0
 19 28  1  0
M  RAD  1   1   2
M  END
>  <reaction>  (15) 
rmg_rxn_628

>  <mol_properties>  (15) 
{"0": {"label": "*1", "atom_type": "Cs"}, "1": {"label": "*0", "atom_type": "Cs"}, "6": {"label": "*2", "atom_type": "H0"}, "14": {"label": "*3", "atom_type": "Cs"}, "15": {"label": "*4", "atom_type": "Cs"}}

>  <type>  (15) 
unop_11

>  <geom_source>  (15) 
Heuristics

$$$$

     RDKit          3D

 28 27  0  0  0  0  0  0  0  0999 V2000
    0.0329    1.0114    0.9219 C   0  0  0  0  0  3  0  0  0  0  0  0
    0.0329    1.0114   -0.6002 C   0  0  0  0  0  0  0  0  0  0  0  0
    0.0329    2.3377   -1.0923 O   0  0  0  0  0  0  0  0  0  0  0  0
   -1.0499    3.0621   -0.5929 C   0  0  0  0  0  0  0  0  0  0  0  0
   -1.0386    3.1683    0.7981 O   0  0  0  0  0  0  0  0  0  0  0  0
   -1.1065    1.8946    1.4100 C   0  0  0  0  0  0  0  0  0  0  0  0
   -0.1047   -0.2090    1.3801 H   0  0  0  0  0  0  0  0  0  0  0  0
    0.9822    1.4099    1.2849 H   0  0  0  0  0  0  0  0  0  0  0  0
    0.9186    0.5258   -1.0075 H   0  0  0  0  0  0  0  0  0  0  0  0
   -0.8546    0.4801   -0.9769 H   0  0  0  0  0  0  0  0  0  0  0  0
   -1.9925    2.5840   -0.9171 H   0  0  0  0  0  0  0  0  0  0  0  0
   -0.9776    4.0702   -0.9949 H   0  0  0  0  0  0  0  0  0  0  0  0
   -2.0742    1.4255    1.1747 H   0  0  0  0  0  0  0  0  0  0  0  0
   -1.0612    2.0606    2.4854 H   0  0  0  0  0  0  0  0  0  0  0  0
   -0.2420   -1.4274    1.8376 C   0  0  0  0  0  0  0  0  0  0  0  0
   -0.3530   -2.4120    0.6966 C   0  0  0  0  0  0  0  0  0  0  0  0
    0.8133   -2.3394   -0.0841 O   0  0  0  0  0  0  0  0  0  0  0  0
    0.8044   -3.2236   -1.1765 C   0  0  0  0  0  0  0  0  0  0  0  0
    2.0957   -3.0666   -1.9456 C   0  0  0  0  0  0  0  0  0  0  0  0
    0.6223   -1.6602    2.4605 H   0  0  0  0  0  0  0  0  0  0  0  0
   -1.1382   -1.4660    2.4588 H   0  0  0  0  0  0  0  0  0  0  0  0
   -1.2336   -2.1851    0.0775 H   0  0  0  0  0  0  0  0  0  0  0  0
   -0.4833   -3.4340    1.0823 H   0  0  0  0  0  0  0  0  0  0  0  0
    0.6925   -4.2585   -0.8205 H   0  0  0  0  0  0  0  0  0  0  0  0
   -0.0578   -3.0096   -1.8253 H   0  0  0  0  0  0  0  0  0  0  0  0
    2.9505   -3.2928   -1.3073 H   0  0  0  0  0  0  0  0  0  0  0  0
    2.1115   -3.7447   -2.8003 H   0  0  0  0  0  0  0  0  0  0  0  0
    2.2007   -2.0447   -2.3115 H   0  0  0  0  0  0  0  0  0  0  0  0
  1  2  1  0
  1  6  1  0
  1  8  1  0
  2  3  1  0
  2  9  1  0
  2 10  1  0
  3  4  1  0
  4  5  1  0
  4 11  1  0
  4 12  1  0
  5  6  1  0
  6 13  1  0
  6 14  1  0
  7 15  1  0
 15 16  1  0
 15 20  1  0
 15 21  1  0
 16 17  1  0
 16 22  1  0
 16 23  1  0
 17 18  1  0
 18 19  1  0
 18 24  1  0
 18 25  1  0
 19 26  1  0
 19 27  1  0
 19 28  1  0
M  RAD  1   1   2
M  END
>  <reaction>  (16) 
rmg_rxn_628

>  <mol_properties>  (16) 
{"0": {"label": "*1", "atom_type": "Cs"}, "1": {"label": "*0", "atom_type": "Cs"}, "6": {"label": "*2", "atom_type": "H0"}, "14": {"label": "*3", "atom_type": "Cs"}, "15": {"label": "*4", "atom_type": "Cs"}}

>  <type>  (16) 
unop_12

>  <geom_source>  (16) 
Heuristics

$$$$

     RDKit          3D

 28 27  0  0  0  0  0  0  0  0999 V2000
    2.8020   -0.8685   -0.7911 O   0  0  0  0  0  0  0  0  0  0  0  0
   -4.0628    0.4646   -0.3224 O   0  0  0  0  0  0  0  0  0  0  0  0
   -3.1199    0.2808    1.8754 O   0  0  0  0  0  0  0  0  0  0  0  0
    1.4514   -1.0641   -0.4159 C   0  0  0  0  0  0  0  0  0  0  0  0
    3.4523   -0.0149    0.1273 C   0  0  0  0  0  0  0  0  0  0  0  0
   -2.7376    0.8099   -0.6606 C   0  0  0  0  0  0  0  0  0  0  0  0
   -2.3462   -0.7241    1.2575 C   0  0  0  0  0  0  0  0  0  0  0  0
    0.5446   -0.1177   -1.1926 C   0  0  0  0  0  0  0  0  0  0  0  0
    4.8559    0.2841   -0.3760 C   0  0  0  0  0  0  0  0  0  0  0  0
   -4.2641    0.5857    1.0829 C   0  0  0  0  0  0  0  0  0  0  0  0
   -1.7681   -0.2024   -0.0557 C   0  0  0  0  0  3  0  0  0  0  0  0
    1.2656   -0.9544    0.6790 H   0  0  0  0  0  0  0  0  0  0  0  0
    1.1686   -2.1045   -0.6803 H   0  0  0  0  0  0  0  0  0  0  0  0
    2.9078    0.9506    0.2354 H   0  0  0  0  0  0  0  0  0  0  0  0
    3.5347   -0.5083    1.1221 H   0  0  0  0  0  0  0  0  0  0  0  0
    0.7638    0.9366   -0.9233 H   0  0  0  0  0  0  0  0  0  0  0  0
    0.6968   -0.2548   -2.2842 H   0  0  0  0  0  0  0  0  0  0  0  0
   -0.6968   -0.3740   -0.9044 H   0  0  0  0  0  0  0  0  0  0  0  0
    4.8055    0.7881   -1.3644 H   0  0  0  0  0  0  0  0  0  0  0  0
    5.4329   -0.6597   -0.4769 H   0  0  0  0  0  0  0  0  0  0  0  0
    5.3785    0.9507    0.3421 H   0  0  0  0  0  0  0  0  0  0  0  0
   -2.4991    1.8421   -0.3139 H   0  0  0  0  0  0  0  0  0  0  0  0
   -2.6284    0.7904   -1.7644 H   0  0  0  0  0  0  0  0  0  0  0  0
   -2.9589   -1.6345    1.0681 H   0  0  0  0  0  0  0  0  0  0  0  0
   -1.5174   -1.0150    1.9366 H   0  0  0  0  0  0  0  0  0  0  0  0
   -4.5866    1.6237    1.3110 H   0  0  0  0  0  0  0  0  0  0  0  0
   -5.0962   -0.0870    1.3805 H   0  0  0  0  0  0  0  0  0  0  0  0
   -0.7784    0.2766    0.1081 H   0  0  0  0  0  0  0  0  0  0  0  0
  1  4  1  0
  1  5  1  0
  2  6  1  0
  2 10  1  0
  3  7  1  0
  3 10  1  0
  4  8  1  0
  4 12  1  0
  4 13  1  0
  5  9  1  0
  5 14  1  0
  5 15  1  0
  6 11  1  0
  6 22  1  0
  6 23  1  0
  7 11  1  0
  7 24  1  0
  7 25  1  0
  8 16  1  0
  8 17  1  0
  8 18  1  0
  9 19  1  0
  9 20  1  0
  9 21  1  0
 10 26  1  0
 10 27  1  0
 11 28  1  0
M  RAD  1  11   2
M  END
>  <reaction>  (17) 
rmg_rxn_628

>  <mol_properties>  (17) 
{"0": {"label": "*1", "atom_type": "Cs"}, "1": {"label": "*0", "atom_type": "Cs"}, "6": {"label": "*2", "atom_type": "H0"}, "14": {"label": "*3", "atom_type": "Cs"}, "15": {"label": "*4", "atom_type": "Cs"}}

>  <type>  (17) 
unop_13

>  <geom_source>  (17) 
AutoTST

$$$$

     RDKit          3D

 28 27  0  0  0  0  0  0  0  0999 V2000
   -0.3641    0.8484    0.7102 C   0  0  0  0  0  3  0  0  0  0  0  0
   -0.3641    0.8484   -0.8119 C   0  0  0  0  0  0  0  0  0  0  0  0
   -0.3641    2.1747   -1.3040 O   0  0  0  0  0  0  0  0  0  0  0  0
   -1.4469    2.8990   -0.8046 C   0  0  0  0  0  0  0  0  0  0  0  0
   -1.4356    3.0053    0.5864 O   0  0  0  0  0  0  0  0  0  0  0  0
   -1.5035    1.7316    1.1983 C   0  0  0  0  0  0  0  0  0  0  0  0
   -0.5017   -0.3720    1.1684 H   0  0  0  0  0  0  0  0  0  0  0  0
    0.5852    1.2469    1.0732 H   0  0  0  0  0  0  0  0  0  0  0  0
    0.5217    0.3628   -1.2192 H   0  0  0  0  0  0  0  0  0  0  0  0
   -1.2516    0.3171   -1.1886 H   0  0  0  0  0  0  0  0  0  0  0  0
   -2.3895    2.4209   -1.1289 H   0  0  0  0  0  0  0  0  0  0  0  0
   -1.3746    3.9072   -1.2066 H   0  0  0  0  0  0  0  0  0  0  0  0
   -2.4712    1.2625    0.9630 H   0  0  0  0  0  0  0  0  0  0  0  0
   -1.4582    1.8976    2.2737 H   0  0  0  0  0  0  0  0  0  0  0  0
   -0.6390   -1.5904    1.6259 C   0  0  0  0  0  0  0  0  0  0  0  0
   -0.0393   -2.5884    0.6626 C   0  0  0  0  0  0  0  0  0  0  0  0
    1.1805   -2.0826    0.1817 O   0  0  0  0  0  0  0  0  0  0  0  0
    1.8181   -2.9449   -0.7266 C   0  0  0  0  0  0  0  0  0  0  0  0
    3.1125   -2.3104   -1.1799 C   0  0  0  0  0  0  0  0  0  0  0  0
    0.0346   -1.4181    2.4661 H   0  0  0  0  0  0  0  0  0  0  0  0
   -1.5889   -1.9625    2.0130 H   0  0  0  0  0  0  0  0  0  0  0  0
   -0.7260   -2.7727   -0.1769 H   0  0  0  0  0  0  0  0  0  0  0  0
    0.1262   -3.5540    1.1631 H   0  0  0  0  0  0  0  0  0  0  0  0
    2.0130   -3.9161   -0.2481 H   0  0  0  0  0  0  0  0  0  0  0  0
    1.1608   -3.1348   -1.5881 H   0  0  0  0  0  0  0  0  0  0  0  0
    3.7709   -2.1351   -0.3283 H   0  0  0  0  0  0  0  0  0  0  0  0
    3.6262   -2.9633   -1.8873 H   0  0  0  0  0  0  0  0  0  0  0  0
    2.9192   -1.3543   -1.6675 H   0  0  0  0  0  0  0  0  0  0  0  0
  1  2  1  0
  1  6  1  0
  1  8  1  0
  2  3  1  0
  2  9  1  0
  2 10  1  0
  3  4  1  0
  4  5  1  0
  4 11  1  0
  4 12  1  0
  5  6  1  0
  6 13  1  0
  6 14  1  0
  7 15  1  0
 15 16  1  0
 15 20  1  0
 15 21  1  0
 16 17  1  0
 16 22  1  0
 16 23  1  0
 17 18  1  0
 18 19  1  0
 18 24  1  0
 18 25  1  0
 19 26  1  0
 19 27  1  0
 19 28  1  0
M  RAD  1   1   2
M  END
>  <reaction>  (18) 
rmg_rxn_628

>  <mol_properties>  (18) 
{"0": {"label": "*1", "atom_type": "Cs"}, "1": {"label": "*0", "atom_type": "Cs"}, "6": {"label": "*2", "atom_type": "H0"}, "14": {"label": "*3", "atom_type": "Cs"}, "15": {"label": "*4", "atom_type": "Cs"}}

>  <type>  (18) 
unop_14

>  <geom_source>  (18) 
gaussian_log

$$$$
