
     RDKit          3D

 14 14  0  0  0  0  0  0  0  0999 V2000
   -1.1778    0.2241    0.1818 C   0  0  0  0  0  0  0  0  0  0  0  0
   -0.5633   -1.1636    0.0678 C   0  0  0  0  0  0  0  0  0  0  0  0
    0.6943   -1.1996    0.7146 O   0  0  0  0  0  0  0  0  0  0  0  0
    1.5547   -0.2288    0.2011 C   0  0  0  0  0  0  0  0  0  0  0  0
    1.0729    1.0696    0.3698 O   0  0  0  0  0  0  0  0  0  0  0  0
   -0.1607    1.2493   -0.2989 C   0  0  0  0  0  0  0  0  0  0  0  0
   -2.0927    0.2866   -0.4117 H   0  0  0  0  0  0  0  0  0  0  0  0
   -1.4303    0.4248    1.2248 H   0  0  0  0  0  0  0  0  0  0  0  0
   -1.1822   -1.9235    0.5431 H   0  0  0  0  0  0  0  0  0  0  0  0
   -0.4389   -1.4347   -0.9919 H   0  0  0  0  0  0  0  0  0  0  0  0
    1.7250   -0.4207   -0.8742 H   0  0  0  0  0  0  0  0  0  0  0  0
    2.4896   -0.3010    0.7524 H   0  0  0  0  0  0  0  0  0  0  0  0
   -0.0080    1.1481   -1.3844 H   0  0  0  0  0  0  0  0  0  0  0  0
   -0.4826    2.2695   -0.0942 H   0  0  0  0  0  0  0  0  0  0  0  0
  1  2  1  0
  1  6  1  0
  1  7  1  0
  1  8  1  0
  2  3  1  0
  2  9  1  0
  2 10  1  0
  3  4  1  0
  4  5  1  0
  4 11  1  0
  4 12  1  0
  5  6  1  0
  6 13  1  0
  6 14  1  0
M  END
>  <reaction>  (1) 
rmg_rxn_15409

>  <mol_properties>  (1) 
{"3": {"label": "donator", "atom_type": "Cs"}, "10": {"label": "d_hydrogen", "atom_type": "H0"}}

>  <type>  (1) 
r1h

$$$$

     RDKit          3D

  5  4  0  0  0  0  0  0  0  0999 V2000
    0.8934    0.3742    0.4948 O   0  0  0  0  0  0  0  0  0  0  0  0
    0.1582   -0.1610   -0.5904 N   0  0  0  0  0  0  0  0  0  0  0  0
   -1.0297   -0.3739   -0.4689 C   0  0  0  0  0  3  0  0  0  0  0  0
    1.7805    0.4382    0.1306 H   0  0  0  0  0  0  0  0  0  0  0  0
   -1.8023   -0.2775    0.2859 H   0  0  0  0  0  0  0  0  0  0  0  0
  1  2  1  0
  1  4  1  0
  2  3  2  3
  3  5  1  0
M  RAD  1   3   2
M  END
>  <reaction>  (2) 
rmg_rxn_15409

>  <mol_properties>  (2) 
{"2": {"label": "acceptor", "atom_type": "Cd"}}

>  <type>  (2) 
r2

$$$$

     RDKit          3D

  6  5  0  0  0  0  0  0  0  0999 V2000
    1.2314    0.0428    0.5088 O   0  0  0  0  0  0  0  0  0  0  0  0
    0.2987    0.2341   -0.4915 N   0  0  0  0  0  0  0  0  0  0  0  0
   -0.8599   -0.1122   -0.1290 C   0  0  0  0  0  0  0  0  0  0  0  0
    2.0507    0.3401    0.1082 H   0  0  0  0  0  0  0  0  0  0  0  0
   -1.0700   -0.5112    0.8610 H   0  0  0  0  0  0  0  0  0  0  0  0
   -1.6509    0.0064   -0.8574 H   0  0  0  0  0  0  0  0  0  0  0  0
  1  2  1  0
  1  4  1  0
  2  3  2  3
  3  5  1  0
  3  6  1  0
M  END
>  <reaction>  (3) 
rmg_rxn_15409

>  <mol_properties>  (3) 
{"2": {"label": "acceptor", "atom_type": "Cd"}, "5": {"label": "a_hydrogen", "atom_type": "H0"}}

>  <type>  (3) 
r2h

$$$$

     RDKit          3D

 19 18  0  0  0  0  0  0  0  0999 V2000
    2.9488    1.4140    1.5559 O   0  0  0  0  0  0  0  0  0  0  0  0
    1.8212    0.8669    0.9169 N   0  0  0  0  0  0  0  0  0  0  0  0
    0.7684    1.4960    1.1213 C   0  0  0  0  0  3  0  0  0  0  0  0
    3.6518    0.8152    1.2938 H   0  0  0  0  0  0  0  0  0  0  0  0
    0.6359    2.3953    1.7233 H   0  0  0  0  0  0  0  0  0  0  0  0
   -0.3830   -1.7540   -1.4221 C   0  0  0  0  0  0  0  0  0  0  0  0
   -0.6246   -1.7251    0.0781 C   0  0  0  0  0  0  0  0  0  0  0  0
   -1.6774   -0.8192    0.3889 O   0  0  0  0  0  0  0  0  0  0  0  0
   -1.4638    0.4398   -0.1247 C   0  0  0  0  0  0  0  0  0  0  0  0
   -1.2546    0.4967   -1.4839 O   0  0  0  0  0  0  0  0  0  0  0  0
   -0.1761   -0.3292   -1.9087 C   0  0  0  0  0  0  0  0  0  0  0  0
    0.4951   -2.3614   -1.6506 H   0  0  0  0  0  0  0  0  0  0  0  0
   -1.2460   -2.1941   -1.9261 H   0  0  0  0  0  0  0  0  0  0  0  0
   -0.9375   -2.6950    0.4607 H   0  0  0  0  0  0  0  0  0  0  0  0
    0.2850   -1.4130    0.6048 H   0  0  0  0  0  0  0  0  0  0  0  0
   -0.4720    0.9228    0.4385 H   0  0  0  0  0  0  0  0  0  0  0  0
   -2.3138    1.0716    0.1273 H   0  0  0  0  0  0  0  0  0  0  0  0
    0.7633    0.0758   -1.5142 H   0  0  0  0  0  0  0  0  0  0  0  0
   -0.1572   -0.2667   -2.9953 H   0  0  0  0  0  0  0  0  0  0  0  0
  1  2  1  0
  1  4  1  0
  2  3  2  3
  3  5  1  0
  6  7  1  0
  6 11  1  0
  6 12  1  0
  6 13  1  0
  7  8  1  0
  7 14  1  0
  7 15  1  0
  8  9  1  0
  9 10  1  0
  9 16  1  0
  9 17  1  0
 10 11  1  0
 11 18  1  0
 11 19  1  0
M  RAD  1   3   2
M  END
>  <reaction>  (4) 
rmg_rxn_15409

>  <mol_properties>  (4) 
{"1": {"label": "*4", "atom_type": "N3d"}, "2": {"label": "*3", "atom_type": "Cd"}, "7": {"label": "*0", "atom_type": "O2s"}, "8": {"label": "*1", "atom_type": "Cs"}, "15": {"label": "*2", "atom_type": "H0"}}

>  <type>  (4) 
ts

$$$$

     RDKit          3D

 19 18  0  0  0  0  0  0  0  0999 V2000
    3.4325   -0.5988    0.0015 O   0  0  0  0  0  0  0  0  0  0  0  0
    2.1015   -0.2517    0.0012 N   0  0  0  0  0  0  0  0  0  0  0  0
    1.7469    0.9417   -0.0010 C   0  0  0  0  0  0  0  0  0  0  0  0
    4.0091    0.1889   -0.0014 H   0  0  0  0  0  0  0  0  0  0  0  0
    2.4035    1.8146   -0.0033 H   0  0  0  0  0  0  0  0  0  0  0  0
   -1.7986   -1.3662    0.0043 C   0  0  0  0  0  0  0  0  0  0  0  0
   -1.1744   -0.7084    1.2334 C   0  0  0  0  0  0  0  0  0  0  0  0
   -1.3312    0.7019    1.1769 O   0  0  0  0  0  0  0  0  0  0  0  0
   -0.8903    1.2607   -0.0045 C   0  0  0  0  0  3  0  0  0  0  0  0
   -1.3291    0.6934   -1.1826 O   0  0  0  0  0  0  0  0  0  0  0  0
   -1.1728   -0.7174   -1.2287 C   0  0  0  0  0  0  0  0  0  0  0  0
   -1.6078   -2.4374    0.0083 H   0  0  0  0  0  0  0  0  0  0  0  0
   -2.8758   -1.1895    0.0030 H   0  0  0  0  0  0  0  0  0  0  0  0
   -1.6657   -1.0194    2.1568 H   0  0  0  0  0  0  0  0  0  0  0  0
   -0.1046   -0.9522    1.2838 H   0  0  0  0  0  0  0  0  0  0  0  0
    0.4820    1.1516   -0.0025 H   0  0  0  0  0  0  0  0  0  0  0  0
   -1.1394    2.3210   -0.0086 H   0  0  0  0  0  0  0  0  0  0  0  0
   -0.1031   -0.9620   -1.2763 H   0  0  0  0  0  0  0  0  0  0  0  0
   -1.6633   -1.0347   -2.1504 H   0  0  0  0  0  0  0  0  0  0  0  0
  1  2  1  0
  1  4  1  0
  2  3  2  3
  3  5  1  0
  3 16  1  0
  6  7  1  0
  6 11  1  0
  6 12  1  0
  6 13  1  0
  7  8  1  0
  7 14  1  0
  7 15  1  0
  8  9  1  0
  9 10  1  0
  9 17  1  0
 10 11  1  0
 11 18  1  0
 11 19  1  0
M  RAD  1   9   2
M  END
>  <reaction>  (5) 
rmg_rxn_15409

>  <mol_properties>  (5) 
{"1": {"label": "*4", "atom_type": "N3d"}, "2": {"label": "*3", "atom_type": "Cd"}, "7": {"label": "*0", "atom_type": "O2s"}, "8": {"label": "*1", "atom_type": "Cs"}, "15": {"label": "*2", "atom_type": "H0"}}

>  <type>  (5) 
unop_1

>  <geom_source>  (5) 
crest_best.xyz

$$$$

     RDKit          3D

 19 18  0  0  0  0  0  0  0  0999 V2000
    2.3110    2.7321    0.5299 O   0  0  0  0  0  0  0  0  0  0  0  0
    1.7440    1.5024    0.2591 N   0  0  0  0  0  0  0  0  0  0  0  0
    0.9537    1.1356    1.1725 C   0  0  0  0  0  0  0  0  0  0  0  0
    2.8776    2.8872   -0.2284 H   0  0  0  0  0  0  0  0  0  0  0  0
    0.7608    1.7375    2.0580 H   0  0  0  0  0  0  0  0  0  0  0  0
   -0.3572   -2.0499   -1.1121 C   0  0  0  0  0  0  0  0  0  0  0  0
   -0.3572   -2.0499    0.4099 C   0  0  0  0  0  0  0  0  0  0  0  0
   -1.4055   -1.2373    0.9020 O   0  0  0  0  0  0  0  0  0  0  0  0
   -1.3146    0.0622    0.4027 C   0  0  0  0  0  3  0  0  0  0  0  0
   -1.4055    0.1184   -0.9883 O   0  0  0  0  0  0  0  0  0  0  0  0
   -0.3572   -0.6083   -1.6002 C   0  0  0  0  0  0  0  0  0  0  0  0
    0.5168   -2.5824   -1.4940 H   0  0  0  0  0  0  0  0  0  0  0  0
   -1.2538   -2.5561   -1.4751 H   0  0  0  0  0  0  0  0  0  0  0  0
   -0.5161   -3.0474    0.8173 H   0  0  0  0  0  0  0  0  0  0  0  0
    0.6064   -1.6740    0.7866 H   0  0  0  0  0  0  0  0  0  0  0  0
   -0.1682    0.6047    0.7918 H   0  0  0  0  0  0  0  0  0  0  0  0
   -2.1556    0.6227    0.8047 H   0  0  0  0  0  0  0  0  0  0  0  0
    0.6064   -0.1309   -1.3649 H   0  0  0  0  0  0  0  0  0  0  0  0
   -0.5161   -0.5424   -2.6757 H   0  0  0  0  0  0  0  0  0  0  0  0
  1  2  1  0
  1  4  1  0
  2  3  2  3
  3  5  1  0
  3 16  1  0
  6  7  1  0
  6 11  1  0
  6 12  1  0
  6 13  1  0
  7  8  1  0
  7 14  1  0
  7 15  1  0
  8  9  1  0
  9 10  1  0
  9 17  1  0
 10 11  1  0
 11 18  1  0
 11 19  1  0
M  RAD  1   9   2
M  END
>  <reaction>  (6) 
rmg_rxn_15409

>  <mol_properties>  (6) 
{"1": {"label": "*4", "atom_type": "N3d"}, "2": {"label": "*3", "atom_type": "Cd"}, "7": {"label": "*0", "atom_type": "O2s"}, "8": {"label": "*1", "atom_type": "Cs"}, "15": {"label": "*2", "atom_type": "H0"}}

>  <type>  (6) 
unop_2

>  <geom_source>  (6) 
Heuristics

$$$$

     RDKit          3D

 19 18  0  0  0  0  0  0  0  0999 V2000
    3.0062    1.3564    1.1347 O   0  0  0  0  0  0  0  0  0  0  0  0
    1.7951    0.6930    1.1239 N   0  0  0  0  0  0  0  0  0  0  0  0
    0.8257    1.4831    0.9520 C   0  0  0  0  0  0  0  0  0  0  0  0
    3.6437    0.6526    1.2705 H   0  0  0  0  0  0  0  0  0  0  0  0
    0.9579    2.5559    0.8295 H   0  0  0  0  0  0  0  0  0  0  0  0
   -0.4852   -1.7025   -1.3326 C   0  0  0  0  0  0  0  0  0  0  0  0
   -0.4852   -1.7025    0.1895 C   0  0  0  0  0  0  0  0  0  0  0  0
   -1.5335   -0.8898    0.6816 O   0  0  0  0  0  0  0  0  0  0  0  0
   -1.4426    0.4097    0.1822 C   0  0  0  0  0  3  0  0  0  0  0  0
   -1.5335    0.4659   -1.2088 O   0  0  0  0  0  0  0  0  0  0  0  0
   -0.4852   -0.2608   -1.8207 C   0  0  0  0  0  0  0  0  0  0  0  0
    0.3888   -2.2349   -1.7144 H   0  0  0  0  0  0  0  0  0  0  0  0
   -1.3818   -2.2086   -1.6956 H   0  0  0  0  0  0  0  0  0  0  0  0
   -0.6441   -2.7000    0.5968 H   0  0  0  0  0  0  0  0  0  0  0  0
    0.4784   -1.3265    0.5662 H   0  0  0  0  0  0  0  0  0  0  0  0
   -0.2962    0.9522    0.5713 H   0  0  0  0  0  0  0  0  0  0  0  0
   -2.2836    0.9702    0.5842 H   0  0  0  0  0  0  0  0  0  0  0  0
    0.4784    0.2166   -1.5854 H   0  0  0  0  0  0  0  0  0  0  0  0
   -0.6441   -0.1949   -2.8961 H   0  0  0  0  0  0  0  0  0  0  0  0
  1  2  1  0
  1  4  1  0
  2  3  2  3
  3  5  1  0
  3 16  1  0
  6  7  1  0
  6 11  1  0
  6 12  1  0
  6 13  1  0
  7  8  1  0
  7 14  1  0
  7 15  1  0
  8  9  1  0
  9 10  1  0
  9 17  1  0
 10 11  1  0
 11 18  1  0
 11 19  1  0
M  RAD  1   9   2
M  END
>  <reaction>  (7) 
rmg_rxn_15409

>  <mol_properties>  (7) 
{"1": {"label": "*4", "atom_type": "N3d"}, "2": {"label": "*3", "atom_type": "Cd"}, "7": {"label": "*0", "atom_type": "O2s"}, "8": {"label": "*1", "atom_type": "Cs"}, "15": {"label": "*2", "atom_type": "H0"}}

>  <type>  (7) 
unop_3

>  <geom_source>  (7) 
Heuristics

$$$$

     RDKit          3D

 19 18  0  0  0  0  0  0  0  0999 V2000
    2.1946    2.8922    1.0060 O   0  0  0  0  0  0  0  0  0  0  0  0
    1.5139    1.9123    0.3107 N   0  0  0  0  0  0  0  0  0  0  0  0
    1.0046    1.0532    1.0826 C   0  0  0  0  0  0  0  0  0  0  0  0
    2.5246    3.4676    0.3131 H   0  0  0  0  0  0  0  0  0  0  0  0
    1.1058    1.1034    2.1647 H   0  0  0  0  0  0  0  0  0  0  0  0
   -0.3063   -2.1324   -1.2020 C   0  0  0  0  0  0  0  0  0  0  0  0
   -0.3063   -2.1324    0.3200 C   0  0  0  0  0  0  0  0  0  0  0  0
   -1.3546   -1.3197    0.8121 O   0  0  0  0  0  0  0  0  0  0  0  0
   -1.2637   -0.0202    0.3128 C   0  0  0  0  0  3  0  0  0  0  0  0
   -1.3546    0.0360   -1.0782 O   0  0  0  0  0  0  0  0  0  0  0  0
   -0.3063   -0.6907   -1.6901 C   0  0  0  0  0  0  0  0  0  0  0  0
    0.5677   -2.6648   -1.5839 H   0  0  0  0  0  0  0  0  0  0  0  0
   -1.2029   -2.6385   -1.5650 H   0  0  0  0  0  0  0  0  0  0  0  0
   -0.4652   -3.1299    0.7274 H   0  0  0  0  0  0  0  0  0  0  0  0
    0.6573   -1.7564    0.6968 H   0  0  0  0  0  0  0  0  0  0  0  0
   -0.1173    0.5223    0.7019 H   0  0  0  0  0  0  0  0  0  0  0  0
   -2.1047    0.5403    0.7148 H   0  0  0  0  0  0  0  0  0  0  0  0
    0.6573   -0.2133   -1.4548 H   0  0  0  0  0  0  0  0  0  0  0  0
   -0.4652   -0.6248   -2.7656 H   0  0  0  0  0  0  0  0  0  0  0  0
  1  2  1  0
  1  4  1  0
  2  3  2  3
  3  5  1  0
  3 16  1  0
  6  7  1  0
  6 11  1  0
  6 12  1  0
  6 13  1  0
  7  8  1  0
  7 14  1  0
  7 15  1  0
  8  9  1  0
  9 10  1  0
  9 17  1  0
 10 11  1  0
 11 18  1  0
 11 19  1  0
M  RAD  1   9   2
M  END
>  <reaction>  (8) 
rmg_rxn_15409

>  <mol_properties>  (8) 
{"1": {"label": "*4", "atom_type": "N3d"}, "2": {"label": "*3", "atom_type": "Cd"}, "7": {"label": "*0", "atom_type": "O2s"}, "8": {"label": "*1", "atom_type": "Cs"}, "15": {"label": "*2", "atom_type": "H0"}}

>  <type>  (8) 
unop_4

>  <geom_source>  (8) 
Heuristics

$$$$

     RDKit          3D

 19 18  0  0  0  0  0  0  0  0999 V2000
    2.0127    2.4197    2.2282 O   0  0  0  0  0  0  0  0  0  0  0  0
    1.2568    1.3108    1.9027 N   0  0  0  0  0  0  0  0  0  0  0  0
    1.0705    1.2155    0.6578 C   0  0  0  0  0  0  0  0  0  0  0  0
    2.0768    2.3719    3.1841 H   0  0  0  0  0  0  0  0  0  0  0  0
    1.4701    1.9365   -0.0521 H   0  0  0  0  0  0  0  0  0  0  0  0
   -0.2404   -1.9700   -1.6268 C   0  0  0  0  0  0  0  0  0  0  0  0
   -0.2404   -1.9700   -0.1047 C   0  0  0  0  0  0  0  0  0  0  0  0
   -1.2887   -1.1574    0.3874 O   0  0  0  0  0  0  0  0  0  0  0  0
   -1.1978    0.1422   -0.1120 C   0  0  0  0  0  3  0  0  0  0  0  0
   -1.2887    0.1984   -1.5030 O   0  0  0  0  0  0  0  0  0  0  0  0
   -0.2404   -0.5284   -2.1149 C   0  0  0  0  0  0  0  0  0  0  0  0
    0.6336   -2.5025   -2.0087 H   0  0  0  0  0  0  0  0  0  0  0  0
   -1.1370   -2.4762   -1.9898 H   0  0  0  0  0  0  0  0  0  0  0  0
   -0.3993   -2.9675    0.3026 H   0  0  0  0  0  0  0  0  0  0  0  0
    0.7232   -1.5940    0.2720 H   0  0  0  0  0  0  0  0  0  0  0  0
   -0.0514    0.6846    0.2771 H   0  0  0  0  0  0  0  0  0  0  0  0
   -2.0388    0.7027    0.2900 H   0  0  0  0  0  0  0  0  0  0  0  0
    0.7232   -0.0510   -1.8796 H   0  0  0  0  0  0  0  0  0  0  0  0
   -0.3993   -0.4624   -3.1903 H   0  0  0  0  0  0  0  0  0  0  0  0
  1  2  1  0
  1  4  1  0
  2  3  2  3
  3  5  1  0
  3 16  1  0
  6  7  1  0
  6 11  1  0
  6 12  1  0
  6 13  1  0
  7  8  1  0
  7 14  1  0
  7 15  1  0
  8  9  1  0
  9 10  1  0
  9 17  1  0
 10 11  1  0
 11 18  1  0
 11 19  1  0
M  RAD  1   9   2
M  END
>  <reaction>  (9) 
rmg_rxn_15409

>  <mol_properties>  (9) 
{"1": {"label": "*4", "atom_type": "N3d"}, "2": {"label": "*3", "atom_type": "Cd"}, "7": {"label": "*0", "atom_type": "O2s"}, "8": {"label": "*1", "atom_type": "Cs"}, "15": {"label": "*2", "atom_type": "H0"}}

>  <type>  (9) 
unop_5

>  <geom_source>  (9) 
Heuristics

$$$$

     RDKit          3D

 19 18  0  0  0  0  0  0  0  0999 V2000
    3.4310   -0.5984   -0.0002 O   0  0  0  0  0  0  0  0  0  0  0  0
    2.1002   -0.2509    0.0003 N   0  0  0  0  0  0  0  0  0  0  0  0
    1.7459    0.9426   -0.0002 C   0  0  0  0  0  0  0  0  0  0  0  0
    4.0080    0.1891   -0.0007 H   0  0  0  0  0  0  0  0  0  0  0  0
    2.4028    1.8152   -0.0007 H   0  0  0  0  0  0  0  0  0  0  0  0
   -1.7960   -1.3673    0.0007 C   0  0  0  0  0  0  0  0  0  0  0  0
   -1.1714   -0.7125    1.2313 C   0  0  0  0  0  0  0  0  0  0  0  0
   -1.3306    0.6977    1.1795 O   0  0  0  0  0  0  0  0  0  0  0  0
   -0.8913    1.2608   -0.0005 C   0  0  0  0  0  3  0  0  0  0  0  0
   -1.3307    0.6968   -1.1799 O   0  0  0  0  0  0  0  0  0  0  0  0
   -1.1724   -0.7136   -1.2308 C   0  0  0  0  0  0  0  0  0  0  0  0
   -1.6035   -2.4382    0.0011 H   0  0  0  0  0  0  0  0  0  0  0  0
   -2.8735   -1.1922    0.0011 H   0  0  0  0  0  0  0  0  0  0  0  0
   -1.6611   -1.0272    2.1543 H   0  0  0  0  0  0  0  0  0  0  0  0
   -0.1010   -0.9546    1.2798 H   0  0  0  0  0  0  0  0  0  0  0  0
    0.4810    1.1526   -0.0005 H   0  0  0  0  0  0  0  0  0  0  0  0
   -1.1415    2.3209   -0.0009 H   0  0  0  0  0  0  0  0  0  0  0  0
   -0.1024   -0.9564   -1.2803 H   0  0  0  0  0  0  0  0  0  0  0  0
   -1.6633   -1.0286   -2.1530 H   0  0  0  0  0  0  0  0  0  0  0  0
  1  2  1  0
  1  4  1  0
  2  3  2  3
  3  5  1  0
  3 16  1  0
  6  7  1  0
  6 11  1  0
  6 12  1  0
  6 13  1  0
  7  8  1  0
  7 14  1  0
  7 15  1  0
  8  9  1  0
  9 10  1  0
  9 17  1  0
 10 11  1  0
 11 18  1  0
 11 19  1  0
M  RAD  1   9   2
M  END
>  <reaction>  (10) 
rmg_rxn_15409

>  <mol_properties>  (10) 
{"1": {"label": "*4", "atom_type": "N3d"}, "2": {"label": "*3", "atom_type": "Cd"}, "7": {"label": "*0", "atom_type": "O2s"}, "8": {"label": "*1", "atom_type": "Cs"}, "15": {"label": "*2", "atom_type": "H0"}}

>  <type>  (10) 
unop_6

>  <geom_source>  (10) 
Heuristics

$$$$

     RDKit          3D

 19 18  0  0  0  0  0  0  0  0999 V2000
    2.4390    2.6971    1.1003 O   0  0  0  0  0  0  0  0  0  0  0  0
    1.2233    2.2284    0.6428 N   0  0  0  0  0  0  0  0  0  0  0  0
    1.0006    1.0451    1.0220 C   0  0  0  0  0  0  0  0  0  0  0  0
    2.4808    3.5878    0.7470 H   0  0  0  0  0  0  0  0  0  0  0  0
    1.7017    0.4843    1.6365 H   0  0  0  0  0  0  0  0  0  0  0  0
   -0.3103   -2.1404   -1.2626 C   0  0  0  0  0  0  0  0  0  0  0  0
   -0.3103   -2.1404    0.2594 C   0  0  0  0  0  0  0  0  0  0  0  0
   -1.3585   -1.3278    0.7515 O   0  0  0  0  0  0  0  0  0  0  0  0
   -1.2676   -0.0282    0.2522 C   0  0  0  0  0  3  0  0  0  0  0  0
   -1.3585    0.0280   -1.1388 O   0  0  0  0  0  0  0  0  0  0  0  0
   -0.3103   -0.6987   -1.7507 C   0  0  0  0  0  0  0  0  0  0  0  0
    0.5637   -2.6728   -1.6445 H   0  0  0  0  0  0  0  0  0  0  0  0
   -1.2068   -2.6465   -1.6256 H   0  0  0  0  0  0  0  0  0  0  0  0
   -0.4692   -3.1379    0.6668 H   0  0  0  0  0  0  0  0  0  0  0  0
    0.6534   -1.7644    0.6362 H   0  0  0  0  0  0  0  0  0  0  0  0
   -0.1212    0.5143    0.6413 H   0  0  0  0  0  0  0  0  0  0  0  0
   -2.1087    0.5323    0.6542 H   0  0  0  0  0  0  0  0  0  0  0  0
    0.6534   -0.2213   -1.5154 H   0  0  0  0  0  0  0  0  0  0  0  0
   -0.4692   -0.6328   -2.8262 H   0  0  0  0  0  0  0  0  0  0  0  0
  1  2  1  0
  1  4  1  0
  2  3  2  3
  3  5  1  0
  3 16  1  0
  6  7  1  0
  6 11  1  0
  6 12  1  0
  6 13  1  0
  7  8  1  0
  7 14  1  0
  7 15  1  0
  8  9  1  0
  9 10  1  0
  9 17  1  0
 10 11  1  0
 11 18  1  0
 11 19  1  0
M  RAD  1   9   2
M  END
>  <reaction>  (11) 
rmg_rxn_15409

>  <mol_properties>  (11) 
{"1": {"label": "*4", "atom_type": "N3d"}, "2": {"label": "*3", "atom_type": "Cd"}, "7": {"label": "*0", "atom_type": "O2s"}, "8": {"label": "*1", "atom_type": "Cs"}, "15": {"label": "*2", "atom_type": "H0"}}

>  <type>  (11) 
unop_7

>  <geom_source>  (11) 
Heuristics

$$$$

     RDKit          3D

 19 18  0  0  0  0  0  0  0  0999 V2000
    3.4327   -0.5988    0.0023 O   0  0  0  0  0  0  0  0  0  0  0  0
    2.1018   -0.2518    0.0007 N   0  0  0  0  0  0  0  0  0  0  0  0
    1.7470    0.9415   -0.0014 C   0  0  0  0  0  0  0  0  0  0  0  0
    4.0093    0.1891    0.0013 H   0  0  0  0  0  0  0  0  0  0  0  0
    2.4036    1.8143   -0.0022 H   0  0  0  0  0  0  0  0  0  0  0  0
   -1.7989   -1.3661    0.0053 C   0  0  0  0  0  0  0  0  0  0  0  0
   -1.1751   -0.7073    1.2340 C   0  0  0  0  0  0  0  0  0  0  0  0
   -1.3314    0.7030    1.1762 O   0  0  0  0  0  0  0  0  0  0  0  0
   -0.8902    1.2607   -0.0056 C   0  0  0  0  0  3  0  0  0  0  0  0
   -1.3289    0.6924   -1.1833 O   0  0  0  0  0  0  0  0  0  0  0  0
   -1.1726   -0.7185   -1.2281 C   0  0  0  0  0  0  0  0  0  0  0  0
   -1.6082   -2.4373    0.0103 H   0  0  0  0  0  0  0  0  0  0  0  0
   -2.8761   -1.1892    0.0034 H   0  0  0  0  0  0  0  0  0  0  0  0
   -1.6668   -1.0173    2.1575 H   0  0  0  0  0  0  0  0  0  0  0  0
   -0.1053   -0.9514    1.2851 H   0  0  0  0  0  0  0  0  0  0  0  0
    0.4821    1.1514   -0.0035 H   0  0  0  0  0  0  0  0  0  0  0  0
   -1.1392    2.3210   -0.0107 H   0  0  0  0  0  0  0  0  0  0  0  0
   -0.1028   -0.9630   -1.2749 H   0  0  0  0  0  0  0  0  0  0  0  0
   -1.6626   -1.0367   -2.1497 H   0  0  0  0  0  0  0  0  0  0  0  0
  1  2  1  0
  1  4  1  0
  2  3  2  3
  3  5  1  0
  3 16  1  0
  6  7  1  0
  6 11  1  0
  6 12  1  0
  6 13  1  0
  7  8  1  0
  7 14  1  0
  7 15  1  0
  8  9  1  0
  9 10  1  0
  9 17  1  0
 10 11  1  0
 11 18  1  0
 11 19  1  0
M  RAD  1   9   2
M  END
>  <reaction>  (12) 
rmg_rxn_15409

>  <mol_properties>  (12) 
{"1": {"label": "*4", "atom_type": "N3d"}, "2": {"label": "*3", "atom_type": "Cd"}, "7": {"label": "*0", "atom_type": "O2s"}, "8": {"label": "*1", "atom_type": "Cs"}, "15": {"label": "*2", "atom_type": "H0"}}

>  <type>  (12) 
unop_8

>  <geom_source>  (12) 
Heuristics

$$$$

     RDKit          3D

 19 18  0  0  0  0  0  0  0  0999 V2000
    1.8465    2.8720    1.7822 O   0  0  0  0  0  0  0  0  0  0  0  0
    1.1058    1.7079    1.8410 N   0  0  0  0  0  0  0  0  0  0  0  0
    1.1196    1.0839    0.7438 C   0  0  0  0  0  0  0  0  0  0  0  0
    1.7528    3.2394    2.6633 H   0  0  0  0  0  0  0  0  0  0  0  0
    1.6599    1.4439   -0.1292 H   0  0  0  0  0  0  0  0  0  0  0  0
   -0.1913   -2.1016   -1.5408 C   0  0  0  0  0  0  0  0  0  0  0  0
   -0.1913   -2.1016   -0.0188 C   0  0  0  0  0  0  0  0  0  0  0  0
   -1.2396   -1.2890    0.4733 O   0  0  0  0  0  0  0  0  0  0  0  0
   -1.1487    0.0105   -0.0260 C   0  0  0  0  0  3  0  0  0  0  0  0
   -1.2396    0.0667   -1.4171 O   0  0  0  0  0  0  0  0  0  0  0  0
   -0.1913   -0.6600   -2.0289 C   0  0  0  0  0  0  0  0  0  0  0  0
    0.6827   -2.6341   -1.9227 H   0  0  0  0  0  0  0  0  0  0  0  0
   -1.0879   -2.6078   -1.9038 H   0  0  0  0  0  0  0  0  0  0  0  0
   -0.3503   -3.0992    0.3885 H   0  0  0  0  0  0  0  0  0  0  0  0
    0.7723   -1.7257    0.3579 H   0  0  0  0  0  0  0  0  0  0  0  0
   -0.0023    0.5530    0.3631 H   0  0  0  0  0  0  0  0  0  0  0  0
   -1.9898    0.5710    0.3760 H   0  0  0  0  0  0  0  0  0  0  0  0
    0.7723   -0.1826   -1.7936 H   0  0  0  0  0  0  0  0  0  0  0  0
   -0.3503   -0.5941   -3.1044 H   0  0  0  0  0  0  0  0  0  0  0  0
  1  2  1  0
  1  4  1  0
  2  3  2  3
  3  5  1  0
  3 16  1  0
  6  7  1  0
  6 11  1  0
  6 12  1  0
  6 13  1  0
  7  8  1  0
  7 14  1  0
  7 15  1  0
  8  9  1  0
  9 10  1  0
  9 17  1  0
 10 11  1  0
 11 18  1  0
 11 19  1  0
M  RAD  1   9   2
M  END
>  <reaction>  (13) 
rmg_rxn_15409

>  <mol_properties>  (13) 
{"1": {"label": "*4", "atom_type": "N3d"}, "2": {"label": "*3", "atom_type": "Cd"}, "7": {"label": "*0", "atom_type": "O2s"}, "8": {"label": "*1", "atom_type": "Cs"}, "15": {"label": "*2", "atom_type": "H0"}}

>  <type>  (13) 
unop_9

>  <geom_source>  (13) 
Heuristics

$$$$

     RDKit          3D

 19 18  0  0  0  0  0  0  0  0999 V2000
    3.4325   -0.5982    0.0001 O   0  0  0  0  0  0  0  0  0  0  0  0
    2.1015   -0.2517   -0.0009 N   0  0  0  0  0  0  0  0  0  0  0  0
    1.7464    0.9415   -0.0001 C   0  0  0  0  0  0  0  0  0  0  0  0
    4.0088    0.1898    0.0017 H   0  0  0  0  0  0  0  0  0  0  0  0
    2.4033    1.8142    0.0015 H   0  0  0  0  0  0  0  0  0  0  0  0
   -1.7978   -1.3665   -0.0001 C   0  0  0  0  0  0  0  0  0  0  0  0
   -1.1729   -0.7132    1.2310 C   0  0  0  0  0  0  0  0  0  0  0  0
   -1.3302    0.6972    1.1801 O   0  0  0  0  0  0  0  0  0  0  0  0
   -0.8907    1.2607    0.0003 C   0  0  0  0  0  3  0  0  0  0  0  0
   -1.3308    0.6979   -1.1794 O   0  0  0  0  0  0  0  0  0  0  0  0
   -1.1735   -0.7127   -1.2312 C   0  0  0  0  0  0  0  0  0  0  0  0
   -1.6063   -2.4376   -0.0004 H   0  0  0  0  0  0  0  0  0  0  0  0
   -2.8751   -1.1905    0.0001 H   0  0  0  0  0  0  0  0  0  0  0  0
   -1.6634   -1.0279    2.1536 H   0  0  0  0  0  0  0  0  0  0  0  0
   -0.1030   -0.9569    1.2797 H   0  0  0  0  0  0  0  0  0  0  0  0
    0.4817    1.1516    0.0001 H   0  0  0  0  0  0  0  0  0  0  0  0
   -1.1398    2.3210    0.0007 H   0  0  0  0  0  0  0  0  0  0  0  0
   -0.1036   -0.9562   -1.2805 H   0  0  0  0  0  0  0  0  0  0  0  0
   -1.6644   -1.0268   -2.1538 H   0  0  0  0  0  0  0  0  0  0  0  0
  1  2  1  0
  1  4  1  0
  2  3  2  3
  3  5  1  0
  3 16  1  0
  6  7  1  0
  6 11  1  0
  6 12  1  0
  6 13  1  0
  7  8  1  0
  7 14  1  0
  7 15  1  0
  8  9  1  0
  9 10  1  0
  9 17  1  0
 10 11  1  0
 11 18  1  0
 11 19  1  0
M  RAD  1   9   2
M  END
>  <reaction>  (14) 
rmg_rxn_15409

>  <mol_properties>  (14) 
{"1": {"label": "*4", "atom_type": "N3d"}, "2": {"label": "*3", "atom_type": "Cd"}, "7": {"label": "*0", "atom_type": "O2s"}, "8": {"label": "*1", "atom_type": "Cs"}, "15": {"label": "*2", "atom_type": "H0"}}

>  <type>  (14) 
unop_10

>  <geom_source>  (14) 
Heuristics

$$$$

     RDKit          3D

 19 18  0  0  0  0  0  0  0  0999 V2000
    1.9537    3.0118    1.1926 O   0  0  0  0  0  0  0  0  0  0  0  0
    1.0314    2.0602    1.5811 N   0  0  0  0  0  0  0  0  0  0  0  0
    1.1108    1.0126    0.8811 C   0  0  0  0  0  0  0  0  0  0  0  0
    1.7875    3.7404    1.7939 H   0  0  0  0  0  0  0  0  0  0  0  0
    1.8306    0.9000    0.0732 H   0  0  0  0  0  0  0  0  0  0  0  0
   -0.2001   -2.1729   -1.4035 C   0  0  0  0  0  0  0  0  0  0  0  0
   -0.2001   -2.1729    0.1186 C   0  0  0  0  0  0  0  0  0  0  0  0
   -1.2484   -1.3602    0.6107 O   0  0  0  0  0  0  0  0  0  0  0  0
   -1.1575   -0.0607    0.1113 C   0  0  0  0  0  3  0  0  0  0  0  0
   -1.2484   -0.0045   -1.2797 O   0  0  0  0  0  0  0  0  0  0  0  0
   -0.2001   -0.7312   -1.8916 C   0  0  0  0  0  0  0  0  0  0  0  0
    0.6739   -2.7053   -1.7853 H   0  0  0  0  0  0  0  0  0  0  0  0
   -1.0967   -2.6790   -1.7665 H   0  0  0  0  0  0  0  0  0  0  0  0
   -0.3591   -3.1704    0.5259 H   0  0  0  0  0  0  0  0  0  0  0  0
    0.7635   -1.7969    0.4953 H   0  0  0  0  0  0  0  0  0  0  0  0
   -0.0111    0.4818    0.5004 H   0  0  0  0  0  0  0  0  0  0  0  0
   -1.9986    0.4998    0.5133 H   0  0  0  0  0  0  0  0  0  0  0  0
    0.7635   -0.2538   -1.6563 H   0  0  0  0  0  0  0  0  0  0  0  0
   -0.3591   -0.6653   -2.9670 H   0  0  0  0  0  0  0  0  0  0  0  0
  1  2  1  0
  1  4  1  0
  2  3  2  3
  3  5  1  0
  3 16  1  0
  6  7  1  0
  6 11  1  0
  6 12  1  0
  6 13  1  0
  7  8  1  0
  7 14  1  0
  7 15  1  0
  8  9  1  0
  9 10  1  0
  9 17  1  0
 10 11  1  0
 11 18  1  0
 11 19  1  0
M  RAD  1   9   2
M  END
>  <reaction>  (15) 
rmg_rxn_15409

>  <mol_properties>  (15) 
{"1": {"label": "*4", "atom_type": "N3d"}, "2": {"label": "*3", "atom_type": "Cd"}, "7": {"label": "*0", "atom_type": "O2s"}, "8": {"label": "*1", "atom_type": "Cs"}, "15": {"label": "*2", "atom_type": "H0"}}

>  <type>  (15) 
unop_11

>  <geom_source>  (15) 
Heuristics

$$$$

     RDKit          3D

 19 18  0  0  0  0  0  0  0  0999 V2000
    2.6357    2.2542    0.3181 O   0  0  0  0  0  0  0  0  0  0  0  0
    1.8707    1.1092    0.4220 N   0  0  0  0  0  0  0  0  0  0  0  0
    0.8803    1.2712    1.1877 C   0  0  0  0  0  0  0  0  0  0  0  0
    3.3397    1.9973   -0.2806 H   0  0  0  0  0  0  0  0  0  0  0  0
    0.6775    2.2129    1.6934 H   0  0  0  0  0  0  0  0  0  0  0  0
   -0.4306   -1.9143   -1.0969 C   0  0  0  0  0  0  0  0  0  0  0  0
   -0.4306   -1.9143    0.4252 C   0  0  0  0  0  0  0  0  0  0  0  0
   -1.4789   -1.1017    0.9173 O   0  0  0  0  0  0  0  0  0  0  0  0
   -1.3880    0.1978    0.4179 C   0  0  0  0  0  3  0  0  0  0  0  0
   -1.4789    0.2540   -0.9731 O   0  0  0  0  0  0  0  0  0  0  0  0
   -0.4306   -0.4727   -1.5850 C   0  0  0  0  0  0  0  0  0  0  0  0
    0.4434   -2.4468   -1.4787 H   0  0  0  0  0  0  0  0  0  0  0  0
   -1.3272   -2.4205   -1.4599 H   0  0  0  0  0  0  0  0  0  0  0  0
   -0.5896   -2.9118    0.8325 H   0  0  0  0  0  0  0  0  0  0  0  0
    0.5330   -1.5384    0.8019 H   0  0  0  0  0  0  0  0  0  0  0  0
   -0.2416    0.7403    0.8070 H   0  0  0  0  0  0  0  0  0  0  0  0
   -2.2291    0.7583    0.8199 H   0  0  0  0  0  0  0  0  0  0  0  0
    0.5330    0.0047   -1.3497 H   0  0  0  0  0  0  0  0  0  0  0  0
   -0.5896   -0.4068   -2.6604 H   0  0  0  0  0  0  0  0  0  0  0  0
  1  2  1  0
  1  4  1  0
  2  3  2  3
  3  5  1  0
  3 16  1  0
  6  7  1  0
  6 11  1  0
  6 12  1  0
  6 13  1  0
  7  8  1  0
  7 14  1  0
  7 15  1  0
  8  9  1  0
  9 10  1  0
  9 17  1  0
 10 11  1  0
 11 18  1  0
 11 19  1  0
M  RAD  1   9   2
M  END
>  <reaction>  (16) 
rmg_rxn_15409

>  <mol_properties>  (16) 
{"1": {"label": "*4", "atom_type": "N3d"}, "2": {"label": "*3", "atom_type": "Cd"}, "7": {"label": "*0", "atom_type": "O2s"}, "8": {"label": "*1", "atom_type": "Cs"}, "15": {"label": "*2", "atom_type": "H0"}}

>  <type>  (16) 
unop_12

>  <geom_source>  (16) 
Heuristics

$$$$

     RDKit          3D

 19 18  0  0  0  0  0  0  0  0999 V2000
    3.4325   -0.5988    0.0015 O   0  0  0  0  0  0  0  0  0  0  0  0
    2.1015   -0.2517    0.0012 N   0  0  0  0  0  0  0  0  0  0  0  0
    1.7469    0.9417   -0.0010 C   0  0  0  0  0  0  0  0  0  0  0  0
    4.0091    0.1889   -0.0014 H   0  0  0  0  0  0  0  0  0  0  0  0
    2.4035    1.8146   -0.0033 H   0  0  0  0  0  0  0  0  0  0  0  0
   -1.7986   -1.3662    0.0043 C   0  0  0  0  0  0  0  0  0  0  0  0
   -1.1744   -0.7084    1.2334 C   0  0  0  0  0  0  0  0  0  0  0  0
   -1.3312    0.7019    1.1769 O   0  0  0  0  0  0  0  0  0  0  0  0
   -0.8903    1.2607   -0.0045 C   0  0  0  0  0  3  0  0  0  0  0  0
   -1.3291    0.6934   -1.1826 O   0  0  0  0  0  0  0  0  0  0  0  0
   -1.1728   -0.7174   -1.2287 C   0  0  0  0  0  0  0  0  0  0  0  0
   -1.6078   -2.4374    0.0083 H   0  0  0  0  0  0  0  0  0  0  0  0
   -2.8758   -1.1895    0.0030 H   0  0  0  0  0  0  0  0  0  0  0  0
   -1.6657   -1.0194    2.1568 H   0  0  0  0  0  0  0  0  0  0  0  0
   -0.1046   -0.9522    1.2838 H   0  0  0  0  0  0  0  0  0  0  0  0
    0.4820    1.1516   -0.0025 H   0  0  0  0  0  0  0  0  0  0  0  0
   -1.1394    2.3210   -0.0086 H   0  0  0  0  0  0  0  0  0  0  0  0
   -0.1031   -0.9620   -1.2763 H   0  0  0  0  0  0  0  0  0  0  0  0
   -1.6633   -1.0347   -2.1504 H   0  0  0  0  0  0  0  0  0  0  0  0
  1  2  1  0
  1  4  1  0
  2  3  2  3
  3  5  1  0
  3 16  1  0
  6  7  1  0
  6 11  1  0
  6 12  1  0
  6 13  1  0
  7  8  1  0
  7 14  1  0
  7 15  1  0
  8  9  1  0
  9 10  1  0
  9 17  1  0
 10 11  1  0
 11 18  1  0
 11 19  1  0
M  RAD  1   9   2
M  END
>  <reaction>  (17) 
rmg_rxn_15409

>  <mol_properties>  (17) 
{"1": {"label": "*4", "atom_type": "N3d"}, "2": {"label": "*3", "atom_type": "Cd"}, "7": {"label": "*0", "atom_type": "O2s"}, "8": {"label": "*1", "atom_type": "Cs"}, "15": {"label": "*2", "atom_type": "H0"}}

>  <type>  (17) 
unop_13

>  <geom_source>  (17) 
Heuristics

$$$$

     RDKit          3D

 19 18  0  0  0  0  0  0  0  0999 V2000
    2.3918    1.8374    2.2747 O   0  0  0  0  0  0  0  0  0  0  0  0
    1.4465    0.9659    1.7707 N   0  0  0  0  0  0  0  0  0  0  0  0
    0.9792    1.3629    0.6673 C   0  0  0  0  0  0  0  0  0  0  0  0
    2.6587    1.4236    3.0978 H   0  0  0  0  0  0  0  0  0  0  0  0
    1.3015    2.2870    0.1922 H   0  0  0  0  0  0  0  0  0  0  0  0
   -0.3317   -1.8226   -1.6173 C   0  0  0  0  0  0  0  0  0  0  0  0
   -0.3317   -1.8226   -0.0953 C   0  0  0  0  0  0  0  0  0  0  0  0
   -1.3800   -1.0100    0.3968 O   0  0  0  0  0  0  0  0  0  0  0  0
   -1.2891    0.2896   -0.1025 C   0  0  0  0  0  3  0  0  0  0  0  0
   -1.3800    0.3458   -1.4935 O   0  0  0  0  0  0  0  0  0  0  0  0
   -0.3317   -0.3809   -2.1054 C   0  0  0  0  0  0  0  0  0  0  0  0
    0.5423   -2.3551   -1.9992 H   0  0  0  0  0  0  0  0  0  0  0  0
   -1.2283   -2.3288   -1.9803 H   0  0  0  0  0  0  0  0  0  0  0  0
   -0.4906   -2.8201    0.3121 H   0  0  0  0  0  0  0  0  0  0  0  0
    0.6319   -1.4466    0.2814 H   0  0  0  0  0  0  0  0  0  0  0  0
   -0.1427    0.8320    0.2866 H   0  0  0  0  0  0  0  0  0  0  0  0
   -2.1301    0.8501    0.2995 H   0  0  0  0  0  0  0  0  0  0  0  0
    0.6319    0.0964   -1.8701 H   0  0  0  0  0  0  0  0  0  0  0  0
   -0.4906   -0.3150   -3.1809 H   0  0  0  0  0  0  0  0  0  0  0  0
  1  2  1  0
  1  4  1  0
  2  3  2  3
  3  5  1  0
  3 16  1  0
  6  7  1  0
  6 11  1  0
  6 12  1  0
  6 13  1  0
  7  8  1  0
  7 14  1  0
  7 15  1  0
  8  9  1  0
  9 10  1  0
  9 17  1  0
 10 11  1  0
 11 18  1  0
 11 19  1  0
M  RAD  1   9   2
M  END
>  <reaction>  (18) 
rmg_rxn_15409

>  <mol_properties>  (18) 
{"1": {"label": "*4", "atom_type": "N3d"}, "2": {"label": "*3", "atom_type": "Cd"}, "7": {"label": "*0", "atom_type": "O2s"}, "8": {"label": "*1", "atom_type": "Cs"}, "15": {"label": "*2", "atom_type": "H0"}}

>  <type>  (18) 
unop_14

>  <geom_source>  (18) 
Heuristics

$$$$

     RDKit          3D

 19 18  0  0  0  0  0  0  0  0999 V2000
    2.9235    1.7068    0.5386 O   0  0  0  0  0  0  0  0  0  0  0  0
    1.8842    0.8197    0.7387 N   0  0  0  0  0  0  0  0  0  0  0  0
    0.8283    1.4051    1.1072 C   0  0  0  0  0  0  0  0  0  0  0  0
    3.6491    1.1412    0.2673 H   0  0  0  0  0  0  0  0  0  0  0  0
    0.7720    2.4830    1.2431 H   0  0  0  0  0  0  0  0  0  0  0  0
   -0.4826   -1.7804   -1.1774 C   0  0  0  0  0  0  0  0  0  0  0  0
   -0.4826   -1.7804    0.3446 C   0  0  0  0  0  0  0  0  0  0  0  0
   -1.5309   -0.9678    0.8367 O   0  0  0  0  0  0  0  0  0  0  0  0
   -1.4400    0.3318    0.3374 C   0  0  0  0  0  3  0  0  0  0  0  0
   -1.5309    0.3880   -1.0537 O   0  0  0  0  0  0  0  0  0  0  0  0
   -0.4826   -0.3388   -1.6655 C   0  0  0  0  0  0  0  0  0  0  0  0
    0.3914   -2.3129   -1.5593 H   0  0  0  0  0  0  0  0  0  0  0  0
   -1.3792   -2.2866   -1.5404 H   0  0  0  0  0  0  0  0  0  0  0  0
   -0.6415   -2.7779    0.7519 H   0  0  0  0  0  0  0  0  0  0  0  0
    0.4810   -1.4044    0.7213 H   0  0  0  0  0  0  0  0  0  0  0  0
   -0.2936    0.8742    0.7264 H   0  0  0  0  0  0  0  0  0  0  0  0
   -2.2810    0.8923    0.7394 H   0  0  0  0  0  0  0  0  0  0  0  0
    0.4810    0.1386   -1.4302 H   0  0  0  0  0  0  0  0  0  0  0  0
   -0.6415   -0.2728   -2.7410 H   0  0  0  0  0  0  0  0  0  0  0  0
  1  2  1  0
  1  4  1  0
  2  3  2  3
  3  5  1  0
  3 16  1  0
  6  7  1  0
  6 11  1  0
  6 12  1  0
  6 13  1  0
  7  8  1  0
  7 14  1  0
  7 15  1  0
  8  9  1  0
  9 10  1  0
  9 17  1  0
 10 11  1  0
 11 18  1  0
 11 19  1  0
M  RAD  1   9   2
M  END
>  <reaction>  (19) 
rmg_rxn_15409

>  <mol_properties>  (19) 
{"1": {"label": "*4", "atom_type": "N3d"}, "2": {"label": "*3", "atom_type": "Cd"}, "7": {"label": "*0", "atom_type": "O2s"}, "8": {"label": "*1", "atom_type": "Cs"}, "15": {"label": "*2", "atom_type": "H0"}}

>  <type>  (19) 
unop_15

>  <geom_source>  (19) 
Heuristics

$$$$

     RDKit          3D

 19 18  0  0  0  0  0  0  0  0999 V2000
    2.2825    2.8234    0.8429 O   0  0  0  0  0  0  0  0  0  0  0  0
    1.0572    2.2698    1.1579 N   0  0  0  0  0  0  0  0  0  0  0  0
    1.0500    1.0176    0.9984 C   0  0  0  0  0  0  0  0  0  0  0  0
    2.1515    3.7596    1.0052 H   0  0  0  0  0  0  0  0  0  0  0  0
    1.9211    0.4653    0.6523 H   0  0  0  0  0  0  0  0  0  0  0  0
   -0.2609   -2.1679   -1.2862 C   0  0  0  0  0  0  0  0  0  0  0  0
   -0.2609   -2.1679    0.2358 C   0  0  0  0  0  0  0  0  0  0  0  0
   -1.3092   -1.3553    0.7279 O   0  0  0  0  0  0  0  0  0  0  0  0
   -1.2183   -0.0557    0.2286 C   0  0  0  0  0  3  0  0  0  0  0  0
   -1.3092    0.0005   -1.1625 O   0  0  0  0  0  0  0  0  0  0  0  0
   -0.2609   -0.7262   -1.7743 C   0  0  0  0  0  0  0  0  0  0  0  0
    0.6131   -2.7004   -1.6681 H   0  0  0  0  0  0  0  0  0  0  0  0
   -1.1575   -2.6741   -1.6492 H   0  0  0  0  0  0  0  0  0  0  0  0
   -0.4198   -3.1654    0.6431 H   0  0  0  0  0  0  0  0  0  0  0  0
    0.7027   -1.7919    0.6125 H   0  0  0  0  0  0  0  0  0  0  0  0
   -0.0719    0.4867    0.6176 H   0  0  0  0  0  0  0  0  0  0  0  0
   -2.0593    0.5048    0.6306 H   0  0  0  0  0  0  0  0  0  0  0  0
    0.7027   -0.2489   -1.5390 H   0  0  0  0  0  0  0  0  0  0  0  0
   -0.4198   -0.6603   -2.8498 H   0  0  0  0  0  0  0  0  0  0  0  0
  1  2  1  0
  1  4  1  0
  2  3  2  3
  3  5  1  0
  3 16  1  0
  6  7  1  0
  6 11  1  0
  6 12  1  0
  6 13  1  0
  7  8  1  0
  7 14  1  0
  7 15  1  0
  8  9  1  0
  9 10  1  0
  9 17  1  0
 10 11  1  0
 11 18  1  0
 11 19  1  0
M  RAD  1   9   2
M  END
>  <reaction>  (20) 
rmg_rxn_15409

>  <mol_properties>  (20) 
{"1": {"label": "*4", "atom_type": "N3d"}, "2": {"label": "*3", "atom_type": "Cd"}, "7": {"label": "*0", "atom_type": "O2s"}, "8": {"label": "*1", "atom_type": "Cs"}, "15": {"label": "*2", "atom_type": "H0"}}

>  <type>  (20) 
unop_16

>  <geom_source>  (20) 
Heuristics

$$$$

     RDKit          3D

 19 18  0  0  0  0  0  0  0  0999 V2000
    2.7999    1.4036    1.8406 O   0  0  0  0  0  0  0  0  0  0  0  0
    1.6367    0.7466    1.4908 N   0  0  0  0  0  0  0  0  0  0  0  0
    0.8827    1.4677    0.7802 C   0  0  0  0  0  0  0  0  0  0  0  0
    3.2709    0.7555    2.3680 H   0  0  0  0  0  0  0  0  0  0  0  0
    1.1438    2.4838    0.4922 H   0  0  0  0  0  0  0  0  0  0  0  0
   -0.4281   -1.7178   -1.5044 C   0  0  0  0  0  0  0  0  0  0  0  0
   -0.4281   -1.7178    0.0176 C   0  0  0  0  0  0  0  0  0  0  0  0
   -1.4764   -0.9052    0.5097 O   0  0  0  0  0  0  0  0  0  0  0  0
   -1.3855    0.3944    0.0104 C   0  0  0  0  0  3  0  0  0  0  0  0
   -1.4764    0.4505   -1.3807 O   0  0  0  0  0  0  0  0  0  0  0  0
   -0.4281   -0.2762   -1.9925 C   0  0  0  0  0  0  0  0  0  0  0  0
    0.4459   -2.2503   -1.8863 H   0  0  0  0  0  0  0  0  0  0  0  0
   -1.3247   -2.2240   -1.8674 H   0  0  0  0  0  0  0  0  0  0  0  0
   -0.5871   -2.7153    0.4249 H   0  0  0  0  0  0  0  0  0  0  0  0
    0.5355   -1.3418    0.3943 H   0  0  0  0  0  0  0  0  0  0  0  0
   -0.2391    0.9368    0.3994 H   0  0  0  0  0  0  0  0  0  0  0  0
   -2.2266    0.9549    0.4124 H   0  0  0  0  0  0  0  0  0  0  0  0
    0.5355    0.2012   -1.7572 H   0  0  0  0  0  0  0  0  0  0  0  0
   -0.5871   -0.2102   -3.0680 H   0  0  0  0  0  0  0  0  0  0  0  0
  1  2  1  0
  1  4  1  0
  2  3  2  3
  3  5  1  0
  3 16  1  0
  6  7  1  0
  6 11  1  0
  6 12  1  0
  6 13  1  0
  7  8  1  0
  7 14  1  0
  7 15  1  0
  8  9  1  0
  9 10  1  0
  9 17  1  0
 10 11  1  0
 11 18  1  0
 11 19  1  0
M  RAD  1   9   2
M  END
>  <reaction>  (21) 
rmg_rxn_15409

>  <mol_properties>  (21) 
{"1": {"label": "*4", "atom_type": "N3d"}, "2": {"label": "*3", "atom_type": "Cd"}, "7": {"label": "*0", "atom_type": "O2s"}, "8": {"label": "*1", "atom_type": "Cs"}, "15": {"label": "*2", "atom_type": "H0"}}

>  <type>  (21) 
unop_17

>  <geom_source>  (21) 
Heuristics

$$$$

     RDKit          3D

 19 18  0  0  0  0  0  0  0  0999 V2000
   -0.3377    0.8100    0.6325 O   0  0  0  0  0  0  0  0  0  0  0  0
   -0.4117   -1.4281   -0.2342 O   0  0  0  0  0  0  0  0  0  0  0  0
    3.7700    1.3915    0.8524 O   0  0  0  0  0  0  0  0  0  0  0  0
    3.6888    0.8263   -0.4023 N   0  0  0  0  0  0  0  0  0  0  0  0
   -2.4428   -0.1546   -0.0322 C   0  0  0  0  0  0  0  0  0  0  0  0
   -1.4297    0.9722   -0.2457 C   0  0  0  0  0  0  0  0  0  0  0  0
   -1.6913   -1.4296    0.3571 C   0  0  0  0  0  0  0  0  0  0  0  0
    0.3765   -0.3846    0.3266 C   0  0  0  0  0  3  0  0  0  0  0  0
    2.7143    0.0416   -0.7322 C   0  0  0  0  0  0  0  0  0  0  0  0
   -3.0170   -0.3166   -0.9703 H   0  0  0  0  0  0  0  0  0  0  0  0
   -3.1552    0.1165    0.7770 H   0  0  0  0  0  0  0  0  0  0  0  0
   -1.9169    1.9492   -0.0423 H   0  0  0  0  0  0  0  0  0  0  0  0
   -1.0796    0.9893   -1.3038 H   0  0  0  0  0  0  0  0  0  0  0  0
   -1.6117   -1.5160    1.4659 H   0  0  0  0  0  0  0  0  0  0  0  0
   -2.2561   -2.3152   -0.0032 H   0  0  0  0  0  0  0  0  0  0  0  0
    1.2257   -0.1532   -0.3501 H   0  0  0  0  0  0  0  0  0  0  0  0
    2.6808   -0.3852   -1.7252 H   0  0  0  0  0  0  0  0  0  0  0  0
    1.8258   -0.2253    0.0682 H   0  0  0  0  0  0  0  0  0  0  0  0
    3.0680    1.2120    1.5619 H   0  0  0  0  0  0  0  0  0  0  0  0
  1  6  1  0
  1  8  1  0
  2  7  1  0
  2  8  1  0
  3  4  1  0
  3 19  1  0
  4  9  2  3
  5  6  1  0
  5  7  1  0
  5 10  1  0
  5 11  1  0
  6 12  1  0
  6 13  1  0
  7 14  1  0
  7 15  1  0
  8 16  1  0
  9 17  1  0
  9 18  1  0
M  RAD  1   8   2
M  END
>  <reaction>  (22) 
rmg_rxn_15409

>  <mol_properties>  (22) 
{"1": {"label": "*4", "atom_type": "N3d"}, "2": {"label": "*3", "atom_type": "Cd"}, "7": {"label": "*0", "atom_type": "O2s"}, "8": {"label": "*1", "atom_type": "Cs"}, "15": {"label": "*2", "atom_type": "H0"}}

>  <type>  (22) 
unop_18

>  <geom_source>  (22) 
AutoTST

$$$$

     RDKit          3D

 19 18  0  0  0  0  0  0  0  0999 V2000
    3.0062    1.3564    1.1347 O   0  0  0  0  0  0  0  0  0  0  0  0
    1.7951    0.6930    1.1240 N   0  0  0  0  0  0  0  0  0  0  0  0
    0.8257    1.4830    0.9520 C   0  0  0  0  0  0  0  0  0  0  0  0
    3.6437    0.6526    1.2705 H   0  0  0  0  0  0  0  0  0  0  0  0
    0.9579    2.5559    0.8295 H   0  0  0  0  0  0  0  0  0  0  0  0
   -0.4852   -1.7025   -1.3326 C   0  0  0  0  0  0  0  0  0  0  0  0
   -0.4852   -1.7025    0.1895 C   0  0  0  0  0  0  0  0  0  0  0  0
   -1.5335   -0.8898    0.6816 O   0  0  0  0  0  0  0  0  0  0  0  0
   -1.4426    0.4097    0.1822 C   0  0  0  0  0  3  0  0  0  0  0  0
   -1.5335    0.4659   -1.2088 O   0  0  0  0  0  0  0  0  0  0  0  0
   -0.4852   -0.2608   -1.8207 C   0  0  0  0  0  0  0  0  0  0  0  0
    0.3888   -2.2349   -1.7145 H   0  0  0  0  0  0  0  0  0  0  0  0
   -1.3818   -2.2086   -1.6956 H   0  0  0  0  0  0  0  0  0  0  0  0
   -0.6441   -2.7000    0.5968 H   0  0  0  0  0  0  0  0  0  0  0  0
    0.4784   -1.3265    0.5662 H   0  0  0  0  0  0  0  0  0  0  0  0
   -0.2962    0.9522    0.5713 H   0  0  0  0  0  0  0  0  0  0  0  0
   -2.2836    0.9702    0.5842 H   0  0  0  0  0  0  0  0  0  0  0  0
    0.4784    0.2166   -1.5854 H   0  0  0  0  0  0  0  0  0  0  0  0
   -0.6441   -0.1949   -2.8961 H   0  0  0  0  0  0  0  0  0  0  0  0
  1  2  1  0
  1  4  1  0
  2  3  2  3
  3  5  1  0
  3 16  1  0
  6  7  1  0
  6 11  1  0
  6 12  1  0
  6 13  1  0
  7  8  1  0
  7 14  1  0
  7 15  1  0
  8  9  1  0
  9 10  1  0
  9 17  1  0
 10 11  1  0
 11 18  1  0
 11 19  1  0
M  RAD  1   9   2
M  END
>  <reaction>  (23) 
rmg_rxn_15409

>  <mol_properties>  (23) 
{"1": {"label": "*4", "atom_type": "N3d"}, "2": {"label": "*3", "atom_type": "Cd"}, "7": {"label": "*0", "atom_type": "O2s"}, "8": {"label": "*1", "atom_type": "Cs"}, "15": {"label": "*2", "atom_type": "H0"}}

>  <type>  (23) 
unop_19

>  <geom_source>  (23) 
gaussian_log

$$$$
