
     RDKit          3D

  9  8  0  0  0  0  0  0  0  0999 V2000
   -0.8818   -0.3578    0.1297 C   0  0  0  0  0  0  0  0  0  0  0  0
    0.6153   -0.3021   -0.1188 C   0  0  0  0  0  0  0  0  0  0  0  0
    1.5354   -1.7170    0.5545 S   0  0  0  0  0  0  0  0  0  0  0  0
   -1.1018   -0.3317    1.1984 H   0  0  0  0  0  0  0  0  0  0  0  0
   -1.3114   -1.2723   -0.2799 H   0  0  0  0  0  0  0  0  0  0  0  0
   -1.3767    0.4976   -0.3363 H   0  0  0  0  0  0  0  0  0  0  0  0
    1.0467    0.6194    0.2718 H   0  0  0  0  0  0  0  0  0  0  0  0
    0.8295   -0.3275   -1.1882 H   0  0  0  0  0  0  0  0  0  0  0  0
    1.2306   -1.5077    1.8423 H   0  0  0  0  0  0  0  0  0  0  0  0
  1  2  1  0
  1  4  1  0
  1  5  1  0
  1  6  1  0
  2  3  1  0
  2  7  1  0
  2  8  1  0
  3  9  1  0
M  END
>  <reaction>  (1) 
rmg_rxn_173

>  <mol_properties>  (1) 
{"2": {"label": "donator", "atom_type": "S2s"}, "8": {"label": "d_hydrogen", "atom_type": "H0"}}

>  <type>  (1) 
r1h

$$$$

     RDKit          3D

  8  7  0  0  0  0  0  0  0  0999 V2000
   -1.0336    0.3440   -0.0356 C   0  0  0  0  0  3  0  0  0  0  0  0
    0.1991   -0.4326   -0.0698 C   0  0  0  0  0  0  0  0  0  0  0  0
    0.9631   -0.0368    1.2269 N   0  0  0  0  0  0  0  0  0  0  0  0
    0.8138   -0.8074    2.1160 O   0  0  0  0  0  0  0  0  0  0  0  0
   -1.0668    1.3490   -0.4321 H   0  0  0  0  0  0  0  0  0  0  0  0
   -1.8598    0.0102    0.5774 H   0  0  0  0  0  0  0  0  0  0  0  0
    0.0447   -1.5108   -0.0264 H   0  0  0  0  0  0  0  0  0  0  0  0
    0.8639   -0.1518   -0.8851 H   0  0  0  0  0  0  0  0  0  0  0  0
  1  2  1  0
  1  5  1  0
  1  6  1  0
  2  3  1  0
  2  7  1  0
  2  8  1  0
  3  4  2  0
M  RAD  1   1   2
M  END
>  <reaction>  (2) 
rmg_rxn_173

>  <mol_properties>  (2) 
{"0": {"label": "acceptor", "atom_type": "Cs"}}

>  <type>  (2) 
r2

$$$$

     RDKit          3D

  9  8  0  0  0  0  0  0  0  0999 V2000
   -1.0314    0.2323   -0.1227 C   0  0  0  0  0  0  0  0  0  0  0  0
    0.3094   -0.4511    0.0063 C   0  0  0  0  0  0  0  0  0  0  0  0
    0.3197   -1.7698    0.6841 N   0  0  0  0  0  0  0  0  0  0  0  0
   -0.7498   -2.1455    1.0557 O   0  0  0  0  0  0  0  0  0  0  0  0
   -1.4744    0.4198    0.8552 H   0  0  0  0  0  0  0  0  0  0  0  0
   -0.9073    1.1865   -0.6350 H   0  0  0  0  0  0  0  0  0  0  0  0
   -1.7319   -0.3778   -0.6927 H   0  0  0  0  0  0  0  0  0  0  0  0
    1.0375    0.1401    0.5713 H   0  0  0  0  0  0  0  0  0  0  0  0
    0.7826   -0.6494   -0.9609 H   0  0  0  0  0  0  0  0  0  0  0  0
  1  2  1  0
  1  5  1  0
  1  6  1  0
  1  7  1  0
  2  3  1  0
  2  8  1  0
  2  9  1  0
  3  4  2  0
M  END
>  <reaction>  (3) 
rmg_rxn_173

>  <mol_properties>  (3) 
{"0": {"label": "acceptor", "atom_type": "Cs"}, "8": {"label": "a_hydrogen", "atom_type": "H0"}}

>  <type>  (3) 
r2h

$$$$

     RDKit          3D

 17 15  0  0  0  0  0  0  0  0999 V2000
    0.1797    1.2507   -0.2843 C   0  0  0  0  0  3  0  0  0  0  0  0
    1.3322    1.0664    0.6311 C   0  0  0  0  0  0  0  0  0  0  0  0
    2.1949   -0.1207    0.4019 N   0  0  0  0  0  0  0  0  0  0  0  0
    1.8937   -0.7817   -0.5436 O   0  0  0  0  0  0  0  0  0  0  0  0
   -0.4179    2.1418   -0.1287 H   0  0  0  0  0  0  0  0  0  0  0  0
    0.3008    0.9415   -1.3156 H   0  0  0  0  0  0  0  0  0  0  0  0
    2.0398    1.9070    0.5935 H   0  0  0  0  0  0  0  0  0  0  0  0
    1.0336    0.9900    1.6817 H   0  0  0  0  0  0  0  0  0  0  0  0
   -1.2681   -2.1290   -1.6123 C   0  0  0  0  0  0  0  0  0  0  0  0
   -1.1585   -2.2064   -0.0999 C   0  0  0  0  0  0  0  0  0  0  0  0
   -1.8044   -0.7498    0.7703 S   0  0  0  0  0  0  0  0  0  0  0  0
   -0.6535   -1.3168   -2.0024 H   0  0  0  0  0  0  0  0  0  0  0  0
   -2.2998   -1.9580   -1.9214 H   0  0  0  0  0  0  0  0  0  0  0  0
   -0.9174   -3.0591   -2.0655 H   0  0  0  0  0  0  0  0  0  0  0  0
   -0.1283   -2.3806    0.2081 H   0  0  0  0  0  0  0  0  0  0  0  0
   -1.7533   -3.0359    0.2879 H   0  0  0  0  0  0  0  0  0  0  0  0
   -0.8720    0.2146    0.1995 H   0  0  0  0  0  0  0  0  0  0  0  0
  1  2  1  0
  1  5  1  0
  1  6  1  0
  2  3  1  0
  2  7  1  0
  2  8  1  0
  3  4  2  0
  9 10  1  0
  9 12  1  0
  9 13  1  0
  9 14  1  0
 10 11  1  0
 10 15  1  0
 10 16  1  0
 11 17  1  0
M  RAD  1   1   2
M  END
>  <reaction>  (4) 
rmg_rxn_173

>  <mol_properties>  (4) 
{"0": {"label": "*3", "atom_type": "Cs"}, "1": {"label": "*4", "atom_type": "Cs"}, "9": {"label": "*0", "atom_type": "Cs"}, "10": {"label": "*1", "atom_type": "S2s"}, "16": {"label": "*2", "atom_type": "H0"}}

>  <type>  (4) 
ts

$$$$

     RDKit          3D

 17 15  0  0  0  0  0  0  0  0999 V2000
    1.0084    0.1756    0.0045 C   0  0  0  0  0  0  0  0  0  0  0  0
    0.7990    1.4017   -0.8526 C   0  0  0  0  0  0  0  0  0  0  0  0
    1.8350    2.4587   -0.7630 N   0  0  0  0  0  0  0  0  0  0  0  0
    2.7294    2.2151   -0.0121 O   0  0  0  0  0  0  0  0  0  0  0  0
    1.9410   -0.3282   -0.2488 H   0  0  0  0  0  0  0  0  0  0  0  0
    1.0483    0.4357    1.0620 H   0  0  0  0  0  0  0  0  0  0  0  0
    0.7500    1.1720   -1.9220 H   0  0  0  0  0  0  0  0  0  0  0  0
   -0.1336    1.9281   -0.6245 H   0  0  0  0  0  0  0  0  0  0  0  0
   -1.5485   -2.3560   -1.1633 C   0  0  0  0  0  0  0  0  0  0  0  0
   -1.5485   -2.3560    0.3554 C   0  0  0  0  0  0  0  0  0  0  0  0
   -1.5485   -0.6986    1.1004 S   0  0  0  0  0  1  0  0  0  0  0  0
   -0.6419   -1.8906   -1.5540 H   0  0  0  0  0  0  0  0  0  0  0  0
   -2.4045   -1.8048   -1.5534 H   0  0  0  0  0  0  0  0  0  0  0  0
   -1.5916   -3.3794   -1.5436 H   0  0  0  0  0  0  0  0  0  0  0  0
   -0.7052   -2.9221    0.7505 H   0  0  0  0  0  0  0  0  0  0  0  0
   -2.4561   -2.8230    0.7405 H   0  0  0  0  0  0  0  0  0  0  0  0
   -0.1387   -0.2166    0.4961 H   0  0  0  0  0  0  0  0  0  0  0  0
  1  2  1  0
  1  5  1  0
  1  6  1  0
  1 17  1  0
  2  3  1  0
  2  7  1  0
  2  8  1  0
  3  4  2  0
  9 10  1  0
  9 12  1  0
  9 13  1  0
  9 14  1  0
 10 11  1  0
 10 15  1  0
 10 16  1  0
M  RAD  1  11   2
M  END
>  <reaction>  (5) 
rmg_rxn_173

>  <mol_properties>  (5) 
{"0": {"label": "*3", "atom_type": "Cs"}, "1": {"label": "*4", "atom_type": "Cs"}, "9": {"label": "*0", "atom_type": "Cs"}, "10": {"label": "*1", "atom_type": "S2s"}, "16": {"label": "*2", "atom_type": "H0"}}

>  <type>  (5) 
unop_1

>  <geom_source>  (5) 
Heuristics

$$$$

     RDKit          3D

 17 15  0  0  0  0  0  0  0  0999 V2000
    0.8981    0.8221    0.4618 C   0  0  0  0  0  0  0  0  0  0  0  0
    1.1381    0.1436   -0.8663 C   0  0  0  0  0  0  0  0  0  0  0  0
    2.1549    0.7599   -1.7521 N   0  0  0  0  0  0  0  0  0  0  0  0
    2.6750    1.7368   -1.3068 O   0  0  0  0  0  0  0  0  0  0  0  0
    1.8080    0.8491    1.0610 H   0  0  0  0  0  0  0  0  0  0  0  0
    0.5604    1.8491    0.3248 H   0  0  0  0  0  0  0  0  0  0  0  0
    1.4746   -0.8930   -0.7617 H   0  0  0  0  0  0  0  0  0  0  0  0
    0.2397    0.0969   -1.4905 H   0  0  0  0  0  0  0  0  0  0  0  0
   -1.6588   -1.7095   -0.7060 C   0  0  0  0  0  0  0  0  0  0  0  0
   -1.6588   -1.7095    0.8127 C   0  0  0  0  0  0  0  0  0  0  0  0
   -1.6588   -0.0522    1.5577 S   0  0  0  0  0  1  0  0  0  0  0  0
   -0.7521   -1.2441   -1.0967 H   0  0  0  0  0  0  0  0  0  0  0  0
   -2.5147   -1.1583   -1.0961 H   0  0  0  0  0  0  0  0  0  0  0  0
   -1.7018   -2.7329   -1.0863 H   0  0  0  0  0  0  0  0  0  0  0  0
   -0.8155   -2.2756    1.2078 H   0  0  0  0  0  0  0  0  0  0  0  0
   -2.5664   -2.1766    1.1978 H   0  0  0  0  0  0  0  0  0  0  0  0
   -0.2490    0.4299    0.9534 H   0  0  0  0  0  0  0  0  0  0  0  0
  1  2  1  0
  1  5  1  0
  1  6  1  0
  1 17  1  0
  2  3  1  0
  2  7  1  0
  2  8  1  0
  3  4  2  0
  9 10  1  0
  9 12  1  0
  9 13  1  0
  9 14  1  0
 10 11  1  0
 10 15  1  0
 10 16  1  0
M  RAD  1  11   2
M  END
>  <reaction>  (6) 
rmg_rxn_173

>  <mol_properties>  (6) 
{"0": {"label": "*3", "atom_type": "Cs"}, "1": {"label": "*4", "atom_type": "Cs"}, "9": {"label": "*0", "atom_type": "Cs"}, "10": {"label": "*1", "atom_type": "S2s"}, "16": {"label": "*2", "atom_type": "H0"}}

>  <type>  (6) 
unop_2

>  <geom_source>  (6) 
Heuristics

$$$$

     RDKit          3D

 17 15  0  0  0  0  0  0  0  0999 V2000
    0.8662    0.2287   -0.1621 C   0  0  0  0  0  0  0  0  0  0  0  0
    0.8463    1.7259   -0.3609 C   0  0  0  0  0  0  0  0  0  0  0  0
    2.1528    2.4229   -0.2847 N   0  0  0  0  0  0  0  0  0  0  0  0
    3.0847    1.7092   -0.0717 O   0  0  0  0  0  0  0  0  0  0  0  0
    1.4857   -0.2608   -0.9133 H   0  0  0  0  0  0  0  0  0  0  0  0
    1.2637   -0.0339    0.8181 H   0  0  0  0  0  0  0  0  0  0  0  0
    0.4473    2.0220   -1.3365 H   0  0  0  0  0  0  0  0  0  0  0  0
    0.2276    2.2466    0.3773 H   0  0  0  0  0  0  0  0  0  0  0  0
   -1.6906   -2.3029   -1.3298 C   0  0  0  0  0  0  0  0  0  0  0  0
   -1.6906   -2.3029    0.1888 C   0  0  0  0  0  0  0  0  0  0  0  0
   -1.6906   -0.6455    0.9338 S   0  0  0  0  0  1  0  0  0  0  0  0
   -0.7840   -1.8375   -1.7206 H   0  0  0  0  0  0  0  0  0  0  0  0
   -2.5466   -1.7517   -1.7199 H   0  0  0  0  0  0  0  0  0  0  0  0
   -1.7337   -3.3263   -1.7101 H   0  0  0  0  0  0  0  0  0  0  0  0
   -0.8474   -2.8690    0.5839 H   0  0  0  0  0  0  0  0  0  0  0  0
   -2.5982   -2.7700    0.5740 H   0  0  0  0  0  0  0  0  0  0  0  0
   -0.2809   -0.1635    0.3296 H   0  0  0  0  0  0  0  0  0  0  0  0
  1  2  1  0
  1  5  1  0
  1  6  1  0
  1 17  1  0
  2  3  1  0
  2  7  1  0
  2  8  1  0
  3  4  2  0
  9 10  1  0
  9 12  1  0
  9 13  1  0
  9 14  1  0
 10 11  1  0
 10 15  1  0
 10 16  1  0
M  RAD  1  11   2
M  END
>  <reaction>  (7) 
rmg_rxn_173

>  <mol_properties>  (7) 
{"0": {"label": "*3", "atom_type": "Cs"}, "1": {"label": "*4", "atom_type": "Cs"}, "9": {"label": "*0", "atom_type": "Cs"}, "10": {"label": "*1", "atom_type": "S2s"}, "16": {"label": "*2", "atom_type": "H0"}}

>  <type>  (7) 
unop_3

>  <geom_source>  (7) 
Heuristics

$$$$

     RDKit          3D

 17 15  0  0  0  0  0  0  0  0999 V2000
    0.5643    0.8893   -0.3770 C   0  0  0  0  0  0  0  0  0  0  0  0
    1.6613   -0.0333    0.0996 C   0  0  0  0  0  0  0  0  0  0  0  0
    3.0013    0.5721    0.2903 N   0  0  0  0  0  0  0  0  0  0  0  0
    3.0599    1.7372    0.0413 O   0  0  0  0  0  0  0  0  0  0  0  0
    0.4021    1.7057    0.3264 H   0  0  0  0  0  0  0  0  0  0  0  0
    0.8103    1.3282   -1.3437 H   0  0  0  0  0  0  0  0  0  0  0  0
    1.4411   -0.4940    1.0681 H   0  0  0  0  0  0  0  0  0  0  0  0
    1.8451   -0.8677   -0.5851 H   0  0  0  0  0  0  0  0  0  0  0  0
   -1.9925   -1.6423   -1.5448 C   0  0  0  0  0  0  0  0  0  0  0  0
   -1.9925   -1.6423   -0.0261 C   0  0  0  0  0  0  0  0  0  0  0  0
   -1.9925    0.0151    0.7189 S   0  0  0  0  0  1  0  0  0  0  0  0
   -1.0859   -1.1769   -1.9355 H   0  0  0  0  0  0  0  0  0  0  0  0
   -2.8485   -1.0911   -1.9349 H   0  0  0  0  0  0  0  0  0  0  0  0
   -2.0356   -2.6656   -1.9251 H   0  0  0  0  0  0  0  0  0  0  0  0
   -1.1493   -2.2084    0.3690 H   0  0  0  0  0  0  0  0  0  0  0  0
   -2.9001   -2.1093    0.3590 H   0  0  0  0  0  0  0  0  0  0  0  0
   -0.5828    0.4971    0.1146 H   0  0  0  0  0  0  0  0  0  0  0  0
  1  2  1  0
  1  5  1  0
  1  6  1  0
  1 17  1  0
  2  3  1  0
  2  7  1  0
  2  8  1  0
  3  4  2  0
  9 10  1  0
  9 12  1  0
  9 13  1  0
  9 14  1  0
 10 11  1  0
 10 15  1  0
 10 16  1  0
M  RAD  1  11   2
M  END
>  <reaction>  (8) 
rmg_rxn_173

>  <mol_properties>  (8) 
{"0": {"label": "*3", "atom_type": "Cs"}, "1": {"label": "*4", "atom_type": "Cs"}, "9": {"label": "*0", "atom_type": "Cs"}, "10": {"label": "*1", "atom_type": "S2s"}, "16": {"label": "*2", "atom_type": "H0"}}

>  <type>  (8) 
unop_4

>  <geom_source>  (8) 
Heuristics

$$$$

     RDKit          3D

 17 15  0  0  0  0  0  0  0  0999 V2000
    0.7967    0.2849   -0.1463 C   0  0  0  0  0  0  0  0  0  0  0  0
    1.0905    1.6927    0.3155 C   0  0  0  0  0  0  0  0  0  0  0  0
    2.3618    2.2937   -0.1547 N   0  0  0  0  0  0  0  0  0  0  0  0
    3.0172    1.5845   -0.8551 O   0  0  0  0  0  0  0  0  0  0  0  0
    0.7443    0.2292   -1.2334 H   0  0  0  0  0  0  0  0  0  0  0  0
    1.5700   -0.4082    0.1845 H   0  0  0  0  0  0  0  0  0  0  0  0
    0.3279    2.4130    0.0018 H   0  0  0  0  0  0  0  0  0  0  0  0
    1.1452    1.7821    1.4054 H   0  0  0  0  0  0  0  0  0  0  0  0
   -1.7601   -2.2467   -1.3140 C   0  0  0  0  0  0  0  0  0  0  0  0
   -1.7601   -2.2467    0.2046 C   0  0  0  0  0  0  0  0  0  0  0  0
   -1.7601   -0.5893    0.9496 S   0  0  0  0  0  1  0  0  0  0  0  0
   -0.8535   -1.7813   -1.7048 H   0  0  0  0  0  0  0  0  0  0  0  0
   -2.6161   -1.6955   -1.7041 H   0  0  0  0  0  0  0  0  0  0  0  0
   -1.8032   -3.2701   -1.6943 H   0  0  0  0  0  0  0  0  0  0  0  0
   -0.9169   -2.8128    0.5997 H   0  0  0  0  0  0  0  0  0  0  0  0
   -2.6677   -2.7137    0.5898 H   0  0  0  0  0  0  0  0  0  0  0  0
   -0.3504   -0.1073    0.3454 H   0  0  0  0  0  0  0  0  0  0  0  0
  1  2  1  0
  1  5  1  0
  1  6  1  0
  1 17  1  0
  2  3  1  0
  2  7  1  0
  2  8  1  0
  3  4  2  0
  9 10  1  0
  9 12  1  0
  9 13  1  0
  9 14  1  0
 10 11  1  0
 10 15  1  0
 10 16  1  0
M  RAD  1  11   2
M  END
>  <reaction>  (9) 
rmg_rxn_173

>  <mol_properties>  (9) 
{"0": {"label": "*3", "atom_type": "Cs"}, "1": {"label": "*4", "atom_type": "Cs"}, "9": {"label": "*0", "atom_type": "Cs"}, "10": {"label": "*1", "atom_type": "S2s"}, "16": {"label": "*2", "atom_type": "H0"}}

>  <type>  (9) 
unop_5

>  <geom_source>  (9) 
Heuristics

$$$$

     RDKit          3D

 17 15  0  0  0  0  0  0  0  0999 V2000
    0.6468    0.6107   -0.4913 C   0  0  0  0  0  0  0  0  0  0  0  0
    1.7581    0.2472    0.4649 C   0  0  0  0  0  0  0  0  0  0  0  0
    2.8471    1.2406    0.6252 N   0  0  0  0  0  0  0  0  0  0  0  0
    2.7182    2.2289   -0.0303 O   0  0  0  0  0  0  0  0  0  0  0  0
    0.1434    1.5263   -0.1813 H   0  0  0  0  0  0  0  0  0  0  0  0
    1.0294    0.7676   -1.4995 H   0  0  0  0  0  0  0  0  0  0  0  0
    1.4040    0.0786    1.4872 H   0  0  0  0  0  0  0  0  0  0  0  0
    2.2810   -0.6723    0.1823 H   0  0  0  0  0  0  0  0  0  0  0  0
   -1.9101   -1.9208   -1.6590 C   0  0  0  0  0  0  0  0  0  0  0  0
   -1.9101   -1.9208   -0.1403 C   0  0  0  0  0  0  0  0  0  0  0  0
   -1.9101   -0.2635    0.6046 S   0  0  0  0  0  1  0  0  0  0  0  0
   -1.0035   -1.4554   -2.0498 H   0  0  0  0  0  0  0  0  0  0  0  0
   -2.7661   -1.3696   -2.0491 H   0  0  0  0  0  0  0  0  0  0  0  0
   -1.9532   -2.9442   -2.0393 H   0  0  0  0  0  0  0  0  0  0  0  0
   -1.0668   -2.4870    0.2548 H   0  0  0  0  0  0  0  0  0  0  0  0
   -2.8177   -2.3879    0.2448 H   0  0  0  0  0  0  0  0  0  0  0  0
   -0.5003    0.2185    0.0004 H   0  0  0  0  0  0  0  0  0  0  0  0
  1  2  1  0
  1  5  1  0
  1  6  1  0
  1 17  1  0
  2  3  1  0
  2  7  1  0
  2  8  1  0
  3  4  2  0
  9 10  1  0
  9 12  1  0
  9 13  1  0
  9 14  1  0
 10 11  1  0
 10 15  1  0
 10 16  1  0
M  RAD  1  11   2
M  END
>  <reaction>  (10) 
rmg_rxn_173

>  <mol_properties>  (10) 
{"0": {"label": "*3", "atom_type": "Cs"}, "1": {"label": "*4", "atom_type": "Cs"}, "9": {"label": "*0", "atom_type": "Cs"}, "10": {"label": "*1", "atom_type": "S2s"}, "16": {"label": "*2", "atom_type": "H0"}}

>  <type>  (10) 
unop_6

>  <geom_source>  (10) 
Heuristics

$$$$

     RDKit          3D

 17 15  0  0  0  0  0  0  0  0999 V2000
    0.7642    0.3641   -0.4148 C   0  0  0  0  0  0  0  0  0  0  0  0
    1.7111    0.6976    0.7138 C   0  0  0  0  0  0  0  0  0  0  0  0
    2.5826    1.8816    0.5208 N   0  0  0  0  0  0  0  0  0  0  0  0
    2.4332    2.4438   -0.5207 O   0  0  0  0  0  0  0  0  0  0  0  0
    0.0757    1.1865   -0.6082 H   0  0  0  0  0  0  0  0  0  0  0  0
    1.3067    0.1614   -1.3381 H   0  0  0  0  0  0  0  0  0  0  0  0
    1.1953    0.9023    1.6577 H   0  0  0  0  0  0  0  0  0  0  0  0
    2.4138   -0.1123    0.9352 H   0  0  0  0  0  0  0  0  0  0  0  0
   -1.7927   -2.1675   -1.5826 C   0  0  0  0  0  0  0  0  0  0  0  0
   -1.7927   -2.1675   -0.0639 C   0  0  0  0  0  0  0  0  0  0  0  0
   -1.7927   -0.5102    0.6811 S   0  0  0  0  0  1  0  0  0  0  0  0
   -0.8860   -1.7021   -1.9733 H   0  0  0  0  0  0  0  0  0  0  0  0
   -2.6486   -1.6163   -1.9727 H   0  0  0  0  0  0  0  0  0  0  0  0
   -1.8357   -3.1909   -1.9629 H   0  0  0  0  0  0  0  0  0  0  0  0
   -0.9494   -2.7336    0.3312 H   0  0  0  0  0  0  0  0  0  0  0  0
   -2.7003   -2.6346    0.3212 H   0  0  0  0  0  0  0  0  0  0  0  0
   -0.3829   -0.0281    0.0768 H   0  0  0  0  0  0  0  0  0  0  0  0
  1  2  1  0
  1  5  1  0
  1  6  1  0
  1 17  1  0
  2  3  1  0
  2  7  1  0
  2  8  1  0
  3  4  2  0
  9 10  1  0
  9 12  1  0
  9 13  1  0
  9 14  1  0
 10 11  1  0
 10 15  1  0
 10 16  1  0
M  RAD  1  11   2
M  END
>  <reaction>  (11) 
rmg_rxn_173

>  <mol_properties>  (11) 
{"0": {"label": "*3", "atom_type": "Cs"}, "1": {"label": "*4", "atom_type": "Cs"}, "9": {"label": "*0", "atom_type": "Cs"}, "10": {"label": "*1", "atom_type": "S2s"}, "16": {"label": "*2", "atom_type": "H0"}}

>  <type>  (11) 
unop_7

>  <geom_source>  (11) 
Heuristics

$$$$

     RDKit          3D

 17 15  0  0  0  0  0  0  0  0999 V2000
    1.0841    0.2731    0.2599 C   0  0  0  0  0  0  0  0  0  0  0  0
    0.8604    0.9402   -1.0767 C   0  0  0  0  0  0  0  0  0  0  0  0
    1.6865    2.1365   -1.3679 N   0  0  0  0  0  0  0  0  0  0  0  0
    2.4454    2.4395   -0.4988 O   0  0  0  0  0  0  0  0  0  0  0  0
    2.1136   -0.0693    0.3624 H   0  0  0  0  0  0  0  0  0  0  0  0
    0.8790    0.9584    1.0820 H   0  0  0  0  0  0  0  0  0  0  0  0
    1.0544    0.2745   -1.9242 H   0  0  0  0  0  0  0  0  0  0  0  0
   -0.1677    1.2919   -1.2118 H   0  0  0  0  0  0  0  0  0  0  0  0
   -1.4727   -2.2585   -0.9079 C   0  0  0  0  0  0  0  0  0  0  0  0
   -1.4727   -2.2585    0.6108 C   0  0  0  0  0  0  0  0  0  0  0  0
   -1.4727   -0.6011    1.3558 S   0  0  0  0  0  1  0  0  0  0  0  0
   -0.5661   -1.7931   -1.2986 H   0  0  0  0  0  0  0  0  0  0  0  0
   -2.3287   -1.7073   -1.2980 H   0  0  0  0  0  0  0  0  0  0  0  0
   -1.5158   -3.2818   -1.2882 H   0  0  0  0  0  0  0  0  0  0  0  0
   -0.6295   -2.8246    1.0059 H   0  0  0  0  0  0  0  0  0  0  0  0
   -2.3803   -2.7255    0.9959 H   0  0  0  0  0  0  0  0  0  0  0  0
   -0.0630   -0.1191    0.7515 H   0  0  0  0  0  0  0  0  0  0  0  0
  1  2  1  0
  1  5  1  0
  1  6  1  0
  1 17  1  0
  2  3  1  0
  2  7  1  0
  2  8  1  0
  3  4  2  0
  9 10  1  0
  9 12  1  0
  9 13  1  0
  9 14  1  0
 10 11  1  0
 10 15  1  0
 10 16  1  0
M  RAD  1  11   2
M  END
>  <reaction>  (12) 
rmg_rxn_173

>  <mol_properties>  (12) 
{"0": {"label": "*3", "atom_type": "Cs"}, "1": {"label": "*4", "atom_type": "Cs"}, "9": {"label": "*0", "atom_type": "Cs"}, "10": {"label": "*1", "atom_type": "S2s"}, "16": {"label": "*2", "atom_type": "H0"}}

>  <type>  (12) 
unop_8

>  <geom_source>  (12) 
Heuristics

$$$$

     RDKit          3D

 17 15  0  0  0  0  0  0  0  0999 V2000
    0.5765    1.0704   -0.0906 C   0  0  0  0  0  0  0  0  0  0  0  0
    1.4840   -0.1234   -0.2722 C   0  0  0  0  0  0  0  0  0  0  0  0
    2.9321    0.1599   -0.4173 N   0  0  0  0  0  0  0  0  0  0  0  0
    3.2186    1.3171   -0.3732 O   0  0  0  0  0  0  0  0  0  0  0  0
    0.8398    1.6335    0.8045 H   0  0  0  0  0  0  0  0  0  0  0  0
    0.6423    1.7489   -0.9408 H   0  0  0  0  0  0  0  0  0  0  0  0
    1.4368   -0.8272    0.5652 H   0  0  0  0  0  0  0  0  0  0  0  0
    1.2413   -0.7129   -1.1624 H   0  0  0  0  0  0  0  0  0  0  0  0
   -1.9804   -1.4612   -1.2583 C   0  0  0  0  0  0  0  0  0  0  0  0
   -1.9804   -1.4612    0.2603 C   0  0  0  0  0  0  0  0  0  0  0  0
   -1.9804    0.1961    1.0053 S   0  0  0  0  0  1  0  0  0  0  0  0
   -1.0738   -0.9958   -1.6491 H   0  0  0  0  0  0  0  0  0  0  0  0
   -2.8364   -0.9100   -1.6484 H   0  0  0  0  0  0  0  0  0  0  0  0
   -2.0235   -2.4846   -1.6386 H   0  0  0  0  0  0  0  0  0  0  0  0
   -1.1371   -2.0274    0.6554 H   0  0  0  0  0  0  0  0  0  0  0  0
   -2.8880   -1.9283    0.6455 H   0  0  0  0  0  0  0  0  0  0  0  0
   -0.5706    0.6781    0.4011 H   0  0  0  0  0  0  0  0  0  0  0  0
  1  2  1  0
  1  5  1  0
  1  6  1  0
  1 17  1  0
  2  3  1  0
  2  7  1  0
  2  8  1  0
  3  4  2  0
  9 10  1  0
  9 12  1  0
  9 13  1  0
  9 14  1  0
 10 11  1  0
 10 15  1  0
 10 16  1  0
M  RAD  1  11   2
M  END
>  <reaction>  (13) 
rmg_rxn_173

>  <mol_properties>  (13) 
{"0": {"label": "*3", "atom_type": "Cs"}, "1": {"label": "*4", "atom_type": "Cs"}, "9": {"label": "*0", "atom_type": "Cs"}, "10": {"label": "*1", "atom_type": "S2s"}, "16": {"label": "*2", "atom_type": "H0"}}

>  <type>  (13) 
unop_9

>  <geom_source>  (13) 
Heuristics

$$$$

     RDKit          3D

 17 15  0  0  0  0  0  0  0  0999 V2000
    1.0463    0.5173    0.4506 C   0  0  0  0  0  0  0  0  0  0  0  0
    0.9870    0.4872   -1.0584 C   0  0  0  0  0  0  0  0  0  0  0  0
    1.7988    1.5003   -1.7747 N   0  0  0  0  0  0  0  0  0  0  0  0
    2.4156    2.2346   -1.0651 O   0  0  0  0  0  0  0  0  0  0  0  0
    2.0636    0.3608    0.8086 H   0  0  0  0  0  0  0  0  0  0  0  0
    0.7012    1.4749    0.8400 H   0  0  0  0  0  0  0  0  0  0  0  0
    1.3239   -0.4653   -1.4802 H   0  0  0  0  0  0  0  0  0  0  0  0
   -0.0247    0.6375   -1.4492 H   0  0  0  0  0  0  0  0  0  0  0  0
   -1.5106   -2.0143   -0.7171 C   0  0  0  0  0  0  0  0  0  0  0  0
   -1.5106   -2.0143    0.8015 C   0  0  0  0  0  0  0  0  0  0  0  0
   -1.5106   -0.3570    1.5465 S   0  0  0  0  0  1  0  0  0  0  0  0
   -0.6039   -1.5489   -1.1079 H   0  0  0  0  0  0  0  0  0  0  0  0
   -2.3666   -1.4631   -1.1072 H   0  0  0  0  0  0  0  0  0  0  0  0
   -1.5537   -3.0377   -1.0974 H   0  0  0  0  0  0  0  0  0  0  0  0
   -0.6673   -2.5804    1.1967 H   0  0  0  0  0  0  0  0  0  0  0  0
   -2.4182   -2.4814    1.1867 H   0  0  0  0  0  0  0  0  0  0  0  0
   -0.1008    0.1251    0.9423 H   0  0  0  0  0  0  0  0  0  0  0  0
  1  2  1  0
  1  5  1  0
  1  6  1  0
  1 17  1  0
  2  3  1  0
  2  7  1  0
  2  8  1  0
  3  4  2  0
  9 10  1  0
  9 12  1  0
  9 13  1  0
  9 14  1  0
 10 11  1  0
 10 15  1  0
 10 16  1  0
M  RAD  1  11   2
M  END
>  <reaction>  (14) 
rmg_rxn_173

>  <mol_properties>  (14) 
{"0": {"label": "*3", "atom_type": "Cs"}, "1": {"label": "*4", "atom_type": "Cs"}, "9": {"label": "*0", "atom_type": "Cs"}, "10": {"label": "*1", "atom_type": "S2s"}, "16": {"label": "*2", "atom_type": "H0"}}

>  <type>  (14) 
unop_10

>  <geom_source>  (14) 
Heuristics

$$$$

     RDKit          3D

 17 15  0  0  0  0  0  0  0  0999 V2000
    0.8285    0.2578   -0.2269 C   0  0  0  0  0  0  0  0  0  0  0  0
    1.4761    1.2397    0.7208 C   0  0  0  0  0  0  0  0  0  0  0  0
    2.3869    2.2421    0.1174 N   0  0  0  0  0  0  0  0  0  0  0  0
    2.5054    2.1564   -1.0666 O   0  0  0  0  0  0  0  0  0  0  0  0
    0.2212    0.7709   -0.9723 H   0  0  0  0  0  0  0  0  0  0  0  0
    1.5768   -0.3311   -0.7568 H   0  0  0  0  0  0  0  0  0  0  0  0
    0.7487    1.8443    1.2723 H   0  0  0  0  0  0  0  0  0  0  0  0
    2.0906    0.7535    1.4855 H   0  0  0  0  0  0  0  0  0  0  0  0
   -1.7284   -2.2738   -1.3946 C   0  0  0  0  0  0  0  0  0  0  0  0
   -1.7284   -2.2738    0.1240 C   0  0  0  0  0  0  0  0  0  0  0  0
   -1.7284   -0.6164    0.8690 S   0  0  0  0  0  1  0  0  0  0  0  0
   -0.8217   -1.8084   -1.7854 H   0  0  0  0  0  0  0  0  0  0  0  0
   -2.5843   -1.7226   -1.7847 H   0  0  0  0  0  0  0  0  0  0  0  0
   -1.7714   -3.2971   -1.7749 H   0  0  0  0  0  0  0  0  0  0  0  0
   -0.8851   -2.8399    0.5191 H   0  0  0  0  0  0  0  0  0  0  0  0
   -2.6360   -2.7408    0.5092 H   0  0  0  0  0  0  0  0  0  0  0  0
   -0.3186   -0.1344    0.2648 H   0  0  0  0  0  0  0  0  0  0  0  0
  1  2  1  0
  1  5  1  0
  1  6  1  0
  1 17  1  0
  2  3  1  0
  2  7  1  0
  2  8  1  0
  3  4  2  0
  9 10  1  0
  9 12  1  0
  9 13  1  0
  9 14  1  0
 10 11  1  0
 10 15  1  0
 10 16  1  0
M  RAD  1  11   2
M  END
>  <reaction>  (15) 
rmg_rxn_173

>  <mol_properties>  (15) 
{"0": {"label": "*3", "atom_type": "Cs"}, "1": {"label": "*4", "atom_type": "Cs"}, "9": {"label": "*0", "atom_type": "Cs"}, "10": {"label": "*1", "atom_type": "S2s"}, "16": {"label": "*2", "atom_type": "H0"}}

>  <type>  (15) 
unop_11

>  <geom_source>  (15) 
Heuristics

$$$$

     RDKit          3D

 17 15  0  0  0  0  0  0  0  0999 V2000
    0.7056    1.0477    0.2497 C   0  0  0  0  0  0  0  0  0  0  0  0
    1.2994   -0.0566   -0.5925 C   0  0  0  0  0  0  0  0  0  0  0  0
    2.6089    0.2249   -1.2285 N   0  0  0  0  0  0  0  0  0  0  0  0
    3.0501    1.3090   -0.9981 O   0  0  0  0  0  0  0  0  0  0  0  0
    1.3646    1.3108    1.0768 H   0  0  0  0  0  0  0  0  0  0  0  0
    0.5390    1.9482   -0.3411 H   0  0  0  0  0  0  0  0  0  0  0  0
    1.4748   -0.9777   -0.0272 H   0  0  0  0  0  0  0  0  0  0  0  0
    0.6575   -0.3468   -1.4307 H   0  0  0  0  0  0  0  0  0  0  0  0
   -1.8512   -1.4839   -0.9181 C   0  0  0  0  0  0  0  0  0  0  0  0
   -1.8512   -1.4839    0.6006 C   0  0  0  0  0  0  0  0  0  0  0  0
   -1.8512    0.1735    1.3456 S   0  0  0  0  0  1  0  0  0  0  0  0
   -0.9446   -1.0184   -1.3088 H   0  0  0  0  0  0  0  0  0  0  0  0
   -2.7072   -0.9326   -1.3082 H   0  0  0  0  0  0  0  0  0  0  0  0
   -1.8943   -2.5072   -1.2984 H   0  0  0  0  0  0  0  0  0  0  0  0
   -1.0080   -2.0500    0.9957 H   0  0  0  0  0  0  0  0  0  0  0  0
   -2.7588   -1.9509    0.9857 H   0  0  0  0  0  0  0  0  0  0  0  0
   -0.4415    0.6555    0.7413 H   0  0  0  0  0  0  0  0  0  0  0  0
  1  2  1  0
  1  5  1  0
  1  6  1  0
  1 17  1  0
  2  3  1  0
  2  7  1  0
  2  8  1  0
  3  4  2  0
  9 10  1  0
  9 12  1  0
  9 13  1  0
  9 14  1  0
 10 11  1  0
 10 15  1  0
 10 16  1  0
M  RAD  1  11   2
M  END
>  <reaction>  (16) 
rmg_rxn_173

>  <mol_properties>  (16) 
{"0": {"label": "*3", "atom_type": "Cs"}, "1": {"label": "*4", "atom_type": "Cs"}, "9": {"label": "*0", "atom_type": "Cs"}, "10": {"label": "*1", "atom_type": "S2s"}, "16": {"label": "*2", "atom_type": "H0"}}

>  <type>  (16) 
unop_12

>  <geom_source>  (16) 
Heuristics

$$$$

     RDKit          3D

 17 15  0  0  0  0  0  0  0  0999 V2000
    0.8981    0.8221    0.4618 C   0  0  0  0  0  0  0  0  0  0  0  0
    1.1381    0.1436   -0.8663 C   0  0  0  0  0  0  0  0  0  0  0  0
    2.1549    0.7599   -1.7521 N   0  0  0  0  0  0  0  0  0  0  0  0
    2.6750    1.7368   -1.3068 O   0  0  0  0  0  0  0  0  0  0  0  0
    1.8080    0.8491    1.0610 H   0  0  0  0  0  0  0  0  0  0  0  0
    0.5604    1.8491    0.3248 H   0  0  0  0  0  0  0  0  0  0  0  0
    1.4746   -0.8930   -0.7617 H   0  0  0  0  0  0  0  0  0  0  0  0
    0.2397    0.0969   -1.4905 H   0  0  0  0  0  0  0  0  0  0  0  0
   -1.6587   -1.7095   -0.7060 C   0  0  0  0  0  0  0  0  0  0  0  0
   -1.6587   -1.7095    0.8127 C   0  0  0  0  0  0  0  0  0  0  0  0
   -1.6587   -0.0522    1.5577 S   0  0  0  0  0  1  0  0  0  0  0  0
   -0.7521   -1.2441   -1.0967 H   0  0  0  0  0  0  0  0  0  0  0  0
   -2.5147   -1.1583   -1.0961 H   0  0  0  0  0  0  0  0  0  0  0  0
   -1.7018   -2.7329   -1.0863 H   0  0  0  0  0  0  0  0  0  0  0  0
   -0.8155   -2.2757    1.2078 H   0  0  0  0  0  0  0  0  0  0  0  0
   -2.5663   -2.1766    1.1978 H   0  0  0  0  0  0  0  0  0  0  0  0
   -0.2490    0.4299    0.9534 H   0  0  0  0  0  0  0  0  0  0  0  0
  1  2  1  0
  1  5  1  0
  1  6  1  0
  1 17  1  0
  2  3  1  0
  2  7  1  0
  2  8  1  0
  3  4  2  0
  9 10  1  0
  9 12  1  0
  9 13  1  0
  9 14  1  0
 10 11  1  0
 10 15  1  0
 10 16  1  0
M  RAD  1  11   2
M  END
>  <reaction>  (17) 
rmg_rxn_173

>  <mol_properties>  (17) 
{"0": {"label": "*3", "atom_type": "Cs"}, "1": {"label": "*4", "atom_type": "Cs"}, "9": {"label": "*0", "atom_type": "Cs"}, "10": {"label": "*1", "atom_type": "S2s"}, "16": {"label": "*2", "atom_type": "H0"}}

>  <type>  (17) 
unop_13

>  <geom_source>  (17) 
gaussian_log

$$$$
