
     RDKit          3D

  9  8  0  0  0  0  0  0  0  0999 V2000
   -1.5470   -0.0755   -0.1976 C   0  0  0  0  0  0  0  0  0  0  0  0
   -0.2885    0.4507    0.1749 O   0  0  0  0  0  0  0  0  0  0  0  0
   -0.1502    1.7216   -0.3294 N   0  0  0  0  0  0  0  0  0  0  0  0
    0.9626    2.2353   -0.0219 C   0  0  0  0  0  0  0  0  0  0  0  0
   -1.6392   -0.1356   -1.2844 H   0  0  0  0  0  0  0  0  0  0  0  0
   -2.3597    0.5337    0.2044 H   0  0  0  0  0  0  0  0  0  0  0  0
   -1.5879   -1.0750    0.2318 H   0  0  0  0  0  0  0  0  0  0  0  0
    1.1497    3.2381   -0.3820 H   0  0  0  0  0  0  0  0  0  0  0  0
    1.7060    1.7101    0.5739 H   0  0  0  0  0  0  0  0  0  0  0  0
  1  2  1  0
  1  5  1  0
  1  6  1  0
  1  7  1  0
  2  3  1  0
  3  4  2  3
  4  8  1  0
  4  9  1  0
M  END
>  <reaction>  (1) 
rmg_rxn_15660

>  <mol_properties>  (1) 
{"0": {"label": "donator", "atom_type": "Cs"}, "4": {"label": "d_hydrogen", "atom_type": "H0"}}

>  <type>  (1) 
r1h

$$$$

     RDKit          3D

  8  7  0  0  0  0  0  0  0  0999 V2000
   -0.9782    0.4241    0.0826 C   0  0  0  0  0  3  0  0  0  0  0  0
    0.0504   -0.5484   -0.3049 C   0  0  0  0  0  0  0  0  0  0  0  0
    1.5829   -0.3827    0.7251 S   0  0  0  0  0  0  0  0  0  0  0  0
   -1.0358    1.3853   -0.4103 H   0  0  0  0  0  0  0  0  0  0  0  0
   -1.5488    0.2794    0.9896 H   0  0  0  0  0  0  0  0  0  0  0  0
    0.3373   -0.4650   -1.3511 H   0  0  0  0  0  0  0  0  0  0  0  0
   -0.2617   -1.5762   -0.1147 H   0  0  0  0  0  0  0  0  0  0  0  0
    1.8538    0.8835    0.3837 H   0  0  0  0  0  0  0  0  0  0  0  0
  1  2  1  0
  1  4  1  0
  1  5  1  0
  2  3  1  0
  2  6  1  0
  2  7  1  0
  3  8  1  0
M  RAD  1   1   2
M  END
>  <reaction>  (2) 
rmg_rxn_15660

>  <mol_properties>  (2) 
{"0": {"label": "acceptor", "atom_type": "Cs"}}

>  <type>  (2) 
r2

$$$$

     RDKit          3D

  9  8  0  0  0  0  0  0  0  0999 V2000
   -0.8818   -0.3578    0.1297 C   0  0  0  0  0  0  0  0  0  0  0  0
    0.6153   -0.3021   -0.1188 C   0  0  0  0  0  0  0  0  0  0  0  0
    1.5354   -1.7170    0.5545 S   0  0  0  0  0  0  0  0  0  0  0  0
   -1.1018   -0.3317    1.1984 H   0  0  0  0  0  0  0  0  0  0  0  0
   -1.3114   -1.2723   -0.2799 H   0  0  0  0  0  0  0  0  0  0  0  0
   -1.3767    0.4976   -0.3363 H   0  0  0  0  0  0  0  0  0  0  0  0
    1.0467    0.6194    0.2718 H   0  0  0  0  0  0  0  0  0  0  0  0
    0.8295   -0.3275   -1.1882 H   0  0  0  0  0  0  0  0  0  0  0  0
    1.2306   -1.5077    1.8423 H   0  0  0  0  0  0  0  0  0  0  0  0
  1  2  1  0
  1  4  1  0
  1  5  1  0
  1  6  1  0
  2  3  1  0
  2  7  1  0
  2  8  1  0
  3  9  1  0
M  END
>  <reaction>  (3) 
rmg_rxn_15660

>  <mol_properties>  (3) 
{"0": {"label": "acceptor", "atom_type": "Cs"}, "8": {"label": "a_hydrogen", "atom_type": "H0"}}

>  <type>  (3) 
r2h

$$$$

     RDKit          3D

 17 15  0  0  0  0  0  0  0  0999 V2000
    1.3618    1.5860   -0.4616 C   0  0  0  0  0  3  0  0  0  0  0  0
    1.7297    0.1755   -0.8242 C   0  0  0  0  0  0  0  0  0  0  0  0
    1.9644   -0.9333    0.5993 S   0  0  0  0  0  0  0  0  0  0  0  0
    2.0316    2.0579    0.2545 H   0  0  0  0  0  0  0  0  0  0  0  0
    1.1499    2.2236   -1.3199 H   0  0  0  0  0  0  0  0  0  0  0  0
    2.6875    0.1481   -1.3525 H   0  0  0  0  0  0  0  0  0  0  0  0
    0.9892   -0.2660   -1.4915 H   0  0  0  0  0  0  0  0  0  0  0  0
    0.6649   -1.0265    0.9183 H   0  0  0  0  0  0  0  0  0  0  0  0
   -1.0318    1.5041    0.7855 C   0  0  0  0  0  0  0  0  0  0  0  0
   -1.8986    0.7605   -0.0099 O   0  0  0  0  0  0  0  0  0  0  0  0
   -1.6002   -0.5802    0.0706 N   0  0  0  0  0  0  0  0  0  0  0  0
   -2.3413   -1.2790   -0.6769 C   0  0  0  0  0  0  0  0  0  0  0  0
    0.1592    1.5612    0.2010 H   0  0  0  0  0  0  0  0  0  0  0  0
   -0.8647    1.0598    1.7665 H   0  0  0  0  0  0  0  0  0  0  0  0
   -1.4037    2.5247    0.8192 H   0  0  0  0  0  0  0  0  0  0  0  0
   -2.1693   -2.3469   -0.6650 H   0  0  0  0  0  0  0  0  0  0  0  0
   -3.1166   -0.8447   -1.3036 H   0  0  0  0  0  0  0  0  0  0  0  0
  1  2  1  0
  1  4  1  0
  1  5  1  0
  2  3  1  0
  2  6  1  0
  2  7  1  0
  3  8  1  0
  9 10  1  0
  9 13  1  0
  9 14  1  0
  9 15  1  0
 10 11  1  0
 11 12  2  3
 12 16  1  0
 12 17  1  0
M  RAD  1   1   2
M  END
>  <reaction>  (4) 
rmg_rxn_15660

>  <mol_properties>  (4) 
{"0": {"label": "*3", "atom_type": "Cs"}, "1": {"label": "*4", "atom_type": "Cs"}, "8": {"label": "*1", "atom_type": "Cs"}, "9": {"label": "*0", "atom_type": "O2s"}, "12": {"label": "*2", "atom_type": "H0"}}

>  <type>  (4) 
ts

$$$$

     RDKit          3D

 17 15  0  0  0  0  0  0  0  0999 V2000
    1.3971   -1.6152   -0.3763 C   0  0  0  0  0  0  0  0  0  0  0  0
    1.7380   -0.2459   -0.8847 C   0  0  0  0  0  0  0  0  0  0  0  0
    1.6956    1.0285    0.4343 S   0  0  0  0  0  0  0  0  0  0  0  0
    1.3418   -2.3495   -1.1732 H   0  0  0  0  0  0  0  0  0  0  0  0
    2.0542   -1.9409    0.4227 H   0  0  0  0  0  0  0  0  0  0  0  0
    1.0610    0.0741   -1.6774 H   0  0  0  0  0  0  0  0  0  0  0  0
    2.7634   -0.2057   -1.2623 H   0  0  0  0  0  0  0  0  0  0  0  0
    0.3687    1.0136    0.5897 H   0  0  0  0  0  0  0  0  0  0  0  0
   -1.0096   -1.5378    0.7241 C   0  0  0  0  0  3  0  0  0  0  0  0
   -1.8405   -0.7488   -0.0479 O   0  0  0  0  0  0  0  0  0  0  0  0
   -1.6135    0.6007    0.1340 N   0  0  0  0  0  0  0  0  0  0  0  0
   -2.3430    1.3866   -0.5355 C   0  0  0  0  0  0  0  0  0  0  0  0
    0.2151   -1.5910    0.1558 H   0  0  0  0  0  0  0  0  0  0  0  0
   -1.3947   -2.5503    0.7039 H   0  0  0  0  0  0  0  0  0  0  0  0
   -0.8305   -1.1457    1.7222 H   0  0  0  0  0  0  0  0  0  0  0  0
   -2.1634    2.4379   -0.3991 H   0  0  0  0  0  0  0  0  0  0  0  0
   -3.1205    1.0619   -1.2186 H   0  0  0  0  0  0  0  0  0  0  0  0
  1  2  1  0
  1  4  1  0
  1  5  1  0
  1 13  1  0
  2  3  1  0
  2  6  1  0
  2  7  1  0
  3  8  1  0
  9 10  1  0
  9 14  1  0
  9 15  1  0
 10 11  1  0
 11 12  2  3
 12 16  1  0
 12 17  1  0
M  RAD  1   9   2
M  END
>  <reaction>  (5) 
rmg_rxn_15660

>  <mol_properties>  (5) 
{"0": {"label": "*3", "atom_type": "Cs"}, "1": {"label": "*4", "atom_type": "Cs"}, "8": {"label": "*1", "atom_type": "Cs"}, "9": {"label": "*0", "atom_type": "O2s"}, "12": {"label": "*2", "atom_type": "H0"}}

>  <type>  (5) 
unop_1

>  <geom_source>  (5) 
crest_best.xyz

$$$$

     RDKit          3D

 17 15  0  0  0  0  0  0  0  0999 V2000
    0.3498   -0.8929    1.0940 C   0  0  0  0  0  0  0  0  0  0  0  0
    1.1672    0.0223    1.9888 C   0  0  0  0  0  0  0  0  0  0  0  0
    2.5464    0.8515    1.1450 S   0  0  0  0  0  0  0  0  0  0  0  0
    0.9595   -1.7146    0.7141 H   0  0  0  0  0  0  0  0  0  0  0  0
   -0.4849   -1.3240    1.6520 H   0  0  0  0  0  0  0  0  0  0  0  0
    1.5531   -0.5141    2.8555 H   0  0  0  0  0  0  0  0  0  0  0  0
    0.5528    0.8409    2.3664 H   0  0  0  0  0  0  0  0  0  0  0  0
    3.2192   -0.2577    0.8102 H   0  0  0  0  0  0  0  0  0  0  0  0
   -1.7894    0.3303    0.2066 C   0  0  0  0  0  3  0  0  0  0  0  0
   -1.7894    0.3882   -1.2062 O   0  0  0  0  0  0  0  0  0  0  0  0
   -1.7894   -0.8857   -1.7220 N   0  0  0  0  0  0  0  0  0  0  0  0
   -1.7894   -0.8857   -2.9856 C   0  0  0  0  0  0  0  0  0  0  0  0
   -0.7188   -0.2819    0.6508 H   0  0  0  0  0  0  0  0  0  0  0  0
   -2.6815   -0.1799    0.5768 H   0  0  0  0  0  0  0  0  0  0  0  0
   -1.7894    1.3652    0.5445 H   0  0  0  0  0  0  0  0  0  0  0  0
   -1.7894   -1.8528   -3.4704 H   0  0  0  0  0  0  0  0  0  0  0  0
   -1.7894    0.0308   -3.5717 H   0  0  0  0  0  0  0  0  0  0  0  0
  1  2  1  0
  1  4  1  0
  1  5  1  0
  1 13  1  0
  2  3  1  0
  2  6  1  0
  2  7  1  0
  3  8  1  0
  9 10  1  0
  9 14  1  0
  9 15  1  0
 10 11  1  0
 11 12  2  3
 12 16  1  0
 12 17  1  0
M  RAD  1   9   2
M  END
>  <reaction>  (6) 
rmg_rxn_15660

>  <mol_properties>  (6) 
{"0": {"label": "*3", "atom_type": "Cs"}, "1": {"label": "*4", "atom_type": "Cs"}, "8": {"label": "*1", "atom_type": "Cs"}, "9": {"label": "*0", "atom_type": "O2s"}, "12": {"label": "*2", "atom_type": "H0"}}

>  <type>  (6) 
unop_2

>  <geom_source>  (6) 
Heuristics

$$$$

     RDKit          3D

 17 15  0  0  0  0  0  0  0  0999 V2000
    1.5124   -0.1765    1.7118 C   0  0  0  0  0  0  0  0  0  0  0  0
    2.2987   -0.5293    0.4750 C   0  0  0  0  0  0  0  0  0  0  0  0
    1.7118    0.3977   -0.9897 S   0  0  0  0  0  0  0  0  0  0  0  0
    1.6269    0.8420    2.0148 H   0  0  0  0  0  0  0  0  0  0  0  0
    0.4684   -0.4538    1.6353 H   0  0  0  0  0  0  0  0  0  0  0  0
    2.2236   -1.5920    0.2442 H   0  0  0  0  0  0  0  0  0  0  0  0
    3.3489   -0.2591    0.5784 H   0  0  0  0  0  0  0  0  0  0  0  0
    0.4475   -0.0239   -0.8990 H   0  0  0  0  0  0  0  0  0  0  0  0
   -1.8422    1.6437    0.3207 C   0  0  0  0  0  3  0  0  0  0  0  0
   -2.3465    0.4169    0.1756 O   0  0  0  0  0  0  0  0  0  0  0  0
   -1.4510   -0.5494   -0.2112 N   0  0  0  0  0  0  0  0  0  0  0  0
   -1.9296   -1.7220   -0.3613 C   0  0  0  0  0  0  0  0  0  0  0  0
    1.9583   -0.5714    2.6267 H   0  0  0  0  0  0  0  0  0  0  0  0
   -0.8119    1.8475    0.1047 H   0  0  0  0  0  0  0  0  0  0  0  0
   -2.5593    2.3809    0.6139 H   0  0  0  0  0  0  0  0  0  0  0  0
   -1.2368   -2.4853   -0.6634 H   0  0  0  0  0  0  0  0  0  0  0  0
   -2.9711   -1.9754   -0.2040 H   0  0  0  0  0  0  0  0  0  0  0  0
  1  2  1  0
  1  4  1  0
  1  5  1  0
  1 13  1  0
  2  3  1  0
  2  6  1  0
  2  7  1  0
  3  8  1  0
  9 10  1  0
  9 14  1  0
  9 15  1  0
 10 11  1  0
 11 12  2  3
 12 16  1  0
 12 17  1  0
M  RAD  1   9   2
M  END
>  <reaction>  (7) 
rmg_rxn_15660

>  <mol_properties>  (7) 
{"0": {"label": "*3", "atom_type": "Cs"}, "1": {"label": "*4", "atom_type": "Cs"}, "8": {"label": "*1", "atom_type": "Cs"}, "9": {"label": "*0", "atom_type": "O2s"}, "12": {"label": "*2", "atom_type": "H0"}}

>  <type>  (7) 
unop_3

>  <geom_source>  (7) 
Heuristics

$$$$

     RDKit          3D

 17 15  0  0  0  0  0  0  0  0999 V2000
    0.6078   -0.1239    1.9927 C   0  0  0  0  0  0  0  0  0  0  0  0
    1.7796    0.0761    1.0475 C   0  0  0  0  0  0  0  0  0  0  0  0
    1.6885   -0.9156   -0.4723 S   0  0  0  0  0  0  0  0  0  0  0  0
    0.5665   -1.1539    2.3513 H   0  0  0  0  0  0  0  0  0  0  0  0
    0.7043    0.5310    2.8620 H   0  0  0  0  0  0  0  0  0  0  0  0
    2.7278   -0.1250    1.5457 H   0  0  0  0  0  0  0  0  0  0  0  0
    1.8168    1.1072    0.6930 H   0  0  0  0  0  0  0  0  0  0  0  0
    1.7180   -2.1175    0.1190 H   0  0  0  0  0  0  0  0  0  0  0  0
   -1.5313    1.0993    1.1053 C   0  0  0  0  0  3  0  0  0  0  0  0
   -1.5314    1.1572   -0.3076 O   0  0  0  0  0  0  0  0  0  0  0  0
   -1.5314   -0.1166   -0.8233 N   0  0  0  0  0  0  0  0  0  0  0  0
   -1.5314   -0.1166   -2.0870 C   0  0  0  0  0  0  0  0  0  0  0  0
   -0.4607    0.4872    1.5494 H   0  0  0  0  0  0  0  0  0  0  0  0
   -2.4235    0.5891    1.4754 H   0  0  0  0  0  0  0  0  0  0  0  0
   -1.5314    2.1342    1.4431 H   0  0  0  0  0  0  0  0  0  0  0  0
   -1.5314   -1.0837   -2.5718 H   0  0  0  0  0  0  0  0  0  0  0  0
   -1.5313    0.7998   -2.6731 H   0  0  0  0  0  0  0  0  0  0  0  0
  1  2  1  0
  1  4  1  0
  1  5  1  0
  1 13  1  0
  2  3  1  0
  2  6  1  0
  2  7  1  0
  3  8  1  0
  9 10  1  0
  9 14  1  0
  9 15  1  0
 10 11  1  0
 11 12  2  3
 12 16  1  0
 12 17  1  0
M  RAD  1   9   2
M  END
>  <reaction>  (8) 
rmg_rxn_15660

>  <mol_properties>  (8) 
{"0": {"label": "*3", "atom_type": "Cs"}, "1": {"label": "*4", "atom_type": "Cs"}, "8": {"label": "*1", "atom_type": "Cs"}, "9": {"label": "*0", "atom_type": "O2s"}, "12": {"label": "*2", "atom_type": "H0"}}

>  <type>  (8) 
unop_4

>  <geom_source>  (8) 
Heuristics

$$$$

     RDKit          3D

 17 15  0  0  0  0  0  0  0  0999 V2000
    1.5449    0.5277   -1.6353 C   0  0  0  0  0  0  0  0  0  0  0  0
    2.3138    0.6052   -0.3408 C   0  0  0  0  0  0  0  0  0  0  0  0
    1.6992   -0.6047    0.8866 S   0  0  0  0  0  0  0  0  0  0  0  0
    1.6627   -0.4039   -2.1464 H   0  0  0  0  0  0  0  0  0  0  0  0
    0.4997    0.7848   -1.5147 H   0  0  0  0  0  0  0  0  0  0  0  0
    2.2404    1.5958    0.1082 H   0  0  0  0  0  0  0  0  0  0  0  0
    3.3642    0.3544   -0.4841 H   0  0  0  0  0  0  0  0  0  0  0  0
    0.4403   -0.1583    0.8730 H   0  0  0  0  0  0  0  0  0  0  0  0
   -1.8684   -1.5652   -0.5812 C   0  0  0  0  0  3  0  0  0  0  0  0
   -2.3586   -0.3734   -0.2352 O   0  0  0  0  0  0  0  0  0  0  0  0
   -1.4488    0.5123    0.2873 N   0  0  0  0  0  0  0  0  0  0  0  0
   -1.9137    1.6509    0.6252 C   0  0  0  0  0  0  0  0  0  0  0  0
    2.0031    1.1108   -2.4371 H   0  0  0  0  0  0  0  0  0  0  0  0
   -0.8369   -1.8078   -0.4176 H   0  0  0  0  0  0  0  0  0  0  0  0
   -2.5974   -2.2417   -0.9743 H   0  0  0  0  0  0  0  0  0  0  0  0
   -1.2102    2.3515    1.0354 H   0  0  0  0  0  0  0  0  0  0  0  0
   -2.9540    1.9351    0.5213 H   0  0  0  0  0  0  0  0  0  0  0  0
  1  2  1  0
  1  4  1  0
  1  5  1  0
  1 13  1  0
  2  3  1  0
  2  6  1  0
  2  7  1  0
  3  8  1  0
  9 10  1  0
  9 14  1  0
  9 15  1  0
 10 11  1  0
 11 12  2  3
 12 16  1  0
 12 17  1  0
M  RAD  1   9   2
M  END
>  <reaction>  (9) 
rmg_rxn_15660

>  <mol_properties>  (9) 
{"0": {"label": "*3", "atom_type": "Cs"}, "1": {"label": "*4", "atom_type": "Cs"}, "8": {"label": "*1", "atom_type": "Cs"}, "9": {"label": "*0", "atom_type": "O2s"}, "12": {"label": "*2", "atom_type": "H0"}}

>  <type>  (9) 
unop_5

>  <geom_source>  (9) 
Heuristics

$$$$

     RDKit          3D

 17 15  0  0  0  0  0  0  0  0999 V2000
    0.5941   -0.9191    0.7033 C   0  0  0  0  0  0  0  0  0  0  0  0
    0.9975   -0.3874    2.0675 C   0  0  0  0  0  0  0  0  0  0  0  0
    2.0579    1.0871    2.0086 S   0  0  0  0  0  0  0  0  0  0  0  0
    1.4683   -1.2446    0.1367 H   0  0  0  0  0  0  0  0  0  0  0  0
   -0.0744   -1.7764    0.8118 H   0  0  0  0  0  0  0  0  0  0  0  0
    1.4923   -1.1562    2.6607 H   0  0  0  0  0  0  0  0  0  0  0  0
    0.1202   -0.0644    2.6298 H   0  0  0  0  0  0  0  0  0  0  0  0
    3.0866    0.5187    1.3653 H   0  0  0  0  0  0  0  0  0  0  0  0
   -1.5450    0.3042   -0.1841 C   0  0  0  0  0  3  0  0  0  0  0  0
   -1.5451    0.3621   -1.5970 O   0  0  0  0  0  0  0  0  0  0  0  0
   -1.5451   -0.9118   -2.1127 N   0  0  0  0  0  0  0  0  0  0  0  0
   -1.5451   -0.9118   -3.3763 C   0  0  0  0  0  0  0  0  0  0  0  0
   -0.4744   -0.3080    0.2600 H   0  0  0  0  0  0  0  0  0  0  0  0
   -2.4372   -0.2060    0.1860 H   0  0  0  0  0  0  0  0  0  0  0  0
   -1.5451    1.3390    0.1537 H   0  0  0  0  0  0  0  0  0  0  0  0
   -1.5451   -1.8789   -3.8611 H   0  0  0  0  0  0  0  0  0  0  0  0
   -1.5451    0.0047   -3.9625 H   0  0  0  0  0  0  0  0  0  0  0  0
  1  2  1  0
  1  4  1  0
  1  5  1  0
  1 13  1  0
  2  3  1  0
  2  6  1  0
  2  7  1  0
  3  8  1  0
  9 10  1  0
  9 14  1  0
  9 15  1  0
 10 11  1  0
 11 12  2  3
 12 16  1  0
 12 17  1  0
M  RAD  1   9   2
M  END
>  <reaction>  (10) 
rmg_rxn_15660

>  <mol_properties>  (10) 
{"0": {"label": "*3", "atom_type": "Cs"}, "1": {"label": "*4", "atom_type": "Cs"}, "8": {"label": "*1", "atom_type": "Cs"}, "9": {"label": "*0", "atom_type": "O2s"}, "12": {"label": "*2", "atom_type": "H0"}}

>  <type>  (10) 
unop_6

>  <geom_source>  (10) 
Heuristics

$$$$

     RDKit          3D

 17 15  0  0  0  0  0  0  0  0999 V2000
    1.4582    0.4309    1.5285 C   0  0  0  0  0  0  0  0  0  0  0  0
    1.5284   -0.9919    1.0019 C   0  0  0  0  0  0  0  0  0  0  0  0
   -0.0854   -1.7068    0.5701 S   0  0  0  0  0  0  0  0  0  0  0  0
    0.8916    0.4752    2.4603 H   0  0  0  0  0  0  0  0  0  0  0  0
    2.4624    0.8127    1.7273 H   0  0  0  0  0  0  0  0  0  0  0  0
    2.0299   -1.6510    1.7103 H   0  0  0  0  0  0  0  0  0  0  0  0
    2.0964   -1.0306    0.0713 H   0  0  0  0  0  0  0  0  0  0  0  0
   -0.6192   -1.6500    1.7976 H   0  0  0  0  0  0  0  0  0  0  0  0
   -0.6810    1.6541    0.6410 C   0  0  0  0  0  3  0  0  0  0  0  0
   -0.6810    1.7120   -0.7718 O   0  0  0  0  0  0  0  0  0  0  0  0
   -0.6810    0.4381   -1.2876 N   0  0  0  0  0  0  0  0  0  0  0  0
   -0.6810    0.4381   -2.5512 C   0  0  0  0  0  0  0  0  0  0  0  0
    0.3896    1.0419    1.0852 H   0  0  0  0  0  0  0  0  0  0  0  0
   -1.5731    1.1439    1.0112 H   0  0  0  0  0  0  0  0  0  0  0  0
   -0.6810    2.6890    0.9789 H   0  0  0  0  0  0  0  0  0  0  0  0
   -0.6810   -0.5289   -3.0360 H   0  0  0  0  0  0  0  0  0  0  0  0
   -0.6810    1.3546   -3.1373 H   0  0  0  0  0  0  0  0  0  0  0  0
  1  2  1  0
  1  4  1  0
  1  5  1  0
  1 13  1  0
  2  3  1  0
  2  6  1  0
  2  7  1  0
  3  8  1  0
  9 10  1  0
  9 14  1  0
  9 15  1  0
 10 11  1  0
 11 12  2  3
 12 16  1  0
 12 17  1  0
M  RAD  1   9   2
M  END
>  <reaction>  (11) 
rmg_rxn_15660

>  <mol_properties>  (11) 
{"0": {"label": "*3", "atom_type": "Cs"}, "1": {"label": "*4", "atom_type": "Cs"}, "8": {"label": "*1", "atom_type": "Cs"}, "9": {"label": "*0", "atom_type": "O2s"}, "12": {"label": "*2", "atom_type": "H0"}}

>  <type>  (11) 
unop_7

>  <geom_source>  (11) 
Heuristics

$$$$

     RDKit          3D

 17 15  0  0  0  0  0  0  0  0999 V2000
   -1.5068   -0.1806    1.7121 C   0  0  0  0  0  0  0  0  0  0  0  0
   -2.2949   -0.5313    0.4758 C   0  0  0  0  0  0  0  0  0  0  0  0
   -1.7147    0.4034   -0.9865 S   0  0  0  0  0  0  0  0  0  0  0  0
   -0.4621   -0.4544    1.6313 H   0  0  0  0  0  0  0  0  0  0  0  0
   -1.6224    0.8379    2.0169 H   0  0  0  0  0  0  0  0  0  0  0  0
   -3.3458   -0.2652    0.5828 H   0  0  0  0  0  0  0  0  0  0  0  0
   -2.2167   -1.5929    0.2407 H   0  0  0  0  0  0  0  0  0  0  0  0
   -0.4490   -0.0149   -0.9010 H   0  0  0  0  0  0  0  0  0  0  0  0
    1.8497    1.6413    0.3242 C   0  0  0  0  0  3  0  0  0  0  0  0
    2.3478    0.4123    0.1761 O   0  0  0  0  0  0  0  0  0  0  0  0
    1.4480   -0.5477   -0.2162 N   0  0  0  0  0  0  0  0  0  0  0  0
    1.9203   -1.7226   -0.3685 C   0  0  0  0  0  0  0  0  0  0  0  0
   -1.9486   -0.5838    2.6261 H   0  0  0  0  0  0  0  0  0  0  0  0
    0.8208    1.8509    0.1071 H   0  0  0  0  0  0  0  0  0  0  0  0
    2.5698    2.3736    0.6220 H   0  0  0  0  0  0  0  0  0  0  0  0
    1.2241   -2.4811   -0.6749 H   0  0  0  0  0  0  0  0  0  0  0  0
    2.9599   -1.9825   -0.2088 H   0  0  0  0  0  0  0  0  0  0  0  0
  1  2  1  0
  1  4  1  0
  1  5  1  0
  1 13  1  0
  2  3  1  0
  2  6  1  0
  2  7  1  0
  3  8  1  0
  9 10  1  0
  9 14  1  0
  9 15  1  0
 10 11  1  0
 11 12  2  3
 12 16  1  0
 12 17  1  0
M  RAD  1   9   2
M  END
>  <reaction>  (12) 
rmg_rxn_15660

>  <mol_properties>  (12) 
{"0": {"label": "*3", "atom_type": "Cs"}, "1": {"label": "*4", "atom_type": "Cs"}, "8": {"label": "*1", "atom_type": "Cs"}, "9": {"label": "*0", "atom_type": "O2s"}, "12": {"label": "*2", "atom_type": "H0"}}

>  <type>  (12) 
unop_8

>  <geom_source>  (12) 
Heuristics

$$$$

     RDKit          3D

 17 15  0  0  0  0  0  0  0  0999 V2000
    1.0632   -0.7368    0.4090 C   0  0  0  0  0  0  0  0  0  0  0  0
    1.0634   -0.7991    1.9264 C   0  0  0  0  0  0  0  0  0  0  0  0
    0.9543    0.8227    2.7386 S   0  0  0  0  0  0  0  0  0  0  0  0
    1.9371   -0.1970    0.0400 H   0  0  0  0  0  0  0  0  0  0  0  0
    1.0876   -1.7443   -0.0130 H   0  0  0  0  0  0  0  0  0  0  0  0
    1.9422   -1.3242    2.3001 H   0  0  0  0  0  0  0  0  0  0  0  0
    0.1886   -1.3403    2.2897 H   0  0  0  0  0  0  0  0  0  0  0  0
    2.1000    1.3212    2.2549 H   0  0  0  0  0  0  0  0  0  0  0  0
   -1.0760    0.4864   -0.4784 C   0  0  0  0  0  3  0  0  0  0  0  0
   -1.0760    0.5444   -1.8913 O   0  0  0  0  0  0  0  0  0  0  0  0
   -1.0760   -0.7295   -2.4070 N   0  0  0  0  0  0  0  0  0  0  0  0
   -1.0760   -0.7295   -3.6706 C   0  0  0  0  0  0  0  0  0  0  0  0
   -0.0054   -0.1257   -0.0343 H   0  0  0  0  0  0  0  0  0  0  0  0
   -1.9681   -0.0238   -0.1083 H   0  0  0  0  0  0  0  0  0  0  0  0
   -1.0760    1.5213   -0.1406 H   0  0  0  0  0  0  0  0  0  0  0  0
   -1.0760   -1.6966   -4.1555 H   0  0  0  0  0  0  0  0  0  0  0  0
   -1.0760    0.1870   -4.2568 H   0  0  0  0  0  0  0  0  0  0  0  0
  1  2  1  0
  1  4  1  0
  1  5  1  0
  1 13  1  0
  2  3  1  0
  2  6  1  0
  2  7  1  0
  3  8  1  0
  9 10  1  0
  9 14  1  0
  9 15  1  0
 10 11  1  0
 11 12  2  3
 12 16  1  0
 12 17  1  0
M  RAD  1   9   2
M  END
>  <reaction>  (13) 
rmg_rxn_15660

>  <mol_properties>  (13) 
{"0": {"label": "*3", "atom_type": "Cs"}, "1": {"label": "*4", "atom_type": "Cs"}, "8": {"label": "*1", "atom_type": "Cs"}, "9": {"label": "*0", "atom_type": "O2s"}, "12": {"label": "*2", "atom_type": "H0"}}

>  <type>  (13) 
unop_9

>  <geom_source>  (13) 
Heuristics

$$$$

     RDKit          3D

 17 15  0  0  0  0  0  0  0  0999 V2000
    1.5074   -0.2052    1.7102 C   0  0  0  0  0  0  0  0  0  0  0  0
    2.2975   -0.5355    0.4692 C   0  0  0  0  0  0  0  0  0  0  0  0
    1.7117    0.4086   -0.9844 S   0  0  0  0  0  0  0  0  0  0  0  0
    0.4631   -0.4787    1.6227 H   0  0  0  0  0  0  0  0  0  0  0  0
    1.9433   -0.5990    2.6045 H   0  0  0  0  0  0  0  0  0  0  0  0
    2.2267   -1.5954    0.2239 H   0  0  0  0  0  0  0  0  0  0  0  0
    3.3466   -0.2635    0.5792 H   0  0  0  0  0  0  0  0  0  0  0  0
    0.4483   -0.0170   -0.9019 H   0  0  0  0  0  0  0  0  0  0  0  0
   -1.8322    1.6417    0.3391 C   0  0  0  0  0  3  0  0  0  0  0  0
   -2.3431    0.4199    0.1766 O   0  0  0  0  0  0  0  0  0  0  0  0
   -1.4510   -0.5477   -0.2148 N   0  0  0  0  0  0  0  0  0  0  0  0
   -1.9357   -1.7159   -0.3794 C   0  0  0  0  0  0  0  0  0  0  0  0
    1.6132    0.8366    2.0206 H   0  0  0  0  0  0  0  0  0  0  0  0
   -0.7990    1.8411    0.1333 H   0  0  0  0  0  0  0  0  0  0  0  0
   -2.5470    2.3803    0.6342 H   0  0  0  0  0  0  0  0  0  0  0  0
   -1.2457   -2.4804   -0.6852 H   0  0  0  0  0  0  0  0  0  0  0  0
   -2.9795   -1.9648   -0.2303 H   0  0  0  0  0  0  0  0  0  0  0  0
  1  2  1  0
  1  4  1  0
  1  5  1  0
  1 13  1  0
  2  3  1  0
  2  6  1  0
  2  7  1  0
  3  8  1  0
  9 10  1  0
  9 14  1  0
  9 15  1  0
 10 11  1  0
 11 12  2  3
 12 16  1  0
 12 17  1  0
M  RAD  1   9   2
M  END
>  <reaction>  (14) 
rmg_rxn_15660

>  <mol_properties>  (14) 
{"0": {"label": "*3", "atom_type": "Cs"}, "1": {"label": "*4", "atom_type": "Cs"}, "8": {"label": "*1", "atom_type": "Cs"}, "9": {"label": "*0", "atom_type": "O2s"}, "12": {"label": "*2", "atom_type": "H0"}}

>  <type>  (14) 
unop_10

>  <geom_source>  (14) 
Heuristics

$$$$

     RDKit          3D

 17 15  0  0  0  0  0  0  0  0999 V2000
    1.6178    0.3850    1.1460 C   0  0  0  0  0  0  0  0  0  0  0  0
    1.3740   -1.1080    1.2793 C   0  0  0  0  0  0  0  0  0  0  0  0
   -0.3813   -1.5769    1.3050 S   0  0  0  0  0  0  0  0  0  0  0  0
    1.2124    0.9252    2.0034 H   0  0  0  0  0  0  0  0  0  0  0  0
    2.6893    0.5923    1.0943 H   0  0  0  0  0  0  0  0  0  0  0  0
    1.8613   -1.5102    2.1674 H   0  0  0  0  0  0  0  0  0  0  0  0
    1.7819   -1.6431    0.4205 H   0  0  0  0  0  0  0  0  0  0  0  0
   -0.7082   -0.9117    2.4211 H   0  0  0  0  0  0  0  0  0  0  0  0
   -0.5214    1.6082    0.2586 C   0  0  0  0  0  3  0  0  0  0  0  0
   -0.5214    1.6661   -1.1543 O   0  0  0  0  0  0  0  0  0  0  0  0
   -0.5214    0.3922   -1.6700 N   0  0  0  0  0  0  0  0  0  0  0  0
   -0.5214    0.3922   -2.9336 C   0  0  0  0  0  0  0  0  0  0  0  0
    0.5492    0.9960    0.7027 H   0  0  0  0  0  0  0  0  0  0  0  0
   -1.4135    1.0980    0.6287 H   0  0  0  0  0  0  0  0  0  0  0  0
   -0.5214    2.6431    0.5964 H   0  0  0  0  0  0  0  0  0  0  0  0
   -0.5214   -0.5748   -3.4185 H   0  0  0  0  0  0  0  0  0  0  0  0
   -0.5214    1.3087   -3.5198 H   0  0  0  0  0  0  0  0  0  0  0  0
  1  2  1  0
  1  4  1  0
  1  5  1  0
  1 13  1  0
  2  3  1  0
  2  6  1  0
  2  7  1  0
  3  8  1  0
  9 10  1  0
  9 14  1  0
  9 15  1  0
 10 11  1  0
 11 12  2  3
 12 16  1  0
 12 17  1  0
M  RAD  1   9   2
M  END
>  <reaction>  (15) 
rmg_rxn_15660

>  <mol_properties>  (15) 
{"0": {"label": "*3", "atom_type": "Cs"}, "1": {"label": "*4", "atom_type": "Cs"}, "8": {"label": "*1", "atom_type": "Cs"}, "9": {"label": "*0", "atom_type": "O2s"}, "12": {"label": "*2", "atom_type": "H0"}}

>  <type>  (15) 
unop_11

>  <geom_source>  (15) 
Heuristics

$$$$

     RDKit          3D

 17 15  0  0  0  0  0  0  0  0999 V2000
    1.3958    1.6155   -0.3770 C   0  0  0  0  0  0  0  0  0  0  0  0
    1.7362    0.2461   -0.8853 C   0  0  0  0  0  0  0  0  0  0  0  0
    1.6967   -1.0275    0.4345 S   0  0  0  0  0  0  0  0  0  0  0  0
    2.0533    1.9413    0.4216 H   0  0  0  0  0  0  0  0  0  0  0  0
    1.3401    2.3499   -1.1739 H   0  0  0  0  0  0  0  0  0  0  0  0
    2.7611    0.2062   -1.2646 H   0  0  0  0  0  0  0  0  0  0  0  0
    1.0580   -0.0745   -1.6767 H   0  0  0  0  0  0  0  0  0  0  0  0
    0.3699   -1.0132    0.5921 H   0  0  0  0  0  0  0  0  0  0  0  0
   -1.0106    1.5377    0.7243 C   0  0  0  0  0  3  0  0  0  0  0  0
   -1.8409    0.7480   -0.0476 O   0  0  0  0  0  0  0  0  0  0  0  0
   -1.6129   -0.6013    0.1342 N   0  0  0  0  0  0  0  0  0  0  0  0
   -2.3414   -1.3877   -0.5357 C   0  0  0  0  0  0  0  0  0  0  0  0
    0.2140    1.5912    0.1558 H   0  0  0  0  0  0  0  0  0  0  0  0
   -0.8312    1.1457    1.7224 H   0  0  0  0  0  0  0  0  0  0  0  0
   -1.3965    2.5499    0.7042 H   0  0  0  0  0  0  0  0  0  0  0  0
   -2.1610   -2.4389   -0.3993 H   0  0  0  0  0  0  0  0  0  0  0  0
   -3.1187   -1.0636   -1.2194 H   0  0  0  0  0  0  0  0  0  0  0  0
  1  2  1  0
  1  4  1  0
  1  5  1  0
  1 13  1  0
  2  3  1  0
  2  6  1  0
  2  7  1  0
  3  8  1  0
  9 10  1  0
  9 14  1  0
  9 15  1  0
 10 11  1  0
 11 12  2  3
 12 16  1  0
 12 17  1  0
M  RAD  1   9   2
M  END
>  <reaction>  (16) 
rmg_rxn_15660

>  <mol_properties>  (16) 
{"0": {"label": "*3", "atom_type": "Cs"}, "1": {"label": "*4", "atom_type": "Cs"}, "8": {"label": "*1", "atom_type": "Cs"}, "9": {"label": "*0", "atom_type": "O2s"}, "12": {"label": "*2", "atom_type": "H0"}}

>  <type>  (16) 
unop_12

>  <geom_source>  (16) 
Heuristics

$$$$

     RDKit          3D

 17 15  0  0  0  0  0  0  0  0999 V2000
    1.6569    0.1578    0.7415 C   0  0  0  0  0  0  0  0  0  0  0  0
    1.2835   -1.0735    1.5483 C   0  0  0  0  0  0  0  0  0  0  0  0
   -0.4453   -1.1018    2.1072 S   0  0  0  0  0  0  0  0  0  0  0  0
    1.5586    1.0635    1.3427 H   0  0  0  0  0  0  0  0  0  0  0  0
    2.6934    0.0903    0.4025 H   0  0  0  0  0  0  0  0  0  0  0  0
    1.9372   -1.1931    2.4120 H   0  0  0  0  0  0  0  0  0  0  0  0
    1.3844   -1.9756    0.9431 H   0  0  0  0  0  0  0  0  0  0  0  0
   -0.3855   -0.0005    2.8679 H   0  0  0  0  0  0  0  0  0  0  0  0
   -0.4823    1.3810   -0.1459 C   0  0  0  0  0  3  0  0  0  0  0  0
   -0.4823    1.4389   -1.5588 O   0  0  0  0  0  0  0  0  0  0  0  0
   -0.4823    0.1650   -2.0745 N   0  0  0  0  0  0  0  0  0  0  0  0
   -0.4823    0.1650   -3.3381 C   0  0  0  0  0  0  0  0  0  0  0  0
    0.5883    0.7688    0.2982 H   0  0  0  0  0  0  0  0  0  0  0  0
   -1.3744    0.8708    0.2242 H   0  0  0  0  0  0  0  0  0  0  0  0
   -0.4823    2.4159    0.1919 H   0  0  0  0  0  0  0  0  0  0  0  0
   -0.4823   -0.8021   -3.8230 H   0  0  0  0  0  0  0  0  0  0  0  0
   -0.4823    1.0815   -3.9243 H   0  0  0  0  0  0  0  0  0  0  0  0
  1  2  1  0
  1  4  1  0
  1  5  1  0
  1 13  1  0
  2  3  1  0
  2  6  1  0
  2  7  1  0
  3  8  1  0
  9 10  1  0
  9 14  1  0
  9 15  1  0
 10 11  1  0
 11 12  2  3
 12 16  1  0
 12 17  1  0
M  RAD  1   9   2
M  END
>  <reaction>  (17) 
rmg_rxn_15660

>  <mol_properties>  (17) 
{"0": {"label": "*3", "atom_type": "Cs"}, "1": {"label": "*4", "atom_type": "Cs"}, "8": {"label": "*1", "atom_type": "Cs"}, "9": {"label": "*0", "atom_type": "O2s"}, "12": {"label": "*2", "atom_type": "H0"}}

>  <type>  (17) 
unop_13

>  <geom_source>  (17) 
Heuristics

$$$$

     RDKit          3D

 17 15  0  0  0  0  0  0  0  0999 V2000
    0.2809   -0.7305    1.4925 C   0  0  0  0  0  0  0  0  0  0  0  0
    1.4123    0.2550    1.7274 C   0  0  0  0  0  0  0  0  0  0  0  0
    2.5933    0.3751    0.3517 S   0  0  0  0  0  0  0  0  0  0  0  0
    0.6641   -1.7467    1.3836 H   0  0  0  0  0  0  0  0  0  0  0  0
   -0.4126   -0.7216    2.3367 H   0  0  0  0  0  0  0  0  0  0  0  0
    1.9565    0.0210    2.6422 H   0  0  0  0  0  0  0  0  0  0  0  0
    1.0237    1.2685    1.8365 H   0  0  0  0  0  0  0  0  0  0  0  0
    3.0158   -0.8957    0.3922 H   0  0  0  0  0  0  0  0  0  0  0  0
   -1.8583    0.4927    0.6051 C   0  0  0  0  0  3  0  0  0  0  0  0
   -1.8583    0.5506   -0.8078 O   0  0  0  0  0  0  0  0  0  0  0  0
   -1.8583   -0.7233   -1.3235 N   0  0  0  0  0  0  0  0  0  0  0  0
   -1.8583   -0.7233   -2.5871 C   0  0  0  0  0  0  0  0  0  0  0  0
   -0.7877   -0.1195    1.0492 H   0  0  0  0  0  0  0  0  0  0  0  0
   -2.7504   -0.0175    0.9752 H   0  0  0  0  0  0  0  0  0  0  0  0
   -1.8583    1.5276    0.9429 H   0  0  0  0  0  0  0  0  0  0  0  0
   -1.8583   -1.6903   -3.0720 H   0  0  0  0  0  0  0  0  0  0  0  0
   -1.8583    0.1932   -3.1733 H   0  0  0  0  0  0  0  0  0  0  0  0
  1  2  1  0
  1  4  1  0
  1  5  1  0
  1 13  1  0
  2  3  1  0
  2  6  1  0
  2  7  1  0
  3  8  1  0
  9 10  1  0
  9 14  1  0
  9 15  1  0
 10 11  1  0
 11 12  2  3
 12 16  1  0
 12 17  1  0
M  RAD  1   9   2
M  END
>  <reaction>  (18) 
rmg_rxn_15660

>  <mol_properties>  (18) 
{"0": {"label": "*3", "atom_type": "Cs"}, "1": {"label": "*4", "atom_type": "Cs"}, "8": {"label": "*1", "atom_type": "Cs"}, "9": {"label": "*0", "atom_type": "O2s"}, "12": {"label": "*2", "atom_type": "H0"}}

>  <type>  (18) 
unop_14

>  <geom_source>  (18) 
Heuristics

$$$$

     RDKit          3D

 17 15  0  0  0  0  0  0  0  0999 V2000
    1.3971   -1.6152   -0.3763 C   0  0  0  0  0  0  0  0  0  0  0  0
    1.7380   -0.2459   -0.8847 C   0  0  0  0  0  0  0  0  0  0  0  0
    1.6956    1.0285    0.4343 S   0  0  0  0  0  0  0  0  0  0  0  0
    1.3418   -2.3495   -1.1732 H   0  0  0  0  0  0  0  0  0  0  0  0
    2.0542   -1.9409    0.4227 H   0  0  0  0  0  0  0  0  0  0  0  0
    1.0610    0.0741   -1.6774 H   0  0  0  0  0  0  0  0  0  0  0  0
    2.7634   -0.2057   -1.2623 H   0  0  0  0  0  0  0  0  0  0  0  0
    0.3687    1.0136    0.5897 H   0  0  0  0  0  0  0  0  0  0  0  0
   -1.0096   -1.5378    0.7241 C   0  0  0  0  0  3  0  0  0  0  0  0
   -1.8405   -0.7488   -0.0479 O   0  0  0  0  0  0  0  0  0  0  0  0
   -1.6135    0.6007    0.1340 N   0  0  0  0  0  0  0  0  0  0  0  0
   -2.3430    1.3866   -0.5355 C   0  0  0  0  0  0  0  0  0  0  0  0
    0.2151   -1.5910    0.1558 H   0  0  0  0  0  0  0  0  0  0  0  0
   -1.3947   -2.5503    0.7039 H   0  0  0  0  0  0  0  0  0  0  0  0
   -0.8305   -1.1457    1.7222 H   0  0  0  0  0  0  0  0  0  0  0  0
   -2.1634    2.4379   -0.3991 H   0  0  0  0  0  0  0  0  0  0  0  0
   -3.1205    1.0619   -1.2186 H   0  0  0  0  0  0  0  0  0  0  0  0
  1  2  1  0
  1  4  1  0
  1  5  1  0
  1 13  1  0
  2  3  1  0
  2  6  1  0
  2  7  1  0
  3  8  1  0
  9 10  1  0
  9 14  1  0
  9 15  1  0
 10 11  1  0
 11 12  2  3
 12 16  1  0
 12 17  1  0
M  RAD  1   9   2
M  END
>  <reaction>  (19) 
rmg_rxn_15660

>  <mol_properties>  (19) 
{"0": {"label": "*3", "atom_type": "Cs"}, "1": {"label": "*4", "atom_type": "Cs"}, "8": {"label": "*1", "atom_type": "Cs"}, "9": {"label": "*0", "atom_type": "O2s"}, "12": {"label": "*2", "atom_type": "H0"}}

>  <type>  (19) 
unop_15

>  <geom_source>  (19) 
Heuristics

$$$$

     RDKit          3D

 17 15  0  0  0  0  0  0  0  0999 V2000
    1.2185    0.3427    1.8196 C   0  0  0  0  0  0  0  0  0  0  0  0
    1.7027   -0.6966    0.8237 C   0  0  0  0  0  0  0  0  0  0  0  0
    0.3700   -1.6216    0.0051 S   0  0  0  0  0  0  0  0  0  0  0  0
    0.6783   -0.1274    2.6434 H   0  0  0  0  0  0  0  0  0  0  0  0
    2.0655    0.8888    2.2415 H   0  0  0  0  0  0  0  0  0  0  0  0
    2.3886   -1.4026    1.2914 H   0  0  0  0  0  0  0  0  0  0  0  0
    2.2425   -0.2216    0.0032 H   0  0  0  0  0  0  0  0  0  0  0  0
   -0.1382   -2.1822    1.1108 H   0  0  0  0  0  0  0  0  0  0  0  0
   -0.9207    1.5659    0.9322 C   0  0  0  0  0  3  0  0  0  0  0  0
   -0.9207    1.6238   -0.4807 O   0  0  0  0  0  0  0  0  0  0  0  0
   -0.9207    0.3499   -0.9964 N   0  0  0  0  0  0  0  0  0  0  0  0
   -0.9207    0.3499   -2.2600 C   0  0  0  0  0  0  0  0  0  0  0  0
    0.1499    0.9537    1.3763 H   0  0  0  0  0  0  0  0  0  0  0  0
   -1.8128    1.0557    1.3023 H   0  0  0  0  0  0  0  0  0  0  0  0
   -0.9207    2.6008    1.2700 H   0  0  0  0  0  0  0  0  0  0  0  0
   -0.9207   -0.6172   -2.7448 H   0  0  0  0  0  0  0  0  0  0  0  0
   -0.9207    1.2664   -2.8462 H   0  0  0  0  0  0  0  0  0  0  0  0
  1  2  1  0
  1  4  1  0
  1  5  1  0
  1 13  1  0
  2  3  1  0
  2  6  1  0
  2  7  1  0
  3  8  1  0
  9 10  1  0
  9 14  1  0
  9 15  1  0
 10 11  1  0
 11 12  2  3
 12 16  1  0
 12 17  1  0
M  RAD  1   9   2
M  END
>  <reaction>  (20) 
rmg_rxn_15660

>  <mol_properties>  (20) 
{"0": {"label": "*3", "atom_type": "Cs"}, "1": {"label": "*4", "atom_type": "Cs"}, "8": {"label": "*1", "atom_type": "Cs"}, "9": {"label": "*0", "atom_type": "O2s"}, "12": {"label": "*2", "atom_type": "H0"}}

>  <type>  (20) 
unop_16

>  <geom_source>  (20) 
Heuristics

$$$$

     RDKit          3D

 17 15  0  0  0  0  0  0  0  0999 V2000
    0.3730   -0.4506    1.8180 C   0  0  0  0  0  0  0  0  0  0  0  0
    1.6340    0.2731    1.3794 C   0  0  0  0  0  0  0  0  0  0  0  0
    2.2829   -0.2690   -0.2290 S   0  0  0  0  0  0  0  0  0  0  0  0
    0.5619   -1.5169    1.9549 H   0  0  0  0  0  0  0  0  0  0  0  0
    0.0145   -0.0481    2.7684 H   0  0  0  0  0  0  0  0  0  0  0  0
    2.4214    0.1836    2.1276 H   0  0  0  0  0  0  0  0  0  0  0  0
    1.4398    1.3382    1.2450 H   0  0  0  0  0  0  0  0  0  0  0  0
    2.5264   -1.5402    0.1170 H   0  0  0  0  0  0  0  0  0  0  0  0
   -1.7662    0.7726    0.9306 C   0  0  0  0  0  3  0  0  0  0  0  0
   -1.7662    0.8305   -0.4823 O   0  0  0  0  0  0  0  0  0  0  0  0
   -1.7662   -0.4434   -0.9980 N   0  0  0  0  0  0  0  0  0  0  0  0
   -1.7662   -0.4434   -2.2617 C   0  0  0  0  0  0  0  0  0  0  0  0
   -0.6956    0.1604    1.3747 H   0  0  0  0  0  0  0  0  0  0  0  0
   -2.6583    0.2624    1.3007 H   0  0  0  0  0  0  0  0  0  0  0  0
   -1.7662    1.8075    1.2684 H   0  0  0  0  0  0  0  0  0  0  0  0
   -1.7662   -1.4105   -2.7465 H   0  0  0  0  0  0  0  0  0  0  0  0
   -1.7662    0.4731   -2.8478 H   0  0  0  0  0  0  0  0  0  0  0  0
  1  2  1  0
  1  4  1  0
  1  5  1  0
  1 13  1  0
  2  3  1  0
  2  6  1  0
  2  7  1  0
  3  8  1  0
  9 10  1  0
  9 14  1  0
  9 15  1  0
 10 11  1  0
 11 12  2  3
 12 16  1  0
 12 17  1  0
M  RAD  1   9   2
M  END
>  <reaction>  (21) 
rmg_rxn_15660

>  <mol_properties>  (21) 
{"0": {"label": "*3", "atom_type": "Cs"}, "1": {"label": "*4", "atom_type": "Cs"}, "8": {"label": "*1", "atom_type": "Cs"}, "9": {"label": "*0", "atom_type": "O2s"}, "12": {"label": "*2", "atom_type": "H0"}}

>  <type>  (21) 
unop_17

>  <geom_source>  (21) 
Heuristics

$$$$

     RDKit          3D

 17 15  0  0  0  0  0  0  0  0999 V2000
    1.5024   -0.2643    0.4324 C   0  0  0  0  0  0  0  0  0  0  0  0
    1.2183   -0.9719    1.7458 C   0  0  0  0  0  0  0  0  0  0  0  0
   -0.0915   -0.1990    2.7403 S   0  0  0  0  0  0  0  0  0  0  0  0
    1.8660    0.7501    0.6058 H   0  0  0  0  0  0  0  0  0  0  0  0
    2.2668   -0.8033   -0.1323 H   0  0  0  0  0  0  0  0  0  0  0  0
    2.1200   -1.0569    2.3519 H   0  0  0  0  0  0  0  0  0  0  0  0
    0.8562   -1.9853    1.5668 H   0  0  0  0  0  0  0  0  0  0  0  0
    0.5213    0.9781    2.9248 H   0  0  0  0  0  0  0  0  0  0  0  0
   -0.6368    0.9589   -0.4550 C   0  0  0  0  0  3  0  0  0  0  0  0
   -0.6368    1.0168   -1.8679 O   0  0  0  0  0  0  0  0  0  0  0  0
   -0.6368   -0.2570   -2.3836 N   0  0  0  0  0  0  0  0  0  0  0  0
   -0.6368   -0.2570   -3.6472 C   0  0  0  0  0  0  0  0  0  0  0  0
    0.4338    0.3467   -0.0109 H   0  0  0  0  0  0  0  0  0  0  0  0
   -1.5289    0.4487   -0.0849 H   0  0  0  0  0  0  0  0  0  0  0  0
   -0.6368    1.9938   -0.1172 H   0  0  0  0  0  0  0  0  0  0  0  0
   -0.6368   -1.2241   -4.1320 H   0  0  0  0  0  0  0  0  0  0  0  0
   -0.6368    0.6594   -4.2334 H   0  0  0  0  0  0  0  0  0  0  0  0
  1  2  1  0
  1  4  1  0
  1  5  1  0
  1 13  1  0
  2  3  1  0
  2  6  1  0
  2  7  1  0
  3  8  1  0
  9 10  1  0
  9 14  1  0
  9 15  1  0
 10 11  1  0
 11 12  2  3
 12 16  1  0
 12 17  1  0
M  RAD  1   9   2
M  END
>  <reaction>  (22) 
rmg_rxn_15660

>  <mol_properties>  (22) 
{"0": {"label": "*3", "atom_type": "Cs"}, "1": {"label": "*4", "atom_type": "Cs"}, "8": {"label": "*1", "atom_type": "Cs"}, "9": {"label": "*0", "atom_type": "O2s"}, "12": {"label": "*2", "atom_type": "H0"}}

>  <type>  (22) 
unop_18

>  <geom_source>  (22) 
Heuristics

$$$$

     RDKit          3D

 17 15  0  0  0  0  0  0  0  0999 V2000
    0.9196    0.1557    1.9852 C   0  0  0  0  0  0  0  0  0  0  0  0
    1.8071   -0.2895    0.8361 C   0  0  0  0  0  0  0  0  0  0  0  0
    0.9829   -1.3777   -0.3633 S   0  0  0  0  0  0  0  0  0  0  0  0
    0.5957   -0.6985    2.5824 H   0  0  0  0  0  0  0  0  0  0  0  0
    1.4629    0.8387    2.6427 H   0  0  0  0  0  0  0  0  0  0  0  0
    2.7082   -0.7822    1.2007 H   0  0  0  0  0  0  0  0  0  0  0  0
    2.1287    0.5680    0.2433 H   0  0  0  0  0  0  0  0  0  0  0  0
    0.7178   -2.3797    0.4857 H   0  0  0  0  0  0  0  0  0  0  0  0
   -1.2195    1.3789    1.0978 C   0  0  0  0  0  3  0  0  0  0  0  0
   -1.2195    1.4368   -0.3150 O   0  0  0  0  0  0  0  0  0  0  0  0
   -1.2195    0.1630   -0.8308 N   0  0  0  0  0  0  0  0  0  0  0  0
   -1.2195    0.1630   -2.0944 C   0  0  0  0  0  0  0  0  0  0  0  0
   -0.1489    0.7667    1.5420 H   0  0  0  0  0  0  0  0  0  0  0  0
   -2.1116    0.8687    1.4680 H   0  0  0  0  0  0  0  0  0  0  0  0
   -1.2195    2.4138    1.4356 H   0  0  0  0  0  0  0  0  0  0  0  0
   -1.2195   -0.8041   -2.5792 H   0  0  0  0  0  0  0  0  0  0  0  0
   -1.2195    1.0794   -2.6805 H   0  0  0  0  0  0  0  0  0  0  0  0
  1  2  1  0
  1  4  1  0
  1  5  1  0
  1 13  1  0
  2  3  1  0
  2  6  1  0
  2  7  1  0
  3  8  1  0
  9 10  1  0
  9 14  1  0
  9 15  1  0
 10 11  1  0
 11 12  2  3
 12 16  1  0
 12 17  1  0
M  RAD  1   9   2
M  END
>  <reaction>  (23) 
rmg_rxn_15660

>  <mol_properties>  (23) 
{"0": {"label": "*3", "atom_type": "Cs"}, "1": {"label": "*4", "atom_type": "Cs"}, "8": {"label": "*1", "atom_type": "Cs"}, "9": {"label": "*0", "atom_type": "O2s"}, "12": {"label": "*2", "atom_type": "H0"}}

>  <type>  (23) 
unop_19

>  <geom_source>  (23) 
Heuristics

$$$$

     RDKit          3D

 17 15  0  0  0  0  0  0  0  0999 V2000
   -2.2733    1.9506    0.4146 S   0  0  0  0  0  0  0  0  0  0  0  0
    1.7076    0.2580   -0.3100 O   0  0  0  0  0  0  0  0  0  0  0  0
    2.9729   -0.2096   -0.0372 N   0  0  0  0  0  0  0  0  0  0  0  0
   -2.8480    0.2496    0.1222 C   0  0  0  0  0  0  0  0  0  0  0  0
   -1.7217   -0.7420    0.3722 C   0  0  0  0  0  0  0  0  0  0  0  0
    0.6516   -0.6486   -0.5803 C   0  0  0  0  0  3  0  0  0  0  0  0
    3.9375    0.6137    0.2096 C   0  0  0  0  0  0  0  0  0  0  0  0
   -3.6928    0.0317    0.8091 H   0  0  0  0  0  0  0  0  0  0  0  0
   -3.2040    0.1561   -0.9254 H   0  0  0  0  0  0  0  0  0  0  0  0
   -1.3617   -0.6565    1.4194 H   0  0  0  0  0  0  0  0  0  0  0  0
   -2.0907   -1.7755    0.2033 H   0  0  0  0  0  0  0  0  0  0  0  0
   -0.7391   -0.5124   -0.4394 H   0  0  0  0  0  0  0  0  0  0  0  0
    4.9274    0.2340    0.4225 H   0  0  0  0  0  0  0  0  0  0  0  0
    3.7648    1.6826    0.2055 H   0  0  0  0  0  0  0  0  0  0  0  0
    0.8944   -1.2558   -1.4775 H   0  0  0  0  0  0  0  0  0  0  0  0
    0.4910   -1.3142    0.2937 H   0  0  0  0  0  0  0  0  0  0  0  0
   -1.4158    1.9383   -0.7022 H   0  0  0  0  0  0  0  0  0  0  0  0
  1  4  1  0
  1 17  1  0
  2  6  1  0
  2  3  1  0
  3  7  2  3
  4  5  1  0
  4  8  1  0
  4  9  1  0
  5 10  1  0
  5 11  1  0
  5 12  1  0
  6 15  1  0
  6 16  1  0
  7 13  1  0
  7 14  1  0
M  RAD  1   6   2
M  END
>  <reaction>  (24) 
rmg_rxn_15660

>  <mol_properties>  (24) 
{"0": {"label": "*3", "atom_type": "Cs"}, "1": {"label": "*4", "atom_type": "Cs"}, "8": {"label": "*1", "atom_type": "Cs"}, "9": {"label": "*0", "atom_type": "O2s"}, "12": {"label": "*2", "atom_type": "H0"}}

>  <type>  (24) 
unop_20

>  <geom_source>  (24) 
AutoTST

$$$$

     RDKit          3D

 17 15  0  0  0  0  0  0  0  0999 V2000
    0.6078   -0.1239    1.9927 C   0  0  0  0  0  0  0  0  0  0  0  0
    1.7796    0.0761    1.0475 C   0  0  0  0  0  0  0  0  0  0  0  0
    1.6885   -0.9156   -0.4723 S   0  0  0  0  0  0  0  0  0  0  0  0
    0.5665   -1.1539    2.3513 H   0  0  0  0  0  0  0  0  0  0  0  0
    0.7043    0.5310    2.8620 H   0  0  0  0  0  0  0  0  0  0  0  0
    2.7278   -0.1250    1.5457 H   0  0  0  0  0  0  0  0  0  0  0  0
    1.8168    1.1072    0.6930 H   0  0  0  0  0  0  0  0  0  0  0  0
    1.7180   -2.1175    0.1190 H   0  0  0  0  0  0  0  0  0  0  0  0
   -1.5313    1.0993    1.1053 C   0  0  0  0  0  3  0  0  0  0  0  0
   -1.5313    1.1572   -0.3076 O   0  0  0  0  0  0  0  0  0  0  0  0
   -1.5313   -0.1166   -0.8233 N   0  0  0  0  0  0  0  0  0  0  0  0
   -1.5313   -0.1166   -2.0869 C   0  0  0  0  0  0  0  0  0  0  0  0
   -0.4607    0.4872    1.5494 H   0  0  0  0  0  0  0  0  0  0  0  0
   -2.4235    0.5891    1.4754 H   0  0  0  0  0  0  0  0  0  0  0  0
   -1.5314    2.1342    1.4431 H   0  0  0  0  0  0  0  0  0  0  0  0
   -1.5314   -1.0837   -2.5718 H   0  0  0  0  0  0  0  0  0  0  0  0
   -1.5313    0.7998   -2.6731 H   0  0  0  0  0  0  0  0  0  0  0  0
  1  2  1  0
  1  4  1  0
  1  5  1  0
  1 13  1  0
  2  3  1  0
  2  6  1  0
  2  7  1  0
  3  8  1  0
  9 10  1  0
  9 14  1  0
  9 15  1  0
 10 11  1  0
 11 12  2  3
 12 16  1  0
 12 17  1  0
M  RAD  1   9   2
M  END
>  <reaction>  (25) 
rmg_rxn_15660

>  <mol_properties>  (25) 
{"0": {"label": "*3", "atom_type": "Cs"}, "1": {"label": "*4", "atom_type": "Cs"}, "8": {"label": "*1", "atom_type": "Cs"}, "9": {"label": "*0", "atom_type": "O2s"}, "12": {"label": "*2", "atom_type": "H0"}}

>  <type>  (25) 
unop_21

>  <geom_source>  (25) 
gaussian_log

$$$$
