
     RDKit          3D

  6  5  0  0  0  0  0  0  0  0999 V2000
   -0.4901    0.0045    0.0014 C   0  0  0  0  0  0  0  0  0  0  0  0
    0.9645   -0.0089   -0.0027 C   0  0  0  0  0  0  0  0  0  0  0  0
    2.1108   -0.0195   -0.0059 N   0  0  0  0  0  0  0  0  0  0  0  0
   -0.8700   -0.6407   -0.7900 H   0  0  0  0  0  0  0  0  0  0  0  0
   -0.8625   -0.3540    0.9604 H   0  0  0  0  0  0  0  0  0  0  0  0
   -0.8530    1.0185   -0.1631 H   0  0  0  0  0  0  0  0  0  0  0  0
  1  2  1  0
  1  4  1  0
  1  5  1  0
  1  6  1  0
  2  3  3  0
M  END
>  <reaction>  (1) 
rmg_rxn_387

>  <mol_properties>  (1) 
{"0": {"label": "donator", "atom_type": "Cs"}, "3": {"label": "d_hydrogen", "atom_type": "H0"}}

>  <type>  (1) 
r1h

$$$$

     RDKit          3D

  8  7  0  0  0  0  0  0  0  0999 V2000
   -0.7831    0.1170   -0.1002 C   0  0  0  0  0  0  0  0  0  0  0  0
    0.7183   -0.0910    0.0020 C   0  0  0  0  0  0  0  0  0  0  0  0
    1.2838   -0.8149   -0.9975 O   0  0  0  0  0  1  0  0  0  0  0  0
   -1.3006   -0.8429   -0.1003 H   0  0  0  0  0  0  0  0  0  0  0  0
   -1.1489    0.7073    0.7424 H   0  0  0  0  0  0  0  0  0  0  0  0
   -1.0322    0.6411   -1.0235 H   0  0  0  0  0  0  0  0  0  0  0  0
    1.2602    0.8720    0.0516 H   0  0  0  0  0  0  0  0  0  0  0  0
    0.9978   -0.5790    0.9544 H   0  0  0  0  0  0  0  0  0  0  0  0
  1  2  1  0
  1  4  1  0
  1  5  1  0
  1  6  1  0
  2  3  1  0
  2  7  1  0
  2  8  1  0
M  RAD  1   3   2
M  END
>  <reaction>  (2) 
rmg_rxn_387

>  <mol_properties>  (2) 
{"2": {"label": "acceptor", "atom_type": "O2s"}}

>  <type>  (2) 
r2

$$$$

     RDKit          3D

  9  8  0  0  0  0  0  0  0  0999 V2000
   -0.9895    0.3048    0.1041 C   0  0  0  0  0  0  0  0  0  0  0  0
    0.3761   -0.3562    0.0721 C   0  0  0  0  0  0  0  0  0  0  0  0
    0.3441   -1.6564   -0.4834 O   0  0  0  0  0  0  0  0  0  0  0  0
   -1.6997   -0.3114    0.6572 H   0  0  0  0  0  0  0  0  0  0  0  0
   -0.9320    1.2848    0.5822 H   0  0  0  0  0  0  0  0  0  0  0  0
   -1.3774    0.4507   -0.9077 H   0  0  0  0  0  0  0  0  0  0  0  0
    0.7581   -0.4813    1.0862 H   0  0  0  0  0  0  0  0  0  0  0  0
    1.0900    0.2787   -0.4681 H   0  0  0  0  0  0  0  0  0  0  0  0
    0.0089   -1.5959   -1.3792 H   0  0  0  0  0  0  0  0  0  0  0  0
  1  2  1  0
  1  4  1  0
  1  5  1  0
  1  6  1  0
  2  3  1  0
  2  7  1  0
  2  8  1  0
  3  9  1  0
M  END
>  <reaction>  (3) 
rmg_rxn_387

>  <mol_properties>  (3) 
{"0": {"label": "a_hydrogen", "atom_type": "H0"}, "3": {"label": "acceptor", "atom_type": "O2s"}}

>  <type>  (3) 
r2h

$$$$

     RDKit          3D

 14 12  0  0  0  0  0  0  0  0999 V2000
    1.0634    1.1644    0.6812 C   0  0  0  0  0  0  0  0  0  0  0  0
    0.7212    1.4373   -0.6756 C   0  0  0  0  0  0  0  0  0  0  0  0
    0.3993    1.6158   -1.7664 N   0  0  0  0  0  2  0  0  0  0  0  0
    0.1488    0.3866    1.1437 H   0  0  0  0  0  0  0  0  0  0  0  0
    1.9829    0.5972    0.7955 H   0  0  0  0  0  0  0  0  0  0  0  0
    1.0019    2.0322    1.3322 H   0  0  0  0  0  0  0  0  0  0  0  0
   -0.4856   -1.9662   -0.3298 C   0  0  0  0  0  0  0  0  0  0  0  0
   -1.3335   -0.8739    0.2928 C   0  0  0  0  0  0  0  0  0  0  0  0
   -0.7870   -0.3243    1.4525 O   0  0  0  0  0  0  0  0  0  0  0  0
   -0.2745   -2.7498    0.3986 H   0  0  0  0  0  0  0  0  0  0  0  0
   -1.0006   -2.4091   -1.1840 H   0  0  0  0  0  0  0  0  0  0  0  0
    0.4623   -1.5597   -0.6883 H   0  0  0  0  0  0  0  0  0  0  0  0
   -1.5631   -0.0871   -0.4394 H   0  0  0  0  0  0  0  0  0  0  0  0
   -2.3054   -1.2711    0.6160 H   0  0  0  0  0  0  0  0  0  0  0  0
  1  2  2  0
  1  5  1  0
  1  6  1  0
  2  3  2  0
  4  9  1  0
  7  8  1  0
  7 10  1  0
  7 11  1  0
  7 12  1  0
  8  9  1  0
  8 13  1  0
  8 14  1  0
M  RAD  1   3   2
M  END
>  <reaction>  (4) 
rmg_rxn_387

>  <mol_properties>  (4) 
{"0": {"label": "*3", "atom_type": "Cd"}, "1": {"label": "*4", "atom_type": "Cdd"}, "3": {"label": "*2", "atom_type": "H0"}, "7": {"label": "*0", "atom_type": "Cs"}, "8": {"label": "*1", "atom_type": "O2s"}}

>  <type>  (4) 
ts

$$$$

     RDKit          3D

 14 12  0  0  0  0  0  0  0  0999 V2000
    0.4885    1.0640   -0.1712 C   0  0  0  0  0  0  0  0  0  0  0  0
    0.4885    1.0640   -1.6258 C   0  0  0  0  0  0  0  0  0  0  0  0
    0.4885    1.0640   -2.7723 N   0  0  0  0  0  2  0  0  0  0  0  0
   -0.4645    0.2881    0.2749 H   0  0  0  0  0  0  0  0  0  0  0  0
    1.4456    0.6994    0.2005 H   0  0  0  0  0  0  0  0  0  0  0  0
    0.3258    2.0750    0.2005 H   0  0  0  0  0  0  0  0  0  0  0  0
    0.7062   -1.1004    1.8655 C   0  0  0  0  0  0  0  0  0  0  0  0
   -0.7189   -1.4168    1.4507 C   0  0  0  0  0  0  0  0  0  0  0  0
   -1.3029   -0.3944    0.6674 O   0  0  0  0  0  0  0  0  0  0  0  0
    0.7452   -0.1558    2.4097 H   0  0  0  0  0  0  0  0  0  0  0  0
    1.1048   -1.8890    2.5069 H   0  0  0  0  0  0  0  0  0  0  0  0
    1.3591   -1.0202    0.9921 H   0  0  0  0  0  0  0  0  0  0  0  0
   -0.7533   -2.3779    0.9219 H   0  0  0  0  0  0  0  0  0  0  0  0
   -1.3558   -1.5097    2.3314 H   0  0  0  0  0  0  0  0  0  0  0  0
  1  2  2  0
  1  5  1  0
  1  6  1  0
  2  3  2  0
  4  9  1  0
  7  8  1  0
  7 10  1  0
  7 11  1  0
  7 12  1  0
  8  9  1  0
  8 13  1  0
  8 14  1  0
M  RAD  1   3   2
M  END
>  <reaction>  (5) 
rmg_rxn_387

>  <mol_properties>  (5) 
{"0": {"label": "*3", "atom_type": "Cd"}, "1": {"label": "*4", "atom_type": "Cdd"}, "3": {"label": "*2", "atom_type": "H0"}, "7": {"label": "*0", "atom_type": "Cs"}, "8": {"label": "*1", "atom_type": "O2s"}}

>  <type>  (5) 
unop_1

>  <geom_source>  (5) 
Heuristics

$$$$

     RDKit          3D

 14 12  0  0  0  0  0  0  0  0999 V2000
    0.7874    1.2149    0.6042 C   0  0  0  0  0  0  0  0  0  0  0  0
    0.7874    1.2149   -0.8504 C   0  0  0  0  0  0  0  0  0  0  0  0
    0.7874    1.2149   -1.9969 N   0  0  0  0  0  2  0  0  0  0  0  0
   -0.1657    0.4390    1.0503 H   0  0  0  0  0  0  0  0  0  0  0  0
    1.7444    0.8503    0.9759 H   0  0  0  0  0  0  0  0  0  0  0  0
    0.6246    2.2259    0.9759 H   0  0  0  0  0  0  0  0  0  0  0  0
    0.0764   -1.7981   -0.1019 C   0  0  0  0  0  0  0  0  0  0  0  0
   -1.2148   -1.2798    0.5039 C   0  0  0  0  0  0  0  0  0  0  0  0
   -1.0040   -0.2435    1.4428 O   0  0  0  0  0  0  0  0  0  0  0  0
    0.7531   -2.1456    0.6800 H   0  0  0  0  0  0  0  0  0  0  0  0
   -0.1235   -2.6272   -0.7838 H   0  0  0  0  0  0  0  0  0  0  0  0
    0.5837   -1.0143   -0.6710 H   0  0  0  0  0  0  0  0  0  0  0  0
   -1.8984   -0.9511   -0.2894 H   0  0  0  0  0  0  0  0  0  0  0  0
   -1.7183   -2.0752    1.0551 H   0  0  0  0  0  0  0  0  0  0  0  0
  1  2  2  0
  1  5  1  0
  1  6  1  0
  2  3  2  0
  4  9  1  0
  7  8  1  0
  7 10  1  0
  7 11  1  0
  7 12  1  0
  8  9  1  0
  8 13  1  0
  8 14  1  0
M  RAD  1   3   2
M  END
>  <reaction>  (6) 
rmg_rxn_387

>  <mol_properties>  (6) 
{"0": {"label": "*3", "atom_type": "Cd"}, "1": {"label": "*4", "atom_type": "Cdd"}, "3": {"label": "*2", "atom_type": "H0"}, "7": {"label": "*0", "atom_type": "Cs"}, "8": {"label": "*1", "atom_type": "O2s"}}

>  <type>  (6) 
unop_2

>  <geom_source>  (6) 
Heuristics

$$$$

     RDKit          3D

 14 12  0  0  0  0  0  0  0  0999 V2000
    0.6312    0.7930   -0.3886 C   0  0  0  0  0  0  0  0  0  0  0  0
    0.6312    0.7930   -1.8432 C   0  0  0  0  0  0  0  0  0  0  0  0
    0.6312    0.7930   -2.9897 N   0  0  0  0  0  2  0  0  0  0  0  0
   -0.3218    0.0172    0.0575 H   0  0  0  0  0  0  0  0  0  0  0  0
    1.5883    0.4285   -0.0169 H   0  0  0  0  0  0  0  0  0  0  0  0
    0.4685    1.8041   -0.0169 H   0  0  0  0  0  0  0  0  0  0  0  0
    0.2097   -0.2985    2.4396 C   0  0  0  0  0  0  0  0  0  0  0  0
   -0.7562   -1.2013    1.6948 C   0  0  0  0  0  0  0  0  0  0  0  0
   -1.1602   -0.6653    0.4499 O   0  0  0  0  0  0  0  0  0  0  0  0
   -0.2294    0.6884    2.5920 H   0  0  0  0  0  0  0  0  0  0  0  0
    0.4602   -0.7228    3.4141 H   0  0  0  0  0  0  0  0  0  0  0  0
    1.1415   -0.1766    1.8806 H   0  0  0  0  0  0  0  0  0  0  0  0
   -0.3159   -2.1980    1.5632 H   0  0  0  0  0  0  0  0  0  0  0  0
   -1.6744   -1.3271    2.2703 H   0  0  0  0  0  0  0  0  0  0  0  0
  1  2  2  0
  1  5  1  0
  1  6  1  0
  2  3  2  0
  4  9  1  0
  7  8  1  0
  7 10  1  0
  7 11  1  0
  7 12  1  0
  8  9  1  0
  8 13  1  0
  8 14  1  0
M  RAD  1   3   2
M  END
>  <reaction>  (7) 
rmg_rxn_387

>  <mol_properties>  (7) 
{"0": {"label": "*3", "atom_type": "Cd"}, "1": {"label": "*4", "atom_type": "Cdd"}, "3": {"label": "*2", "atom_type": "H0"}, "7": {"label": "*0", "atom_type": "Cs"}, "8": {"label": "*1", "atom_type": "O2s"}}

>  <type>  (7) 
unop_3

>  <geom_source>  (7) 
Heuristics

$$$$

     RDKit          3D

 14 12  0  0  0  0  0  0  0  0999 V2000
    1.4460    0.7117    0.5630 C   0  0  0  0  0  0  0  0  0  0  0  0
    1.4460    0.7117   -0.8916 C   0  0  0  0  0  0  0  0  0  0  0  0
    1.4460    0.7117   -2.0381 N   0  0  0  0  0  2  0  0  0  0  0  0
    0.4930   -0.0641    1.0091 H   0  0  0  0  0  0  0  0  0  0  0  0
    2.4030    0.3472    0.9347 H   0  0  0  0  0  0  0  0  0  0  0  0
    1.2832    1.7228    0.9347 H   0  0  0  0  0  0  0  0  0  0  0  0
   -2.0255   -0.9267   -0.3633 C   0  0  0  0  0  0  0  0  0  0  0  0
   -1.5830   -0.2563    0.9241 C   0  0  0  0  0  0  0  0  0  0  0  0
   -0.3454   -0.7466    1.4016 O   0  0  0  0  0  0  0  0  0  0  0  0
   -2.0878   -2.0075   -0.2298 H   0  0  0  0  0  0  0  0  0  0  0  0
   -3.0049   -0.5567   -0.6735 H   0  0  0  0  0  0  0  0  0  0  0  0
   -1.3207   -0.7213   -1.1736 H   0  0  0  0  0  0  0  0  0  0  0  0
   -1.5424    0.8320    0.7881 H   0  0  0  0  0  0  0  0  0  0  0  0
   -2.3025   -0.4558    1.7195 H   0  0  0  0  0  0  0  0  0  0  0  0
  1  2  2  0
  1  5  1  0
  1  6  1  0
  2  3  2  0
  4  9  1  0
  7  8  1  0
  7 10  1  0
  7 11  1  0
  7 12  1  0
  8  9  1  0
  8 13  1  0
  8 14  1  0
M  RAD  1   3   2
M  END
>  <reaction>  (8) 
rmg_rxn_387

>  <mol_properties>  (8) 
{"0": {"label": "*3", "atom_type": "Cd"}, "1": {"label": "*4", "atom_type": "Cdd"}, "3": {"label": "*2", "atom_type": "H0"}, "7": {"label": "*0", "atom_type": "Cs"}, "8": {"label": "*1", "atom_type": "O2s"}}

>  <type>  (8) 
unop_4

>  <geom_source>  (8) 
Heuristics

$$$$

     RDKit          3D

 14 12  0  0  0  0  0  0  0  0999 V2000
    0.9640    0.5142   -0.4166 C   0  0  0  0  0  0  0  0  0  0  0  0
    0.9640    0.5142   -1.8713 C   0  0  0  0  0  0  0  0  0  0  0  0
    0.9640    0.5142   -3.0177 N   0  0  0  0  0  2  0  0  0  0  0  0
    0.0110   -0.2617    0.0294 H   0  0  0  0  0  0  0  0  0  0  0  0
    1.9211    0.1496   -0.0450 H   0  0  0  0  0  0  0  0  0  0  0  0
    0.8013    1.5252   -0.0449 H   0  0  0  0  0  0  0  0  0  0  0  0
   -0.9942    0.4711    2.4066 C   0  0  0  0  0  0  0  0  0  0  0  0
   -0.7993   -0.9213    1.8356 C   0  0  0  0  0  0  0  0  0  0  0  0
   -0.8274   -0.9442    0.4219 O   0  0  0  0  0  0  0  0  0  0  0  0
   -1.9320    0.9015    2.0529 H   0  0  0  0  0  0  0  0  0  0  0  0
   -1.0143    0.4407    3.4979 H   0  0  0  0  0  0  0  0  0  0  0  0
   -0.1781    1.1344    2.1075 H   0  0  0  0  0  0  0  0  0  0  0  0
    0.1358   -1.3558    2.2119 H   0  0  0  0  0  0  0  0  0  0  0  0
   -1.6112   -1.5764    2.1545 H   0  0  0  0  0  0  0  0  0  0  0  0
  1  2  2  0
  1  5  1  0
  1  6  1  0
  2  3  2  0
  4  9  1  0
  7  8  1  0
  7 10  1  0
  7 11  1  0
  7 12  1  0
  8  9  1  0
  8 13  1  0
  8 14  1  0
M  RAD  1   3   2
M  END
>  <reaction>  (9) 
rmg_rxn_387

>  <mol_properties>  (9) 
{"0": {"label": "*3", "atom_type": "Cd"}, "1": {"label": "*4", "atom_type": "Cdd"}, "3": {"label": "*2", "atom_type": "H0"}, "7": {"label": "*0", "atom_type": "Cs"}, "8": {"label": "*1", "atom_type": "O2s"}}

>  <type>  (9) 
unop_5

>  <geom_source>  (9) 
Heuristics

$$$$

     RDKit          3D

 14 12  0  0  0  0  0  0  0  0999 V2000
    1.5196    0.5321    0.3168 C   0  0  0  0  0  0  0  0  0  0  0  0
    1.5196    0.5321   -1.1378 C   0  0  0  0  0  0  0  0  0  0  0  0
    1.5196    0.5321   -2.2843 N   0  0  0  0  0  2  0  0  0  0  0  0
    0.5666   -0.2437    0.7629 H   0  0  0  0  0  0  0  0  0  0  0  0
    2.4766    0.1676    0.6885 H   0  0  0  0  0  0  0  0  0  0  0  0
    1.3568    1.5432    0.6885 H   0  0  0  0  0  0  0  0  0  0  0  0
   -2.4378   -0.3566    0.1787 C   0  0  0  0  0  0  0  0  0  0  0  0
   -1.4454   -0.1521    1.3083 C   0  0  0  0  0  0  0  0  0  0  0  0
   -0.2718   -0.9262    1.1554 O   0  0  0  0  0  0  0  0  0  0  0  0
   -2.7045   -1.4106    0.0901 H   0  0  0  0  0  0  0  0  0  0  0  0
   -3.3482    0.2195    0.3566 H   0  0  0  0  0  0  0  0  0  0  0  0
   -2.0175   -0.0278   -0.7756 H   0  0  0  0  0  0  0  0  0  0  0  0
   -1.1976    0.9128    1.4046 H   0  0  0  0  0  0  0  0  0  0  0  0
   -1.8827   -0.4690    2.2561 H   0  0  0  0  0  0  0  0  0  0  0  0
  1  2  2  0
  1  5  1  0
  1  6  1  0
  2  3  2  0
  4  9  1  0
  7  8  1  0
  7 10  1  0
  7 11  1  0
  7 12  1  0
  8  9  1  0
  8 13  1  0
  8 14  1  0
M  RAD  1   3   2
M  END
>  <reaction>  (10) 
rmg_rxn_387

>  <mol_properties>  (10) 
{"0": {"label": "*3", "atom_type": "Cd"}, "1": {"label": "*4", "atom_type": "Cdd"}, "3": {"label": "*2", "atom_type": "H0"}, "7": {"label": "*0", "atom_type": "Cs"}, "8": {"label": "*1", "atom_type": "O2s"}}

>  <type>  (10) 
unop_6

>  <geom_source>  (10) 
Heuristics

$$$$

     RDKit          3D

 14 12  0  0  0  0  0  0  0  0999 V2000
    1.4685    0.4321    0.0293 C   0  0  0  0  0  0  0  0  0  0  0  0
    1.4685    0.4321   -1.4253 C   0  0  0  0  0  0  0  0  0  0  0  0
    1.4685    0.4321   -2.5718 N   0  0  0  0  0  2  0  0  0  0  0  0
    0.5155   -0.3438    0.4754 H   0  0  0  0  0  0  0  0  0  0  0  0
    2.4255    0.0675    0.4010 H   0  0  0  0  0  0  0  0  0  0  0  0
    1.3057    1.4431    0.4010 H   0  0  0  0  0  0  0  0  0  0  0  0
   -2.4840    0.1127    0.9170 C   0  0  0  0  0  0  0  0  0  0  0  0
   -1.2056   -0.2470    1.6512 C   0  0  0  0  0  0  0  0  0  0  0  0
   -0.3229   -1.0263    0.8678 O   0  0  0  0  0  0  0  0  0  0  0  0
   -2.9961   -0.7884    0.5769 H   0  0  0  0  0  0  0  0  0  0  0  0
   -3.1583    0.6719    1.5688 H   0  0  0  0  0  0  0  0  0  0  0  0
   -2.2717    0.7365    0.0445 H   0  0  0  0  0  0  0  0  0  0  0  0
   -0.7066    0.6631    2.0080 H   0  0  0  0  0  0  0  0  0  0  0  0
   -1.4329   -0.8556    2.5276 H   0  0  0  0  0  0  0  0  0  0  0  0
  1  2  2  0
  1  5  1  0
  1  6  1  0
  2  3  2  0
  4  9  1  0
  7  8  1  0
  7 10  1  0
  7 11  1  0
  7 12  1  0
  8  9  1  0
  8 13  1  0
  8 14  1  0
M  RAD  1   3   2
M  END
>  <reaction>  (11) 
rmg_rxn_387

>  <mol_properties>  (11) 
{"0": {"label": "*3", "atom_type": "Cd"}, "1": {"label": "*4", "atom_type": "Cdd"}, "3": {"label": "*2", "atom_type": "H0"}, "7": {"label": "*0", "atom_type": "Cs"}, "8": {"label": "*1", "atom_type": "O2s"}}

>  <type>  (11) 
unop_7

>  <geom_source>  (11) 
Heuristics

$$$$

     RDKit          3D

 14 12  0  0  0  0  0  0  0  0999 V2000
    0.4945    1.2235    0.1178 C   0  0  0  0  0  0  0  0  0  0  0  0
    0.4945    1.2235   -1.3369 C   0  0  0  0  0  0  0  0  0  0  0  0
    0.4945    1.2235   -2.4833 N   0  0  0  0  0  2  0  0  0  0  0  0
   -0.4585    0.4477    0.5639 H   0  0  0  0  0  0  0  0  0  0  0  0
    1.4515    0.8590    0.4895 H   0  0  0  0  0  0  0  0  0  0  0  0
    0.3317    2.2346    0.4895 H   0  0  0  0  0  0  0  0  0  0  0  0
    0.7402   -1.5740    1.1204 C   0  0  0  0  0  0  0  0  0  0  0  0
   -0.7769   -1.5411    1.1093 C   0  0  0  0  0  0  0  0  0  0  0  0
   -1.2969   -0.2348    0.9563 O   0  0  0  0  0  0  0  0  0  0  0  0
    1.1308   -0.9306    1.9100 H   0  0  0  0  0  0  0  0  0  0  0  0
    1.1022   -2.5905    1.2880 H   0  0  0  0  0  0  0  0  0  0  0  0
    1.1460   -1.2298    0.1653 H   0  0  0  0  0  0  0  0  0  0  0  0
   -1.1630   -2.2062    0.3262 H   0  0  0  0  0  0  0  0  0  0  0  0
   -1.1687   -1.9017    2.0614 H   0  0  0  0  0  0  0  0  0  0  0  0
  1  2  2  0
  1  5  1  0
  1  6  1  0
  2  3  2  0
  4  9  1  0
  7  8  1  0
  7 10  1  0
  7 11  1  0
  7 12  1  0
  8  9  1  0
  8 13  1  0
  8 14  1  0
M  RAD  1   3   2
M  END
>  <reaction>  (12) 
rmg_rxn_387

>  <mol_properties>  (12) 
{"0": {"label": "*3", "atom_type": "Cd"}, "1": {"label": "*4", "atom_type": "Cdd"}, "3": {"label": "*2", "atom_type": "H0"}, "7": {"label": "*0", "atom_type": "Cs"}, "8": {"label": "*1", "atom_type": "O2s"}}

>  <type>  (12) 
unop_8

>  <geom_source>  (12) 
Heuristics

$$$$

     RDKit          3D

 14 12  0  0  0  0  0  0  0  0999 V2000
    1.2608    0.9222    0.7055 C   0  0  0  0  0  0  0  0  0  0  0  0
    1.2608    0.9222   -0.7491 C   0  0  0  0  0  0  0  0  0  0  0  0
    1.2608    0.9222   -1.8956 N   0  0  0  0  0  2  0  0  0  0  0  0
    0.3078    0.1464    1.1516 H   0  0  0  0  0  0  0  0  0  0  0  0
    2.2179    0.5577    1.0772 H   0  0  0  0  0  0  0  0  0  0  0  0
    1.0981    1.9333    1.0772 H   0  0  0  0  0  0  0  0  0  0  0  0
   -1.3265   -1.4418   -0.5811 C   0  0  0  0  0  0  0  0  0  0  0  0
   -1.5882   -0.5323    0.6051 C   0  0  0  0  0  0  0  0  0  0  0  0
   -0.5306   -0.5361    1.5440 O   0  0  0  0  0  0  0  0  0  0  0  0
   -1.1392   -2.4628   -0.2461 H   0  0  0  0  0  0  0  0  0  0  0  0
   -2.1835   -1.4486   -1.2577 H   0  0  0  0  0  0  0  0  0  0  0  0
   -0.4565   -1.1024   -1.1499 H   0  0  0  0  0  0  0  0  0  0  0  0
   -1.7959    0.4884    0.2594 H   0  0  0  0  0  0  0  0  0  0  0  0
   -2.4673   -0.8726    1.1542 H   0  0  0  0  0  0  0  0  0  0  0  0
  1  2  2  0
  1  5  1  0
  1  6  1  0
  2  3  2  0
  4  9  1  0
  7  8  1  0
  7 10  1  0
  7 11  1  0
  7 12  1  0
  8  9  1  0
  8 13  1  0
  8 14  1  0
M  RAD  1   3   2
M  END
>  <reaction>  (13) 
rmg_rxn_387

>  <mol_properties>  (13) 
{"0": {"label": "*3", "atom_type": "Cd"}, "1": {"label": "*4", "atom_type": "Cdd"}, "3": {"label": "*2", "atom_type": "H0"}, "7": {"label": "*0", "atom_type": "Cs"}, "8": {"label": "*1", "atom_type": "O2s"}}

>  <type>  (13) 
unop_9

>  <geom_source>  (13) 
Heuristics

$$$$

     RDKit          3D

 14 12  0  0  0  0  0  0  0  0999 V2000
    0.6055    1.2655    0.3952 C   0  0  0  0  0  0  0  0  0  0  0  0
    0.6055    1.2655   -1.0594 C   0  0  0  0  0  0  0  0  0  0  0  0
    0.6055    1.2655   -2.2059 N   0  0  0  0  0  2  0  0  0  0  0  0
   -0.3475    0.4896    0.8413 H   0  0  0  0  0  0  0  0  0  0  0  0
    1.5626    0.9010    0.7669 H   0  0  0  0  0  0  0  0  0  0  0  0
    0.4428    2.2765    0.7669 H   0  0  0  0  0  0  0  0  0  0  0  0
    0.5019   -1.7665    0.4306 C   0  0  0  0  0  0  0  0  0  0  0  0
   -0.9568   -1.5042    0.7563 C   0  0  0  0  0  0  0  0  0  0  0  0
   -1.1859   -0.1929    1.2337 O   0  0  0  0  0  0  0  0  0  0  0  0
    1.1281   -1.5813    1.3044 H   0  0  0  0  0  0  0  0  0  0  0  0
    0.6455   -2.8010    0.1118 H   0  0  0  0  0  0  0  0  0  0  0  0
    0.8444   -1.1180   -0.3803 H   0  0  0  0  0  0  0  0  0  0  0  0
   -1.5826   -1.7122   -0.1211 H   0  0  0  0  0  0  0  0  0  0  0  0
   -1.2898   -2.1681    1.5553 H   0  0  0  0  0  0  0  0  0  0  0  0
  1  2  2  0
  1  5  1  0
  1  6  1  0
  2  3  2  0
  4  9  1  0
  7  8  1  0
  7 10  1  0
  7 11  1  0
  7 12  1  0
  8  9  1  0
  8 13  1  0
  8 14  1  0
M  RAD  1   3   2
M  END
>  <reaction>  (14) 
rmg_rxn_387

>  <mol_properties>  (14) 
{"0": {"label": "*3", "atom_type": "Cd"}, "1": {"label": "*4", "atom_type": "Cdd"}, "3": {"label": "*2", "atom_type": "H0"}, "7": {"label": "*0", "atom_type": "Cs"}, "8": {"label": "*1", "atom_type": "O2s"}}

>  <type>  (14) 
unop_10

>  <geom_source>  (14) 
Heuristics

$$$$

     RDKit          3D

 14 12  0  0  0  0  0  0  0  0999 V2000
    1.2932    0.4187   -0.2347 C   0  0  0  0  0  0  0  0  0  0  0  0
    1.2932    0.4187   -1.6894 C   0  0  0  0  0  0  0  0  0  0  0  0
    1.2932    0.4187   -2.8358 N   0  0  0  0  0  2  0  0  0  0  0  0
    0.3402   -0.3571    0.2114 H   0  0  0  0  0  0  0  0  0  0  0  0
    2.2503    0.0542    0.1370 H   0  0  0  0  0  0  0  0  0  0  0  0
    1.1305    1.4298    0.1370 H   0  0  0  0  0  0  0  0  0  0  0  0
   -2.0886    0.4481    1.7117 C   0  0  0  0  0  0  0  0  0  0  0  0
   -0.9410   -0.5353    1.8487 C   0  0  0  0  0  0  0  0  0  0  0  0
   -0.4982   -1.0396    0.6038 O   0  0  0  0  0  0  0  0  0  0  0  0
   -2.9258   -0.0121    1.1853 H   0  0  0  0  0  0  0  0  0  0  0  0
   -2.4330    0.7775    2.6942 H   0  0  0  0  0  0  0  0  0  0  0  0
   -1.7786    1.3356    1.1533 H   0  0  0  0  0  0  0  0  0  0  0  0
   -0.1106   -0.0722    2.3969 H   0  0  0  0  0  0  0  0  0  0  0  0
   -1.2589   -1.4080    2.4208 H   0  0  0  0  0  0  0  0  0  0  0  0
  1  2  2  0
  1  5  1  0
  1  6  1  0
  2  3  2  0
  4  9  1  0
  7  8  1  0
  7 10  1  0
  7 11  1  0
  7 12  1  0
  8  9  1  0
  8 13  1  0
  8 14  1  0
M  RAD  1   3   2
M  END
>  <reaction>  (15) 
rmg_rxn_387

>  <mol_properties>  (15) 
{"0": {"label": "*3", "atom_type": "Cd"}, "1": {"label": "*4", "atom_type": "Cdd"}, "3": {"label": "*2", "atom_type": "H0"}, "7": {"label": "*0", "atom_type": "Cs"}, "8": {"label": "*1", "atom_type": "O2s"}}

>  <type>  (15) 
unop_11

>  <geom_source>  (15) 
Heuristics

$$$$

     RDKit          3D

 14 12  0  0  0  0  0  0  0  0999 V2000
    1.0176    1.0991    0.7151 C   0  0  0  0  0  0  0  0  0  0  0  0
    1.0176    1.0991   -0.7396 C   0  0  0  0  0  0  0  0  0  0  0  0
    1.0176    1.0991   -1.8860 N   0  0  0  0  0  2  0  0  0  0  0  0
    0.0646    0.3232    1.1612 H   0  0  0  0  0  0  0  0  0  0  0  0
    1.9746    0.7345    1.0868 H   0  0  0  0  0  0  0  0  0  0  0  0
    0.8548    2.1101    1.0868 H   0  0  0  0  0  0  0  0  0  0  0  0
   -0.5471   -1.7259   -0.4591 C   0  0  0  0  0  0  0  0  0  0  0  0
   -1.4555   -0.9143    0.4458 C   0  0  0  0  0  0  0  0  0  0  0  0
   -0.7738   -0.3593    1.5536 O   0  0  0  0  0  0  0  0  0  0  0  0
   -0.0577   -2.5213    0.1044 H   0  0  0  0  0  0  0  0  0  0  0  0
   -1.1176   -2.1762   -1.2740 H   0  0  0  0  0  0  0  0  0  0  0  0
    0.2268   -1.0947   -0.9043 H   0  0  0  0  0  0  0  0  0  0  0  0
   -1.9599   -0.1292   -0.1320 H   0  0  0  0  0  0  0  0  0  0  0  0
   -2.2319   -1.5522    0.8704 H   0  0  0  0  0  0  0  0  0  0  0  0
  1  2  2  0
  1  5  1  0
  1  6  1  0
  2  3  2  0
  4  9  1  0
  7  8  1  0
  7 10  1  0
  7 11  1  0
  7 12  1  0
  8  9  1  0
  8 13  1  0
  8 14  1  0
M  RAD  1   3   2
M  END
>  <reaction>  (16) 
rmg_rxn_387

>  <mol_properties>  (16) 
{"0": {"label": "*3", "atom_type": "Cd"}, "1": {"label": "*4", "atom_type": "Cdd"}, "3": {"label": "*2", "atom_type": "H0"}, "7": {"label": "*0", "atom_type": "Cs"}, "8": {"label": "*1", "atom_type": "O2s"}}

>  <type>  (16) 
unop_12

>  <geom_source>  (16) 
Heuristics

$$$$

     RDKit          3D

 14 12  0  0  0  0  0  0  0  0999 V2000
   -0.0851    0.3288    0.4091 O   0  0  0  0  0  0  0  0  0  0  0  0
    3.7095   -0.4432    0.7101 N   0  0  0  0  0  2  0  0  0  0  0  0
   -1.1192   -0.4396   -0.1334 C   0  0  0  0  0  0  0  0  0  0  0  0
   -2.3196   -0.4152    0.7998 C   0  0  0  0  0  0  0  0  0  0  0  0
    1.9512    0.7900   -0.7910 C   0  0  0  0  0  0  0  0  0  0  0  0
    2.9330    0.1014    0.0472 C   0  0  0  0  0  0  0  0  0  0  0  0
   -1.4124   -0.0258   -1.1225 H   0  0  0  0  0  0  0  0  0  0  0  0
   -0.7754   -1.4885   -0.2649 H   0  0  0  0  0  0  0  0  0  0  0  0
   -3.1413   -1.0256    0.3691 H   0  0  0  0  0  0  0  0  0  0  0  0
   -2.6771    0.6280    0.9324 H   0  0  0  0  0  0  0  0  0  0  0  0
   -2.0403   -0.8343    1.7898 H   0  0  0  0  0  0  0  0  0  0  0  0
    1.9049    1.8605   -0.5035 H   0  0  0  0  0  0  0  0  0  0  0  0
    2.2499    0.7057   -1.8562 H   0  0  0  0  0  0  0  0  0  0  0  0
    0.8220    0.2577   -0.3860 H   0  0  0  0  0  0  0  0  0  0  0  0
  1  3  1  0
  1 14  1  0
  2  6  2  0
  3  4  1  0
  3  7  1  0
  3  8  1  0
  4  9  1  0
  4 10  1  0
  4 11  1  0
  5  6  2  0
  5 12  1  0
  5 13  1  0
M  RAD  1   2   2
M  END
>  <reaction>  (17) 
rmg_rxn_387

>  <mol_properties>  (17) 
{"0": {"label": "*3", "atom_type": "Cd"}, "1": {"label": "*4", "atom_type": "Cdd"}, "3": {"label": "*2", "atom_type": "H0"}, "7": {"label": "*0", "atom_type": "Cs"}, "8": {"label": "*1", "atom_type": "O2s"}}

>  <type>  (17) 
unop_13

>  <geom_source>  (17) 
AutoTST

$$$$

     RDKit          3D

 14 12  0  0  0  0  0  0  0  0999 V2000
    0.7874    1.2149    0.6042 C   0  0  0  0  0  0  0  0  0  0  0  0
    0.7874    1.2149   -0.8504 C   0  0  0  0  0  0  0  0  0  0  0  0
    0.7874    1.2149   -1.9969 N   0  0  0  0  0  2  0  0  0  0  0  0
   -0.1656    0.4390    1.0503 H   0  0  0  0  0  0  0  0  0  0  0  0
    1.7444    0.8504    0.9759 H   0  0  0  0  0  0  0  0  0  0  0  0
    0.6246    2.2259    0.9759 H   0  0  0  0  0  0  0  0  0  0  0  0
    0.0764   -1.7981   -0.1019 C   0  0  0  0  0  0  0  0  0  0  0  0
   -1.2148   -1.2798    0.5039 C   0  0  0  0  0  0  0  0  0  0  0  0
   -1.0040   -0.2435    1.4427 O   0  0  0  0  0  0  0  0  0  0  0  0
    0.7530   -2.1456    0.6800 H   0  0  0  0  0  0  0  0  0  0  0  0
   -0.1235   -2.6272   -0.7838 H   0  0  0  0  0  0  0  0  0  0  0  0
    0.5837   -1.0143   -0.6710 H   0  0  0  0  0  0  0  0  0  0  0  0
   -1.8984   -0.9511   -0.2894 H   0  0  0  0  0  0  0  0  0  0  0  0
   -1.7183   -2.0753    1.0551 H   0  0  0  0  0  0  0  0  0  0  0  0
  1  2  2  0
  1  5  1  0
  1  6  1  0
  2  3  2  0
  4  9  1  0
  7  8  1  0
  7 10  1  0
  7 11  1  0
  7 12  1  0
  8  9  1  0
  8 13  1  0
  8 14  1  0
M  RAD  1   3   2
M  END
>  <reaction>  (18) 
rmg_rxn_387

>  <mol_properties>  (18) 
{"0": {"label": "*3", "atom_type": "Cd"}, "1": {"label": "*4", "atom_type": "Cdd"}, "3": {"label": "*2", "atom_type": "H0"}, "7": {"label": "*0", "atom_type": "Cs"}, "8": {"label": "*1", "atom_type": "O2s"}}

>  <type>  (18) 
unop_14

>  <geom_source>  (18) 
gaussian_log

$$$$
