
     RDKit          3D

  9  8  0  0  0  0  0  0  0  0999 V2000
   -1.0314    0.2323   -0.1227 C   0  0  0  0  0  0  0  0  0  0  0  0
    0.3094   -0.4511    0.0063 C   0  0  0  0  0  0  0  0  0  0  0  0
    0.3197   -1.7698    0.6841 N   0  0  0  0  0  0  0  0  0  0  0  0
   -0.7498   -2.1455    1.0557 O   0  0  0  0  0  0  0  0  0  0  0  0
   -1.4744    0.4198    0.8552 H   0  0  0  0  0  0  0  0  0  0  0  0
   -0.9073    1.1865   -0.6350 H   0  0  0  0  0  0  0  0  0  0  0  0
   -1.7319   -0.3778   -0.6927 H   0  0  0  0  0  0  0  0  0  0  0  0
    1.0375    0.1401    0.5713 H   0  0  0  0  0  0  0  0  0  0  0  0
    0.7826   -0.6494   -0.9609 H   0  0  0  0  0  0  0  0  0  0  0  0
  1  2  1  0
  1  5  1  0
  1  6  1  0
  1  7  1  0
  2  3  1  0
  2  8  1  0
  2  9  1  0
  3  4  2  0
M  END
>  <reaction>  (1) 
rmg_rxn_33

>  <mol_properties>  (1) 
{"1": {"label": "donator", "atom_type": "Cs"}, "7": {"label": "d_hydrogen", "atom_type": "H0"}}

>  <type>  (1) 
r1h

$$$$

     RDKit          3D

 13 12  0  0  0  0  0  0  0  0999 V2000
    2.0654   -0.2739   -0.0844 C   0  0  0  0  0  3  0  0  0  0  0  0
    0.6326   -0.4110   -0.4406 C   0  0  0  0  0  0  0  0  0  0  0  0
   -0.3055    0.4151    0.4359 C   0  0  0  0  0  0  0  0  0  0  0  0
   -1.7714    0.2357    0.0671 C   0  0  0  0  0  0  0  0  0  0  0  0
    2.3610    0.0676    0.8995 H   0  0  0  0  0  0  0  0  0  0  0  0
    2.8408   -0.6127   -0.7582 H   0  0  0  0  0  0  0  0  0  0  0  0
    0.3313   -1.4695   -0.3768 H   0  0  0  0  0  0  0  0  0  0  0  0
    0.4826   -0.1432   -1.4940 H   0  0  0  0  0  0  0  0  0  0  0  0
   -0.1518    0.1351    1.4826 H   0  0  0  0  0  0  0  0  0  0  0  0
   -0.0303    1.4705    0.3565 H   0  0  0  0  0  0  0  0  0  0  0  0
   -2.0768   -0.8084    0.1692 H   0  0  0  0  0  0  0  0  0  0  0  0
   -1.9546    0.5339   -0.9679 H   0  0  0  0  0  0  0  0  0  0  0  0
   -2.4194    0.8370    0.7066 H   0  0  0  0  0  0  0  0  0  0  0  0
  1  2  1  0
  1  5  1  0
  1  6  1  0
  2  3  1  0
  2  7  1  0
  2  8  1  0
  3  4  1  0
  3  9  1  0
  3 10  1  0
  4 11  1  0
  4 12  1  0
  4 13  1  0
M  RAD  1   1   2
M  END
>  <reaction>  (2) 
rmg_rxn_33

>  <mol_properties>  (2) 
{"0": {"label": "acceptor", "atom_type": "Cs"}}

>  <type>  (2) 
r2

$$$$

     RDKit          3D

 14 13  0  0  0  0  0  0  0  0999 V2000
    1.8106   -0.5953    0.5577 C   0  0  0  0  0  0  0  0  0  0  0  0
    0.5197    0.2064    0.6554 C   0  0  0  0  0  0  0  0  0  0  0  0
   -0.5206   -0.2080   -0.3788 C   0  0  0  0  0  0  0  0  0  0  0  0
   -1.8114    0.5937   -0.2812 C   0  0  0  0  0  0  0  0  0  0  0  0
    2.2725   -0.4752   -0.4251 H   0  0  0  0  0  0  0  0  0  0  0  0
    1.6214   -1.6612    0.7052 H   0  0  0  0  0  0  0  0  0  0  0  0
    2.5364   -0.2784    1.3084 H   0  0  0  0  0  0  0  0  0  0  0  0
    0.0930    0.0950    1.6574 H   0  0  0  0  0  0  0  0  0  0  0  0
    0.7393    1.2723    0.5354 H   0  0  0  0  0  0  0  0  0  0  0  0
   -0.7402   -1.2739   -0.2588 H   0  0  0  0  0  0  0  0  0  0  0  0
   -0.0938   -0.0965   -1.3808 H   0  0  0  0  0  0  0  0  0  0  0  0
   -1.6222    1.6596   -0.4287 H   0  0  0  0  0  0  0  0  0  0  0  0
   -2.2734    0.4736    0.7017 H   0  0  0  0  0  0  0  0  0  0  0  0
   -2.5373    0.2768   -1.0318 H   0  0  0  0  0  0  0  0  0  0  0  0
  1  2  1  0
  1  5  1  0
  1  6  1  0
  1  7  1  0
  2  3  1  0
  2  8  1  0
  2  9  1  0
  3  4  1  0
  3 10  1  0
  3 11  1  0
  4 12  1  0
  4 13  1  0
  4 14  1  0
M  END
>  <reaction>  (3) 
rmg_rxn_33

>  <mol_properties>  (3) 
{"0": {"label": "a_hydrogen", "atom_type": "H0"}, "1": {"label": "acceptor", "atom_type": "Cs"}}

>  <type>  (3) 
r2h

$$$$

     RDKit          3D

 22 20  0  0  0  0  0  0  0  0999 V2000
   -2.9112   -0.2226   -0.8146 C   0  0  0  0  0  0  0  0  0  0  0  0
   -1.6861    0.5627   -0.3767 C   0  0  0  0  0  0  0  0  0  0  0  0
   -1.1011    1.3528   -1.3932 N   0  0  0  0  0  0  0  0  0  0  0  0
   -0.7971    0.9759   -2.5096 O   0  0  0  0  0  0  0  0  0  0  0  0
   -2.6622   -0.8803   -1.6474 H   0  0  0  0  0  0  0  0  0  0  0  0
   -3.2603   -0.8341    0.0184 H   0  0  0  0  0  0  0  0  0  0  0  0
   -3.7199    0.4403   -1.1237 H   0  0  0  0  0  0  0  0  0  0  0  0
   -0.8758   -0.2297   -0.0376 H   0  0  0  0  0  0  0  0  0  0  0  0
   -1.8729    1.2061    0.4811 H   0  0  0  0  0  0  0  0  0  0  0  0
    0.2331   -1.4057    0.3326 C   0  0  0  0  0  3  0  0  0  0  0  0
    1.4865   -0.5945    0.2916 C   0  0  0  0  0  0  0  0  0  0  0  0
    2.7522   -1.4269    0.5398 C   0  0  0  0  0  0  0  0  0  0  0  0
    4.0198   -0.5840    0.4933 C   0  0  0  0  0  0  0  0  0  0  0  0
   -0.1261   -1.7437    1.3001 H   0  0  0  0  0  0  0  0  0  0  0  0
    0.0497   -2.0956   -0.4856 H   0  0  0  0  0  0  0  0  0  0  0  0
    1.4389    0.2025    1.0407 H   0  0  0  0  0  0  0  0  0  0  0  0
    1.5751   -0.1014   -0.6813 H   0  0  0  0  0  0  0  0  0  0  0  0
    2.6711   -1.9225    1.5115 H   0  0  0  0  0  0  0  0  0  0  0  0
    2.8082   -2.2222   -0.2088 H   0  0  0  0  0  0  0  0  0  0  0  0
    3.9965    0.2009    1.2527 H   0  0  0  0  0  0  0  0  0  0  0  0
    4.1321   -0.1003   -0.4795 H   0  0  0  0  0  0  0  0  0  0  0  0
    4.9078   -1.1932    0.6691 H   0  0  0  0  0  0  0  0  0  0  0  0
  1  2  1  0
  1  5  1  0
  1  6  1  0
  1  7  1  0
  2  3  1  0
  2  8  1  0
  2  9  1  0
  3  4  2  0
 10 11  1  0
 10 14  1  0
 10 15  1  0
 11 12  1  0
 11 16  1  0
 11 17  1  0
 12 13  1  0
 12 18  1  0
 12 19  1  0
 13 20  1  0
 13 21  1  0
 13 22  1  0
M  RAD  1  10   2
M  END
>  <reaction>  (4) 
rmg_rxn_33

>  <mol_properties>  (4) 
{"1": {"label": "*1", "atom_type": "Cs"}, "2": {"label": "*0", "atom_type": "N3d"}, "7": {"label": "*2", "atom_type": "H0"}, "9": {"label": "*3", "atom_type": "Cs"}, "10": {"label": "*4", "atom_type": "Cs"}}

>  <type>  (4) 
ts

$$$$

     RDKit          3D

 22 20  0  0  0  0  0  0  0  0999 V2000
   -1.5735   -0.1631   -2.6448 C   0  0  0  0  0  0  0  0  0  0  0  0
   -1.5735   -0.1631   -1.1343 C   0  0  0  0  0  0  0  0  0  0  0  0
   -1.5735    1.1628   -0.4707 N   0  0  0  0  0  0  0  0  0  0  0  0
   -1.5735    2.0924   -1.2184 O   0  0  0  0  0  1  0  0  0  0  0  0
   -0.6933    0.3442   -3.0393 H   0  0  0  0  0  0  0  0  0  0  0  0
   -1.5735   -1.1903   -3.0100 H   0  0  0  0  0  0  0  0  0  0  0  0
   -2.4536    0.3442   -3.0393 H   0  0  0  0  0  0  0  0  0  0  0  0
   -0.5280   -0.7719   -0.6217 H   0  0  0  0  0  0  0  0  0  0  0  0
   -2.4447   -0.6705   -0.7071 H   0  0  0  0  0  0  0  0  0  0  0  0
    0.5139   -1.3787   -0.1108 C   0  0  0  0  0  0  0  0  0  0  0  0
    1.3370   -0.4384    0.7592 C   0  0  0  0  0  0  0  0  0  0  0  0
    1.8611   -1.1030    2.0270 C   0  0  0  0  0  0  0  0  0  0  0  0
    2.6842   -0.1627    2.8971 C   0  0  0  0  0  0  0  0  0  0  0  0
   -0.3548   -1.7562    0.4339 H   0  0  0  0  0  0  0  0  0  0  0  0
    1.1068   -2.2411   -0.4246 H   0  0  0  0  0  0  0  0  0  0  0  0
    0.7318    0.4314    1.0346 H   0  0  0  0  0  0  0  0  0  0  0  0
    2.1826   -0.0500    0.1824 H   0  0  0  0  0  0  0  0  0  0  0  0
    1.0155   -1.4914    2.6038 H   0  0  0  0  0  0  0  0  0  0  0  0
    2.4663   -1.9727    1.7516 H   0  0  0  0  0  0  0  0  0  0  0  0
    2.0913    0.6997    3.2108 H   0  0  0  0  0  0  0  0  0  0  0  0
    3.5529    0.2148    2.3523 H   0  0  0  0  0  0  0  0  0  0  0  0
    3.0463   -0.6635    3.7964 H   0  0  0  0  0  0  0  0  0  0  0  0
  1  2  1  0
  1  5  1  0
  1  6  1  0
  1  7  1  0
  2  3  2  3
  2  9  1  0
  3  4  1  0
  8 10  1  0
 10 11  1  0
 10 14  1  0
 10 15  1  0
 11 12  1  0
 11 16  1  0
 11 17  1  0
 12 13  1  0
 12 18  1  0
 12 19  1  0
 13 20  1  0
 13 21  1  0
 13 22  1  0
M  RAD  1   4   2
M  END
>  <reaction>  (5) 
rmg_rxn_33

>  <mol_properties>  (5) 
{"1": {"label": "*1", "atom_type": "Cs"}, "2": {"label": "*0", "atom_type": "N3d"}, "7": {"label": "*2", "atom_type": "H0"}, "9": {"label": "*3", "atom_type": "Cs"}, "10": {"label": "*4", "atom_type": "Cs"}}

>  <type>  (5) 
unop_1

>  <geom_source>  (5) 
Heuristics

$$$$

     RDKit          3D

 22 20  0  0  0  0  0  0  0  0999 V2000
   -1.9716    0.1552   -1.6125 C   0  0  0  0  0  0  0  0  0  0  0  0
   -1.9716    0.1552   -0.1020 C   0  0  0  0  0  0  0  0  0  0  0  0
   -1.9716    1.4811    0.5615 N   0  0  0  0  0  0  0  0  0  0  0  0
   -1.9716    2.4107   -0.1862 O   0  0  0  0  0  1  0  0  0  0  0  0
   -1.0914    0.6625   -2.0070 H   0  0  0  0  0  0  0  0  0  0  0  0
   -1.9716   -0.8720   -1.9778 H   0  0  0  0  0  0  0  0  0  0  0  0
   -2.8517    0.6625   -2.0070 H   0  0  0  0  0  0  0  0  0  0  0  0
   -0.9261   -0.4536    0.4105 H   0  0  0  0  0  0  0  0  0  0  0  0
   -2.8428   -0.3522    0.3251 H   0  0  0  0  0  0  0  0  0  0  0  0
    0.1158   -1.0603    0.9214 C   0  0  0  0  0  0  0  0  0  0  0  0
    1.3303   -0.9480    0.0098 C   0  0  0  0  0  0  0  0  0  0  0  0
    2.6438   -1.2394    0.7262 C   0  0  0  0  0  0  0  0  0  0  0  0
    3.8584   -1.1271   -0.1854 C   0  0  0  0  0  0  0  0  0  0  0  0
    0.1865   -0.3586    1.7559 H   0  0  0  0  0  0  0  0  0  0  0  0
    0.0336   -2.0655    1.3418 H   0  0  0  0  0  0  0  0  0  0  0  0
    1.3733    0.0569   -0.4226 H   0  0  0  0  0  0  0  0  0  0  0  0
    1.2215   -1.6375   -0.8336 H   0  0  0  0  0  0  0  0  0  0  0  0
    2.7526   -0.5500    1.5696 H   0  0  0  0  0  0  0  0  0  0  0  0
    2.6008   -2.2443    1.1586 H   0  0  0  0  0  0  0  0  0  0  0  0
    3.9405   -0.1219   -0.6058 H   0  0  0  0  0  0  0  0  0  0  0  0
    3.7876   -1.8289   -1.0198 H   0  0  0  0  0  0  0  0  0  0  0  0
    4.7836   -1.3404    0.3523 H   0  0  0  0  0  0  0  0  0  0  0  0
  1  2  1  0
  1  5  1  0
  1  6  1  0
  1  7  1  0
  2  3  2  3
  2  9  1  0
  3  4  1  0
  8 10  1  0
 10 11  1  0
 10 14  1  0
 10 15  1  0
 11 12  1  0
 11 16  1  0
 11 17  1  0
 12 13  1  0
 12 18  1  0
 12 19  1  0
 13 20  1  0
 13 21  1  0
 13 22  1  0
M  RAD  1   4   2
M  END
>  <reaction>  (6) 
rmg_rxn_33

>  <mol_properties>  (6) 
{"1": {"label": "*1", "atom_type": "Cs"}, "2": {"label": "*0", "atom_type": "N3d"}, "7": {"label": "*2", "atom_type": "H0"}, "9": {"label": "*3", "atom_type": "Cs"}, "10": {"label": "*4", "atom_type": "Cs"}}

>  <type>  (6) 
unop_2

>  <geom_source>  (6) 
Heuristics

$$$$

     RDKit          3D

 22 20  0  0  0  0  0  0  0  0999 V2000
   -1.3920    0.0983   -2.7965 C   0  0  0  0  0  0  0  0  0  0  0  0
   -1.3920    0.0983   -1.2860 C   0  0  0  0  0  0  0  0  0  0  0  0
   -1.3920    1.4242   -0.6224 N   0  0  0  0  0  0  0  0  0  0  0  0
   -1.3920    2.3538   -1.3701 O   0  0  0  0  0  1  0  0  0  0  0  0
   -0.5119    0.6057   -3.1909 H   0  0  0  0  0  0  0  0  0  0  0  0
   -1.3920   -0.9289   -3.1617 H   0  0  0  0  0  0  0  0  0  0  0  0
   -2.2721    0.6057   -3.1909 H   0  0  0  0  0  0  0  0  0  0  0  0
   -0.3466   -0.5105   -0.7734 H   0  0  0  0  0  0  0  0  0  0  0  0
   -2.2632   -0.4090   -0.8588 H   0  0  0  0  0  0  0  0  0  0  0  0
    0.6954   -1.1172   -0.2625 C   0  0  0  0  0  0  0  0  0  0  0  0
    1.0827   -0.5232    1.0849 C   0  0  0  0  0  0  0  0  0  0  0  0
    1.7489   -1.5322    2.0133 C   0  0  0  0  0  0  0  0  0  0  0  0
    2.1362   -0.9382    3.3608 C   0  0  0  0  0  0  0  0  0  0  0  0
   -0.0049   -1.9466   -0.1379 H   0  0  0  0  0  0  0  0  0  0  0  0
    1.5729   -1.5025   -0.7872 H   0  0  0  0  0  0  0  0  0  0  0  0
    0.1929   -0.1169    1.5767 H   0  0  0  0  0  0  0  0  0  0  0  0
    1.7591    0.3240    0.9321 H   0  0  0  0  0  0  0  0  0  0  0  0
    1.0725   -2.3794    2.1661 H   0  0  0  0  0  0  0  0  0  0  0  0
    2.6386   -1.9385    1.5215 H   0  0  0  0  0  0  0  0  0  0  0  0
    1.2587   -0.5529    3.8855 H   0  0  0  0  0  0  0  0  0  0  0  0
    2.8365   -0.1088    3.2361 H   0  0  0  0  0  0  0  0  0  0  0  0
    2.6103   -1.6810    4.0044 H   0  0  0  0  0  0  0  0  0  0  0  0
  1  2  1  0
  1  5  1  0
  1  6  1  0
  1  7  1  0
  2  3  2  3
  2  9  1  0
  3  4  1  0
  8 10  1  0
 10 11  1  0
 10 14  1  0
 10 15  1  0
 11 12  1  0
 11 16  1  0
 11 17  1  0
 12 13  1  0
 12 18  1  0
 12 19  1  0
 13 20  1  0
 13 21  1  0
 13 22  1  0
M  RAD  1   4   2
M  END
>  <reaction>  (7) 
rmg_rxn_33

>  <mol_properties>  (7) 
{"1": {"label": "*1", "atom_type": "Cs"}, "2": {"label": "*0", "atom_type": "N3d"}, "7": {"label": "*2", "atom_type": "H0"}, "9": {"label": "*3", "atom_type": "Cs"}, "10": {"label": "*4", "atom_type": "Cs"}}

>  <type>  (7) 
unop_3

>  <geom_source>  (7) 
Heuristics

$$$$

     RDKit          3D

 22 20  0  0  0  0  0  0  0  0999 V2000
   -1.2208    1.0987   -1.9373 C   0  0  0  0  0  0  0  0  0  0  0  0
   -1.2208    1.0987   -0.4268 C   0  0  0  0  0  0  0  0  0  0  0  0
   -1.2208    2.4246    0.2368 N   0  0  0  0  0  0  0  0  0  0  0  0
   -1.2208    3.3542   -0.5109 O   0  0  0  0  0  1  0  0  0  0  0  0
   -0.3407    1.6061   -2.3318 H   0  0  0  0  0  0  0  0  0  0  0  0
   -1.2208    0.0715   -2.3026 H   0  0  0  0  0  0  0  0  0  0  0  0
   -2.1009    1.6060   -2.3318 H   0  0  0  0  0  0  0  0  0  0  0  0
   -0.1754    0.4899    0.0858 H   0  0  0  0  0  0  0  0  0  0  0  0
   -2.0920    0.5914    0.0004 H   0  0  0  0  0  0  0  0  0  0  0  0
    0.8665   -0.1168    0.5966 C   0  0  0  0  0  0  0  0  0  0  0  0
    0.9325   -1.5748    0.1625 C   0  0  0  0  0  0  0  0  0  0  0  0
    1.5577   -2.4837    1.2144 C   0  0  0  0  0  0  0  0  0  0  0  0
    1.6237   -3.9417    0.7803 C   0  0  0  0  0  0  0  0  0  0  0  0
    1.8650    0.2753    0.8041 H   0  0  0  0  0  0  0  0  0  0  0  0
    0.2729   -0.0061    1.5072 H   0  0  0  0  0  0  0  0  0  0  0  0
    1.5054   -1.6557   -0.7670 H   0  0  0  0  0  0  0  0  0  0  0  0
   -0.0750   -1.9351   -0.0691 H   0  0  0  0  0  0  0  0  0  0  0  0
    2.5653   -2.1234    1.4460 H   0  0  0  0  0  0  0  0  0  0  0  0
    0.9849   -2.4028    2.1439 H   0  0  0  0  0  0  0  0  0  0  0  0
    2.2174   -4.0524   -0.1303 H   0  0  0  0  0  0  0  0  0  0  0  0
    0.6253   -4.3338    0.5728 H   0  0  0  0  0  0  0  0  0  0  0  0
    2.0749   -4.5688    1.5509 H   0  0  0  0  0  0  0  0  0  0  0  0
  1  2  1  0
  1  5  1  0
  1  6  1  0
  1  7  1  0
  2  3  2  3
  2  9  1  0
  3  4  1  0
  8 10  1  0
 10 11  1  0
 10 14  1  0
 10 15  1  0
 11 12  1  0
 11 16  1  0
 11 17  1  0
 12 13  1  0
 12 18  1  0
 12 19  1  0
 13 20  1  0
 13 21  1  0
 13 22  1  0
M  RAD  1   4   2
M  END
>  <reaction>  (8) 
rmg_rxn_33

>  <mol_properties>  (8) 
{"1": {"label": "*1", "atom_type": "Cs"}, "2": {"label": "*0", "atom_type": "N3d"}, "7": {"label": "*2", "atom_type": "H0"}, "9": {"label": "*3", "atom_type": "Cs"}, "10": {"label": "*4", "atom_type": "Cs"}}

>  <type>  (8) 
unop_4

>  <geom_source>  (8) 
Heuristics

$$$$

     RDKit          3D

 22 20  0  0  0  0  0  0  0  0999 V2000
   -1.3183    0.3060   -2.8080 C   0  0  0  0  0  0  0  0  0  0  0  0
   -1.3183    0.3060   -1.2975 C   0  0  0  0  0  0  0  0  0  0  0  0
   -1.3183    1.6319   -0.6339 N   0  0  0  0  0  0  0  0  0  0  0  0
   -1.3183    2.5615   -1.3816 O   0  0  0  0  0  1  0  0  0  0  0  0
   -0.4382    0.8133   -3.2024 H   0  0  0  0  0  0  0  0  0  0  0  0
   -1.3183   -0.7212   -3.1732 H   0  0  0  0  0  0  0  0  0  0  0  0
   -2.1984    0.8133   -3.2024 H   0  0  0  0  0  0  0  0  0  0  0  0
   -0.2728   -0.3028   -0.7849 H   0  0  0  0  0  0  0  0  0  0  0  0
   -2.1895   -0.2014   -0.8703 H   0  0  0  0  0  0  0  0  0  0  0  0
    0.7691   -0.9096   -0.2740 C   0  0  0  0  0  0  0  0  0  0  0  0
    0.7360   -0.8903    1.2482 C   0  0  0  0  0  0  0  0  0  0  0  0
    1.9346   -1.5883    1.8806 C   0  0  0  0  0  0  0  0  0  0  0  0
    1.9016   -1.5690    3.4028 C   0  0  0  0  0  0  0  0  0  0  0  0
    0.7774   -1.9345   -0.6524 H   0  0  0  0  0  0  0  0  0  0  0  0
    1.6646   -0.4110   -0.6524 H   0  0  0  0  0  0  0  0  0  0  0  0
   -0.1838   -1.3673    1.6017 H   0  0  0  0  0  0  0  0  0  0  0  0
    0.6968    0.1451    1.6017 H   0  0  0  0  0  0  0  0  0  0  0  0
    1.9738   -2.6237    1.5271 H   0  0  0  0  0  0  0  0  0  0  0  0
    2.8545   -1.1114    1.5271 H   0  0  0  0  0  0  0  0  0  0  0  0
    1.0060   -2.0676    3.7811 H   0  0  0  0  0  0  0  0  0  0  0  0
    1.8932   -0.5441    3.7811 H   0  0  0  0  0  0  0  0  0  0  0  0
    2.7698   -2.0747    3.8285 H   0  0  0  0  0  0  0  0  0  0  0  0
  1  2  1  0
  1  5  1  0
  1  6  1  0
  1  7  1  0
  2  3  2  3
  2  9  1  0
  3  4  1  0
  8 10  1  0
 10 11  1  0
 10 14  1  0
 10 15  1  0
 11 12  1  0
 11 16  1  0
 11 17  1  0
 12 13  1  0
 12 18  1  0
 12 19  1  0
 13 20  1  0
 13 21  1  0
 13 22  1  0
M  RAD  1   4   2
M  END
>  <reaction>  (9) 
rmg_rxn_33

>  <mol_properties>  (9) 
{"1": {"label": "*1", "atom_type": "Cs"}, "2": {"label": "*0", "atom_type": "N3d"}, "7": {"label": "*2", "atom_type": "H0"}, "9": {"label": "*3", "atom_type": "Cs"}, "10": {"label": "*4", "atom_type": "Cs"}}

>  <type>  (9) 
unop_5

>  <geom_source>  (9) 
Heuristics

$$$$

     RDKit          3D

 22 20  0  0  0  0  0  0  0  0999 V2000
   -1.0465    1.0142   -2.3265 C   0  0  0  0  0  0  0  0  0  0  0  0
   -1.0465    1.0142   -0.8160 C   0  0  0  0  0  0  0  0  0  0  0  0
   -1.0465    2.3401   -0.1524 N   0  0  0  0  0  0  0  0  0  0  0  0
   -1.0465    3.2697   -0.9001 O   0  0  0  0  0  1  0  0  0  0  0  0
   -0.1663    1.5216   -2.7210 H   0  0  0  0  0  0  0  0  0  0  0  0
   -1.0465   -0.0130   -2.6918 H   0  0  0  0  0  0  0  0  0  0  0  0
   -1.9266    1.5216   -2.7210 H   0  0  0  0  0  0  0  0  0  0  0  0
   -0.0010    0.4054   -0.3034 H   0  0  0  0  0  0  0  0  0  0  0  0
   -1.9177    0.5069   -0.3889 H   0  0  0  0  0  0  0  0  0  0  0  0
    1.0409   -0.2013    0.2074 C   0  0  0  0  0  0  0  0  0  0  0  0
    0.7726   -1.6843    0.4254 C   0  0  0  0  0  0  0  0  0  0  0  0
    1.3698   -2.2149    1.7236 C   0  0  0  0  0  0  0  0  0  0  0  0
    1.1015   -3.6978    1.9415 C   0  0  0  0  0  0  0  0  0  0  0  0
    2.1140    0.0010    0.1710 H   0  0  0  0  0  0  0  0  0  0  0  0
    0.6200    0.3961    1.0197 H   0  0  0  0  0  0  0  0  0  0  0  0
    1.1759   -2.2580   -0.4153 H   0  0  0  0  0  0  0  0  0  0  0  0
   -0.3071   -1.8659    0.4271 H   0  0  0  0  0  0  0  0  0  0  0  0
    2.4494   -2.0333    1.7218 H   0  0  0  0  0  0  0  0  0  0  0  0
    0.9664   -1.6412    2.5643 H   0  0  0  0  0  0  0  0  0  0  0  0
    1.5224   -4.2952    1.1293 H   0  0  0  0  0  0  0  0  0  0  0  0
    0.0284   -3.9002    1.9780 H   0  0  0  0  0  0  0  0  0  0  0  0
    1.5394   -4.0507    2.8767 H   0  0  0  0  0  0  0  0  0  0  0  0
  1  2  1  0
  1  5  1  0
  1  6  1  0
  1  7  1  0
  2  3  2  3
  2  9  1  0
  3  4  1  0
  8 10  1  0
 10 11  1  0
 10 14  1  0
 10 15  1  0
 11 12  1  0
 11 16  1  0
 11 17  1  0
 12 13  1  0
 12 18  1  0
 12 19  1  0
 13 20  1  0
 13 21  1  0
 13 22  1  0
M  RAD  1   4   2
M  END
>  <reaction>  (10) 
rmg_rxn_33

>  <mol_properties>  (10) 
{"1": {"label": "*1", "atom_type": "Cs"}, "2": {"label": "*0", "atom_type": "N3d"}, "7": {"label": "*2", "atom_type": "H0"}, "9": {"label": "*3", "atom_type": "Cs"}, "10": {"label": "*4", "atom_type": "Cs"}}

>  <type>  (10) 
unop_6

>  <geom_source>  (10) 
Heuristics

$$$$

     RDKit          3D

 22 20  0  0  0  0  0  0  0  0999 V2000
   -1.0362    0.7594   -2.6448 C   0  0  0  0  0  0  0  0  0  0  0  0
   -1.0362    0.7594   -1.1343 C   0  0  0  0  0  0  0  0  0  0  0  0
   -1.0362    2.0854   -0.4707 N   0  0  0  0  0  0  0  0  0  0  0  0
   -1.0362    3.0149   -1.2184 O   0  0  0  0  0  1  0  0  0  0  0  0
   -0.1561    1.2668   -3.0393 H   0  0  0  0  0  0  0  0  0  0  0  0
   -1.0362   -0.2677   -3.0100 H   0  0  0  0  0  0  0  0  0  0  0  0
   -1.9164    1.2668   -3.0393 H   0  0  0  0  0  0  0  0  0  0  0  0
    0.0092    0.1506   -0.6217 H   0  0  0  0  0  0  0  0  0  0  0  0
   -1.9074    0.2521   -0.7071 H   0  0  0  0  0  0  0  0  0  0  0  0
    1.0511   -0.4561   -0.1108 C   0  0  0  0  0  0  0  0  0  0  0  0
    0.6396   -1.6360    0.7592 C   0  0  0  0  0  0  0  0  0  0  0  0
    1.4762   -1.7639    2.0270 C   0  0  0  0  0  0  0  0  0  0  0  0
    1.0647   -2.9438    2.8971 C   0  0  0  0  0  0  0  0  0  0  0  0
    2.0938   -0.5461   -0.4246 H   0  0  0  0  0  0  0  0  0  0  0  0
    0.9507    0.4857    0.4339 H   0  0  0  0  0  0  0  0  0  0  0  0
    0.7191   -2.5631    0.1824 H   0  0  0  0  0  0  0  0  0  0  0  0
   -0.4156   -1.5389    1.0346 H   0  0  0  0  0  0  0  0  0  0  0  0
    2.5314   -1.8610    1.7516 H   0  0  0  0  0  0  0  0  0  0  0  0
    1.3967   -0.8368    2.6038 H   0  0  0  0  0  0  0  0  0  0  0  0
    1.1651   -3.8856    2.3523 H   0  0  0  0  0  0  0  0  0  0  0  0
    0.0220   -2.8538    3.2108 H   0  0  0  0  0  0  0  0  0  0  0  0
    1.6790   -3.0116    3.7964 H   0  0  0  0  0  0  0  0  0  0  0  0
  1  2  1  0
  1  5  1  0
  1  6  1  0
  1  7  1  0
  2  3  2  3
  2  9  1  0
  3  4  1  0
  8 10  1  0
 10 11  1  0
 10 14  1  0
 10 15  1  0
 11 12  1  0
 11 16  1  0
 11 17  1  0
 12 13  1  0
 12 18  1  0
 12 19  1  0
 13 20  1  0
 13 21  1  0
 13 22  1  0
M  RAD  1   4   2
M  END
>  <reaction>  (11) 
rmg_rxn_33

>  <mol_properties>  (11) 
{"1": {"label": "*1", "atom_type": "Cs"}, "2": {"label": "*0", "atom_type": "N3d"}, "7": {"label": "*2", "atom_type": "H0"}, "9": {"label": "*3", "atom_type": "Cs"}, "10": {"label": "*4", "atom_type": "Cs"}}

>  <type>  (11) 
unop_7

>  <geom_source>  (11) 
Heuristics

$$$$

     RDKit          3D

 22 20  0  0  0  0  0  0  0  0999 V2000
   -1.8001   -0.2800   -2.3265 C   0  0  0  0  0  0  0  0  0  0  0  0
   -1.8001   -0.2800   -0.8160 C   0  0  0  0  0  0  0  0  0  0  0  0
   -1.8001    1.0460   -0.1524 N   0  0  0  0  0  0  0  0  0  0  0  0
   -1.8001    1.9755   -0.9001 O   0  0  0  0  0  1  0  0  0  0  0  0
   -0.9200    0.2274   -2.7210 H   0  0  0  0  0  0  0  0  0  0  0  0
   -1.8001   -1.3071   -2.6918 H   0  0  0  0  0  0  0  0  0  0  0  0
   -2.6802    0.2274   -2.7210 H   0  0  0  0  0  0  0  0  0  0  0  0
   -0.7547   -0.8888   -0.3034 H   0  0  0  0  0  0  0  0  0  0  0  0
   -2.6713   -0.7873   -0.3889 H   0  0  0  0  0  0  0  0  0  0  0  0
    0.2872   -1.4955    0.2074 C   0  0  0  0  0  0  0  0  0  0  0  0
    1.4446   -0.5303    0.4254 C   0  0  0  0  0  0  0  0  0  0  0  0
    2.2008   -0.7878    1.7236 C   0  0  0  0  0  0  0  0  0  0  0  0
    3.3582    0.1774    1.9415 C   0  0  0  0  0  0  0  0  0  0  0  0
   -0.4401   -1.4243    1.0197 H   0  0  0  0  0  0  0  0  0  0  0  0
    0.6408   -2.5287    0.1710 H   0  0  0  0  0  0  0  0  0  0  0  0
    1.0697    0.4983    0.4271 H   0  0  0  0  0  0  0  0  0  0  0  0
    2.1426   -0.5980   -0.4153 H   0  0  0  0  0  0  0  0  0  0  0  0
    1.5028   -0.7201    2.5643 H   0  0  0  0  0  0  0  0  0  0  0  0
    2.5757   -1.8164    1.7218 H   0  0  0  0  0  0  0  0  0  0  0  0
    3.0046    1.2106    1.9780 H   0  0  0  0  0  0  0  0  0  0  0  0
    4.0855    0.1062    1.1293 H   0  0  0  0  0  0  0  0  0  0  0  0
    3.8812   -0.0293    2.8767 H   0  0  0  0  0  0  0  0  0  0  0  0
  1  2  1  0
  1  5  1  0
  1  6  1  0
  1  7  1  0
  2  3  2  3
  2  9  1  0
  3  4  1  0
  8 10  1  0
 10 11  1  0
 10 14  1  0
 10 15  1  0
 11 12  1  0
 11 16  1  0
 11 17  1  0
 12 13  1  0
 12 18  1  0
 12 19  1  0
 13 20  1  0
 13 21  1  0
 13 22  1  0
M  RAD  1   4   2
M  END
>  <reaction>  (12) 
rmg_rxn_33

>  <mol_properties>  (12) 
{"1": {"label": "*1", "atom_type": "Cs"}, "2": {"label": "*0", "atom_type": "N3d"}, "7": {"label": "*2", "atom_type": "H0"}, "9": {"label": "*3", "atom_type": "Cs"}, "10": {"label": "*4", "atom_type": "Cs"}}

>  <type>  (12) 
unop_8

>  <geom_source>  (12) 
Heuristics

$$$$

     RDKit          3D

 22 20  0  0  0  0  0  0  0  0999 V2000
   -1.5096    0.9486   -1.6125 C   0  0  0  0  0  0  0  0  0  0  0  0
   -1.5096    0.9486   -0.1020 C   0  0  0  0  0  0  0  0  0  0  0  0
   -1.5096    2.2745    0.5615 N   0  0  0  0  0  0  0  0  0  0  0  0
   -1.5096    3.2041   -0.1862 O   0  0  0  0  0  1  0  0  0  0  0  0
   -0.6294    1.4559   -2.0070 H   0  0  0  0  0  0  0  0  0  0  0  0
   -1.5096   -0.0786   -1.9778 H   0  0  0  0  0  0  0  0  0  0  0  0
   -2.3897    1.4559   -2.0070 H   0  0  0  0  0  0  0  0  0  0  0  0
   -0.4641    0.3398    0.4105 H   0  0  0  0  0  0  0  0  0  0  0  0
   -2.3808    0.4412    0.3251 H   0  0  0  0  0  0  0  0  0  0  0  0
    0.5778   -0.2670    0.9214 C   0  0  0  0  0  0  0  0  0  0  0  0
    1.0795   -1.3787    0.0098 C   0  0  0  0  0  0  0  0  0  0  0  0
    1.9812   -2.3773    0.7262 C   0  0  0  0  0  0  0  0  0  0  0  0
    2.4829   -3.4890   -0.1854 C   0  0  0  0  0  0  0  0  0  0  0  0
    1.4114    0.3006    1.3418 H   0  0  0  0  0  0  0  0  0  0  0  0
    0.0023   -0.6748    1.7559 H   0  0  0  0  0  0  0  0  0  0  0  0
    1.6255   -0.9438   -0.8336 H   0  0  0  0  0  0  0  0  0  0  0  0
    0.2267   -1.9120   -0.4226 H   0  0  0  0  0  0  0  0  0  0  0  0
    2.8340   -1.8440    1.1586 H   0  0  0  0  0  0  0  0  0  0  0  0
    1.4352   -2.8122    1.5696 H   0  0  0  0  0  0  0  0  0  0  0  0
    3.0584   -3.0812   -1.0198 H   0  0  0  0  0  0  0  0  0  0  0  0
    1.6493   -4.0566   -0.6058 H   0  0  0  0  0  0  0  0  0  0  0  0
    3.1251   -4.1885    0.3523 H   0  0  0  0  0  0  0  0  0  0  0  0
  1  2  1  0
  1  5  1  0
  1  6  1  0
  1  7  1  0
  2  3  2  3
  2  9  1  0
  3  4  1  0
  8 10  1  0
 10 11  1  0
 10 14  1  0
 10 15  1  0
 11 12  1  0
 11 16  1  0
 11 17  1  0
 12 13  1  0
 12 18  1  0
 12 19  1  0
 13 20  1  0
 13 21  1  0
 13 22  1  0
M  RAD  1   4   2
M  END
>  <reaction>  (13) 
rmg_rxn_33

>  <mol_properties>  (13) 
{"1": {"label": "*1", "atom_type": "Cs"}, "2": {"label": "*0", "atom_type": "N3d"}, "7": {"label": "*2", "atom_type": "H0"}, "9": {"label": "*3", "atom_type": "Cs"}, "10": {"label": "*4", "atom_type": "Cs"}}

>  <type>  (13) 
unop_9

>  <geom_source>  (13) 
Heuristics

$$$$

     RDKit          3D

 22 20  0  0  0  0  0  0  0  0999 V2000
   -1.9596   -0.1701   -1.9373 C   0  0  0  0  0  0  0  0  0  0  0  0
   -1.9596   -0.1701   -0.4268 C   0  0  0  0  0  0  0  0  0  0  0  0
   -1.9596    1.1559    0.2368 N   0  0  0  0  0  0  0  0  0  0  0  0
   -1.9596    2.0854   -0.5109 O   0  0  0  0  0  1  0  0  0  0  0  0
   -1.0795    0.3373   -2.3318 H   0  0  0  0  0  0  0  0  0  0  0  0
   -1.9596   -1.1972   -2.3026 H   0  0  0  0  0  0  0  0  0  0  0  0
   -2.8398    0.3373   -2.3318 H   0  0  0  0  0  0  0  0  0  0  0  0
   -0.9142   -0.7789    0.0858 H   0  0  0  0  0  0  0  0  0  0  0  0
   -2.8308   -0.6774    0.0004 H   0  0  0  0  0  0  0  0  0  0  0  0
    0.1277   -1.3856    0.5966 C   0  0  0  0  0  0  0  0  0  0  0  0
    1.4283   -0.7234    0.1625 C   0  0  0  0  0  0  0  0  0  0  0  0
    2.5273   -0.8186    1.2144 C   0  0  0  0  0  0  0  0  0  0  0  0
    3.8280   -0.1565    0.7803 C   0  0  0  0  0  0  0  0  0  0  0  0
   -0.2616   -0.9239    1.5072 H   0  0  0  0  0  0  0  0  0  0  0  0
    0.2794   -2.4475    0.8041 H   0  0  0  0  0  0  0  0  0  0  0  0
    1.2444    0.3307   -0.0691 H   0  0  0  0  0  0  0  0  0  0  0  0
    1.7814   -1.1817   -0.7670 H   0  0  0  0  0  0  0  0  0  0  0  0
    2.1743   -0.3604    2.1439 H   0  0  0  0  0  0  0  0  0  0  0  0
    2.7113   -1.8727    1.4460 H   0  0  0  0  0  0  0  0  0  0  0  0
    3.6763    0.9055    0.5728 H   0  0  0  0  0  0  0  0  0  0  0  0
    4.2172   -0.6181   -0.1303 H   0  0  0  0  0  0  0  0  0  0  0  0
    4.5961   -0.2393    1.5509 H   0  0  0  0  0  0  0  0  0  0  0  0
  1  2  1  0
  1  5  1  0
  1  6  1  0
  1  7  1  0
  2  3  2  3
  2  9  1  0
  3  4  1  0
  8 10  1  0
 10 11  1  0
 10 14  1  0
 10 15  1  0
 11 12  1  0
 11 16  1  0
 11 17  1  0
 12 13  1  0
 12 18  1  0
 12 19  1  0
 13 20  1  0
 13 21  1  0
 13 22  1  0
M  RAD  1   4   2
M  END
>  <reaction>  (14) 
rmg_rxn_33

>  <mol_properties>  (14) 
{"1": {"label": "*1", "atom_type": "Cs"}, "2": {"label": "*0", "atom_type": "N3d"}, "7": {"label": "*2", "atom_type": "H0"}, "9": {"label": "*3", "atom_type": "Cs"}, "10": {"label": "*4", "atom_type": "Cs"}}

>  <type>  (14) 
unop_10

>  <geom_source>  (14) 
Heuristics

$$$$

     RDKit          3D

 22 20  0  0  0  0  0  0  0  0999 V2000
   -1.1740    0.4725   -2.7965 C   0  0  0  0  0  0  0  0  0  0  0  0
   -1.1740    0.4725   -1.2860 C   0  0  0  0  0  0  0  0  0  0  0  0
   -1.1740    1.7985   -0.6224 N   0  0  0  0  0  0  0  0  0  0  0  0
   -1.1740    2.7281   -1.3701 O   0  0  0  0  0  1  0  0  0  0  0  0
   -0.2939    0.9799   -3.1909 H   0  0  0  0  0  0  0  0  0  0  0  0
   -1.1740   -0.5546   -3.1617 H   0  0  0  0  0  0  0  0  0  0  0  0
   -2.0542    0.9799   -3.1909 H   0  0  0  0  0  0  0  0  0  0  0  0
   -0.1286   -0.1362   -0.7734 H   0  0  0  0  0  0  0  0  0  0  0  0
   -2.0452   -0.0348   -0.8588 H   0  0  0  0  0  0  0  0  0  0  0  0
    0.9133   -0.7430   -0.2625 C   0  0  0  0  0  0  0  0  0  0  0  0
    0.5878   -1.3730    1.0849 C   0  0  0  0  0  0  0  0  0  0  0  0
    1.7941   -1.4544    2.0133 C   0  0  0  0  0  0  0  0  0  0  0  0
    1.4687   -2.0845    3.3608 C   0  0  0  0  0  0  0  0  0  0  0  0
    1.6814   -1.3161   -0.7872 H   0  0  0  0  0  0  0  0  0  0  0  0
    1.2891    0.2754   -0.1379 H   0  0  0  0  0  0  0  0  0  0  0  0
    0.1848   -2.3794    0.9321 H   0  0  0  0  0  0  0  0  0  0  0  0
   -0.2046   -0.7997    1.5767 H   0  0  0  0  0  0  0  0  0  0  0  0
    2.5866   -2.0278    1.5215 H   0  0  0  0  0  0  0  0  0  0  0  0
    2.1971   -0.4480    2.1661 H   0  0  0  0  0  0  0  0  0  0  0  0
    1.0929   -3.1029    3.2361 H   0  0  0  0  0  0  0  0  0  0  0  0
    0.7005   -1.5114    3.8855 H   0  0  0  0  0  0  0  0  0  0  0  0
    2.3487   -2.1302    4.0044 H   0  0  0  0  0  0  0  0  0  0  0  0
  1  2  1  0
  1  5  1  0
  1  6  1  0
  1  7  1  0
  2  3  2  3
  2  9  1  0
  3  4  1  0
  8 10  1  0
 10 11  1  0
 10 14  1  0
 10 15  1  0
 11 12  1  0
 11 16  1  0
 11 17  1  0
 12 13  1  0
 12 18  1  0
 12 19  1  0
 13 20  1  0
 13 21  1  0
 13 22  1  0
M  RAD  1   4   2
M  END
>  <reaction>  (15) 
rmg_rxn_33

>  <mol_properties>  (15) 
{"1": {"label": "*1", "atom_type": "Cs"}, "2": {"label": "*0", "atom_type": "N3d"}, "7": {"label": "*2", "atom_type": "H0"}, "9": {"label": "*3", "atom_type": "Cs"}, "10": {"label": "*4", "atom_type": "Cs"}}

>  <type>  (15) 
unop_11

>  <geom_source>  (15) 
Heuristics

$$$$

     RDKit          3D

 22 20  0  0  0  0  0  0  0  0999 V2000
   -1.8030    0.5882   -1.4842 C   0  0  0  0  0  0  0  0  0  0  0  0
   -1.8030    0.5882    0.0263 C   0  0  0  0  0  0  0  0  0  0  0  0
   -1.8030    1.9142    0.6899 N   0  0  0  0  0  0  0  0  0  0  0  0
   -1.8030    2.8437   -0.0578 O   0  0  0  0  0  1  0  0  0  0  0  0
   -0.9229    1.0956   -1.8787 H   0  0  0  0  0  0  0  0  0  0  0  0
   -1.8030   -0.4389   -1.8495 H   0  0  0  0  0  0  0  0  0  0  0  0
   -2.6831    1.0956   -1.8787 H   0  0  0  0  0  0  0  0  0  0  0  0
   -0.7575   -0.0206    0.5389 H   0  0  0  0  0  0  0  0  0  0  0  0
   -2.6742    0.0809    0.4535 H   0  0  0  0  0  0  0  0  0  0  0  0
    0.2844   -0.6273    1.0497 C   0  0  0  0  0  0  0  0  0  0  0  0
    1.2064   -1.1643   -0.0366 C   0  0  0  0  0  0  0  0  0  0  0  0
    2.4327   -1.8784    0.5200 C   0  0  0  0  0  0  0  0  0  0  0  0
    3.3548   -2.4153   -0.5663 C   0  0  0  0  0  0  0  0  0  0  0  0
    0.8074    0.0882    1.6887 H   0  0  0  0  0  0  0  0  0  0  0  0
   -0.0798   -1.4354    1.6887 H   0  0  0  0  0  0  0  0  0  0  0  0
    1.5327   -0.3416   -0.6811 H   0  0  0  0  0  0  0  0  0  0  0  0
    0.6520   -1.8540   -0.6811 H   0  0  0  0  0  0  0  0  0  0  0  0
    2.9872   -1.1886    1.1646 H   0  0  0  0  0  0  0  0  0  0  0  0
    2.1065   -2.7010    1.1646 H   0  0  0  0  0  0  0  0  0  0  0  0
    3.7190   -1.6073   -1.2052 H   0  0  0  0  0  0  0  0  0  0  0  0
    2.8317   -3.1308   -1.2052 H   0  0  0  0  0  0  0  0  0  0  0  0
    4.2231   -2.9209   -0.1406 H   0  0  0  0  0  0  0  0  0  0  0  0
  1  2  1  0
  1  5  1  0
  1  6  1  0
  1  7  1  0
  2  3  2  3
  2  9  1  0
  3  4  1  0
  8 10  1  0
 10 11  1  0
 10 14  1  0
 10 15  1  0
 11 12  1  0
 11 16  1  0
 11 17  1  0
 12 13  1  0
 12 18  1  0
 12 19  1  0
 13 20  1  0
 13 21  1  0
 13 22  1  0
M  RAD  1   4   2
M  END
>  <reaction>  (16) 
rmg_rxn_33

>  <mol_properties>  (16) 
{"1": {"label": "*1", "atom_type": "Cs"}, "2": {"label": "*0", "atom_type": "N3d"}, "7": {"label": "*2", "atom_type": "H0"}, "9": {"label": "*3", "atom_type": "Cs"}, "10": {"label": "*4", "atom_type": "Cs"}}

>  <type>  (16) 
unop_12

>  <geom_source>  (16) 
Heuristics

$$$$

     RDKit          3D

 22 20  0  0  0  0  0  0  0  0999 V2000
    4.0074    1.0726    1.5471 O   0  0  0  0  0  1  0  0  0  0  0  0
    3.2004    0.2008    1.6657 N   0  0  0  0  0  0  0  0  0  0  0  0
   -0.5747   -0.1598   -0.0768 C   0  0  0  0  0  0  0  0  0  0  0  0
   -2.0608   -0.4219   -0.3439 C   0  0  0  0  0  0  0  0  0  0  0  0
    0.1259   -1.4187    0.4232 C   0  0  0  0  0  0  0  0  0  0  0  0
   -2.7608    0.8383   -0.8441 C   0  0  0  0  0  0  0  0  0  0  0  0
    1.5266    0.7333   -0.0316 C   0  0  0  0  0  0  0  0  0  0  0  0
    2.4924   -0.3081    0.5171 C   0  0  0  0  0  0  0  0  0  0  0  0
   -0.0784    0.1785   -1.0123 H   0  0  0  0  0  0  0  0  0  0  0  0
   -0.4652    0.6388    0.6888 H   0  0  0  0  0  0  0  0  0  0  0  0
   -2.5560   -0.7608    0.5922 H   0  0  0  0  0  0  0  0  0  0  0  0
   -2.1691   -1.2213   -1.1092 H   0  0  0  0  0  0  0  0  0  0  0  0
    0.0554   -2.2273   -0.3353 H   0  0  0  0  0  0  0  0  0  0  0  0
   -0.3333   -1.7648    1.3737 H   0  0  0  0  0  0  0  0  0  0  0  0
    1.3489   -1.1637    0.6324 H   0  0  0  0  0  0  0  0  0  0  0  0
   -2.6889    1.6466   -0.0855 H   0  0  0  0  0  0  0  0  0  0  0  0
   -3.8336    0.6192   -1.0288 H   0  0  0  0  0  0  0  0  0  0  0  0
   -2.3003    1.1843   -1.7940 H   0  0  0  0  0  0  0  0  0  0  0  0
    0.8068    1.0351    0.7581 H   0  0  0  0  0  0  0  0  0  0  0  0
    0.9623    0.2988   -0.8827 H   0  0  0  0  0  0  0  0  0  0  0  0
    2.0829    1.6268   -0.3864 H   0  0  0  0  0  0  0  0  0  0  0  0
    3.2122   -0.6266   -0.2678 H   0  0  0  0  0  0  0  0  0  0  0  0
  1  2  1  0
  2  8  2  3
  3  5  1  0
  3  4  1  0
  3  9  1  0
  3 10  1  0
  4  6  1  0
  4 11  1  0
  4 12  1  0
  5 13  1  0
  5 14  1  0
  5 15  1  0
  6 16  1  0
  6 17  1  0
  6 18  1  0
  7  8  1  0
  7 19  1  0
  7 20  1  0
  7 21  1  0
  8 22  1  0
M  RAD  1   1   2
M  END
>  <reaction>  (17) 
rmg_rxn_33

>  <mol_properties>  (17) 
{"1": {"label": "*1", "atom_type": "Cs"}, "2": {"label": "*0", "atom_type": "N3d"}, "7": {"label": "*2", "atom_type": "H0"}, "9": {"label": "*3", "atom_type": "Cs"}, "10": {"label": "*4", "atom_type": "Cs"}}

>  <type>  (17) 
unop_13

>  <geom_source>  (17) 
AutoTST

$$$$

     RDKit          3D

 22 20  0  0  0  0  0  0  0  0999 V2000
   -1.9716    0.1552   -1.6125 C   0  0  0  0  0  0  0  0  0  0  0  0
   -1.9716    0.1552   -0.1021 C   0  0  0  0  0  0  0  0  0  0  0  0
   -1.9716    1.4811    0.5615 N   0  0  0  0  0  0  0  0  0  0  0  0
   -1.9716    2.4107   -0.1862 O   0  0  0  0  0  1  0  0  0  0  0  0
   -1.0915    0.6625   -2.0070 H   0  0  0  0  0  0  0  0  0  0  0  0
   -1.9716   -0.8720   -1.9778 H   0  0  0  0  0  0  0  0  0  0  0  0
   -2.8517    0.6625   -2.0070 H   0  0  0  0  0  0  0  0  0  0  0  0
   -0.9261   -0.4536    0.4105 H   0  0  0  0  0  0  0  0  0  0  0  0
   -2.8428   -0.3522    0.3251 H   0  0  0  0  0  0  0  0  0  0  0  0
    0.1158   -1.0603    0.9214 C   0  0  0  0  0  0  0  0  0  0  0  0
    1.3303   -0.9480    0.0098 C   0  0  0  0  0  0  0  0  0  0  0  0
    2.6438   -1.2394    0.7262 C   0  0  0  0  0  0  0  0  0  0  0  0
    3.8584   -1.1271   -0.1854 C   0  0  0  0  0  0  0  0  0  0  0  0
    0.1865   -0.3586    1.7558 H   0  0  0  0  0  0  0  0  0  0  0  0
    0.0336   -2.0655    1.3418 H   0  0  0  0  0  0  0  0  0  0  0  0
    1.3733    0.0569   -0.4226 H   0  0  0  0  0  0  0  0  0  0  0  0
    1.2215   -1.6375   -0.8336 H   0  0  0  0  0  0  0  0  0  0  0  0
    2.7526   -0.5500    1.5696 H   0  0  0  0  0  0  0  0  0  0  0  0
    2.6008   -2.2443    1.1586 H   0  0  0  0  0  0  0  0  0  0  0  0
    3.9405   -0.1220   -0.6058 H   0  0  0  0  0  0  0  0  0  0  0  0
    3.7876   -1.8289   -1.0198 H   0  0  0  0  0  0  0  0  0  0  0  0
    4.7836   -1.3404    0.3523 H   0  0  0  0  0  0  0  0  0  0  0  0
  1  2  1  0
  1  5  1  0
  1  6  1  0
  1  7  1  0
  2  3  2  3
  2  9  1  0
  3  4  1  0
  8 10  1  0
 10 11  1  0
 10 14  1  0
 10 15  1  0
 11 12  1  0
 11 16  1  0
 11 17  1  0
 12 13  1  0
 12 18  1  0
 12 19  1  0
 13 20  1  0
 13 21  1  0
 13 22  1  0
M  RAD  1   4   2
M  END
>  <reaction>  (18) 
rmg_rxn_33

>  <mol_properties>  (18) 
{"1": {"label": "*1", "atom_type": "Cs"}, "2": {"label": "*0", "atom_type": "N3d"}, "7": {"label": "*2", "atom_type": "H0"}, "9": {"label": "*3", "atom_type": "Cs"}, "10": {"label": "*4", "atom_type": "Cs"}}

>  <type>  (18) 
unop_14

>  <geom_source>  (18) 
gaussian_log

$$$$
