
     RDKit          3D

 14 14  0  0  0  0  0  0  0  0999 V2000
   -1.1778    0.2241    0.1818 C   0  0  0  0  0  0  0  0  0  0  0  0
   -0.5633   -1.1636    0.0678 C   0  0  0  0  0  0  0  0  0  0  0  0
    0.6943   -1.1996    0.7146 O   0  0  0  0  0  0  0  0  0  0  0  0
    1.5547   -0.2288    0.2011 C   0  0  0  0  0  0  0  0  0  0  0  0
    1.0729    1.0696    0.3698 O   0  0  0  0  0  0  0  0  0  0  0  0
   -0.1607    1.2493   -0.2989 C   0  0  0  0  0  0  0  0  0  0  0  0
   -2.0927    0.2866   -0.4117 H   0  0  0  0  0  0  0  0  0  0  0  0
   -1.4303    0.4248    1.2248 H   0  0  0  0  0  0  0  0  0  0  0  0
   -1.1822   -1.9235    0.5431 H   0  0  0  0  0  0  0  0  0  0  0  0
   -0.4389   -1.4347   -0.9919 H   0  0  0  0  0  0  0  0  0  0  0  0
    1.7250   -0.4207   -0.8742 H   0  0  0  0  0  0  0  0  0  0  0  0
    2.4896   -0.3010    0.7524 H   0  0  0  0  0  0  0  0  0  0  0  0
   -0.0080    1.1481   -1.3844 H   0  0  0  0  0  0  0  0  0  0  0  0
   -0.4826    2.2695   -0.0942 H   0  0  0  0  0  0  0  0  0  0  0  0
  1  2  1  0
  1  6  1  0
  1  7  1  0
  1  8  1  0
  2  3  1  0
  2  9  1  0
  2 10  1  0
  3  4  1  0
  4  5  1  0
  4 11  1  0
  4 12  1  0
  5  6  1  0
  6 13  1  0
  6 14  1  0
M  END
>  <reaction>  (1) 
rmg_rxn_42

>  <mol_properties>  (1) 
{"3": {"label": "donator", "atom_type": "Cs"}, "10": {"label": "d_hydrogen", "atom_type": "H0"}}

>  <type>  (1) 
r1h

$$$$

     RDKit          3D

 14 13  0  0  0  0  0  0  0  0999 V2000
    2.5796   -0.5432    0.2329 C   0  0  0  0  0  3  0  0  0  0  0  0
    1.2594    0.0982    0.3029 C   0  0  0  0  0  0  0  0  0  0  0  0
   -0.0483   -1.0244    0.9576 S   0  0  0  0  0  0  0  0  0  0  0  0
   -0.0049   -2.3732   -0.2491 C   0  0  0  0  0  0  0  0  0  0  0  0
   -0.3891   -1.9781   -1.6653 C   0  0  0  0  0  0  0  0  0  0  0  0
    2.9359   -0.9798   -0.6903 H   0  0  0  0  0  0  0  0  0  0  0  0
    3.1327   -0.7454    1.1400 H   0  0  0  0  0  0  0  0  0  0  0  0
    0.9347    0.4858   -0.6621 H   0  0  0  0  0  0  0  0  0  0  0  0
    1.2442    0.9220    1.0193 H   0  0  0  0  0  0  0  0  0  0  0  0
    0.9819   -2.8380   -0.2257 H   0  0  0  0  0  0  0  0  0  0  0  0
   -0.7110   -3.1037    0.1493 H   0  0  0  0  0  0  0  0  0  0  0  0
    0.3274   -1.2737   -2.0913 H   0  0  0  0  0  0  0  0  0  0  0  0
   -0.4075   -2.8581   -2.3121 H   0  0  0  0  0  0  0  0  0  0  0  0
   -1.3749   -1.5123   -1.6865 H   0  0  0  0  0  0  0  0  0  0  0  0
  1  2  1  0
  1  6  1  0
  1  7  1  0
  2  3  1  0
  2  8  1  0
  2  9  1  0
  3  4  1  0
  4  5  1  0
  4 10  1  0
  4 11  1  0
  5 12  1  0
  5 13  1  0
  5 14  1  0
M  RAD  1   1   2
M  END
>  <reaction>  (2) 
rmg_rxn_42

>  <mol_properties>  (2) 
{"0": {"label": "acceptor", "atom_type": "Cs"}}

>  <type>  (2) 
r2

$$$$

     RDKit          3D

 15 14  0  0  0  0  0  0  0  0999 V2000
   -2.0554    0.0723   -0.4910 C   0  0  0  0  0  0  0  0  0  0  0  0
   -0.7461   -0.6266   -0.8178 C   0  0  0  0  0  0  0  0  0  0  0  0
    0.3249    0.2591   -1.9782 S   0  0  0  0  0  0  0  0  0  0  0  0
   -0.7172    0.3642   -3.4551 C   0  0  0  0  0  0  0  0  0  0  0  0
   -1.1375   -0.9737   -4.0409 C   0  0  0  0  0  0  0  0  0  0  0  0
   -2.7005    0.1427   -1.3684 H   0  0  0  0  0  0  0  0  0  0  0  0
   -2.6016   -0.4848    0.2733 H   0  0  0  0  0  0  0  0  0  0  0  0
   -1.8758    1.0825   -0.1213 H   0  0  0  0  0  0  0  0  0  0  0  0
   -0.1320   -0.7246    0.0789 H   0  0  0  0  0  0  0  0  0  0  0  0
   -0.9254   -1.6374   -1.1879 H   0  0  0  0  0  0  0  0  0  0  0  0
   -1.5873    0.9874   -3.2422 H   0  0  0  0  0  0  0  0  0  0  0  0
   -0.1021    0.9161   -4.1678 H   0  0  0  0  0  0  0  0  0  0  0  0
   -1.7876   -1.5224   -3.3574 H   0  0  0  0  0  0  0  0  0  0  0  0
   -0.2676   -1.5962   -4.2534 H   0  0  0  0  0  0  0  0  0  0  0  0
   -1.6916   -0.8229   -4.9700 H   0  0  0  0  0  0  0  0  0  0  0  0
  1  2  1  0
  1  6  1  0
  1  7  1  0
  1  8  1  0
  2  3  1  0
  2  9  1  0
  2 10  1  0
  3  4  1  0
  4  5  1  0
  4 11  1  0
  4 12  1  0
  5 13  1  0
  5 14  1  0
  5 15  1  0
M  END
>  <reaction>  (3) 
rmg_rxn_42

>  <mol_properties>  (3) 
{"0": {"label": "a_hydrogen", "atom_type": "H0"}, "1": {"label": "acceptor", "atom_type": "Cs"}}

>  <type>  (3) 
r2h

$$$$

     RDKit          3D

 28 27  0  0  0  0  0  0  0  0999 V2000
   -0.7296   -2.0469   -1.7189 C   0  0  0  0  0  0  0  0  0  0  0  0
   -1.4931   -1.2317   -0.6886 C   0  0  0  0  0  0  0  0  0  0  0  0
   -2.0917   -0.0992   -1.3025 O   0  0  0  0  0  0  0  0  0  0  0  0
   -1.1786    0.6754   -1.9857 C   0  0  0  0  0  0  0  0  0  0  0  0
   -0.4491    0.0149   -2.9506 O   0  0  0  0  0  0  0  0  0  0  0  0
    0.2336   -1.1255   -2.4488 C   0  0  0  0  0  0  0  0  0  0  0  0
   -0.1771   -2.8505   -1.2279 H   0  0  0  0  0  0  0  0  0  0  0  0
   -1.4289   -2.4915   -2.4301 H   0  0  0  0  0  0  0  0  0  0  0  0
   -2.3051   -1.7998   -0.2374 H   0  0  0  0  0  0  0  0  0  0  0  0
   -0.8086   -0.8977    0.1011 H   0  0  0  0  0  0  0  0  0  0  0  0
   -0.3742    1.2154   -1.1088 H   0  0  0  0  0  0  0  0  0  0  0  0
   -1.7039    1.5061   -2.4533 H   0  0  0  0  0  0  0  0  0  0  0  0
    1.0275   -0.8036   -1.7649 H   0  0  0  0  0  0  0  0  0  0  0  0
    0.6886   -1.6108   -3.3108 H   0  0  0  0  0  0  0  0  0  0  0  0
    0.3583    1.9965   -0.1541 C   0  0  0  0  0  3  0  0  0  0  0  0
    1.7538    1.4787    0.0467 C   0  0  0  0  0  0  0  0  0  0  0  0
    1.9094   -0.1189    0.8914 S   0  0  0  0  0  0  0  0  0  0  0  0
    1.0365    0.1802    2.4487 C   0  0  0  0  0  0  0  0  0  0  0  0
    1.5928    1.3196    3.2858 C   0  0  0  0  0  0  0  0  0  0  0  0
   -0.2850    1.9768    0.7230 H   0  0  0  0  0  0  0  0  0  0  0  0
    0.3324    2.9708   -0.6409 H   0  0  0  0  0  0  0  0  0  0  0  0
    2.3677    2.2086    0.5846 H   0  0  0  0  0  0  0  0  0  0  0  0
    2.2480    1.3191   -0.9150 H   0  0  0  0  0  0  0  0  0  0  0  0
   -0.0265    0.3277    2.2485 H   0  0  0  0  0  0  0  0  0  0  0  0
    1.1281   -0.7674    2.9823 H   0  0  0  0  0  0  0  0  0  0  0  0
    1.4679    2.2797    2.7826 H   0  0  0  0  0  0  0  0  0  0  0  0
    1.0659    1.3781    4.2406 H   0  0  0  0  0  0  0  0  0  0  0  0
    2.6552    1.1747    3.4848 H   0  0  0  0  0  0  0  0  0  0  0  0
  1  2  1  0
  1  6  1  0
  1  7  1  0
  1  8  1  0
  2  3  1  0
  2  9  1  0
  2 10  1  0
  3  4  1  0
  4  5  1  0
  4 11  1  0
  4 12  1  0
  5  6  1  0
  6 13  1  0
  6 14  1  0
 15 16  1  0
 15 20  1  0
 15 21  1  0
 16 17  1  0
 16 22  1  0
 16 23  1  0
 17 18  1  0
 18 19  1  0
 18 24  1  0
 18 25  1  0
 19 26  1  0
 19 27  1  0
 19 28  1  0
M  RAD  1  15   2
M  END
>  <reaction>  (4) 
rmg_rxn_42

>  <mol_properties>  (4) 
{"2": {"label": "*0", "atom_type": "O2s"}, "3": {"label": "*1", "atom_type": "Cs"}, "10": {"label": "*2", "atom_type": "H0"}, "14": {"label": "*3", "atom_type": "Cs"}, "15": {"label": "*4", "atom_type": "Cs"}}

>  <type>  (4) 
ts

$$$$

     RDKit          3D

 28 27  0  0  0  0  0  0  0  0999 V2000
   -1.4202   -1.9883   -1.1484 C   0  0  0  0  0  0  0  0  0  0  0  0
   -1.4202   -1.9883    0.3736 C   0  0  0  0  0  0  0  0  0  0  0  0
   -2.4685   -1.1757    0.8657 O   0  0  0  0  0  0  0  0  0  0  0  0
   -2.3776    0.1239    0.3664 C   0  0  0  0  0  3  0  0  0  0  0  0
   -2.4685    0.1801   -1.0246 O   0  0  0  0  0  0  0  0  0  0  0  0
   -1.4202   -0.5466   -1.6365 C   0  0  0  0  0  0  0  0  0  0  0  0
   -0.5462   -2.5207   -1.5303 H   0  0  0  0  0  0  0  0  0  0  0  0
   -2.3167   -2.4944   -1.5114 H   0  0  0  0  0  0  0  0  0  0  0  0
   -1.5791   -2.9858    0.7810 H   0  0  0  0  0  0  0  0  0  0  0  0
   -0.4566   -1.6123    0.7504 H   0  0  0  0  0  0  0  0  0  0  0  0
   -1.2311    0.6664    0.7555 H   0  0  0  0  0  0  0  0  0  0  0  0
   -3.2186    0.6844    0.7684 H   0  0  0  0  0  0  0  0  0  0  0  0
   -0.4565   -0.0692   -1.4012 H   0  0  0  0  0  0  0  0  0  0  0  0
   -1.5791   -0.4807   -2.7120 H   0  0  0  0  0  0  0  0  0  0  0  0
   -0.1002    1.2015    1.1393 C   0  0  0  0  0  0  0  0  0  0  0  0
    0.7485    1.5941   -0.0587 C   0  0  0  0  0  0  0  0  0  0  0  0
    1.9705    0.3590   -0.5681 S   0  0  0  0  0  0  0  0  0  0  0  0
    3.0027    0.2105    0.9120 C   0  0  0  0  0  0  0  0  0  0  0  0
    3.6961    1.4925    1.3424 C   0  0  0  0  0  0  0  0  0  0  0  0
    0.5035    1.1103    2.0438 H   0  0  0  0  0  0  0  0  0  0  0  0
   -0.8619    1.9611    1.3290 H   0  0  0  0  0  0  0  0  0  0  0  0
    1.2473    2.5494    0.1129 H   0  0  0  0  0  0  0  0  0  0  0  0
    0.1231    1.7207   -0.9440 H   0  0  0  0  0  0  0  0  0  0  0  0
    2.4097   -0.2052    1.7283 H   0  0  0  0  0  0  0  0  0  0  0  0
    3.7384   -0.5482    0.6401 H   0  0  0  0  0  0  0  0  0  0  0  0
    2.9761    2.2497    1.6572 H   0  0  0  0  0  0  0  0  0  0  0  0
    4.3590    1.2988    2.1886 H   0  0  0  0  0  0  0  0  0  0  0  0
    4.2886    1.9076    0.5263 H   0  0  0  0  0  0  0  0  0  0  0  0
  1  2  1  0
  1  6  1  0
  1  7  1  0
  1  8  1  0
  2  3  1  0
  2  9  1  0
  2 10  1  0
  3  4  1  0
  4  5  1  0
  4 12  1  0
  5  6  1  0
  6 13  1  0
  6 14  1  0
 11 15  1  0
 15 16  1  0
 15 20  1  0
 15 21  1  0
 16 17  1  0
 16 22  1  0
 16 23  1  0
 17 18  1  0
 18 19  1  0
 18 24  1  0
 18 25  1  0
 19 26  1  0
 19 27  1  0
 19 28  1  0
M  RAD  1   4   2
M  END
>  <reaction>  (5) 
rmg_rxn_42

>  <mol_properties>  (5) 
{"2": {"label": "*0", "atom_type": "O2s"}, "3": {"label": "*1", "atom_type": "Cs"}, "10": {"label": "*2", "atom_type": "H0"}, "14": {"label": "*3", "atom_type": "Cs"}, "15": {"label": "*4", "atom_type": "Cs"}}

>  <type>  (5) 
unop_1

>  <geom_source>  (5) 
Heuristics

$$$$

     RDKit          3D

 28 27  0  0  0  0  0  0  0  0999 V2000
   -0.9293   -1.6123   -2.3466 C   0  0  0  0  0  0  0  0  0  0  0  0
   -0.9293   -1.6123   -0.8246 C   0  0  0  0  0  0  0  0  0  0  0  0
   -1.9776   -0.7997   -0.3325 O   0  0  0  0  0  0  0  0  0  0  0  0
   -1.8867    0.4998   -0.8318 C   0  0  0  0  0  3  0  0  0  0  0  0
   -1.9776    0.5560   -2.2229 O   0  0  0  0  0  0  0  0  0  0  0  0
   -0.9293   -0.1707   -2.8347 C   0  0  0  0  0  0  0  0  0  0  0  0
   -0.0553   -2.1448   -2.7285 H   0  0  0  0  0  0  0  0  0  0  0  0
   -1.8259   -2.1185   -2.7096 H   0  0  0  0  0  0  0  0  0  0  0  0
   -1.0882   -2.6099   -0.4173 H   0  0  0  0  0  0  0  0  0  0  0  0
    0.0343   -1.2364   -0.4479 H   0  0  0  0  0  0  0  0  0  0  0  0
   -0.7403    1.0423   -0.4427 H   0  0  0  0  0  0  0  0  0  0  0  0
   -2.7277    1.0603   -0.4298 H   0  0  0  0  0  0  0  0  0  0  0  0
    0.0343    0.3067   -2.5994 H   0  0  0  0  0  0  0  0  0  0  0  0
   -1.0882   -0.1048   -3.9102 H   0  0  0  0  0  0  0  0  0  0  0  0
    0.3906    1.5774   -0.0590 C   0  0  0  0  0  0  0  0  0  0  0  0
    1.4646    0.5152    0.1080 C   0  0  0  0  0  0  0  0  0  0  0  0
    1.2741   -0.5427    1.5650 S   0  0  0  0  0  0  0  0  0  0  0  0
    1.3589    0.6553    2.9200 C   0  0  0  0  0  0  0  0  0  0  0  0
    2.6581    1.4394    3.0034 C   0  0  0  0  0  0  0  0  0  0  0  0
    0.4272    2.3125    0.7469 H   0  0  0  0  0  0  0  0  0  0  0  0
    0.5325    2.1148   -0.9992 H   0  0  0  0  0  0  0  0  0  0  0  0
    2.4594    0.9636    0.1121 H   0  0  0  0  0  0  0  0  0  0  0  0
    1.4397   -0.1867   -0.7272 H   0  0  0  0  0  0  0  0  0  0  0  0
    0.5007    1.3271    2.8652 H   0  0  0  0  0  0  0  0  0  0  0  0
    1.2237    0.0451    3.8145 H   0  0  0  0  0  0  0  0  0  0  0  0
    2.7902    2.0870    2.1350 H   0  0  0  0  0  0  0  0  0  0  0  0
    2.6595    2.0766    3.8905 H   0  0  0  0  0  0  0  0  0  0  0  0
    3.5155    0.7677    3.0580 H   0  0  0  0  0  0  0  0  0  0  0  0
  1  2  1  0
  1  6  1  0
  1  7  1  0
  1  8  1  0
  2  3  1  0
  2  9  1  0
  2 10  1  0
  3  4  1  0
  4  5  1  0
  4 12  1  0
  5  6  1  0
  6 13  1  0
  6 14  1  0
 11 15  1  0
 15 16  1  0
 15 20  1  0
 15 21  1  0
 16 17  1  0
 16 22  1  0
 16 23  1  0
 17 18  1  0
 18 19  1  0
 18 24  1  0
 18 25  1  0
 19 26  1  0
 19 27  1  0
 19 28  1  0
M  RAD  1   4   2
M  END
>  <reaction>  (6) 
rmg_rxn_42

>  <mol_properties>  (6) 
{"2": {"label": "*0", "atom_type": "O2s"}, "3": {"label": "*1", "atom_type": "Cs"}, "10": {"label": "*2", "atom_type": "H0"}, "14": {"label": "*3", "atom_type": "Cs"}, "15": {"label": "*4", "atom_type": "Cs"}}

>  <type>  (6) 
unop_2

>  <geom_source>  (6) 
Heuristics

$$$$

     RDKit          3D

 28 27  0  0  0  0  0  0  0  0999 V2000
   -1.2482   -2.2962   -0.8502 C   0  0  0  0  0  0  0  0  0  0  0  0
   -1.2482   -2.2962    0.6718 C   0  0  0  0  0  0  0  0  0  0  0  0
   -2.2965   -1.4836    1.1639 O   0  0  0  0  0  0  0  0  0  0  0  0
   -2.2056   -0.1840    0.6646 C   0  0  0  0  0  3  0  0  0  0  0  0
   -2.2965   -0.1278   -0.7265 O   0  0  0  0  0  0  0  0  0  0  0  0
   -1.2482   -0.8545   -1.3383 C   0  0  0  0  0  0  0  0  0  0  0  0
   -0.3742   -2.8287   -1.2321 H   0  0  0  0  0  0  0  0  0  0  0  0
   -2.1448   -2.8024   -1.2132 H   0  0  0  0  0  0  0  0  0  0  0  0
   -1.4072   -3.2937    1.0791 H   0  0  0  0  0  0  0  0  0  0  0  0
   -0.2846   -1.9202    1.0485 H   0  0  0  0  0  0  0  0  0  0  0  0
   -1.0592    0.3584    1.0536 H   0  0  0  0  0  0  0  0  0  0  0  0
   -3.0467    0.3765    1.0666 H   0  0  0  0  0  0  0  0  0  0  0  0
   -0.2846   -0.3772   -1.1030 H   0  0  0  0  0  0  0  0  0  0  0  0
   -1.4072   -0.7886   -2.4138 H   0  0  0  0  0  0  0  0  0  0  0  0
    0.0717    0.8936    1.4374 C   0  0  0  0  0  0  0  0  0  0  0  0
    0.5670    1.9054    0.4174 C   0  0  0  0  0  0  0  0  0  0  0  0
    1.4955    1.2022   -0.9688 S   0  0  0  0  0  0  0  0  0  0  0  0
    2.8956    0.4171   -0.1311 C   0  0  0  0  0  0  0  0  0  0  0  0
    3.7769    1.3619    0.6690 C   0  0  0  0  0  0  0  0  0  0  0  0
    0.9014    0.4111    1.9569 H   0  0  0  0  0  0  0  0  0  0  0  0
   -0.5445    1.3873    2.1921 H   0  0  0  0  0  0  0  0  0  0  0  0
    1.1638    2.6829    0.8973 H   0  0  0  0  0  0  0  0  0  0  0  0
   -0.2752    2.4068   -0.0623 H   0  0  0  0  0  0  0  0  0  0  0  0
    2.5330   -0.4010    0.4934 H   0  0  0  0  0  0  0  0  0  0  0  0
    3.4635   -0.0367   -0.9450 H   0  0  0  0  0  0  0  0  0  0  0  0
    3.2362    1.7942    1.5127 H   0  0  0  0  0  0  0  0  0  0  0  0
    4.6387    0.8256    1.0724 H   0  0  0  0  0  0  0  0  0  0  0  0
    4.1389    2.1794    0.0446 H   0  0  0  0  0  0  0  0  0  0  0  0
  1  2  1  0
  1  6  1  0
  1  7  1  0
  1  8  1  0
  2  3  1  0
  2  9  1  0
  2 10  1  0
  3  4  1  0
  4  5  1  0
  4 12  1  0
  5  6  1  0
  6 13  1  0
  6 14  1  0
 11 15  1  0
 15 16  1  0
 15 20  1  0
 15 21  1  0
 16 17  1  0
 16 22  1  0
 16 23  1  0
 17 18  1  0
 18 19  1  0
 18 24  1  0
 18 25  1  0
 19 26  1  0
 19 27  1  0
 19 28  1  0
M  RAD  1   4   2
M  END
>  <reaction>  (7) 
rmg_rxn_42

>  <mol_properties>  (7) 
{"2": {"label": "*0", "atom_type": "O2s"}, "3": {"label": "*1", "atom_type": "Cs"}, "10": {"label": "*2", "atom_type": "H0"}, "14": {"label": "*3", "atom_type": "Cs"}, "15": {"label": "*4", "atom_type": "Cs"}}

>  <type>  (7) 
unop_3

>  <geom_source>  (7) 
Heuristics

$$$$

     RDKit          3D

 28 27  0  0  0  0  0  0  0  0999 V2000
    0.1643   -2.5324   -2.4021 C   0  0  0  0  0  0  0  0  0  0  0  0
    0.1643   -2.5324   -0.8801 C   0  0  0  0  0  0  0  0  0  0  0  0
   -0.8840   -1.7198   -0.3880 O   0  0  0  0  0  0  0  0  0  0  0  0
   -0.7931   -0.4202   -0.8873 C   0  0  0  0  0  3  0  0  0  0  0  0
   -0.8840   -0.3640   -2.2784 O   0  0  0  0  0  0  0  0  0  0  0  0
    0.1643   -1.0907   -2.8902 C   0  0  0  0  0  0  0  0  0  0  0  0
    1.0383   -3.0648   -2.7840 H   0  0  0  0  0  0  0  0  0  0  0  0
   -0.7323   -3.0385   -2.7651 H   0  0  0  0  0  0  0  0  0  0  0  0
    0.0053   -3.5299   -0.4728 H   0  0  0  0  0  0  0  0  0  0  0  0
    1.1279   -2.1564   -0.5034 H   0  0  0  0  0  0  0  0  0  0  0  0
    0.3533    0.1223   -0.4983 H   0  0  0  0  0  0  0  0  0  0  0  0
   -1.6342    0.1403   -0.4853 H   0  0  0  0  0  0  0  0  0  0  0  0
    1.1279   -0.6133   -2.6549 H   0  0  0  0  0  0  0  0  0  0  0  0
    0.0053   -1.0248   -3.9657 H   0  0  0  0  0  0  0  0  0  0  0  0
    1.4842    0.6574   -0.1145 C   0  0  0  0  0  0  0  0  0  0  0  0
    1.5733    0.7086    1.4018 C   0  0  0  0  0  0  0  0  0  0  0  0
   -0.0192    0.6841    2.2629 S   0  0  0  0  0  0  0  0  0  0  0  0
   -0.8186    2.1800    1.6293 C   0  0  0  0  0  0  0  0  0  0  0  0
   -0.0803    3.4757    1.9223 C   0  0  0  0  0  0  0  0  0  0  0  0
    1.0081    1.5530   -0.5171 H   0  0  0  0  0  0  0  0  0  0  0  0
    2.4836    0.5935   -0.5506 H   0  0  0  0  0  0  0  0  0  0  0  0
    2.1503    1.5750    1.7296 H   0  0  0  0  0  0  0  0  0  0  0  0
    2.0882   -0.1746    1.7835 H   0  0  0  0  0  0  0  0  0  0  0  0
   -1.0017    2.0687    0.5593 H   0  0  0  0  0  0  0  0  0  0  0  0
   -1.7948    2.1788    2.1170 H   0  0  0  0  0  0  0  0  0  0  0  0
    0.8819    3.5119    1.4087 H   0  0  0  0  0  0  0  0  0  0  0  0
   -0.6667    4.3313    1.5801 H   0  0  0  0  0  0  0  0  0  0  0  0
    0.1026    3.5864    2.9916 H   0  0  0  0  0  0  0  0  0  0  0  0
  1  2  1  0
  1  6  1  0
  1  7  1  0
  1  8  1  0
  2  3  1  0
  2  9  1  0
  2 10  1  0
  3  4  1  0
  4  5  1  0
  4 12  1  0
  5  6  1  0
  6 13  1  0
  6 14  1  0
 11 15  1  0
 15 16  1  0
 15 20  1  0
 15 21  1  0
 16 17  1  0
 16 22  1  0
 16 23  1  0
 17 18  1  0
 18 19  1  0
 18 24  1  0
 18 25  1  0
 19 26  1  0
 19 27  1  0
 19 28  1  0
M  RAD  1   4   2
M  END
>  <reaction>  (8) 
rmg_rxn_42

>  <mol_properties>  (8) 
{"2": {"label": "*0", "atom_type": "O2s"}, "3": {"label": "*1", "atom_type": "Cs"}, "10": {"label": "*2", "atom_type": "H0"}, "14": {"label": "*3", "atom_type": "Cs"}, "15": {"label": "*4", "atom_type": "Cs"}}

>  <type>  (8) 
unop_4

>  <geom_source>  (8) 
Heuristics

$$$$

     RDKit          3D

 28 27  0  0  0  0  0  0  0  0999 V2000
   -0.7586   -2.6813   -0.6468 C   0  0  0  0  0  0  0  0  0  0  0  0
   -0.7586   -2.6813    0.8753 C   0  0  0  0  0  0  0  0  0  0  0  0
   -1.8069   -1.8687    1.3674 O   0  0  0  0  0  0  0  0  0  0  0  0
   -1.7160   -0.5692    0.8680 C   0  0  0  0  0  3  0  0  0  0  0  0
   -1.8069   -0.5130   -0.5230 O   0  0  0  0  0  0  0  0  0  0  0  0
   -0.7586   -1.2397   -1.1349 C   0  0  0  0  0  0  0  0  0  0  0  0
    0.1154   -3.2138   -1.0286 H   0  0  0  0  0  0  0  0  0  0  0  0
   -1.6552   -3.1875   -1.0098 H   0  0  0  0  0  0  0  0  0  0  0  0
   -0.9176   -3.6789    1.2826 H   0  0  0  0  0  0  0  0  0  0  0  0
    0.2050   -2.3054    1.2520 H   0  0  0  0  0  0  0  0  0  0  0  0
   -0.5696   -0.0267    1.2571 H   0  0  0  0  0  0  0  0  0  0  0  0
   -2.5571   -0.0087    1.2700 H   0  0  0  0  0  0  0  0  0  0  0  0
    0.2050   -0.7623   -0.8996 H   0  0  0  0  0  0  0  0  0  0  0  0
   -0.9176   -1.1738   -2.2103 H   0  0  0  0  0  0  0  0  0  0  0  0
    0.5613    0.5084    1.6409 C   0  0  0  0  0  0  0  0  0  0  0  0
    0.6962    1.9278    1.1147 C   0  0  0  0  0  0  0  0  0  0  0  0
    0.5266    2.0976   -0.6799 S   0  0  0  0  0  0  0  0  0  0  0  0
    1.8858    1.0690   -1.2906 C   0  0  0  0  0  0  0  0  0  0  0  0
    3.2719    1.5075   -0.8477 C   0  0  0  0  0  0  0  0  0  0  0  0
    1.3742   -0.1277    1.2868 H   0  0  0  0  0  0  0  0  0  0  0  0
    0.5941    0.5046    2.7326 H   0  0  0  0  0  0  0  0  0  0  0  0
    1.6391    2.3743    1.4345 H   0  0  0  0  0  0  0  0  0  0  0  0
   -0.1009    2.5588    1.5114 H   0  0  0  0  0  0  0  0  0  0  0  0
    1.7020    0.0273   -1.0223 H   0  0  0  0  0  0  0  0  0  0  0  0
    1.7936    1.1351   -2.3759 H   0  0  0  0  0  0  0  0  0  0  0  0
    3.3959    1.4091    0.2321 H   0  0  0  0  0  0  0  0  0  0  0  0
    4.0351    0.8873   -1.3230 H   0  0  0  0  0  0  0  0  0  0  0  0
    3.4551    2.5486   -1.1158 H   0  0  0  0  0  0  0  0  0  0  0  0
  1  2  1  0
  1  6  1  0
  1  7  1  0
  1  8  1  0
  2  3  1  0
  2  9  1  0
  2 10  1  0
  3  4  1  0
  4  5  1  0
  4 12  1  0
  5  6  1  0
  6 13  1  0
  6 14  1  0
 11 15  1  0
 15 16  1  0
 15 20  1  0
 15 21  1  0
 16 17  1  0
 16 22  1  0
 16 23  1  0
 17 18  1  0
 18 19  1  0
 18 24  1  0
 18 25  1  0
 19 26  1  0
 19 27  1  0
 19 28  1  0
M  RAD  1   4   2
M  END
>  <reaction>  (9) 
rmg_rxn_42

>  <mol_properties>  (9) 
{"2": {"label": "*0", "atom_type": "O2s"}, "3": {"label": "*1", "atom_type": "Cs"}, "10": {"label": "*2", "atom_type": "H0"}, "14": {"label": "*3", "atom_type": "Cs"}, "15": {"label": "*4", "atom_type": "Cs"}}

>  <type>  (9) 
unop_5

>  <geom_source>  (9) 
Heuristics

$$$$

     RDKit          3D

 28 27  0  0  0  0  0  0  0  0999 V2000
    0.2740   -2.8621   -2.0334 C   0  0  0  0  0  0  0  0  0  0  0  0
    0.2740   -2.8621   -0.5114 C   0  0  0  0  0  0  0  0  0  0  0  0
   -0.7743   -2.0495   -0.0193 O   0  0  0  0  0  0  0  0  0  0  0  0
   -0.6833   -0.7500   -0.5186 C   0  0  0  0  0  3  0  0  0  0  0  0
   -0.7743   -0.6938   -1.9097 O   0  0  0  0  0  0  0  0  0  0  0  0
    0.2740   -1.4205   -2.5215 C   0  0  0  0  0  0  0  0  0  0  0  0
    1.1480   -3.3946   -2.4153 H   0  0  0  0  0  0  0  0  0  0  0  0
   -0.6225   -3.3683   -2.3964 H   0  0  0  0  0  0  0  0  0  0  0  0
    0.1151   -3.8597   -0.1041 H   0  0  0  0  0  0  0  0  0  0  0  0
    1.2377   -2.4862   -0.1347 H   0  0  0  0  0  0  0  0  0  0  0  0
    0.4631   -0.2075   -0.1296 H   0  0  0  0  0  0  0  0  0  0  0  0
   -1.5244   -0.1895   -0.1166 H   0  0  0  0  0  0  0  0  0  0  0  0
    1.2377   -0.9431   -2.2862 H   0  0  0  0  0  0  0  0  0  0  0  0
    0.1151   -1.3546   -3.5970 H   0  0  0  0  0  0  0  0  0  0  0  0
    1.5940    0.3276    0.2542 C   0  0  0  0  0  0  0  0  0  0  0  0
    1.4315    1.0438    1.5848 C   0  0  0  0  0  0  0  0  0  0  0  0
   -0.2808    1.3753    2.0709 S   0  0  0  0  0  0  0  0  0  0  0  0
   -0.8655    2.4251    0.7165 C   0  0  0  0  0  0  0  0  0  0  0  0
   -0.1051    3.7291    0.5406 C   0  0  0  0  0  0  0  0  0  0  0  0
    1.2502    0.9459   -0.5767 H   0  0  0  0  0  0  0  0  0  0  0  0
    2.6460    0.0944    0.0757 H   0  0  0  0  0  0  0  0  0  0  0  0
    1.9999    1.9752    1.5984 H   0  0  0  0  0  0  0  0  0  0  0  0
    1.8176    0.4281    2.3988 H   0  0  0  0  0  0  0  0  0  0  0  0
   -0.8739    1.8503   -0.2111 H   0  0  0  0  0  0  0  0  0  0  0  0
   -1.9076    2.6230    0.9730 H   0  0  0  0  0  0  0  0  0  0  0  0
    0.9298    3.5510    0.2435 H   0  0  0  0  0  0  0  0  0  0  0  0
   -0.5699    4.3363   -0.2392 H   0  0  0  0  0  0  0  0  0  0  0  0
   -0.0968    4.3031    1.4678 H   0  0  0  0  0  0  0  0  0  0  0  0
  1  2  1  0
  1  6  1  0
  1  7  1  0
  1  8  1  0
  2  3  1  0
  2  9  1  0
  2 10  1  0
  3  4  1  0
  4  5  1  0
  4 12  1  0
  5  6  1  0
  6 13  1  0
  6 14  1  0
 11 15  1  0
 15 16  1  0
 15 20  1  0
 15 21  1  0
 16 17  1  0
 16 22  1  0
 16 23  1  0
 17 18  1  0
 18 19  1  0
 18 24  1  0
 18 25  1  0
 19 26  1  0
 19 27  1  0
 19 28  1  0
M  RAD  1   4   2
M  END
>  <reaction>  (10) 
rmg_rxn_42

>  <mol_properties>  (10) 
{"2": {"label": "*0", "atom_type": "O2s"}, "3": {"label": "*1", "atom_type": "Cs"}, "10": {"label": "*2", "atom_type": "H0"}, "14": {"label": "*3", "atom_type": "Cs"}, "15": {"label": "*4", "atom_type": "Cs"}}

>  <type>  (10) 
unop_6

>  <geom_source>  (10) 
Heuristics

$$$$

     RDKit          3D

 28 27  0  0  0  0  0  0  0  0999 V2000
    0.2004   -3.0676   -1.5186 C   0  0  0  0  0  0  0  0  0  0  0  0
    0.2004   -3.0676    0.0034 C   0  0  0  0  0  0  0  0  0  0  0  0
   -0.8479   -2.2550    0.4955 O   0  0  0  0  0  0  0  0  0  0  0  0
   -0.7570   -0.9554   -0.0038 C   0  0  0  0  0  3  0  0  0  0  0  0
   -0.8479   -0.8992   -1.3948 O   0  0  0  0  0  0  0  0  0  0  0  0
    0.2004   -1.6259   -2.0067 C   0  0  0  0  0  0  0  0  0  0  0  0
    1.0744   -3.6000   -1.9005 H   0  0  0  0  0  0  0  0  0  0  0  0
   -0.6962   -3.5737   -1.8816 H   0  0  0  0  0  0  0  0  0  0  0  0
    0.0415   -4.0651    0.4108 H   0  0  0  0  0  0  0  0  0  0  0  0
    1.1640   -2.6916    0.3801 H   0  0  0  0  0  0  0  0  0  0  0  0
    0.3894   -0.4129    0.3853 H   0  0  0  0  0  0  0  0  0  0  0  0
   -1.5980   -0.3949    0.3982 H   0  0  0  0  0  0  0  0  0  0  0  0
    1.1640   -1.1485   -1.7714 H   0  0  0  0  0  0  0  0  0  0  0  0
    0.0415   -1.5600   -3.0822 H   0  0  0  0  0  0  0  0  0  0  0  0
    1.5204    0.1222    0.7691 C   0  0  0  0  0  0  0  0  0  0  0  0
    1.2754    1.3709    1.6000 C   0  0  0  0  0  0  0  0  0  0  0  0
   -0.4006    2.0468    1.4892 S   0  0  0  0  0  0  0  0  0  0  0  0
   -0.5423    2.4281   -0.2752 C   0  0  0  0  0  0  0  0  0  0  0  0
    0.4686    3.4355   -0.7975 C   0  0  0  0  0  0  0  0  0  0  0  0
    1.4431    0.3318   -0.2991 H   0  0  0  0  0  0  0  0  0  0  0  0
    2.5244   -0.2655    0.9550 H   0  0  0  0  0  0  0  0  0  0  0  0
    1.9986    2.1505    1.3549 H   0  0  0  0  0  0  0  0  0  0  0  0
    1.3971    1.1520    2.6621 H   0  0  0  0  0  0  0  0  0  0  0  0
   -0.5035    1.5021   -0.8512 H   0  0  0  0  0  0  0  0  0  0  0  0
   -1.5564    2.8184   -0.3755 H   0  0  0  0  0  0  0  0  0  0  0  0
    1.4862    3.0453   -0.7428 H   0  0  0  0  0  0  0  0  0  0  0  0
    0.2634    3.6697   -1.8445 H   0  0  0  0  0  0  0  0  0  0  0  0
    0.4296    4.3607   -0.2215 H   0  0  0  0  0  0  0  0  0  0  0  0
  1  2  1  0
  1  6  1  0
  1  7  1  0
  1  8  1  0
  2  3  1  0
  2  9  1  0
  2 10  1  0
  3  4  1  0
  4  5  1  0
  4 12  1  0
  5  6  1  0
  6 13  1  0
  6 14  1  0
 11 15  1  0
 15 16  1  0
 15 20  1  0
 15 21  1  0
 16 17  1  0
 16 22  1  0
 16 23  1  0
 17 18  1  0
 18 19  1  0
 18 24  1  0
 18 25  1  0
 19 26  1  0
 19 27  1  0
 19 28  1  0
M  RAD  1   4   2
M  END
>  <reaction>  (11) 
rmg_rxn_42

>  <mol_properties>  (11) 
{"2": {"label": "*0", "atom_type": "O2s"}, "3": {"label": "*1", "atom_type": "Cs"}, "10": {"label": "*2", "atom_type": "H0"}, "14": {"label": "*3", "atom_type": "Cs"}, "15": {"label": "*4", "atom_type": "Cs"}}

>  <type>  (11) 
unop_7

>  <geom_source>  (11) 
Heuristics

$$$$

     RDKit          3D

 28 27  0  0  0  0  0  0  0  0999 V2000
   -1.4194   -1.7243   -1.5061 C   0  0  0  0  0  0  0  0  0  0  0  0
   -1.4194   -1.7243    0.0159 C   0  0  0  0  0  0  0  0  0  0  0  0
   -2.4677   -0.9116    0.5080 O   0  0  0  0  0  0  0  0  0  0  0  0
   -2.3768    0.3879    0.0087 C   0  0  0  0  0  3  0  0  0  0  0  0
   -2.4677    0.4441   -1.3823 O   0  0  0  0  0  0  0  0  0  0  0  0
   -1.4194   -0.2826   -1.9942 C   0  0  0  0  0  0  0  0  0  0  0  0
   -0.5454   -2.2567   -1.8880 H   0  0  0  0  0  0  0  0  0  0  0  0
   -2.3160   -2.2304   -1.8691 H   0  0  0  0  0  0  0  0  0  0  0  0
   -1.5783   -2.7218    0.4233 H   0  0  0  0  0  0  0  0  0  0  0  0
   -0.4558   -1.3483    0.3926 H   0  0  0  0  0  0  0  0  0  0  0  0
   -1.2304    0.9304    0.3978 H   0  0  0  0  0  0  0  0  0  0  0  0
   -3.2178    0.9484    0.4107 H   0  0  0  0  0  0  0  0  0  0  0  0
   -0.4558    0.1948   -1.7589 H   0  0  0  0  0  0  0  0  0  0  0  0
   -1.5783   -0.2167   -3.0697 H   0  0  0  0  0  0  0  0  0  0  0  0
   -0.0995    1.4655    0.7816 C   0  0  0  0  0  0  0  0  0  0  0  0
    1.0009    1.1932   -0.2307 C   0  0  0  0  0  0  0  0  0  0  0  0
    2.0216   -0.2602    0.1215 S   0  0  0  0  0  0  0  0  0  0  0  0
    2.7376    0.1574    1.7312 C   0  0  0  0  0  0  0  0  0  0  0  0
    3.5886    1.4164    1.7482 C   0  0  0  0  0  0  0  0  0  0  0  0
    0.3118    1.7232    1.7590 H   0  0  0  0  0  0  0  0  0  0  0  0
   -0.7160    2.3055    0.4539 H   0  0  0  0  0  0  0  0  0  0  0  0
    1.6430    2.0670   -0.3534 H   0  0  0  0  0  0  0  0  0  0  0  0
    0.5724    0.9778   -1.2110 H   0  0  0  0  0  0  0  0  0  0  0  0
    1.9442    0.2127    2.4784 H   0  0  0  0  0  0  0  0  0  0  0  0
    3.3433   -0.7156    1.9800 H   0  0  0  0  0  0  0  0  0  0  0  0
    2.9905    2.3055    1.5415 H   0  0  0  0  0  0  0  0  0  0  0  0
    4.0465    1.5507    2.7307 H   0  0  0  0  0  0  0  0  0  0  0  0
    4.3812    1.3607    1.0013 H   0  0  0  0  0  0  0  0  0  0  0  0
  1  2  1  0
  1  6  1  0
  1  7  1  0
  1  8  1  0
  2  3  1  0
  2  9  1  0
  2 10  1  0
  3  4  1  0
  4  5  1  0
  4 12  1  0
  5  6  1  0
  6 13  1  0
  6 14  1  0
 11 15  1  0
 15 16  1  0
 15 20  1  0
 15 21  1  0
 16 17  1  0
 16 22  1  0
 16 23  1  0
 17 18  1  0
 18 19  1  0
 18 24  1  0
 18 25  1  0
 19 26  1  0
 19 27  1  0
 19 28  1  0
M  RAD  1   4   2
M  END
>  <reaction>  (12) 
rmg_rxn_42

>  <mol_properties>  (12) 
{"2": {"label": "*0", "atom_type": "O2s"}, "3": {"label": "*1", "atom_type": "Cs"}, "10": {"label": "*2", "atom_type": "H0"}, "14": {"label": "*3", "atom_type": "Cs"}, "15": {"label": "*4", "atom_type": "Cs"}}

>  <type>  (12) 
unop_8

>  <geom_source>  (12) 
Heuristics

$$$$

     RDKit          3D

 28 27  0  0  0  0  0  0  0  0999 V2000
   -0.1023   -2.1677   -2.5996 C   0  0  0  0  0  0  0  0  0  0  0  0
   -0.1023   -2.1677   -1.0776 C   0  0  0  0  0  0  0  0  0  0  0  0
   -1.1506   -1.3551   -0.5855 O   0  0  0  0  0  0  0  0  0  0  0  0
   -1.0597   -0.0556   -1.0848 C   0  0  0  0  0  3  0  0  0  0  0  0
   -1.1506    0.0006   -2.4758 O   0  0  0  0  0  0  0  0  0  0  0  0
   -0.1023   -0.7261   -3.0877 C   0  0  0  0  0  0  0  0  0  0  0  0
    0.7717   -2.7002   -2.9815 H   0  0  0  0  0  0  0  0  0  0  0  0
   -0.9989   -2.6739   -2.9626 H   0  0  0  0  0  0  0  0  0  0  0  0
   -0.2612   -3.1653   -0.6702 H   0  0  0  0  0  0  0  0  0  0  0  0
    0.8613   -1.7918   -0.7008 H   0  0  0  0  0  0  0  0  0  0  0  0
    0.0868    0.4869   -0.6957 H   0  0  0  0  0  0  0  0  0  0  0  0
   -1.9007    0.5049   -0.6828 H   0  0  0  0  0  0  0  0  0  0  0  0
    0.8613   -0.2487   -2.8524 H   0  0  0  0  0  0  0  0  0  0  0  0
   -0.2612   -0.6602   -4.1632 H   0  0  0  0  0  0  0  0  0  0  0  0
    1.2177    1.0220   -0.3119 C   0  0  0  0  0  0  0  0  0  0  0  0
    1.6602    0.4541    1.0264 C   0  0  0  0  0  0  0  0  0  0  0  0
    0.3197    0.1227    2.1976 S   0  0  0  0  0  0  0  0  0  0  0  0
   -0.4063    1.7662    2.4214 C   0  0  0  0  0  0  0  0  0  0  0  0
    0.5391    2.8145    2.9843 C   0  0  0  0  0  0  0  0  0  0  0  0
    0.7800    2.0154   -0.1992 H   0  0  0  0  0  0  0  0  0  0  0  0
    2.0728    1.1153   -0.9851 H   0  0  0  0  0  0  0  0  0  0  0  0
    2.4031    1.0997    1.4977 H   0  0  0  0  0  0  0  0  0  0  0  0
    2.1320   -0.5204    0.8898 H   0  0  0  0  0  0  0  0  0  0  0  0
   -0.8441    2.1013    1.4796 H   0  0  0  0  0  0  0  0  0  0  0  0
   -1.2355    1.5919    3.1090 H   0  0  0  0  0  0  0  0  0  0  0  0
    1.3533    3.0316    2.2909 H   0  0  0  0  0  0  0  0  0  0  0  0
    0.0039    3.7495    3.1641 H   0  0  0  0  0  0  0  0  0  0  0  0
    0.9765    2.4792    3.9253 H   0  0  0  0  0  0  0  0  0  0  0  0
  1  2  1  0
  1  6  1  0
  1  7  1  0
  1  8  1  0
  2  3  1  0
  2  9  1  0
  2 10  1  0
  3  4  1  0
  4  5  1  0
  4 12  1  0
  5  6  1  0
  6 13  1  0
  6 14  1  0
 11 15  1  0
 15 16  1  0
 15 20  1  0
 15 21  1  0
 16 17  1  0
 16 22  1  0
 16 23  1  0
 17 18  1  0
 18 19  1  0
 18 24  1  0
 18 25  1  0
 19 26  1  0
 19 27  1  0
 19 28  1  0
M  RAD  1   4   2
M  END
>  <reaction>  (13) 
rmg_rxn_42

>  <mol_properties>  (13) 
{"2": {"label": "*0", "atom_type": "O2s"}, "3": {"label": "*1", "atom_type": "Cs"}, "10": {"label": "*2", "atom_type": "H0"}, "14": {"label": "*3", "atom_type": "Cs"}, "15": {"label": "*4", "atom_type": "Cs"}}

>  <type>  (13) 
unop_9

>  <geom_source>  (13) 
Heuristics

$$$$

     RDKit          3D

 28 27  0  0  0  0  0  0  0  0999 V2000
   -1.2571   -1.5756   -1.9362 C   0  0  0  0  0  0  0  0  0  0  0  0
   -1.2571   -1.5756   -0.4142 C   0  0  0  0  0  0  0  0  0  0  0  0
   -2.3054   -0.7630    0.0779 O   0  0  0  0  0  0  0  0  0  0  0  0
   -2.2145    0.5365   -0.4214 C   0  0  0  0  0  3  0  0  0  0  0  0
   -2.3054    0.5927   -1.8125 O   0  0  0  0  0  0  0  0  0  0  0  0
   -1.2571   -0.1340   -2.4244 C   0  0  0  0  0  0  0  0  0  0  0  0
   -0.3831   -2.1081   -2.3181 H   0  0  0  0  0  0  0  0  0  0  0  0
   -2.1537   -2.0818   -2.2993 H   0  0  0  0  0  0  0  0  0  0  0  0
   -1.4161   -2.5731   -0.0069 H   0  0  0  0  0  0  0  0  0  0  0  0
   -0.2935   -1.1996   -0.0375 H   0  0  0  0  0  0  0  0  0  0  0  0
   -1.0681    1.0790   -0.0324 H   0  0  0  0  0  0  0  0  0  0  0  0
   -3.0555    1.0971   -0.0194 H   0  0  0  0  0  0  0  0  0  0  0  0
   -0.2935    0.3434   -2.1891 H   0  0  0  0  0  0  0  0  0  0  0  0
   -1.4161   -0.0680   -3.4998 H   0  0  0  0  0  0  0  0  0  0  0  0
    0.0628    1.6142    0.3514 C   0  0  0  0  0  0  0  0  0  0  0  0
    1.2456    0.8093   -0.1612 C   0  0  0  0  0  0  0  0  0  0  0  0
    1.7538   -0.5653    0.9019 S   0  0  0  0  0  0  0  0  0  0  0  0
    2.1906    0.2835    2.4404 C   0  0  0  0  0  0  0  0  0  0  0  0
    3.3149    1.2985    2.3168 C   0  0  0  0  0  0  0  0  0  0  0  0
    0.3070    2.1373    1.2775 H   0  0  0  0  0  0  0  0  0  0  0  0
   -0.2293    2.3678   -0.3832 H   0  0  0  0  0  0  0  0  0  0  0  0
    2.1033    1.4559   -0.3539 H   0  0  0  0  0  0  0  0  0  0  0  0
    0.9969    0.3268   -1.1079 H   0  0  0  0  0  0  0  0  0  0  0  0
    1.2974    0.7410    2.8691 H   0  0  0  0  0  0  0  0  0  0  0  0
    2.4808   -0.5273    3.1106 H   0  0  0  0  0  0  0  0  0  0  0  0
    3.0269    2.1382    1.6820 H   0  0  0  0  0  0  0  0  0  0  0  0
    3.5699    1.7026    3.2990 H   0  0  0  0  0  0  0  0  0  0  0  0
    4.2072    0.8409    1.8882 H   0  0  0  0  0  0  0  0  0  0  0  0
  1  2  1  0
  1  6  1  0
  1  7  1  0
  1  8  1  0
  2  3  1  0
  2  9  1  0
  2 10  1  0
  3  4  1  0
  4  5  1  0
  4 12  1  0
  5  6  1  0
  6 13  1  0
  6 14  1  0
 11 15  1  0
 15 16  1  0
 15 20  1  0
 15 21  1  0
 16 17  1  0
 16 22  1  0
 16 23  1  0
 17 18  1  0
 18 19  1  0
 18 24  1  0
 18 25  1  0
 19 26  1  0
 19 27  1  0
 19 28  1  0
M  RAD  1   4   2
M  END
>  <reaction>  (14) 
rmg_rxn_42

>  <mol_properties>  (14) 
{"2": {"label": "*0", "atom_type": "O2s"}, "3": {"label": "*1", "atom_type": "Cs"}, "10": {"label": "*2", "atom_type": "H0"}, "14": {"label": "*3", "atom_type": "Cs"}, "15": {"label": "*4", "atom_type": "Cs"}}

>  <type>  (14) 
unop_10

>  <geom_source>  (14) 
Heuristics

$$$$

     RDKit          3D

 28 27  0  0  0  0  0  0  0  0999 V2000
   -0.1278   -3.0309   -0.9459 C   0  0  0  0  0  0  0  0  0  0  0  0
   -0.1278   -3.0309    0.5762 C   0  0  0  0  0  0  0  0  0  0  0  0
   -1.1761   -2.2183    1.0683 O   0  0  0  0  0  0  0  0  0  0  0  0
   -1.0852   -0.9187    0.5690 C   0  0  0  0  0  3  0  0  0  0  0  0
   -1.1761   -0.8625   -0.8221 O   0  0  0  0  0  0  0  0  0  0  0  0
   -0.1278   -1.5892   -1.4340 C   0  0  0  0  0  0  0  0  0  0  0  0
    0.7462   -3.5633   -1.3277 H   0  0  0  0  0  0  0  0  0  0  0  0
   -1.0244   -3.5370   -1.3089 H   0  0  0  0  0  0  0  0  0  0  0  0
   -0.2868   -4.0284    0.9835 H   0  0  0  0  0  0  0  0  0  0  0  0
    0.8358   -2.6549    0.9529 H   0  0  0  0  0  0  0  0  0  0  0  0
    0.0612   -0.3762    0.9580 H   0  0  0  0  0  0  0  0  0  0  0  0
   -1.9263   -0.3582    0.9709 H   0  0  0  0  0  0  0  0  0  0  0  0
    0.8358   -1.1118   -1.1987 H   0  0  0  0  0  0  0  0  0  0  0  0
   -0.2868   -1.5233   -2.5094 H   0  0  0  0  0  0  0  0  0  0  0  0
    1.1921    0.1589    1.3418 C   0  0  0  0  0  0  0  0  0  0  0  0
    1.0560    1.6650    1.4932 C   0  0  0  0  0  0  0  0  0  0  0  0
   -0.2270    2.4241    0.4657 S   0  0  0  0  0  0  0  0  0  0  0  0
    0.3277    2.0080   -1.2068 C   0  0  0  0  0  0  0  0  0  0  0  0
    1.6958    2.5521   -1.5835 C   0  0  0  0  0  0  0  0  0  0  0  0
    1.5296   -0.1130    0.3403 H   0  0  0  0  0  0  0  0  0  0  0  0
    1.9268   -0.2281    2.0514 H   0  0  0  0  0  0  0  0  0  0  0  0
    2.0096    2.1631    1.3106 H   0  0  0  0  0  0  0  0  0  0  0  0
    0.7579    1.9205    2.5113 H   0  0  0  0  0  0  0  0  0  0  0  0
    0.2867    0.9263   -1.3446 H   0  0  0  0  0  0  0  0  0  0  0  0
   -0.4432    2.4361   -1.8498 H   0  0  0  0  0  0  0  0  0  0  0  0
    2.4847    2.1037   -0.9773 H   0  0  0  0  0  0  0  0  0  0  0  0
    1.9180    2.3272   -2.6289 H   0  0  0  0  0  0  0  0  0  0  0  0
    1.7364    3.6332   -1.4455 H   0  0  0  0  0  0  0  0  0  0  0  0
  1  2  1  0
  1  6  1  0
  1  7  1  0
  1  8  1  0
  2  3  1  0
  2  9  1  0
  2 10  1  0
  3  4  1  0
  4  5  1  0
  4 12  1  0
  5  6  1  0
  6 13  1  0
  6 14  1  0
 11 15  1  0
 15 16  1  0
 15 20  1  0
 15 21  1  0
 16 17  1  0
 16 22  1  0
 16 23  1  0
 17 18  1  0
 18 19  1  0
 18 24  1  0
 18 25  1  0
 19 26  1  0
 19 27  1  0
 19 28  1  0
M  RAD  1   4   2
M  END
>  <reaction>  (15) 
rmg_rxn_42

>  <mol_properties>  (15) 
{"2": {"label": "*0", "atom_type": "O2s"}, "3": {"label": "*1", "atom_type": "Cs"}, "10": {"label": "*2", "atom_type": "H0"}, "14": {"label": "*3", "atom_type": "Cs"}, "15": {"label": "*4", "atom_type": "Cs"}}

>  <type>  (15) 
unop_11

>  <geom_source>  (15) 
Heuristics

$$$$

     RDKit          3D

 28 27  0  0  0  0  0  0  0  0999 V2000
   -0.4990   -1.8349   -2.5922 C   0  0  0  0  0  0  0  0  0  0  0  0
   -0.4990   -1.8349   -1.0701 C   0  0  0  0  0  0  0  0  0  0  0  0
   -1.5473   -1.0222   -0.5780 O   0  0  0  0  0  0  0  0  0  0  0  0
   -1.4564    0.2773   -1.0774 C   0  0  0  0  0  3  0  0  0  0  0  0
   -1.5473    0.3335   -2.4684 O   0  0  0  0  0  0  0  0  0  0  0  0
   -0.4990   -0.3932   -3.0803 C   0  0  0  0  0  0  0  0  0  0  0  0
    0.3750   -2.3673   -2.9741 H   0  0  0  0  0  0  0  0  0  0  0  0
   -1.3956   -2.3410   -2.9552 H   0  0  0  0  0  0  0  0  0  0  0  0
   -0.6579   -2.8324   -0.6628 H   0  0  0  0  0  0  0  0  0  0  0  0
    0.4646   -1.4589   -0.6934 H   0  0  0  0  0  0  0  0  0  0  0  0
   -0.3100    0.8198   -0.6883 H   0  0  0  0  0  0  0  0  0  0  0  0
   -2.2974    0.8378   -0.6754 H   0  0  0  0  0  0  0  0  0  0  0  0
    0.4646    0.0842   -2.8450 H   0  0  0  0  0  0  0  0  0  0  0  0
   -0.6579   -0.3273   -4.1557 H   0  0  0  0  0  0  0  0  0  0  0  0
    0.8209    1.3549   -0.3045 C   0  0  0  0  0  0  0  0  0  0  0  0
    1.6239    0.3794    0.5399 C   0  0  0  0  0  0  0  0  0  0  0  0
    0.7506   -0.2839    1.9806 S   0  0  0  0  0  0  0  0  0  0  0  0
    0.3850    1.2148    2.9285 C   0  0  0  0  0  0  0  0  0  0  0  0
    1.6034    2.0088    3.3695 C   0  0  0  0  0  0  0  0  0  0  0  0
    0.5931    2.2680    0.2481 H   0  0  0  0  0  0  0  0  0  0  0  0
    1.3878    1.6425   -1.1928 H   0  0  0  0  0  0  0  0  0  0  0  0
    2.5670    0.8253    0.8603 H   0  0  0  0  0  0  0  0  0  0  0  0
    1.8776   -0.5088   -0.0411 H   0  0  0  0  0  0  0  0  0  0  0  0
   -0.3060    1.8425    2.3634 H   0  0  0  0  0  0  0  0  0  0  0  0
   -0.1640    0.8454    3.7962 H   0  0  0  0  0  0  0  0  0  0  0  0
    2.1425    2.4209    2.5148 H   0  0  0  0  0  0  0  0  0  0  0  0
    1.3009    2.8470    4.0011 H   0  0  0  0  0  0  0  0  0  0  0  0
    2.2938    1.3811    3.9341 H   0  0  0  0  0  0  0  0  0  0  0  0
  1  2  1  0
  1  6  1  0
  1  7  1  0
  1  8  1  0
  2  3  1  0
  2  9  1  0
  2 10  1  0
  3  4  1  0
  4  5  1  0
  4 12  1  0
  5  6  1  0
  6 13  1  0
  6 14  1  0
 11 15  1  0
 15 16  1  0
 15 20  1  0
 15 21  1  0
 16 17  1  0
 16 22  1  0
 16 23  1  0
 17 18  1  0
 18 19  1  0
 18 24  1  0
 18 25  1  0
 19 26  1  0
 19 27  1  0
 19 28  1  0
M  RAD  1   4   2
M  END
>  <reaction>  (16) 
rmg_rxn_42

>  <mol_properties>  (16) 
{"2": {"label": "*0", "atom_type": "O2s"}, "3": {"label": "*1", "atom_type": "Cs"}, "10": {"label": "*2", "atom_type": "H0"}, "14": {"label": "*3", "atom_type": "Cs"}, "15": {"label": "*4", "atom_type": "Cs"}}

>  <type>  (16) 
unop_12

>  <geom_source>  (16) 
Heuristics

$$$$

     RDKit          3D

 28 27  0  0  0  0  0  0  0  0999 V2000
    2.8391    0.0136    1.1269 S   0  0  0  0  0  0  0  0  0  0  0  0
   -2.6020   -1.0683   -0.7441 O   0  0  0  0  0  0  0  0  0  0  0  0
   -2.3293    1.2619   -0.2329 O   0  0  0  0  0  0  0  0  0  0  0  0
   -4.0086   -0.0330    0.9103 C   0  0  0  0  0  0  0  0  0  0  0  0
   -2.9972   -1.1406    0.6070 C   0  0  0  0  0  0  0  0  0  0  0  0
   -3.7163    1.1663    0.0059 C   0  0  0  0  0  0  0  0  0  0  0  0
    1.3560    0.6400    0.2611 C   0  0  0  0  0  0  0  0  0  0  0  0
    3.9646    0.1364   -0.3060 C   0  0  0  0  0  0  0  0  0  0  0  0
    0.6115   -0.4961   -0.4262 C   0  0  0  0  0  0  0  0  0  0  0  0
    5.3504   -0.3566    0.0814 C   0  0  0  0  0  0  0  0  0  0  0  0
   -1.8696    0.1309   -0.9679 C   0  0  0  0  0  3  0  0  0  0  0  0
   -3.9251    0.2615    1.9791 H   0  0  0  0  0  0  0  0  0  0  0  0
   -5.0433   -0.3933    0.7218 H   0  0  0  0  0  0  0  0  0  0  0  0
    1.6230    1.4232   -0.4796 H   0  0  0  0  0  0  0  0  0  0  0  0
    0.6833    1.0998    1.0150 H   0  0  0  0  0  0  0  0  0  0  0  0
    4.0348    1.1948   -0.6360 H   0  0  0  0  0  0  0  0  0  0  0  0
    3.5817   -0.4815   -1.1447 H   0  0  0  0  0  0  0  0  0  0  0  0
   -3.4659   -2.1297    0.7952 H   0  0  0  0  0  0  0  0  0  0  0  0
   -2.1121   -1.0600    1.2802 H   0  0  0  0  0  0  0  0  0  0  0  0
   -4.0639    2.0963    0.5034 H   0  0  0  0  0  0  0  0  0  0  0  0
   -4.2721    1.0763   -0.9561 H   0  0  0  0  0  0  0  0  0  0  0  0
    1.2413   -0.9548   -1.2161 H   0  0  0  0  0  0  0  0  0  0  0  0
    0.3300   -1.2732    0.3156 H   0  0  0  0  0  0  0  0  0  0  0  0
   -0.4431   -0.0431   -0.9621 H   0  0  0  0  0  0  0  0  0  0  0  0
    6.0320   -0.2782   -0.7916 H   0  0  0  0  0  0  0  0  0  0  0  0
    5.3021   -1.4185    0.4034 H   0  0  0  0  0  0  0  0  0  0  0  0
    5.7581    0.2603    0.9102 H   0  0  0  0  0  0  0  0  0  0  0  0
   -1.8595    0.3653   -2.0531 H   0  0  0  0  0  0  0  0  0  0  0  0
  1  7  1  0
  1  8  1  0
  2  5  1  0
  2 11  1  0
  3  6  1  0
  3 11  1  0
  4  5  1  0
  4  6  1  0
  4 12  1  0
  4 13  1  0
  5 18  1  0
  5 19  1  0
  6 20  1  0
  6 21  1  0
  7  9  1  0
  7 14  1  0
  7 15  1  0
  8 10  1  0
  8 16  1  0
  8 17  1  0
  9 22  1  0
  9 23  1  0
  9 24  1  0
 10 25  1  0
 10 26  1  0
 10 27  1  0
 11 28  1  0
M  RAD  1  11   2
M  END
>  <reaction>  (17) 
rmg_rxn_42

>  <mol_properties>  (17) 
{"2": {"label": "*0", "atom_type": "O2s"}, "3": {"label": "*1", "atom_type": "Cs"}, "10": {"label": "*2", "atom_type": "H0"}, "14": {"label": "*3", "atom_type": "Cs"}, "15": {"label": "*4", "atom_type": "Cs"}}

>  <type>  (17) 
unop_13

>  <geom_source>  (17) 
AutoTST

$$$$

     RDKit          3D

 28 27  0  0  0  0  0  0  0  0999 V2000
   -0.9293   -1.6123   -2.3466 C   0  0  0  0  0  0  0  0  0  0  0  0
   -0.9293   -1.6123   -0.8246 C   0  0  0  0  0  0  0  0  0  0  0  0
   -1.9776   -0.7997   -0.3325 O   0  0  0  0  0  0  0  0  0  0  0  0
   -1.8867    0.4998   -0.8318 C   0  0  0  0  0  3  0  0  0  0  0  0
   -1.9776    0.5560   -2.2229 O   0  0  0  0  0  0  0  0  0  0  0  0
   -0.9293   -0.1707   -2.8347 C   0  0  0  0  0  0  0  0  0  0  0  0
   -0.0553   -2.1448   -2.7285 H   0  0  0  0  0  0  0  0  0  0  0  0
   -1.8259   -2.1185   -2.7096 H   0  0  0  0  0  0  0  0  0  0  0  0
   -1.0882   -2.6099   -0.4173 H   0  0  0  0  0  0  0  0  0  0  0  0
    0.0343   -1.2364   -0.4479 H   0  0  0  0  0  0  0  0  0  0  0  0
   -0.7403    1.0423   -0.4427 H   0  0  0  0  0  0  0  0  0  0  0  0
   -2.7277    1.0603   -0.4298 H   0  0  0  0  0  0  0  0  0  0  0  0
    0.0343    0.3067   -2.5994 H   0  0  0  0  0  0  0  0  0  0  0  0
   -1.0882   -0.1048   -3.9102 H   0  0  0  0  0  0  0  0  0  0  0  0
    0.3906    1.5774   -0.0590 C   0  0  0  0  0  0  0  0  0  0  0  0
    1.4646    0.5152    0.1080 C   0  0  0  0  0  0  0  0  0  0  0  0
    1.2741   -0.5427    1.5650 S   0  0  0  0  0  0  0  0  0  0  0  0
    1.3589    0.6553    2.9200 C   0  0  0  0  0  0  0  0  0  0  0  0
    2.6581    1.4394    3.0034 C   0  0  0  0  0  0  0  0  0  0  0  0
    0.4272    2.3125    0.7469 H   0  0  0  0  0  0  0  0  0  0  0  0
    0.5325    2.1149   -0.9992 H   0  0  0  0  0  0  0  0  0  0  0  0
    2.4594    0.9636    0.1121 H   0  0  0  0  0  0  0  0  0  0  0  0
    1.4397   -0.1867   -0.7272 H   0  0  0  0  0  0  0  0  0  0  0  0
    0.5007    1.3271    2.8652 H   0  0  0  0  0  0  0  0  0  0  0  0
    1.2237    0.0451    3.8145 H   0  0  0  0  0  0  0  0  0  0  0  0
    2.7902    2.0870    2.1350 H   0  0  0  0  0  0  0  0  0  0  0  0
    2.6595    2.0766    3.8905 H   0  0  0  0  0  0  0  0  0  0  0  0
    3.5155    0.7677    3.0580 H   0  0  0  0  0  0  0  0  0  0  0  0
  1  2  1  0
  1  6  1  0
  1  7  1  0
  1  8  1  0
  2  3  1  0
  2  9  1  0
  2 10  1  0
  3  4  1  0
  4  5  1  0
  4 12  1  0
  5  6  1  0
  6 13  1  0
  6 14  1  0
 11 15  1  0
 15 16  1  0
 15 20  1  0
 15 21  1  0
 16 17  1  0
 16 22  1  0
 16 23  1  0
 17 18  1  0
 18 19  1  0
 18 24  1  0
 18 25  1  0
 19 26  1  0
 19 27  1  0
 19 28  1  0
M  RAD  1   4   2
M  END
>  <reaction>  (18) 
rmg_rxn_42

>  <mol_properties>  (18) 
{"2": {"label": "*0", "atom_type": "O2s"}, "3": {"label": "*1", "atom_type": "Cs"}, "10": {"label": "*2", "atom_type": "H0"}, "14": {"label": "*3", "atom_type": "Cs"}, "15": {"label": "*4", "atom_type": "Cs"}}

>  <type>  (18) 
unop_14

>  <geom_source>  (18) 
gaussian_log

$$$$
