
     RDKit          3D

 15 14  0  0  0  0  0  0  0  0999 V2000
   -2.0554    0.0723   -0.4910 C   0  0  0  0  0  0  0  0  0  0  0  0
   -0.7461   -0.6266   -0.8178 C   0  0  0  0  0  0  0  0  0  0  0  0
    0.3249    0.2591   -1.9782 S   0  0  0  0  0  0  0  0  0  0  0  0
   -0.7172    0.3642   -3.4551 C   0  0  0  0  0  0  0  0  0  0  0  0
   -1.1375   -0.9737   -4.0409 C   0  0  0  0  0  0  0  0  0  0  0  0
   -2.7005    0.1427   -1.3684 H   0  0  0  0  0  0  0  0  0  0  0  0
   -2.6016   -0.4848    0.2733 H   0  0  0  0  0  0  0  0  0  0  0  0
   -1.8758    1.0825   -0.1213 H   0  0  0  0  0  0  0  0  0  0  0  0
   -0.1320   -0.7246    0.0789 H   0  0  0  0  0  0  0  0  0  0  0  0
   -0.9254   -1.6374   -1.1879 H   0  0  0  0  0  0  0  0  0  0  0  0
   -1.5873    0.9874   -3.2422 H   0  0  0  0  0  0  0  0  0  0  0  0
   -0.1021    0.9161   -4.1678 H   0  0  0  0  0  0  0  0  0  0  0  0
   -1.7876   -1.5224   -3.3574 H   0  0  0  0  0  0  0  0  0  0  0  0
   -0.2676   -1.5962   -4.2534 H   0  0  0  0  0  0  0  0  0  0  0  0
   -1.6916   -0.8229   -4.9700 H   0  0  0  0  0  0  0  0  0  0  0  0
  1  2  1  0
  1  6  1  0
  1  7  1  0
  1  8  1  0
  2  3  1  0
  2  9  1  0
  2 10  1  0
  3  4  1  0
  4  5  1  0
  4 11  1  0
  4 12  1  0
  5 13  1  0
  5 14  1  0
  5 15  1  0
M  END
>  <reaction>  (1) 
rmg_rxn_15

>  <mol_properties>  (1) 
{"0": {"label": "donator", "atom_type": "Cs"}, "5": {"label": "d_hydrogen", "atom_type": "H0"}}

>  <type>  (1) 
r1h

$$$$

     RDKit          3D

  9  8  0  0  0  0  0  0  0  0999 V2000
    1.3246   -0.8124   -0.0809 C   0  0  0  0  0  2  0  0  0  0  0  0
    0.4082    0.3080    0.1518 C   0  0  0  0  0  0  0  0  0  0  0  0
   -1.0545   -0.0277   -0.1520 C   0  0  0  0  0  0  0  0  0  0  0  0
    2.3933   -0.9471    0.0203 H   0  0  0  0  0  0  0  0  0  0  0  0
    0.4898    0.6406    1.1970 H   0  0  0  0  0  0  0  0  0  0  0  0
    0.7134    1.1680   -0.4624 H   0  0  0  0  0  0  0  0  0  0  0  0
   -1.4014   -0.8515    0.4727 H   0  0  0  0  0  0  0  0  0  0  0  0
   -1.1767   -0.3214   -1.1952 H   0  0  0  0  0  0  0  0  0  0  0  0
   -1.6915    0.8372    0.0370 H   0  0  0  0  0  0  0  0  0  0  0  0
  1  2  1  0
  1  4  1  0
  2  3  1  0
  2  5  1  0
  2  6  1  0
  3  7  1  0
  3  8  1  0
  3  9  1  0
M  RAD  1   1   3
M  END
>  <reaction>  (2) 
rmg_rxn_15

>  <mol_properties>  (2) 
{"0": {"label": "acceptor", "atom_type": "Cs"}}

>  <type>  (2) 
r2

$$$$

     RDKit          3D

 10  9  0  0  0  0  0  0  0  0999 V2000
    1.4352    0.2660   -0.1351 C   0  0  0  0  0  3  0  0  0  0  0  0
    0.2236   -0.3243    0.4850 C   0  0  0  0  0  0  0  0  0  0  0  0
   -0.8893    0.6872    0.7364 C   0  0  0  0  0  0  0  0  0  0  0  0
    2.3577   -0.2958   -0.1940 H   0  0  0  0  0  0  0  0  0  0  0  0
    1.3935    1.2286   -0.6287 H   0  0  0  0  0  0  0  0  0  0  0  0
   -0.1633   -1.1318   -0.1556 H   0  0  0  0  0  0  0  0  0  0  0  0
    0.4945   -0.8215    1.4240 H   0  0  0  0  0  0  0  0  0  0  0  0
   -1.1991    1.1627   -0.1967 H   0  0  0  0  0  0  0  0  0  0  0  0
   -1.7660    0.2103    1.1768 H   0  0  0  0  0  0  0  0  0  0  0  0
   -0.5545    1.4732    1.4159 H   0  0  0  0  0  0  0  0  0  0  0  0
  1  2  1  0
  1  4  1  0
  1  5  1  0
  2  3  1  0
  2  6  1  0
  2  7  1  0
  3  8  1  0
  3  9  1  0
  3 10  1  0
M  RAD  1   1   2
M  END
>  <reaction>  (3) 
rmg_rxn_15

>  <mol_properties>  (3) 
{"0": {"label": "acceptor", "atom_type": "Cs"}, "9": {"label": "a_hydrogen", "atom_type": "H0"}}

>  <type>  (3) 
r2h

$$$$

     RDKit          3D

 24 22  0  0  0  0  0  0  0  0999 V2000
    0.9264   -2.0094    0.2981 C   0  0  0  0  0  2  0  0  0  0  0  0
    1.5632   -2.2369   -1.0163 C   0  0  0  0  0  0  0  0  0  0  0  0
    2.5815   -1.1662   -1.4023 C   0  0  0  0  0  0  0  0  0  0  0  0
    0.3325   -2.7445    0.8304 H   0  0  0  0  0  0  0  0  0  0  0  0
    2.0511   -3.2205   -1.0203 H   0  0  0  0  0  0  0  0  0  0  0  0
    0.7902   -2.2940   -1.7974 H   0  0  0  0  0  0  0  0  0  0  0  0
    3.3843   -1.1094   -0.6654 H   0  0  0  0  0  0  0  0  0  0  0  0
    2.1126   -0.1819   -1.4588 H   0  0  0  0  0  0  0  0  0  0  0  0
    3.0256   -1.3816   -2.3748 H   0  0  0  0  0  0  0  0  0  0  0  0
    1.1768    0.3649    1.4901 C   0  0  0  0  0  0  0  0  0  0  0  0
    0.5551    1.4887    0.7028 C   0  0  0  0  0  0  0  0  0  0  0  0
   -1.2512    1.5815    0.7442 S   0  0  0  0  0  0  0  0  0  0  0  0
   -1.7457    0.0938   -0.1605 C   0  0  0  0  0  0  0  0  0  0  0  0
   -1.3325    0.0669   -1.6220 C   0  0  0  0  0  0  0  0  0  0  0  0
    1.0055   -0.7878    0.8861 H   0  0  0  0  0  0  0  0  0  0  0  0
    2.2639    0.4296    1.5400 H   0  0  0  0  0  0  0  0  0  0  0  0
    0.7352    0.2128    2.4733 H   0  0  0  0  0  0  0  0  0  0  0  0
    0.8654    2.4518    1.1197 H   0  0  0  0  0  0  0  0  0  0  0  0
    0.9013    1.4828   -0.3329 H   0  0  0  0  0  0  0  0  0  0  0  0
   -1.3690   -0.7867    0.3612 H   0  0  0  0  0  0  0  0  0  0  0  0
   -2.8333    0.0839   -0.0698 H   0  0  0  0  0  0  0  0  0  0  0  0
   -0.2467    0.0517   -1.7263 H   0  0  0  0  0  0  0  0  0  0  0  0
   -1.7137    0.9392   -2.1542 H   0  0  0  0  0  0  0  0  0  0  0  0
   -1.7187   -0.8328   -2.1066 H   0  0  0  0  0  0  0  0  0  0  0  0
  1  2  1  0
  1  4  1  0
  2  3  1  0
  2  5  1  0
  2  6  1  0
  3  7  1  0
  3  8  1  0
  3  9  1  0
 10 11  1  0
 10 15  1  0
 10 16  1  0
 10 17  1  0
 11 12  1  0
 11 18  1  0
 11 19  1  0
 12 13  1  0
 13 14  1  0
 13 20  1  0
 13 21  1  0
 14 22  1  0
 14 23  1  0
 14 24  1  0
M  RAD  1   1   3
M  END
>  <reaction>  (4) 
rmg_rxn_15

>  <mol_properties>  (4) 
{"0": {"label": "*3", "atom_type": "Cs"}, "1": {"label": "*4", "atom_type": "Cs"}, "9": {"label": "*1", "atom_type": "Cs"}, "10": {"label": "*0", "atom_type": "Cs"}, "14": {"label": "*2", "atom_type": "H0"}}

>  <type>  (4) 
ts

$$$$

     RDKit          3D

 24 22  0  0  0  0  0  0  0  0999 V2000
    1.1261   -1.1152   -0.3142 C   0  0  0  0  0  3  0  0  0  0  0  0
    2.2193   -1.5048   -1.2383 C   0  0  0  0  0  0  0  0  0  0  0  0
    2.9738   -2.7553   -0.8001 C   0  0  0  0  0  0  0  0  0  0  0  0
    0.7269   -1.8214    0.4027 H   0  0  0  0  0  0  0  0  0  0  0  0
    1.8100   -1.6677   -2.2472 H   0  0  0  0  0  0  0  0  0  0  0  0
    2.9193   -0.6690   -1.3550 H   0  0  0  0  0  0  0  0  0  0  0  0
    2.2964   -3.6081   -0.7184 H   0  0  0  0  0  0  0  0  0  0  0  0
    3.4412   -2.6062    0.1750 H   0  0  0  0  0  0  0  0  0  0  0  0
    3.7565   -3.0162   -1.5138 H   0  0  0  0  0  0  0  0  0  0  0  0
    1.0754    1.2548    0.7722 C   0  0  0  0  0  3  0  0  0  0  0  0
   -0.1856    2.0136    0.3930 C   0  0  0  0  0  0  0  0  0  0  0  0
   -1.7261    1.2997    1.0216 S   0  0  0  0  0  0  0  0  0  0  0  0
   -1.7261   -0.3414    0.2567 C   0  0  0  0  0  0  0  0  0  0  0  0
   -1.7261   -0.3414   -1.2630 C   0  0  0  0  0  0  0  0  0  0  0  0
    1.1008    0.0646    0.2266 H   0  0  0  0  0  0  0  0  0  0  0  0
    1.9601    1.7932    0.4253 H   0  0  0  0  0  0  0  0  0  0  0  0
    1.1460    1.1327    1.8536 H   0  0  0  0  0  0  0  0  0  0  0  0
   -0.1705    3.0168    0.8223 H   0  0  0  0  0  0  0  0  0  0  0  0
   -0.2567    2.1358   -0.6890 H   0  0  0  0  0  0  0  0  0  0  0  0
   -0.8899   -0.9240    0.6468 H   0  0  0  0  0  0  0  0  0  0  0  0
   -2.6373   -0.8052    0.6380 H   0  0  0  0  0  0  0  0  0  0  0  0
   -0.8031    0.0822   -1.6624 H   0  0  0  0  0  0  0  0  0  0  0  0
   -2.5619    0.2411   -1.6524 H   0  0  0  0  0  0  0  0  0  0  0  0
   -1.8087   -1.3626   -1.6417 H   0  0  0  0  0  0  0  0  0  0  0  0
  1  2  1  0
  1  4  1  0
  1 15  1  0
  2  3  1  0
  2  5  1  0
  2  6  1  0
  3  7  1  0
  3  8  1  0
  3  9  1  0
 10 11  1  0
 10 16  1  0
 10 17  1  0
 11 12  1  0
 11 18  1  0
 11 19  1  0
 12 13  1  0
 13 14  1  0
 13 20  1  0
 13 21  1  0
 14 22  1  0
 14 23  1  0
 14 24  1  0
M  RAD  2   1   2  10   2
M  END
>  <reaction>  (5) 
rmg_rxn_15

>  <mol_properties>  (5) 
{"0": {"label": "*3", "atom_type": "Cs"}, "1": {"label": "*4", "atom_type": "Cs"}, "9": {"label": "*1", "atom_type": "Cs"}, "10": {"label": "*0", "atom_type": "Cs"}, "14": {"label": "*2", "atom_type": "H0"}}

>  <type>  (5) 
unop_1

>  <geom_source>  (5) 
Heuristics

$$$$

     RDKit          3D

 24 22  0  0  0  0  0  0  0  0999 V2000
    1.5257   -1.1622   -0.0842 C   0  0  0  0  0  3  0  0  0  0  0  0
    0.8630   -1.4158   -1.3870 C   0  0  0  0  0  0  0  0  0  0  0  0
    1.5227   -2.5216   -2.2036 C   0  0  0  0  0  0  0  0  0  0  0  0
    2.1948   -1.8940    0.3502 H   0  0  0  0  0  0  0  0  0  0  0  0
   -0.1939   -1.6748   -1.2198 H   0  0  0  0  0  0  0  0  0  0  0  0
    0.8317   -0.4888   -1.9717 H   0  0  0  0  0  0  0  0  0  0  0  0
    1.5252   -3.4632   -1.6503 H   0  0  0  0  0  0  0  0  0  0  0  0
    2.5588   -2.2686   -2.4359 H   0  0  0  0  0  0  0  0  0  0  0  0
    0.9960   -2.6872   -3.1445 H   0  0  0  0  0  0  0  0  0  0  0  0
    1.4750    1.2078    1.0023 C   0  0  0  0  0  3  0  0  0  0  0  0
    0.2141    1.9667    0.6231 C   0  0  0  0  0  0  0  0  0  0  0  0
   -1.3265    1.2527    1.2517 S   0  0  0  0  0  0  0  0  0  0  0  0
   -1.3265   -0.3883    0.4868 C   0  0  0  0  0  0  0  0  0  0  0  0
   -1.3265   -0.3883   -1.0329 C   0  0  0  0  0  0  0  0  0  0  0  0
    1.5005    0.0176    0.4567 H   0  0  0  0  0  0  0  0  0  0  0  0
    2.3597    1.7462    0.6554 H   0  0  0  0  0  0  0  0  0  0  0  0
    1.5457    1.0858    2.0837 H   0  0  0  0  0  0  0  0  0  0  0  0
    0.2292    2.9698    1.0524 H   0  0  0  0  0  0  0  0  0  0  0  0
    0.1429    2.0889   -0.4590 H   0  0  0  0  0  0  0  0  0  0  0  0
   -0.4903   -0.9710    0.8768 H   0  0  0  0  0  0  0  0  0  0  0  0
   -2.2377   -0.8522    0.8681 H   0  0  0  0  0  0  0  0  0  0  0  0
   -0.4035    0.0352   -1.4324 H   0  0  0  0  0  0  0  0  0  0  0  0
   -2.1622    0.1941   -1.4223 H   0  0  0  0  0  0  0  0  0  0  0  0
   -1.4091   -1.4095   -1.4116 H   0  0  0  0  0  0  0  0  0  0  0  0
  1  2  1  0
  1  4  1  0
  1 15  1  0
  2  3  1  0
  2  5  1  0
  2  6  1  0
  3  7  1  0
  3  8  1  0
  3  9  1  0
 10 11  1  0
 10 16  1  0
 10 17  1  0
 11 12  1  0
 11 18  1  0
 11 19  1  0
 12 13  1  0
 13 14  1  0
 13 20  1  0
 13 21  1  0
 14 22  1  0
 14 23  1  0
 14 24  1  0
M  RAD  2   1   2  10   2
M  END
>  <reaction>  (6) 
rmg_rxn_15

>  <mol_properties>  (6) 
{"0": {"label": "*3", "atom_type": "Cs"}, "1": {"label": "*4", "atom_type": "Cs"}, "9": {"label": "*1", "atom_type": "Cs"}, "10": {"label": "*0", "atom_type": "Cs"}, "14": {"label": "*2", "atom_type": "H0"}}

>  <type>  (6) 
unop_2

>  <geom_source>  (6) 
Heuristics

$$$$

     RDKit          3D

 24 22  0  0  0  0  0  0  0  0999 V2000
    1.1588   -1.0359   -0.4460 C   0  0  0  0  0  3  0  0  0  0  0  0
    2.4464   -1.6846   -0.7957 C   0  0  0  0  0  0  0  0  0  0  0  0
    2.5559   -3.1263   -0.3115 C   0  0  0  0  0  0  0  0  0  0  0  0
    0.2977   -1.6277   -0.1628 H   0  0  0  0  0  0  0  0  0  0  0  0
    2.5877   -1.6608   -1.8871 H   0  0  0  0  0  0  0  0  0  0  0  0
    3.2783   -1.0930   -0.3957 H   0  0  0  0  0  0  0  0  0  0  0  0
    1.7567   -3.7390   -0.7341 H   0  0  0  0  0  0  0  0  0  0  0  0
    2.4767   -3.1788    0.7759 H   0  0  0  0  0  0  0  0  0  0  0  0
    3.5087   -3.5707   -0.6029 H   0  0  0  0  0  0  0  0  0  0  0  0
    1.1081    1.3342    0.6405 C   0  0  0  0  0  3  0  0  0  0  0  0
   -0.1528    2.0930    0.2613 C   0  0  0  0  0  0  0  0  0  0  0  0
   -1.6934    1.3791    0.8899 S   0  0  0  0  0  0  0  0  0  0  0  0
   -1.6934   -0.2620    0.1250 C   0  0  0  0  0  0  0  0  0  0  0  0
   -1.6934   -0.2620   -1.3947 C   0  0  0  0  0  0  0  0  0  0  0  0
    1.1336    0.1440    0.0949 H   0  0  0  0  0  0  0  0  0  0  0  0
    1.9929    1.8726    0.2936 H   0  0  0  0  0  0  0  0  0  0  0  0
    1.1788    1.2121    1.7219 H   0  0  0  0  0  0  0  0  0  0  0  0
   -0.1377    3.0962    0.6906 H   0  0  0  0  0  0  0  0  0  0  0  0
   -0.2239    2.2152   -0.8208 H   0  0  0  0  0  0  0  0  0  0  0  0
   -0.8572   -0.8446    0.5150 H   0  0  0  0  0  0  0  0  0  0  0  0
   -2.6046   -0.7258    0.5063 H   0  0  0  0  0  0  0  0  0  0  0  0
   -0.7704    0.1616   -1.7942 H   0  0  0  0  0  0  0  0  0  0  0  0
   -2.5291    0.3205   -1.7841 H   0  0  0  0  0  0  0  0  0  0  0  0
   -1.7759   -1.2832   -1.7734 H   0  0  0  0  0  0  0  0  0  0  0  0
  1  2  1  0
  1  4  1  0
  1 15  1  0
  2  3  1  0
  2  5  1  0
  2  6  1  0
  3  7  1  0
  3  8  1  0
  3  9  1  0
 10 11  1  0
 10 16  1  0
 10 17  1  0
 11 12  1  0
 11 18  1  0
 11 19  1  0
 12 13  1  0
 13 14  1  0
 13 20  1  0
 13 21  1  0
 14 22  1  0
 14 23  1  0
 14 24  1  0
M  RAD  2   1   2  10   2
M  END
>  <reaction>  (7) 
rmg_rxn_15

>  <mol_properties>  (7) 
{"0": {"label": "*3", "atom_type": "Cs"}, "1": {"label": "*4", "atom_type": "Cs"}, "9": {"label": "*1", "atom_type": "Cs"}, "10": {"label": "*0", "atom_type": "Cs"}, "14": {"label": "*2", "atom_type": "H0"}}

>  <type>  (7) 
unop_3

>  <geom_source>  (7) 
Heuristics

$$$$

     RDKit          3D

 24 22  0  0  0  0  0  0  0  0999 V2000
    1.6415   -0.9606   -0.5006 C   0  0  0  0  0  3  0  0  0  0  0  0
    0.5778   -1.9531   -0.2102 C   0  0  0  0  0  0  0  0  0  0  0  0
    0.9904   -3.3929   -0.4961 C   0  0  0  0  0  0  0  0  0  0  0  0
    2.6751   -1.2671   -0.5993 H   0  0  0  0  0  0  0  0  0  0  0  0
    0.2727   -1.8699    0.8443 H   0  0  0  0  0  0  0  0  0  0  0  0
   -0.3251   -1.7039   -0.7802 H   0  0  0  0  0  0  0  0  0  0  0  0
    1.8656   -3.6701    0.0955 H   0  0  0  0  0  0  0  0  0  0  0  0
    1.2453   -3.5227   -1.5496 H   0  0  0  0  0  0  0  0  0  0  0  0
    0.1875   -4.0906   -0.2541 H   0  0  0  0  0  0  0  0  0  0  0  0
    1.5908    1.4095    0.5858 C   0  0  0  0  0  3  0  0  0  0  0  0
    0.3299    2.1683    0.2066 C   0  0  0  0  0  0  0  0  0  0  0  0
   -1.2107    1.4544    0.8352 S   0  0  0  0  0  0  0  0  0  0  0  0
   -1.2107   -0.1867    0.0703 C   0  0  0  0  0  0  0  0  0  0  0  0
   -1.2107   -0.1867   -1.4494 C   0  0  0  0  0  0  0  0  0  0  0  0
    1.6163    0.2193    0.0402 H   0  0  0  0  0  0  0  0  0  0  0  0
    2.4755    1.9479    0.2389 H   0  0  0  0  0  0  0  0  0  0  0  0
    1.6615    1.2874    1.6672 H   0  0  0  0  0  0  0  0  0  0  0  0
    0.3449    3.1715    0.6359 H   0  0  0  0  0  0  0  0  0  0  0  0
    0.2587    2.2905   -0.8754 H   0  0  0  0  0  0  0  0  0  0  0  0
   -0.3745   -0.7693    0.4604 H   0  0  0  0  0  0  0  0  0  0  0  0
   -2.1219   -0.6505    0.4516 H   0  0  0  0  0  0  0  0  0  0  0  0
   -0.2877    0.2369   -1.8488 H   0  0  0  0  0  0  0  0  0  0  0  0
   -2.0464    0.3958   -1.8388 H   0  0  0  0  0  0  0  0  0  0  0  0
   -1.2933   -1.2079   -1.8281 H   0  0  0  0  0  0  0  0  0  0  0  0
  1  2  1  0
  1  4  1  0
  1 15  1  0
  2  3  1  0
  2  5  1  0
  2  6  1  0
  3  7  1  0
  3  8  1  0
  3  9  1  0
 10 11  1  0
 10 16  1  0
 10 17  1  0
 11 12  1  0
 11 18  1  0
 11 19  1  0
 12 13  1  0
 13 14  1  0
 13 20  1  0
 13 21  1  0
 14 22  1  0
 14 23  1  0
 14 24  1  0
M  RAD  2   1   2  10   2
M  END
>  <reaction>  (8) 
rmg_rxn_15

>  <mol_properties>  (8) 
{"0": {"label": "*3", "atom_type": "Cs"}, "1": {"label": "*4", "atom_type": "Cs"}, "9": {"label": "*1", "atom_type": "Cs"}, "10": {"label": "*0", "atom_type": "Cs"}, "14": {"label": "*2", "atom_type": "H0"}}

>  <type>  (8) 
unop_4

>  <geom_source>  (8) 
Heuristics

$$$$

     RDKit          3D

 24 22  0  0  0  0  0  0  0  0999 V2000
    1.2331   -0.9790   -0.4619 C   0  0  0  0  0  3  0  0  0  0  0  0
    2.3739   -1.8982   -0.2284 C   0  0  0  0  0  0  0  0  0  0  0  0
    2.1155   -3.3253   -0.6993 C   0  0  0  0  0  0  0  0  0  0  0  0
    0.4501   -1.2331   -1.1650 H   0  0  0  0  0  0  0  0  0  0  0  0
    3.2709   -1.5101   -0.7349 H   0  0  0  0  0  0  0  0  0  0  0  0
    2.6354   -1.8988    0.8364 H   0  0  0  0  0  0  0  0  0  0  0  0
    1.8931   -3.3465   -1.7683 H   0  0  0  0  0  0  0  0  0  0  0  0
    1.2640   -3.7606   -0.1729 H   0  0  0  0  0  0  0  0  0  0  0  0
    2.9830   -3.9633   -0.5247 H   0  0  0  0  0  0  0  0  0  0  0  0
    1.1824    1.3910    0.6246 C   0  0  0  0  0  3  0  0  0  0  0  0
   -0.0786    2.1499    0.2454 C   0  0  0  0  0  0  0  0  0  0  0  0
   -1.6191    1.4359    0.8739 S   0  0  0  0  0  0  0  0  0  0  0  0
   -1.6191   -0.2051    0.1091 C   0  0  0  0  0  0  0  0  0  0  0  0
   -1.6191   -0.2051   -1.4107 C   0  0  0  0  0  0  0  0  0  0  0  0
    1.2078    0.2008    0.0789 H   0  0  0  0  0  0  0  0  0  0  0  0
    2.0671    1.9294    0.2776 H   0  0  0  0  0  0  0  0  0  0  0  0
    1.2530    1.2690    1.7060 H   0  0  0  0  0  0  0  0  0  0  0  0
   -0.0635    3.1530    0.6746 H   0  0  0  0  0  0  0  0  0  0  0  0
   -0.1497    2.2721   -0.8367 H   0  0  0  0  0  0  0  0  0  0  0  0
   -0.7830   -0.7878    0.4991 H   0  0  0  0  0  0  0  0  0  0  0  0
   -2.5304   -0.6690    0.4903 H   0  0  0  0  0  0  0  0  0  0  0  0
   -0.6961    0.2184   -1.8101 H   0  0  0  0  0  0  0  0  0  0  0  0
   -2.4549    0.3773   -1.8001 H   0  0  0  0  0  0  0  0  0  0  0  0
   -1.7017   -1.2263   -1.7893 H   0  0  0  0  0  0  0  0  0  0  0  0
  1  2  1  0
  1  4  1  0
  1 15  1  0
  2  3  1  0
  2  5  1  0
  2  6  1  0
  3  7  1  0
  3  8  1  0
  3  9  1  0
 10 11  1  0
 10 16  1  0
 10 17  1  0
 11 12  1  0
 11 18  1  0
 11 19  1  0
 12 13  1  0
 13 14  1  0
 13 20  1  0
 13 21  1  0
 14 22  1  0
 14 23  1  0
 14 24  1  0
M  RAD  2   1   2  10   2
M  END
>  <reaction>  (9) 
rmg_rxn_15

>  <mol_properties>  (9) 
{"0": {"label": "*3", "atom_type": "Cs"}, "1": {"label": "*4", "atom_type": "Cs"}, "9": {"label": "*1", "atom_type": "Cs"}, "10": {"label": "*0", "atom_type": "Cs"}, "14": {"label": "*2", "atom_type": "H0"}}

>  <type>  (9) 
unop_5

>  <geom_source>  (9) 
Heuristics

$$$$

     RDKit          3D

 24 22  0  0  0  0  0  0  0  0999 V2000
    1.5008   -0.9361   -0.5858 C   0  0  0  0  0  3  0  0  0  0  0  0
    0.9204   -2.1070    0.1164 C   0  0  0  0  0  0  0  0  0  0  0  0
    1.6125   -3.4243   -0.2163 C   0  0  0  0  0  0  0  0  0  0  0  0
    2.4886   -0.9861   -1.0259 H   0  0  0  0  0  0  0  0  0  0  0  0
    0.9629   -1.9440    1.2043 H   0  0  0  0  0  0  0  0  0  0  0  0
   -0.1497   -2.1805   -0.1110 H   0  0  0  0  0  0  0  0  0  0  0  0
    2.6727   -3.3814    0.0425 H   0  0  0  0  0  0  0  0  0  0  0  0
    1.5384   -3.6443   -1.2830 H   0  0  0  0  0  0  0  0  0  0  0  0
    1.1670   -4.2554    0.3321 H   0  0  0  0  0  0  0  0  0  0  0  0
    1.4501    1.4339    0.5007 C   0  0  0  0  0  3  0  0  0  0  0  0
    0.1892    2.1928    0.1215 C   0  0  0  0  0  0  0  0  0  0  0  0
   -1.3514    1.4788    0.7501 S   0  0  0  0  0  0  0  0  0  0  0  0
   -1.3514   -0.1623   -0.0148 C   0  0  0  0  0  0  0  0  0  0  0  0
   -1.3514   -0.1623   -1.5346 C   0  0  0  0  0  0  0  0  0  0  0  0
    1.4756    0.2437   -0.0449 H   0  0  0  0  0  0  0  0  0  0  0  0
    2.3348    1.9723    0.1537 H   0  0  0  0  0  0  0  0  0  0  0  0
    1.5208    1.3119    1.5821 H   0  0  0  0  0  0  0  0  0  0  0  0
    0.2043    3.1959    0.5507 H   0  0  0  0  0  0  0  0  0  0  0  0
    0.1180    2.3150   -0.9606 H   0  0  0  0  0  0  0  0  0  0  0  0
   -0.5152   -0.7449    0.3752 H   0  0  0  0  0  0  0  0  0  0  0  0
   -2.2626   -0.6261    0.3665 H   0  0  0  0  0  0  0  0  0  0  0  0
   -0.4284    0.2613   -1.9340 H   0  0  0  0  0  0  0  0  0  0  0  0
   -2.1871    0.4202   -1.9240 H   0  0  0  0  0  0  0  0  0  0  0  0
   -1.4340   -1.1834   -1.9132 H   0  0  0  0  0  0  0  0  0  0  0  0
  1  2  1  0
  1  4  1  0
  1 15  1  0
  2  3  1  0
  2  5  1  0
  2  6  1  0
  3  7  1  0
  3  8  1  0
  3  9  1  0
 10 11  1  0
 10 16  1  0
 10 17  1  0
 11 12  1  0
 11 18  1  0
 11 19  1  0
 12 13  1  0
 13 14  1  0
 13 20  1  0
 13 21  1  0
 14 22  1  0
 14 23  1  0
 14 24  1  0
M  RAD  2   1   2  10   2
M  END
>  <reaction>  (10) 
rmg_rxn_15

>  <mol_properties>  (10) 
{"0": {"label": "*3", "atom_type": "Cs"}, "1": {"label": "*4", "atom_type": "Cs"}, "9": {"label": "*1", "atom_type": "Cs"}, "10": {"label": "*0", "atom_type": "Cs"}, "14": {"label": "*2", "atom_type": "H0"}}

>  <type>  (10) 
unop_6

>  <geom_source>  (10) 
Heuristics

$$$$

     RDKit          3D

 24 22  0  0  0  0  0  0  0  0999 V2000
    1.3459   -0.9469   -0.5804 C   0  0  0  0  0  3  0  0  0  0  0  0
    1.4082   -2.1676    0.2604 C   0  0  0  0  0  0  0  0  0  0  0  0
    2.2038   -3.3049   -0.3709 C   0  0  0  0  0  0  0  0  0  0  0  0
    2.0476   -0.7941   -1.3904 H   0  0  0  0  0  0  0  0  0  0  0  0
    1.8493   -1.9206    1.2383 H   0  0  0  0  0  0  0  0  0  0  0  0
    0.3921   -2.5078    0.4929 H   0  0  0  0  0  0  0  0  0  0  0  0
    3.2315   -2.9943   -0.5716 H   0  0  0  0  0  0  0  0  0  0  0  0
    1.7576   -3.6129   -1.3183 H   0  0  0  0  0  0  0  0  0  0  0  0
    2.2390   -4.1756    0.2853 H   0  0  0  0  0  0  0  0  0  0  0  0
    1.2952    1.4232    0.5061 C   0  0  0  0  0  3  0  0  0  0  0  0
    0.0343    2.1820    0.1269 C   0  0  0  0  0  0  0  0  0  0  0  0
   -1.5063    1.4681    0.7555 S   0  0  0  0  0  0  0  0  0  0  0  0
   -1.5063   -0.1730   -0.0094 C   0  0  0  0  0  0  0  0  0  0  0  0
   -1.5063   -0.1730   -1.5291 C   0  0  0  0  0  0  0  0  0  0  0  0
    1.3207    0.2329   -0.0395 H   0  0  0  0  0  0  0  0  0  0  0  0
    2.1799    1.9616    0.1592 H   0  0  0  0  0  0  0  0  0  0  0  0
    1.3659    1.3011    1.5875 H   0  0  0  0  0  0  0  0  0  0  0  0
    0.0493    3.1852    0.5562 H   0  0  0  0  0  0  0  0  0  0  0  0
   -0.0369    2.3042   -0.9552 H   0  0  0  0  0  0  0  0  0  0  0  0
   -0.6701   -0.7556    0.3806 H   0  0  0  0  0  0  0  0  0  0  0  0
   -2.4175   -0.6369    0.3719 H   0  0  0  0  0  0  0  0  0  0  0  0
   -0.5833    0.2506   -1.9286 H   0  0  0  0  0  0  0  0  0  0  0  0
   -2.3420    0.4095   -1.9186 H   0  0  0  0  0  0  0  0  0  0  0  0
   -1.5889   -1.1942   -1.9078 H   0  0  0  0  0  0  0  0  0  0  0  0
  1  2  1  0
  1  4  1  0
  1 15  1  0
  2  3  1  0
  2  5  1  0
  2  6  1  0
  3  7  1  0
  3  8  1  0
  3  9  1  0
 10 11  1  0
 10 16  1  0
 10 17  1  0
 11 12  1  0
 11 18  1  0
 11 19  1  0
 12 13  1  0
 13 14  1  0
 13 20  1  0
 13 21  1  0
 14 22  1  0
 14 23  1  0
 14 24  1  0
M  RAD  2   1   2  10   2
M  END
>  <reaction>  (11) 
rmg_rxn_15

>  <mol_properties>  (11) 
{"0": {"label": "*3", "atom_type": "Cs"}, "1": {"label": "*4", "atom_type": "Cs"}, "9": {"label": "*1", "atom_type": "Cs"}, "10": {"label": "*0", "atom_type": "Cs"}, "14": {"label": "*2", "atom_type": "H0"}}

>  <type>  (11) 
unop_7

>  <geom_source>  (11) 
Heuristics

$$$$

     RDKit          3D

 24 22  0  0  0  0  0  0  0  0999 V2000
    1.1971   -1.1727   -0.1694 C   0  0  0  0  0  3  0  0  0  0  0  0
    1.8071   -1.3839   -1.5051 C   0  0  0  0  0  0  0  0  0  0  0  0
    2.8664   -2.4804   -1.5271 C   0  0  0  0  0  0  0  0  0  0  0  0
    1.2795   -1.9256    0.6041 H   0  0  0  0  0  0  0  0  0  0  0  0
    1.0210   -1.6295   -2.2357 H   0  0  0  0  0  0  0  0  0  0  0  0
    2.2374   -0.4427   -1.8673 H   0  0  0  0  0  0  0  0  0  0  0  0
    2.4429   -3.4350   -1.2073 H   0  0  0  0  0  0  0  0  0  0  0  0
    3.6905   -2.2389   -0.8533 H   0  0  0  0  0  0  0  0  0  0  0  0
    3.2769   -2.6147   -2.5289 H   0  0  0  0  0  0  0  0  0  0  0  0
    1.1464    1.1973    0.9171 C   0  0  0  0  0  3  0  0  0  0  0  0
   -0.1146    1.9562    0.5378 C   0  0  0  0  0  0  0  0  0  0  0  0
   -1.6551    1.2423    1.1664 S   0  0  0  0  0  0  0  0  0  0  0  0
   -1.6551   -0.3988    0.4015 C   0  0  0  0  0  0  0  0  0  0  0  0
   -1.6551   -0.3988   -1.1182 C   0  0  0  0  0  0  0  0  0  0  0  0
    1.1718    0.0071    0.3714 H   0  0  0  0  0  0  0  0  0  0  0  0
    2.0311    1.7357    0.5701 H   0  0  0  0  0  0  0  0  0  0  0  0
    1.2170    1.0753    1.9985 H   0  0  0  0  0  0  0  0  0  0  0  0
   -0.0995    2.9594    0.9671 H   0  0  0  0  0  0  0  0  0  0  0  0
   -0.1857    2.0784   -0.5442 H   0  0  0  0  0  0  0  0  0  0  0  0
   -0.8189   -0.9815    0.7916 H   0  0  0  0  0  0  0  0  0  0  0  0
   -2.5663   -0.8627    0.7828 H   0  0  0  0  0  0  0  0  0  0  0  0
   -0.7321    0.0248   -1.5176 H   0  0  0  0  0  0  0  0  0  0  0  0
   -2.4909    0.1837   -1.5076 H   0  0  0  0  0  0  0  0  0  0  0  0
   -1.7377   -1.4200   -1.4969 H   0  0  0  0  0  0  0  0  0  0  0  0
  1  2  1  0
  1  4  1  0
  1 15  1  0
  2  3  1  0
  2  5  1  0
  2  6  1  0
  3  7  1  0
  3  8  1  0
  3  9  1  0
 10 11  1  0
 10 16  1  0
 10 17  1  0
 11 12  1  0
 11 18  1  0
 11 19  1  0
 12 13  1  0
 13 14  1  0
 13 20  1  0
 13 21  1  0
 14 22  1  0
 14 23  1  0
 14 24  1  0
M  RAD  2   1   2  10   2
M  END
>  <reaction>  (12) 
rmg_rxn_15

>  <mol_properties>  (12) 
{"0": {"label": "*3", "atom_type": "Cs"}, "1": {"label": "*4", "atom_type": "Cs"}, "9": {"label": "*1", "atom_type": "Cs"}, "10": {"label": "*0", "atom_type": "Cs"}, "14": {"label": "*2", "atom_type": "H0"}}

>  <type>  (12) 
unop_8

>  <geom_source>  (12) 
Heuristics

$$$$

     RDKit          3D

 24 22  0  0  0  0  0  0  0  0999 V2000
    1.7079   -1.0191   -0.3487 C   0  0  0  0  0  3  0  0  0  0  0  0
    0.4500   -1.7525   -0.6326 C   0  0  0  0  0  0  0  0  0  0  0  0
    0.6714   -3.1772   -1.1287 C   0  0  0  0  0  0  0  0  0  0  0  0
    2.6417   -1.5499   -0.2137 H   0  0  0  0  0  0  0  0  0  0  0  0
   -0.1738   -1.7811    0.2740 H   0  0  0  0  0  0  0  0  0  0  0  0
   -0.1471   -1.1925   -1.3620 H   0  0  0  0  0  0  0  0  0  0  0  0
    1.2306   -3.7609   -0.3943 H   0  0  0  0  0  0  0  0  0  0  0  0
    1.2402   -3.1808   -2.0604 H   0  0  0  0  0  0  0  0  0  0  0  0
   -0.2767   -3.6856   -1.3094 H   0  0  0  0  0  0  0  0  0  0  0  0
    1.6572    1.3509    0.7378 C   0  0  0  0  0  3  0  0  0  0  0  0
    0.3963    2.1098    0.3586 C   0  0  0  0  0  0  0  0  0  0  0  0
   -1.1443    1.3958    0.9871 S   0  0  0  0  0  0  0  0  0  0  0  0
   -1.1443   -0.2453    0.2223 C   0  0  0  0  0  0  0  0  0  0  0  0
   -1.1443   -0.2453   -1.2975 C   0  0  0  0  0  0  0  0  0  0  0  0
    1.6827    0.1607    0.1921 H   0  0  0  0  0  0  0  0  0  0  0  0
    2.5420    1.8893    0.3908 H   0  0  0  0  0  0  0  0  0  0  0  0
    1.7279    1.2289    1.8192 H   0  0  0  0  0  0  0  0  0  0  0  0
    0.4114    3.1129    0.7878 H   0  0  0  0  0  0  0  0  0  0  0  0
    0.3251    2.2320   -0.7235 H   0  0  0  0  0  0  0  0  0  0  0  0
   -0.3081   -0.8279    0.6123 H   0  0  0  0  0  0  0  0  0  0  0  0
   -2.0555   -0.7091    0.6035 H   0  0  0  0  0  0  0  0  0  0  0  0
   -0.2213    0.1783   -1.6969 H   0  0  0  0  0  0  0  0  0  0  0  0
   -1.9800    0.3372   -1.6869 H   0  0  0  0  0  0  0  0  0  0  0  0
   -1.2268   -1.2664   -1.6761 H   0  0  0  0  0  0  0  0  0  0  0  0
  1  2  1  0
  1  4  1  0
  1 15  1  0
  2  3  1  0
  2  5  1  0
  2  6  1  0
  3  7  1  0
  3  8  1  0
  3  9  1  0
 10 11  1  0
 10 16  1  0
 10 17  1  0
 11 12  1  0
 11 18  1  0
 11 19  1  0
 12 13  1  0
 13 14  1  0
 13 20  1  0
 13 21  1  0
 14 22  1  0
 14 23  1  0
 14 24  1  0
M  RAD  2   1   2  10   2
M  END
>  <reaction>  (13) 
rmg_rxn_15

>  <mol_properties>  (13) 
{"0": {"label": "*3", "atom_type": "Cs"}, "1": {"label": "*4", "atom_type": "Cs"}, "9": {"label": "*1", "atom_type": "Cs"}, "10": {"label": "*0", "atom_type": "Cs"}, "14": {"label": "*2", "atom_type": "H0"}}

>  <type>  (13) 
unop_9

>  <geom_source>  (13) 
Heuristics

$$$$

     RDKit          3D

 24 22  0  0  0  0  0  0  0  0999 V2000
    1.3474   -1.1910   -0.0800 C   0  0  0  0  0  3  0  0  0  0  0  0
    1.3147   -1.3524   -1.5544 C   0  0  0  0  0  0  0  0  0  0  0  0
    2.3052   -2.3865   -2.0784 C   0  0  0  0  0  0  0  0  0  0  0  0
    1.7974   -1.9465    0.5514 H   0  0  0  0  0  0  0  0  0  0  0  0
    0.2993   -1.6344   -1.8728 H   0  0  0  0  0  0  0  0  0  0  0  0
    1.4970   -0.3843   -2.0358 H   0  0  0  0  0  0  0  0  0  0  0  0
    2.1109   -3.3671   -1.6386 H   0  0  0  0  0  0  0  0  0  0  0  0
    3.3298   -2.1058   -1.8279 H   0  0  0  0  0  0  0  0  0  0  0  0
    2.2374   -2.4861   -3.1627 H   0  0  0  0  0  0  0  0  0  0  0  0
    1.2967    1.1790    1.0064 C   0  0  0  0  0  3  0  0  0  0  0  0
    0.0358    1.9379    0.6272 C   0  0  0  0  0  0  0  0  0  0  0  0
   -1.5048    1.2239    1.2558 S   0  0  0  0  0  0  0  0  0  0  0  0
   -1.5048   -0.4171    0.4909 C   0  0  0  0  0  0  0  0  0  0  0  0
   -1.5048   -0.4171   -1.0288 C   0  0  0  0  0  0  0  0  0  0  0  0
    1.3222   -0.0112    0.4608 H   0  0  0  0  0  0  0  0  0  0  0  0
    2.1814    1.7174    0.6595 H   0  0  0  0  0  0  0  0  0  0  0  0
    1.3674    1.0570    2.0878 H   0  0  0  0  0  0  0  0  0  0  0  0
    0.0509    2.9410    1.0565 H   0  0  0  0  0  0  0  0  0  0  0  0
   -0.0354    2.0601   -0.4548 H   0  0  0  0  0  0  0  0  0  0  0  0
   -0.6686   -0.9998    0.8810 H   0  0  0  0  0  0  0  0  0  0  0  0
   -2.4160   -0.8810    0.8722 H   0  0  0  0  0  0  0  0  0  0  0  0
   -0.5818    0.0064   -1.4282 H   0  0  0  0  0  0  0  0  0  0  0  0
   -2.3405    0.1653   -1.4182 H   0  0  0  0  0  0  0  0  0  0  0  0
   -1.5874   -1.4383   -1.4075 H   0  0  0  0  0  0  0  0  0  0  0  0
  1  2  1  0
  1  4  1  0
  1 15  1  0
  2  3  1  0
  2  5  1  0
  2  6  1  0
  3  7  1  0
  3  8  1  0
  3  9  1  0
 10 11  1  0
 10 16  1  0
 10 17  1  0
 11 12  1  0
 11 18  1  0
 11 19  1  0
 12 13  1  0
 13 14  1  0
 13 20  1  0
 13 21  1  0
 14 22  1  0
 14 23  1  0
 14 24  1  0
M  RAD  2   1   2  10   2
M  END
>  <reaction>  (14) 
rmg_rxn_15

>  <mol_properties>  (14) 
{"0": {"label": "*3", "atom_type": "Cs"}, "1": {"label": "*4", "atom_type": "Cs"}, "9": {"label": "*1", "atom_type": "Cs"}, "10": {"label": "*0", "atom_type": "Cs"}, "14": {"label": "*2", "atom_type": "H0"}}

>  <type>  (14) 
unop_10

>  <geom_source>  (14) 
Heuristics

$$$$

     RDKit          3D

 24 22  0  0  0  0  0  0  0  0999 V2000
    1.2458   -0.9732   -0.5021 C   0  0  0  0  0  3  0  0  0  0  0  0
    1.9381   -2.1017    0.1671 C   0  0  0  0  0  0  0  0  0  0  0  0
    2.4008   -3.1915   -0.7938 C   0  0  0  0  0  0  0  0  0  0  0  0
    1.3484   -0.8122   -1.5678 H   0  0  0  0  0  0  0  0  0  0  0  0
    2.8078   -1.7228    0.7256 H   0  0  0  0  0  0  0  0  0  0  0  0
    1.2837   -2.5339    0.9334 H   0  0  0  0  0  0  0  0  0  0  0  0
    3.0865   -2.7847   -1.5402 H   0  0  0  0  0  0  0  0  0  0  0  0
    1.5525   -3.6289   -1.3237 H   0  0  0  0  0  0  0  0  0  0  0  0
    2.9184   -3.9928   -0.2645 H   0  0  0  0  0  0  0  0  0  0  0  0
    1.1951    1.3969    0.5843 C   0  0  0  0  0  3  0  0  0  0  0  0
   -0.0658    2.1557    0.2051 C   0  0  0  0  0  0  0  0  0  0  0  0
   -1.6064    1.4418    0.8337 S   0  0  0  0  0  0  0  0  0  0  0  0
   -1.6064   -0.1993    0.0688 C   0  0  0  0  0  0  0  0  0  0  0  0
   -1.6064   -0.1993   -1.4509 C   0  0  0  0  0  0  0  0  0  0  0  0
    1.2206    0.2066    0.0387 H   0  0  0  0  0  0  0  0  0  0  0  0
    2.0798    1.9353    0.2374 H   0  0  0  0  0  0  0  0  0  0  0  0
    1.2658    1.2748    1.6657 H   0  0  0  0  0  0  0  0  0  0  0  0
   -0.0507    3.1589    0.6344 H   0  0  0  0  0  0  0  0  0  0  0  0
   -0.1370    2.2779   -0.8769 H   0  0  0  0  0  0  0  0  0  0  0  0
   -0.7702   -0.7819    0.4588 H   0  0  0  0  0  0  0  0  0  0  0  0
   -2.5176   -0.6632    0.4501 H   0  0  0  0  0  0  0  0  0  0  0  0
   -0.6834    0.2243   -1.8503 H   0  0  0  0  0  0  0  0  0  0  0  0
   -2.4421    0.3832   -1.8403 H   0  0  0  0  0  0  0  0  0  0  0  0
   -1.6890   -1.2205   -1.8296 H   0  0  0  0  0  0  0  0  0  0  0  0
  1  2  1  0
  1  4  1  0
  1 15  1  0
  2  3  1  0
  2  5  1  0
  2  6  1  0
  3  7  1  0
  3  8  1  0
  3  9  1  0
 10 11  1  0
 10 16  1  0
 10 17  1  0
 11 12  1  0
 11 18  1  0
 11 19  1  0
 12 13  1  0
 13 14  1  0
 13 20  1  0
 13 21  1  0
 14 22  1  0
 14 23  1  0
 14 24  1  0
M  RAD  2   1   2  10   2
M  END
>  <reaction>  (15) 
rmg_rxn_15

>  <mol_properties>  (15) 
{"0": {"label": "*3", "atom_type": "Cs"}, "1": {"label": "*4", "atom_type": "Cs"}, "9": {"label": "*1", "atom_type": "Cs"}, "10": {"label": "*0", "atom_type": "Cs"}, "14": {"label": "*2", "atom_type": "H0"}}

>  <type>  (15) 
unop_11

>  <geom_source>  (15) 
Heuristics

$$$$

     RDKit          3D

 24 22  0  0  0  0  0  0  0  0999 V2000
    1.6650   -1.0958   -0.1869 C   0  0  0  0  0  3  0  0  0  0  0  0
    0.5538   -1.5587   -1.0540 C   0  0  0  0  0  0  0  0  0  0  0  0
    0.8701   -2.8367   -1.8232 C   0  0  0  0  0  0  0  0  0  0  0  0
    2.4678   -1.7663    0.0923 H   0  0  0  0  0  0  0  0  0  0  0  0
   -0.3481   -1.7209   -0.4439 H   0  0  0  0  0  0  0  0  0  0  0  0
    0.2752   -0.7619   -1.7538 H   0  0  0  0  0  0  0  0  0  0  0  0
    1.1104   -3.6523   -1.1378 H   0  0  0  0  0  0  0  0  0  0  0  0
    1.7278   -2.6919   -2.4827 H   0  0  0  0  0  0  0  0  0  0  0  0
    0.0229   -3.1512   -2.4344 H   0  0  0  0  0  0  0  0  0  0  0  0
    1.6143    1.2742    0.8995 C   0  0  0  0  0  3  0  0  0  0  0  0
    0.3534    2.0330    0.5203 C   0  0  0  0  0  0  0  0  0  0  0  0
   -1.1872    1.3191    1.1489 S   0  0  0  0  0  0  0  0  0  0  0  0
   -1.1872   -0.3220    0.3840 C   0  0  0  0  0  0  0  0  0  0  0  0
   -1.1872   -0.3220   -1.1357 C   0  0  0  0  0  0  0  0  0  0  0  0
    1.6398    0.0840    0.3539 H   0  0  0  0  0  0  0  0  0  0  0  0
    2.4991    1.8126    0.5526 H   0  0  0  0  0  0  0  0  0  0  0  0
    1.6850    1.1522    1.9809 H   0  0  0  0  0  0  0  0  0  0  0  0
    0.3685    3.0362    0.9496 H   0  0  0  0  0  0  0  0  0  0  0  0
    0.2823    2.1553   -0.5617 H   0  0  0  0  0  0  0  0  0  0  0  0
   -0.3510   -0.9046    0.7741 H   0  0  0  0  0  0  0  0  0  0  0  0
   -2.0984   -0.7858    0.7653 H   0  0  0  0  0  0  0  0  0  0  0  0
   -0.2642    0.1016   -1.5351 H   0  0  0  0  0  0  0  0  0  0  0  0
   -2.0229    0.2605   -1.5251 H   0  0  0  0  0  0  0  0  0  0  0  0
   -1.2697   -1.3431   -1.5144 H   0  0  0  0  0  0  0  0  0  0  0  0
  1  2  1  0
  1  4  1  0
  1 15  1  0
  2  3  1  0
  2  5  1  0
  2  6  1  0
  3  7  1  0
  3  8  1  0
  3  9  1  0
 10 11  1  0
 10 16  1  0
 10 17  1  0
 11 12  1  0
 11 18  1  0
 11 19  1  0
 12 13  1  0
 13 14  1  0
 13 20  1  0
 13 21  1  0
 14 22  1  0
 14 23  1  0
 14 24  1  0
M  RAD  2   1   2  10   2
M  END
>  <reaction>  (16) 
rmg_rxn_15

>  <mol_properties>  (16) 
{"0": {"label": "*3", "atom_type": "Cs"}, "1": {"label": "*4", "atom_type": "Cs"}, "9": {"label": "*1", "atom_type": "Cs"}, "10": {"label": "*0", "atom_type": "Cs"}, "14": {"label": "*2", "atom_type": "H0"}}

>  <type>  (16) 
unop_12

>  <geom_source>  (16) 
Heuristics

$$$$

     RDKit          3D

 24 22  0  0  0  0  0  0  0  0999 V2000
   -1.3570   -0.0879   -1.2615 S   0  0  0  0  0  0  0  0  0  0  0  0
    3.2660    0.2248    0.0350 C   0  0  0  0  0  0  0  0  0  0  0  0
   -3.0857    0.3369   -0.8455 C   0  0  0  0  0  0  0  0  0  0  0  0
   -1.1188   -1.2799    0.0989 C   0  0  0  0  0  0  0  0  0  0  0  0
    2.6076    1.3102    0.8768 C   0  0  0  0  0  0  0  0  0  0  0  0
   -3.1338    1.4721    0.1688 C   0  0  0  0  0  0  0  0  0  0  0  0
    2.2525   -0.4144   -0.9015 C   0  0  0  0  0  2  0  0  0  0  0  0
    0.2948   -1.8311    0.0449 C   0  0  0  0  0  0  0  0  0  0  0  0
    4.0858    0.6732   -0.5659 H   0  0  0  0  0  0  0  0  0  0  0  0
    3.6953   -0.5540    0.7010 H   0  0  0  0  0  0  0  0  0  0  0  0
   -3.6338   -0.5472   -0.4559 H   0  0  0  0  0  0  0  0  0  0  0  0
   -3.5929    0.6685   -1.7759 H   0  0  0  0  0  0  0  0  0  0  0  0
    1.8007    0.8758    1.5050 H   0  0  0  0  0  0  0  0  0  0  0  0
    2.1788    2.0985    0.2216 H   0  0  0  0  0  0  0  0  0  0  0  0
    3.3650    1.7743    1.5430 H   0  0  0  0  0  0  0  0  0  0  0  0
   -2.6681    1.1603    1.1262 H   0  0  0  0  0  0  0  0  0  0  0  0
   -2.5979    2.3609   -0.2266 H   0  0  0  0  0  0  0  0  0  0  0  0
   -4.1907    1.7510    0.3642 H   0  0  0  0  0  0  0  0  0  0  0  0
   -1.2696   -0.7749    1.0752 H   0  0  0  0  0  0  0  0  0  0  0  0
   -1.8428   -2.1166    0.0009 H   0  0  0  0  0  0  0  0  0  0  0  0
    2.7546   -1.1630   -1.5499 H   0  0  0  0  0  0  0  0  0  0  0  0
    1.2661   -1.0357   -0.1758 H   0  0  0  0  0  0  0  0  0  0  0  0
    0.4563   -2.3852   -0.9042 H   0  0  0  0  0  0  0  0  0  0  0  0
    0.4677   -2.5165    0.9012 H   0  0  0  0  0  0  0  0  0  0  0  0
  1  3  1  0
  1  4  1  0
  2  7  1  0
  2  5  1  0
  2  9  1  0
  2 10  1  0
  3  6  1  0
  3 11  1  0
  3 12  1  0
  4  8  1  0
  4 19  1  0
  4 20  1  0
  5 13  1  0
  5 14  1  0
  5 15  1  0
  6 16  1  0
  6 17  1  0
  6 18  1  0
  7 21  1  0
  8 22  1  0
  8 23  1  0
  8 24  1  0
M  RAD  1   7   3
M  END
>  <reaction>  (17) 
rmg_rxn_15

>  <mol_properties>  (17) 
{"0": {"label": "*3", "atom_type": "Cs"}, "1": {"label": "*4", "atom_type": "Cs"}, "9": {"label": "*1", "atom_type": "Cs"}, "10": {"label": "*0", "atom_type": "Cs"}, "14": {"label": "*2", "atom_type": "H0"}}

>  <type>  (17) 
unop_13

>  <geom_source>  (17) 
AutoTST

$$$$

     RDKit          3D

 24 22  0  0  0  0  0  0  0  0999 V2000
    1.5257   -1.1622   -0.0842 C   0  0  0  0  0  3  0  0  0  0  0  0
    0.8630   -1.4158   -1.3870 C   0  0  0  0  0  0  0  0  0  0  0  0
    1.5227   -2.5216   -2.2036 C   0  0  0  0  0  0  0  0  0  0  0  0
    2.1948   -1.8940    0.3502 H   0  0  0  0  0  0  0  0  0  0  0  0
   -0.1938   -1.6748   -1.2198 H   0  0  0  0  0  0  0  0  0  0  0  0
    0.8317   -0.4888   -1.9717 H   0  0  0  0  0  0  0  0  0  0  0  0
    1.5252   -3.4632   -1.6503 H   0  0  0  0  0  0  0  0  0  0  0  0
    2.5588   -2.2686   -2.4359 H   0  0  0  0  0  0  0  0  0  0  0  0
    0.9960   -2.6872   -3.1445 H   0  0  0  0  0  0  0  0  0  0  0  0
    1.4750    1.2078    1.0023 C   0  0  0  0  0  3  0  0  0  0  0  0
    0.2141    1.9667    0.6231 C   0  0  0  0  0  0  0  0  0  0  0  0
   -1.3265    1.2527    1.2517 S   0  0  0  0  0  0  0  0  0  0  0  0
   -1.3265   -0.3883    0.4868 C   0  0  0  0  0  0  0  0  0  0  0  0
   -1.3265   -0.3883   -1.0329 C   0  0  0  0  0  0  0  0  0  0  0  0
    1.5005    0.0176    0.4567 H   0  0  0  0  0  0  0  0  0  0  0  0
    2.3597    1.7462    0.6554 H   0  0  0  0  0  0  0  0  0  0  0  0
    1.5457    1.0858    2.0837 H   0  0  0  0  0  0  0  0  0  0  0  0
    0.2291    2.9698    1.0524 H   0  0  0  0  0  0  0  0  0  0  0  0
    0.1429    2.0889   -0.4590 H   0  0  0  0  0  0  0  0  0  0  0  0
   -0.4903   -0.9710    0.8768 H   0  0  0  0  0  0  0  0  0  0  0  0
   -2.2377   -0.8522    0.8681 H   0  0  0  0  0  0  0  0  0  0  0  0
   -0.4035    0.0352   -1.4324 H   0  0  0  0  0  0  0  0  0  0  0  0
   -2.1622    0.1941   -1.4223 H   0  0  0  0  0  0  0  0  0  0  0  0
   -1.4091   -1.4095   -1.4116 H   0  0  0  0  0  0  0  0  0  0  0  0
  1  2  1  0
  1  4  1  0
  1 15  1  0
  2  3  1  0
  2  5  1  0
  2  6  1  0
  3  7  1  0
  3  8  1  0
  3  9  1  0
 10 11  1  0
 10 16  1  0
 10 17  1  0
 11 12  1  0
 11 18  1  0
 11 19  1  0
 12 13  1  0
 13 14  1  0
 13 20  1  0
 13 21  1  0
 14 22  1  0
 14 23  1  0
 14 24  1  0
M  RAD  2   1   2  10   2
M  END
>  <reaction>  (18) 
rmg_rxn_15

>  <mol_properties>  (18) 
{"0": {"label": "*3", "atom_type": "Cs"}, "1": {"label": "*4", "atom_type": "Cs"}, "9": {"label": "*1", "atom_type": "Cs"}, "10": {"label": "*0", "atom_type": "Cs"}, "14": {"label": "*2", "atom_type": "H0"}}

>  <type>  (18) 
unop_14

>  <geom_source>  (18) 
gaussian_log

$$$$
