
     RDKit          3D

  9  8  0  0  0  0  0  0  0  0999 V2000
    2.0310   -0.2313    0.2972 O   0  0  0  0  0  0  0  0  0  0  0  0
    0.7181   -0.4900   -0.1228 N   0  0  0  0  0  0  0  0  0  0  0  0
   -0.2116    0.4372    0.3498 C   0  0  0  0  0  0  0  0  0  0  0  0
    0.0407    1.6423    0.8420 C   0  0  0  0  0  0  0  0  0  0  0  0
    2.4997   -0.0381   -0.5177 H   0  0  0  0  0  0  0  0  0  0  0  0
    0.4970   -1.4356    0.1600 H   0  0  0  0  0  0  0  0  0  0  0  0
   -1.2274    0.0806    0.2121 H   0  0  0  0  0  0  0  0  0  0  0  0
    1.0509    1.9968    0.9864 H   0  0  0  0  0  0  0  0  0  0  0  0
   -0.7793    2.2911    1.1115 H   0  0  0  0  0  0  0  0  0  0  0  0
  1  2  1  0
  1  5  1  0
  2  3  1  0
  2  6  1  0
  3  4  2  3
  3  7  1  0
  4  8  1  0
  4  9  1  0
M  END
>  <reaction>  (1) 
rmg_rxn_16700

>  <mol_properties>  (1) 
{"1": {"label": "donator", "atom_type": "N3s"}, "5": {"label": "d_hydrogen", "atom_type": "H0"}}

>  <type>  (1) 
r1h

$$$$

     RDKit          3D

  7  6  0  0  0  0  0  0  0  0999 V2000
   -0.6441   -0.1356    0.0624 C   0  0  0  0  0  0  0  0  0  0  0  0
    0.8523    0.0148   -0.0333 C   0  0  0  0  0  0  0  0  0  0  0  0
    1.6700   -0.6077    0.6603 N   0  0  0  0  0  2  0  0  0  0  0  0
   -1.0940    0.8275    0.3091 H   0  0  0  0  0  0  0  0  0  0  0  0
   -0.9104   -0.8656    0.8237 H   0  0  0  0  0  0  0  0  0  0  0  0
   -1.0427   -0.4545   -0.9022 H   0  0  0  0  0  0  0  0  0  0  0  0
    1.2362    0.7308   -0.7748 H   0  0  0  0  0  0  0  0  0  0  0  0
  1  2  1  0
  1  4  1  0
  1  5  1  0
  1  6  1  0
  2  3  2  0
  2  7  1  0
M  RAD  1   3   2
M  END
>  <reaction>  (2) 
rmg_rxn_16700

>  <mol_properties>  (2) 
{"2": {"label": "acceptor", "atom_type": "N3d"}}

>  <type>  (2) 
r2

$$$$

     RDKit          3D

  8  7  0  0  0  0  0  0  0  0999 V2000
    0.9548    0.1194   -0.0790 C   0  0  0  0  0  0  0  0  0  0  0  0
   -0.4838   -0.2649    0.0193 C   0  0  0  0  0  0  0  0  0  0  0  0
   -0.8933   -1.1081    0.8664 N   0  0  0  0  0  0  0  0  0  0  0  0
    1.3360   -0.0983   -1.0800 H   0  0  0  0  0  0  0  0  0  0  0  0
    1.0698    1.1948    0.0786 H   0  0  0  0  0  0  0  0  0  0  0  0
    1.5426   -0.4219    0.6602 H   0  0  0  0  0  0  0  0  0  0  0  0
   -1.1575    0.2324   -0.6905 H   0  0  0  0  0  0  0  0  0  0  0  0
   -1.8989   -1.2455    0.7886 H   0  0  0  0  0  0  0  0  0  0  0  0
  1  2  1  0
  1  4  1  0
  1  5  1  0
  1  6  1  0
  2  3  2  3
  2  7  1  0
  3  8  1  0
M  END
>  <reaction>  (3) 
rmg_rxn_16700

>  <mol_properties>  (3) 
{"2": {"label": "acceptor", "atom_type": "N3d"}, "7": {"label": "a_hydrogen", "atom_type": "H0"}}

>  <type>  (3) 
r2h

$$$$

     RDKit          3D

 16 14  0  0  0  0  0  0  0  0999 V2000
    2.5312   -1.7897    0.0078 C   0  0  0  0  0  0  0  0  0  0  0  0
    1.2009   -1.1017    0.1132 C   0  0  0  0  0  0  0  0  0  0  0  0
    0.2313   -1.5610    0.7496 N   0  0  0  0  0  2  0  0  0  0  0  0
    2.7591   -1.9855   -1.0421 H   0  0  0  0  0  0  0  0  0  0  0  0
    2.5291   -2.7261    0.5618 H   0  0  0  0  0  0  0  0  0  0  0  0
    3.3147   -1.1355    0.3960 H   0  0  0  0  0  0  0  0  0  0  0  0
    1.1128   -0.1348   -0.4147 H   0  0  0  0  0  0  0  0  0  0  0  0
   -1.6805   -0.0141   -1.1041 O   0  0  0  0  0  0  0  0  0  0  0  0
   -1.5208    0.1313    0.2720 N   0  0  0  0  0  0  0  0  0  0  0  0
   -0.8993    1.3233    0.5593 C   0  0  0  0  0  0  0  0  0  0  0  0
   -0.6369    2.3282   -0.2845 C   0  0  0  0  0  0  0  0  0  0  0  0
   -2.3913   -0.6545   -1.1833 H   0  0  0  0  0  0  0  0  0  0  0  0
   -0.8210   -0.7620    0.6392 H   0  0  0  0  0  0  0  0  0  0  0  0
   -0.6332    1.3832    1.6090 H   0  0  0  0  0  0  0  0  0  0  0  0
   -0.9057    2.2758   -1.3292 H   0  0  0  0  0  0  0  0  0  0  0  0
   -0.1829    3.2345    0.0890 H   0  0  0  0  0  0  0  0  0  0  0  0
  1  2  1  0
  1  4  1  0
  1  5  1  0
  1  6  1  0
  2  3  2  0
  2  7  1  0
  8  9  1  0
  8 12  1  0
  9 10  1  0
  9 13  1  0
 10 11  2  3
 10 14  1  0
 11 15  1  0
 11 16  1  0
M  RAD  1   3   2
M  END
>  <reaction>  (4) 
rmg_rxn_16700

>  <mol_properties>  (4) 
{"1": {"label": "*4", "atom_type": "Cd"}, "2": {"label": "*3", "atom_type": "N3d"}, "8": {"label": "*1", "atom_type": "N3s"}, "9": {"label": "*0", "atom_type": "Cd"}, "12": {"label": "*2", "atom_type": "H0"}}

>  <type>  (4) 
ts

$$$$

     RDKit          3D

 16 14  0  0  0  0  0  0  0  0999 V2000
    1.7808    1.2036    0.6894 C   0  0  0  0  0  0  0  0  0  0  0  0
    2.2401    0.0999   -0.2172 C   0  0  0  0  0  0  0  0  0  0  0  0
    1.5791   -0.8065   -0.7457 N   0  0  0  0  0  0  0  0  0  0  0  0
    2.3880    1.2082    1.5927 H   0  0  0  0  0  0  0  0  0  0  0  0
    0.7344    1.0893    0.9577 H   0  0  0  0  0  0  0  0  0  0  0  0
    1.9198    2.1591    0.1853 H   0  0  0  0  0  0  0  0  0  0  0  0
    3.3145    0.1222   -0.4277 H   0  0  0  0  0  0  0  0  0  0  0  0
   -0.9641   -0.9308    1.1331 O   0  0  0  0  0  0  0  0  0  0  0  0
   -0.8306   -0.8073   -0.2586 N   0  0  0  0  0  0  0  0  0  0  0  0
   -1.4560    0.2661   -0.7839 C   0  0  0  0  0  0  0  0  0  0  0  0
   -2.2797    1.1202   -0.1484 C   0  0  0  0  0  3  0  0  0  0  0  0
   -0.7286   -1.8495    1.3218 H   0  0  0  0  0  0  0  0  0  0  0  0
    0.4038   -0.8465   -0.5522 H   0  0  0  0  0  0  0  0  0  0  0  0
   -1.2594    0.3503   -1.8449 H   0  0  0  0  0  0  0  0  0  0  0  0
   -2.4734    1.0222    0.9051 H   0  0  0  0  0  0  0  0  0  0  0  0
   -2.7964    1.8942   -0.6839 H   0  0  0  0  0  0  0  0  0  0  0  0
  1  2  1  0
  1  4  1  0
  1  5  1  0
  1  6  1  0
  2  3  2  3
  2  7  1  0
  3 13  1  0
  8  9  1  0
  8 12  1  0
  9 10  2  3
 10 11  1  0
 10 14  1  0
 11 15  1  0
 11 16  1  0
M  RAD  1  11   2
M  END
>  <reaction>  (5) 
rmg_rxn_16700

>  <mol_properties>  (5) 
{"1": {"label": "*4", "atom_type": "Cd"}, "2": {"label": "*3", "atom_type": "N3d"}, "8": {"label": "*1", "atom_type": "N3s"}, "9": {"label": "*0", "atom_type": "Cd"}, "12": {"label": "*2", "atom_type": "H0"}}

>  <type>  (5) 
unop_1

>  <geom_source>  (5) 
crest_best.xyz

$$$$

     RDKit          3D

 16 14  0  0  0  0  0  0  0  0999 V2000
    2.2760   -1.2379    2.1278 C   0  0  0  0  0  0  0  0  0  0  0  0
    1.6330   -0.6972    0.8944 C   0  0  0  0  0  0  0  0  0  0  0  0
    0.8380   -1.3892    0.1977 N   0  0  0  0  0  2  0  0  0  0  0  0
    3.3643   -1.2053    2.0314 H   0  0  0  0  0  0  0  0  0  0  0  0
    1.9564   -2.2637    2.3029 H   0  0  0  0  0  0  0  0  0  0  0  0
    2.0143   -0.6210    2.9913 H   0  0  0  0  0  0  0  0  0  0  0  0
    1.8965    0.3364    0.6358 H   0  0  0  0  0  0  0  0  0  0  0  0
   -1.0774   -0.0659   -1.9191 O   0  0  0  0  0  0  0  0  0  0  0  0
   -1.0774   -0.0659   -0.5165 N   0  0  0  0  0  0  0  0  0  0  0  0
   -1.0774    1.2132    0.0412 C   0  0  0  0  0  0  0  0  0  0  0  0
   -1.3941    2.3494   -0.5647 C   0  0  0  0  0  0  0  0  0  0  0  0
   -1.9182   -0.4671   -2.1495 H   0  0  0  0  0  0  0  0  0  0  0  0
   -0.1228   -0.7255   -0.1605 H   0  0  0  0  0  0  0  0  0  0  0  0
   -0.8372    1.1809    1.0991 H   0  0  0  0  0  0  0  0  0  0  0  0
   -1.6269    2.3852   -1.6190 H   0  0  0  0  0  0  0  0  0  0  0  0
   -1.4185    3.2679    0.0026 H   0  0  0  0  0  0  0  0  0  0  0  0
  1  2  1  0
  1  4  1  0
  1  5  1  0
  1  6  1  0
  2  3  2  0
  2  7  1  0
  8  9  1  0
  8 12  1  0
  9 10  1  0
  9 13  1  0
 10 11  2  3
 10 14  1  0
 11 15  1  0
 11 16  1  0
M  RAD  1   3   2
M  END
>  <reaction>  (6) 
rmg_rxn_16700

>  <mol_properties>  (6) 
{"1": {"label": "*4", "atom_type": "Cd"}, "2": {"label": "*3", "atom_type": "N3d"}, "8": {"label": "*1", "atom_type": "N3s"}, "9": {"label": "*0", "atom_type": "Cd"}, "12": {"label": "*2", "atom_type": "H0"}}

>  <type>  (6) 
unop_2

>  <geom_source>  (6) 
Heuristics

$$$$

     RDKit          3D

 16 14  0  0  0  0  0  0  0  0999 V2000
    3.0280   -1.5213    0.2819 C   0  0  0  0  0  0  0  0  0  0  0  0
    1.6217   -1.1702   -0.0730 C   0  0  0  0  0  0  0  0  0  0  0  0
    0.6833   -1.2385    0.7702 N   0  0  0  0  0  2  0  0  0  0  0  0
    3.3873   -2.3322   -0.3570 H   0  0  0  0  0  0  0  0  0  0  0  0
    3.0906   -1.8249    1.3254 H   0  0  0  0  0  0  0  0  0  0  0  0
    3.6856   -0.6654    0.1100 H   0  0  0  0  0  0  0  0  0  0  0  0
    1.4596   -0.8505   -1.1105 H   0  0  0  0  0  0  0  0  0  0  0  0
   -1.2321    0.0848   -1.3466 O   0  0  0  0  0  0  0  0  0  0  0  0
   -1.2321    0.0848    0.0560 N   0  0  0  0  0  0  0  0  0  0  0  0
   -1.2321    1.3640    0.6137 C   0  0  0  0  0  0  0  0  0  0  0  0
   -1.5487    2.5001    0.0079 C   0  0  0  0  0  0  0  0  0  0  0  0
   -2.0729   -0.3164   -1.5769 H   0  0  0  0  0  0  0  0  0  0  0  0
   -0.2775   -0.5747    0.4120 H   0  0  0  0  0  0  0  0  0  0  0  0
   -0.9919    1.3316    1.6717 H   0  0  0  0  0  0  0  0  0  0  0  0
   -1.7816    2.5359   -1.0465 H   0  0  0  0  0  0  0  0  0  0  0  0
   -1.5732    3.4187    0.5751 H   0  0  0  0  0  0  0  0  0  0  0  0
  1  2  1  0
  1  4  1  0
  1  5  1  0
  1  6  1  0
  2  3  2  0
  2  7  1  0
  8  9  1  0
  8 12  1  0
  9 10  1  0
  9 13  1  0
 10 11  2  3
 10 14  1  0
 11 15  1  0
 11 16  1  0
M  RAD  1   3   2
M  END
>  <reaction>  (7) 
rmg_rxn_16700

>  <mol_properties>  (7) 
{"1": {"label": "*4", "atom_type": "Cd"}, "2": {"label": "*3", "atom_type": "N3d"}, "8": {"label": "*1", "atom_type": "N3s"}, "9": {"label": "*0", "atom_type": "Cd"}, "12": {"label": "*2", "atom_type": "H0"}}

>  <type>  (7) 
unop_3

>  <geom_source>  (7) 
Heuristics

$$$$

     RDKit          3D

 16 14  0  0  0  0  0  0  0  0999 V2000
    2.0278   -1.7654    2.2061 C   0  0  0  0  0  0  0  0  0  0  0  0
    1.3836   -0.8422    1.2264 C   0  0  0  0  0  0  0  0  0  0  0  0
    0.9381   -1.2511    0.1171 N   0  0  0  0  0  2  0  0  0  0  0  0
    3.0501   -1.4401    2.4153 H   0  0  0  0  0  0  0  0  0  0  0  0
    2.0416   -2.7816    1.8162 H   0  0  0  0  0  0  0  0  0  0  0  0
    1.4867   -1.7454    3.1556 H   0  0  0  0  0  0  0  0  0  0  0  0
    1.3238    0.2097    1.5340 H   0  0  0  0  0  0  0  0  0  0  0  0
   -0.9773    0.0722   -1.9997 O   0  0  0  0  0  0  0  0  0  0  0  0
   -0.9773    0.0722   -0.5972 N   0  0  0  0  0  0  0  0  0  0  0  0
   -0.9773    1.3513   -0.0395 C   0  0  0  0  0  0  0  0  0  0  0  0
   -1.2940    2.4875   -0.6453 C   0  0  0  0  0  0  0  0  0  0  0  0
   -1.8181   -0.3290   -2.2301 H   0  0  0  0  0  0  0  0  0  0  0  0
   -0.0227   -0.5873   -0.2412 H   0  0  0  0  0  0  0  0  0  0  0  0
   -0.7371    1.3190    1.0185 H   0  0  0  0  0  0  0  0  0  0  0  0
   -1.5268    2.5233   -1.6996 H   0  0  0  0  0  0  0  0  0  0  0  0
   -1.3184    3.4061   -0.0781 H   0  0  0  0  0  0  0  0  0  0  0  0
  1  2  1  0
  1  4  1  0
  1  5  1  0
  1  6  1  0
  2  3  2  0
  2  7  1  0
  8  9  1  0
  8 12  1  0
  9 10  1  0
  9 13  1  0
 10 11  2  3
 10 14  1  0
 11 15  1  0
 11 16  1  0
M  RAD  1   3   2
M  END
>  <reaction>  (8) 
rmg_rxn_16700

>  <mol_properties>  (8) 
{"1": {"label": "*4", "atom_type": "Cd"}, "2": {"label": "*3", "atom_type": "N3d"}, "8": {"label": "*1", "atom_type": "N3s"}, "9": {"label": "*0", "atom_type": "Cd"}, "12": {"label": "*2", "atom_type": "H0"}}

>  <type>  (8) 
unop_4

>  <geom_source>  (8) 
Heuristics

$$$$

     RDKit          3D

 16 14  0  0  0  0  0  0  0  0999 V2000
    1.5507   -3.1034    0.9367 C   0  0  0  0  0  0  0  0  0  0  0  0
    1.0255   -1.9436    0.1582 C   0  0  0  0  0  0  0  0  0  0  0  0
    1.1070   -0.7586    0.5888 N   0  0  0  0  0  2  0  0  0  0  0  0
    0.7470   -3.8152    1.1420 H   0  0  0  0  0  0  0  0  0  0  0  0
    1.9850   -2.7639    1.8753 H   0  0  0  0  0  0  0  0  0  0  0  0
    2.3074   -3.6366    0.3554 H   0  0  0  0  0  0  0  0  0  0  0  0
    0.5665   -2.1893   -0.8081 H   0  0  0  0  0  0  0  0  0  0  0  0
   -0.8084    0.5647   -1.5280 O   0  0  0  0  0  0  0  0  0  0  0  0
   -0.8084    0.5647   -0.1254 N   0  0  0  0  0  0  0  0  0  0  0  0
   -0.8084    1.8438    0.4323 C   0  0  0  0  0  0  0  0  0  0  0  0
   -1.1251    2.9800   -0.1735 C   0  0  0  0  0  0  0  0  0  0  0  0
   -1.6492    0.1635   -1.7583 H   0  0  0  0  0  0  0  0  0  0  0  0
    0.1462   -0.0948    0.2306 H   0  0  0  0  0  0  0  0  0  0  0  0
   -0.5682    1.8115    1.4903 H   0  0  0  0  0  0  0  0  0  0  0  0
   -1.3579    3.0158   -1.2279 H   0  0  0  0  0  0  0  0  0  0  0  0
   -1.1495    3.8986    0.3937 H   0  0  0  0  0  0  0  0  0  0  0  0
  1  2  1  0
  1  4  1  0
  1  5  1  0
  1  6  1  0
  2  3  2  0
  2  7  1  0
  8  9  1  0
  8 12  1  0
  9 10  1  0
  9 13  1  0
 10 11  2  3
 10 14  1  0
 11 15  1  0
 11 16  1  0
M  RAD  1   3   2
M  END
>  <reaction>  (9) 
rmg_rxn_16700

>  <mol_properties>  (9) 
{"1": {"label": "*4", "atom_type": "Cd"}, "2": {"label": "*3", "atom_type": "N3d"}, "8": {"label": "*1", "atom_type": "N3s"}, "9": {"label": "*0", "atom_type": "Cd"}, "12": {"label": "*2", "atom_type": "H0"}}

>  <type>  (9) 
unop_5

>  <geom_source>  (9) 
Heuristics

$$$$

     RDKit          3D

 16 14  0  0  0  0  0  0  0  0999 V2000
    2.1367   -1.9448    2.0747 C   0  0  0  0  0  0  0  0  0  0  0  0
    1.0518   -1.1952    1.3759 C   0  0  0  0  0  0  0  0  0  0  0  0
    0.9796   -1.1453    0.1155 N   0  0  0  0  0  2  0  0  0  0  0  0
    2.7062   -1.2707    2.7197 H   0  0  0  0  0  0  0  0  0  0  0  0
    2.8051   -2.4065    1.3501 H   0  0  0  0  0  0  0  0  0  0  0  0
    1.7077   -2.7159    2.7197 H   0  0  0  0  0  0  0  0  0  0  0  0
    0.3255   -0.6934    2.0282 H   0  0  0  0  0  0  0  0  0  0  0  0
   -0.9357    0.1780   -2.0013 O   0  0  0  0  0  0  0  0  0  0  0  0
   -0.9357    0.1780   -0.5987 N   0  0  0  0  0  0  0  0  0  0  0  0
   -0.9357    1.4571   -0.0410 C   0  0  0  0  0  0  0  0  0  0  0  0
   -1.2524    2.5933   -0.6468 C   0  0  0  0  0  0  0  0  0  0  0  0
   -1.7766   -0.2232   -2.2316 H   0  0  0  0  0  0  0  0  0  0  0  0
    0.0189   -0.4815   -0.2427 H   0  0  0  0  0  0  0  0  0  0  0  0
   -0.6956    1.4248    1.0170 H   0  0  0  0  0  0  0  0  0  0  0  0
   -1.4852    2.6291   -1.7012 H   0  0  0  0  0  0  0  0  0  0  0  0
   -1.2769    3.5118   -0.0796 H   0  0  0  0  0  0  0  0  0  0  0  0
  1  2  1  0
  1  4  1  0
  1  5  1  0
  1  6  1  0
  2  3  2  0
  2  7  1  0
  8  9  1  0
  8 12  1  0
  9 10  1  0
  9 13  1  0
 10 11  2  3
 10 14  1  0
 11 15  1  0
 11 16  1  0
M  RAD  1   3   2
M  END
>  <reaction>  (10) 
rmg_rxn_16700

>  <mol_properties>  (10) 
{"1": {"label": "*4", "atom_type": "Cd"}, "2": {"label": "*3", "atom_type": "N3d"}, "8": {"label": "*1", "atom_type": "N3s"}, "9": {"label": "*0", "atom_type": "Cd"}, "12": {"label": "*2", "atom_type": "H0"}}

>  <type>  (10) 
unop_6

>  <geom_source>  (10) 
Heuristics

$$$$

     RDKit          3D

 16 14  0  0  0  0  0  0  0  0999 V2000
    1.3606   -2.8384    1.6485 C   0  0  0  0  0  0  0  0  0  0  0  0
    0.8643   -2.0165    0.5060 C   0  0  0  0  0  0  0  0  0  0  0  0
    1.1779   -0.7998    0.3730 N   0  0  0  0  0  2  0  0  0  0  0  0
    0.5188   -3.2330    2.2233 H   0  0  0  0  0  0  0  0  0  0  0  0
    1.9961   -2.2391    2.2981 H   0  0  0  0  0  0  0  0  0  0  0  0
    1.9242   -3.6985    1.2779 H   0  0  0  0  0  0  0  0  0  0  0  0
    0.2124   -2.5384   -0.2062 H   0  0  0  0  0  0  0  0  0  0  0  0
   -0.7375    0.5235   -1.7438 O   0  0  0  0  0  0  0  0  0  0  0  0
   -0.7375    0.5235   -0.3413 N   0  0  0  0  0  0  0  0  0  0  0  0
   -0.7375    1.8027    0.2164 C   0  0  0  0  0  0  0  0  0  0  0  0
   -1.0542    2.9388   -0.3894 C   0  0  0  0  0  0  0  0  0  0  0  0
   -1.5783    0.1223   -1.9742 H   0  0  0  0  0  0  0  0  0  0  0  0
    0.2171   -0.1360    0.0147 H   0  0  0  0  0  0  0  0  0  0  0  0
   -0.4973    1.7703    1.2744 H   0  0  0  0  0  0  0  0  0  0  0  0
   -1.2870    2.9746   -1.4437 H   0  0  0  0  0  0  0  0  0  0  0  0
   -1.0786    3.8574    0.1778 H   0  0  0  0  0  0  0  0  0  0  0  0
  1  2  1  0
  1  4  1  0
  1  5  1  0
  1  6  1  0
  2  3  2  0
  2  7  1  0
  8  9  1  0
  8 12  1  0
  9 10  1  0
  9 13  1  0
 10 11  2  3
 10 14  1  0
 11 15  1  0
 11 16  1  0
M  RAD  1   3   2
M  END
>  <reaction>  (11) 
rmg_rxn_16700

>  <mol_properties>  (11) 
{"1": {"label": "*4", "atom_type": "Cd"}, "2": {"label": "*3", "atom_type": "N3d"}, "8": {"label": "*1", "atom_type": "N3s"}, "9": {"label": "*0", "atom_type": "Cd"}, "12": {"label": "*2", "atom_type": "H0"}}

>  <type>  (11) 
unop_7

>  <geom_source>  (11) 
Heuristics

$$$$

     RDKit          3D

 16 14  0  0  0  0  0  0  0  0999 V2000
    1.5249   -2.3251    2.1278 C   0  0  0  0  0  0  0  0  0  0  0  0
    0.7917   -1.9149    0.8944 C   0  0  0  0  0  0  0  0  0  0  0  0
    1.1577   -0.9265    0.1977 N   0  0  0  0  0  2  0  0  0  0  0  0
    0.8553   -2.2986    2.9913 H   0  0  0  0  0  0  0  0  0  0  0  0
    2.3712   -1.6633    2.3029 H   0  0  0  0  0  0  0  0  0  0  0  0
    1.8794   -3.3545    2.0314 H   0  0  0  0  0  0  0  0  0  0  0  0
   -0.0819   -2.5271    0.6358 H   0  0  0  0  0  0  0  0  0  0  0  0
   -0.7577    0.3968   -1.9191 O   0  0  0  0  0  0  0  0  0  0  0  0
   -0.7577    0.3968   -0.5165 N   0  0  0  0  0  0  0  0  0  0  0  0
   -0.7577    1.6759    0.0412 C   0  0  0  0  0  0  0  0  0  0  0  0
   -1.0744    2.8121   -0.5647 C   0  0  0  0  0  0  0  0  0  0  0  0
   -1.5985   -0.0044   -2.1495 H   0  0  0  0  0  0  0  0  0  0  0  0
    0.1969   -0.2628   -0.1605 H   0  0  0  0  0  0  0  0  0  0  0  0
   -0.5175    1.6436    1.0991 H   0  0  0  0  0  0  0  0  0  0  0  0
   -1.3072    2.8479   -1.6190 H   0  0  0  0  0  0  0  0  0  0  0  0
   -1.0988    3.7306    0.0026 H   0  0  0  0  0  0  0  0  0  0  0  0
  1  2  1  0
  1  4  1  0
  1  5  1  0
  1  6  1  0
  2  3  2  0
  2  7  1  0
  8  9  1  0
  8 12  1  0
  9 10  1  0
  9 13  1  0
 10 11  2  3
 10 14  1  0
 11 15  1  0
 11 16  1  0
M  RAD  1   3   2
M  END
>  <reaction>  (12) 
rmg_rxn_16700

>  <mol_properties>  (12) 
{"1": {"label": "*4", "atom_type": "Cd"}, "2": {"label": "*3", "atom_type": "N3d"}, "8": {"label": "*1", "atom_type": "N3s"}, "9": {"label": "*0", "atom_type": "Cd"}, "12": {"label": "*2", "atom_type": "H0"}}

>  <type>  (12) 
unop_8

>  <geom_source>  (12) 
Heuristics

$$$$

     RDKit          3D

 16 14  0  0  0  0  0  0  0  0999 V2000
    2.6980   -0.9027    1.6485 C   0  0  0  0  0  0  0  0  0  0  0  0
    1.7537   -0.7293    0.5060 C   0  0  0  0  0  0  0  0  0  0  0  0
    0.7266   -1.4530    0.3730 N   0  0  0  0  0  2  0  0  0  0  0  0
    3.7018   -1.1255    1.2779 H   0  0  0  0  0  0  0  0  0  0  0  0
    2.3623   -1.7091    2.2981 H   0  0  0  0  0  0  0  0  0  0  0  0
    2.7692    0.0243    2.2233 H   0  0  0  0  0  0  0  0  0  0  0  0
    2.0112    0.0652   -0.2062 H   0  0  0  0  0  0  0  0  0  0  0  0
   -1.1888   -0.1297   -1.7438 O   0  0  0  0  0  0  0  0  0  0  0  0
   -1.1888   -0.1297   -0.3413 N   0  0  0  0  0  0  0  0  0  0  0  0
   -1.1888    1.1495    0.2164 C   0  0  0  0  0  0  0  0  0  0  0  0
   -1.5055    2.2856   -0.3894 C   0  0  0  0  0  0  0  0  0  0  0  0
   -2.0296   -0.5308   -1.9742 H   0  0  0  0  0  0  0  0  0  0  0  0
   -0.2342   -0.7892    0.0147 H   0  0  0  0  0  0  0  0  0  0  0  0
   -0.9486    1.1171    1.2744 H   0  0  0  0  0  0  0  0  0  0  0  0
   -1.7383    2.3214   -1.4437 H   0  0  0  0  0  0  0  0  0  0  0  0
   -1.5299    3.2042    0.1778 H   0  0  0  0  0  0  0  0  0  0  0  0
  1  2  1  0
  1  4  1  0
  1  5  1  0
  1  6  1  0
  2  3  2  0
  2  7  1  0
  8  9  1  0
  8 12  1  0
  9 10  1  0
  9 13  1  0
 10 11  2  3
 10 14  1  0
 11 15  1  0
 11 16  1  0
M  RAD  1   3   2
M  END
>  <reaction>  (13) 
rmg_rxn_16700

>  <mol_properties>  (13) 
{"1": {"label": "*4", "atom_type": "Cd"}, "2": {"label": "*3", "atom_type": "N3d"}, "8": {"label": "*1", "atom_type": "N3s"}, "9": {"label": "*0", "atom_type": "Cd"}, "12": {"label": "*2", "atom_type": "H0"}}

>  <type>  (13) 
unop_9

>  <geom_source>  (13) 
Heuristics

$$$$

     RDKit          3D

 16 14  0  0  0  0  0  0  0  0999 V2000
    1.7808    1.2036    0.6894 C   0  0  0  0  0  0  0  0  0  0  0  0
    2.2401    0.0999   -0.2172 C   0  0  0  0  0  0  0  0  0  0  0  0
    1.5791   -0.8065   -0.7457 N   0  0  0  0  0  0  0  0  0  0  0  0
    2.3880    1.2082    1.5927 H   0  0  0  0  0  0  0  0  0  0  0  0
    0.7344    1.0893    0.9577 H   0  0  0  0  0  0  0  0  0  0  0  0
    1.9198    2.1591    0.1853 H   0  0  0  0  0  0  0  0  0  0  0  0
    3.3145    0.1222   -0.4277 H   0  0  0  0  0  0  0  0  0  0  0  0
   -0.9641   -0.9308    1.1331 O   0  0  0  0  0  0  0  0  0  0  0  0
   -0.8306   -0.8073   -0.2586 N   0  0  0  0  0  0  0  0  0  0  0  0
   -1.4560    0.2661   -0.7839 C   0  0  0  0  0  0  0  0  0  0  0  0
   -2.2797    1.1202   -0.1484 C   0  0  0  0  0  3  0  0  0  0  0  0
   -0.7286   -1.8495    1.3218 H   0  0  0  0  0  0  0  0  0  0  0  0
    0.4038   -0.8465   -0.5522 H   0  0  0  0  0  0  0  0  0  0  0  0
   -1.2594    0.3503   -1.8449 H   0  0  0  0  0  0  0  0  0  0  0  0
   -2.4734    1.0222    0.9051 H   0  0  0  0  0  0  0  0  0  0  0  0
   -2.7964    1.8942   -0.6839 H   0  0  0  0  0  0  0  0  0  0  0  0
  1  2  1  0
  1  4  1  0
  1  5  1  0
  1  6  1  0
  2  3  2  3
  2  7  1  0
  3 13  1  0
  8  9  1  0
  8 12  1  0
  9 10  2  3
 10 11  1  0
 10 14  1  0
 11 15  1  0
 11 16  1  0
M  RAD  1  11   2
M  END
>  <reaction>  (14) 
rmg_rxn_16700

>  <mol_properties>  (14) 
{"1": {"label": "*4", "atom_type": "Cd"}, "2": {"label": "*3", "atom_type": "N3d"}, "8": {"label": "*1", "atom_type": "N3s"}, "9": {"label": "*0", "atom_type": "Cd"}, "12": {"label": "*2", "atom_type": "H0"}}

>  <type>  (14) 
unop_10

>  <geom_source>  (14) 
Heuristics

$$$$

     RDKit          3D

 16 14  0  0  0  0  0  0  0  0999 V2000
    2.0560   -2.9282    0.2819 C   0  0  0  0  0  0  0  0  0  0  0  0
    1.2300   -1.7370   -0.0730 C   0  0  0  0  0  0  0  0  0  0  0  0
    0.9619   -0.8352    0.7702 N   0  0  0  0  0  2  0  0  0  0  0  0
    1.4880   -3.8461    0.1100 H   0  0  0  0  0  0  0  0  0  0  0  0
    2.3621   -2.8793    1.3254 H   0  0  0  0  0  0  0  0  0  0  0  0
    2.9415   -2.9773   -0.3570 H   0  0  0  0  0  0  0  0  0  0  0  0
    0.8737   -1.6986   -1.1105 H   0  0  0  0  0  0  0  0  0  0  0  0
   -0.9534    0.4881   -1.3466 O   0  0  0  0  0  0  0  0  0  0  0  0
   -0.9534    0.4881    0.0560 N   0  0  0  0  0  0  0  0  0  0  0  0
   -0.9534    1.7673    0.6137 C   0  0  0  0  0  0  0  0  0  0  0  0
   -1.2701    2.9034    0.0079 C   0  0  0  0  0  0  0  0  0  0  0  0
   -1.7943    0.0869   -1.5769 H   0  0  0  0  0  0  0  0  0  0  0  0
    0.0012   -0.1714    0.4120 H   0  0  0  0  0  0  0  0  0  0  0  0
   -0.7133    1.7349    1.6717 H   0  0  0  0  0  0  0  0  0  0  0  0
   -1.5029    2.9392   -1.0465 H   0  0  0  0  0  0  0  0  0  0  0  0
   -1.2946    3.8220    0.5751 H   0  0  0  0  0  0  0  0  0  0  0  0
  1  2  1  0
  1  4  1  0
  1  5  1  0
  1  6  1  0
  2  3  2  0
  2  7  1  0
  8  9  1  0
  8 12  1  0
  9 10  1  0
  9 13  1  0
 10 11  2  3
 10 14  1  0
 11 15  1  0
 11 16  1  0
M  RAD  1   3   2
M  END
>  <reaction>  (15) 
rmg_rxn_16700

>  <mol_properties>  (15) 
{"1": {"label": "*4", "atom_type": "Cd"}, "2": {"label": "*3", "atom_type": "N3d"}, "8": {"label": "*1", "atom_type": "N3s"}, "9": {"label": "*0", "atom_type": "Cd"}, "12": {"label": "*2", "atom_type": "H0"}}

>  <type>  (15) 
unop_11

>  <geom_source>  (15) 
Heuristics

$$$$

     RDKit          3D

 16 14  0  0  0  0  0  0  0  0999 V2000
    3.0132   -0.9867    0.9367 C   0  0  0  0  0  0  0  0  0  0  0  0
    1.7425   -0.9058    0.1582 C   0  0  0  0  0  0  0  0  0  0  0  0
    0.6630   -1.4012    0.5888 N   0  0  0  0  0  2  0  0  0  0  0  0
    3.7795   -1.5058    0.3554 H   0  0  0  0  0  0  0  0  0  0  0  0
    2.8492   -1.5131    1.8753 H   0  0  0  0  0  0  0  0  0  0  0  0
    3.3945    0.0168    1.1420 H   0  0  0  0  0  0  0  0  0  0  0  0
    1.8100   -0.3896   -0.8081 H   0  0  0  0  0  0  0  0  0  0  0  0
   -1.2524   -0.0779   -1.5280 O   0  0  0  0  0  0  0  0  0  0  0  0
   -1.2524   -0.0779   -0.1254 N   0  0  0  0  0  0  0  0  0  0  0  0
   -1.2524    1.2012    0.4323 C   0  0  0  0  0  0  0  0  0  0  0  0
   -1.5691    2.3374   -0.1735 C   0  0  0  0  0  0  0  0  0  0  0  0
   -2.0932   -0.4791   -1.7583 H   0  0  0  0  0  0  0  0  0  0  0  0
   -0.2978   -0.7375    0.2306 H   0  0  0  0  0  0  0  0  0  0  0  0
   -1.0122    1.1689    1.4903 H   0  0  0  0  0  0  0  0  0  0  0  0
   -1.8019    2.3732   -1.2279 H   0  0  0  0  0  0  0  0  0  0  0  0
   -1.5935    3.2559    0.3937 H   0  0  0  0  0  0  0  0  0  0  0  0
  1  2  1  0
  1  4  1  0
  1  5  1  0
  1  6  1  0
  2  3  2  0
  2  7  1  0
  8  9  1  0
  8 12  1  0
  9 10  1  0
  9 13  1  0
 10 11  2  3
 10 14  1  0
 11 15  1  0
 11 16  1  0
M  RAD  1   3   2
M  END
>  <reaction>  (16) 
rmg_rxn_16700

>  <mol_properties>  (16) 
{"1": {"label": "*4", "atom_type": "Cd"}, "2": {"label": "*3", "atom_type": "N3d"}, "8": {"label": "*1", "atom_type": "N3s"}, "9": {"label": "*0", "atom_type": "Cd"}, "12": {"label": "*2", "atom_type": "H0"}}

>  <type>  (16) 
unop_12

>  <geom_source>  (16) 
Heuristics

$$$$

     RDKit          3D

 16 14  0  0  0  0  0  0  0  0999 V2000
    1.9304   -1.9063    2.2061 C   0  0  0  0  0  0  0  0  0  0  0  0
    0.8391   -1.6304    1.2264 C   0  0  0  0  0  0  0  0  0  0  0  0
    1.0639   -1.0690    0.1171 N   0  0  0  0  0  2  0  0  0  0  0  0
    1.7203   -1.4073    3.1556 H   0  0  0  0  0  0  0  0  0  0  0  0
    2.8858   -1.5597    1.8162 H   0  0  0  0  0  0  0  0  0  0  0  0
    1.9879   -2.9776    2.4153 H   0  0  0  0  0  0  0  0  0  0  0  0
   -0.1660   -1.9466    1.5340 H   0  0  0  0  0  0  0  0  0  0  0  0
   -0.8515    0.2543   -1.9997 O   0  0  0  0  0  0  0  0  0  0  0  0
   -0.8515    0.2543   -0.5972 N   0  0  0  0  0  0  0  0  0  0  0  0
   -0.8515    1.5334   -0.0395 C   0  0  0  0  0  0  0  0  0  0  0  0
   -1.1682    2.6696   -0.6453 C   0  0  0  0  0  0  0  0  0  0  0  0
   -1.6923   -0.1469   -2.2301 H   0  0  0  0  0  0  0  0  0  0  0  0
    0.1031   -0.4053   -0.2412 H   0  0  0  0  0  0  0  0  0  0  0  0
   -0.6113    1.5011    1.0185 H   0  0  0  0  0  0  0  0  0  0  0  0
   -1.4010    2.7054   -1.6996 H   0  0  0  0  0  0  0  0  0  0  0  0
   -1.1926    3.5881   -0.0781 H   0  0  0  0  0  0  0  0  0  0  0  0
  1  2  1  0
  1  4  1  0
  1  5  1  0
  1  6  1  0
  2  3  2  0
  2  7  1  0
  8  9  1  0
  8 12  1  0
  9 10  1  0
  9 13  1  0
 10 11  2  3
 10 14  1  0
 11 15  1  0
 11 16  1  0
M  RAD  1   3   2
M  END
>  <reaction>  (17) 
rmg_rxn_16700

>  <mol_properties>  (17) 
{"1": {"label": "*4", "atom_type": "Cd"}, "2": {"label": "*3", "atom_type": "N3d"}, "8": {"label": "*1", "atom_type": "N3s"}, "9": {"label": "*0", "atom_type": "Cd"}, "12": {"label": "*2", "atom_type": "H0"}}

>  <type>  (17) 
unop_13

>  <geom_source>  (17) 
Heuristics

$$$$

     RDKit          3D

 16 14  0  0  0  0  0  0  0  0999 V2000
    2.6581   -2.3050    0.0091 C   0  0  0  0  0  0  0  0  0  0  0  0
    1.4375   -1.4617   -0.1519 C   0  0  0  0  0  0  0  0  0  0  0  0
    0.7961   -1.0185    0.8424 N   0  0  0  0  0  2  0  0  0  0  0  0
    2.5146   -3.2733   -0.4770 H   0  0  0  0  0  0  0  0  0  0  0  0
    2.8772   -2.4563    1.0646 H   0  0  0  0  0  0  0  0  0  0  0  0
    3.5131   -1.8282   -0.4770 H   0  0  0  0  0  0  0  0  0  0  0  0
    1.1371   -1.2541   -1.1870 H   0  0  0  0  0  0  0  0  0  0  0  0
   -1.1192    0.3048   -1.2744 O   0  0  0  0  0  0  0  0  0  0  0  0
   -1.1192    0.3048    0.1282 N   0  0  0  0  0  0  0  0  0  0  0  0
   -1.1192    1.5839    0.6859 C   0  0  0  0  0  0  0  0  0  0  0  0
   -1.4359    2.7201    0.0800 C   0  0  0  0  0  0  0  0  0  0  0  0
   -1.9601   -0.0964   -1.5048 H   0  0  0  0  0  0  0  0  0  0  0  0
   -0.1646   -0.3548    0.4842 H   0  0  0  0  0  0  0  0  0  0  0  0
   -0.8791    1.5516    1.7438 H   0  0  0  0  0  0  0  0  0  0  0  0
   -1.6687    2.7559   -0.9743 H   0  0  0  0  0  0  0  0  0  0  0  0
   -1.4604    3.6386    0.6473 H   0  0  0  0  0  0  0  0  0  0  0  0
  1  2  1  0
  1  4  1  0
  1  5  1  0
  1  6  1  0
  2  3  2  0
  2  7  1  0
  8  9  1  0
  8 12  1  0
  9 10  1  0
  9 13  1  0
 10 11  2  3
 10 14  1  0
 11 15  1  0
 11 16  1  0
M  RAD  1   3   2
M  END
>  <reaction>  (18) 
rmg_rxn_16700

>  <mol_properties>  (18) 
{"1": {"label": "*4", "atom_type": "Cd"}, "2": {"label": "*3", "atom_type": "N3d"}, "8": {"label": "*1", "atom_type": "N3s"}, "9": {"label": "*0", "atom_type": "Cd"}, "12": {"label": "*2", "atom_type": "H0"}}

>  <type>  (18) 
unop_14

>  <geom_source>  (18) 
Heuristics

$$$$

     RDKit          3D

 16 14  0  0  0  0  0  0  0  0999 V2000
    3.0280   -1.5213    0.2819 C   0  0  0  0  0  0  0  0  0  0  0  0
    1.6217   -1.1702   -0.0730 C   0  0  0  0  0  0  0  0  0  0  0  0
    0.6833   -1.2385    0.7702 N   0  0  0  0  0  2  0  0  0  0  0  0
    3.3872   -2.3321   -0.3570 H   0  0  0  0  0  0  0  0  0  0  0  0
    3.0906   -1.8249    1.3254 H   0  0  0  0  0  0  0  0  0  0  0  0
    3.6856   -0.6654    0.1100 H   0  0  0  0  0  0  0  0  0  0  0  0
    1.4596   -0.8505   -1.1105 H   0  0  0  0  0  0  0  0  0  0  0  0
   -1.2321    0.0848   -1.3466 O   0  0  0  0  0  0  0  0  0  0  0  0
   -1.2321    0.0848    0.0560 N   0  0  0  0  0  0  0  0  0  0  0  0
   -1.2321    1.3639    0.6137 C   0  0  0  0  0  0  0  0  0  0  0  0
   -1.5487    2.5001    0.0079 C   0  0  0  0  0  0  0  0  0  0  0  0
   -2.0729   -0.3164   -1.5769 H   0  0  0  0  0  0  0  0  0  0  0  0
   -0.2775   -0.5747    0.4120 H   0  0  0  0  0  0  0  0  0  0  0  0
   -0.9919    1.3316    1.6717 H   0  0  0  0  0  0  0  0  0  0  0  0
   -1.7816    2.5359   -1.0465 H   0  0  0  0  0  0  0  0  0  0  0  0
   -1.5732    3.4187    0.5751 H   0  0  0  0  0  0  0  0  0  0  0  0
  1  2  1  0
  1  4  1  0
  1  5  1  0
  1  6  1  0
  2  3  2  0
  2  7  1  0
  8  9  1  0
  8 12  1  0
  9 10  1  0
  9 13  1  0
 10 11  2  3
 10 14  1  0
 11 15  1  0
 11 16  1  0
M  RAD  1   3   2
M  END
>  <reaction>  (19) 
rmg_rxn_16700

>  <mol_properties>  (19) 
{"1": {"label": "*4", "atom_type": "Cd"}, "2": {"label": "*3", "atom_type": "N3d"}, "8": {"label": "*1", "atom_type": "N3s"}, "9": {"label": "*0", "atom_type": "Cd"}, "12": {"label": "*2", "atom_type": "H0"}}

>  <type>  (19) 
unop_15

>  <geom_source>  (19) 
gaussian_log

$$$$
