
     RDKit          3D

  5  4  0  0  0  0  0  0  0  0999 V2000
    0.7361   -0.2872    0.4035 N   0  0  0  0  0  2  0  0  0  0  0  0
   -0.3891   -0.1505   -0.3131 N   0  0  0  0  0  0  0  0  0  0  0  0
    1.4909    0.0686   -0.1831 H   0  0  0  0  0  0  0  0  0  0  0  0
   -1.1819   -0.6340    0.0744 H   0  0  0  0  0  0  0  0  0  0  0  0
   -0.3592   -0.1189   -1.3223 H   0  0  0  0  0  0  0  0  0  0  0  0
  1  2  1  0
  1  3  1  0
  2  4  1  0
  2  5  1  0
M  RAD  1   1   2
M  END
>  <reaction>  (1) 
rmg_rxn_507

>  <mol_properties>  (1) 
{"0": {"label": "donator", "atom_type": "N3s"}, "2": {"label": "d_hydrogen", "atom_type": "H0"}}

>  <type>  (1) 
r1h

$$$$

     RDKit          3D

 10  9  0  0  0  0  0  0  0  0999 V2000
    1.4352    0.2660   -0.1351 C   0  0  0  0  0  3  0  0  0  0  0  0
    0.2236   -0.3243    0.4850 C   0  0  0  0  0  0  0  0  0  0  0  0
   -0.8893    0.6872    0.7364 C   0  0  0  0  0  0  0  0  0  0  0  0
    2.3577   -0.2958   -0.1940 H   0  0  0  0  0  0  0  0  0  0  0  0
    1.3935    1.2286   -0.6287 H   0  0  0  0  0  0  0  0  0  0  0  0
   -0.1633   -1.1318   -0.1556 H   0  0  0  0  0  0  0  0  0  0  0  0
    0.4945   -0.8215    1.4240 H   0  0  0  0  0  0  0  0  0  0  0  0
   -1.1991    1.1627   -0.1967 H   0  0  0  0  0  0  0  0  0  0  0  0
   -1.7660    0.2103    1.1768 H   0  0  0  0  0  0  0  0  0  0  0  0
   -0.5545    1.4732    1.4159 H   0  0  0  0  0  0  0  0  0  0  0  0
  1  2  1  0
  1  4  1  0
  1  5  1  0
  2  3  1  0
  2  6  1  0
  2  7  1  0
  3  8  1  0
  3  9  1  0
  3 10  1  0
M  RAD  1   1   2
M  END
>  <reaction>  (2) 
rmg_rxn_507

>  <mol_properties>  (2) 
{"0": {"label": "acceptor", "atom_type": "Cs"}}

>  <type>  (2) 
r2

$$$$

     RDKit          3D

 11 10  0  0  0  0  0  0  0  0999 V2000
   -1.2710    0.1907   -0.2084 C   0  0  0  0  0  0  0  0  0  0  0  0
    0.0202   -0.6130   -0.2928 C   0  0  0  0  0  0  0  0  0  0  0  0
    0.1086   -1.6953    0.7756 C   0  0  0  0  0  0  0  0  0  0  0  0
   -1.3607    0.6851    0.7620 H   0  0  0  0  0  0  0  0  0  0  0  0
   -2.1429   -0.4567   -0.3299 H   0  0  0  0  0  0  0  0  0  0  0  0
   -1.3158    0.9602   -0.9809 H   0  0  0  0  0  0  0  0  0  0  0  0
    0.8757    0.0616   -0.1992 H   0  0  0  0  0  0  0  0  0  0  0  0
    0.0997   -1.0712   -1.2825 H   0  0  0  0  0  0  0  0  0  0  0  0
   -0.7198   -2.4022    0.6850 H   0  0  0  0  0  0  0  0  0  0  0  0
    1.0395   -2.2596    0.6989 H   0  0  0  0  0  0  0  0  0  0  0  0
    0.0624   -1.2603    1.7770 H   0  0  0  0  0  0  0  0  0  0  0  0
  1  2  1  0
  1  4  1  0
  1  5  1  0
  1  6  1  0
  2  3  1  0
  2  7  1  0
  2  8  1  0
  3  9  1  0
  3 10  1  0
  3 11  1  0
M  END
>  <reaction>  (3) 
rmg_rxn_507

>  <mol_properties>  (3) 
{"0": {"label": "a_hydrogen", "atom_type": "H0"}, "1": {"label": "acceptor", "atom_type": "Cs"}}

>  <type>  (3) 
r2h

$$$$

     RDKit          3D

 15 13  0  0  0  0  0  0  0  0999 V2000
   -0.3021   -1.7105    0.1313 N   0  0  0  0  0  2  0  0  0  0  0  0
    0.7428   -1.8084   -0.7033 N   0  0  0  0  0  0  0  0  0  0  0  0
   -0.1569   -0.6433    0.6462 H   0  0  0  0  0  0  0  0  0  0  0  0
    0.9242   -2.7488   -1.0214 H   0  0  0  0  0  0  0  0  0  0  0  0
    1.5776   -1.2738   -0.4946 H   0  0  0  0  0  0  0  0  0  0  0  0
    0.2148    0.6470    1.0918 C   0  0  0  0  0  3  0  0  0  0  0  0
    0.1677    1.5483   -0.1100 C   0  0  0  0  0  0  0  0  0  0  0  0
   -1.2161    1.6212   -0.7442 C   0  0  0  0  0  0  0  0  0  0  0  0
    1.1963    0.4905    1.5368 H   0  0  0  0  0  0  0  0  0  0  0  0
   -0.5575    0.8207    1.8395 H   0  0  0  0  0  0  0  0  0  0  0  0
    0.4913    2.5561    0.1817 H   0  0  0  0  0  0  0  0  0  0  0  0
    0.8938    1.2093   -0.8558 H   0  0  0  0  0  0  0  0  0  0  0  0
   -1.9522    1.9922   -0.0275 H   0  0  0  0  0  0  0  0  0  0  0  0
   -1.2210    2.2886   -1.6070 H   0  0  0  0  0  0  0  0  0  0  0  0
   -1.5404    0.6327   -1.0742 H   0  0  0  0  0  0  0  0  0  0  0  0
  1  2  1  0
  1  3  1  0
  2  4  1  0
  2  5  1  0
  6  7  1  0
  6  9  1  0
  6 10  1  0
  7  8  1  0
  7 11  1  0
  7 12  1  0
  8 13  1  0
  8 14  1  0
  8 15  1  0
M  RAD  2   1   2   6   2
M  END
>  <reaction>  (4) 
rmg_rxn_507

>  <mol_properties>  (4) 
{"0": {"label": "*1", "atom_type": "N3s"}, "1": {"label": "*0", "atom_type": "N3s"}, "2": {"label": "*2", "atom_type": "H0"}, "5": {"label": "*3", "atom_type": "Cs"}, "6": {"label": "*4", "atom_type": "Cs"}}

>  <type>  (4) 
ts

$$$$

     RDKit          3D

 15 13  0  0  0  0  0  0  0  0999 V2000
    0.6020   -1.3146   -0.5732 N   0  0  0  0  0  2  0  0  0  0  0  0
    0.6020   -1.3146   -1.9142 N   0  0  0  0  0  0  0  0  0  0  0  0
    0.6020   -0.1388   -0.2330 H   0  0  0  0  0  0  0  0  0  0  0  0
    0.7900   -2.2146   -2.3230 H   0  0  0  0  0  0  0  0  0  0  0  0
    0.9640   -0.5262   -2.4317 H   0  0  0  0  0  0  0  0  0  0  0  0
    0.6020    1.1208    0.1315 C   0  0  0  0  0  3  0  0  0  0  0  0
   -0.6301    1.4462    0.9662 C   0  0  0  0  0  0  0  0  0  0  0  0
   -1.2716    0.2053    1.5738 C   0  0  0  0  0  0  0  0  0  0  0  0
    1.0470    2.0214   -0.2949 H   0  0  0  0  0  0  0  0  0  0  0  0
    1.3646    0.6253    0.7374 H   0  0  0  0  0  0  0  0  0  0  0  0
   -0.3559    2.1419    1.7640 H   0  0  0  0  0  0  0  0  0  0  0  0
   -1.3633    1.9678    0.3449 H   0  0  0  0  0  0  0  0  0  0  0  0
   -0.5681   -0.3191    2.2251 H   0  0  0  0  0  0  0  0  0  0  0  0
   -2.1516    0.4585    2.1674 H   0  0  0  0  0  0  0  0  0  0  0  0
   -1.5834   -0.4945    0.7947 H   0  0  0  0  0  0  0  0  0  0  0  0
  1  2  1  0
  1  3  1  0
  2  4  1  0
  2  5  1  0
  6  7  1  0
  6  9  1  0
  6 10  1  0
  7  8  1  0
  7 11  1  0
  7 12  1  0
  8 13  1  0
  8 14  1  0
  8 15  1  0
M  RAD  2   1   2   6   2
M  END
>  <reaction>  (5) 
rmg_rxn_507

>  <mol_properties>  (5) 
{"0": {"label": "*1", "atom_type": "N3s"}, "1": {"label": "*0", "atom_type": "N3s"}, "2": {"label": "*2", "atom_type": "H0"}, "5": {"label": "*3", "atom_type": "Cs"}, "6": {"label": "*4", "atom_type": "Cs"}}

>  <type>  (5) 
unop_1

>  <geom_source>  (5) 
Heuristics

$$$$

     RDKit          3D

 15 13  0  0  0  0  0  0  0  0999 V2000
    0.5331   -1.6506    0.3952 N   0  0  0  0  0  2  0  0  0  0  0  0
    0.5331   -1.6506   -0.9458 N   0  0  0  0  0  0  0  0  0  0  0  0
    0.5331   -0.4748    0.7354 H   0  0  0  0  0  0  0  0  0  0  0  0
    0.7210   -2.5505   -1.3547 H   0  0  0  0  0  0  0  0  0  0  0  0
    0.8951   -0.8621   -1.4633 H   0  0  0  0  0  0  0  0  0  0  0  0
    0.5331    0.7848    1.0999 C   0  0  0  0  0  3  0  0  0  0  0  0
   -0.1782    1.6504    0.0677 C   0  0  0  0  0  0  0  0  0  0  0  0
   -1.4496    1.0024   -0.4655 C   0  0  0  0  0  0  0  0  0  0  0  0
    1.4405    1.2654    1.4696 H   0  0  0  0  0  0  0  0  0  0  0  0
   -0.1146    0.5878    1.9576 H   0  0  0  0  0  0  0  0  0  0  0  0
   -0.4222    2.6196    0.5115 H   0  0  0  0  0  0  0  0  0  0  0  0
    0.5010    1.8577   -0.7638 H   0  0  0  0  0  0  0  0  0  0  0  0
   -2.1598    0.8122    0.3429 H   0  0  0  0  0  0  0  0  0  0  0  0
   -1.9444    1.6368   -1.2027 H   0  0  0  0  0  0  0  0  0  0  0  0
   -1.2292    0.0443   -0.9424 H   0  0  0  0  0  0  0  0  0  0  0  0
  1  2  1  0
  1  3  1  0
  2  4  1  0
  2  5  1  0
  6  7  1  0
  6  9  1  0
  6 10  1  0
  7  8  1  0
  7 11  1  0
  7 12  1  0
  8 13  1  0
  8 14  1  0
  8 15  1  0
M  RAD  2   1   2   6   2
M  END
>  <reaction>  (6) 
rmg_rxn_507

>  <mol_properties>  (6) 
{"0": {"label": "*1", "atom_type": "N3s"}, "1": {"label": "*0", "atom_type": "N3s"}, "2": {"label": "*2", "atom_type": "H0"}, "5": {"label": "*3", "atom_type": "Cs"}, "6": {"label": "*4", "atom_type": "Cs"}}

>  <type>  (6) 
unop_2

>  <geom_source>  (6) 
Heuristics

$$$$

     RDKit          3D

 15 13  0  0  0  0  0  0  0  0999 V2000
    0.2375   -1.2657   -0.8264 N   0  0  0  0  0  2  0  0  0  0  0  0
    0.2375   -1.2657   -2.1674 N   0  0  0  0  0  0  0  0  0  0  0  0
    0.2375   -0.0899   -0.4861 H   0  0  0  0  0  0  0  0  0  0  0  0
    0.4254   -2.1657   -2.5762 H   0  0  0  0  0  0  0  0  0  0  0  0
    0.5995   -0.4773   -2.6848 H   0  0  0  0  0  0  0  0  0  0  0  0
    0.2375    1.1697   -0.1217 C   0  0  0  0  0  3  0  0  0  0  0  0
   -0.4739    1.3503    1.2132 C   0  0  0  0  0  0  0  0  0  0  0  0
   -0.3344    0.1354    2.1215 C   0  0  0  0  0  0  0  0  0  0  0  0
    0.1263    2.0495   -0.7577 H   0  0  0  0  0  0  0  0  0  0  0  0
    1.3062    0.9960    0.0256 H   0  0  0  0  0  0  0  0  0  0  0  0
   -0.0752    2.2326    1.7217 H   0  0  0  0  0  0  0  0  0  0  0  0
   -1.5338    1.5529    1.0364 H   0  0  0  0  0  0  0  0  0  0  0  0
    0.7163   -0.0709    2.3394 H   0  0  0  0  0  0  0  0  0  0  0  0
   -0.8500    0.2836    3.0718 H   0  0  0  0  0  0  0  0  0  0  0  0
   -0.7539   -0.7560    1.6487 H   0  0  0  0  0  0  0  0  0  0  0  0
  1  2  1  0
  1  3  1  0
  2  4  1  0
  2  5  1  0
  6  7  1  0
  6  9  1  0
  6 10  1  0
  7  8  1  0
  7 11  1  0
  7 12  1  0
  8 13  1  0
  8 14  1  0
  8 15  1  0
M  RAD  2   1   2   6   2
M  END
>  <reaction>  (7) 
rmg_rxn_507

>  <mol_properties>  (7) 
{"0": {"label": "*1", "atom_type": "N3s"}, "1": {"label": "*0", "atom_type": "N3s"}, "2": {"label": "*2", "atom_type": "H0"}, "5": {"label": "*3", "atom_type": "Cs"}, "6": {"label": "*4", "atom_type": "Cs"}}

>  <type>  (7) 
unop_3

>  <geom_source>  (7) 
Heuristics

$$$$

     RDKit          3D

 15 13  0  0  0  0  0  0  0  0999 V2000
   -0.4460   -1.8540    0.3633 N   0  0  0  0  0  2  0  0  0  0  0  0
   -0.4460   -1.8540   -0.9777 N   0  0  0  0  0  0  0  0  0  0  0  0
   -0.4460   -0.6782    0.7035 H   0  0  0  0  0  0  0  0  0  0  0  0
   -0.2581   -2.7540   -1.3866 H   0  0  0  0  0  0  0  0  0  0  0  0
   -0.0840   -1.0656   -1.4952 H   0  0  0  0  0  0  0  0  0  0  0  0
   -0.4460    0.5814    1.0680 C   0  0  0  0  0  3  0  0  0  0  0  0
    0.7861    1.3022    0.5361 C   0  0  0  0  0  0  0  0  0  0  0  0
    0.5471    1.9476   -0.8229 C   0  0  0  0  0  0  0  0  0  0  0  0
   -0.2554    0.1260    2.0413 H   0  0  0  0  0  0  0  0  0  0  0  0
   -1.2848    1.2725    1.1804 H   0  0  0  0  0  0  0  0  0  0  0  0
    1.0979    2.0672    1.2526 H   0  0  0  0  0  0  0  0  0  0  0  0
    1.6176    0.5958    0.4624 H   0  0  0  0  0  0  0  0  0  0  0  0
   -0.2604    2.6819   -0.7701 H   0  0  0  0  0  0  0  0  0  0  0  0
    1.4401    2.4585   -1.1869 H   0  0  0  0  0  0  0  0  0  0  0  0
    0.2634    1.1989   -1.5665 H   0  0  0  0  0  0  0  0  0  0  0  0
  1  2  1  0
  1  3  1  0
  2  4  1  0
  2  5  1  0
  6  7  1  0
  6  9  1  0
  6 10  1  0
  7  8  1  0
  7 11  1  0
  7 12  1  0
  8 13  1  0
  8 14  1  0
  8 15  1  0
M  RAD  2   1   2   6   2
M  END
>  <reaction>  (8) 
rmg_rxn_507

>  <mol_properties>  (8) 
{"0": {"label": "*1", "atom_type": "N3s"}, "1": {"label": "*0", "atom_type": "N3s"}, "2": {"label": "*2", "atom_type": "H0"}, "5": {"label": "*3", "atom_type": "Cs"}, "6": {"label": "*4", "atom_type": "Cs"}}

>  <type>  (8) 
unop_4

>  <geom_source>  (8) 
Heuristics

$$$$

     RDKit          3D

 15 13  0  0  0  0  0  0  0  0999 V2000
   -0.2539   -1.3608   -0.8412 N   0  0  0  0  0  2  0  0  0  0  0  0
   -0.2539   -1.3608   -2.1822 N   0  0  0  0  0  0  0  0  0  0  0  0
   -0.2539   -0.1850   -0.5010 H   0  0  0  0  0  0  0  0  0  0  0  0
   -0.0660   -2.2608   -2.5911 H   0  0  0  0  0  0  0  0  0  0  0  0
    0.1081   -0.5724   -2.6997 H   0  0  0  0  0  0  0  0  0  0  0  0
   -0.2539    1.0745   -0.1365 C   0  0  0  0  0  3  0  0  0  0  0  0
   -0.2539    1.2022    1.3815 C   0  0  0  0  0  0  0  0  0  0  0  0
    0.9603    0.5454    2.0255 C   0  0  0  0  0  0  0  0  0  0  0  0
   -1.1305    1.5506   -0.5791 H   0  0  0  0  0  0  0  0  0  0  0  0
    0.6345    1.5422   -0.5679 H   0  0  0  0  0  0  0  0  0  0  0  0
   -0.2851    2.2598    1.6578 H   0  0  0  0  0  0  0  0  0  0  0  0
   -1.1665    0.7544    1.7844 H   0  0  0  0  0  0  0  0  0  0  0  0
    1.8870    0.9965    1.6623 H   0  0  0  0  0  0  0  0  0  0  0  0
    0.9425    0.6473    3.1119 H   0  0  0  0  0  0  0  0  0  0  0  0
    0.9986   -0.5209    1.7899 H   0  0  0  0  0  0  0  0  0  0  0  0
  1  2  1  0
  1  3  1  0
  2  4  1  0
  2  5  1  0
  6  7  1  0
  6  9  1  0
  6 10  1  0
  7  8  1  0
  7 11  1  0
  7 12  1  0
  8 13  1  0
  8 14  1  0
  8 15  1  0
M  RAD  2   1   2   6   2
M  END
>  <reaction>  (9) 
rmg_rxn_507

>  <mol_properties>  (9) 
{"0": {"label": "*1", "atom_type": "N3s"}, "1": {"label": "*0", "atom_type": "N3s"}, "2": {"label": "*2", "atom_type": "H0"}, "5": {"label": "*3", "atom_type": "Cs"}, "6": {"label": "*4", "atom_type": "Cs"}}

>  <type>  (9) 
unop_5

>  <geom_source>  (9) 
Heuristics

$$$$

     RDKit          3D

 15 13  0  0  0  0  0  0  0  0999 V2000
   -0.6613   -1.8030    0.0647 N   0  0  0  0  0  2  0  0  0  0  0  0
   -0.6613   -1.8030   -1.2763 N   0  0  0  0  0  0  0  0  0  0  0  0
   -0.6613   -0.6272    0.4049 H   0  0  0  0  0  0  0  0  0  0  0  0
   -0.4734   -2.7029   -1.6852 H   0  0  0  0  0  0  0  0  0  0  0  0
   -0.2993   -1.0145   -1.7938 H   0  0  0  0  0  0  0  0  0  0  0  0
   -0.6613    0.6324    0.7694 C   0  0  0  0  0  3  0  0  0  0  0  0
    0.7614    1.1555    0.9207 C   0  0  0  0  0  0  0  0  0  0  0  0
    1.2309    1.9397   -0.2979 C   0  0  0  0  0  0  0  0  0  0  0  0
   -0.9794    0.0740    1.6514 H   0  0  0  0  0  0  0  0  0  0  0  0
   -1.3661    1.4543    0.6215 H   0  0  0  0  0  0  0  0  0  0  0  0
    0.8230    1.7911    1.8085 H   0  0  0  0  0  0  0  0  0  0  0  0
    1.4406    0.3170    1.0979 H   0  0  0  0  0  0  0  0  0  0  0  0
    0.5858    2.8028   -0.4794 H   0  0  0  0  0  0  0  0  0  0  0  0
    2.2511    2.3058   -0.1707 H   0  0  0  0  0  0  0  0  0  0  0  0
    1.2083    1.3171   -1.1956 H   0  0  0  0  0  0  0  0  0  0  0  0
  1  2  1  0
  1  3  1  0
  2  4  1  0
  2  5  1  0
  6  7  1  0
  6  9  1  0
  6 10  1  0
  7  8  1  0
  7 11  1  0
  7 12  1  0
  8 13  1  0
  8 14  1  0
  8 15  1  0
M  RAD  2   1   2   6   2
M  END
>  <reaction>  (10) 
rmg_rxn_507

>  <mol_properties>  (10) 
{"0": {"label": "*1", "atom_type": "N3s"}, "1": {"label": "*0", "atom_type": "N3s"}, "2": {"label": "*2", "atom_type": "H0"}, "5": {"label": "*3", "atom_type": "Cs"}, "6": {"label": "*4", "atom_type": "Cs"}}

>  <type>  (10) 
unop_6

>  <geom_source>  (10) 
Heuristics

$$$$

     RDKit          3D

 15 13  0  0  0  0  0  0  0  0999 V2000
   -0.7095   -1.7036   -0.2850 N   0  0  0  0  0  2  0  0  0  0  0  0
   -0.7095   -1.7036   -1.6260 N   0  0  0  0  0  0  0  0  0  0  0  0
   -0.7095   -0.5278    0.0552 H   0  0  0  0  0  0  0  0  0  0  0  0
   -0.5215   -2.6036   -2.0349 H   0  0  0  0  0  0  0  0  0  0  0  0
   -0.3475   -0.9152   -2.1435 H   0  0  0  0  0  0  0  0  0  0  0  0
   -0.7095    0.7318    0.4197 C   0  0  0  0  0  3  0  0  0  0  0  0
    0.5226    1.0572    1.2544 C   0  0  0  0  0  0  0  0  0  0  0  0
    1.6198    1.7330    0.4421 C   0  0  0  0  0  0  0  0  0  0  0  0
   -1.4835    0.2487    1.0184 H   0  0  0  0  0  0  0  0  0  0  0  0
   -1.1386    1.6386   -0.0133 H   0  0  0  0  0  0  0  0  0  0  0  0
    0.2367    1.7037    2.0887 H   0  0  0  0  0  0  0  0  0  0  0  0
    0.9133    0.1383    1.7002 H   0  0  0  0  0  0  0  0  0  0  0  0
    1.2641    2.6714    0.0097 H   0  0  0  0  0  0  0  0  0  0  0  0
    2.4932    1.9580    1.0566 H   0  0  0  0  0  0  0  0  0  0  0  0
    1.9461    1.0936   -0.3818 H   0  0  0  0  0  0  0  0  0  0  0  0
  1  2  1  0
  1  3  1  0
  2  4  1  0
  2  5  1  0
  6  7  1  0
  6  9  1  0
  6 10  1  0
  7  8  1  0
  7 11  1  0
  7 12  1  0
  8 13  1  0
  8 14  1  0
  8 15  1  0
M  RAD  2   1   2   6   2
M  END
>  <reaction>  (11) 
rmg_rxn_507

>  <mol_properties>  (11) 
{"0": {"label": "*1", "atom_type": "N3s"}, "1": {"label": "*0", "atom_type": "N3s"}, "2": {"label": "*2", "atom_type": "H0"}, "5": {"label": "*3", "atom_type": "Cs"}, "6": {"label": "*4", "atom_type": "Cs"}}

>  <type>  (11) 
unop_7

>  <geom_source>  (11) 
Heuristics

$$$$

     RDKit          3D

 15 13  0  0  0  0  0  0  0  0999 V2000
    0.7578   -1.4172   -0.2211 N   0  0  0  0  0  2  0  0  0  0  0  0
    0.7578   -1.4172   -1.5621 N   0  0  0  0  0  0  0  0  0  0  0  0
    0.7578   -0.2414    0.1191 H   0  0  0  0  0  0  0  0  0  0  0  0
    0.9457   -2.3171   -1.9710 H   0  0  0  0  0  0  0  0  0  0  0  0
    1.1198   -0.6288   -2.0796 H   0  0  0  0  0  0  0  0  0  0  0  0
    0.7578    1.0182    0.4836 C   0  0  0  0  0  3  0  0  0  0  0  0
   -0.6649    1.5413    0.6349 C   0  0  0  0  0  0  0  0  0  0  0  0
   -1.6835    0.4246    0.8244 C   0  0  0  0  0  0  0  0  0  0  0  0
    1.4723    1.8320    0.3490 H   0  0  0  0  0  0  0  0  0  0  0  0
    1.0608    0.4494    1.3660 H   0  0  0  0  0  0  0  0  0  0  0  0
   -0.7124    2.2257    1.4865 H   0  0  0  0  0  0  0  0  0  0  0  0
   -0.9314    2.1315   -0.2463 H   0  0  0  0  0  0  0  0  0  0  0  0
   -1.4575   -0.1629    1.7176 H   0  0  0  0  0  0  0  0  0  0  0  0
   -2.6956    0.8187    0.9309 H   0  0  0  0  0  0  0  0  0  0  0  0
   -1.6782   -0.2579   -0.0289 H   0  0  0  0  0  0  0  0  0  0  0  0
  1  2  1  0
  1  3  1  0
  2  4  1  0
  2  5  1  0
  6  7  1  0
  6  9  1  0
  6 10  1  0
  7  8  1  0
  7 11  1  0
  7 12  1  0
  8 13  1  0
  8 14  1  0
  8 15  1  0
M  RAD  2   1   2   6   2
M  END
>  <reaction>  (12) 
rmg_rxn_507

>  <mol_properties>  (12) 
{"0": {"label": "*1", "atom_type": "N3s"}, "1": {"label": "*0", "atom_type": "N3s"}, "2": {"label": "*2", "atom_type": "H0"}, "5": {"label": "*3", "atom_type": "Cs"}, "6": {"label": "*4", "atom_type": "Cs"}}

>  <type>  (12) 
unop_8

>  <geom_source>  (12) 
Heuristics

$$$$

     RDKit          3D

 15 13  0  0  0  0  0  0  0  0999 V2000
   -0.1149   -1.8396    0.5352 N   0  0  0  0  0  2  0  0  0  0  0  0
   -0.1149   -1.8396   -0.8058 N   0  0  0  0  0  0  0  0  0  0  0  0
   -0.1149   -0.6638    0.8754 H   0  0  0  0  0  0  0  0  0  0  0  0
    0.0730   -2.7395   -1.2147 H   0  0  0  0  0  0  0  0  0  0  0  0
    0.2471   -1.0511   -1.3233 H   0  0  0  0  0  0  0  0  0  0  0  0
   -0.1149    0.5958    1.2399 C   0  0  0  0  0  3  0  0  0  0  0  0
    0.5964    1.4614    0.2078 C   0  0  0  0  0  0  0  0  0  0  0  0
   -0.2664    1.7446   -1.0153 C   0  0  0  0  0  0  0  0  0  0  0  0
    0.5184    0.4041    2.1077 H   0  0  0  0  0  0  0  0  0  0  0  0
   -1.0286    1.0801    1.5929 H   0  0  0  0  0  0  0  0  0  0  0  0
    0.8952    2.4067    0.6692 H   0  0  0  0  0  0  0  0  0  0  0  0
    1.5211    0.9688   -0.1053 H   0  0  0  0  0  0  0  0  0  0  0  0
   -1.1849    2.2651   -0.7334 H   0  0  0  0  0  0  0  0  0  0  0  0
    0.2598    2.3653   -1.7425 H   0  0  0  0  0  0  0  0  0  0  0  0
   -0.5540    0.8158   -1.5140 H   0  0  0  0  0  0  0  0  0  0  0  0
  1  2  1  0
  1  3  1  0
  2  4  1  0
  2  5  1  0
  6  7  1  0
  6  9  1  0
  6 10  1  0
  7  8  1  0
  7 11  1  0
  7 12  1  0
  8 13  1  0
  8 14  1  0
  8 15  1  0
M  RAD  2   1   2   6   2
M  END
>  <reaction>  (13) 
rmg_rxn_507

>  <mol_properties>  (13) 
{"0": {"label": "*1", "atom_type": "N3s"}, "1": {"label": "*0", "atom_type": "N3s"}, "2": {"label": "*2", "atom_type": "H0"}, "5": {"label": "*3", "atom_type": "Cs"}, "6": {"label": "*4", "atom_type": "Cs"}}

>  <type>  (13) 
unop_9

>  <geom_source>  (13) 
Heuristics

$$$$

     RDKit          3D

 15 13  0  0  0  0  0  0  0  0999 V2000
    0.7209   -1.5337    0.1260 N   0  0  0  0  0  2  0  0  0  0  0  0
    0.7209   -1.5337   -1.2150 N   0  0  0  0  0  0  0  0  0  0  0  0
    0.7209   -0.3579    0.4662 H   0  0  0  0  0  0  0  0  0  0  0  0
    0.9089   -2.4337   -1.6239 H   0  0  0  0  0  0  0  0  0  0  0  0
    1.0829   -0.7453   -1.7325 H   0  0  0  0  0  0  0  0  0  0  0  0
    0.7209    0.9017    0.8307 C   0  0  0  0  0  3  0  0  0  0  0  0
   -0.5112    1.6225    0.2988 C   0  0  0  0  0  0  0  0  0  0  0  0
   -1.7004    0.6897    0.1090 C   0  0  0  0  0  0  0  0  0  0  0  0
    1.5613    1.5857    0.9599 H   0  0  0  0  0  0  0  0  0  0  0  0
    0.5148    0.4382    1.7986 H   0  0  0  0  0  0  0  0  0  0  0  0
   -0.7863    2.4280    0.9852 H   0  0  0  0  0  0  0  0  0  0  0  0
   -0.2693    2.1024   -0.6536 H   0  0  0  0  0  0  0  0  0  0  0  0
   -1.9828    0.2195    1.0541 H   0  0  0  0  0  0  0  0  0  0  0  0
   -2.5724    1.2238   -0.2722 H   0  0  0  0  0  0  0  0  0  0  0  0
   -1.4617   -0.1088   -0.5978 H   0  0  0  0  0  0  0  0  0  0  0  0
  1  2  1  0
  1  3  1  0
  2  4  1  0
  2  5  1  0
  6  7  1  0
  6  9  1  0
  6 10  1  0
  7  8  1  0
  7 11  1  0
  7 12  1  0
  8 13  1  0
  8 14  1  0
  8 15  1  0
M  RAD  2   1   2   6   2
M  END
>  <reaction>  (14) 
rmg_rxn_507

>  <mol_properties>  (14) 
{"0": {"label": "*1", "atom_type": "N3s"}, "1": {"label": "*0", "atom_type": "N3s"}, "2": {"label": "*2", "atom_type": "H0"}, "5": {"label": "*3", "atom_type": "Cs"}, "6": {"label": "*4", "atom_type": "Cs"}}

>  <type>  (14) 
unop_10

>  <geom_source>  (14) 
Heuristics

$$$$

     RDKit          3D

 15 13  0  0  0  0  0  0  0  0999 V2000
   -0.5848   -1.5582   -0.6097 N   0  0  0  0  0  2  0  0  0  0  0  0
   -0.5848   -1.5582   -1.9507 N   0  0  0  0  0  0  0  0  0  0  0  0
   -0.5848   -0.3824   -0.2695 H   0  0  0  0  0  0  0  0  0  0  0  0
   -0.3968   -2.4581   -2.3596 H   0  0  0  0  0  0  0  0  0  0  0  0
   -0.2228   -0.7698   -2.4682 H   0  0  0  0  0  0  0  0  0  0  0  0
   -0.5848    0.8772    0.0950 C   0  0  0  0  0  3  0  0  0  0  0  0
    0.1266    1.0578    1.4299 C   0  0  0  0  0  0  0  0  0  0  0  0
    1.6246    1.2840    1.2706 C   0  0  0  0  0  0  0  0  0  0  0  0
   -1.6557    0.7166    0.2297 H   0  0  0  0  0  0  0  0  0  0  0  0
   -0.4555    1.7579   -0.5388 H   0  0  0  0  0  0  0  0  0  0  0  0
   -0.3142    1.9031    1.9658 H   0  0  0  0  0  0  0  0  0  0  0  0
   -0.0441    0.1773    2.0554 H   0  0  0  0  0  0  0  0  0  0  0  0
    1.8235    2.1775    0.6738 H   0  0  0  0  0  0  0  0  0  0  0  0
    2.1161    1.4111    2.2366 H   0  0  0  0  0  0  0  0  0  0  0  0
    2.0957    0.4380    0.7641 H   0  0  0  0  0  0  0  0  0  0  0  0
  1  2  1  0
  1  3  1  0
  2  4  1  0
  2  5  1  0
  6  7  1  0
  6  9  1  0
  6 10  1  0
  7  8  1  0
  7 11  1  0
  7 12  1  0
  8 13  1  0
  8 14  1  0
  8 15  1  0
M  RAD  2   1   2   6   2
M  END
>  <reaction>  (15) 
rmg_rxn_507

>  <mol_properties>  (15) 
{"0": {"label": "*1", "atom_type": "N3s"}, "1": {"label": "*0", "atom_type": "N3s"}, "2": {"label": "*2", "atom_type": "H0"}, "5": {"label": "*3", "atom_type": "Cs"}, "6": {"label": "*4", "atom_type": "Cs"}}

>  <type>  (15) 
unop_11

>  <geom_source>  (15) 
Heuristics

$$$$

     RDKit          3D

 15 13  0  0  0  0  0  0  0  0999 V2000
    0.2390   -1.7611    0.5421 N   0  0  0  0  0  2  0  0  0  0  0  0
    0.2390   -1.7611   -0.7989 N   0  0  0  0  0  0  0  0  0  0  0  0
    0.2390   -0.5853    0.8823 H   0  0  0  0  0  0  0  0  0  0  0  0
    0.4269   -2.6611   -1.2078 H   0  0  0  0  0  0  0  0  0  0  0  0
    0.6009   -0.9727   -1.3164 H   0  0  0  0  0  0  0  0  0  0  0  0
    0.2390    0.6743    1.2468 C   0  0  0  0  0  3  0  0  0  0  0  0
    0.2390    1.5928    0.0316 C   0  0  0  0  0  0  0  0  0  0  0  0
   -0.9753    1.3815   -0.8637 C   0  0  0  0  0  0  0  0  0  0  0  0
    1.1156    0.8404    1.8752 H   0  0  0  0  0  0  0  0  0  0  0  0
   -0.6494    0.8393    1.8612 H   0  0  0  0  0  0  0  0  0  0  0  0
    0.2702    2.6346    0.3627 H   0  0  0  0  0  0  0  0  0  0  0  0
    1.1516    1.4294   -0.5483 H   0  0  0  0  0  0  0  0  0  0  0  0
   -1.9020    1.5688   -0.3157 H   0  0  0  0  0  0  0  0  0  0  0  0
   -0.9574    2.0477   -1.7278 H   0  0  0  0  0  0  0  0  0  0  0  0
   -1.0136    0.3541   -1.2339 H   0  0  0  0  0  0  0  0  0  0  0  0
  1  2  1  0
  1  3  1  0
  2  4  1  0
  2  5  1  0
  6  7  1  0
  6  9  1  0
  6 10  1  0
  7  8  1  0
  7 11  1  0
  7 12  1  0
  8 13  1  0
  8 14  1  0
  8 15  1  0
M  RAD  2   1   2   6   2
M  END
>  <reaction>  (16) 
rmg_rxn_507

>  <mol_properties>  (16) 
{"0": {"label": "*1", "atom_type": "N3s"}, "1": {"label": "*0", "atom_type": "N3s"}, "2": {"label": "*2", "atom_type": "H0"}, "5": {"label": "*3", "atom_type": "Cs"}, "6": {"label": "*4", "atom_type": "Cs"}}

>  <type>  (16) 
unop_12

>  <geom_source>  (16) 
Heuristics

$$$$

     RDKit          3D

 15 13  0  0  0  0  0  0  0  0999 V2000
    0.5331   -1.6506    0.3952 N   0  0  0  0  0  2  0  0  0  0  0  0
    0.5331   -1.6506   -0.9458 N   0  0  0  0  0  0  0  0  0  0  0  0
    0.5331   -0.4748    0.7354 H   0  0  0  0  0  0  0  0  0  0  0  0
    0.7210   -2.5505   -1.3547 H   0  0  0  0  0  0  0  0  0  0  0  0
    0.8951   -0.8621   -1.4633 H   0  0  0  0  0  0  0  0  0  0  0  0
    0.5331    0.7848    1.0999 C   0  0  0  0  0  3  0  0  0  0  0  0
   -0.1782    1.6504    0.0677 C   0  0  0  0  0  0  0  0  0  0  0  0
   -1.4496    1.0024   -0.4655 C   0  0  0  0  0  0  0  0  0  0  0  0
    1.4405    1.2654    1.4696 H   0  0  0  0  0  0  0  0  0  0  0  0
   -0.1146    0.5878    1.9576 H   0  0  0  0  0  0  0  0  0  0  0  0
   -0.4222    2.6196    0.5115 H   0  0  0  0  0  0  0  0  0  0  0  0
    0.5010    1.8577   -0.7638 H   0  0  0  0  0  0  0  0  0  0  0  0
   -2.1598    0.8122    0.3429 H   0  0  0  0  0  0  0  0  0  0  0  0
   -1.9444    1.6368   -1.2027 H   0  0  0  0  0  0  0  0  0  0  0  0
   -1.2292    0.0442   -0.9424 H   0  0  0  0  0  0  0  0  0  0  0  0
  1  2  1  0
  1  3  1  0
  2  4  1  0
  2  5  1  0
  6  7  1  0
  6  9  1  0
  6 10  1  0
  7  8  1  0
  7 11  1  0
  7 12  1  0
  8 13  1  0
  8 14  1  0
  8 15  1  0
M  RAD  2   1   2   6   2
M  END
>  <reaction>  (17) 
rmg_rxn_507

>  <mol_properties>  (17) 
{"0": {"label": "*1", "atom_type": "N3s"}, "1": {"label": "*0", "atom_type": "N3s"}, "2": {"label": "*2", "atom_type": "H0"}, "5": {"label": "*3", "atom_type": "Cs"}, "6": {"label": "*4", "atom_type": "Cs"}}

>  <type>  (17) 
unop_13

>  <geom_source>  (17) 
gaussian_log

$$$$
