
     RDKit          3D

 21 21  0  0  0  0  0  0  0  0999 V2000
    3.6134   -0.5397    0.5524 C   0  0  0  0  0  0  0  0  0  0  0  0
    2.4069    0.0144   -0.1346 C   0  0  0  0  0  0  0  0  0  0  0  0
    1.2502    0.2817    0.4539 C   0  0  0  0  0  0  0  0  0  0  0  0
    0.0328    0.8413   -0.2413 C   0  0  0  0  0  0  0  0  0  0  0  0
   -0.3305    2.1846    0.3335 C   0  0  0  0  0  0  0  0  0  0  0  0
   -1.4888    2.4541    0.9167 C   0  0  0  0  0  0  0  0  0  0  0  0
   -2.5976    1.4577    1.0560 C   0  0  0  0  0  0  0  0  0  0  0  0
   -2.2732    0.1386    0.4266 C   0  0  0  0  0  0  0  0  0  0  0  0
   -1.1146   -0.1300   -0.1564 C   0  0  0  0  0  0  0  0  0  0  0  0
    3.9131   -1.4926    0.1084 H   0  0  0  0  0  0  0  0  0  0  0  0
    4.4655    0.1379    0.4536 H   0  0  0  0  0  0  0  0  0  0  0  0
    3.4270   -0.7014    1.6147 H   0  0  0  0  0  0  0  0  0  0  0  0
    2.5051    0.2069   -1.2012 H   0  0  0  0  0  0  0  0  0  0  0  0
    1.1312    0.0964    1.5197 H   0  0  0  0  0  0  0  0  0  0  0  0
    0.2976    0.9752   -1.2978 H   0  0  0  0  0  0  0  0  0  0  0  0
    0.4326    2.9530    0.2666 H   0  0  0  0  0  0  0  0  0  0  0  0
   -1.6671    3.4467    1.3168 H   0  0  0  0  0  0  0  0  0  0  0  0
   -2.8369    1.3143    2.1168 H   0  0  0  0  0  0  0  0  0  0  0  0
   -3.5159    1.8624    0.6138 H   0  0  0  0  0  0  0  0  0  0  0  0
   -3.0457   -0.6226    0.4554 H   0  0  0  0  0  0  0  0  0  0  0  0
   -0.9431   -1.1083   -0.5931 H   0  0  0  0  0  0  0  0  0  0  0  0
  1  2  1  0
  1 10  1  0
  1 11  1  0
  1 12  1  0
  2  3  2  3
  2 13  1  0
  3  4  1  0
  3 14  1  0
  4  5  1  0
  4  9  1  0
  4 15  1  0
  5  6  2  0
  5 16  1  0
  6  7  1  0
  6 17  1  0
  7  8  1  0
  7 18  1  0
  7 19  1  0
  8  9  2  0
  8 20  1  0
  9 21  1  0
M  END
>  <reaction>  (1) 
rmg_rxn_15540

>  <mol_properties>  (1) 
{"6": {"label": "donator", "atom_type": "Cs"}, "17": {"label": "d_hydrogen", "atom_type": "H0"}}

>  <type>  (1) 
r1h

$$$$

     RDKit          3D

  5  4  0  0  0  0  0  0  0  0999 V2000
    0.8934    0.3742    0.4948 O   0  0  0  0  0  0  0  0  0  0  0  0
    0.1582   -0.1610   -0.5904 N   0  0  0  0  0  0  0  0  0  0  0  0
   -1.0297   -0.3739   -0.4689 C   0  0  0  0  0  3  0  0  0  0  0  0
    1.7805    0.4382    0.1306 H   0  0  0  0  0  0  0  0  0  0  0  0
   -1.8023   -0.2775    0.2859 H   0  0  0  0  0  0  0  0  0  0  0  0
  1  2  1  0
  1  4  1  0
  2  3  2  3
  3  5  1  0
M  RAD  1   3   2
M  END
>  <reaction>  (2) 
rmg_rxn_15540

>  <mol_properties>  (2) 
{"2": {"label": "acceptor", "atom_type": "Cd"}}

>  <type>  (2) 
r2

$$$$

     RDKit          3D

  6  5  0  0  0  0  0  0  0  0999 V2000
    1.2314    0.0428    0.5088 O   0  0  0  0  0  0  0  0  0  0  0  0
    0.2987    0.2341   -0.4915 N   0  0  0  0  0  0  0  0  0  0  0  0
   -0.8599   -0.1122   -0.1290 C   0  0  0  0  0  0  0  0  0  0  0  0
    2.0507    0.3401    0.1082 H   0  0  0  0  0  0  0  0  0  0  0  0
   -1.0700   -0.5112    0.8610 H   0  0  0  0  0  0  0  0  0  0  0  0
   -1.6509    0.0064   -0.8574 H   0  0  0  0  0  0  0  0  0  0  0  0
  1  2  1  0
  1  4  1  0
  2  3  2  3
  3  5  1  0
  3  6  1  0
M  END
>  <reaction>  (3) 
rmg_rxn_15540

>  <mol_properties>  (3) 
{"2": {"label": "acceptor", "atom_type": "Cd"}, "5": {"label": "a_hydrogen", "atom_type": "H0"}}

>  <type>  (3) 
r2h

$$$$

     RDKit          3D

 26 25  0  0  0  0  0  0  0  0999 V2000
   -1.7772   -3.2634   -0.0561 O   0  0  0  0  0  0  0  0  0  0  0  0
   -1.6069   -1.8673   -0.0397 N   0  0  0  0  0  0  0  0  0  0  0  0
   -2.6471   -1.2034   -0.0436 C   0  0  0  0  0  3  0  0  0  0  0  0
   -0.8725   -3.5851   -0.0500 H   0  0  0  0  0  0  0  0  0  0  0  0
   -3.6882   -1.5221   -0.0578 H   0  0  0  0  0  0  0  0  0  0  0  0
    3.6137   -1.5969    0.0177 C   0  0  0  0  0  0  0  0  0  0  0  0
    2.9923   -0.2370    0.0255 C   0  0  0  0  0  0  0  0  0  0  0  0
    1.6890    0.0013    0.0144 C   0  0  0  0  0  0  0  0  0  0  0  0
    1.0614    1.3772    0.0223 C   0  0  0  0  0  0  0  0  0  0  0  0
    0.2259    1.5540    1.2605 C   0  0  0  0  0  0  0  0  0  0  0  0
   -1.1015    1.5977    1.2438 C   0  0  0  0  0  0  0  0  0  0  0  0
   -1.8819    1.4709   -0.0075 C   0  0  0  0  0  0  0  0  0  0  0  0
   -1.0755    1.6238   -1.2392 C   0  0  0  0  0  0  0  0  0  0  0  0
    0.2519    1.5801   -1.2291 C   0  0  0  0  0  0  0  0  0  0  0  0
    4.2402   -1.7472    0.9009 H   0  0  0  0  0  0  0  0  0  0  0  0
    2.8538   -2.3793    0.0015 H   0  0  0  0  0  0  0  0  0  0  0  0
    4.2585   -1.7287   -0.8551 H   0  0  0  0  0  0  0  0  0  0  0  0
    3.6792    0.6069    0.0415 H   0  0  0  0  0  0  0  0  0  0  0  0
    0.9749   -0.8195   -0.0017 H   0  0  0  0  0  0  0  0  0  0  0  0
    1.8772    2.1096    0.0385 H   0  0  0  0  0  0  0  0  0  0  0  0
    0.7628    1.6196    2.2003 H   0  0  0  0  0  0  0  0  0  0  0  0
   -1.6515    1.7010    2.1723 H   0  0  0  0  0  0  0  0  0  0  0  0
   -2.3185    0.3500   -0.0238 H   0  0  0  0  0  0  0  0  0  0  0  0
   -2.7924    2.0735   -0.0107 H   0  0  0  0  0  0  0  0  0  0  0  0
   -1.6060    1.7467   -2.1766 H   0  0  0  0  0  0  0  0  0  0  0  0
    0.8083    1.6654   -2.1559 H   0  0  0  0  0  0  0  0  0  0  0  0
  1  2  1  0
  1  4  1  0
  2  3  2  3
  3  5  1  0
  6  7  1  0
  6 15  1  0
  6 16  1  0
  6 17  1  0
  7  8  2  3
  7 18  1  0
  8  9  1  0
  8 19  1  0
  9 10  1  0
  9 14  1  0
  9 20  1  0
 10 11  2  0
 10 21  1  0
 11 12  1  0
 11 22  1  0
 12 13  1  0
 12 23  1  0
 12 24  1  0
 13 14  2  0
 13 25  1  0
 14 26  1  0
M  RAD  1   3   2
M  END
>  <reaction>  (4) 
rmg_rxn_15540

>  <mol_properties>  (4) 
{"1": {"label": "*4", "atom_type": "N3d"}, "2": {"label": "*3", "atom_type": "Cd"}, "10": {"label": "*0", "atom_type": "Cd"}, "11": {"label": "*1", "atom_type": "Cs"}, "22": {"label": "*2", "atom_type": "H0"}}

>  <type>  (4) 
ts

$$$$

     RDKit          3D

 26 25  0  0  0  0  0  0  0  0999 V2000
   -1.4148   -3.2948   -0.0027 O   0  0  0  0  0  0  0  0  0  0  0  0
   -1.2384   -1.8989   -0.0057 N   0  0  0  0  0  0  0  0  0  0  0  0
   -2.2578   -1.1823    0.0164 C   0  0  0  0  0  0  0  0  0  0  0  0
   -0.5172   -3.6531   -0.0239 H   0  0  0  0  0  0  0  0  0  0  0  0
   -3.2863   -1.5290    0.0382 H   0  0  0  0  0  0  0  0  0  0  0  0
    3.3415   -1.6581    0.0077 C   0  0  0  0  0  0  0  0  0  0  0  0
    2.8311   -0.2548    0.0000 C   0  0  0  0  0  0  0  0  0  0  0  0
    1.5507    0.0709   -0.0023 C   0  0  0  0  0  0  0  0  0  0  0  0
    1.0308    1.4981   -0.0086 C   0  0  0  0  0  0  0  0  0  0  0  0
    0.2206    1.7102    1.2315 C   0  0  0  0  0  3  0  0  0  0  0  0
   -1.1221    1.6614    1.2200 C   0  0  0  0  0  0  0  0  0  0  0  0
   -1.8521    1.4295    0.0050 C   0  0  0  0  0  0  0  0  0  0  0  0
   -1.1333    1.6495   -1.2189 C   0  0  0  0  0  0  0  0  0  0  0  0
    0.2093    1.6977   -1.2433 C   0  0  0  0  0  0  0  0  0  0  0  0
    3.9543   -1.8416   -0.8748 H   0  0  0  0  0  0  0  0  0  0  0  0
    3.9665   -1.8275    0.8844 H   0  0  0  0  0  0  0  0  0  0  0  0
    2.5190   -2.3681    0.0191 H   0  0  0  0  0  0  0  0  0  0  0  0
    3.5939    0.5148   -0.0040 H   0  0  0  0  0  0  0  0  0  0  0  0
    0.7737   -0.6816    0.0013 H   0  0  0  0  0  0  0  0  0  0  0  0
    1.8961    2.1729   -0.0160 H   0  0  0  0  0  0  0  0  0  0  0  0
    0.7670    1.8770    2.1470 H   0  0  0  0  0  0  0  0  0  0  0  0
   -1.6827    1.7807    2.1366 H   0  0  0  0  0  0  0  0  0  0  0  0
   -2.0455    0.0387    0.0124 H   0  0  0  0  0  0  0  0  0  0  0  0
   -2.9090    1.6767    0.0087 H   0  0  0  0  0  0  0  0  0  0  0  0
   -1.7024    1.7600   -2.1313 H   0  0  0  0  0  0  0  0  0  0  0  0
    0.7471    1.8556   -2.1654 H   0  0  0  0  0  0  0  0  0  0  0  0
  1  2  1  0
  1  4  1  0
  2  3  2  3
  3  5  1  0
  3 23  1  0
  6  7  1  0
  6 15  1  0
  6 16  1  0
  6 17  1  0
  7  8  2  3
  7 18  1  0
  8  9  1  0
  8 19  1  0
  9 10  1  0
  9 14  1  0
  9 20  1  0
 10 11  1  0
 10 21  1  0
 11 12  2  0
 11 22  1  0
 12 13  1  0
 12 24  1  0
 13 14  2  0
 13 25  1  0
 14 26  1  0
M  RAD  1  10   2
M  END
>  <reaction>  (5) 
rmg_rxn_15540

>  <mol_properties>  (5) 
{"1": {"label": "*4", "atom_type": "N3d"}, "2": {"label": "*3", "atom_type": "Cd"}, "10": {"label": "*0", "atom_type": "Cd"}, "11": {"label": "*1", "atom_type": "Cs"}, "22": {"label": "*2", "atom_type": "H0"}}

>  <type>  (5) 
unop_1

>  <geom_source>  (5) 
crest_best.xyz

$$$$

     RDKit          3D

 26 25  0  0  0  0  0  0  0  0999 V2000
    0.8128    4.8217    1.3096 O   0  0  0  0  0  0  0  0  0  0  0  0
   -0.0574    3.8027    1.6432 N   0  0  0  0  0  0  0  0  0  0  0  0
   -0.1018    2.9094    0.7523 C   0  0  0  0  0  0  0  0  0  0  0  0
    0.7510    5.4199    2.0569 H   0  0  0  0  0  0  0  0  0  0  0  0
    0.4872    2.9619   -0.1609 H   0  0  0  0  0  0  0  0  0  0  0  0
   -0.1018   -3.0816   -3.9413 C   0  0  0  0  0  0  0  0  0  0  0  0
   -0.1018   -3.0816   -2.4464 C   0  0  0  0  0  0  0  0  0  0  0  0
   -0.1018   -1.9977   -1.6843 C   0  0  0  0  0  0  0  0  0  0  0  0
   -0.1018   -1.9995   -0.1748 C   0  0  0  0  0  0  0  0  0  0  0  0
   -1.3480   -1.3391    0.3522 C   0  0  0  0  0  3  0  0  0  0  0  0
   -1.3485   -0.2590    1.1190 C   0  0  0  0  0  0  0  0  0  0  0  0
   -0.1018    0.4296    1.5806 C   0  0  0  0  0  0  0  0  0  0  0  0
    1.1449   -0.2590    1.1190 C   0  0  0  0  0  0  0  0  0  0  0  0
    1.1444   -1.3391    0.3522 C   0  0  0  0  0  0  0  0  0  0  0  0
    0.7761   -3.6024   -4.3325 H   0  0  0  0  0  0  0  0  0  0  0  0
   -0.9797   -3.6024   -4.3325 H   0  0  0  0  0  0  0  0  0  0  0  0
   -0.1018   -2.0660   -4.3390 H   0  0  0  0  0  0  0  0  0  0  0  0
   -0.1018   -4.0572   -1.9642 H   0  0  0  0  0  0  0  0  0  0  0  0
   -0.1018   -1.0125   -2.1466 H   0  0  0  0  0  0  0  0  0  0  0  0
   -0.1018   -3.0488    0.1467 H   0  0  0  0  0  0  0  0  0  0  0  0
   -2.2884   -1.7892    0.0519 H   0  0  0  0  0  0  0  0  0  0  0  0
   -2.2928    0.1626    1.4471 H   0  0  0  0  0  0  0  0  0  0  0  0
   -0.1018    1.6781    1.1636 H   0  0  0  0  0  0  0  0  0  0  0  0
   -0.1018    0.4997    2.6750 H   0  0  0  0  0  0  0  0  0  0  0  0
    2.0892    0.1626    1.4471 H   0  0  0  0  0  0  0  0  0  0  0  0
    2.0848   -1.7892    0.0519 H   0  0  0  0  0  0  0  0  0  0  0  0
  1  2  1  0
  1  4  1  0
  2  3  2  3
  3  5  1  0
  3 23  1  0
  6  7  1  0
  6 15  1  0
  6 16  1  0
  6 17  1  0
  7  8  2  3
  7 18  1  0
  8  9  1  0
  8 19  1  0
  9 10  1  0
  9 14  1  0
  9 20  1  0
 10 11  1  0
 10 21  1  0
 11 12  2  0
 11 22  1  0
 12 13  1  0
 12 24  1  0
 13 14  2  0
 13 25  1  0
 14 26  1  0
M  RAD  1  10   2
M  END
>  <reaction>  (6) 
rmg_rxn_15540

>  <mol_properties>  (6) 
{"1": {"label": "*4", "atom_type": "N3d"}, "2": {"label": "*3", "atom_type": "Cd"}, "10": {"label": "*0", "atom_type": "Cd"}, "11": {"label": "*1", "atom_type": "Cs"}, "22": {"label": "*2", "atom_type": "H0"}}

>  <type>  (6) 
unop_2

>  <geom_source>  (6) 
Heuristics

$$$$

     RDKit          3D

 26 25  0  0  0  0  0  0  0  0999 V2000
   -1.2847   -3.3417   -0.0018 O   0  0  0  0  0  0  0  0  0  0  0  0
   -1.1633   -1.9401   -0.0039 N   0  0  0  0  0  0  0  0  0  0  0  0
   -2.2099   -1.2636    0.0098 C   0  0  0  0  0  0  0  0  0  0  0  0
   -0.3735   -3.6644   -0.0148 H   0  0  0  0  0  0  0  0  0  0  0  0
   -3.2244   -1.6501    0.0240 H   0  0  0  0  0  0  0  0  0  0  0  0
    3.3916   -1.5411    0.0042 C   0  0  0  0  0  0  0  0  0  0  0  0
    2.8342   -0.1557    0.0005 C   0  0  0  0  0  0  0  0  0  0  0  0
    1.5435    0.1261   -0.0019 C   0  0  0  0  0  0  0  0  0  0  0  0
    0.9749    1.5346   -0.0048 C   0  0  0  0  0  0  0  0  0  0  0  0
    0.1553    1.7149    1.2342 C   0  0  0  0  0  3  0  0  0  0  0  0
   -1.1847    1.6175    1.2199 C   0  0  0  0  0  0  0  0  0  0  0  0
   -1.9034    1.3618    0.0028 C   0  0  0  0  0  0  0  0  0  0  0  0
   -1.1908    1.6118   -1.2189 C   0  0  0  0  0  0  0  0  0  0  0  0
    0.1491    1.7089   -1.2405 C   0  0  0  0  0  0  0  0  0  0  0  0
    4.0138   -1.6950    0.8856 H   0  0  0  0  0  0  0  0  0  0  0  0
    2.5934   -2.2784    0.0039 H   0  0  0  0  0  0  0  0  0  0  0  0
    4.0181   -1.6984   -0.8736 H   0  0  0  0  0  0  0  0  0  0  0  0
    3.5705    0.6392   -0.0005 H   0  0  0  0  0  0  0  0  0  0  0  0
    0.7926   -0.6525   -0.0018 H   0  0  0  0  0  0  0  0  0  0  0  0
    1.8163    2.2390   -0.0085 H   0  0  0  0  0  0  0  0  0  0  0  0
    0.6935    1.8995    2.1512 H   0  0  0  0  0  0  0  0  0  0  0  0
   -1.7512    1.7143    2.1355 H   0  0  0  0  0  0  0  0  0  0  0  0
   -2.0447   -0.0352    0.0063 H   0  0  0  0  0  0  0  0  0  0  0  0
   -2.9687    1.5697    0.0050 H   0  0  0  0  0  0  0  0  0  0  0  0
   -1.7619    1.7047   -2.1321 H   0  0  0  0  0  0  0  0  0  0  0  0
    0.6827    1.8893   -2.1610 H   0  0  0  0  0  0  0  0  0  0  0  0
  1  2  1  0
  1  4  1  0
  2  3  2  3
  3  5  1  0
  3 23  1  0
  6  7  1  0
  6 15  1  0
  6 16  1  0
  6 17  1  0
  7  8  2  3
  7 18  1  0
  8  9  1  0
  8 19  1  0
  9 10  1  0
  9 14  1  0
  9 20  1  0
 10 11  1  0
 10 21  1  0
 11 12  2  0
 11 22  1  0
 12 13  1  0
 12 24  1  0
 13 14  2  0
 13 25  1  0
 14 26  1  0
M  RAD  1  10   2
M  END
>  <reaction>  (7) 
rmg_rxn_15540

>  <mol_properties>  (7) 
{"1": {"label": "*4", "atom_type": "N3d"}, "2": {"label": "*3", "atom_type": "Cd"}, "10": {"label": "*0", "atom_type": "Cd"}, "11": {"label": "*1", "atom_type": "Cs"}, "22": {"label": "*2", "atom_type": "H0"}}

>  <type>  (7) 
unop_3

>  <geom_source>  (7) 
Heuristics

$$$$

     RDKit          3D

 26 25  0  0  0  0  0  0  0  0999 V2000
   -1.4247    3.2903   -0.0046 O   0  0  0  0  0  0  0  0  0  0  0  0
   -1.2455    1.8948   -0.0139 N   0  0  0  0  0  0  0  0  0  0  0  0
   -2.2626    1.1759    0.0335 C   0  0  0  0  0  0  0  0  0  0  0  0
   -0.5287    3.6504   -0.0497 H   0  0  0  0  0  0  0  0  0  0  0  0
   -3.2910    1.5203    0.0815 H   0  0  0  0  0  0  0  0  0  0  0  0
    3.3418    1.6643    0.0141 C   0  0  0  0  0  0  0  0  0  0  0  0
    2.8325    0.2607    0.0014 C   0  0  0  0  0  0  0  0  0  0  0  0
    1.5524   -0.0663   -0.0042 C   0  0  0  0  0  0  0  0  0  0  0  0
    1.0343   -1.4941   -0.0148 C   0  0  0  0  0  0  0  0  0  0  0  0
    0.2096   -1.6902   -1.2478 C   0  0  0  0  0  3  0  0  0  0  0  0
   -1.1330   -1.6465   -1.2193 C   0  0  0  0  0  0  0  0  0  0  0  0
   -1.8491   -1.4345    0.0076 C   0  0  0  0  0  0  0  0  0  0  0  0
   -1.1147   -1.6688    1.2195 C   0  0  0  0  0  0  0  0  0  0  0  0
    0.2282   -1.7128    1.2269 C   0  0  0  0  0  0  0  0  0  0  0  0
    3.9635    1.8482   -0.8620 H   0  0  0  0  0  0  0  0  0  0  0  0
    2.5188    2.3739    0.0174 H   0  0  0  0  0  0  0  0  0  0  0  0
    3.9577    1.8340    0.8972 H   0  0  0  0  0  0  0  0  0  0  0  0
    3.5959   -0.5083   -0.0029 H   0  0  0  0  0  0  0  0  0  0  0  0
    0.7744    0.6852   -0.0001 H   0  0  0  0  0  0  0  0  0  0  0  0
    1.9006   -2.1677   -0.0272 H   0  0  0  0  0  0  0  0  0  0  0  0
    0.7453   -1.8419   -2.1723 H   0  0  0  0  0  0  0  0  0  0  0  0
   -1.7044   -1.7543   -2.1306 H   0  0  0  0  0  0  0  0  0  0  0  0
   -2.0473   -0.0445    0.0220 H   0  0  0  0  0  0  0  0  0  0  0  0
   -2.9051   -1.6855    0.0132 H   0  0  0  0  0  0  0  0  0  0  0  0
   -1.6722   -1.7934    2.1373 H   0  0  0  0  0  0  0  0  0  0  0  0
    0.7778   -1.8811    2.1403 H   0  0  0  0  0  0  0  0  0  0  0  0
  1  2  1  0
  1  4  1  0
  2  3  2  3
  3  5  1  0
  3 23  1  0
  6  7  1  0
  6 15  1  0
  6 16  1  0
  6 17  1  0
  7  8  2  3
  7 18  1  0
  8  9  1  0
  8 19  1  0
  9 10  1  0
  9 14  1  0
  9 20  1  0
 10 11  1  0
 10 21  1  0
 11 12  2  0
 11 22  1  0
 12 13  1  0
 12 24  1  0
 13 14  2  0
 13 25  1  0
 14 26  1  0
M  RAD  1  10   2
M  END
>  <reaction>  (8) 
rmg_rxn_15540

>  <mol_properties>  (8) 
{"1": {"label": "*4", "atom_type": "N3d"}, "2": {"label": "*3", "atom_type": "Cd"}, "10": {"label": "*0", "atom_type": "Cd"}, "11": {"label": "*1", "atom_type": "Cs"}, "22": {"label": "*2", "atom_type": "H0"}}

>  <type>  (8) 
unop_4

>  <geom_source>  (8) 
Heuristics

$$$$

     RDKit          3D

 26 25  0  0  0  0  0  0  0  0999 V2000
   -0.8259    4.8625    0.7306 O   0  0  0  0  0  0  0  0  0  0  0  0
   -0.9252    3.4860    0.7792 N   0  0  0  0  0  0  0  0  0  0  0  0
    0.2027    2.9360    0.9162 C   0  0  0  0  0  0  0  0  0  0  0  0
   -1.7360    5.1472    0.6269 H   0  0  0  0  0  0  0  0  0  0  0  0
    1.1280    3.5041    0.9851 H   0  0  0  0  0  0  0  0  0  0  0  0
    0.2027   -3.0550   -3.7775 C   0  0  0  0  0  0  0  0  0  0  0  0
    0.2027   -3.0550   -2.2826 C   0  0  0  0  0  0  0  0  0  0  0  0
    0.2027   -1.9711   -1.5204 C   0  0  0  0  0  0  0  0  0  0  0  0
    0.2027   -1.9729   -0.0109 C   0  0  0  0  0  0  0  0  0  0  0  0
   -1.0435   -1.3125    0.5161 C   0  0  0  0  0  3  0  0  0  0  0  0
   -1.0440   -0.2324    1.2829 C   0  0  0  0  0  0  0  0  0  0  0  0
    0.2027    0.4561    1.7444 C   0  0  0  0  0  0  0  0  0  0  0  0
    1.4494   -0.2324    1.2829 C   0  0  0  0  0  0  0  0  0  0  0  0
    1.4490   -1.3125    0.5161 C   0  0  0  0  0  0  0  0  0  0  0  0
    1.0806   -3.5758   -4.1686 H   0  0  0  0  0  0  0  0  0  0  0  0
   -0.6752   -3.5758   -4.1686 H   0  0  0  0  0  0  0  0  0  0  0  0
    0.2027   -2.0394   -4.1752 H   0  0  0  0  0  0  0  0  0  0  0  0
    0.2027   -4.0306   -1.8004 H   0  0  0  0  0  0  0  0  0  0  0  0
    0.2027   -0.9859   -1.9828 H   0  0  0  0  0  0  0  0  0  0  0  0
    0.2027   -3.0222    0.3105 H   0  0  0  0  0  0  0  0  0  0  0  0
   -1.9839   -1.7626    0.2158 H   0  0  0  0  0  0  0  0  0  0  0  0
   -1.9883    0.1891    1.6109 H   0  0  0  0  0  0  0  0  0  0  0  0
    0.2027    1.7046    1.3274 H   0  0  0  0  0  0  0  0  0  0  0  0
    0.2027    0.5263    2.8388 H   0  0  0  0  0  0  0  0  0  0  0  0
    2.3937    0.1891    1.6109 H   0  0  0  0  0  0  0  0  0  0  0  0
    2.3893   -1.7626    0.2158 H   0  0  0  0  0  0  0  0  0  0  0  0
  1  2  1  0
  1  4  1  0
  2  3  2  3
  3  5  1  0
  3 23  1  0
  6  7  1  0
  6 15  1  0
  6 16  1  0
  6 17  1  0
  7  8  2  3
  7 18  1  0
  8  9  1  0
  8 19  1  0
  9 10  1  0
  9 14  1  0
  9 20  1  0
 10 11  1  0
 10 21  1  0
 11 12  2  0
 11 22  1  0
 12 13  1  0
 12 24  1  0
 13 14  2  0
 13 25  1  0
 14 26  1  0
M  RAD  1  10   2
M  END
>  <reaction>  (9) 
rmg_rxn_15540

>  <mol_properties>  (9) 
{"1": {"label": "*4", "atom_type": "N3d"}, "2": {"label": "*3", "atom_type": "Cd"}, "10": {"label": "*0", "atom_type": "Cd"}, "11": {"label": "*1", "atom_type": "Cs"}, "22": {"label": "*2", "atom_type": "H0"}}

>  <type>  (9) 
unop_5

>  <geom_source>  (9) 
Heuristics

$$$$

     RDKit          3D

 26 25  0  0  0  0  0  0  0  0999 V2000
   -1.4672   -3.2743    0.0037 O   0  0  0  0  0  0  0  0  0  0  0  0
   -1.2689   -1.8814    0.0159 N   0  0  0  0  0  0  0  0  0  0  0  0
   -2.2762   -1.1489   -0.0324 C   0  0  0  0  0  0  0  0  0  0  0  0
   -0.5763   -3.6468    0.0495 H   0  0  0  0  0  0  0  0  0  0  0  0
   -3.3090   -1.4798   -0.0840 H   0  0  0  0  0  0  0  0  0  0  0  0
    3.3209   -1.7045   -0.0131 C   0  0  0  0  0  0  0  0  0  0  0  0
    2.8291   -0.2946   -0.0012 C   0  0  0  0  0  0  0  0  0  0  0  0
    1.5532    0.0484    0.0026 C   0  0  0  0  0  0  0  0  0  0  0  0
    1.0531    1.4826    0.0123 C   0  0  0  0  0  0  0  0  0  0  0  0
    0.2327    1.6900    1.2464 C   0  0  0  0  0  3  0  0  0  0  0  0
   -1.1104    1.6614    1.2199 C   0  0  0  0  0  0  0  0  0  0  0  0
   -1.8308    1.4563   -0.0056 C   0  0  0  0  0  0  0  0  0  0  0  0
   -1.0956    1.6810   -1.2188 C   0  0  0  0  0  0  0  0  0  0  0  0
    0.2477    1.7098   -1.2283 C   0  0  0  0  0  0  0  0  0  0  0  0
    2.4890   -2.4036   -0.0195 H   0  0  0  0  0  0  0  0  0  0  0  0
    3.9375   -1.8814   -0.8942 H   0  0  0  0  0  0  0  0  0  0  0  0
    3.9372   -1.8967    0.8649 H   0  0  0  0  0  0  0  0  0  0  0  0
    3.6022    0.4648    0.0042 H   0  0  0  0  0  0  0  0  0  0  0  0
    0.7659   -0.6934   -0.0016 H   0  0  0  0  0  0  0  0  0  0  0  0
    1.9277    2.1453    0.0228 H   0  0  0  0  0  0  0  0  0  0  0  0
    0.7714    1.8370    2.1698 H   0  0  0  0  0  0  0  0  0  0  0  0
   -1.6790    1.7766    2.1321 H   0  0  0  0  0  0  0  0  0  0  0  0
   -2.0453    0.0686   -0.0189 H   0  0  0  0  0  0  0  0  0  0  0  0
   -2.8838    1.7194   -0.0099 H   0  0  0  0  0  0  0  0  0  0  0  0
   -1.6530    1.8111   -2.1359 H   0  0  0  0  0  0  0  0  0  0  0  0
    0.7978    1.8709   -2.1427 H   0  0  0  0  0  0  0  0  0  0  0  0
  1  2  1  0
  1  4  1  0
  2  3  2  3
  3  5  1  0
  3 23  1  0
  6  7  1  0
  6 15  1  0
  6 16  1  0
  6 17  1  0
  7  8  2  3
  7 18  1  0
  8  9  1  0
  8 19  1  0
  9 10  1  0
  9 14  1  0
  9 20  1  0
 10 11  1  0
 10 21  1  0
 11 12  2  0
 11 22  1  0
 12 13  1  0
 12 24  1  0
 13 14  2  0
 13 25  1  0
 14 26  1  0
M  RAD  1  10   2
M  END
>  <reaction>  (10) 
rmg_rxn_15540

>  <mol_properties>  (10) 
{"1": {"label": "*4", "atom_type": "N3d"}, "2": {"label": "*3", "atom_type": "Cd"}, "10": {"label": "*0", "atom_type": "Cd"}, "11": {"label": "*1", "atom_type": "Cs"}, "22": {"label": "*2", "atom_type": "H0"}}

>  <type>  (10) 
unop_6

>  <geom_source>  (10) 
Heuristics

$$$$

     RDKit          3D

 26 25  0  0  0  0  0  0  0  0999 V2000
    1.0041    4.7679    0.8084 O   0  0  0  0  0  0  0  0  0  0  0  0
    0.4264    3.7593    1.5541 N   0  0  0  0  0  0  0  0  0  0  0  0
   -0.1759    2.9209    0.8277 C   0  0  0  0  0  0  0  0  0  0  0  0
    1.4197    5.3235    1.4707 H   0  0  0  0  0  0  0  0  0  0  0  0
   -0.2189    3.0075   -0.2560 H   0  0  0  0  0  0  0  0  0  0  0  0
   -0.1759   -3.0701   -3.8660 C   0  0  0  0  0  0  0  0  0  0  0  0
   -0.1759   -3.0701   -2.3711 C   0  0  0  0  0  0  0  0  0  0  0  0
   -0.1759   -1.9862   -1.6089 C   0  0  0  0  0  0  0  0  0  0  0  0
   -0.1759   -1.9880   -0.0995 C   0  0  0  0  0  0  0  0  0  0  0  0
   -1.4222   -1.3276    0.4275 C   0  0  0  0  0  3  0  0  0  0  0  0
   -1.4226   -0.2475    1.1944 C   0  0  0  0  0  0  0  0  0  0  0  0
   -0.1759    0.4411    1.6559 C   0  0  0  0  0  0  0  0  0  0  0  0
    1.0708   -0.2475    1.1944 C   0  0  0  0  0  0  0  0  0  0  0  0
    1.0703   -1.3276    0.4275 C   0  0  0  0  0  0  0  0  0  0  0  0
    0.7020   -3.5909   -4.2571 H   0  0  0  0  0  0  0  0  0  0  0  0
   -1.0539   -3.5909   -4.2571 H   0  0  0  0  0  0  0  0  0  0  0  0
   -0.1759   -2.0545   -4.2637 H   0  0  0  0  0  0  0  0  0  0  0  0
   -0.1759   -4.0457   -1.8889 H   0  0  0  0  0  0  0  0  0  0  0  0
   -0.1759   -1.0010   -2.0713 H   0  0  0  0  0  0  0  0  0  0  0  0
   -0.1759   -3.0373    0.2220 H   0  0  0  0  0  0  0  0  0  0  0  0
   -2.3626   -1.7777    0.1272 H   0  0  0  0  0  0  0  0  0  0  0  0
   -2.3669    0.1741    1.5224 H   0  0  0  0  0  0  0  0  0  0  0  0
   -0.1759    1.6896    1.2389 H   0  0  0  0  0  0  0  0  0  0  0  0
   -0.1759    0.5112    2.7503 H   0  0  0  0  0  0  0  0  0  0  0  0
    2.0150    0.1741    1.5224 H   0  0  0  0  0  0  0  0  0  0  0  0
    2.0107   -1.7777    0.1272 H   0  0  0  0  0  0  0  0  0  0  0  0
  1  2  1  0
  1  4  1  0
  2  3  2  3
  3  5  1  0
  3 23  1  0
  6  7  1  0
  6 15  1  0
  6 16  1  0
  6 17  1  0
  7  8  2  3
  7 18  1  0
  8  9  1  0
  8 19  1  0
  9 10  1  0
  9 14  1  0
  9 20  1  0
 10 11  1  0
 10 21  1  0
 11 12  2  0
 11 22  1  0
 12 13  1  0
 12 24  1  0
 13 14  2  0
 13 25  1  0
 14 26  1  0
M  RAD  1  10   2
M  END
>  <reaction>  (11) 
rmg_rxn_15540

>  <mol_properties>  (11) 
{"1": {"label": "*4", "atom_type": "N3d"}, "2": {"label": "*3", "atom_type": "Cd"}, "10": {"label": "*0", "atom_type": "Cd"}, "11": {"label": "*1", "atom_type": "Cs"}, "22": {"label": "*2", "atom_type": "H0"}}

>  <type>  (11) 
unop_7

>  <geom_source>  (11) 
Heuristics

$$$$

     RDKit          3D

 26 25  0  0  0  0  0  0  0  0999 V2000
    0.5707    4.3498   -0.4694 O   0  0  0  0  0  0  0  0  0  0  0  0
   -0.1089    3.2103   -0.0864 N   0  0  0  0  0  0  0  0  0  0  0  0
   -0.0645    3.0317    1.1624 C   0  0  0  0  0  0  0  0  0  0  0  0
    0.4595    4.3650   -1.4220 H   0  0  0  0  0  0  0  0  0  0  0  0
    0.4552    3.7115    1.8342 H   0  0  0  0  0  0  0  0  0  0  0  0
   -0.0645   -2.9593   -3.5312 C   0  0  0  0  0  0  0  0  0  0  0  0
   -0.0645   -2.9593   -2.0363 C   0  0  0  0  0  0  0  0  0  0  0  0
   -0.0645   -1.8754   -1.2742 C   0  0  0  0  0  0  0  0  0  0  0  0
   -0.0645   -1.8772    0.2353 C   0  0  0  0  0  0  0  0  0  0  0  0
   -1.3108   -1.2168    0.7623 C   0  0  0  0  0  3  0  0  0  0  0  0
   -1.3112   -0.1367    1.5291 C   0  0  0  0  0  0  0  0  0  0  0  0
   -0.0645    0.5518    1.9907 C   0  0  0  0  0  0  0  0  0  0  0  0
    1.1822   -0.1367    1.5291 C   0  0  0  0  0  0  0  0  0  0  0  0
    1.1817   -1.2168    0.7623 C   0  0  0  0  0  0  0  0  0  0  0  0
    0.8134   -3.4801   -3.9224 H   0  0  0  0  0  0  0  0  0  0  0  0
   -0.9424   -3.4801   -3.9224 H   0  0  0  0  0  0  0  0  0  0  0  0
   -0.0645   -1.9437   -3.9289 H   0  0  0  0  0  0  0  0  0  0  0  0
   -0.0645   -3.9349   -1.5541 H   0  0  0  0  0  0  0  0  0  0  0  0
   -0.0645   -0.8902   -1.7365 H   0  0  0  0  0  0  0  0  0  0  0  0
   -0.0645   -2.9265    0.5568 H   0  0  0  0  0  0  0  0  0  0  0  0
   -2.2512   -1.6669    0.4620 H   0  0  0  0  0  0  0  0  0  0  0  0
   -2.2555    0.2848    1.8572 H   0  0  0  0  0  0  0  0  0  0  0  0
   -0.0645    1.8003    1.5737 H   0  0  0  0  0  0  0  0  0  0  0  0
   -0.0645    0.6220    3.0851 H   0  0  0  0  0  0  0  0  0  0  0  0
    2.1265    0.2848    1.8572 H   0  0  0  0  0  0  0  0  0  0  0  0
    2.1221   -1.6669    0.4620 H   0  0  0  0  0  0  0  0  0  0  0  0
  1  2  1  0
  1  4  1  0
  2  3  2  3
  3  5  1  0
  3 23  1  0
  6  7  1  0
  6 15  1  0
  6 16  1  0
  6 17  1  0
  7  8  2  3
  7 18  1  0
  8  9  1  0
  8 19  1  0
  9 10  1  0
  9 14  1  0
  9 20  1  0
 10 11  1  0
 10 21  1  0
 11 12  2  0
 11 22  1  0
 12 13  1  0
 12 24  1  0
 13 14  2  0
 13 25  1  0
 14 26  1  0
M  RAD  1  10   2
M  END
>  <reaction>  (12) 
rmg_rxn_15540

>  <mol_properties>  (12) 
{"1": {"label": "*4", "atom_type": "N3d"}, "2": {"label": "*3", "atom_type": "Cd"}, "10": {"label": "*0", "atom_type": "Cd"}, "11": {"label": "*1", "atom_type": "Cs"}, "22": {"label": "*2", "atom_type": "H0"}}

>  <type>  (12) 
unop_8

>  <geom_source>  (12) 
Heuristics

$$$$

     RDKit          3D

 26 25  0  0  0  0  0  0  0  0999 V2000
   -1.4627   -3.2761    0.0013 O   0  0  0  0  0  0  0  0  0  0  0  0
   -1.2663   -1.8829   -0.0004 N   0  0  0  0  0  0  0  0  0  0  0  0
   -2.2757   -1.1518   -0.0040 C   0  0  0  0  0  0  0  0  0  0  0  0
   -0.5701   -3.6473    0.0044 H   0  0  0  0  0  0  0  0  0  0  0  0
   -3.3093   -1.4839   -0.0058 H   0  0  0  0  0  0  0  0  0  0  0  0
    3.3244   -1.6995   -0.0026 C   0  0  0  0  0  0  0  0  0  0  0  0
    2.8301   -0.2904    0.0009 C   0  0  0  0  0  0  0  0  0  0  0  0
    1.5536    0.0503    0.0006 C   0  0  0  0  0  0  0  0  0  0  0  0
    1.0509    1.4836    0.0031 C   0  0  0  0  0  0  0  0  0  0  0  0
    0.2355    1.6973    1.2395 C   0  0  0  0  0  3  0  0  0  0  0  0
   -1.1077    1.6674    1.2191 C   0  0  0  0  0  0  0  0  0  0  0  0
   -1.8330    1.4540   -0.0020 C   0  0  0  0  0  0  0  0  0  0  0  0
   -1.1033    1.6717   -1.2198 C   0  0  0  0  0  0  0  0  0  0  0  0
    0.2399    1.7020   -1.2353 C   0  0  0  0  0  0  0  0  0  0  0  0
    3.9428   -1.8847    0.8755 H   0  0  0  0  0  0  0  0  0  0  0  0
    2.4938   -2.4002   -0.0025 H   0  0  0  0  0  0  0  0  0  0  0  0
    3.9396   -1.8812   -0.8837 H   0  0  0  0  0  0  0  0  0  0  0  0
    3.6017    0.4704    0.0033 H   0  0  0  0  0  0  0  0  0  0  0  0
    0.7676   -0.6929   -0.0018 H   0  0  0  0  0  0  0  0  0  0  0  0
    1.9244    2.1479    0.0060 H   0  0  0  0  0  0  0  0  0  0  0  0
    0.7781    1.8500    2.1598 H   0  0  0  0  0  0  0  0  0  0  0  0
   -1.6725    1.7880    2.1329 H   0  0  0  0  0  0  0  0  0  0  0  0
   -2.0460    0.0660   -0.0042 H   0  0  0  0  0  0  0  0  0  0  0  0
   -2.8864    1.7159   -0.0035 H   0  0  0  0  0  0  0  0  0  0  0  0
   -1.6649    1.7955   -2.1352 H   0  0  0  0  0  0  0  0  0  0  0  0
    0.7858    1.8584   -2.1530 H   0  0  0  0  0  0  0  0  0  0  0  0
  1  2  1  0
  1  4  1  0
  2  3  2  3
  3  5  1  0
  3 23  1  0
  6  7  1  0
  6 15  1  0
  6 16  1  0
  6 17  1  0
  7  8  2  3
  7 18  1  0
  8  9  1  0
  8 19  1  0
  9 10  1  0
  9 14  1  0
  9 20  1  0
 10 11  1  0
 10 21  1  0
 11 12  2  0
 11 22  1  0
 12 13  1  0
 12 24  1  0
 13 14  2  0
 13 25  1  0
 14 26  1  0
M  RAD  1  10   2
M  END
>  <reaction>  (13) 
rmg_rxn_15540

>  <mol_properties>  (13) 
{"1": {"label": "*4", "atom_type": "N3d"}, "2": {"label": "*3", "atom_type": "Cd"}, "10": {"label": "*0", "atom_type": "Cd"}, "11": {"label": "*1", "atom_type": "Cs"}, "22": {"label": "*2", "atom_type": "H0"}}

>  <type>  (13) 
unop_9

>  <geom_source>  (13) 
Heuristics

$$$$

     RDKit          3D

 26 25  0  0  0  0  0  0  0  0999 V2000
    0.7218    4.9081    0.7109 O   0  0  0  0  0  0  0  0  0  0  0  0
    0.8206    3.6190    1.1962 N   0  0  0  0  0  0  0  0  0  0  0  0
   -0.1784    2.9165    0.8767 C   0  0  0  0  0  0  0  0  0  0  0  0
    1.5291    5.3240    1.0197 H   0  0  0  0  0  0  0  0  0  0  0  0
   -1.0056    3.3067    0.2876 H   0  0  0  0  0  0  0  0  0  0  0  0
   -0.1784   -3.0744   -3.8170 C   0  0  0  0  0  0  0  0  0  0  0  0
   -0.1784   -3.0744   -2.3221 C   0  0  0  0  0  0  0  0  0  0  0  0
   -0.1784   -1.9906   -1.5599 C   0  0  0  0  0  0  0  0  0  0  0  0
   -0.1784   -1.9924   -0.0504 C   0  0  0  0  0  0  0  0  0  0  0  0
   -1.4246   -1.3320    0.4766 C   0  0  0  0  0  3  0  0  0  0  0  0
   -1.4251   -0.2519    1.2434 C   0  0  0  0  0  0  0  0  0  0  0  0
   -0.1784    0.4367    1.7049 C   0  0  0  0  0  0  0  0  0  0  0  0
    1.0683   -0.2519    1.2434 C   0  0  0  0  0  0  0  0  0  0  0  0
    1.0678   -1.3320    0.4766 C   0  0  0  0  0  0  0  0  0  0  0  0
    0.6995   -3.5953   -4.2081 H   0  0  0  0  0  0  0  0  0  0  0  0
   -1.0563   -3.5953   -4.2081 H   0  0  0  0  0  0  0  0  0  0  0  0
   -0.1784   -2.0589   -4.2146 H   0  0  0  0  0  0  0  0  0  0  0  0
   -0.1784   -4.0501   -1.8399 H   0  0  0  0  0  0  0  0  0  0  0  0
   -0.1784   -1.0054   -2.0223 H   0  0  0  0  0  0  0  0  0  0  0  0
   -0.1784   -3.0417    0.2710 H   0  0  0  0  0  0  0  0  0  0  0  0
   -2.3650   -1.7821    0.1763 H   0  0  0  0  0  0  0  0  0  0  0  0
   -2.3694    0.1697    1.5714 H   0  0  0  0  0  0  0  0  0  0  0  0
   -0.1784    1.6852    1.2880 H   0  0  0  0  0  0  0  0  0  0  0  0
   -0.1784    0.5068    2.7993 H   0  0  0  0  0  0  0  0  0  0  0  0
    2.0126    0.1697    1.5714 H   0  0  0  0  0  0  0  0  0  0  0  0
    2.0082   -1.7821    0.1763 H   0  0  0  0  0  0  0  0  0  0  0  0
  1  2  1  0
  1  4  1  0
  2  3  2  3
  3  5  1  0
  3 23  1  0
  6  7  1  0
  6 15  1  0
  6 16  1  0
  6 17  1  0
  7  8  2  3
  7 18  1  0
  8  9  1  0
  8 19  1  0
  9 10  1  0
  9 14  1  0
  9 20  1  0
 10 11  1  0
 10 21  1  0
 11 12  2  0
 11 22  1  0
 12 13  1  0
 12 24  1  0
 13 14  2  0
 13 25  1  0
 14 26  1  0
M  RAD  1  10   2
M  END
>  <reaction>  (14) 
rmg_rxn_15540

>  <mol_properties>  (14) 
{"1": {"label": "*4", "atom_type": "N3d"}, "2": {"label": "*3", "atom_type": "Cd"}, "10": {"label": "*0", "atom_type": "Cd"}, "11": {"label": "*1", "atom_type": "Cs"}, "22": {"label": "*2", "atom_type": "H0"}}

>  <type>  (14) 
unop_10

>  <geom_source>  (14) 
Heuristics

$$$$

     RDKit          3D

 26 25  0  0  0  0  0  0  0  0999 V2000
   -1.3629   -3.3137   -0.0027 O   0  0  0  0  0  0  0  0  0  0  0  0
   -1.2092   -1.9152   -0.0099 N   0  0  0  0  0  0  0  0  0  0  0  0
   -2.2395   -1.2148    0.0253 C   0  0  0  0  0  0  0  0  0  0  0  0
   -0.4600   -3.6574   -0.0379 H   0  0  0  0  0  0  0  0  0  0  0  0
   -3.2620   -1.5778    0.0617 H   0  0  0  0  0  0  0  0  0  0  0  0
    3.3634   -1.6108    0.0102 C   0  0  0  0  0  0  0  0  0  0  0  0
    2.8334   -0.2147    0.0005 C   0  0  0  0  0  0  0  0  0  0  0  0
    1.5485    0.0929    0.0005 C   0  0  0  0  0  0  0  0  0  0  0  0
    1.0084    1.5125   -0.0092 C   0  0  0  0  0  0  0  0  0  0  0  0
    0.1946    1.7169    1.2298 C   0  0  0  0  0  3  0  0  0  0  0  0
   -1.1473    1.6492    1.2177 C   0  0  0  0  0  0  0  0  0  0  0  0
   -1.8733    1.4027    0.0031 C   0  0  0  0  0  0  0  0  0  0  0  0
   -1.1570    1.6289   -1.2211 C   0  0  0  0  0  0  0  0  0  0  0  0
    0.1848    1.6965   -1.2449 C   0  0  0  0  0  0  0  0  0  0  0  0
    2.5508   -2.3322    0.0226 H   0  0  0  0  0  0  0  0  0  0  0  0
    3.9787   -1.7870   -0.8720 H   0  0  0  0  0  0  0  0  0  0  0  0
    3.9905   -1.7702    0.8872 H   0  0  0  0  0  0  0  0  0  0  0  0
    3.5853    0.5654   -0.0073 H   0  0  0  0  0  0  0  0  0  0  0  0
    0.7822   -0.6705    0.0071 H   0  0  0  0  0  0  0  0  0  0  0  0
    1.8640    2.1996   -0.0182 H   0  0  0  0  0  0  0  0  0  0  0  0
    0.7380    1.8946    2.1451 H   0  0  0  0  0  0  0  0  0  0  0  0
   -1.7101    1.7637    2.1336 H   0  0  0  0  0  0  0  0  0  0  0  0
   -2.0463    0.0093    0.0155 H   0  0  0  0  0  0  0  0  0  0  0  0
   -2.9336    1.6346    0.0054 H   0  0  0  0  0  0  0  0  0  0  0  0
   -1.7271    1.7281   -2.1342 H   0  0  0  0  0  0  0  0  0  0  0  0
    0.7209    1.8590   -2.1673 H   0  0  0  0  0  0  0  0  0  0  0  0
  1  2  1  0
  1  4  1  0
  2  3  2  3
  3  5  1  0
  3 23  1  0
  6  7  1  0
  6 15  1  0
  6 16  1  0
  6 17  1  0
  7  8  2  3
  7 18  1  0
  8  9  1  0
  8 19  1  0
  9 10  1  0
  9 14  1  0
  9 20  1  0
 10 11  1  0
 10 21  1  0
 11 12  2  0
 11 22  1  0
 12 13  1  0
 12 24  1  0
 13 14  2  0
 13 25  1  0
 14 26  1  0
M  RAD  1  10   2
M  END
>  <reaction>  (15) 
rmg_rxn_15540

>  <mol_properties>  (15) 
{"1": {"label": "*4", "atom_type": "N3d"}, "2": {"label": "*3", "atom_type": "Cd"}, "10": {"label": "*0", "atom_type": "Cd"}, "11": {"label": "*1", "atom_type": "Cs"}, "22": {"label": "*2", "atom_type": "H0"}}

>  <type>  (15) 
unop_11

>  <geom_source>  (15) 
Heuristics

$$$$

     RDKit          3D

 26 25  0  0  0  0  0  0  0  0999 V2000
    1.0979    4.3994   -0.0300 O   0  0  0  0  0  0  0  0  0  0  0  0
    0.3454    3.2415   -0.0282 N   0  0  0  0  0  0  0  0  0  0  0  0
   -0.1802    3.0220    1.0984 C   0  0  0  0  0  0  0  0  0  0  0  0
    1.4328    4.4450   -0.9277 H   0  0  0  0  0  0  0  0  0  0  0  0
   -0.0399    3.6840    1.9502 H   0  0  0  0  0  0  0  0  0  0  0  0
   -0.1802   -2.9690   -3.5953 C   0  0  0  0  0  0  0  0  0  0  0  0
   -0.1802   -2.9690   -2.1004 C   0  0  0  0  0  0  0  0  0  0  0  0
   -0.1802   -1.8851   -1.3382 C   0  0  0  0  0  0  0  0  0  0  0  0
   -0.1802   -1.8869    0.1713 C   0  0  0  0  0  0  0  0  0  0  0  0
   -1.4264   -1.2265    0.6983 C   0  0  0  0  0  3  0  0  0  0  0  0
   -1.4269   -0.1464    1.4651 C   0  0  0  0  0  0  0  0  0  0  0  0
   -0.1802    0.5421    1.9266 C   0  0  0  0  0  0  0  0  0  0  0  0
    1.0665   -0.1465    1.4651 C   0  0  0  0  0  0  0  0  0  0  0  0
    1.0660   -1.2265    0.6983 C   0  0  0  0  0  0  0  0  0  0  0  0
    0.6977   -3.4898   -3.9864 H   0  0  0  0  0  0  0  0  0  0  0  0
   -1.0581   -3.4898   -3.9864 H   0  0  0  0  0  0  0  0  0  0  0  0
   -0.1802   -1.9534   -3.9930 H   0  0  0  0  0  0  0  0  0  0  0  0
   -0.1802   -3.9446   -1.6182 H   0  0  0  0  0  0  0  0  0  0  0  0
   -0.1802   -0.8999   -1.8006 H   0  0  0  0  0  0  0  0  0  0  0  0
   -0.1802   -2.9362    0.4927 H   0  0  0  0  0  0  0  0  0  0  0  0
   -2.3668   -1.6766    0.3980 H   0  0  0  0  0  0  0  0  0  0  0  0
   -2.3712    0.2751    1.7931 H   0  0  0  0  0  0  0  0  0  0  0  0
   -0.1802    1.7906    1.5096 H   0  0  0  0  0  0  0  0  0  0  0  0
   -0.1802    0.6123    3.0210 H   0  0  0  0  0  0  0  0  0  0  0  0
    2.0108    0.2751    1.7931 H   0  0  0  0  0  0  0  0  0  0  0  0
    2.0064   -1.6766    0.3980 H   0  0  0  0  0  0  0  0  0  0  0  0
  1  2  1  0
  1  4  1  0
  2  3  2  3
  3  5  1  0
  3 23  1  0
  6  7  1  0
  6 15  1  0
  6 16  1  0
  6 17  1  0
  7  8  2  3
  7 18  1  0
  8  9  1  0
  8 19  1  0
  9 10  1  0
  9 14  1  0
  9 20  1  0
 10 11  1  0
 10 21  1  0
 11 12  2  0
 11 22  1  0
 12 13  1  0
 12 24  1  0
 13 14  2  0
 13 25  1  0
 14 26  1  0
M  RAD  1  10   2
M  END
>  <reaction>  (16) 
rmg_rxn_15540

>  <mol_properties>  (16) 
{"1": {"label": "*4", "atom_type": "N3d"}, "2": {"label": "*3", "atom_type": "Cd"}, "10": {"label": "*0", "atom_type": "Cd"}, "11": {"label": "*1", "atom_type": "Cs"}, "22": {"label": "*2", "atom_type": "H0"}}

>  <type>  (16) 
unop_12

>  <geom_source>  (16) 
Heuristics

$$$$

     RDKit          3D

 26 25  0  0  0  0  0  0  0  0999 V2000
   -1.4928   -3.2641   -0.0000 O   0  0  0  0  0  0  0  0  0  0  0  0
   -1.2840   -1.8726   -0.0019 N   0  0  0  0  0  0  0  0  0  0  0  0
   -2.2870   -1.1326    0.0038 C   0  0  0  0  0  0  0  0  0  0  0  0
   -0.6035   -3.6430   -0.0059 H   0  0  0  0  0  0  0  0  0  0  0  0
   -3.3235   -1.4556    0.0090 H   0  0  0  0  0  0  0  0  0  0  0  0
    3.3141   -1.7250    0.0012 C   0  0  0  0  0  0  0  0  0  0  0  0
    2.8294   -0.3125   -0.0001 C   0  0  0  0  0  0  0  0  0  0  0  0
    1.5554    0.0373    0.0012 C   0  0  0  0  0  0  0  0  0  0  0  0
    1.0633    1.4743   -0.0005 C   0  0  0  0  0  0  0  0  0  0  0  0
    0.2518    1.6983    1.2367 C   0  0  0  0  0  3  0  0  0  0  0  0
   -1.0916    1.6799    1.2187 C   0  0  0  0  0  0  0  0  0  0  0  0
   -1.8210    1.4690   -0.0005 C   0  0  0  0  0  0  0  0  0  0  0  0
   -1.0916    1.6766   -1.2202 C   0  0  0  0  0  0  0  0  0  0  0  0
    0.2519    1.6952   -1.2382 C   0  0  0  0  0  0  0  0  0  0  0  0
    2.4788   -2.4201    0.0049 H   0  0  0  0  0  0  0  0  0  0  0  0
    3.9272   -1.9143   -0.8798 H   0  0  0  0  0  0  0  0  0  0  0  0
    3.9322   -1.9109    0.8795 H   0  0  0  0  0  0  0  0  0  0  0  0
    3.6064    0.4429   -0.0021 H   0  0  0  0  0  0  0  0  0  0  0  0
    0.7640   -0.7003    0.0032 H   0  0  0  0  0  0  0  0  0  0  0  0
    1.9419    2.1319   -0.0013 H   0  0  0  0  0  0  0  0  0  0  0  0
    0.7973    1.8490    2.1556 H   0  0  0  0  0  0  0  0  0  0  0  0
   -1.6537    1.8078    2.1332 H   0  0  0  0  0  0  0  0  0  0  0  0
   -2.0466    0.0832    0.0016 H   0  0  0  0  0  0  0  0  0  0  0  0
   -2.8720    1.7403   -0.0009 H   0  0  0  0  0  0  0  0  0  0  0  0
   -1.6535    1.8019   -2.1352 H   0  0  0  0  0  0  0  0  0  0  0  0
    0.7973    1.8435   -2.1575 H   0  0  0  0  0  0  0  0  0  0  0  0
  1  2  1  0
  1  4  1  0
  2  3  2  3
  3  5  1  0
  3 23  1  0
  6  7  1  0
  6 15  1  0
  6 16  1  0
  6 17  1  0
  7  8  2  3
  7 18  1  0
  8  9  1  0
  8 19  1  0
  9 10  1  0
  9 14  1  0
  9 20  1  0
 10 11  1  0
 10 21  1  0
 11 12  2  0
 11 22  1  0
 12 13  1  0
 12 24  1  0
 13 14  2  0
 13 25  1  0
 14 26  1  0
M  RAD  1  10   2
M  END
>  <reaction>  (17) 
rmg_rxn_15540

>  <mol_properties>  (17) 
{"1": {"label": "*4", "atom_type": "N3d"}, "2": {"label": "*3", "atom_type": "Cd"}, "10": {"label": "*0", "atom_type": "Cd"}, "11": {"label": "*1", "atom_type": "Cs"}, "22": {"label": "*2", "atom_type": "H0"}}

>  <type>  (17) 
unop_13

>  <geom_source>  (17) 
Heuristics

$$$$

     RDKit          3D

 26 25  0  0  0  0  0  0  0  0999 V2000
    1.2189    4.5772    0.5776 O   0  0  0  0  0  0  0  0  0  0  0  0
    0.7206    3.3342    0.2405 N   0  0  0  0  0  0  0  0  0  0  0  0
   -0.2341    2.9891    0.9908 C   0  0  0  0  0  0  0  0  0  0  0  0
    1.9241    4.7135   -0.0581 H   0  0  0  0  0  0  0  0  0  0  0  0
   -0.6006    3.6169    1.8002 H   0  0  0  0  0  0  0  0  0  0  0  0
   -0.2341   -3.0019   -3.7028 C   0  0  0  0  0  0  0  0  0  0  0  0
   -0.2341   -3.0019   -2.2079 C   0  0  0  0  0  0  0  0  0  0  0  0
   -0.2341   -1.9180   -1.4457 C   0  0  0  0  0  0  0  0  0  0  0  0
   -0.2341   -1.9198    0.0637 C   0  0  0  0  0  0  0  0  0  0  0  0
   -1.4803   -1.2594    0.5907 C   0  0  0  0  0  3  0  0  0  0  0  0
   -1.4808   -0.1794    1.3576 C   0  0  0  0  0  0  0  0  0  0  0  0
   -0.2341    0.5092    1.8191 C   0  0  0  0  0  0  0  0  0  0  0  0
    1.0126   -0.1794    1.3576 C   0  0  0  0  0  0  0  0  0  0  0  0
    1.0122   -1.2594    0.5907 C   0  0  0  0  0  0  0  0  0  0  0  0
    0.6438   -3.5227   -4.0940 H   0  0  0  0  0  0  0  0  0  0  0  0
   -1.1120   -3.5227   -4.0940 H   0  0  0  0  0  0  0  0  0  0  0  0
   -0.2341   -1.9863   -4.1005 H   0  0  0  0  0  0  0  0  0  0  0  0
   -0.2341   -3.9775   -1.7257 H   0  0  0  0  0  0  0  0  0  0  0  0
   -0.2341   -0.9329   -1.9081 H   0  0  0  0  0  0  0  0  0  0  0  0
   -0.2341   -2.9691    0.3852 H   0  0  0  0  0  0  0  0  0  0  0  0
   -2.4207   -1.7095    0.2904 H   0  0  0  0  0  0  0  0  0  0  0  0
   -2.4251    0.2422    1.6856 H   0  0  0  0  0  0  0  0  0  0  0  0
   -0.2341    1.7577    1.4021 H   0  0  0  0  0  0  0  0  0  0  0  0
   -0.2341    0.5794    2.9135 H   0  0  0  0  0  0  0  0  0  0  0  0
    1.9569    0.2422    1.6856 H   0  0  0  0  0  0  0  0  0  0  0  0
    1.9525   -1.7095    0.2904 H   0  0  0  0  0  0  0  0  0  0  0  0
  1  2  1  0
  1  4  1  0
  2  3  2  3
  3  5  1  0
  3 23  1  0
  6  7  1  0
  6 15  1  0
  6 16  1  0
  6 17  1  0
  7  8  2  3
  7 18  1  0
  8  9  1  0
  8 19  1  0
  9 10  1  0
  9 14  1  0
  9 20  1  0
 10 11  1  0
 10 21  1  0
 11 12  2  0
 11 22  1  0
 12 13  1  0
 12 24  1  0
 13 14  2  0
 13 25  1  0
 14 26  1  0
M  RAD  1  10   2
M  END
>  <reaction>  (18) 
rmg_rxn_15540

>  <mol_properties>  (18) 
{"1": {"label": "*4", "atom_type": "N3d"}, "2": {"label": "*3", "atom_type": "Cd"}, "10": {"label": "*0", "atom_type": "Cd"}, "11": {"label": "*1", "atom_type": "Cs"}, "22": {"label": "*2", "atom_type": "H0"}}

>  <type>  (18) 
unop_14

>  <geom_source>  (18) 
Heuristics

$$$$

     RDKit          3D

 26 25  0  0  0  0  0  0  0  0999 V2000
   -1.4250   -3.2908   -0.0012 O   0  0  0  0  0  0  0  0  0  0  0  0
   -1.2444   -1.8955   -0.0067 N   0  0  0  0  0  0  0  0  0  0  0  0
   -2.2616   -1.1758    0.0188 C   0  0  0  0  0  0  0  0  0  0  0  0
   -0.5285   -3.6518   -0.0265 H   0  0  0  0  0  0  0  0  0  0  0  0
   -3.2911   -1.5194    0.0452 H   0  0  0  0  0  0  0  0  0  0  0  0
    3.3381   -1.6668    0.0074 C   0  0  0  0  0  0  0  0  0  0  0  0
    2.8310   -0.2623   -0.0006 C   0  0  0  0  0  0  0  0  0  0  0  0
    1.5514    0.0665    0.0038 C   0  0  0  0  0  0  0  0  0  0  0  0
    1.0351    1.4950   -0.0052 C   0  0  0  0  0  0  0  0  0  0  0  0
    0.2218    1.7124    1.2319 C   0  0  0  0  0  3  0  0  0  0  0  0
   -1.1211    1.6679    1.2164 C   0  0  0  0  0  0  0  0  0  0  0  0
   -1.8482    1.4347   -0.0001 C   0  0  0  0  0  0  0  0  0  0  0  0
   -1.1250    1.6490   -1.2224 C   0  0  0  0  0  0  0  0  0  0  0  0
    0.2178    1.6935   -1.2428 C   0  0  0  0  0  0  0  0  0  0  0  0
    2.5139   -2.3749    0.0228 H   0  0  0  0  0  0  0  0  0  0  0  0
    3.9471   -1.8530   -0.8772 H   0  0  0  0  0  0  0  0  0  0  0  0
    3.9659   -1.8365    0.8819 H   0  0  0  0  0  0  0  0  0  0  0  0
    3.5956    0.5055   -0.0104 H   0  0  0  0  0  0  0  0  0  0  0  0
    0.7725   -0.6840    0.0129 H   0  0  0  0  0  0  0  0  0  0  0  0
    1.9021    2.1677   -0.0117 H   0  0  0  0  0  0  0  0  0  0  0  0
    0.7658    1.8804    2.1487 H   0  0  0  0  0  0  0  0  0  0  0  0
   -1.6841    1.7916    2.1310 H   0  0  0  0  0  0  0  0  0  0  0  0
   -2.0457    0.0445    0.0109 H   0  0  0  0  0  0  0  0  0  0  0  0
   -2.9043    1.6851   -0.0003 H   0  0  0  0  0  0  0  0  0  0  0  0
   -1.6910    1.7583   -2.1369 H   0  0  0  0  0  0  0  0  0  0  0  0
    0.7589    1.8470   -2.1638 H   0  0  0  0  0  0  0  0  0  0  0  0
  1  2  1  0
  1  4  1  0
  2  3  2  3
  3  5  1  0
  3 23  1  0
  6  7  1  0
  6 15  1  0
  6 16  1  0
  6 17  1  0
  7  8  2  3
  7 18  1  0
  8  9  1  0
  8 19  1  0
  9 10  1  0
  9 14  1  0
  9 20  1  0
 10 11  1  0
 10 21  1  0
 11 12  2  0
 11 22  1  0
 12 13  1  0
 12 24  1  0
 13 14  2  0
 13 25  1  0
 14 26  1  0
M  RAD  1  10   2
M  END
>  <reaction>  (19) 
rmg_rxn_15540

>  <mol_properties>  (19) 
{"1": {"label": "*4", "atom_type": "N3d"}, "2": {"label": "*3", "atom_type": "Cd"}, "10": {"label": "*0", "atom_type": "Cd"}, "11": {"label": "*1", "atom_type": "Cs"}, "22": {"label": "*2", "atom_type": "H0"}}

>  <type>  (19) 
unop_15

>  <geom_source>  (19) 
Heuristics

$$$$

     RDKit          3D

 26 25  0  0  0  0  0  0  0  0999 V2000
    0.2229    4.9262    1.5475 O   0  0  0  0  0  0  0  0  0  0  0  0
   -0.5042    3.7530    1.5035 N   0  0  0  0  0  0  0  0  0  0  0  0
    0.0214    2.9006    0.7350 C   0  0  0  0  0  0  0  0  0  0  0  0
   -0.2772    5.4747    2.1551 H   0  0  0  0  0  0  0  0  0  0  0  0
    0.9395    3.0943    0.1844 H   0  0  0  0  0  0  0  0  0  0  0  0
    0.0214   -3.0904   -3.9587 C   0  0  0  0  0  0  0  0  0  0  0  0
    0.0214   -3.0904   -2.4638 C   0  0  0  0  0  0  0  0  0  0  0  0
    0.0214   -2.0065   -1.7016 C   0  0  0  0  0  0  0  0  0  0  0  0
    0.0214   -2.0083   -0.1922 C   0  0  0  0  0  0  0  0  0  0  0  0
   -1.2248   -1.3479    0.3348 C   0  0  0  0  0  3  0  0  0  0  0  0
   -1.2253   -0.2678    1.1017 C   0  0  0  0  0  0  0  0  0  0  0  0
    0.0214    0.4208    1.5632 C   0  0  0  0  0  0  0  0  0  0  0  0
    1.2681   -0.2678    1.1017 C   0  0  0  0  0  0  0  0  0  0  0  0
    1.2676   -1.3479    0.3348 C   0  0  0  0  0  0  0  0  0  0  0  0
    0.8993   -3.6112   -4.3498 H   0  0  0  0  0  0  0  0  0  0  0  0
   -0.8565   -3.6112   -4.3498 H   0  0  0  0  0  0  0  0  0  0  0  0
    0.0214   -2.0748   -4.3564 H   0  0  0  0  0  0  0  0  0  0  0  0
    0.0214   -4.0660   -1.9816 H   0  0  0  0  0  0  0  0  0  0  0  0
    0.0214   -1.0213   -2.1640 H   0  0  0  0  0  0  0  0  0  0  0  0
    0.0214   -3.0576    0.1293 H   0  0  0  0  0  0  0  0  0  0  0  0
   -2.1652   -1.7980    0.0345 H   0  0  0  0  0  0  0  0  0  0  0  0
   -2.1696    0.1537    1.4297 H   0  0  0  0  0  0  0  0  0  0  0  0
    0.0214    1.6692    1.1462 H   0  0  0  0  0  0  0  0  0  0  0  0
    0.0214    0.4909    2.6576 H   0  0  0  0  0  0  0  0  0  0  0  0
    2.2124    0.1537    1.4297 H   0  0  0  0  0  0  0  0  0  0  0  0
    2.2080   -1.7980    0.0345 H   0  0  0  0  0  0  0  0  0  0  0  0
  1  2  1  0
  1  4  1  0
  2  3  2  3
  3  5  1  0
  3 23  1  0
  6  7  1  0
  6 15  1  0
  6 16  1  0
  6 17  1  0
  7  8  2  3
  7 18  1  0
  8  9  1  0
  8 19  1  0
  9 10  1  0
  9 14  1  0
  9 20  1  0
 10 11  1  0
 10 21  1  0
 11 12  2  0
 11 22  1  0
 12 13  1  0
 12 24  1  0
 13 14  2  0
 13 25  1  0
 14 26  1  0
M  RAD  1  10   2
M  END
>  <reaction>  (20) 
rmg_rxn_15540

>  <mol_properties>  (20) 
{"1": {"label": "*4", "atom_type": "N3d"}, "2": {"label": "*3", "atom_type": "Cd"}, "10": {"label": "*0", "atom_type": "Cd"}, "11": {"label": "*1", "atom_type": "Cs"}, "22": {"label": "*2", "atom_type": "H0"}}

>  <type>  (20) 
unop_16

>  <geom_source>  (20) 
Heuristics

$$$$

     RDKit          3D

 26 25  0  0  0  0  0  0  0  0999 V2000
   -1.4148   -3.2948   -0.0027 O   0  0  0  0  0  0  0  0  0  0  0  0
   -1.2384   -1.8989   -0.0057 N   0  0  0  0  0  0  0  0  0  0  0  0
   -2.2578   -1.1823    0.0164 C   0  0  0  0  0  0  0  0  0  0  0  0
   -0.5172   -3.6531   -0.0239 H   0  0  0  0  0  0  0  0  0  0  0  0
   -3.2863   -1.5290    0.0382 H   0  0  0  0  0  0  0  0  0  0  0  0
    3.3415   -1.6581    0.0077 C   0  0  0  0  0  0  0  0  0  0  0  0
    2.8311   -0.2548    0.0000 C   0  0  0  0  0  0  0  0  0  0  0  0
    1.5507    0.0709   -0.0023 C   0  0  0  0  0  0  0  0  0  0  0  0
    1.0308    1.4981   -0.0086 C   0  0  0  0  0  0  0  0  0  0  0  0
    0.2206    1.7102    1.2315 C   0  0  0  0  0  3  0  0  0  0  0  0
   -1.1221    1.6614    1.2200 C   0  0  0  0  0  0  0  0  0  0  0  0
   -1.8521    1.4295    0.0050 C   0  0  0  0  0  0  0  0  0  0  0  0
   -1.1333    1.6495   -1.2189 C   0  0  0  0  0  0  0  0  0  0  0  0
    0.2093    1.6977   -1.2433 C   0  0  0  0  0  0  0  0  0  0  0  0
    3.9543   -1.8416   -0.8748 H   0  0  0  0  0  0  0  0  0  0  0  0
    3.9665   -1.8275    0.8844 H   0  0  0  0  0  0  0  0  0  0  0  0
    2.5190   -2.3681    0.0191 H   0  0  0  0  0  0  0  0  0  0  0  0
    3.5939    0.5148   -0.0040 H   0  0  0  0  0  0  0  0  0  0  0  0
    0.7737   -0.6816    0.0013 H   0  0  0  0  0  0  0  0  0  0  0  0
    1.8961    2.1729   -0.0160 H   0  0  0  0  0  0  0  0  0  0  0  0
    0.7670    1.8770    2.1470 H   0  0  0  0  0  0  0  0  0  0  0  0
   -1.6827    1.7807    2.1366 H   0  0  0  0  0  0  0  0  0  0  0  0
   -2.0455    0.0387    0.0124 H   0  0  0  0  0  0  0  0  0  0  0  0
   -2.9090    1.6767    0.0087 H   0  0  0  0  0  0  0  0  0  0  0  0
   -1.7024    1.7600   -2.1313 H   0  0  0  0  0  0  0  0  0  0  0  0
    0.7471    1.8556   -2.1654 H   0  0  0  0  0  0  0  0  0  0  0  0
  1  2  1  0
  1  4  1  0
  2  3  2  3
  3  5  1  0
  3 23  1  0
  6  7  1  0
  6 15  1  0
  6 16  1  0
  6 17  1  0
  7  8  2  3
  7 18  1  0
  8  9  1  0
  8 19  1  0
  9 10  1  0
  9 14  1  0
  9 20  1  0
 10 11  1  0
 10 21  1  0
 11 12  2  0
 11 22  1  0
 12 13  1  0
 12 24  1  0
 13 14  2  0
 13 25  1  0
 14 26  1  0
M  RAD  1  10   2
M  END
>  <reaction>  (21) 
rmg_rxn_15540

>  <mol_properties>  (21) 
{"1": {"label": "*4", "atom_type": "N3d"}, "2": {"label": "*3", "atom_type": "Cd"}, "10": {"label": "*0", "atom_type": "Cd"}, "11": {"label": "*1", "atom_type": "Cs"}, "22": {"label": "*2", "atom_type": "H0"}}

>  <type>  (21) 
unop_17

>  <geom_source>  (21) 
Heuristics

$$$$

     RDKit          3D

 26 25  0  0  0  0  0  0  0  0999 V2000
   -0.1513    4.4563   -0.4856 O   0  0  0  0  0  0  0  0  0  0  0  0
   -0.5289    3.2474    0.0648 N   0  0  0  0  0  0  0  0  0  0  0  0
    0.0734    3.0138    1.1493 C   0  0  0  0  0  0  0  0  0  0  0  0
   -0.6736    4.5075   -1.2885 H   0  0  0  0  0  0  0  0  0  0  0  0
    0.7997    3.7018    1.5769 H   0  0  0  0  0  0  0  0  0  0  0  0
    0.0734   -2.9771   -3.5444 C   0  0  0  0  0  0  0  0  0  0  0  0
    0.0734   -2.9771   -2.0495 C   0  0  0  0  0  0  0  0  0  0  0  0
    0.0734   -1.8933   -1.2873 C   0  0  0  0  0  0  0  0  0  0  0  0
    0.0734   -1.8950    0.2222 C   0  0  0  0  0  0  0  0  0  0  0  0
   -1.1728   -1.2347    0.7492 C   0  0  0  0  0  3  0  0  0  0  0  0
   -1.1733   -0.1546    1.5160 C   0  0  0  0  0  0  0  0  0  0  0  0
    0.0734    0.5340    1.9775 C   0  0  0  0  0  0  0  0  0  0  0  0
    1.3201   -0.1546    1.5160 C   0  0  0  0  0  0  0  0  0  0  0  0
    1.3197   -1.2347    0.7492 C   0  0  0  0  0  0  0  0  0  0  0  0
    0.9513   -3.4979   -3.9355 H   0  0  0  0  0  0  0  0  0  0  0  0
   -0.8045   -3.4979   -3.9355 H   0  0  0  0  0  0  0  0  0  0  0  0
    0.0734   -1.9616   -3.9421 H   0  0  0  0  0  0  0  0  0  0  0  0
    0.0734   -3.9528   -1.5673 H   0  0  0  0  0  0  0  0  0  0  0  0
    0.0734   -0.9081   -1.7497 H   0  0  0  0  0  0  0  0  0  0  0  0
    0.0734   -2.9443    0.5436 H   0  0  0  0  0  0  0  0  0  0  0  0
   -2.1132   -1.6847    0.4489 H   0  0  0  0  0  0  0  0  0  0  0  0
   -2.1176    0.2670    1.8440 H   0  0  0  0  0  0  0  0  0  0  0  0
    0.0734    1.7825    1.5605 H   0  0  0  0  0  0  0  0  0  0  0  0
    0.0734    0.6041    3.0719 H   0  0  0  0  0  0  0  0  0  0  0  0
    2.2644    0.2670    1.8440 H   0  0  0  0  0  0  0  0  0  0  0  0
    2.2601   -1.6847    0.4489 H   0  0  0  0  0  0  0  0  0  0  0  0
  1  2  1  0
  1  4  1  0
  2  3  2  3
  3  5  1  0
  3 23  1  0
  6  7  1  0
  6 15  1  0
  6 16  1  0
  6 17  1  0
  7  8  2  3
  7 18  1  0
  8  9  1  0
  8 19  1  0
  9 10  1  0
  9 14  1  0
  9 20  1  0
 10 11  1  0
 10 21  1  0
 11 12  2  0
 11 22  1  0
 12 13  1  0
 12 24  1  0
 13 14  2  0
 13 25  1  0
 14 26  1  0
M  RAD  1  10   2
M  END
>  <reaction>  (22) 
rmg_rxn_15540

>  <mol_properties>  (22) 
{"1": {"label": "*4", "atom_type": "N3d"}, "2": {"label": "*3", "atom_type": "Cd"}, "10": {"label": "*0", "atom_type": "Cd"}, "11": {"label": "*1", "atom_type": "Cs"}, "22": {"label": "*2", "atom_type": "H0"}}

>  <type>  (22) 
unop_18

>  <geom_source>  (22) 
Heuristics

$$$$

     RDKit          3D

 26 25  0  0  0  0  0  0  0  0999 V2000
   -0.4321    4.9537    1.3385 O   0  0  0  0  0  0  0  0  0  0  0  0
   -0.8151    3.6356    1.1869 N   0  0  0  0  0  0  0  0  0  0  0  0
    0.1395    2.9088    0.7946 C   0  0  0  0  0  0  0  0  0  0  0  0
   -1.2358    5.3858    1.6343 H   0  0  0  0  0  0  0  0  0  0  0  0
    1.1365    3.3013    0.6059 H   0  0  0  0  0  0  0  0  0  0  0  0
    0.1395   -3.0822   -3.8991 C   0  0  0  0  0  0  0  0  0  0  0  0
    0.1395   -3.0822   -2.4042 C   0  0  0  0  0  0  0  0  0  0  0  0
    0.1395   -1.9983   -1.6420 C   0  0  0  0  0  0  0  0  0  0  0  0
    0.1395   -2.0001   -0.1326 C   0  0  0  0  0  0  0  0  0  0  0  0
   -1.1067   -1.3397    0.3945 C   0  0  0  0  0  3  0  0  0  0  0  0
   -1.1072   -0.2596    1.1613 C   0  0  0  0  0  0  0  0  0  0  0  0
    0.1395    0.4290    1.6228 C   0  0  0  0  0  0  0  0  0  0  0  0
    1.3862   -0.2596    1.1613 C   0  0  0  0  0  0  0  0  0  0  0  0
    1.3857   -1.3397    0.3945 C   0  0  0  0  0  0  0  0  0  0  0  0
    1.0174   -3.6030   -4.2902 H   0  0  0  0  0  0  0  0  0  0  0  0
   -0.7384   -3.6030   -4.2902 H   0  0  0  0  0  0  0  0  0  0  0  0
    0.1395   -2.0666   -4.2968 H   0  0  0  0  0  0  0  0  0  0  0  0
    0.1395   -4.0578   -1.9220 H   0  0  0  0  0  0  0  0  0  0  0  0
    0.1395   -1.0131   -2.1044 H   0  0  0  0  0  0  0  0  0  0  0  0
    0.1395   -3.0494    0.1889 H   0  0  0  0  0  0  0  0  0  0  0  0
   -2.0471   -1.7898    0.0941 H   0  0  0  0  0  0  0  0  0  0  0  0
   -2.0515    0.1620    1.4893 H   0  0  0  0  0  0  0  0  0  0  0  0
    0.1395    1.6775    1.2058 H   0  0  0  0  0  0  0  0  0  0  0  0
    0.1395    0.4991    2.7172 H   0  0  0  0  0  0  0  0  0  0  0  0
    2.3305    0.1620    1.4893 H   0  0  0  0  0  0  0  0  0  0  0  0
    2.3261   -1.7898    0.0941 H   0  0  0  0  0  0  0  0  0  0  0  0
  1  2  1  0
  1  4  1  0
  2  3  2  3
  3  5  1  0
  3 23  1  0
  6  7  1  0
  6 15  1  0
  6 16  1  0
  6 17  1  0
  7  8  2  3
  7 18  1  0
  8  9  1  0
  8 19  1  0
  9 10  1  0
  9 14  1  0
  9 20  1  0
 10 11  1  0
 10 21  1  0
 11 12  2  0
 11 22  1  0
 12 13  1  0
 12 24  1  0
 13 14  2  0
 13 25  1  0
 14 26  1  0
M  RAD  1  10   2
M  END
>  <reaction>  (23) 
rmg_rxn_15540

>  <mol_properties>  (23) 
{"1": {"label": "*4", "atom_type": "N3d"}, "2": {"label": "*3", "atom_type": "Cd"}, "10": {"label": "*0", "atom_type": "Cd"}, "11": {"label": "*1", "atom_type": "Cs"}, "22": {"label": "*2", "atom_type": "H0"}}

>  <type>  (23) 
unop_19

>  <geom_source>  (23) 
Heuristics

$$$$

     RDKit          3D

 26 25  0  0  0  0  0  0  0  0999 V2000
    0.9213    4.8177    0.9576 O   0  0  0  0  0  0  0  0  0  0  0  0
    0.9137    3.4659    0.6756 N   0  0  0  0  0  0  0  0  0  0  0  0
   -0.2142    2.9439    0.8966 C   0  0  0  0  0  0  0  0  0  0  0  0
    1.8195    5.0827    0.7499 H   0  0  0  0  0  0  0  0  0  0  0  0
   -1.0630    3.5157    1.2658 H   0  0  0  0  0  0  0  0  0  0  0  0
   -0.2142   -3.0470   -3.7971 C   0  0  0  0  0  0  0  0  0  0  0  0
   -0.2142   -3.0470   -2.3021 C   0  0  0  0  0  0  0  0  0  0  0  0
   -0.2142   -1.9632   -1.5400 C   0  0  0  0  0  0  0  0  0  0  0  0
   -0.2142   -1.9649   -0.0305 C   0  0  0  0  0  0  0  0  0  0  0  0
   -1.4604   -1.3045    0.4965 C   0  0  0  0  0  3  0  0  0  0  0  0
   -1.4609   -0.2245    1.2633 C   0  0  0  0  0  0  0  0  0  0  0  0
   -0.2142    0.4641    1.7249 C   0  0  0  0  0  0  0  0  0  0  0  0
    1.0325   -0.2245    1.2633 C   0  0  0  0  0  0  0  0  0  0  0  0
    1.0320   -1.3045    0.4965 C   0  0  0  0  0  0  0  0  0  0  0  0
    0.6637   -3.5678   -4.1882 H   0  0  0  0  0  0  0  0  0  0  0  0
   -1.0921   -3.5678   -4.1882 H   0  0  0  0  0  0  0  0  0  0  0  0
   -0.2142   -2.0315   -4.1947 H   0  0  0  0  0  0  0  0  0  0  0  0
   -0.2142   -4.0227   -1.8199 H   0  0  0  0  0  0  0  0  0  0  0  0
   -0.2142   -0.9780   -2.0023 H   0  0  0  0  0  0  0  0  0  0  0  0
   -0.2142   -3.0142    0.2910 H   0  0  0  0  0  0  0  0  0  0  0  0
   -2.4008   -1.7546    0.1962 H   0  0  0  0  0  0  0  0  0  0  0  0
   -2.4052    0.1971    1.5914 H   0  0  0  0  0  0  0  0  0  0  0  0
   -0.2142    1.7126    1.3079 H   0  0  0  0  0  0  0  0  0  0  0  0
   -0.2142    0.5342    2.8193 H   0  0  0  0  0  0  0  0  0  0  0  0
    1.9768    0.1971    1.5914 H   0  0  0  0  0  0  0  0  0  0  0  0
    1.9724   -1.7546    0.1962 H   0  0  0  0  0  0  0  0  0  0  0  0
  1  2  1  0
  1  4  1  0
  2  3  2  3
  3  5  1  0
  3 23  1  0
  6  7  1  0
  6 15  1  0
  6 16  1  0
  6 17  1  0
  7  8  2  3
  7 18  1  0
  8  9  1  0
  8 19  1  0
  9 10  1  0
  9 14  1  0
  9 20  1  0
 10 11  1  0
 10 21  1  0
 11 12  2  0
 11 22  1  0
 12 13  1  0
 12 24  1  0
 13 14  2  0
 13 25  1  0
 14 26  1  0
M  RAD  1  10   2
M  END
>  <reaction>  (24) 
rmg_rxn_15540

>  <mol_properties>  (24) 
{"1": {"label": "*4", "atom_type": "N3d"}, "2": {"label": "*3", "atom_type": "Cd"}, "10": {"label": "*0", "atom_type": "Cd"}, "11": {"label": "*1", "atom_type": "Cs"}, "22": {"label": "*2", "atom_type": "H0"}}

>  <type>  (24) 
unop_20

>  <geom_source>  (24) 
Heuristics

$$$$

     RDKit          3D

 26 25  0  0  0  0  0  0  0  0999 V2000
   -0.7218    4.6675   -0.0095 O   0  0  0  0  0  0  0  0  0  0  0  0
   -0.8206    3.3455    0.3772 N   0  0  0  0  0  0  0  0  0  0  0  0
    0.1784    2.9760    1.0547 C   0  0  0  0  0  0  0  0  0  0  0  0
   -1.5291    4.8144   -0.5063 H   0  0  0  0  0  0  0  0  0  0  0  0
    1.0056    3.6419    1.2912 H   0  0  0  0  0  0  0  0  0  0  0  0
    0.1784   -3.0150   -3.6389 C   0  0  0  0  0  0  0  0  0  0  0  0
    0.1784   -3.0150   -2.1440 C   0  0  0  0  0  0  0  0  0  0  0  0
    0.1784   -1.9311   -1.3818 C   0  0  0  0  0  0  0  0  0  0  0  0
    0.1784   -1.9329    0.1276 C   0  0  0  0  0  0  0  0  0  0  0  0
   -1.0678   -1.2725    0.6546 C   0  0  0  0  0  3  0  0  0  0  0  0
   -1.0683   -0.1924    1.4215 C   0  0  0  0  0  0  0  0  0  0  0  0
    0.1784    0.4962    1.8830 C   0  0  0  0  0  0  0  0  0  0  0  0
    1.4251   -0.1924    1.4215 C   0  0  0  0  0  0  0  0  0  0  0  0
    1.4246   -1.2725    0.6546 C   0  0  0  0  0  0  0  0  0  0  0  0
    1.0563   -3.5358   -4.0301 H   0  0  0  0  0  0  0  0  0  0  0  0
   -0.6995   -3.5358   -4.0301 H   0  0  0  0  0  0  0  0  0  0  0  0
    0.1784   -1.9994   -4.0366 H   0  0  0  0  0  0  0  0  0  0  0  0
    0.1784   -3.9906   -1.6618 H   0  0  0  0  0  0  0  0  0  0  0  0
    0.1784   -0.9459   -1.8442 H   0  0  0  0  0  0  0  0  0  0  0  0
    0.1784   -2.9822    0.4491 H   0  0  0  0  0  0  0  0  0  0  0  0
   -2.0082   -1.7226    0.3543 H   0  0  0  0  0  0  0  0  0  0  0  0
   -2.0126    0.2291    1.7495 H   0  0  0  0  0  0  0  0  0  0  0  0
    0.1784    1.7446    1.4660 H   0  0  0  0  0  0  0  0  0  0  0  0
    0.1784    0.5663    2.9774 H   0  0  0  0  0  0  0  0  0  0  0  0
    2.3694    0.2291    1.7495 H   0  0  0  0  0  0  0  0  0  0  0  0
    2.3650   -1.7226    0.3543 H   0  0  0  0  0  0  0  0  0  0  0  0
  1  2  1  0
  1  4  1  0
  2  3  2  3
  3  5  1  0
  3 23  1  0
  6  7  1  0
  6 15  1  0
  6 16  1  0
  6 17  1  0
  7  8  2  3
  7 18  1  0
  8  9  1  0
  8 19  1  0
  9 10  1  0
  9 14  1  0
  9 20  1  0
 10 11  1  0
 10 21  1  0
 11 12  2  0
 11 22  1  0
 12 13  1  0
 12 24  1  0
 13 14  2  0
 13 25  1  0
 14 26  1  0
M  RAD  1  10   2
M  END
>  <reaction>  (25) 
rmg_rxn_15540

>  <mol_properties>  (25) 
{"1": {"label": "*4", "atom_type": "N3d"}, "2": {"label": "*3", "atom_type": "Cd"}, "10": {"label": "*0", "atom_type": "Cd"}, "11": {"label": "*1", "atom_type": "Cs"}, "22": {"label": "*2", "atom_type": "H0"}}

>  <type>  (25) 
unop_21

>  <geom_source>  (25) 
Heuristics

$$$$

     RDKit          3D

 26 25  0  0  0  0  0  0  0  0999 V2000
   -1.4041   -3.2989   -0.0015 O   0  0  0  0  0  0  0  0  0  0  0  0
   -1.2323   -1.9024   -0.0054 N   0  0  0  0  0  0  0  0  0  0  0  0
   -2.2540   -1.1890    0.0147 C   0  0  0  0  0  0  0  0  0  0  0  0
   -0.5053   -3.6542   -0.0208 H   0  0  0  0  0  0  0  0  0  0  0  0
   -3.2815   -1.5392    0.0358 H   0  0  0  0  0  0  0  0  0  0  0  0
    3.3464   -1.6482    0.0058 C   0  0  0  0  0  0  0  0  0  0  0  0
    2.8317   -0.2464    0.0008 C   0  0  0  0  0  0  0  0  0  0  0  0
    1.5503    0.0754   -0.0001 C   0  0  0  0  0  0  0  0  0  0  0  0
    1.0262    1.5010   -0.0058 C   0  0  0  0  0  0  0  0  0  0  0  0
    0.2129    1.7108    1.2327 C   0  0  0  0  0  3  0  0  0  0  0  0
   -1.1296    1.6584    1.2185 C   0  0  0  0  0  0  0  0  0  0  0  0
   -1.8566    1.4240    0.0021 C   0  0  0  0  0  0  0  0  0  0  0  0
   -1.1360    1.6459   -1.2204 C   0  0  0  0  0  0  0  0  0  0  0  0
    0.2065    1.6982   -1.2421 C   0  0  0  0  0  0  0  0  0  0  0  0
    2.5260   -2.3608    0.0145 H   0  0  0  0  0  0  0  0  0  0  0  0
    3.9606   -1.8276   -0.8765 H   0  0  0  0  0  0  0  0  0  0  0  0
    3.9708   -1.8178    0.8827 H   0  0  0  0  0  0  0  0  0  0  0  0
    3.5921    0.5255   -0.0026 H   0  0  0  0  0  0  0  0  0  0  0  0
    0.7755   -0.6794    0.0031 H   0  0  0  0  0  0  0  0  0  0  0  0
    1.8895    2.1785   -0.0114 H   0  0  0  0  0  0  0  0  0  0  0  0
    0.7570    1.8797    2.1493 H   0  0  0  0  0  0  0  0  0  0  0  0
   -1.6925    1.7766    2.1339 H   0  0  0  0  0  0  0  0  0  0  0  0
   -2.0456    0.0326    0.0095 H   0  0  0  0  0  0  0  0  0  0  0  0
   -2.9142    1.6680    0.0036 H   0  0  0  0  0  0  0  0  0  0  0  0
   -1.7036    1.7543   -2.1340 H   0  0  0  0  0  0  0  0  0  0  0  0
    0.7457    1.8574   -2.1632 H   0  0  0  0  0  0  0  0  0  0  0  0
  1  2  1  0
  1  4  1  0
  2  3  2  3
  3  5  1  0
  3 23  1  0
  6  7  1  0
  6 15  1  0
  6 16  1  0
  6 17  1  0
  7  8  2  3
  7 18  1  0
  8  9  1  0
  8 19  1  0
  9 10  1  0
  9 14  1  0
  9 20  1  0
 10 11  1  0
 10 21  1  0
 11 12  2  0
 11 22  1  0
 12 13  1  0
 12 24  1  0
 13 14  2  0
 13 25  1  0
 14 26  1  0
M  RAD  1  10   2
M  END
>  <reaction>  (26) 
rmg_rxn_15540

>  <mol_properties>  (26) 
{"1": {"label": "*4", "atom_type": "N3d"}, "2": {"label": "*3", "atom_type": "Cd"}, "10": {"label": "*0", "atom_type": "Cd"}, "11": {"label": "*1", "atom_type": "Cs"}, "22": {"label": "*2", "atom_type": "H0"}}

>  <type>  (26) 
unop_22

>  <geom_source>  (26) 
Heuristics

$$$$

     RDKit          3D

 26 25  0  0  0  0  0  0  0  0999 V2000
    4.0209    1.6527    0.4018 O   0  0  0  0  0  0  0  0  0  0  0  0
    3.8455    0.7792    1.4490 N   0  0  0  0  0  0  0  0  0  0  0  0
   -0.7455   -1.2722    0.3194 C   0  0  0  0  0  0  0  0  0  0  0  0
   -3.8172    0.7240   -0.9674 C   0  0  0  0  0  0  0  0  0  0  0  0
   -2.1495   -0.8240   -0.0017 C   0  0  0  0  0  0  0  0  0  0  0  0
    0.0359   -1.5387   -0.9478 C   0  0  0  0  0  3  0  0  0  0  0  0
   -0.0624   -0.2821    1.2361 C   0  0  0  0  0  0  0  0  0  0  0  0
   -2.4096    0.3125   -0.6673 C   0  0  0  0  0  0  0  0  0  0  0  0
    1.0138   -0.7227   -1.3682 C   0  0  0  0  0  0  0  0  0  0  0  0
    0.9158    0.5295    0.8081 C   0  0  0  0  0  0  0  0  0  0  0  0
    1.3791    0.5339   -0.6242 C   0  0  0  0  0  0  0  0  0  0  0  0
    2.9149   -0.1154    1.4053 C   0  0  0  0  0  0  0  0  0  0  0  0
   -0.8118   -2.2349    0.8703 H   0  0  0  0  0  0  0  0  0  0  0  0
   -4.3836    0.8546   -0.0212 H   0  0  0  0  0  0  0  0  0  0  0  0
   -3.8164    1.6862   -1.5210 H   0  0  0  0  0  0  0  0  0  0  0  0
   -4.3129   -0.0491   -1.5918 H   0  0  0  0  0  0  0  0  0  0  0  0
   -0.2226   -2.4059   -1.5484 H   0  0  0  0  0  0  0  0  0  0  0  0
   -2.9750   -1.4525    0.3228 H   0  0  0  0  0  0  0  0  0  0  0  0
   -0.3944   -0.2103    2.2678 H   0  0  0  0  0  0  0  0  0  0  0  0
   -1.5968    0.9518   -0.9985 H   0  0  0  0  0  0  0  0  0  0  0  0
    1.5222   -0.9392   -2.3021 H   0  0  0  0  0  0  0  0  0  0  0  0
    0.9647    1.4183   -1.1516 H   0  0  0  0  0  0  0  0  0  0  0  0
    1.3512    1.2464    1.4966 H   0  0  0  0  0  0  0  0  0  0  0  0
    2.7849   -0.7978    2.2340 H   0  0  0  0  0  0  0  0  0  0  0  0
    2.1965   -0.1956    0.4576 H   0  0  0  0  0  0  0  0  0  0  0  0
    4.7521    2.3513    0.4425 H   0  0  0  0  0  0  0  0  0  0  0  0
  1  2  1  0
  1 26  1  0
  2 12  2  3
  3  5  1  0
  3  6  1  0
  3  7  1  0
  3 13  1  0
  4  8  1  0
  4 14  1  0
  4 15  1  0
  4 16  1  0
  5  8  2  3
  5 18  1  0
  6  9  1  0
  6 17  1  0
  7 10  2  0
  7 19  1  0
  8 20  1  0
  9 11  2  0
  9 21  1  0
 10 11  1  0
 10 23  1  0
 11 22  1  0
 12 24  1  0
 12 25  1  0
M  RAD  1   6   2
M  END
>  <reaction>  (27) 
rmg_rxn_15540

>  <mol_properties>  (27) 
{"1": {"label": "*4", "atom_type": "N3d"}, "2": {"label": "*3", "atom_type": "Cd"}, "10": {"label": "*0", "atom_type": "Cd"}, "11": {"label": "*1", "atom_type": "Cs"}, "22": {"label": "*2", "atom_type": "H0"}}

>  <type>  (27) 
unop_23

>  <geom_source>  (27) 
AutoTST

$$$$

     RDKit          3D

 26 25  0  0  0  0  0  0  0  0999 V2000
   -0.8259    4.8625    0.7306 O   0  0  0  0  0  0  0  0  0  0  0  0
   -0.9252    3.4860    0.7792 N   0  0  0  0  0  0  0  0  0  0  0  0
    0.2027    2.9360    0.9162 C   0  0  0  0  0  0  0  0  0  0  0  0
   -1.7360    5.1472    0.6269 H   0  0  0  0  0  0  0  0  0  0  0  0
    1.1280    3.5041    0.9851 H   0  0  0  0  0  0  0  0  0  0  0  0
    0.2027   -3.0550   -3.7775 C   0  0  0  0  0  0  0  0  0  0  0  0
    0.2027   -3.0550   -2.2826 C   0  0  0  0  0  0  0  0  0  0  0  0
    0.2027   -1.9711   -1.5204 C   0  0  0  0  0  0  0  0  0  0  0  0
    0.2027   -1.9729   -0.0109 C   0  0  0  0  0  0  0  0  0  0  0  0
   -1.0435   -1.3125    0.5161 C   0  0  0  0  0  3  0  0  0  0  0  0
   -1.0440   -0.2324    1.2829 C   0  0  0  0  0  0  0  0  0  0  0  0
    0.2027    0.4561    1.7444 C   0  0  0  0  0  0  0  0  0  0  0  0
    1.4494   -0.2324    1.2829 C   0  0  0  0  0  0  0  0  0  0  0  0
    1.4489   -1.3125    0.5161 C   0  0  0  0  0  0  0  0  0  0  0  0
    1.0806   -3.5758   -4.1686 H   0  0  0  0  0  0  0  0  0  0  0  0
   -0.6752   -3.5758   -4.1686 H   0  0  0  0  0  0  0  0  0  0  0  0
    0.2027   -2.0394   -4.1752 H   0  0  0  0  0  0  0  0  0  0  0  0
    0.2027   -4.0306   -1.8004 H   0  0  0  0  0  0  0  0  0  0  0  0
    0.2027   -0.9859   -1.9828 H   0  0  0  0  0  0  0  0  0  0  0  0
    0.2027   -3.0222    0.3105 H   0  0  0  0  0  0  0  0  0  0  0  0
   -1.9839   -1.7626    0.2158 H   0  0  0  0  0  0  0  0  0  0  0  0
   -1.9883    0.1891    1.6109 H   0  0  0  0  0  0  0  0  0  0  0  0
    0.2027    1.7046    1.3275 H   0  0  0  0  0  0  0  0  0  0  0  0
    0.2027    0.5263    2.8388 H   0  0  0  0  0  0  0  0  0  0  0  0
    2.3937    0.1891    1.6109 H   0  0  0  0  0  0  0  0  0  0  0  0
    2.3893   -1.7626    0.2158 H   0  0  0  0  0  0  0  0  0  0  0  0
  1  2  1  0
  1  4  1  0
  2  3  2  3
  3  5  1  0
  3 23  1  0
  6  7  1  0
  6 15  1  0
  6 16  1  0
  6 17  1  0
  7  8  2  3
  7 18  1  0
  8  9  1  0
  8 19  1  0
  9 10  1  0
  9 14  1  0
  9 20  1  0
 10 11  1  0
 10 21  1  0
 11 12  2  0
 11 22  1  0
 12 13  1  0
 12 24  1  0
 13 14  2  0
 13 25  1  0
 14 26  1  0
M  RAD  1  10   2
M  END
>  <reaction>  (28) 
rmg_rxn_15540

>  <mol_properties>  (28) 
{"1": {"label": "*4", "atom_type": "N3d"}, "2": {"label": "*3", "atom_type": "Cd"}, "10": {"label": "*0", "atom_type": "Cd"}, "11": {"label": "*1", "atom_type": "Cs"}, "22": {"label": "*2", "atom_type": "H0"}}

>  <type>  (28) 
unop_24

>  <geom_source>  (28) 
gaussian_log

$$$$
