
     RDKit          3D

  9  8  0  0  0  0  0  0  0  0999 V2000
   -1.0434   -0.0834    0.0221 C   0  0  0  0  0  0  0  0  0  0  0  0
    0.4680   -0.2131    0.0785 C   0  0  0  0  0  0  0  0  0  0  0  0
    0.9450   -1.3136   -0.7058 N   0  0  0  0  0  2  0  0  0  0  0  0
   -1.5170   -0.9919    0.3960 H   0  0  0  0  0  0  0  0  0  0  0  0
   -1.3864    0.7592    0.6249 H   0  0  0  0  0  0  0  0  0  0  0  0
   -1.3736    0.0696   -1.0061 H   0  0  0  0  0  0  0  0  0  0  0  0
    0.8045   -0.3309    1.1214 H   0  0  0  0  0  0  0  0  0  0  0  0
    0.9463    0.7186   -0.2648 H   0  0  0  0  0  0  0  0  0  0  0  0
    1.9638   -1.3321   -0.6157 H   0  0  0  0  0  0  0  0  0  0  0  0
  1  2  1  0
  1  4  1  0
  1  5  1  0
  1  6  1  0
  2  3  1  0
  2  7  1  0
  2  8  1  0
  3  9  1  0
M  RAD  1   3   2
M  END
>  <reaction>  (1) 
rmg_rxn_15567

>  <mol_properties>  (1) 
{"2": {"label": "donator", "atom_type": "N3s"}, "8": {"label": "d_hydrogen", "atom_type": "H0"}}

>  <type>  (1) 
r1h

$$$$

     RDKit          3D

  8  7  0  0  0  0  0  0  0  0999 V2000
    1.7077   -0.1964   -0.0607 C   0  0  0  0  0  3  0  0  0  0  0  0
    0.4209   -0.4565    0.2808 O   0  0  0  0  0  0  0  0  0  0  0  0
   -0.4607    0.4385   -0.2968 N   0  0  0  0  0  0  0  0  0  0  0  0
   -1.6584    0.1416   -0.0244 C   0  0  0  0  0  0  0  0  0  0  0  0
    2.4163   -0.7685    0.5170 H   0  0  0  0  0  0  0  0  0  0  0  0
    1.9214    0.7645   -0.5045 H   0  0  0  0  0  0  0  0  0  0  0  0
   -2.4185    0.7953   -0.4307 H   0  0  0  0  0  0  0  0  0  0  0  0
   -1.9286   -0.7185    0.5831 H   0  0  0  0  0  0  0  0  0  0  0  0
  1  2  1  0
  1  5  1  0
  1  6  1  0
  2  3  1  0
  3  4  2  3
  4  7  1  0
  4  8  1  0
M  RAD  1   1   2
M  END
>  <reaction>  (2) 
rmg_rxn_15567

>  <mol_properties>  (2) 
{"0": {"label": "acceptor", "atom_type": "Cs"}}

>  <type>  (2) 
r2

$$$$

     RDKit          3D

  9  8  0  0  0  0  0  0  0  0999 V2000
   -1.5470   -0.0755   -0.1976 C   0  0  0  0  0  0  0  0  0  0  0  0
   -0.2885    0.4507    0.1749 O   0  0  0  0  0  0  0  0  0  0  0  0
   -0.1502    1.7216   -0.3294 N   0  0  0  0  0  0  0  0  0  0  0  0
    0.9626    2.2353   -0.0219 C   0  0  0  0  0  0  0  0  0  0  0  0
   -1.6392   -0.1356   -1.2844 H   0  0  0  0  0  0  0  0  0  0  0  0
   -2.3597    0.5337    0.2044 H   0  0  0  0  0  0  0  0  0  0  0  0
   -1.5879   -1.0750    0.2318 H   0  0  0  0  0  0  0  0  0  0  0  0
    1.1497    3.2381   -0.3820 H   0  0  0  0  0  0  0  0  0  0  0  0
    1.7060    1.7101    0.5739 H   0  0  0  0  0  0  0  0  0  0  0  0
  1  2  1  0
  1  5  1  0
  1  6  1  0
  1  7  1  0
  2  3  1  0
  3  4  2  3
  4  8  1  0
  4  9  1  0
M  END
>  <reaction>  (3) 
rmg_rxn_15567

>  <mol_properties>  (3) 
{"0": {"label": "acceptor", "atom_type": "Cs"}, "8": {"label": "a_hydrogen", "atom_type": "H0"}}

>  <type>  (3) 
r2h

$$$$

     RDKit          3D

 17 15  0  0  0  0  0  0  0  0999 V2000
   -1.3209   -0.8026    1.0344 C   0  0  0  0  0  3  0  0  0  0  0  0
   -0.8426    0.3722    1.5795 O   0  0  0  0  0  0  0  0  0  0  0  0
    0.5319    0.4435    1.4717 N   0  0  0  0  0  0  0  0  0  0  0  0
    0.9737    1.5474    1.8986 C   0  0  0  0  0  0  0  0  0  0  0  0
   -0.6930   -1.6677    1.2441 H   0  0  0  0  0  0  0  0  0  0  0  0
   -2.3689   -0.9074    1.2991 H   0  0  0  0  0  0  0  0  0  0  0  0
    2.0461    1.6847    1.8603 H   0  0  0  0  0  0  0  0  0  0  0  0
    0.3249    2.3284    2.2877 H   0  0  0  0  0  0  0  0  0  0  0  0
    0.5686   -0.9807   -3.2534 C   0  0  0  0  0  0  0  0  0  0  0  0
    0.1616   -1.0944   -1.7908 C   0  0  0  0  0  0  0  0  0  0  0  0
   -1.1459   -0.5694   -1.5577 N   0  0  0  0  0  2  0  0  0  0  0  0
    0.5735    0.0635   -3.5678 H   0  0  0  0  0  0  0  0  0  0  0  0
    1.5674   -1.3929   -3.4086 H   0  0  0  0  0  0  0  0  0  0  0  0
   -0.1318   -1.5224   -3.8902 H   0  0  0  0  0  0  0  0  0  0  0  0
    0.8849   -0.5774   -1.1417 H   0  0  0  0  0  0  0  0  0  0  0  0
    0.1930   -2.1473   -1.4663 H   0  0  0  0  0  0  0  0  0  0  0  0
   -1.3225   -0.6799   -0.3610 H   0  0  0  0  0  0  0  0  0  0  0  0
  1  2  1  0
  1  5  1  0
  1  6  1  0
  2  3  1  0
  3  4  2  3
  4  7  1  0
  4  8  1  0
  9 10  1  0
  9 12  1  0
  9 13  1  0
  9 14  1  0
 10 11  1  0
 10 15  1  0
 10 16  1  0
 11 17  1  0
M  RAD  2   1   2  11   2
M  END
>  <reaction>  (4) 
rmg_rxn_15567

>  <mol_properties>  (4) 
{"0": {"label": "*3", "atom_type": "Cs"}, "1": {"label": "*4", "atom_type": "O2s"}, "9": {"label": "*0", "atom_type": "Cs"}, "10": {"label": "*1", "atom_type": "N3s"}, "16": {"label": "*2", "atom_type": "H0"}}

>  <type>  (4) 
ts

$$$$

     RDKit          3D

 17 15  0  0  0  0  0  0  0  0999 V2000
    0.5590   -1.1566   -0.8484 C   0  0  0  0  0  3  0  0  0  0  0  0
    1.0179   -0.9700    0.4110 O   0  0  0  0  0  0  0  0  0  0  0  0
    1.7427    0.1483    0.7403 N   0  0  0  0  0  0  0  0  0  0  0  0
    1.9038    1.0916   -0.0797 C   0  0  0  0  0  0  0  0  0  0  0  0
    1.2623   -0.9535   -1.6552 H   0  0  0  0  0  0  0  0  0  0  0  0
    0.0691   -2.1230   -0.9043 H   0  0  0  0  0  0  0  0  0  0  0  0
    2.4709    1.9260    0.2970 H   0  0  0  0  0  0  0  0  0  0  0  0
    1.4898    1.1683   -1.0790 H   0  0  0  0  0  0  0  0  0  0  0  0
   -2.6407   -0.3617    0.5083 C   0  0  0  0  0  0  0  0  0  0  0  0
   -1.5656    0.7098    0.2563 C   0  0  0  0  0  0  0  0  0  0  0  0
   -0.9244    0.6993   -0.9642 N   0  0  0  0  0  2  0  0  0  0  0  0
   -3.3191   -0.4187   -0.3402 H   0  0  0  0  0  0  0  0  0  0  0  0
   -2.1703   -1.3341    0.6448 H   0  0  0  0  0  0  0  0  0  0  0  0
   -3.2100   -0.1258    1.4039 H   0  0  0  0  0  0  0  0  0  0  0  0
   -0.8763    0.7473    1.1287 H   0  0  0  0  0  0  0  0  0  0  0  0
   -2.0328    1.7071    0.2184 H   0  0  0  0  0  0  0  0  0  0  0  0
   -0.4372   -0.3465   -1.1795 H   0  0  0  0  0  0  0  0  0  0  0  0
  1  2  1  0
  1  5  1  0
  1  6  1  0
  2  3  1  0
  3  4  2  3
  4  7  1  0
  4  8  1  0
  9 10  1  0
  9 12  1  0
  9 13  1  0
  9 14  1  0
 10 11  1  0
 10 15  1  0
 10 16  1  0
 11 17  1  0
M  RAD  2   1   2  11   2
M  END
>  <reaction>  (5) 
rmg_rxn_15567

>  <mol_properties>  (5) 
{"0": {"label": "*3", "atom_type": "Cs"}, "1": {"label": "*4", "atom_type": "O2s"}, "9": {"label": "*0", "atom_type": "Cs"}, "10": {"label": "*1", "atom_type": "N3s"}, "16": {"label": "*2", "atom_type": "H0"}}

>  <type>  (5) 
unop_1

>  <geom_source>  (5) 
crest_best.xyz

$$$$

     RDKit          3D

 17 15  0  0  0  0  0  0  0  0999 V2000
   -0.5778   -0.2525    0.8781 C   0  0  0  0  0  3  0  0  0  0  0  0
    0.6009    0.3933    1.3175 O   0  0  0  0  0  0  0  0  0  0  0  0
    0.3512    1.0656    2.4898 N   0  0  0  0  0  0  0  0  0  0  0  0
    1.3782    1.6606    2.9233 C   0  0  0  0  0  0  0  0  0  0  0  0
   -0.9214   -0.9821    1.6148 H   0  0  0  0  0  0  0  0  0  0  0  0
   -1.3716    0.4725    0.6847 H   0  0  0  0  0  0  0  0  0  0  0  0
    1.2645    2.2149    3.8453 H   0  0  0  0  0  0  0  0  0  0  0  0
    2.3359    1.6277    2.4082 H   0  0  0  0  0  0  0  0  0  0  0  0
   -0.5778   -1.3664   -3.7046 C   0  0  0  0  0  0  0  0  0  0  0  0
   -0.5778   -1.3664   -2.1866 C   0  0  0  0  0  0  0  0  0  0  0  0
   -0.5778   -0.0388   -1.6468 N   0  0  0  0  0  2  0  0  0  0  0  0
    0.3044   -0.8499   -4.0846 H   0  0  0  0  0  0  0  0  0  0  0  0
   -0.5778   -2.3853   -4.0956 H   0  0  0  0  0  0  0  0  0  0  0  0
   -1.4600   -0.8499   -4.0846 H   0  0  0  0  0  0  0  0  0  0  0  0
    0.2944   -1.9201   -1.8027 H   0  0  0  0  0  0  0  0  0  0  0  0
   -1.4500   -1.9201   -1.8027 H   0  0  0  0  0  0  0  0  0  0  0  0
   -0.5778   -0.1424   -0.4236 H   0  0  0  0  0  0  0  0  0  0  0  0
  1  2  1  0
  1  5  1  0
  1  6  1  0
  2  3  1  0
  3  4  2  3
  4  7  1  0
  4  8  1  0
  9 10  1  0
  9 12  1  0
  9 13  1  0
  9 14  1  0
 10 11  1  0
 10 15  1  0
 10 16  1  0
 11 17  1  0
M  RAD  2   1   2  11   2
M  END
>  <reaction>  (6) 
rmg_rxn_15567

>  <mol_properties>  (6) 
{"0": {"label": "*3", "atom_type": "Cs"}, "1": {"label": "*4", "atom_type": "O2s"}, "9": {"label": "*0", "atom_type": "Cs"}, "10": {"label": "*1", "atom_type": "N3s"}, "16": {"label": "*2", "atom_type": "H0"}}

>  <type>  (6) 
unop_2

>  <geom_source>  (6) 
Heuristics

$$$$

     RDKit          3D

 17 15  0  0  0  0  0  0  0  0999 V2000
    0.5590    1.1565    0.8485 C   0  0  0  0  0  3  0  0  0  0  0  0
    1.0178    0.9698   -0.4110 O   0  0  0  0  0  0  0  0  0  0  0  0
    1.7429   -0.1481   -0.7404 N   0  0  0  0  0  0  0  0  0  0  0  0
    1.9044   -1.0915    0.0794 C   0  0  0  0  0  0  0  0  0  0  0  0
    1.2625    0.9529    1.6552 H   0  0  0  0  0  0  0  0  0  0  0  0
    0.0696    2.1231    0.9046 H   0  0  0  0  0  0  0  0  0  0  0  0
    2.4720   -1.9256   -0.2973 H   0  0  0  0  0  0  0  0  0  0  0  0
    1.4904   -1.1685    1.0787 H   0  0  0  0  0  0  0  0  0  0  0  0
   -2.6407    0.3616   -0.5090 C   0  0  0  0  0  0  0  0  0  0  0  0
   -1.5657   -0.7098   -0.2559 C   0  0  0  0  0  0  0  0  0  0  0  0
   -0.9250   -0.6989    0.9647 N   0  0  0  0  0  2  0  0  0  0  0  0
   -2.1706    1.3340   -0.6447 H   0  0  0  0  0  0  0  0  0  0  0  0
   -3.2090    0.1256   -1.4053 H   0  0  0  0  0  0  0  0  0  0  0  0
   -3.3201    0.4181    0.3387 H   0  0  0  0  0  0  0  0  0  0  0  0
   -0.8759   -0.7476   -1.1280 H   0  0  0  0  0  0  0  0  0  0  0  0
   -2.0329   -1.7071   -0.2182 H   0  0  0  0  0  0  0  0  0  0  0  0
   -0.4374    0.3468    1.1797 H   0  0  0  0  0  0  0  0  0  0  0  0
  1  2  1  0
  1  5  1  0
  1  6  1  0
  2  3  1  0
  3  4  2  3
  4  7  1  0
  4  8  1  0
  9 10  1  0
  9 12  1  0
  9 13  1  0
  9 14  1  0
 10 11  1  0
 10 15  1  0
 10 16  1  0
 11 17  1  0
M  RAD  2   1   2  11   2
M  END
>  <reaction>  (7) 
rmg_rxn_15567

>  <mol_properties>  (7) 
{"0": {"label": "*3", "atom_type": "Cs"}, "1": {"label": "*4", "atom_type": "O2s"}, "9": {"label": "*0", "atom_type": "Cs"}, "10": {"label": "*1", "atom_type": "N3s"}, "16": {"label": "*2", "atom_type": "H0"}}

>  <type>  (7) 
unop_3

>  <geom_source>  (7) 
Heuristics

$$$$

     RDKit          3D

 17 15  0  0  0  0  0  0  0  0999 V2000
   -0.4941    0.9634    0.9246 C   0  0  0  0  0  3  0  0  0  0  0  0
    0.1865   -0.2435    1.2072 O   0  0  0  0  0  0  0  0  0  0  0  0
    0.5990   -0.2465    2.5181 N   0  0  0  0  0  0  0  0  0  0  0  0
    1.2143   -1.3084    2.8191 C   0  0  0  0  0  0  0  0  0  0  0  0
   -1.3806    1.0687    1.5540 H   0  0  0  0  0  0  0  0  0  0  0  0
    0.1614    1.8250    1.0704 H   0  0  0  0  0  0  0  0  0  0  0  0
    1.5729   -1.3891    3.8366 H   0  0  0  0  0  0  0  0  0  0  0  0
    1.3835   -2.1106    2.1040 H   0  0  0  0  0  0  0  0  0  0  0  0
   -0.4941   -0.1504   -3.6581 C   0  0  0  0  0  0  0  0  0  0  0  0
   -0.4941   -0.1504   -2.1401 C   0  0  0  0  0  0  0  0  0  0  0  0
   -0.4941    1.1771   -1.6003 N   0  0  0  0  0  2  0  0  0  0  0  0
    0.3881    0.3661   -4.0381 H   0  0  0  0  0  0  0  0  0  0  0  0
   -0.4941   -1.1693   -4.0491 H   0  0  0  0  0  0  0  0  0  0  0  0
   -1.3763    0.3661   -4.0381 H   0  0  0  0  0  0  0  0  0  0  0  0
    0.3781   -0.7041   -1.7562 H   0  0  0  0  0  0  0  0  0  0  0  0
   -1.3663   -0.7041   -1.7562 H   0  0  0  0  0  0  0  0  0  0  0  0
   -0.4941    1.0736   -0.3771 H   0  0  0  0  0  0  0  0  0  0  0  0
  1  2  1  0
  1  5  1  0
  1  6  1  0
  2  3  1  0
  3  4  2  3
  4  7  1  0
  4  8  1  0
  9 10  1  0
  9 12  1  0
  9 13  1  0
  9 14  1  0
 10 11  1  0
 10 15  1  0
 10 16  1  0
 11 17  1  0
M  RAD  2   1   2  11   2
M  END
>  <reaction>  (8) 
rmg_rxn_15567

>  <mol_properties>  (8) 
{"0": {"label": "*3", "atom_type": "Cs"}, "1": {"label": "*4", "atom_type": "O2s"}, "9": {"label": "*0", "atom_type": "Cs"}, "10": {"label": "*1", "atom_type": "N3s"}, "16": {"label": "*2", "atom_type": "H0"}}

>  <type>  (8) 
unop_4

>  <geom_source>  (8) 
Heuristics

$$$$

     RDKit          3D

 17 15  0  0  0  0  0  0  0  0999 V2000
    0.5596    1.1565   -0.8487 C   0  0  0  0  0  3  0  0  0  0  0  0
    1.0182    0.9698    0.4109 O   0  0  0  0  0  0  0  0  0  0  0  0
    1.7429   -0.1484    0.7404 N   0  0  0  0  0  0  0  0  0  0  0  0
    1.9036   -1.0921   -0.0791 C   0  0  0  0  0  0  0  0  0  0  0  0
    0.0707    2.1233   -0.9049 H   0  0  0  0  0  0  0  0  0  0  0  0
    1.2630    0.9524   -1.6553 H   0  0  0  0  0  0  0  0  0  0  0  0
    2.4707   -1.9265    0.2978 H   0  0  0  0  0  0  0  0  0  0  0  0
    1.4890   -1.1694   -1.0781 H   0  0  0  0  0  0  0  0  0  0  0  0
   -2.6401    0.3620    0.5099 C   0  0  0  0  0  0  0  0  0  0  0  0
   -1.5660   -0.7100    0.2554 C   0  0  0  0  0  0  0  0  0  0  0  0
   -0.9255   -0.6982   -0.9653 N   0  0  0  0  0  2  0  0  0  0  0  0
   -3.3185    0.4216   -0.3385 H   0  0  0  0  0  0  0  0  0  0  0  0
   -3.2098    0.1244    1.4049 H   0  0  0  0  0  0  0  0  0  0  0  0
   -2.1689    1.3335    0.6487 H   0  0  0  0  0  0  0  0  0  0  0  0
   -2.0342   -1.7068    0.2162 H   0  0  0  0  0  0  0  0  0  0  0  0
   -0.8763   -0.7495    1.1275 H   0  0  0  0  0  0  0  0  0  0  0  0
   -0.4372    0.3473   -1.1796 H   0  0  0  0  0  0  0  0  0  0  0  0
  1  2  1  0
  1  5  1  0
  1  6  1  0
  2  3  1  0
  3  4  2  3
  4  7  1  0
  4  8  1  0
  9 10  1  0
  9 12  1  0
  9 13  1  0
  9 14  1  0
 10 11  1  0
 10 15  1  0
 10 16  1  0
 11 17  1  0
M  RAD  2   1   2  11   2
M  END
>  <reaction>  (9) 
rmg_rxn_15567

>  <mol_properties>  (9) 
{"0": {"label": "*3", "atom_type": "Cs"}, "1": {"label": "*4", "atom_type": "O2s"}, "9": {"label": "*0", "atom_type": "Cs"}, "10": {"label": "*1", "atom_type": "N3s"}, "16": {"label": "*2", "atom_type": "H0"}}

>  <type>  (9) 
unop_5

>  <geom_source>  (9) 
Heuristics

$$$$

     RDKit          3D

 17 15  0  0  0  0  0  0  0  0999 V2000
   -0.2521   -0.4163    0.8258 C   0  0  0  0  0  3  0  0  0  0  0  0
    0.4284    0.7260    1.3072 O   0  0  0  0  0  0  0  0  0  0  0  0
    0.0016    1.0169    2.5807 N   0  0  0  0  0  0  0  0  0  0  0  0
    0.5832    2.0334    3.0552 C   0  0  0  0  0  0  0  0  0  0  0  0
   -0.0475   -1.2864    1.4536 H   0  0  0  0  0  0  0  0  0  0  0  0
   -1.3295   -0.2408    0.7850 H   0  0  0  0  0  0  0  0  0  0  0  0
    0.3021    2.3293    4.0570 H   0  0  0  0  0  0  0  0  0  0  0  0
    1.3309    2.5941    2.4984 H   0  0  0  0  0  0  0  0  0  0  0  0
   -0.2521   -1.5301   -3.7569 C   0  0  0  0  0  0  0  0  0  0  0  0
   -0.2521   -1.5301   -2.2389 C   0  0  0  0  0  0  0  0  0  0  0  0
   -0.2521   -0.2026   -1.6991 N   0  0  0  0  0  2  0  0  0  0  0  0
    0.6301   -1.0136   -4.1370 H   0  0  0  0  0  0  0  0  0  0  0  0
   -0.2521   -2.5490   -4.1480 H   0  0  0  0  0  0  0  0  0  0  0  0
   -1.1343   -1.0136   -4.1370 H   0  0  0  0  0  0  0  0  0  0  0  0
    0.6201   -2.0838   -1.8550 H   0  0  0  0  0  0  0  0  0  0  0  0
   -1.1244   -2.0838   -1.8550 H   0  0  0  0  0  0  0  0  0  0  0  0
   -0.2521   -0.3061   -0.4759 H   0  0  0  0  0  0  0  0  0  0  0  0
  1  2  1  0
  1  5  1  0
  1  6  1  0
  2  3  1  0
  3  4  2  3
  4  7  1  0
  4  8  1  0
  9 10  1  0
  9 12  1  0
  9 13  1  0
  9 14  1  0
 10 11  1  0
 10 15  1  0
 10 16  1  0
 11 17  1  0
M  RAD  2   1   2  11   2
M  END
>  <reaction>  (10) 
rmg_rxn_15567

>  <mol_properties>  (10) 
{"0": {"label": "*3", "atom_type": "Cs"}, "1": {"label": "*4", "atom_type": "O2s"}, "9": {"label": "*0", "atom_type": "Cs"}, "10": {"label": "*1", "atom_type": "N3s"}, "16": {"label": "*2", "atom_type": "H0"}}

>  <type>  (10) 
unop_6

>  <geom_source>  (10) 
Heuristics

$$$$

     RDKit          3D

 17 15  0  0  0  0  0  0  0  0999 V2000
    0.7852    0.5690    0.9269 C   0  0  0  0  0  3  0  0  0  0  0  0
   -0.3936   -0.1415    1.2515 O   0  0  0  0  0  0  0  0  0  0  0  0
   -0.8632    0.2746    2.4742 N   0  0  0  0  0  0  0  0  0  0  0  0
   -1.9190   -0.3338    2.8087 C   0  0  0  0  0  0  0  0  0  0  0  0
    0.5895    1.6417    0.8621 H   0  0  0  0  0  0  0  0  0  0  0  0
    1.5683    0.3848    1.6657 H   0  0  0  0  0  0  0  0  0  0  0  0
   -2.3535   -0.0629    3.7616 H   0  0  0  0  0  0  0  0  0  0  0  0
   -2.3809   -1.0940    2.1824 H   0  0  0  0  0  0  0  0  0  0  0  0
    0.7852   -0.5449   -3.6558 C   0  0  0  0  0  0  0  0  0  0  0  0
    0.7852   -0.5449   -2.1378 C   0  0  0  0  0  0  0  0  0  0  0  0
    0.7852    0.7827   -1.5981 N   0  0  0  0  0  2  0  0  0  0  0  0
    1.6674   -0.0284   -4.0359 H   0  0  0  0  0  0  0  0  0  0  0  0
    0.7852   -1.5638   -4.0469 H   0  0  0  0  0  0  0  0  0  0  0  0
   -0.0971   -0.0284   -4.0359 H   0  0  0  0  0  0  0  0  0  0  0  0
    1.6574   -1.0986   -1.7539 H   0  0  0  0  0  0  0  0  0  0  0  0
   -0.0871   -1.0986   -1.7539 H   0  0  0  0  0  0  0  0  0  0  0  0
    0.7852    0.6791   -0.3749 H   0  0  0  0  0  0  0  0  0  0  0  0
  1  2  1  0
  1  5  1  0
  1  6  1  0
  2  3  1  0
  3  4  2  3
  4  7  1  0
  4  8  1  0
  9 10  1  0
  9 12  1  0
  9 13  1  0
  9 14  1  0
 10 11  1  0
 10 15  1  0
 10 16  1  0
 11 17  1  0
M  RAD  2   1   2  11   2
M  END
>  <reaction>  (11) 
rmg_rxn_15567

>  <mol_properties>  (11) 
{"0": {"label": "*3", "atom_type": "Cs"}, "1": {"label": "*4", "atom_type": "O2s"}, "9": {"label": "*0", "atom_type": "Cs"}, "10": {"label": "*1", "atom_type": "N3s"}, "16": {"label": "*2", "atom_type": "H0"}}

>  <type>  (11) 
unop_7

>  <geom_source>  (11) 
Heuristics

$$$$

     RDKit          3D

 17 15  0  0  0  0  0  0  0  0999 V2000
   -0.0000   -0.4265    0.7883 C   0  0  0  0  0  3  0  0  0  0  0  0
   -0.0000    0.8974    1.2851 O   0  0  0  0  0  0  0  0  0  0  0  0
    0.0000    0.8764    2.6592 N   0  0  0  0  0  0  0  0  0  0  0  0
    0.0000    2.0403    3.1513 C   0  0  0  0  0  0  0  0  0  0  0  0
    0.8921   -0.9661    1.1141 H   0  0  0  0  0  0  0  0  0  0  0  0
   -0.8921   -0.9661    1.1141 H   0  0  0  0  0  0  0  0  0  0  0  0
    0.0000    2.1103    4.2308 H   0  0  0  0  0  0  0  0  0  0  0  0
   -0.0000    2.9371    2.5353 H   0  0  0  0  0  0  0  0  0  0  0  0
   -0.0000   -1.5404   -3.7944 C   0  0  0  0  0  0  0  0  0  0  0  0
   -0.0000   -1.5404   -2.2764 C   0  0  0  0  0  0  0  0  0  0  0  0
   -0.0000   -0.2128   -1.7366 N   0  0  0  0  0  2  0  0  0  0  0  0
    0.8822   -1.0239   -4.1744 H   0  0  0  0  0  0  0  0  0  0  0  0
   -0.0000   -2.5593   -4.1854 H   0  0  0  0  0  0  0  0  0  0  0  0
   -0.8822   -1.0239   -4.1744 H   0  0  0  0  0  0  0  0  0  0  0  0
    0.8722   -2.0941   -1.8925 H   0  0  0  0  0  0  0  0  0  0  0  0
   -0.8722   -2.0941   -1.8925 H   0  0  0  0  0  0  0  0  0  0  0  0
   -0.0000   -0.3163   -0.5134 H   0  0  0  0  0  0  0  0  0  0  0  0
  1  2  1  0
  1  5  1  0
  1  6  1  0
  2  3  1  0
  3  4  2  3
  4  7  1  0
  4  8  1  0
  9 10  1  0
  9 12  1  0
  9 13  1  0
  9 14  1  0
 10 11  1  0
 10 15  1  0
 10 16  1  0
 11 17  1  0
M  RAD  2   1   2  11   2
M  END
>  <reaction>  (12) 
rmg_rxn_15567

>  <mol_properties>  (12) 
{"0": {"label": "*3", "atom_type": "Cs"}, "1": {"label": "*4", "atom_type": "O2s"}, "9": {"label": "*0", "atom_type": "Cs"}, "10": {"label": "*1", "atom_type": "N3s"}, "16": {"label": "*2", "atom_type": "H0"}}

>  <type>  (12) 
unop_8

>  <geom_source>  (12) 
Heuristics

$$$$

     RDKit          3D

 17 15  0  0  0  0  0  0  0  0999 V2000
    0.5590   -1.1563    0.8487 C   0  0  0  0  0  3  0  0  0  0  0  0
    1.0177   -0.9698   -0.4108 O   0  0  0  0  0  0  0  0  0  0  0  0
    1.7432    0.1479   -0.7403 N   0  0  0  0  0  0  0  0  0  0  0  0
    1.9044    1.0916    0.0792 C   0  0  0  0  0  0  0  0  0  0  0  0
    0.0696   -2.1228    0.9050 H   0  0  0  0  0  0  0  0  0  0  0  0
    1.2625   -0.9525    1.6553 H   0  0  0  0  0  0  0  0  0  0  0  0
    2.4721    1.9255   -0.2976 H   0  0  0  0  0  0  0  0  0  0  0  0
    1.4895    1.1692    1.0781 H   0  0  0  0  0  0  0  0  0  0  0  0
   -2.6405   -0.3618   -0.5093 C   0  0  0  0  0  0  0  0  0  0  0  0
   -1.5659    0.7099   -0.2559 C   0  0  0  0  0  0  0  0  0  0  0  0
   -0.9252    0.6989    0.9648 N   0  0  0  0  0  2  0  0  0  0  0  0
   -3.2089   -0.1257   -1.4055 H   0  0  0  0  0  0  0  0  0  0  0  0
   -2.1698   -1.3340   -0.6453 H   0  0  0  0  0  0  0  0  0  0  0  0
   -3.3199   -0.4189    0.3385 H   0  0  0  0  0  0  0  0  0  0  0  0
   -2.0334    1.7070   -0.2178 H   0  0  0  0  0  0  0  0  0  0  0  0
   -0.8761    0.7481   -1.1280 H   0  0  0  0  0  0  0  0  0  0  0  0
   -0.4376   -0.3467    1.1798 H   0  0  0  0  0  0  0  0  0  0  0  0
  1  2  1  0
  1  5  1  0
  1  6  1  0
  2  3  1  0
  3  4  2  3
  4  7  1  0
  4  8  1  0
  9 10  1  0
  9 12  1  0
  9 13  1  0
  9 14  1  0
 10 11  1  0
 10 15  1  0
 10 16  1  0
 11 17  1  0
M  RAD  2   1   2  11   2
M  END
>  <reaction>  (13) 
rmg_rxn_15567

>  <mol_properties>  (13) 
{"0": {"label": "*3", "atom_type": "Cs"}, "1": {"label": "*4", "atom_type": "O2s"}, "9": {"label": "*0", "atom_type": "Cs"}, "10": {"label": "*1", "atom_type": "N3s"}, "16": {"label": "*2", "atom_type": "H0"}}

>  <type>  (13) 
unop_9

>  <geom_source>  (13) 
Heuristics

$$$$

     RDKit          3D

 17 15  0  0  0  0  0  0  0  0999 V2000
    0.7997    0.1105    0.9120 C   0  0  0  0  0  3  0  0  0  0  0  0
   -0.5614    0.0782    1.2940 O   0  0  0  0  0  0  0  0  0  0  0  0
   -0.7327    0.7879    2.4584 N   0  0  0  0  0  0  0  0  0  0  0  0
   -1.9369    0.7878    2.8410 C   0  0  0  0  0  0  0  0  0  0  0  0
    1.1301    1.1356    0.7300 H   0  0  0  0  0  0  0  0  0  0  0  0
    1.4312   -0.3461    1.6774 H   0  0  0  0  0  0  0  0  0  0  0  0
   -2.1559    1.3266    3.7532 H   0  0  0  0  0  0  0  0  0  0  0  0
   -2.7260    0.2772    2.2932 H   0  0  0  0  0  0  0  0  0  0  0  0
    0.7997   -1.0033   -3.6706 C   0  0  0  0  0  0  0  0  0  0  0  0
    0.7997   -1.0033   -2.1526 C   0  0  0  0  0  0  0  0  0  0  0  0
    0.7997    0.3242   -1.6129 N   0  0  0  0  0  2  0  0  0  0  0  0
    1.6819   -0.4869   -4.0507 H   0  0  0  0  0  0  0  0  0  0  0  0
    0.7997   -2.0222   -4.0617 H   0  0  0  0  0  0  0  0  0  0  0  0
   -0.0826   -0.4869   -4.0507 H   0  0  0  0  0  0  0  0  0  0  0  0
    1.6719   -1.5570   -1.7687 H   0  0  0  0  0  0  0  0  0  0  0  0
   -0.0726   -1.5570   -1.7687 H   0  0  0  0  0  0  0  0  0  0  0  0
    0.7997    0.2207   -0.3897 H   0  0  0  0  0  0  0  0  0  0  0  0
  1  2  1  0
  1  5  1  0
  1  6  1  0
  2  3  1  0
  3  4  2  3
  4  7  1  0
  4  8  1  0
  9 10  1  0
  9 12  1  0
  9 13  1  0
  9 14  1  0
 10 11  1  0
 10 15  1  0
 10 16  1  0
 11 17  1  0
M  RAD  2   1   2  11   2
M  END
>  <reaction>  (14) 
rmg_rxn_15567

>  <mol_properties>  (14) 
{"0": {"label": "*3", "atom_type": "Cs"}, "1": {"label": "*4", "atom_type": "O2s"}, "9": {"label": "*0", "atom_type": "Cs"}, "10": {"label": "*1", "atom_type": "N3s"}, "16": {"label": "*2", "atom_type": "H0"}}

>  <type>  (14) 
unop_10

>  <geom_source>  (14) 
Heuristics

$$$$

     RDKit          3D

 17 15  0  0  0  0  0  0  0  0999 V2000
    0.5592    1.1564   -0.8488 C   0  0  0  0  0  3  0  0  0  0  0  0
    1.0179    0.9700    0.4108 O   0  0  0  0  0  0  0  0  0  0  0  0
    1.7428   -0.1481    0.7404 N   0  0  0  0  0  0  0  0  0  0  0  0
    1.9040   -1.0917   -0.0792 C   0  0  0  0  0  0  0  0  0  0  0  0
    0.0697    2.1229   -0.9051 H   0  0  0  0  0  0  0  0  0  0  0  0
    1.2627    0.9527   -1.6554 H   0  0  0  0  0  0  0  0  0  0  0  0
    2.4713   -1.9259    0.2979 H   0  0  0  0  0  0  0  0  0  0  0  0
    1.4900   -1.1691   -1.0784 H   0  0  0  0  0  0  0  0  0  0  0  0
   -2.6402    0.3621    0.5092 C   0  0  0  0  0  0  0  0  0  0  0  0
   -1.5659   -0.7100    0.2559 C   0  0  0  0  0  0  0  0  0  0  0  0
   -0.9252   -0.6991   -0.9648 N   0  0  0  0  0  2  0  0  0  0  0  0
   -2.1691    1.3338    0.6474 H   0  0  0  0  0  0  0  0  0  0  0  0
   -3.3183    0.4209   -0.3394 H   0  0  0  0  0  0  0  0  0  0  0  0
   -3.2100    0.1252    1.4042 H   0  0  0  0  0  0  0  0  0  0  0  0
   -2.0339   -1.7069    0.2175 H   0  0  0  0  0  0  0  0  0  0  0  0
   -0.8763   -0.7487    1.1281 H   0  0  0  0  0  0  0  0  0  0  0  0
   -0.4370    0.3464   -1.1797 H   0  0  0  0  0  0  0  0  0  0  0  0
  1  2  1  0
  1  5  1  0
  1  6  1  0
  2  3  1  0
  3  4  2  3
  4  7  1  0
  4  8  1  0
  9 10  1  0
  9 12  1  0
  9 13  1  0
  9 14  1  0
 10 11  1  0
 10 15  1  0
 10 16  1  0
 11 17  1  0
M  RAD  2   1   2  11   2
M  END
>  <reaction>  (15) 
rmg_rxn_15567

>  <mol_properties>  (15) 
{"0": {"label": "*3", "atom_type": "Cs"}, "1": {"label": "*4", "atom_type": "O2s"}, "9": {"label": "*0", "atom_type": "Cs"}, "10": {"label": "*1", "atom_type": "N3s"}, "16": {"label": "*2", "atom_type": "H0"}}

>  <type>  (15) 
unop_11

>  <geom_source>  (15) 
Heuristics

$$$$

     RDKit          3D

 17 15  0  0  0  0  0  0  0  0999 V2000
    0.5778   -0.2525    0.8781 C   0  0  0  0  0  3  0  0  0  0  0  0
   -0.6009    0.3933    1.3175 O   0  0  0  0  0  0  0  0  0  0  0  0
   -0.3512    1.0656    2.4898 N   0  0  0  0  0  0  0  0  0  0  0  0
   -1.3782    1.6606    2.9233 C   0  0  0  0  0  0  0  0  0  0  0  0
    1.3716    0.4725    0.6848 H   0  0  0  0  0  0  0  0  0  0  0  0
    0.9214   -0.9821    1.6149 H   0  0  0  0  0  0  0  0  0  0  0  0
   -1.2644    2.2149    3.8453 H   0  0  0  0  0  0  0  0  0  0  0  0
   -2.3359    1.6276    2.4082 H   0  0  0  0  0  0  0  0  0  0  0  0
    0.5778   -1.3664   -3.7046 C   0  0  0  0  0  0  0  0  0  0  0  0
    0.5778   -1.3664   -2.1866 C   0  0  0  0  0  0  0  0  0  0  0  0
    0.5778   -0.0388   -1.6468 N   0  0  0  0  0  2  0  0  0  0  0  0
    1.4600   -0.8499   -4.0846 H   0  0  0  0  0  0  0  0  0  0  0  0
    0.5778   -2.3853   -4.0956 H   0  0  0  0  0  0  0  0  0  0  0  0
   -0.3044   -0.8499   -4.0846 H   0  0  0  0  0  0  0  0  0  0  0  0
    1.4500   -1.9201   -1.8027 H   0  0  0  0  0  0  0  0  0  0  0  0
   -0.2944   -1.9201   -1.8027 H   0  0  0  0  0  0  0  0  0  0  0  0
    0.5778   -0.1424   -0.4236 H   0  0  0  0  0  0  0  0  0  0  0  0
  1  2  1  0
  1  5  1  0
  1  6  1  0
  2  3  1  0
  3  4  2  3
  4  7  1  0
  4  8  1  0
  9 10  1  0
  9 12  1  0
  9 13  1  0
  9 14  1  0
 10 11  1  0
 10 15  1  0
 10 16  1  0
 11 17  1  0
M  RAD  2   1   2  11   2
M  END
>  <reaction>  (16) 
rmg_rxn_15567

>  <mol_properties>  (16) 
{"0": {"label": "*3", "atom_type": "Cs"}, "1": {"label": "*4", "atom_type": "O2s"}, "9": {"label": "*0", "atom_type": "Cs"}, "10": {"label": "*1", "atom_type": "N3s"}, "16": {"label": "*2", "atom_type": "H0"}}

>  <type>  (16) 
unop_12

>  <geom_source>  (16) 
Heuristics

$$$$

     RDKit          3D

 17 15  0  0  0  0  0  0  0  0999 V2000
   -0.7997    0.1105    0.9120 C   0  0  0  0  0  3  0  0  0  0  0  0
    0.5614    0.0782    1.2940 O   0  0  0  0  0  0  0  0  0  0  0  0
    0.7327    0.7879    2.4584 N   0  0  0  0  0  0  0  0  0  0  0  0
    1.9369    0.7878    2.8410 C   0  0  0  0  0  0  0  0  0  0  0  0
   -1.4312   -0.3461    1.6774 H   0  0  0  0  0  0  0  0  0  0  0  0
   -1.1301    1.1356    0.7300 H   0  0  0  0  0  0  0  0  0  0  0  0
    2.1559    1.3266    3.7532 H   0  0  0  0  0  0  0  0  0  0  0  0
    2.7260    0.2772    2.2932 H   0  0  0  0  0  0  0  0  0  0  0  0
   -0.7997   -1.0033   -3.6706 C   0  0  0  0  0  0  0  0  0  0  0  0
   -0.7997   -1.0033   -2.1526 C   0  0  0  0  0  0  0  0  0  0  0  0
   -0.7997    0.3242   -1.6129 N   0  0  0  0  0  2  0  0  0  0  0  0
    0.0826   -0.4869   -4.0507 H   0  0  0  0  0  0  0  0  0  0  0  0
   -0.7997   -2.0222   -4.0617 H   0  0  0  0  0  0  0  0  0  0  0  0
   -1.6819   -0.4869   -4.0507 H   0  0  0  0  0  0  0  0  0  0  0  0
    0.0726   -1.5570   -1.7687 H   0  0  0  0  0  0  0  0  0  0  0  0
   -1.6719   -1.5570   -1.7687 H   0  0  0  0  0  0  0  0  0  0  0  0
   -0.7997    0.2207   -0.3897 H   0  0  0  0  0  0  0  0  0  0  0  0
  1  2  1  0
  1  5  1  0
  1  6  1  0
  2  3  1  0
  3  4  2  3
  4  7  1  0
  4  8  1  0
  9 10  1  0
  9 12  1  0
  9 13  1  0
  9 14  1  0
 10 11  1  0
 10 15  1  0
 10 16  1  0
 11 17  1  0
M  RAD  2   1   2  11   2
M  END
>  <reaction>  (17) 
rmg_rxn_15567

>  <mol_properties>  (17) 
{"0": {"label": "*3", "atom_type": "Cs"}, "1": {"label": "*4", "atom_type": "O2s"}, "9": {"label": "*0", "atom_type": "Cs"}, "10": {"label": "*1", "atom_type": "N3s"}, "16": {"label": "*2", "atom_type": "H0"}}

>  <type>  (17) 
unop_13

>  <geom_source>  (17) 
Heuristics

$$$$

     RDKit          3D

 17 15  0  0  0  0  0  0  0  0999 V2000
    0.5590   -1.1566   -0.8484 C   0  0  0  0  0  3  0  0  0  0  0  0
    1.0179   -0.9700    0.4110 O   0  0  0  0  0  0  0  0  0  0  0  0
    1.7427    0.1483    0.7403 N   0  0  0  0  0  0  0  0  0  0  0  0
    1.9038    1.0916   -0.0797 C   0  0  0  0  0  0  0  0  0  0  0  0
    1.2623   -0.9535   -1.6552 H   0  0  0  0  0  0  0  0  0  0  0  0
    0.0691   -2.1230   -0.9043 H   0  0  0  0  0  0  0  0  0  0  0  0
    2.4709    1.9260    0.2970 H   0  0  0  0  0  0  0  0  0  0  0  0
    1.4898    1.1683   -1.0790 H   0  0  0  0  0  0  0  0  0  0  0  0
   -2.6407   -0.3617    0.5083 C   0  0  0  0  0  0  0  0  0  0  0  0
   -1.5656    0.7098    0.2563 C   0  0  0  0  0  0  0  0  0  0  0  0
   -0.9244    0.6993   -0.9642 N   0  0  0  0  0  2  0  0  0  0  0  0
   -3.3191   -0.4187   -0.3402 H   0  0  0  0  0  0  0  0  0  0  0  0
   -2.1703   -1.3341    0.6448 H   0  0  0  0  0  0  0  0  0  0  0  0
   -3.2100   -0.1258    1.4039 H   0  0  0  0  0  0  0  0  0  0  0  0
   -0.8763    0.7473    1.1287 H   0  0  0  0  0  0  0  0  0  0  0  0
   -2.0328    1.7071    0.2184 H   0  0  0  0  0  0  0  0  0  0  0  0
   -0.4372   -0.3465   -1.1795 H   0  0  0  0  0  0  0  0  0  0  0  0
  1  2  1  0
  1  5  1  0
  1  6  1  0
  2  3  1  0
  3  4  2  3
  4  7  1  0
  4  8  1  0
  9 10  1  0
  9 12  1  0
  9 13  1  0
  9 14  1  0
 10 11  1  0
 10 15  1  0
 10 16  1  0
 11 17  1  0
M  RAD  2   1   2  11   2
M  END
>  <reaction>  (18) 
rmg_rxn_15567

>  <mol_properties>  (18) 
{"0": {"label": "*3", "atom_type": "Cs"}, "1": {"label": "*4", "atom_type": "O2s"}, "9": {"label": "*0", "atom_type": "Cs"}, "10": {"label": "*1", "atom_type": "N3s"}, "16": {"label": "*2", "atom_type": "H0"}}

>  <type>  (18) 
unop_14

>  <geom_source>  (18) 
Heuristics

$$$$

     RDKit          3D

 17 15  0  0  0  0  0  0  0  0999 V2000
    0.4941    0.9634    0.9246 C   0  0  0  0  0  3  0  0  0  0  0  0
   -0.1865   -0.2435    1.2072 O   0  0  0  0  0  0  0  0  0  0  0  0
   -0.5991   -0.2465    2.5181 N   0  0  0  0  0  0  0  0  0  0  0  0
   -1.2143   -1.3084    2.8191 C   0  0  0  0  0  0  0  0  0  0  0  0
   -0.1614    1.8250    1.0704 H   0  0  0  0  0  0  0  0  0  0  0  0
    1.3806    1.0687    1.5540 H   0  0  0  0  0  0  0  0  0  0  0  0
   -1.5730   -1.3891    3.8366 H   0  0  0  0  0  0  0  0  0  0  0  0
   -1.3835   -2.1106    2.1041 H   0  0  0  0  0  0  0  0  0  0  0  0
    0.4941   -0.1504   -3.6581 C   0  0  0  0  0  0  0  0  0  0  0  0
    0.4941   -0.1504   -2.1401 C   0  0  0  0  0  0  0  0  0  0  0  0
    0.4941    1.1771   -1.6003 N   0  0  0  0  0  2  0  0  0  0  0  0
    1.3763    0.3660   -4.0381 H   0  0  0  0  0  0  0  0  0  0  0  0
    0.4941   -1.1693   -4.0491 H   0  0  0  0  0  0  0  0  0  0  0  0
   -0.3881    0.3661   -4.0381 H   0  0  0  0  0  0  0  0  0  0  0  0
    1.3663   -0.7041   -1.7562 H   0  0  0  0  0  0  0  0  0  0  0  0
   -0.3781   -0.7041   -1.7562 H   0  0  0  0  0  0  0  0  0  0  0  0
    0.4941    1.0736   -0.3771 H   0  0  0  0  0  0  0  0  0  0  0  0
  1  2  1  0
  1  5  1  0
  1  6  1  0
  2  3  1  0
  3  4  2  3
  4  7  1  0
  4  8  1  0
  9 10  1  0
  9 12  1  0
  9 13  1  0
  9 14  1  0
 10 11  1  0
 10 15  1  0
 10 16  1  0
 11 17  1  0
M  RAD  2   1   2  11   2
M  END
>  <reaction>  (19) 
rmg_rxn_15567

>  <mol_properties>  (19) 
{"0": {"label": "*3", "atom_type": "Cs"}, "1": {"label": "*4", "atom_type": "O2s"}, "9": {"label": "*0", "atom_type": "Cs"}, "10": {"label": "*1", "atom_type": "N3s"}, "16": {"label": "*2", "atom_type": "H0"}}

>  <type>  (19) 
unop_15

>  <geom_source>  (19) 
Heuristics

$$$$

     RDKit          3D

 17 15  0  0  0  0  0  0  0  0999 V2000
   -0.7852    0.5690    0.9269 C   0  0  0  0  0  3  0  0  0  0  0  0
    0.3936   -0.1415    1.2515 O   0  0  0  0  0  0  0  0  0  0  0  0
    0.8632    0.2746    2.4742 N   0  0  0  0  0  0  0  0  0  0  0  0
    1.9190   -0.3338    2.8087 C   0  0  0  0  0  0  0  0  0  0  0  0
   -1.5683    0.3848    1.6657 H   0  0  0  0  0  0  0  0  0  0  0  0
   -0.5895    1.6417    0.8621 H   0  0  0  0  0  0  0  0  0  0  0  0
    2.3535   -0.0629    3.7616 H   0  0  0  0  0  0  0  0  0  0  0  0
    2.3809   -1.0940    2.1823 H   0  0  0  0  0  0  0  0  0  0  0  0
   -0.7852   -0.5449   -3.6558 C   0  0  0  0  0  0  0  0  0  0  0  0
   -0.7852   -0.5449   -2.1378 C   0  0  0  0  0  0  0  0  0  0  0  0
   -0.7852    0.7827   -1.5981 N   0  0  0  0  0  2  0  0  0  0  0  0
    0.0971   -0.0284   -4.0359 H   0  0  0  0  0  0  0  0  0  0  0  0
   -0.7852   -1.5638   -4.0469 H   0  0  0  0  0  0  0  0  0  0  0  0
   -1.6674   -0.0284   -4.0359 H   0  0  0  0  0  0  0  0  0  0  0  0
    0.0871   -1.0986   -1.7539 H   0  0  0  0  0  0  0  0  0  0  0  0
   -1.6574   -1.0986   -1.7539 H   0  0  0  0  0  0  0  0  0  0  0  0
   -0.7852    0.6792   -0.3749 H   0  0  0  0  0  0  0  0  0  0  0  0
  1  2  1  0
  1  5  1  0
  1  6  1  0
  2  3  1  0
  3  4  2  3
  4  7  1  0
  4  8  1  0
  9 10  1  0
  9 12  1  0
  9 13  1  0
  9 14  1  0
 10 11  1  0
 10 15  1  0
 10 16  1  0
 11 17  1  0
M  RAD  2   1   2  11   2
M  END
>  <reaction>  (20) 
rmg_rxn_15567

>  <mol_properties>  (20) 
{"0": {"label": "*3", "atom_type": "Cs"}, "1": {"label": "*4", "atom_type": "O2s"}, "9": {"label": "*0", "atom_type": "Cs"}, "10": {"label": "*1", "atom_type": "N3s"}, "16": {"label": "*2", "atom_type": "H0"}}

>  <type>  (20) 
unop_16

>  <geom_source>  (20) 
Heuristics

$$$$

     RDKit          3D

 17 15  0  0  0  0  0  0  0  0999 V2000
    0.2521   -0.4163    0.8258 C   0  0  0  0  0  3  0  0  0  0  0  0
   -0.4284    0.7260    1.3072 O   0  0  0  0  0  0  0  0  0  0  0  0
   -0.0015    1.0169    2.5807 N   0  0  0  0  0  0  0  0  0  0  0  0
   -0.5832    2.0334    3.0552 C   0  0  0  0  0  0  0  0  0  0  0  0
    1.3295   -0.2408    0.7850 H   0  0  0  0  0  0  0  0  0  0  0  0
    0.0475   -1.2864    1.4536 H   0  0  0  0  0  0  0  0  0  0  0  0
   -0.3021    2.3293    4.0570 H   0  0  0  0  0  0  0  0  0  0  0  0
   -1.3309    2.5941    2.4984 H   0  0  0  0  0  0  0  0  0  0  0  0
    0.2521   -1.5301   -3.7569 C   0  0  0  0  0  0  0  0  0  0  0  0
    0.2521   -1.5301   -2.2389 C   0  0  0  0  0  0  0  0  0  0  0  0
    0.2521   -0.2026   -1.6991 N   0  0  0  0  0  2  0  0  0  0  0  0
    1.1343   -1.0136   -4.1370 H   0  0  0  0  0  0  0  0  0  0  0  0
    0.2521   -2.5490   -4.1480 H   0  0  0  0  0  0  0  0  0  0  0  0
   -0.6301   -1.0136   -4.1370 H   0  0  0  0  0  0  0  0  0  0  0  0
    1.1243   -2.0838   -1.8550 H   0  0  0  0  0  0  0  0  0  0  0  0
   -0.6201   -2.0838   -1.8550 H   0  0  0  0  0  0  0  0  0  0  0  0
    0.2521   -0.3061   -0.4759 H   0  0  0  0  0  0  0  0  0  0  0  0
  1  2  1  0
  1  5  1  0
  1  6  1  0
  2  3  1  0
  3  4  2  3
  4  7  1  0
  4  8  1  0
  9 10  1  0
  9 12  1  0
  9 13  1  0
  9 14  1  0
 10 11  1  0
 10 15  1  0
 10 16  1  0
 11 17  1  0
M  RAD  2   1   2  11   2
M  END
>  <reaction>  (21) 
rmg_rxn_15567

>  <mol_properties>  (21) 
{"0": {"label": "*3", "atom_type": "Cs"}, "1": {"label": "*4", "atom_type": "O2s"}, "9": {"label": "*0", "atom_type": "Cs"}, "10": {"label": "*1", "atom_type": "N3s"}, "16": {"label": "*2", "atom_type": "H0"}}

>  <type>  (21) 
unop_17

>  <geom_source>  (21) 
Heuristics

$$$$

     RDKit          3D

 17 15  0  0  0  0  0  0  0  0999 V2000
    0.0000    1.1233    0.9195 C   0  0  0  0  0  3  0  0  0  0  0  0
    0.0000   -0.2653    1.1867 O   0  0  0  0  0  0  0  0  0  0  0  0
   -0.0000   -0.4755    2.5448 N   0  0  0  0  0  0  0  0  0  0  0  0
   -0.0000   -1.7056    2.8342 C   0  0  0  0  0  0  0  0  0  0  0  0
   -0.8921    1.6005    1.3313 H   0  0  0  0  0  0  0  0  0  0  0  0
    0.8921    1.6004    1.3313 H   0  0  0  0  0  0  0  0  0  0  0  0
   -0.0000   -1.9560    3.8866 H   0  0  0  0  0  0  0  0  0  0  0  0
    0.0000   -2.4860    2.0763 H   0  0  0  0  0  0  0  0  0  0  0  0
    0.0000    0.0095   -3.6632 C   0  0  0  0  0  0  0  0  0  0  0  0
    0.0000    0.0095   -2.1452 C   0  0  0  0  0  0  0  0  0  0  0  0
    0.0000    1.3370   -1.6054 N   0  0  0  0  0  2  0  0  0  0  0  0
    0.8822    0.5260   -4.0433 H   0  0  0  0  0  0  0  0  0  0  0  0
    0.0000   -1.0094   -4.0543 H   0  0  0  0  0  0  0  0  0  0  0  0
   -0.8822    0.5260   -4.0433 H   0  0  0  0  0  0  0  0  0  0  0  0
    0.8722   -0.5442   -1.7613 H   0  0  0  0  0  0  0  0  0  0  0  0
   -0.8722   -0.5442   -1.7613 H   0  0  0  0  0  0  0  0  0  0  0  0
    0.0000    1.2335   -0.3822 H   0  0  0  0  0  0  0  0  0  0  0  0
  1  2  1  0
  1  5  1  0
  1  6  1  0
  2  3  1  0
  3  4  2  3
  4  7  1  0
  4  8  1  0
  9 10  1  0
  9 12  1  0
  9 13  1  0
  9 14  1  0
 10 11  1  0
 10 15  1  0
 10 16  1  0
 11 17  1  0
M  RAD  2   1   2  11   2
M  END
>  <reaction>  (22) 
rmg_rxn_15567

>  <mol_properties>  (22) 
{"0": {"label": "*3", "atom_type": "Cs"}, "1": {"label": "*4", "atom_type": "O2s"}, "9": {"label": "*0", "atom_type": "Cs"}, "10": {"label": "*1", "atom_type": "N3s"}, "16": {"label": "*2", "atom_type": "H0"}}

>  <type>  (22) 
unop_18

>  <geom_source>  (22) 
Heuristics

$$$$

     RDKit          3D

 17 15  0  0  0  0  0  0  0  0999 V2000
   -0.4941    0.9634    0.9246 C   0  0  0  0  0  3  0  0  0  0  0  0
    0.1865   -0.2434    1.2072 O   0  0  0  0  0  0  0  0  0  0  0  0
    0.5990   -0.2465    2.5181 N   0  0  0  0  0  0  0  0  0  0  0  0
    1.2143   -1.3084    2.8192 C   0  0  0  0  0  0  0  0  0  0  0  0
   -1.3806    1.0687    1.5540 H   0  0  0  0  0  0  0  0  0  0  0  0
    0.1614    1.8250    1.0704 H   0  0  0  0  0  0  0  0  0  0  0  0
    1.5729   -1.3891    3.8366 H   0  0  0  0  0  0  0  0  0  0  0  0
    1.3835   -2.1106    2.1040 H   0  0  0  0  0  0  0  0  0  0  0  0
   -0.4941   -0.1504   -3.6581 C   0  0  0  0  0  0  0  0  0  0  0  0
   -0.4941   -0.1504   -2.1401 C   0  0  0  0  0  0  0  0  0  0  0  0
   -0.4941    1.1771   -1.6003 N   0  0  0  0  0  2  0  0  0  0  0  0
    0.3881    0.3660   -4.0381 H   0  0  0  0  0  0  0  0  0  0  0  0
   -0.4941   -1.1693   -4.0491 H   0  0  0  0  0  0  0  0  0  0  0  0
   -1.3763    0.3660   -4.0381 H   0  0  0  0  0  0  0  0  0  0  0  0
    0.3781   -0.7041   -1.7562 H   0  0  0  0  0  0  0  0  0  0  0  0
   -1.3663   -0.7041   -1.7562 H   0  0  0  0  0  0  0  0  0  0  0  0
   -0.4941    1.0736   -0.3771 H   0  0  0  0  0  0  0  0  0  0  0  0
  1  2  1  0
  1  5  1  0
  1  6  1  0
  2  3  1  0
  3  4  2  3
  4  7  1  0
  4  8  1  0
  9 10  1  0
  9 12  1  0
  9 13  1  0
  9 14  1  0
 10 11  1  0
 10 15  1  0
 10 16  1  0
 11 17  1  0
M  RAD  2   1   2  11   2
M  END
>  <reaction>  (23) 
rmg_rxn_15567

>  <mol_properties>  (23) 
{"0": {"label": "*3", "atom_type": "Cs"}, "1": {"label": "*4", "atom_type": "O2s"}, "9": {"label": "*0", "atom_type": "Cs"}, "10": {"label": "*1", "atom_type": "N3s"}, "16": {"label": "*2", "atom_type": "H0"}}

>  <type>  (23) 
unop_19

>  <geom_source>  (23) 
gaussian_log

$$$$
