
     RDKit          3D

  8  7  0  0  0  0  0  0  0  0999 V2000
    0.9548    0.1194   -0.0790 C   0  0  0  0  0  0  0  0  0  0  0  0
   -0.4838   -0.2649    0.0193 C   0  0  0  0  0  0  0  0  0  0  0  0
   -0.8933   -1.1081    0.8664 N   0  0  0  0  0  0  0  0  0  0  0  0
    1.3360   -0.0983   -1.0800 H   0  0  0  0  0  0  0  0  0  0  0  0
    1.0698    1.1948    0.0786 H   0  0  0  0  0  0  0  0  0  0  0  0
    1.5426   -0.4219    0.6602 H   0  0  0  0  0  0  0  0  0  0  0  0
   -1.1575    0.2324   -0.6905 H   0  0  0  0  0  0  0  0  0  0  0  0
   -1.8989   -1.2455    0.7886 H   0  0  0  0  0  0  0  0  0  0  0  0
  1  2  1  0
  1  4  1  0
  1  5  1  0
  1  6  1  0
  2  3  2  3
  2  7  1  0
  3  8  1  0
M  END
>  <reaction>  (1) 
rmg_rxn_16741

>  <mol_properties>  (1) 
{"2": {"label": "donator", "atom_type": "N3d"}, "7": {"label": "d_hydrogen", "atom_type": "H0"}}

>  <type>  (1) 
r1h

$$$$

     RDKit          3D

  4  3  0  0  0  0  0  0  0  0999 V2000
    0.0000    0.0000    0.0000 C   0  0  0  0  0  3  0  0  0  0  0  0
    1.0638   -0.1747    0.0540 H   0  0  0  0  0  0  0  0  0  0  0  0
   -0.6833   -0.8351   -0.0280 H   0  0  0  0  0  0  0  0  0  0  0  0
   -0.3805    1.0098   -0.0260 H   0  0  0  0  0  0  0  0  0  0  0  0
  1  2  1  0
  1  3  1  0
  1  4  1  0
M  RAD  1   1   2
M  END
>  <reaction>  (2) 
rmg_rxn_16741

>  <mol_properties>  (2) 
{"0": {"label": "acceptor", "atom_type": "Cs"}}

>  <type>  (2) 
r2

$$$$

     RDKit          3D

  5  4  0  0  0  0  0  0  0  0999 V2000
    0.0000    0.0000    0.0000 C   0  0  0  0  0  0  0  0  0  0  0  0
   -0.6486   -0.7720   -0.4113 H   0  0  0  0  0  0  0  0  0  0  0  0
   -0.3482    0.9787   -0.3267 H   0  0  0  0  0  0  0  0  0  0  0  0
   -0.0223   -0.0487    1.0876 H   0  0  0  0  0  0  0  0  0  0  0  0
    1.0191   -0.1580   -0.3496 H   0  0  0  0  0  0  0  0  0  0  0  0
  1  2  1  0
  1  3  1  0
  1  4  1  0
  1  5  1  0
M  END
>  <reaction>  (3) 
rmg_rxn_16741

>  <mol_properties>  (3) 
{"0": {"label": "acceptor", "atom_type": "Cs"}, "4": {"label": "a_hydrogen", "atom_type": "H0"}}

>  <type>  (3) 
r2h

$$$$

     RDKit          3D

 12 10  0  0  0  0  0  0  0  0999 V2000
    0.1618    0.0377    2.4876 C   0  0  0  0  0  3  0  0  0  0  0  0
   -0.1740    1.0697    2.4649 H   0  0  0  0  0  0  0  0  0  0  0  0
   -0.6300   -0.6933    2.6181 H   0  0  0  0  0  0  0  0  0  0  0  0
    1.0402   -0.1363    3.1006 H   0  0  0  0  0  0  0  0  0  0  0  0
   -0.1676   -0.2783   -2.1283 C   0  0  0  0  0  0  0  0  0  0  0  0
   -0.1403   -0.1557   -0.6364 C   0  0  0  0  0  0  0  0  0  0  0  0
    0.9022   -0.3672    0.0333 N   0  0  0  0  0  0  0  0  0  0  0  0
   -0.9071   -1.0249   -2.4274 H   0  0  0  0  0  0  0  0  0  0  0  0
   -0.4681    0.6724   -2.5749 H   0  0  0  0  0  0  0  0  0  0  0  0
    0.8114   -0.5645   -2.5082 H   0  0  0  0  0  0  0  0  0  0  0  0
   -1.0863    0.1305   -0.1585 H   0  0  0  0  0  0  0  0  0  0  0  0
    0.6577   -0.2038    1.1856 H   0  0  0  0  0  0  0  0  0  0  0  0
  1  2  1  0
  1  3  1  0
  1  4  1  0
  5  6  1  0
  5  8  1  0
  5  9  1  0
  5 10  1  0
  6  7  2  3
  6 11  1  0
  7 12  1  0
M  RAD  1   1   2
M  END
>  <reaction>  (4) 
rmg_rxn_16741

>  <mol_properties>  (4) 
{"0": {"label": "*3", "atom_type": "Cs"}, "1": {"label": "*4", "atom_type": "H0"}, "5": {"label": "*0", "atom_type": "Cd"}, "6": {"label": "*1", "atom_type": "N3d"}, "11": {"label": "*2", "atom_type": "H0"}}

>  <type>  (4) 
ts

$$$$

     RDKit          3D

 12 10  0  0  0  0  0  0  0  0999 V2000
    2.1180    0.4130   -0.0001 C   0  0  0  0  0  3  0  0  0  0  0  0
    2.9633   -0.2574   -0.0057 H   0  0  0  0  0  0  0  0  0  0  0  0
    2.0790    1.0081    0.9001 H   0  0  0  0  0  0  0  0  0  0  0  0
    2.0730    1.0153   -0.8953 H   0  0  0  0  0  0  0  0  0  0  0  0
   -1.3268    0.9780    0.0001 C   0  0  0  0  0  0  0  0  0  0  0  0
   -1.0289   -0.4918   -0.0003 C   0  0  0  0  0  0  0  0  0  0  0  0
    0.0577   -1.0816    0.0003 N   0  0  0  0  0  0  0  0  0  0  0  0
   -1.9186    1.2251    0.8802 H   0  0  0  0  0  0  0  0  0  0  0  0
   -0.4103    1.5614    0.0019 H   0  0  0  0  0  0  0  0  0  0  0  0
   -1.9158    1.2261   -0.8815 H   0  0  0  0  0  0  0  0  0  0  0  0
   -1.9314   -1.1163   -0.0012 H   0  0  0  0  0  0  0  0  0  0  0  0
    1.0919   -0.3468    0.0006 H   0  0  0  0  0  0  0  0  0  0  0  0
  1  2  1  0
  1  3  1  0
  1  4  1  0
  5  6  1  0
  5  8  1  0
  5  9  1  0
  5 10  1  0
  6  7  2  3
  6 11  1  0
  7 12  1  0
M  RAD  1   1   2
M  END
>  <reaction>  (5) 
rmg_rxn_16741

>  <mol_properties>  (5) 
{"0": {"label": "*3", "atom_type": "Cs"}, "1": {"label": "*4", "atom_type": "H0"}, "5": {"label": "*0", "atom_type": "Cd"}, "6": {"label": "*1", "atom_type": "N3d"}, "11": {"label": "*2", "atom_type": "H0"}}

>  <type>  (5) 
unop_1

>  <geom_source>  (5) 
crest_best.xyz

$$$$

     RDKit          3D

 12 10  0  0  0  0  0  0  0  0999 V2000
    0.0020    0.1766    2.5188 C   0  0  0  0  0  3  0  0  0  0  0  0
    0.8911    0.6123    2.9720 H   0  0  0  0  0  0  0  0  0  0  0  0
   -0.6834    1.0226    2.5016 H   0  0  0  0  0  0  0  0  0  0  0  0
   -0.3173   -0.5338    3.2798 H   0  0  0  0  0  0  0  0  0  0  0  0
    0.0020   -0.4196   -2.1241 C   0  0  0  0  0  0  0  0  0  0  0  0
    0.0020   -0.4196   -0.6318 C   0  0  0  0  0  0  0  0  0  0  0  0
    0.0020    0.6530    0.0359 N   0  0  0  0  0  0  0  0  0  0  0  0
    0.8803   -0.9496   -2.5016 H   0  0  0  0  0  0  0  0  0  0  0  0
   -0.8763   -0.9496   -2.5016 H   0  0  0  0  0  0  0  0  0  0  0  0
    0.0020    0.6010   -2.5027 H   0  0  0  0  0  0  0  0  0  0  0  0
    0.0020   -1.4093   -0.1572 H   0  0  0  0  0  0  0  0  0  0  0  0
    0.0020    0.4228    1.2355 H   0  0  0  0  0  0  0  0  0  0  0  0
  1  2  1  0
  1  3  1  0
  1  4  1  0
  5  6  1  0
  5  8  1  0
  5  9  1  0
  5 10  1  0
  6  7  2  3
  6 11  1  0
  7 12  1  0
M  RAD  1   1   2
M  END
>  <reaction>  (6) 
rmg_rxn_16741

>  <mol_properties>  (6) 
{"0": {"label": "*3", "atom_type": "Cs"}, "1": {"label": "*4", "atom_type": "H0"}, "5": {"label": "*0", "atom_type": "Cd"}, "6": {"label": "*1", "atom_type": "N3d"}, "11": {"label": "*2", "atom_type": "H0"}}

>  <type>  (6) 
unop_2

>  <geom_source>  (6) 
Heuristics

$$$$

     RDKit          3D

 12 10  0  0  0  0  0  0  0  0999 V2000
   -0.0003    0.1833    2.5320 C   0  0  0  0  0  3  0  0  0  0  0  0
    0.5131   -0.7583    2.7209 H   0  0  0  0  0  0  0  0  0  0  0  0
    0.5287    1.1326    2.4631 H   0  0  0  0  0  0  0  0  0  0  0  0
   -1.0268    0.3619    2.8485 H   0  0  0  0  0  0  0  0  0  0  0  0
   -0.0003   -0.4129   -2.1110 C   0  0  0  0  0  0  0  0  0  0  0  0
   -0.0003   -0.4129   -0.6186 C   0  0  0  0  0  0  0  0  0  0  0  0
   -0.0003    0.6597    0.0491 N   0  0  0  0  0  0  0  0  0  0  0  0
    0.8780   -0.9429   -2.4884 H   0  0  0  0  0  0  0  0  0  0  0  0
   -0.8785   -0.9429   -2.4884 H   0  0  0  0  0  0  0  0  0  0  0  0
   -0.0003    0.6077   -2.4895 H   0  0  0  0  0  0  0  0  0  0  0  0
   -0.0003   -1.4026   -0.1440 H   0  0  0  0  0  0  0  0  0  0  0  0
   -0.0003    0.4295    1.2487 H   0  0  0  0  0  0  0  0  0  0  0  0
  1  2  1  0
  1  3  1  0
  1  4  1  0
  5  6  1  0
  5  8  1  0
  5  9  1  0
  5 10  1  0
  6  7  2  3
  6 11  1  0
  7 12  1  0
M  RAD  1   1   2
M  END
>  <reaction>  (7) 
rmg_rxn_16741

>  <mol_properties>  (7) 
{"0": {"label": "*3", "atom_type": "Cs"}, "1": {"label": "*4", "atom_type": "H0"}, "5": {"label": "*0", "atom_type": "Cd"}, "6": {"label": "*1", "atom_type": "N3d"}, "11": {"label": "*2", "atom_type": "H0"}}

>  <type>  (7) 
unop_3

>  <geom_source>  (7) 
Heuristics

$$$$

     RDKit          3D

 12 10  0  0  0  0  0  0  0  0999 V2000
    0.0040    0.1779    2.5137 C   0  0  0  0  0  3  0  0  0  0  0  0
    0.5174    0.9827    3.0377 H   0  0  0  0  0  0  0  0  0  0  0  0
   -0.9798    0.6025    2.7072 H   0  0  0  0  0  0  0  0  0  0  0  0
    0.2420   -0.5531    3.2850 H   0  0  0  0  0  0  0  0  0  0  0  0
    0.0040   -0.4183   -2.1292 C   0  0  0  0  0  0  0  0  0  0  0  0
    0.0040   -0.4183   -0.6369 C   0  0  0  0  0  0  0  0  0  0  0  0
    0.0040    0.6543    0.0308 N   0  0  0  0  0  0  0  0  0  0  0  0
    0.8823   -0.9483   -2.5066 H   0  0  0  0  0  0  0  0  0  0  0  0
   -0.8742   -0.9483   -2.5066 H   0  0  0  0  0  0  0  0  0  0  0  0
    0.0040    0.6023   -2.5078 H   0  0  0  0  0  0  0  0  0  0  0  0
    0.0040   -1.4080   -0.1622 H   0  0  0  0  0  0  0  0  0  0  0  0
    0.0040    0.4241    1.2304 H   0  0  0  0  0  0  0  0  0  0  0  0
  1  2  1  0
  1  3  1  0
  1  4  1  0
  5  6  1  0
  5  8  1  0
  5  9  1  0
  5 10  1  0
  6  7  2  3
  6 11  1  0
  7 12  1  0
M  RAD  1   1   2
M  END
>  <reaction>  (8) 
rmg_rxn_16741

>  <mol_properties>  (8) 
{"0": {"label": "*3", "atom_type": "Cs"}, "1": {"label": "*4", "atom_type": "H0"}, "5": {"label": "*0", "atom_type": "Cd"}, "6": {"label": "*1", "atom_type": "N3d"}, "11": {"label": "*2", "atom_type": "H0"}}

>  <type>  (8) 
unop_4

>  <geom_source>  (8) 
Heuristics

$$$$

     RDKit          3D

 12 10  0  0  0  0  0  0  0  0999 V2000
    0.0009    0.1816    2.5284 C   0  0  0  0  0  3  0  0  0  0  0  0
   -0.8882   -0.3909    2.7881 H   0  0  0  0  0  0  0  0  0  0  0  0
    0.9332   -0.0406    3.0453 H   0  0  0  0  0  0  0  0  0  0  0  0
   -0.0930    1.2584    2.3958 H   0  0  0  0  0  0  0  0  0  0  0  0
    0.0009   -0.4146   -2.1146 C   0  0  0  0  0  0  0  0  0  0  0  0
    0.0009   -0.4146   -0.6222 C   0  0  0  0  0  0  0  0  0  0  0  0
    0.0009    0.6580    0.0455 N   0  0  0  0  0  0  0  0  0  0  0  0
    0.8791   -0.9446   -2.4920 H   0  0  0  0  0  0  0  0  0  0  0  0
   -0.8774   -0.9446   -2.4920 H   0  0  0  0  0  0  0  0  0  0  0  0
    0.0009    0.6060   -2.4931 H   0  0  0  0  0  0  0  0  0  0  0  0
    0.0009   -1.4043   -0.1476 H   0  0  0  0  0  0  0  0  0  0  0  0
    0.0009    0.4279    1.2451 H   0  0  0  0  0  0  0  0  0  0  0  0
  1  2  1  0
  1  3  1  0
  1  4  1  0
  5  6  1  0
  5  8  1  0
  5  9  1  0
  5 10  1  0
  6  7  2  3
  6 11  1  0
  7 12  1  0
M  RAD  1   1   2
M  END
>  <reaction>  (9) 
rmg_rxn_16741

>  <mol_properties>  (9) 
{"0": {"label": "*3", "atom_type": "Cs"}, "1": {"label": "*4", "atom_type": "H0"}, "5": {"label": "*0", "atom_type": "Cd"}, "6": {"label": "*1", "atom_type": "N3d"}, "11": {"label": "*2", "atom_type": "H0"}}

>  <type>  (9) 
unop_5

>  <geom_source>  (9) 
Heuristics

$$$$

     RDKit          3D

 12 10  0  0  0  0  0  0  0  0999 V2000
   -0.0000    0.1805    2.5108 C   0  0  0  0  0  3  0  0  0  0  0  0
   -0.0000    1.1204    3.0607 H   0  0  0  0  0  0  0  0  0  0  0  0
   -0.8891   -0.1163    3.0650 H   0  0  0  0  0  0  0  0  0  0  0  0
    0.8891   -0.1163    3.0650 H   0  0  0  0  0  0  0  0  0  0  0  0
    0.0000   -0.4157   -2.1322 C   0  0  0  0  0  0  0  0  0  0  0  0
    0.0000   -0.4157   -0.6398 C   0  0  0  0  0  0  0  0  0  0  0  0
    0.0000    0.6569    0.0279 N   0  0  0  0  0  0  0  0  0  0  0  0
    0.8783   -0.9457   -2.5096 H   0  0  0  0  0  0  0  0  0  0  0  0
   -0.8783   -0.9457   -2.5096 H   0  0  0  0  0  0  0  0  0  0  0  0
   -0.0000    0.6049   -2.5107 H   0  0  0  0  0  0  0  0  0  0  0  0
    0.0000   -1.4054   -0.1652 H   0  0  0  0  0  0  0  0  0  0  0  0
   -0.0000    0.4267    1.2275 H   0  0  0  0  0  0  0  0  0  0  0  0
  1  2  1  0
  1  3  1  0
  1  4  1  0
  5  6  1  0
  5  8  1  0
  5  9  1  0
  5 10  1  0
  6  7  2  3
  6 11  1  0
  7 12  1  0
M  RAD  1   1   2
M  END
>  <reaction>  (10) 
rmg_rxn_16741

>  <mol_properties>  (10) 
{"0": {"label": "*3", "atom_type": "Cs"}, "1": {"label": "*4", "atom_type": "H0"}, "5": {"label": "*0", "atom_type": "Cd"}, "6": {"label": "*1", "atom_type": "N3d"}, "11": {"label": "*2", "atom_type": "H0"}}

>  <type>  (10) 
unop_6

>  <geom_source>  (10) 
Heuristics

$$$$

     RDKit          3D

 12 10  0  0  0  0  0  0  0  0999 V2000
    0.0004    0.1787    2.5238 C   0  0  0  0  0  3  0  0  0  0  0  0
   -1.0263    0.1103    2.8802 H   0  0  0  0  0  0  0  0  0  0  0  0
    0.6890   -0.3400    3.1889 H   0  0  0  0  0  0  0  0  0  0  0  0
    0.3155    1.2150    2.4115 H   0  0  0  0  0  0  0  0  0  0  0  0
    0.0004   -0.4175   -2.1192 C   0  0  0  0  0  0  0  0  0  0  0  0
    0.0004   -0.4175   -0.6268 C   0  0  0  0  0  0  0  0  0  0  0  0
    0.0004    0.6551    0.0409 N   0  0  0  0  0  0  0  0  0  0  0  0
    0.8787   -0.9475   -2.4966 H   0  0  0  0  0  0  0  0  0  0  0  0
   -0.8779   -0.9475   -2.4966 H   0  0  0  0  0  0  0  0  0  0  0  0
    0.0004    0.6031   -2.4977 H   0  0  0  0  0  0  0  0  0  0  0  0
    0.0004   -1.4072   -0.1522 H   0  0  0  0  0  0  0  0  0  0  0  0
    0.0004    0.4250    1.2405 H   0  0  0  0  0  0  0  0  0  0  0  0
  1  2  1  0
  1  3  1  0
  1  4  1  0
  5  6  1  0
  5  8  1  0
  5  9  1  0
  5 10  1  0
  6  7  2  3
  6 11  1  0
  7 12  1  0
M  RAD  1   1   2
M  END
>  <reaction>  (11) 
rmg_rxn_16741

>  <mol_properties>  (11) 
{"0": {"label": "*3", "atom_type": "Cs"}, "1": {"label": "*4", "atom_type": "H0"}, "5": {"label": "*0", "atom_type": "Cd"}, "6": {"label": "*1", "atom_type": "N3d"}, "11": {"label": "*2", "atom_type": "H0"}}

>  <type>  (11) 
unop_7

>  <geom_source>  (11) 
Heuristics

$$$$

     RDKit          3D

 12 10  0  0  0  0  0  0  0  0999 V2000
   -0.0020    0.1766    2.5188 C   0  0  0  0  0  3  0  0  0  0  0  0
   -0.8911    0.6123    2.9720 H   0  0  0  0  0  0  0  0  0  0  0  0
    0.3173   -0.5338    3.2798 H   0  0  0  0  0  0  0  0  0  0  0  0
    0.6834    1.0226    2.5016 H   0  0  0  0  0  0  0  0  0  0  0  0
   -0.0020   -0.4196   -2.1241 C   0  0  0  0  0  0  0  0  0  0  0  0
   -0.0020   -0.4196   -0.6318 C   0  0  0  0  0  0  0  0  0  0  0  0
   -0.0020    0.6530    0.0359 N   0  0  0  0  0  0  0  0  0  0  0  0
    0.8763   -0.9496   -2.5016 H   0  0  0  0  0  0  0  0  0  0  0  0
   -0.8803   -0.9496   -2.5016 H   0  0  0  0  0  0  0  0  0  0  0  0
   -0.0020    0.6010   -2.5027 H   0  0  0  0  0  0  0  0  0  0  0  0
   -0.0020   -1.4093   -0.1572 H   0  0  0  0  0  0  0  0  0  0  0  0
   -0.0020    0.4228    1.2355 H   0  0  0  0  0  0  0  0  0  0  0  0
  1  2  1  0
  1  3  1  0
  1  4  1  0
  5  6  1  0
  5  8  1  0
  5  9  1  0
  5 10  1  0
  6  7  2  3
  6 11  1  0
  7 12  1  0
M  RAD  1   1   2
M  END
>  <reaction>  (12) 
rmg_rxn_16741

>  <mol_properties>  (12) 
{"0": {"label": "*3", "atom_type": "Cs"}, "1": {"label": "*4", "atom_type": "H0"}, "5": {"label": "*0", "atom_type": "Cd"}, "6": {"label": "*1", "atom_type": "N3d"}, "11": {"label": "*2", "atom_type": "H0"}}

>  <type>  (12) 
unop_8

>  <geom_source>  (12) 
Heuristics

$$$$

     RDKit          3D

 12 10  0  0  0  0  0  0  0  0999 V2000
   -0.0004    0.1787    2.5238 C   0  0  0  0  0  3  0  0  0  0  0  0
    1.0263    0.1103    2.8802 H   0  0  0  0  0  0  0  0  0  0  0  0
   -0.3155    1.2150    2.4115 H   0  0  0  0  0  0  0  0  0  0  0  0
   -0.6890   -0.3400    3.1889 H   0  0  0  0  0  0  0  0  0  0  0  0
   -0.0004   -0.4175   -2.1192 C   0  0  0  0  0  0  0  0  0  0  0  0
   -0.0004   -0.4175   -0.6268 C   0  0  0  0  0  0  0  0  0  0  0  0
   -0.0004    0.6551    0.0409 N   0  0  0  0  0  0  0  0  0  0  0  0
    0.8779   -0.9475   -2.4966 H   0  0  0  0  0  0  0  0  0  0  0  0
   -0.8787   -0.9475   -2.4966 H   0  0  0  0  0  0  0  0  0  0  0  0
   -0.0004    0.6031   -2.4977 H   0  0  0  0  0  0  0  0  0  0  0  0
   -0.0004   -1.4072   -0.1522 H   0  0  0  0  0  0  0  0  0  0  0  0
   -0.0004    0.4250    1.2405 H   0  0  0  0  0  0  0  0  0  0  0  0
  1  2  1  0
  1  3  1  0
  1  4  1  0
  5  6  1  0
  5  8  1  0
  5  9  1  0
  5 10  1  0
  6  7  2  3
  6 11  1  0
  7 12  1  0
M  RAD  1   1   2
M  END
>  <reaction>  (13) 
rmg_rxn_16741

>  <mol_properties>  (13) 
{"0": {"label": "*3", "atom_type": "Cs"}, "1": {"label": "*4", "atom_type": "H0"}, "5": {"label": "*0", "atom_type": "Cd"}, "6": {"label": "*1", "atom_type": "N3d"}, "11": {"label": "*2", "atom_type": "H0"}}

>  <type>  (13) 
unop_9

>  <geom_source>  (13) 
Heuristics

$$$$

     RDKit          3D

 12 10  0  0  0  0  0  0  0  0999 V2000
    2.1180    0.4130   -0.0001 C   0  0  0  0  0  3  0  0  0  0  0  0
    2.9633   -0.2574   -0.0057 H   0  0  0  0  0  0  0  0  0  0  0  0
    2.0790    1.0081    0.9001 H   0  0  0  0  0  0  0  0  0  0  0  0
    2.0730    1.0153   -0.8953 H   0  0  0  0  0  0  0  0  0  0  0  0
   -1.3268    0.9780    0.0001 C   0  0  0  0  0  0  0  0  0  0  0  0
   -1.0289   -0.4918   -0.0003 C   0  0  0  0  0  0  0  0  0  0  0  0
    0.0577   -1.0816    0.0003 N   0  0  0  0  0  0  0  0  0  0  0  0
   -1.9186    1.2251    0.8802 H   0  0  0  0  0  0  0  0  0  0  0  0
   -0.4103    1.5614    0.0019 H   0  0  0  0  0  0  0  0  0  0  0  0
   -1.9158    1.2261   -0.8815 H   0  0  0  0  0  0  0  0  0  0  0  0
   -1.9314   -1.1163   -0.0012 H   0  0  0  0  0  0  0  0  0  0  0  0
    1.0919   -0.3468    0.0006 H   0  0  0  0  0  0  0  0  0  0  0  0
  1  2  1  0
  1  3  1  0
  1  4  1  0
  5  6  1  0
  5  8  1  0
  5  9  1  0
  5 10  1  0
  6  7  2  3
  6 11  1  0
  7 12  1  0
M  RAD  1   1   2
M  END
>  <reaction>  (14) 
rmg_rxn_16741

>  <mol_properties>  (14) 
{"0": {"label": "*3", "atom_type": "Cs"}, "1": {"label": "*4", "atom_type": "H0"}, "5": {"label": "*0", "atom_type": "Cd"}, "6": {"label": "*1", "atom_type": "N3d"}, "11": {"label": "*2", "atom_type": "H0"}}

>  <type>  (14) 
unop_10

>  <geom_source>  (14) 
Heuristics

$$$$

     RDKit          3D

 12 10  0  0  0  0  0  0  0  0999 V2000
    0.0003    0.1833    2.5320 C   0  0  0  0  0  3  0  0  0  0  0  0
   -0.5131   -0.7583    2.7209 H   0  0  0  0  0  0  0  0  0  0  0  0
    1.0268    0.3619    2.8485 H   0  0  0  0  0  0  0  0  0  0  0  0
   -0.5287    1.1326    2.4631 H   0  0  0  0  0  0  0  0  0  0  0  0
    0.0003   -0.4129   -2.1110 C   0  0  0  0  0  0  0  0  0  0  0  0
    0.0003   -0.4129   -0.6186 C   0  0  0  0  0  0  0  0  0  0  0  0
    0.0003    0.6597    0.0491 N   0  0  0  0  0  0  0  0  0  0  0  0
    0.8785   -0.9429   -2.4884 H   0  0  0  0  0  0  0  0  0  0  0  0
   -0.8780   -0.9429   -2.4884 H   0  0  0  0  0  0  0  0  0  0  0  0
    0.0003    0.6077   -2.4895 H   0  0  0  0  0  0  0  0  0  0  0  0
    0.0003   -1.4026   -0.1440 H   0  0  0  0  0  0  0  0  0  0  0  0
    0.0003    0.4295    1.2487 H   0  0  0  0  0  0  0  0  0  0  0  0
  1  2  1  0
  1  3  1  0
  1  4  1  0
  5  6  1  0
  5  8  1  0
  5  9  1  0
  5 10  1  0
  6  7  2  3
  6 11  1  0
  7 12  1  0
M  RAD  1   1   2
M  END
>  <reaction>  (15) 
rmg_rxn_16741

>  <mol_properties>  (15) 
{"0": {"label": "*3", "atom_type": "Cs"}, "1": {"label": "*4", "atom_type": "H0"}, "5": {"label": "*0", "atom_type": "Cd"}, "6": {"label": "*1", "atom_type": "N3d"}, "11": {"label": "*2", "atom_type": "H0"}}

>  <type>  (15) 
unop_11

>  <geom_source>  (15) 
Heuristics

$$$$

     RDKit          3D

 12 10  0  0  0  0  0  0  0  0999 V2000
   -0.0009    0.1816    2.5284 C   0  0  0  0  0  3  0  0  0  0  0  0
    0.8882   -0.3909    2.7881 H   0  0  0  0  0  0  0  0  0  0  0  0
    0.0930    1.2584    2.3958 H   0  0  0  0  0  0  0  0  0  0  0  0
   -0.9332   -0.0406    3.0453 H   0  0  0  0  0  0  0  0  0  0  0  0
   -0.0009   -0.4146   -2.1146 C   0  0  0  0  0  0  0  0  0  0  0  0
   -0.0009   -0.4146   -0.6222 C   0  0  0  0  0  0  0  0  0  0  0  0
   -0.0009    0.6580    0.0455 N   0  0  0  0  0  0  0  0  0  0  0  0
    0.8774   -0.9446   -2.4920 H   0  0  0  0  0  0  0  0  0  0  0  0
   -0.8791   -0.9446   -2.4920 H   0  0  0  0  0  0  0  0  0  0  0  0
   -0.0009    0.6060   -2.4931 H   0  0  0  0  0  0  0  0  0  0  0  0
   -0.0009   -1.4043   -0.1476 H   0  0  0  0  0  0  0  0  0  0  0  0
   -0.0009    0.4279    1.2451 H   0  0  0  0  0  0  0  0  0  0  0  0
  1  2  1  0
  1  3  1  0
  1  4  1  0
  5  6  1  0
  5  8  1  0
  5  9  1  0
  5 10  1  0
  6  7  2  3
  6 11  1  0
  7 12  1  0
M  RAD  1   1   2
M  END
>  <reaction>  (16) 
rmg_rxn_16741

>  <mol_properties>  (16) 
{"0": {"label": "*3", "atom_type": "Cs"}, "1": {"label": "*4", "atom_type": "H0"}, "5": {"label": "*0", "atom_type": "Cd"}, "6": {"label": "*1", "atom_type": "N3d"}, "11": {"label": "*2", "atom_type": "H0"}}

>  <type>  (16) 
unop_12

>  <geom_source>  (16) 
Heuristics

$$$$

     RDKit          3D

 12 10  0  0  0  0  0  0  0  0999 V2000
   -0.0040    0.1779    2.5137 C   0  0  0  0  0  3  0  0  0  0  0  0
   -0.5174    0.9827    3.0377 H   0  0  0  0  0  0  0  0  0  0  0  0
   -0.2420   -0.5531    3.2850 H   0  0  0  0  0  0  0  0  0  0  0  0
    0.9798    0.6025    2.7072 H   0  0  0  0  0  0  0  0  0  0  0  0
   -0.0040   -0.4183   -2.1292 C   0  0  0  0  0  0  0  0  0  0  0  0
   -0.0040   -0.4183   -0.6369 C   0  0  0  0  0  0  0  0  0  0  0  0
   -0.0040    0.6543    0.0308 N   0  0  0  0  0  0  0  0  0  0  0  0
    0.8742   -0.9483   -2.5066 H   0  0  0  0  0  0  0  0  0  0  0  0
   -0.8823   -0.9483   -2.5066 H   0  0  0  0  0  0  0  0  0  0  0  0
   -0.0040    0.6023   -2.5078 H   0  0  0  0  0  0  0  0  0  0  0  0
   -0.0040   -1.4080   -0.1622 H   0  0  0  0  0  0  0  0  0  0  0  0
   -0.0040    0.4241    1.2304 H   0  0  0  0  0  0  0  0  0  0  0  0
  1  2  1  0
  1  3  1  0
  1  4  1  0
  5  6  1  0
  5  8  1  0
  5  9  1  0
  5 10  1  0
  6  7  2  3
  6 11  1  0
  7 12  1  0
M  RAD  1   1   2
M  END
>  <reaction>  (17) 
rmg_rxn_16741

>  <mol_properties>  (17) 
{"0": {"label": "*3", "atom_type": "Cs"}, "1": {"label": "*4", "atom_type": "H0"}, "5": {"label": "*0", "atom_type": "Cd"}, "6": {"label": "*1", "atom_type": "N3d"}, "11": {"label": "*2", "atom_type": "H0"}}

>  <type>  (17) 
unop_13

>  <geom_source>  (17) 
Heuristics

$$$$

     RDKit          3D

 12 10  0  0  0  0  0  0  0  0999 V2000
   -0.0000    0.1836    2.5334 C   0  0  0  0  0  3  0  0  0  0  0  0
   -0.0000   -0.8930    2.6964 H   0  0  0  0  0  0  0  0  0  0  0  0
    0.8891    0.8051    2.6285 H   0  0  0  0  0  0  0  0  0  0  0  0
   -0.8891    0.8051    2.6285 H   0  0  0  0  0  0  0  0  0  0  0  0
    0.0000   -0.4126   -2.1095 C   0  0  0  0  0  0  0  0  0  0  0  0
    0.0000   -0.4126   -0.6172 C   0  0  0  0  0  0  0  0  0  0  0  0
    0.0000    0.6600    0.0505 N   0  0  0  0  0  0  0  0  0  0  0  0
    0.8783   -0.9426   -2.4869 H   0  0  0  0  0  0  0  0  0  0  0  0
   -0.8783   -0.9426   -2.4869 H   0  0  0  0  0  0  0  0  0  0  0  0
   -0.0000    0.6080   -2.4881 H   0  0  0  0  0  0  0  0  0  0  0  0
    0.0000   -1.4023   -0.1425 H   0  0  0  0  0  0  0  0  0  0  0  0
   -0.0000    0.4299    1.2501 H   0  0  0  0  0  0  0  0  0  0  0  0
  1  2  1  0
  1  3  1  0
  1  4  1  0
  5  6  1  0
  5  8  1  0
  5  9  1  0
  5 10  1  0
  6  7  2  3
  6 11  1  0
  7 12  1  0
M  RAD  1   1   2
M  END
>  <reaction>  (18) 
rmg_rxn_16741

>  <mol_properties>  (18) 
{"0": {"label": "*3", "atom_type": "Cs"}, "1": {"label": "*4", "atom_type": "H0"}, "5": {"label": "*0", "atom_type": "Cd"}, "6": {"label": "*1", "atom_type": "N3d"}, "11": {"label": "*2", "atom_type": "H0"}}

>  <type>  (18) 
unop_14

>  <geom_source>  (18) 
Heuristics

$$$$

     RDKit          3D

 12 10  0  0  0  0  0  0  0  0999 V2000
   -0.0003    0.1833    2.5320 C   0  0  0  0  0  3  0  0  0  0  0  0
    0.5131   -0.7583    2.7209 H   0  0  0  0  0  0  0  0  0  0  0  0
    0.5287    1.1326    2.4632 H   0  0  0  0  0  0  0  0  0  0  0  0
   -1.0268    0.3619    2.8485 H   0  0  0  0  0  0  0  0  0  0  0  0
   -0.0003   -0.4129   -2.1109 C   0  0  0  0  0  0  0  0  0  0  0  0
   -0.0003   -0.4129   -0.6186 C   0  0  0  0  0  0  0  0  0  0  0  0
   -0.0003    0.6597    0.0491 N   0  0  0  0  0  0  0  0  0  0  0  0
    0.8780   -0.9429   -2.4884 H   0  0  0  0  0  0  0  0  0  0  0  0
   -0.8785   -0.9429   -2.4884 H   0  0  0  0  0  0  0  0  0  0  0  0
   -0.0003    0.6077   -2.4895 H   0  0  0  0  0  0  0  0  0  0  0  0
   -0.0003   -1.4026   -0.1440 H   0  0  0  0  0  0  0  0  0  0  0  0
   -0.0003    0.4295    1.2487 H   0  0  0  0  0  0  0  0  0  0  0  0
  1  2  1  0
  1  3  1  0
  1  4  1  0
  5  6  1  0
  5  8  1  0
  5  9  1  0
  5 10  1  0
  6  7  2  3
  6 11  1  0
  7 12  1  0
M  RAD  1   1   2
M  END
>  <reaction>  (19) 
rmg_rxn_16741

>  <mol_properties>  (19) 
{"0": {"label": "*3", "atom_type": "Cs"}, "1": {"label": "*4", "atom_type": "H0"}, "5": {"label": "*0", "atom_type": "Cd"}, "6": {"label": "*1", "atom_type": "N3d"}, "11": {"label": "*2", "atom_type": "H0"}}

>  <type>  (19) 
unop_15

>  <geom_source>  (19) 
gaussian_log

$$$$
