
     RDKit          3D

  5  4  0  0  0  0  0  0  0  0999 V2000
    0.7361   -0.2872    0.4035 N   0  0  0  0  0  2  0  0  0  0  0  0
   -0.3891   -0.1505   -0.3131 N   0  0  0  0  0  0  0  0  0  0  0  0
    1.4909    0.0686   -0.1831 H   0  0  0  0  0  0  0  0  0  0  0  0
   -1.1819   -0.6340    0.0744 H   0  0  0  0  0  0  0  0  0  0  0  0
   -0.3592   -0.1189   -1.3223 H   0  0  0  0  0  0  0  0  0  0  0  0
  1  2  1  0
  1  3  1  0
  2  4  1  0
  2  5  1  0
M  RAD  1   1   2
M  END
>  <reaction>  (1) 
rmg_rxn_189

>  <mol_properties>  (1) 
{"0": {"label": "donator", "atom_type": "N3s"}, "2": {"label": "d_hydrogen", "atom_type": "H0"}}

>  <type>  (1) 
r1h

$$$$

     RDKit          3D

 13 13  0  0  0  0  0  0  0  0999 V2000
   -1.1371    0.3608    0.3110 C   0  0  0  0  0  3  0  0  0  0  0  0
   -0.0045    1.3224    0.2943 C   0  0  0  0  0  0  0  0  0  0  0  0
    1.2245    0.6965    0.6137 O   0  0  0  0  0  0  0  0  0  0  0  0
    1.3926   -0.4921   -0.0955 C   0  0  0  0  0  0  0  0  0  0  0  0
    0.4387   -1.4537    0.2351 O   0  0  0  0  0  0  0  0  0  0  0  0
   -0.8659   -1.0349   -0.1206 C   0  0  0  0  0  0  0  0  0  0  0  0
   -2.1544    0.7285    0.3341 H   0  0  0  0  0  0  0  0  0  0  0  0
   -0.1488    2.1272    1.0165 H   0  0  0  0  0  0  0  0  0  0  0  0
    0.0825    1.7949   -0.7036 H   0  0  0  0  0  0  0  0  0  0  0  0
    1.3549   -0.2872   -1.1815 H   0  0  0  0  0  0  0  0  0  0  0  0
    2.3646   -0.8956    0.1787 H   0  0  0  0  0  0  0  0  0  0  0  0
   -1.5620   -1.7401    0.3358 H   0  0  0  0  0  0  0  0  0  0  0  0
   -0.9852   -1.1268   -1.2179 H   0  0  0  0  0  0  0  0  0  0  0  0
  1  2  1  0
  1  6  1  0
  1  7  1  0
  2  3  1  0
  2  8  1  0
  2  9  1  0
  3  4  1  0
  4  5  1  0
  4 10  1  0
  4 11  1  0
  5  6  1  0
  6 12  1  0
  6 13  1  0
M  RAD  1   1   2
M  END
>  <reaction>  (2) 
rmg_rxn_189

>  <mol_properties>  (2) 
{"0": {"label": "acceptor", "atom_type": "Cs"}}

>  <type>  (2) 
r2

$$$$

     RDKit          3D

 14 14  0  0  0  0  0  0  0  0999 V2000
   -1.1778    0.2241    0.1818 C   0  0  0  0  0  0  0  0  0  0  0  0
   -0.5633   -1.1636    0.0678 C   0  0  0  0  0  0  0  0  0  0  0  0
    0.6943   -1.1996    0.7146 O   0  0  0  0  0  0  0  0  0  0  0  0
    1.5547   -0.2288    0.2011 C   0  0  0  0  0  0  0  0  0  0  0  0
    1.0729    1.0696    0.3698 O   0  0  0  0  0  0  0  0  0  0  0  0
   -0.1607    1.2493   -0.2989 C   0  0  0  0  0  0  0  0  0  0  0  0
   -2.0927    0.2866   -0.4117 H   0  0  0  0  0  0  0  0  0  0  0  0
   -1.4303    0.4248    1.2248 H   0  0  0  0  0  0  0  0  0  0  0  0
   -1.1822   -1.9235    0.5431 H   0  0  0  0  0  0  0  0  0  0  0  0
   -0.4389   -1.4347   -0.9919 H   0  0  0  0  0  0  0  0  0  0  0  0
    1.7250   -0.4207   -0.8742 H   0  0  0  0  0  0  0  0  0  0  0  0
    2.4896   -0.3010    0.7524 H   0  0  0  0  0  0  0  0  0  0  0  0
   -0.0080    1.1481   -1.3844 H   0  0  0  0  0  0  0  0  0  0  0  0
   -0.4826    2.2695   -0.0942 H   0  0  0  0  0  0  0  0  0  0  0  0
  1  2  1  0
  1  6  1  0
  1  7  1  0
  1  8  1  0
  2  3  1  0
  2  9  1  0
  2 10  1  0
  3  4  1  0
  4  5  1  0
  4 11  1  0
  4 12  1  0
  5  6  1  0
  6 13  1  0
  6 14  1  0
M  END
>  <reaction>  (3) 
rmg_rxn_189

>  <mol_properties>  (3) 
{"0": {"label": "a_hydrogen", "atom_type": "H0"}, "1": {"label": "acceptor", "atom_type": "Cs"}}

>  <type>  (3) 
r2h

$$$$

     RDKit          3D

 18 17  0  0  0  0  0  0  0  0999 V2000
   -0.1657   -2.6364   -0.8478 N   0  0  0  0  0  2  0  0  0  0  0  0
    0.9621   -2.8471   -1.5390 N   0  0  0  0  0  0  0  0  0  0  0  0
    0.0071   -1.5946   -0.3286 H   0  0  0  0  0  0  0  0  0  0  0  0
    1.0831   -3.8019   -1.8420 H   0  0  0  0  0  0  0  0  0  0  0  0
    1.8144   -2.3958   -1.2302 H   0  0  0  0  0  0  0  0  0  0  0  0
    0.3709   -0.3056    0.1750 C   0  0  0  0  0  3  0  0  0  0  0  0
    0.2313    0.6439   -0.9849 C   0  0  0  0  0  0  0  0  0  0  0  0
    0.2347    1.9845   -0.5074 O   0  0  0  0  0  0  0  0  0  0  0  0
   -0.7611    2.1754    0.4529 C   0  0  0  0  0  0  0  0  0  0  0  0
   -0.5917    1.3725    1.5821 O   0  0  0  0  0  0  0  0  0  0  0  0
   -0.6491   -0.0086    1.2411 C   0  0  0  0  0  0  0  0  0  0  0  0
    1.3880   -0.4228    0.5468 H   0  0  0  0  0  0  0  0  0  0  0  0
    1.0525    0.5617   -1.6948 H   0  0  0  0  0  0  0  0  0  0  0  0
   -0.7092    0.4488   -1.5203 H   0  0  0  0  0  0  0  0  0  0  0  0
   -1.7494    1.9728    0.0023 H   0  0  0  0  0  0  0  0  0  0  0  0
   -0.6972    3.2105    0.7812 H   0  0  0  0  0  0  0  0  0  0  0  0
   -1.6584   -0.2518    0.8783 H   0  0  0  0  0  0  0  0  0  0  0  0
   -0.4680   -0.5665    2.1576 H   0  0  0  0  0  0  0  0  0  0  0  0
  1  2  1  0
  1  3  1  0
  2  4  1  0
  2  5  1  0
  6  7  1  0
  6 11  1  0
  6 12  1  0
  7  8  1  0
  7 13  1  0
  7 14  1  0
  8  9  1  0
  9 10  1  0
  9 15  1  0
  9 16  1  0
 10 11  1  0
 11 17  1  0
 11 18  1  0
M  RAD  2   1   2   6   2
M  END
>  <reaction>  (4) 
rmg_rxn_189

>  <mol_properties>  (4) 
{"0": {"label": "*1", "atom_type": "N3s"}, "1": {"label": "*0", "atom_type": "N3s"}, "2": {"label": "*2", "atom_type": "H0"}, "5": {"label": "*3", "atom_type": "Cs"}, "6": {"label": "*4", "atom_type": "Cs"}}

>  <type>  (4) 
ts

$$$$

     RDKit          3D

 18 17  0  0  0  0  0  0  0  0999 V2000
   -0.0419   -1.9719   -1.4116 N   0  0  0  0  0  2  0  0  0  0  0  0
   -0.0419   -1.9719   -2.7526 N   0  0  0  0  0  0  0  0  0  0  0  0
   -0.0419   -0.7961   -1.0714 H   0  0  0  0  0  0  0  0  0  0  0  0
    0.1461   -2.8718   -3.1615 H   0  0  0  0  0  0  0  0  0  0  0  0
    0.3201   -1.1835   -3.2701 H   0  0  0  0  0  0  0  0  0  0  0  0
   -0.0419    0.4631   -0.7071 C   0  0  0  0  0  3  0  0  0  0  0  0
   -1.2768    0.7760    0.1257 C   0  0  0  0  0  0  0  0  0  0  0  0
   -0.9206    1.5243    1.2723 O   0  0  0  0  0  0  0  0  0  0  0  0
    0.0390    0.8564    2.0336 C   0  0  0  0  0  0  0  0  0  0  0  0
    1.2267    0.6318    1.3370 O   0  0  0  0  0  0  0  0  0  0  0  0
    1.0065   -0.1730    0.1945 C   0  0  0  0  0  0  0  0  0  0  0  0
    0.3553    1.3882   -1.1291 H   0  0  0  0  0  0  0  0  0  0  0  0
   -1.9999    1.3743   -0.4269 H   0  0  0  0  0  0  0  0  0  0  0  0
   -1.7689   -0.1586    0.4358 H   0  0  0  0  0  0  0  0  0  0  0  0
   -0.3730   -0.1098    2.3783 H   0  0  0  0  0  0  0  0  0  0  0  0
    0.2777    1.4922    2.8833 H   0  0  0  0  0  0  0  0  0  0  0  0
    0.6751   -1.1744    0.5094 H   0  0  0  0  0  0  0  0  0  0  0  0
    1.9677   -0.2747   -0.3073 H   0  0  0  0  0  0  0  0  0  0  0  0
  1  2  1  0
  1  3  1  0
  2  4  1  0
  2  5  1  0
  6  7  1  0
  6 11  1  0
  6 12  1  0
  7  8  1  0
  7 13  1  0
  7 14  1  0
  8  9  1  0
  9 10  1  0
  9 15  1  0
  9 16  1  0
 10 11  1  0
 11 17  1  0
 11 18  1  0
M  RAD  2   1   2   6   2
M  END
>  <reaction>  (5) 
rmg_rxn_189

>  <mol_properties>  (5) 
{"0": {"label": "*1", "atom_type": "N3s"}, "1": {"label": "*0", "atom_type": "N3s"}, "2": {"label": "*2", "atom_type": "H0"}, "5": {"label": "*3", "atom_type": "Cs"}, "6": {"label": "*4", "atom_type": "Cs"}}

>  <type>  (5) 
unop_1

>  <geom_source>  (5) 
Heuristics

$$$$

     RDKit          3D

 18 17  0  0  0  0  0  0  0  0999 V2000
    0.7957   -2.5036   -0.5858 N   0  0  0  0  0  2  0  0  0  0  0  0
    0.7957   -2.5036   -1.9268 N   0  0  0  0  0  0  0  0  0  0  0  0
    0.7957   -1.3279   -0.2456 H   0  0  0  0  0  0  0  0  0  0  0  0
    0.9836   -3.4036   -2.3357 H   0  0  0  0  0  0  0  0  0  0  0  0
    1.1576   -1.7152   -2.4443 H   0  0  0  0  0  0  0  0  0  0  0  0
    0.7957   -0.0687    0.1188 C   0  0  0  0  0  3  0  0  0  0  0  0
    0.0827    0.7857   -0.9196 C   0  0  0  0  0  0  0  0  0  0  0  0
   -0.4136    1.9699   -0.3258 O   0  0  0  0  0  0  0  0  0  0  0  0
   -1.2565    1.6820    0.7480 C   0  0  0  0  0  0  0  0  0  0  0  0
   -0.6165    0.9791    1.7692 O   0  0  0  0  0  0  0  0  0  0  0  0
   -0.1331   -0.2679    1.3080 C   0  0  0  0  0  0  0  0  0  0  0  0
    1.7028    0.4418    0.4480 H   0  0  0  0  0  0  0  0  0  0  0  0
    0.7513    1.0938   -1.7222 H   0  0  0  0  0  0  0  0  0  0  0  0
   -0.7510    0.2208   -1.3642 H   0  0  0  0  0  0  0  0  0  0  0  0
   -2.1237    1.0984    0.3880 H   0  0  0  0  0  0  0  0  0  0  0  0
   -1.5847    2.6314    1.1653 H   0  0  0  0  0  0  0  0  0  0  0  0
   -0.9820   -0.9069    1.0202 H   0  0  0  0  0  0  0  0  0  0  0  0
    0.3764   -0.7369    2.1487 H   0  0  0  0  0  0  0  0  0  0  0  0
  1  2  1  0
  1  3  1  0
  2  4  1  0
  2  5  1  0
  6  7  1  0
  6 11  1  0
  6 12  1  0
  7  8  1  0
  7 13  1  0
  7 14  1  0
  8  9  1  0
  9 10  1  0
  9 15  1  0
  9 16  1  0
 10 11  1  0
 11 17  1  0
 11 18  1  0
M  RAD  2   1   2   6   2
M  END
>  <reaction>  (6) 
rmg_rxn_189

>  <mol_properties>  (6) 
{"0": {"label": "*1", "atom_type": "N3s"}, "1": {"label": "*0", "atom_type": "N3s"}, "2": {"label": "*2", "atom_type": "H0"}, "5": {"label": "*3", "atom_type": "Cs"}, "6": {"label": "*4", "atom_type": "Cs"}}

>  <type>  (6) 
unop_2

>  <geom_source>  (6) 
Heuristics

$$$$

     RDKit          3D

 18 17  0  0  0  0  0  0  0  0999 V2000
   -0.5015   -2.1835   -1.2288 N   0  0  0  0  0  2  0  0  0  0  0  0
   -0.5015   -2.1835   -2.5698 N   0  0  0  0  0  0  0  0  0  0  0  0
   -0.5015   -1.0078   -0.8885 H   0  0  0  0  0  0  0  0  0  0  0  0
   -0.3135   -3.0835   -2.9786 H   0  0  0  0  0  0  0  0  0  0  0  0
   -0.1395   -1.3951   -3.0872 H   0  0  0  0  0  0  0  0  0  0  0  0
   -0.5015    0.2514   -0.5242 C   0  0  0  0  0  3  0  0  0  0  0  0
   -1.2145    0.4192    0.8100 C   0  0  0  0  0  0  0  0  0  0  0  0
   -0.5989    1.4399    1.5720 O   0  0  0  0  0  0  0  0  0  0  0  0
    0.7589    1.1807    1.7606 C   0  0  0  0  0  0  0  0  0  0  0  0
    1.4715    1.1123    0.5631 O   0  0  0  0  0  0  0  0  0  0  0  0
    0.9870    0.0709   -0.2628 C   0  0  0  0  0  0  0  0  0  0  0  0
   -0.6575    1.1434   -1.1339 H   0  0  0  0  0  0  0  0  0  0  0  0
   -2.2564    0.7092    0.6814 H   0  0  0  0  0  0  0  0  0  0  0  0
   -1.1874   -0.5262    1.3732 H   0  0  0  0  0  0  0  0  0  0  0  0
    0.8782    0.2309    2.3137 H   0  0  0  0  0  0  0  0  0  0  0  0
    1.1696    2.0084    2.3345 H   0  0  0  0  0  0  0  0  0  0  0  0
    1.1690   -0.8991    0.2249 H   0  0  0  0  0  0  0  0  0  0  0  0
    1.5691    0.1039   -1.1828 H   0  0  0  0  0  0  0  0  0  0  0  0
  1  2  1  0
  1  3  1  0
  2  4  1  0
  2  5  1  0
  6  7  1  0
  6 11  1  0
  6 12  1  0
  7  8  1  0
  7 13  1  0
  7 14  1  0
  8  9  1  0
  9 10  1  0
  9 15  1  0
  9 16  1  0
 10 11  1  0
 11 17  1  0
 11 18  1  0
M  RAD  2   1   2   6   2
M  END
>  <reaction>  (7) 
rmg_rxn_189

>  <mol_properties>  (7) 
{"0": {"label": "*1", "atom_type": "N3s"}, "1": {"label": "*0", "atom_type": "N3s"}, "2": {"label": "*2", "atom_type": "H0"}, "5": {"label": "*3", "atom_type": "Cs"}, "6": {"label": "*4", "atom_type": "Cs"}}

>  <type>  (7) 
unop_3

>  <geom_source>  (7) 
Heuristics

$$$$

     RDKit          3D

 18 17  0  0  0  0  0  0  0  0999 V2000
   -0.1959   -2.8681   -0.4919 N   0  0  0  0  0  2  0  0  0  0  0  0
   -0.1959   -2.8681   -1.8329 N   0  0  0  0  0  0  0  0  0  0  0  0
   -0.1959   -1.6923   -0.1517 H   0  0  0  0  0  0  0  0  0  0  0  0
   -0.0080   -3.7681   -2.2418 H   0  0  0  0  0  0  0  0  0  0  0  0
    0.1660   -2.0797   -2.3504 H   0  0  0  0  0  0  0  0  0  0  0  0
   -0.1959   -0.4332    0.2127 C   0  0  0  0  0  3  0  0  0  0  0  0
    1.0390    0.2761   -0.3243 C   0  0  0  0  0  0  0  0  0  0  0  0
    1.3581    1.3905    0.4866 O   0  0  0  0  0  0  0  0  0  0  0  0
    0.2796    2.2703    0.5837 C   0  0  0  0  0  0  0  0  0  0  0  0
   -0.8489    1.6864    1.1598 O   0  0  0  0  0  0  0  0  0  0  0  0
   -1.3078    0.5907    0.3915 C   0  0  0  0  0  0  0  0  0  0  0  0
    0.0373   -0.8880    1.1773 H   0  0  0  0  0  0  0  0  0  0  0  0
    1.9138   -0.3726   -0.3239 H   0  0  0  0  0  0  0  0  0  0  0  0
    0.8608    0.6128   -1.3572 H   0  0  0  0  0  0  0  0  0  0  0  0
    0.0236    2.6499   -0.4225 H   0  0  0  0  0  0  0  0  0  0  0  0
    0.5868    3.0883    1.2314 H   0  0  0  0  0  0  0  0  0  0  0  0
   -1.6511    0.9495   -0.5910 H   0  0  0  0  0  0  0  0  0  0  0  0
   -2.1642    0.1740    0.9200 H   0  0  0  0  0  0  0  0  0  0  0  0
  1  2  1  0
  1  3  1  0
  2  4  1  0
  2  5  1  0
  6  7  1  0
  6 11  1  0
  6 12  1  0
  7  8  1  0
  7 13  1  0
  7 14  1  0
  8  9  1  0
  9 10  1  0
  9 15  1  0
  9 16  1  0
 10 11  1  0
 11 17  1  0
 11 18  1  0
M  RAD  2   1   2   6   2
M  END
>  <reaction>  (8) 
rmg_rxn_189

>  <mol_properties>  (8) 
{"0": {"label": "*1", "atom_type": "N3s"}, "1": {"label": "*0", "atom_type": "N3s"}, "2": {"label": "*2", "atom_type": "H0"}, "5": {"label": "*3", "atom_type": "Cs"}, "6": {"label": "*4", "atom_type": "Cs"}}

>  <type>  (8) 
unop_4

>  <geom_source>  (8) 
Heuristics

$$$$

     RDKit          3D

 18 17  0  0  0  0  0  0  0  0999 V2000
   -0.5097   -2.6118   -0.8679 N   0  0  0  0  0  2  0  0  0  0  0  0
   -0.5097   -2.6118   -2.2089 N   0  0  0  0  0  0  0  0  0  0  0  0
   -0.5097   -1.4360   -0.5277 H   0  0  0  0  0  0  0  0  0  0  0  0
   -0.3218   -3.5118   -2.6178 H   0  0  0  0  0  0  0  0  0  0  0  0
   -0.1477   -1.8234   -2.7264 H   0  0  0  0  0  0  0  0  0  0  0  0
   -0.5097   -0.1769   -0.1633 C   0  0  0  0  0  3  0  0  0  0  0  0
   -0.5097   -0.0621    1.3544 C   0  0  0  0  0  0  0  0  0  0  0  0
   -0.3611    1.2892    1.7457 O   0  0  0  0  0  0  0  0  0  0  0  0
    0.7960    1.8484    1.2027 C   0  0  0  0  0  0  0  0  0  0  0  0
    0.7967    1.8501   -0.1924 O   0  0  0  0  0  0  0  0  0  0  0  0
    0.7215    0.5342   -0.7066 C   0  0  0  0  0  0  0  0  0  0  0  0
   -1.4084    0.2966   -0.5632 H   0  0  0  0  0  0  0  0  0  0  0  0
   -1.4443   -0.4136    1.7895 H   0  0  0  0  0  0  0  0  0  0  0  0
    0.3127   -0.6593    1.7773 H   0  0  0  0  0  0  0  0  0  0  0  0
    1.6791    1.2938    1.5698 H   0  0  0  0  0  0  0  0  0  0  0  0
    0.8371    2.8857    1.5274 H   0  0  0  0  0  0  0  0  0  0  0  0
    1.6305   -0.0210   -0.4286 H   0  0  0  0  0  0  0  0  0  0  0  0
    0.6951    0.6227   -1.7918 H   0  0  0  0  0  0  0  0  0  0  0  0
  1  2  1  0
  1  3  1  0
  2  4  1  0
  2  5  1  0
  6  7  1  0
  6 11  1  0
  6 12  1  0
  7  8  1  0
  7 13  1  0
  7 14  1  0
  8  9  1  0
  9 10  1  0
  9 15  1  0
  9 16  1  0
 10 11  1  0
 11 17  1  0
 11 18  1  0
M  RAD  2   1   2   6   2
M  END
>  <reaction>  (9) 
rmg_rxn_189

>  <mol_properties>  (9) 
{"0": {"label": "*1", "atom_type": "N3s"}, "1": {"label": "*0", "atom_type": "N3s"}, "2": {"label": "*2", "atom_type": "H0"}, "5": {"label": "*3", "atom_type": "Cs"}, "6": {"label": "*4", "atom_type": "Cs"}}

>  <type>  (9) 
unop_5

>  <geom_source>  (9) 
Heuristics

$$$$

     RDKit          3D

 18 17  0  0  0  0  0  0  0  0999 V2000
   -0.2431   -2.7993   -0.7157 N   0  0  0  0  0  2  0  0  0  0  0  0
   -0.2431   -2.7993   -2.0567 N   0  0  0  0  0  0  0  0  0  0  0  0
   -0.2431   -1.6235   -0.3754 H   0  0  0  0  0  0  0  0  0  0  0  0
   -0.0551   -3.6993   -2.4655 H   0  0  0  0  0  0  0  0  0  0  0  0
    0.1189   -2.0109   -2.5741 H   0  0  0  0  0  0  0  0  0  0  0  0
   -0.2431   -0.3644   -0.0111 C   0  0  0  0  0  3  0  0  0  0  0  0
    1.1829    0.1467    0.1368 C   0  0  0  0  0  0  0  0  0  0  0  0
    1.2539    1.1169    1.1640 O   0  0  0  0  0  0  0  0  0  0  0  0
    0.3684    2.1688    0.9277 C   0  0  0  0  0  0  0  0  0  0  0  0
   -0.9640    1.7581    0.8785 O   0  0  0  0  0  0  0  0  0  0  0  0
   -1.1755    0.8285   -0.1667 C   0  0  0  0  0  0  0  0  0  0  0  0
   -0.5210   -0.9283    0.8814 H   0  0  0  0  0  0  0  0  0  0  0  0
    1.8748   -0.6492    0.4090 H   0  0  0  0  0  0  0  0  0  0  0  0
    1.5244    0.5902   -0.8111 H   0  0  0  0  0  0  0  0  0  0  0  0
    0.6346    2.6666   -0.0229 H   0  0  0  0  0  0  0  0  0  0  0  0
    0.4622    2.8636    1.7594 H   0  0  0  0  0  0  0  0  0  0  0  0
   -0.9999    1.3199   -1.1360 H   0  0  0  0  0  0  0  0  0  0  0  0
   -2.2233    0.5355   -0.1185 H   0  0  0  0  0  0  0  0  0  0  0  0
  1  2  1  0
  1  3  1  0
  2  4  1  0
  2  5  1  0
  6  7  1  0
  6 11  1  0
  6 12  1  0
  7  8  1  0
  7 13  1  0
  7 14  1  0
  8  9  1  0
  9 10  1  0
  9 15  1  0
  9 16  1  0
 10 11  1  0
 11 17  1  0
 11 18  1  0
M  RAD  2   1   2   6   2
M  END
>  <reaction>  (10) 
rmg_rxn_189

>  <mol_properties>  (10) 
{"0": {"label": "*1", "atom_type": "N3s"}, "1": {"label": "*0", "atom_type": "N3s"}, "2": {"label": "*2", "atom_type": "H0"}, "5": {"label": "*3", "atom_type": "Cs"}, "6": {"label": "*4", "atom_type": "Cs"}}

>  <type>  (10) 
unop_6

>  <geom_source>  (10) 
Heuristics

$$$$

     RDKit          3D

 18 17  0  0  0  0  0  0  0  0999 V2000
   -0.1634   -2.7681   -0.8220 N   0  0  0  0  0  2  0  0  0  0  0  0
   -0.1634   -2.7681   -2.1629 N   0  0  0  0  0  0  0  0  0  0  0  0
   -0.1634   -1.5924   -0.4817 H   0  0  0  0  0  0  0  0  0  0  0  0
    0.0246   -3.6681   -2.5718 H   0  0  0  0  0  0  0  0  0  0  0  0
    0.1986   -1.9797   -2.6804 H   0  0  0  0  0  0  0  0  0  0  0  0
   -0.1634   -0.3332   -0.1174 C   0  0  0  0  0  3  0  0  0  0  0  0
    1.0716   -0.0203    0.7154 C   0  0  0  0  0  0  0  0  0  0  0  0
    0.7729    0.9623    1.6885 O   0  0  0  0  0  0  0  0  0  0  0  0
    0.2622    2.1188    1.0987 C   0  0  0  0  0  0  0  0  0  0  0  0
   -0.9253    1.8954    0.4013 O   0  0  0  0  0  0  0  0  0  0  0  0
   -0.7342    0.9720   -0.6534 C   0  0  0  0  0  0  0  0  0  0  0  0
   -0.9092   -0.8251    0.5100 H   0  0  0  0  0  0  0  0  0  0  0  0
    1.4322   -0.8955    1.2541 H   0  0  0  0  0  0  0  0  0  0  0  0
    1.8826    0.3418    0.0651 H   0  0  0  0  0  0  0  0  0  0  0  0
    1.0167    2.5450    0.4122 H   0  0  0  0  0  0  0  0  0  0  0  0
    0.0394    2.8194    1.9004 H   0  0  0  0  0  0  0  0  0  0  0  0
   -0.0502    1.4039   -1.4000 H   0  0  0  0  0  0  0  0  0  0  0  0
   -1.7057    0.8286   -1.1244 H   0  0  0  0  0  0  0  0  0  0  0  0
  1  2  1  0
  1  3  1  0
  2  4  1  0
  2  5  1  0
  6  7  1  0
  6 11  1  0
  6 12  1  0
  7  8  1  0
  7 13  1  0
  7 14  1  0
  8  9  1  0
  9 10  1  0
  9 15  1  0
  9 16  1  0
 10 11  1  0
 11 17  1  0
 11 18  1  0
M  RAD  2   1   2   6   2
M  END
>  <reaction>  (11) 
rmg_rxn_189

>  <mol_properties>  (11) 
{"0": {"label": "*1", "atom_type": "N3s"}, "1": {"label": "*0", "atom_type": "N3s"}, "2": {"label": "*2", "atom_type": "H0"}, "5": {"label": "*3", "atom_type": "Cs"}, "6": {"label": "*4", "atom_type": "Cs"}}

>  <type>  (11) 
unop_7

>  <geom_source>  (11) 
Heuristics

$$$$

     RDKit          3D

 18 17  0  0  0  0  0  0  0  0999 V2000
    0.4566   -2.0077   -1.3019 N   0  0  0  0  0  2  0  0  0  0  0  0
    0.4566   -2.0077   -2.6429 N   0  0  0  0  0  0  0  0  0  0  0  0
    0.4566   -0.8319   -0.9617 H   0  0  0  0  0  0  0  0  0  0  0  0
    0.6446   -2.9076   -3.0518 H   0  0  0  0  0  0  0  0  0  0  0  0
    0.8186   -1.2193   -3.1604 H   0  0  0  0  0  0  0  0  0  0  0  0
    0.4566    0.4273   -0.5974 C   0  0  0  0  0  3  0  0  0  0  0  0
   -0.9694    0.9384   -0.4495 C   0  0  0  0  0  0  0  0  0  0  0  0
   -1.1059    1.6757    0.7502 O   0  0  0  0  0  0  0  0  0  0  0  0
   -0.7313    0.9137    1.8572 C   0  0  0  0  0  0  0  0  0  0  0  0
    0.6008    0.5019    1.8088 O   0  0  0  0  0  0  0  0  0  0  0  0
    0.8455   -0.3098    0.6762 C   0  0  0  0  0  0  0  0  0  0  0  0
    1.1313    1.2722   -0.7482 H   0  0  0  0  0  0  0  0  0  0  0  0
   -1.2486    1.6075   -1.2622 H   0  0  0  0  0  0  0  0  0  0  0  0
   -1.6739    0.0926   -0.4427 H   0  0  0  0  0  0  0  0  0  0  0  0
   -1.3874    0.0271    1.9318 H   0  0  0  0  0  0  0  0  0  0  0  0
   -0.8432    1.5440    2.7366 H   0  0  0  0  0  0  0  0  0  0  0  0
    0.2686   -1.2435    0.7622 H   0  0  0  0  0  0  0  0  0  0  0  0
    1.9050   -0.5615    0.6939 H   0  0  0  0  0  0  0  0  0  0  0  0
  1  2  1  0
  1  3  1  0
  2  4  1  0
  2  5  1  0
  6  7  1  0
  6 11  1  0
  6 12  1  0
  7  8  1  0
  7 13  1  0
  7 14  1  0
  8  9  1  0
  9 10  1  0
  9 15  1  0
  9 16  1  0
 10 11  1  0
 11 17  1  0
 11 18  1  0
M  RAD  2   1   2   6   2
M  END
>  <reaction>  (12) 
rmg_rxn_189

>  <mol_properties>  (12) 
{"0": {"label": "*1", "atom_type": "N3s"}, "1": {"label": "*0", "atom_type": "N3s"}, "2": {"label": "*2", "atom_type": "H0"}, "5": {"label": "*3", "atom_type": "Cs"}, "6": {"label": "*4", "atom_type": "Cs"}}

>  <type>  (12) 
unop_8

>  <geom_source>  (12) 
Heuristics

$$$$

     RDKit          3D

 18 17  0  0  0  0  0  0  0  0999 V2000
    0.0812   -2.8929   -0.2975 N   0  0  0  0  0  2  0  0  0  0  0  0
    0.0812   -2.8929   -1.6385 N   0  0  0  0  0  0  0  0  0  0  0  0
    0.0812   -1.7171    0.0427 H   0  0  0  0  0  0  0  0  0  0  0  0
    0.2692   -3.7929   -2.0474 H   0  0  0  0  0  0  0  0  0  0  0  0
    0.4432   -2.1045   -2.1560 H   0  0  0  0  0  0  0  0  0  0  0  0
    0.0812   -0.4580    0.4070 C   0  0  0  0  0  3  0  0  0  0  0  0
    0.7942    0.3964   -0.6313 C   0  0  0  0  0  0  0  0  0  0  0  0
    1.0298    1.6952   -0.1223 O   0  0  0  0  0  0  0  0  0  0  0  0
   -0.1580    2.2991    0.2910 C   0  0  0  0  0  0  0  0  0  0  0  0
   -0.7993    1.5968    1.3117 O   0  0  0  0  0  0  0  0  0  0  0  0
   -1.1507    0.2918    0.8935 C   0  0  0  0  0  0  0  0  0  0  0  0
    0.7514   -0.6402    1.2493 H   0  0  0  0  0  0  0  0  0  0  0  0
    1.7658   -0.0158   -0.9005 H   0  0  0  0  0  0  0  0  0  0  0  0
    0.1846    0.4654   -1.5454 H   0  0  0  0  0  0  0  0  0  0  0  0
   -0.8407    2.3962   -0.5731 H   0  0  0  0  0  0  0  0  0  0  0  0
    0.0980    3.2802    0.6848 H   0  0  0  0  0  0  0  0  0  0  0  0
   -1.8972    0.3535    0.0868 H   0  0  0  0  0  0  0  0  0  0  0  0
   -1.6139   -0.1975    1.7492 H   0  0  0  0  0  0  0  0  0  0  0  0
  1  2  1  0
  1  3  1  0
  2  4  1  0
  2  5  1  0
  6  7  1  0
  6 11  1  0
  6 12  1  0
  7  8  1  0
  7 13  1  0
  7 14  1  0
  8  9  1  0
  9 10  1  0
  9 15  1  0
  9 16  1  0
 10 11  1  0
 11 17  1  0
 11 18  1  0
M  RAD  2   1   2   6   2
M  END
>  <reaction>  (13) 
rmg_rxn_189

>  <mol_properties>  (13) 
{"0": {"label": "*1", "atom_type": "N3s"}, "1": {"label": "*0", "atom_type": "N3s"}, "2": {"label": "*2", "atom_type": "H0"}, "5": {"label": "*3", "atom_type": "Cs"}, "6": {"label": "*4", "atom_type": "Cs"}}

>  <type>  (13) 
unop_9

>  <geom_source>  (13) 
Heuristics

$$$$

     RDKit          3D

 18 17  0  0  0  0  0  0  0  0999 V2000
    0.7769   -2.2095   -0.9797 N   0  0  0  0  0  2  0  0  0  0  0  0
    0.7769   -2.2095   -2.3206 N   0  0  0  0  0  0  0  0  0  0  0  0
    0.7769   -1.0337   -0.6394 H   0  0  0  0  0  0  0  0  0  0  0  0
    0.9649   -3.1095   -2.7295 H   0  0  0  0  0  0  0  0  0  0  0  0
    1.1389   -1.4211   -2.8381 H   0  0  0  0  0  0  0  0  0  0  0  0
    0.7769    0.2254   -0.2751 C   0  0  0  0  0  3  0  0  0  0  0  0
   -0.4580    0.9347   -0.8121 C   0  0  0  0  0  0  0  0  0  0  0  0
   -0.9508    1.8554    0.1424 O   0  0  0  0  0  0  0  0  0  0  0  0
   -1.2250    1.2261    1.3570 C   0  0  0  0  0  0  0  0  0  0  0  0
   -0.0972    0.6413    1.9337 O   0  0  0  0  0  0  0  0  0  0  0  0
    0.4496   -0.3563    1.0928 C   0  0  0  0  0  0  0  0  0  0  0  0
    1.5942    0.9427   -0.1784 H   0  0  0  0  0  0  0  0  0  0  0  0
   -0.2404    1.5048   -1.7142 H   0  0  0  0  0  0  0  0  0  0  0  0
   -1.2413    0.1989   -1.0506 H   0  0  0  0  0  0  0  0  0  0  0  0
   -2.0013    0.4541    1.2036 H   0  0  0  0  0  0  0  0  0  0  0  0
   -1.5802    1.9906    2.0444 H   0  0  0  0  0  0  0  0  0  0  0  0
   -0.2698   -1.1830    0.9883 H   0  0  0  0  0  0  0  0  0  0  0  0
    1.3368   -0.7386    1.5958 H   0  0  0  0  0  0  0  0  0  0  0  0
  1  2  1  0
  1  3  1  0
  2  4  1  0
  2  5  1  0
  6  7  1  0
  6 11  1  0
  6 12  1  0
  7  8  1  0
  7 13  1  0
  7 14  1  0
  8  9  1  0
  9 10  1  0
  9 15  1  0
  9 16  1  0
 10 11  1  0
 11 17  1  0
 11 18  1  0
M  RAD  2   1   2   6   2
M  END
>  <reaction>  (14) 
rmg_rxn_189

>  <mol_properties>  (14) 
{"0": {"label": "*1", "atom_type": "N3s"}, "1": {"label": "*0", "atom_type": "N3s"}, "2": {"label": "*2", "atom_type": "H0"}, "5": {"label": "*3", "atom_type": "Cs"}, "6": {"label": "*4", "atom_type": "Cs"}}

>  <type>  (14) 
unop_10

>  <geom_source>  (14) 
Heuristics

$$$$

     RDKit          3D

 18 17  0  0  0  0  0  0  0  0999 V2000
   -0.1935   -2.7796   -0.7874 N   0  0  0  0  0  2  0  0  0  0  0  0
   -0.1935   -2.7796   -2.1284 N   0  0  0  0  0  0  0  0  0  0  0  0
   -0.1935   -1.6038   -0.4471 H   0  0  0  0  0  0  0  0  0  0  0  0
   -0.0056   -3.6795   -2.5372 H   0  0  0  0  0  0  0  0  0  0  0  0
    0.1685   -1.9912   -2.6459 H   0  0  0  0  0  0  0  0  0  0  0  0
   -0.1935   -0.3446   -0.0828 C   0  0  0  0  0  3  0  0  0  0  0  0
    0.5195   -0.1768    1.2514 C   0  0  0  0  0  0  0  0  0  0  0  0
    0.1055    1.0192    1.8835 O   0  0  0  0  0  0  0  0  0  0  0  0
    0.3187    2.1256    1.0608 C   0  0  0  0  0  0  0  0  0  0  0  0
   -0.3929    2.0581   -0.1373 O   0  0  0  0  0  0  0  0  0  0  0  0
   -0.0106    0.9279   -0.8975 C   0  0  0  0  0  0  0  0  0  0  0  0
   -1.2577   -0.5133    0.0930 H   0  0  0  0  0  0  0  0  0  0  0  0
    0.2926   -0.9899    1.9396 H   0  0  0  0  0  0  0  0  0  0  0  0
    1.6090   -0.1516    1.0958 H   0  0  0  0  0  0  0  0  0  0  0  0
    1.3984    2.2181    0.8420 H   0  0  0  0  0  0  0  0  0  0  0  0
   -0.0362    3.0019    1.5988 H   0  0  0  0  0  0  0  0  0  0  0  0
    1.0416    1.0308   -1.2043 H   0  0  0  0  0  0  0  0  0  0  0  0
   -0.6284    0.9297   -1.7944 H   0  0  0  0  0  0  0  0  0  0  0  0
  1  2  1  0
  1  3  1  0
  2  4  1  0
  2  5  1  0
  6  7  1  0
  6 11  1  0
  6 12  1  0
  7  8  1  0
  7 13  1  0
  7 14  1  0
  8  9  1  0
  9 10  1  0
  9 15  1  0
  9 16  1  0
 10 11  1  0
 11 17  1  0
 11 18  1  0
M  RAD  2   1   2   6   2
M  END
>  <reaction>  (15) 
rmg_rxn_189

>  <mol_properties>  (15) 
{"0": {"label": "*1", "atom_type": "N3s"}, "1": {"label": "*0", "atom_type": "N3s"}, "2": {"label": "*2", "atom_type": "H0"}, "5": {"label": "*3", "atom_type": "Cs"}, "6": {"label": "*4", "atom_type": "Cs"}}

>  <type>  (15) 
unop_11

>  <geom_source>  (15) 
Heuristics

$$$$

     RDKit          3D

 18 17  0  0  0  0  0  0  0  0999 V2000
    0.5003   -2.7729   -0.3111 N   0  0  0  0  0  2  0  0  0  0  0  0
    0.5003   -2.7729   -1.6521 N   0  0  0  0  0  0  0  0  0  0  0  0
    0.5003   -1.5972    0.0291 H   0  0  0  0  0  0  0  0  0  0  0  0
    0.6883   -3.6729   -2.0610 H   0  0  0  0  0  0  0  0  0  0  0  0
    0.8623   -1.9845   -2.1696 H   0  0  0  0  0  0  0  0  0  0  0  0
    0.5003   -0.3380    0.3934 C   0  0  0  0  0  3  0  0  0  0  0  0
    0.5003    0.5695   -0.8285 C   0  0  0  0  0  0  0  0  0  0  0  0
    0.3518    1.9210   -0.4377 O   0  0  0  0  0  0  0  0  0  0  0  0
   -0.8054    2.1038    0.3200 C   0  0  0  0  0  0  0  0  0  0  0  0
   -0.8060    1.3602    1.5005 O   0  0  0  0  0  0  0  0  0  0  0  0
   -0.7308   -0.0269    1.2325 C   0  0  0  0  0  0  0  0  0  0  0  0
    1.3991   -0.1512    0.9844 H   0  0  0  0  0  0  0  0  0  0  0  0
    1.4349    0.5047   -1.3840 H   0  0  0  0  0  0  0  0  0  0  0  0
   -0.3221    0.2905   -1.5049 H   0  0  0  0  0  0  0  0  0  0  0  0
   -1.6885    1.8309   -0.2865 H   0  0  0  0  0  0  0  0  0  0  0  0
   -0.8465    3.1542    0.5994 H   0  0  0  0  0  0  0  0  0  0  0  0
   -1.6399   -0.3478    0.7010 H   0  0  0  0  0  0  0  0  0  0  0  0
   -0.7044   -0.5316    2.1973 H   0  0  0  0  0  0  0  0  0  0  0  0
  1  2  1  0
  1  3  1  0
  2  4  1  0
  2  5  1  0
  6  7  1  0
  6 11  1  0
  6 12  1  0
  7  8  1  0
  7 13  1  0
  7 14  1  0
  8  9  1  0
  9 10  1  0
  9 15  1  0
  9 16  1  0
 10 11  1  0
 11 17  1  0
 11 18  1  0
M  RAD  2   1   2   6   2
M  END
>  <reaction>  (16) 
rmg_rxn_189

>  <mol_properties>  (16) 
{"0": {"label": "*1", "atom_type": "N3s"}, "1": {"label": "*0", "atom_type": "N3s"}, "2": {"label": "*2", "atom_type": "H0"}, "5": {"label": "*3", "atom_type": "Cs"}, "6": {"label": "*4", "atom_type": "Cs"}}

>  <type>  (16) 
unop_12

>  <geom_source>  (16) 
Heuristics

$$$$

     RDKit          3D

 18 17  0  0  0  0  0  0  0  0999 V2000
    0.7957   -2.5036   -0.5858 N   0  0  0  0  0  2  0  0  0  0  0  0
    0.7957   -2.5036   -1.9268 N   0  0  0  0  0  0  0  0  0  0  0  0
    0.7957   -1.3279   -0.2456 H   0  0  0  0  0  0  0  0  0  0  0  0
    0.9836   -3.4036   -2.3357 H   0  0  0  0  0  0  0  0  0  0  0  0
    1.1577   -1.7152   -2.4443 H   0  0  0  0  0  0  0  0  0  0  0  0
    0.7957   -0.0687    0.1188 C   0  0  0  0  0  3  0  0  0  0  0  0
    0.0827    0.7857   -0.9196 C   0  0  0  0  0  0  0  0  0  0  0  0
   -0.4136    1.9699   -0.3258 O   0  0  0  0  0  0  0  0  0  0  0  0
   -1.2566    1.6820    0.7480 C   0  0  0  0  0  0  0  0  0  0  0  0
   -0.6165    0.9791    1.7692 O   0  0  0  0  0  0  0  0  0  0  0  0
   -0.1331   -0.2679    1.3080 C   0  0  0  0  0  0  0  0  0  0  0  0
    1.7027    0.4418    0.4480 H   0  0  0  0  0  0  0  0  0  0  0  0
    0.7513    1.0938   -1.7222 H   0  0  0  0  0  0  0  0  0  0  0  0
   -0.7510    0.2208   -1.3642 H   0  0  0  0  0  0  0  0  0  0  0  0
   -2.1237    1.0984    0.3880 H   0  0  0  0  0  0  0  0  0  0  0  0
   -1.5847    2.6314    1.1653 H   0  0  0  0  0  0  0  0  0  0  0  0
   -0.9820   -0.9069    1.0202 H   0  0  0  0  0  0  0  0  0  0  0  0
    0.3764   -0.7369    2.1487 H   0  0  0  0  0  0  0  0  0  0  0  0
  1  2  1  0
  1  3  1  0
  2  4  1  0
  2  5  1  0
  6  7  1  0
  6 11  1  0
  6 12  1  0
  7  8  1  0
  7 13  1  0
  7 14  1  0
  8  9  1  0
  9 10  1  0
  9 15  1  0
  9 16  1  0
 10 11  1  0
 11 17  1  0
 11 18  1  0
M  RAD  2   1   2   6   2
M  END
>  <reaction>  (17) 
rmg_rxn_189

>  <mol_properties>  (17) 
{"0": {"label": "*1", "atom_type": "N3s"}, "1": {"label": "*0", "atom_type": "N3s"}, "2": {"label": "*2", "atom_type": "H0"}, "5": {"label": "*3", "atom_type": "Cs"}, "6": {"label": "*4", "atom_type": "Cs"}}

>  <type>  (17) 
unop_13

>  <geom_source>  (17) 
gaussian_log

$$$$
