
     RDKit          3D

  9  8  0  0  0  0  0  0  0  0999 V2000
   -1.5470   -0.0755   -0.1976 C   0  0  0  0  0  0  0  0  0  0  0  0
   -0.2885    0.4507    0.1749 O   0  0  0  0  0  0  0  0  0  0  0  0
   -0.1502    1.7216   -0.3294 N   0  0  0  0  0  0  0  0  0  0  0  0
    0.9626    2.2353   -0.0219 C   0  0  0  0  0  0  0  0  0  0  0  0
   -1.6392   -0.1356   -1.2844 H   0  0  0  0  0  0  0  0  0  0  0  0
   -2.3597    0.5337    0.2044 H   0  0  0  0  0  0  0  0  0  0  0  0
   -1.5879   -1.0750    0.2318 H   0  0  0  0  0  0  0  0  0  0  0  0
    1.1497    3.2381   -0.3820 H   0  0  0  0  0  0  0  0  0  0  0  0
    1.7060    1.7101    0.5739 H   0  0  0  0  0  0  0  0  0  0  0  0
  1  2  1  0
  1  5  1  0
  1  6  1  0
  1  7  1  0
  2  3  1  0
  3  4  2  3
  4  8  1  0
  4  9  1  0
M  END
>  <reaction>  (1) 
rmg_rxn_15565

>  <mol_properties>  (1) 
{"0": {"label": "donator", "atom_type": "Cs"}, "4": {"label": "d_hydrogen", "atom_type": "H0"}}

>  <type>  (1) 
r1h

$$$$

     RDKit          3D

  9  8  0  0  0  0  0  0  0  0999 V2000
    1.3246   -0.8124   -0.0809 C   0  0  0  0  0  2  0  0  0  0  0  0
    0.4082    0.3080    0.1518 C   0  0  0  0  0  0  0  0  0  0  0  0
   -1.0545   -0.0277   -0.1520 C   0  0  0  0  0  0  0  0  0  0  0  0
    2.3933   -0.9471    0.0203 H   0  0  0  0  0  0  0  0  0  0  0  0
    0.4898    0.6406    1.1970 H   0  0  0  0  0  0  0  0  0  0  0  0
    0.7134    1.1680   -0.4624 H   0  0  0  0  0  0  0  0  0  0  0  0
   -1.4014   -0.8515    0.4727 H   0  0  0  0  0  0  0  0  0  0  0  0
   -1.1767   -0.3214   -1.1952 H   0  0  0  0  0  0  0  0  0  0  0  0
   -1.6915    0.8372    0.0370 H   0  0  0  0  0  0  0  0  0  0  0  0
  1  2  1  0
  1  4  1  0
  2  3  1  0
  2  5  1  0
  2  6  1  0
  3  7  1  0
  3  8  1  0
  3  9  1  0
M  RAD  1   1   3
M  END
>  <reaction>  (2) 
rmg_rxn_15565

>  <mol_properties>  (2) 
{"0": {"label": "acceptor", "atom_type": "Cs"}}

>  <type>  (2) 
r2

$$$$

     RDKit          3D

 10  9  0  0  0  0  0  0  0  0999 V2000
    1.4352    0.2660   -0.1351 C   0  0  0  0  0  3  0  0  0  0  0  0
    0.2236   -0.3243    0.4850 C   0  0  0  0  0  0  0  0  0  0  0  0
   -0.8893    0.6872    0.7364 C   0  0  0  0  0  0  0  0  0  0  0  0
    2.3577   -0.2958   -0.1940 H   0  0  0  0  0  0  0  0  0  0  0  0
    1.3935    1.2286   -0.6287 H   0  0  0  0  0  0  0  0  0  0  0  0
   -0.1633   -1.1318   -0.1556 H   0  0  0  0  0  0  0  0  0  0  0  0
    0.4945   -0.8215    1.4240 H   0  0  0  0  0  0  0  0  0  0  0  0
   -1.1991    1.1627   -0.1967 H   0  0  0  0  0  0  0  0  0  0  0  0
   -1.7660    0.2103    1.1768 H   0  0  0  0  0  0  0  0  0  0  0  0
   -0.5545    1.4732    1.4159 H   0  0  0  0  0  0  0  0  0  0  0  0
  1  2  1  0
  1  4  1  0
  1  5  1  0
  2  3  1  0
  2  6  1  0
  2  7  1  0
  3  8  1  0
  3  9  1  0
  3 10  1  0
M  RAD  1   1   2
M  END
>  <reaction>  (3) 
rmg_rxn_15565

>  <mol_properties>  (3) 
{"0": {"label": "a_hydrogen", "atom_type": "H0"}, "1": {"label": "acceptor", "atom_type": "Cs"}}

>  <type>  (3) 
r2h

$$$$

     RDKit          3D

 18 16  0  0  0  0  0  0  0  0999 V2000
   -0.3947    1.4447    0.6703 C   0  0  0  0  0  0  0  0  0  0  0  0
   -1.5625    1.0310    0.0381 O   0  0  0  0  0  0  0  0  0  0  0  0
   -1.7140   -0.3333    0.1467 N   0  0  0  0  0  0  0  0  0  0  0  0
   -2.7296   -0.7446   -0.4824 C   0  0  0  0  0  0  0  0  0  0  0  0
    0.6219    1.0882   -0.0352 H   0  0  0  0  0  0  0  0  0  0  0  0
   -0.2578    0.9877    1.6505 H   0  0  0  0  0  0  0  0  0  0  0  0
   -0.3953    2.5316    0.6898 H   0  0  0  0  0  0  0  0  0  0  0  0
   -2.9266   -1.8075   -0.4397 H   0  0  0  0  0  0  0  0  0  0  0  0
   -3.3825   -0.0787   -1.0417 H   0  0  0  0  0  0  0  0  0  0  0  0
    1.6811    0.6509   -0.8277 C   0  0  0  0  0  2  0  0  0  0  0  0
    2.2585   -0.6880   -0.5875 C   0  0  0  0  0  0  0  0  0  0  0  0
    1.8356   -1.3154    0.7398 C   0  0  0  0  0  0  0  0  0  0  0  0
    1.9629    1.3148   -1.6380 H   0  0  0  0  0  0  0  0  0  0  0  0
    1.9709   -1.3619   -1.4084 H   0  0  0  0  0  0  0  0  0  0  0  0
    3.3548   -0.6277   -0.6326 H   0  0  0  0  0  0  0  0  0  0  0  0
    0.7505   -1.4194    0.7879 H   0  0  0  0  0  0  0  0  0  0  0  0
    2.1522   -0.6938    1.5798 H   0  0  0  0  0  0  0  0  0  0  0  0
    2.2834   -2.3025    0.8628 H   0  0  0  0  0  0  0  0  0  0  0  0
  1  2  1  0
  1  5  1  0
  1  6  1  0
  1  7  1  0
  2  3  1  0
  3  4  2  3
  4  8  1  0
  4  9  1  0
 10 11  1  0
 10 13  1  0
 11 12  1  0
 11 14  1  0
 11 15  1  0
 12 16  1  0
 12 17  1  0
 12 18  1  0
M  RAD  1  10   3
M  END
>  <reaction>  (4) 
rmg_rxn_15565

>  <mol_properties>  (4) 
{"0": {"label": "*1", "atom_type": "Cs"}, "1": {"label": "*0", "atom_type": "O2s"}, "4": {"label": "*2", "atom_type": "H0"}, "9": {"label": "*3", "atom_type": "Cs"}, "10": {"label": "*4", "atom_type": "Cs"}}

>  <type>  (4) 
ts

$$$$

     RDKit          3D

 18 16  0  0  0  0  0  0  0  0999 V2000
   -0.3473   -1.6406    0.4505 C   0  0  0  0  0  3  0  0  0  0  0  0
   -1.0924   -0.7944   -0.3422 O   0  0  0  0  0  0  0  0  0  0  0  0
   -1.5553    0.3088    0.3605 N   0  0  0  0  0  0  0  0  0  0  0  0
   -2.2345    1.1371   -0.2997 C   0  0  0  0  0  0  0  0  0  0  0  0
    0.9224   -1.3180    0.4962 H   0  0  0  0  0  0  0  0  0  0  0  0
   -0.3838   -2.6387    0.0274 H   0  0  0  0  0  0  0  0  0  0  0  0
   -0.6220   -1.5964    1.5025 H   0  0  0  0  0  0  0  0  0  0  0  0
   -2.6009    1.9928    0.2392 H   0  0  0  0  0  0  0  0  0  0  0  0
   -2.4645    1.0395   -1.3566 H   0  0  0  0  0  0  0  0  0  0  0  0
    1.9893   -0.9291   -0.0930 C   0  0  0  0  0  3  0  0  0  0  0  0
    1.8133    0.4663   -0.5766 C   0  0  0  0  0  0  0  0  0  0  0  0
    1.6003    1.4708    0.5525 C   0  0  0  0  0  0  0  0  0  0  0  0
    2.1072   -1.5948   -0.9630 H   0  0  0  0  0  0  0  0  0  0  0  0
    2.7370    0.7065   -1.1169 H   0  0  0  0  0  0  0  0  0  0  0  0
    1.0004    0.5595   -1.3142 H   0  0  0  0  0  0  0  0  0  0  0  0
    0.6538    1.2818    1.0551 H   0  0  0  0  0  0  0  0  0  0  0  0
    1.5857    2.4883    0.1664 H   0  0  0  0  0  0  0  0  0  0  0  0
    2.4005    1.3855    1.2835 H   0  0  0  0  0  0  0  0  0  0  0  0
  1  2  1  0
  1  6  1  0
  1  7  1  0
  2  3  1  0
  3  4  2  3
  4  8  1  0
  4  9  1  0
  5 10  1  0
 10 11  1  0
 10 13  1  0
 11 12  1  0
 11 14  1  0
 11 15  1  0
 12 16  1  0
 12 17  1  0
 12 18  1  0
M  RAD  2   1   2  10   2
M  END
>  <reaction>  (5) 
rmg_rxn_15565

>  <mol_properties>  (5) 
{"0": {"label": "*1", "atom_type": "Cs"}, "1": {"label": "*0", "atom_type": "O2s"}, "4": {"label": "*2", "atom_type": "H0"}, "9": {"label": "*3", "atom_type": "Cs"}, "10": {"label": "*4", "atom_type": "Cs"}}

>  <type>  (5) 
unop_1

>  <geom_source>  (5) 
crest_best.xyz

$$$$

     RDKit          3D

 18 16  0  0  0  0  0  0  0  0999 V2000
   -1.2019    0.7475    0.1018 C   0  0  0  0  0  3  0  0  0  0  0  0
   -1.2019    0.8054   -1.3110 O   0  0  0  0  0  0  0  0  0  0  0  0
   -1.2019   -0.4685   -1.8268 N   0  0  0  0  0  0  0  0  0  0  0  0
   -1.2019   -0.4685   -3.0904 C   0  0  0  0  0  0  0  0  0  0  0  0
   -0.1313    0.1353    0.5460 H   0  0  0  0  0  0  0  0  0  0  0  0
   -2.0940    0.2373    0.4720 H   0  0  0  0  0  0  0  0  0  0  0  0
   -1.2019    1.7824    0.4397 H   0  0  0  0  0  0  0  0  0  0  0  0
   -1.2019   -1.4356   -3.5752 H   0  0  0  0  0  0  0  0  0  0  0  0
   -1.2019    0.4480   -3.6765 H   0  0  0  0  0  0  0  0  0  0  0  0
    0.9289   -0.4710    0.9858 C   0  0  0  0  0  3  0  0  0  0  0  0
    1.8856    0.2240    1.8818 C   0  0  0  0  0  0  0  0  0  0  0  0
    2.1114   -0.4924    3.2087 C   0  0  0  0  0  0  0  0  0  0  0  0
    0.6793   -1.5129    1.1410 H   0  0  0  0  0  0  0  0  0  0  0  0
    2.8524    0.3430    1.3690 H   0  0  0  0  0  0  0  0  0  0  0  0
    1.5415    1.2487    2.0654 H   0  0  0  0  0  0  0  0  0  0  0  0
    2.4935   -1.5022    3.0440 H   0  0  0  0  0  0  0  0  0  0  0  0
    1.1786   -0.5762    3.7694 H   0  0  0  0  0  0  0  0  0  0  0  0
    2.8322    0.0416    3.8295 H   0  0  0  0  0  0  0  0  0  0  0  0
  1  2  1  0
  1  6  1  0
  1  7  1  0
  2  3  1  0
  3  4  2  3
  4  8  1  0
  4  9  1  0
  5 10  1  0
 10 11  1  0
 10 13  1  0
 11 12  1  0
 11 14  1  0
 11 15  1  0
 12 16  1  0
 12 17  1  0
 12 18  1  0
M  RAD  2   1   2  10   2
M  END
>  <reaction>  (6) 
rmg_rxn_15565

>  <mol_properties>  (6) 
{"0": {"label": "*1", "atom_type": "Cs"}, "1": {"label": "*0", "atom_type": "O2s"}, "4": {"label": "*2", "atom_type": "H0"}, "9": {"label": "*3", "atom_type": "Cs"}, "10": {"label": "*4", "atom_type": "Cs"}}

>  <type>  (6) 
unop_2

>  <geom_source>  (6) 
Heuristics

$$$$

     RDKit          3D

 18 16  0  0  0  0  0  0  0  0999 V2000
   -0.3479    1.6395   -0.4526 C   0  0  0  0  0  3  0  0  0  0  0  0
   -1.0938    0.7947    0.3409 O   0  0  0  0  0  0  0  0  0  0  0  0
   -1.5547   -0.3107   -0.3600 N   0  0  0  0  0  0  0  0  0  0  0  0
   -2.2352   -1.1373    0.3010 C   0  0  0  0  0  0  0  0  0  0  0  0
    0.9223    1.3186   -0.4948 H   0  0  0  0  0  0  0  0  0  0  0  0
   -0.3859    2.6386   -0.0319 H   0  0  0  0  0  0  0  0  0  0  0  0
   -0.6206    1.5926   -1.5049 H   0  0  0  0  0  0  0  0  0  0  0  0
   -2.6008   -1.9941   -0.2366 H   0  0  0  0  0  0  0  0  0  0  0  0
   -2.4678   -1.0367    1.3571 H   0  0  0  0  0  0  0  0  0  0  0  0
    1.9881    0.9301    0.0967 C   0  0  0  0  0  3  0  0  0  0  0  0
    1.8137   -0.4666    0.5771 C   0  0  0  0  0  0  0  0  0  0  0  0
    1.6033   -1.4687   -0.5545 C   0  0  0  0  0  0  0  0  0  0  0  0
    2.1029    1.5944    0.9683 H   0  0  0  0  0  0  0  0  0  0  0  0
    2.7371   -0.7064    1.1179 H   0  0  0  0  0  0  0  0  0  0  0  0
    1.0002   -0.5626    1.3138 H   0  0  0  0  0  0  0  0  0  0  0  0
    2.4028   -1.3788   -1.2855 H   0  0  0  0  0  0  0  0  0  0  0  0
    0.6559   -1.2814   -1.0562 H   0  0  0  0  0  0  0  0  0  0  0  0
    1.5921   -2.4874   -0.1712 H   0  0  0  0  0  0  0  0  0  0  0  0
  1  2  1  0
  1  6  1  0
  1  7  1  0
  2  3  1  0
  3  4  2  3
  4  8  1  0
  4  9  1  0
  5 10  1  0
 10 11  1  0
 10 13  1  0
 11 12  1  0
 11 14  1  0
 11 15  1  0
 12 16  1  0
 12 17  1  0
 12 18  1  0
M  RAD  2   1   2  10   2
M  END
>  <reaction>  (7) 
rmg_rxn_15565

>  <mol_properties>  (7) 
{"0": {"label": "*1", "atom_type": "Cs"}, "1": {"label": "*0", "atom_type": "O2s"}, "4": {"label": "*2", "atom_type": "H0"}, "9": {"label": "*3", "atom_type": "Cs"}, "10": {"label": "*4", "atom_type": "Cs"}}

>  <type>  (7) 
unop_3

>  <geom_source>  (7) 
Heuristics

$$$$

     RDKit          3D

 18 16  0  0  0  0  0  0  0  0999 V2000
   -1.4483    0.8394    0.6475 C   0  0  0  0  0  3  0  0  0  0  0  0
   -1.4484    0.8973   -0.7654 O   0  0  0  0  0  0  0  0  0  0  0  0
   -1.4484   -0.3766   -1.2811 N   0  0  0  0  0  0  0  0  0  0  0  0
   -1.4484   -0.3766   -2.5447 C   0  0  0  0  0  0  0  0  0  0  0  0
   -0.3778    0.2272    1.0916 H   0  0  0  0  0  0  0  0  0  0  0  0
   -2.3405    0.3292    1.0176 H   0  0  0  0  0  0  0  0  0  0  0  0
   -1.4484    1.8743    0.9853 H   0  0  0  0  0  0  0  0  0  0  0  0
   -1.4484   -1.3436   -3.0296 H   0  0  0  0  0  0  0  0  0  0  0  0
   -1.4484    0.5399   -3.1309 H   0  0  0  0  0  0  0  0  0  0  0  0
    0.6825   -0.3790    1.5314 C   0  0  0  0  0  3  0  0  0  0  0  0
    1.9574   -0.3265    0.7747 C   0  0  0  0  0  0  0  0  0  0  0  0
    3.1968   -0.4268    1.6572 C   0  0  0  0  0  0  0  0  0  0  0  0
    0.6533   -0.7596    2.5445 H   0  0  0  0  0  0  0  0  0  0  0  0
    1.9796   -1.1381    0.0312 H   0  0  0  0  0  0  0  0  0  0  0  0
    1.9964    0.5943    0.1807 H   0  0  0  0  0  0  0  0  0  0  0  0
    3.1934   -1.3591    2.2259 H   0  0  0  0  0  0  0  0  0  0  0  0
    3.2346    0.3987    2.3704 H   0  0  0  0  0  0  0  0  0  0  0  0
    4.1104   -0.4010    1.0615 H   0  0  0  0  0  0  0  0  0  0  0  0
  1  2  1  0
  1  6  1  0
  1  7  1  0
  2  3  1  0
  3  4  2  3
  4  8  1  0
  4  9  1  0
  5 10  1  0
 10 11  1  0
 10 13  1  0
 11 12  1  0
 11 14  1  0
 11 15  1  0
 12 16  1  0
 12 17  1  0
 12 18  1  0
M  RAD  2   1   2  10   2
M  END
>  <reaction>  (8) 
rmg_rxn_15565

>  <mol_properties>  (8) 
{"0": {"label": "*1", "atom_type": "Cs"}, "1": {"label": "*0", "atom_type": "O2s"}, "4": {"label": "*2", "atom_type": "H0"}, "9": {"label": "*3", "atom_type": "Cs"}, "10": {"label": "*4", "atom_type": "Cs"}}

>  <type>  (8) 
unop_4

>  <geom_source>  (8) 
Heuristics

$$$$

     RDKit          3D

 18 16  0  0  0  0  0  0  0  0999 V2000
   -0.3472   -1.6405    0.4495 C   0  0  0  0  0  3  0  0  0  0  0  0
   -1.0920   -0.7938   -0.3429 O   0  0  0  0  0  0  0  0  0  0  0  0
   -1.5564    0.3083    0.3607 N   0  0  0  0  0  0  0  0  0  0  0  0
   -2.2368    1.1361   -0.2989 C   0  0  0  0  0  0  0  0  0  0  0  0
    0.9222   -1.3172    0.4971 H   0  0  0  0  0  0  0  0  0  0  0  0
   -0.3826   -2.6381    0.0251 H   0  0  0  0  0  0  0  0  0  0  0  0
   -0.6231   -1.5979    1.5012 H   0  0  0  0  0  0  0  0  0  0  0  0
   -2.6045    1.9908    0.2407 H   0  0  0  0  0  0  0  0  0  0  0  0
   -2.4666    1.0390   -1.3559 H   0  0  0  0  0  0  0  0  0  0  0  0
    1.9902   -0.9288   -0.0906 C   0  0  0  0  0  3  0  0  0  0  0  0
    1.8152    0.4659   -0.5764 C   0  0  0  0  0  0  0  0  0  0  0  0
    1.6004    1.4719    0.5511 C   0  0  0  0  0  0  0  0  0  0  0  0
    2.1100   -1.5958   -0.9594 H   0  0  0  0  0  0  0  0  0  0  0  0
    2.7397    0.7054   -1.1155 H   0  0  0  0  0  0  0  0  0  0  0  0
    1.0034    0.5581   -1.3154 H   0  0  0  0  0  0  0  0  0  0  0  0
    1.5866    2.4889    0.1636 H   0  0  0  0  0  0  0  0  0  0  0  0
    2.3992    1.3874    1.2835 H   0  0  0  0  0  0  0  0  0  0  0  0
    0.6530    1.2836    1.0522 H   0  0  0  0  0  0  0  0  0  0  0  0
  1  2  1  0
  1  6  1  0
  1  7  1  0
  2  3  1  0
  3  4  2  3
  4  8  1  0
  4  9  1  0
  5 10  1  0
 10 11  1  0
 10 13  1  0
 11 12  1  0
 11 14  1  0
 11 15  1  0
 12 16  1  0
 12 17  1  0
 12 18  1  0
M  RAD  2   1   2  10   2
M  END
>  <reaction>  (9) 
rmg_rxn_15565

>  <mol_properties>  (9) 
{"0": {"label": "*1", "atom_type": "Cs"}, "1": {"label": "*0", "atom_type": "O2s"}, "4": {"label": "*2", "atom_type": "H0"}, "9": {"label": "*3", "atom_type": "Cs"}, "10": {"label": "*4", "atom_type": "Cs"}}

>  <type>  (9) 
unop_5

>  <geom_source>  (9) 
Heuristics

$$$$

     RDKit          3D

 18 16  0  0  0  0  0  0  0  0999 V2000
   -1.1070    0.9221    0.0497 C   0  0  0  0  0  3  0  0  0  0  0  0
   -1.1071    0.9801   -1.3632 O   0  0  0  0  0  0  0  0  0  0  0  0
   -1.1071   -0.2938   -1.8789 N   0  0  0  0  0  0  0  0  0  0  0  0
   -1.1071   -0.2938   -3.1425 C   0  0  0  0  0  0  0  0  0  0  0  0
   -0.0364    0.3100    0.4938 H   0  0  0  0  0  0  0  0  0  0  0  0
   -1.9992    0.4119    0.4198 H   0  0  0  0  0  0  0  0  0  0  0  0
   -1.1071    1.9570    0.3875 H   0  0  0  0  0  0  0  0  0  0  0  0
   -1.1071   -1.2609   -3.6273 H   0  0  0  0  0  0  0  0  0  0  0  0
   -1.1070    0.6227   -3.7287 H   0  0  0  0  0  0  0  0  0  0  0  0
    1.0238   -0.2963    0.9337 C   0  0  0  0  0  3  0  0  0  0  0  0
    1.6085    0.0541    2.2513 C   0  0  0  0  0  0  0  0  0  0  0  0
    1.9130   -1.1567    3.1266 C   0  0  0  0  0  0  0  0  0  0  0  0
    1.1067   -1.3009    0.5388 H   0  0  0  0  0  0  0  0  0  0  0  0
    2.5339    0.6317    2.1031 H   0  0  0  0  0  0  0  0  0  0  0  0
    0.9369    0.7387    2.7828 H   0  0  0  0  0  0  0  0  0  0  0  0
    2.6136   -1.8295    2.6275 H   0  0  0  0  0  0  0  0  0  0  0  0
    1.0034   -1.7211    3.3402 H   0  0  0  0  0  0  0  0  0  0  0  0
    2.3559   -0.8568    4.0774 H   0  0  0  0  0  0  0  0  0  0  0  0
  1  2  1  0
  1  6  1  0
  1  7  1  0
  2  3  1  0
  3  4  2  3
  4  8  1  0
  4  9  1  0
  5 10  1  0
 10 11  1  0
 10 13  1  0
 11 12  1  0
 11 14  1  0
 11 15  1  0
 12 16  1  0
 12 17  1  0
 12 18  1  0
M  RAD  2   1   2  10   2
M  END
>  <reaction>  (10) 
rmg_rxn_15565

>  <mol_properties>  (10) 
{"0": {"label": "*1", "atom_type": "Cs"}, "1": {"label": "*0", "atom_type": "O2s"}, "4": {"label": "*2", "atom_type": "H0"}, "9": {"label": "*3", "atom_type": "Cs"}, "10": {"label": "*4", "atom_type": "Cs"}}

>  <type>  (10) 
unop_6

>  <geom_source>  (10) 
Heuristics

$$$$

     RDKit          3D

 18 16  0  0  0  0  0  0  0  0999 V2000
   -1.1164    1.3529    0.5262 C   0  0  0  0  0  3  0  0  0  0  0  0
   -1.1164    1.4108   -0.8867 O   0  0  0  0  0  0  0  0  0  0  0  0
   -1.1164    0.1369   -1.4025 N   0  0  0  0  0  0  0  0  0  0  0  0
   -1.1164    0.1369   -2.6661 C   0  0  0  0  0  0  0  0  0  0  0  0
   -0.0458    0.7407    0.9703 H   0  0  0  0  0  0  0  0  0  0  0  0
   -2.0085    0.8427    0.8963 H   0  0  0  0  0  0  0  0  0  0  0  0
   -1.1164    2.3878    0.8640 H   0  0  0  0  0  0  0  0  0  0  0  0
   -1.1164   -0.8302   -3.1509 H   0  0  0  0  0  0  0  0  0  0  0  0
   -1.1164    1.0534   -3.2522 H   0  0  0  0  0  0  0  0  0  0  0  0
    1.0144    0.1344    1.4101 C   0  0  0  0  0  3  0  0  0  0  0  0
    1.2998   -1.2707    1.0294 C   0  0  0  0  0  0  0  0  0  0  0  0
    2.2578   -1.9795    1.9807 C   0  0  0  0  0  0  0  0  0  0  0  0
    1.2187    0.4908    2.4117 H   0  0  0  0  0  0  0  0  0  0  0  0
    0.3581   -1.8386    0.9794 H   0  0  0  0  0  0  0  0  0  0  0  0
    1.6972   -1.3029    0.0080 H   0  0  0  0  0  0  0  0  0  0  0  0
    1.8569   -1.9918    2.9966 H   0  0  0  0  0  0  0  0  0  0  0  0
    3.2238   -1.4721    2.0097 H   0  0  0  0  0  0  0  0  0  0  0  0
    2.4276   -3.0127    1.6748 H   0  0  0  0  0  0  0  0  0  0  0  0
  1  2  1  0
  1  6  1  0
  1  7  1  0
  2  3  1  0
  3  4  2  3
  4  8  1  0
  4  9  1  0
  5 10  1  0
 10 11  1  0
 10 13  1  0
 11 12  1  0
 11 14  1  0
 11 15  1  0
 12 16  1  0
 12 17  1  0
 12 18  1  0
M  RAD  2   1   2  10   2
M  END
>  <reaction>  (11) 
rmg_rxn_15565

>  <mol_properties>  (11) 
{"0": {"label": "*1", "atom_type": "Cs"}, "1": {"label": "*0", "atom_type": "O2s"}, "4": {"label": "*2", "atom_type": "H0"}, "9": {"label": "*3", "atom_type": "Cs"}, "10": {"label": "*4", "atom_type": "Cs"}}

>  <type>  (11) 
unop_7

>  <geom_source>  (11) 
Heuristics

$$$$

     RDKit          3D

 18 16  0  0  0  0  0  0  0  0999 V2000
   -0.3476    1.6401    0.4511 C   0  0  0  0  0  3  0  0  0  0  0  0
   -1.0931    0.7945   -0.3417 O   0  0  0  0  0  0  0  0  0  0  0  0
   -1.5550   -0.3097    0.3603 N   0  0  0  0  0  0  0  0  0  0  0  0
   -2.2355   -1.1369   -0.3000 C   0  0  0  0  0  0  0  0  0  0  0  0
    0.9223    1.3181    0.4957 H   0  0  0  0  0  0  0  0  0  0  0  0
   -0.6215    1.5951    1.5032 H   0  0  0  0  0  0  0  0  0  0  0  0
   -0.3845    2.6385    0.0288 H   0  0  0  0  0  0  0  0  0  0  0  0
   -2.6012   -1.9932    0.2383 H   0  0  0  0  0  0  0  0  0  0  0  0
   -2.4673   -1.0378   -1.3563 H   0  0  0  0  0  0  0  0  0  0  0  0
    1.9890    0.9295   -0.0940 C   0  0  0  0  0  3  0  0  0  0  0  0
    1.8138   -0.4663   -0.5768 C   0  0  0  0  0  0  0  0  0  0  0  0
    1.6017   -1.4702    0.5529 C   0  0  0  0  0  0  0  0  0  0  0  0
    2.1062    1.5950   -0.9643 H   0  0  0  0  0  0  0  0  0  0  0  0
    1.0009   -0.5603   -1.3143 H   0  0  0  0  0  0  0  0  0  0  0  0
    2.7375   -0.7062   -1.1171 H   0  0  0  0  0  0  0  0  0  0  0  0
    1.5894   -2.4881    0.1677 H   0  0  0  0  0  0  0  0  0  0  0  0
    0.6543   -1.2825    1.0543 H   0  0  0  0  0  0  0  0  0  0  0  0
    2.4009   -1.3827    1.2846 H   0  0  0  0  0  0  0  0  0  0  0  0
  1  2  1  0
  1  6  1  0
  1  7  1  0
  2  3  1  0
  3  4  2  3
  4  8  1  0
  4  9  1  0
  5 10  1  0
 10 11  1  0
 10 13  1  0
 11 12  1  0
 11 14  1  0
 11 15  1  0
 12 16  1  0
 12 17  1  0
 12 18  1  0
M  RAD  2   1   2  10   2
M  END
>  <reaction>  (12) 
rmg_rxn_15565

>  <mol_properties>  (12) 
{"0": {"label": "*1", "atom_type": "Cs"}, "1": {"label": "*0", "atom_type": "O2s"}, "4": {"label": "*2", "atom_type": "H0"}, "9": {"label": "*3", "atom_type": "Cs"}, "10": {"label": "*4", "atom_type": "Cs"}}

>  <type>  (12) 
unop_8

>  <geom_source>  (12) 
Heuristics

$$$$

     RDKit          3D

 18 16  0  0  0  0  0  0  0  0999 V2000
   -1.1298    1.0359    0.0933 C   0  0  0  0  0  3  0  0  0  0  0  0
   -1.1298    1.0938   -1.3196 O   0  0  0  0  0  0  0  0  0  0  0  0
   -1.1298   -0.1800   -1.8353 N   0  0  0  0  0  0  0  0  0  0  0  0
   -1.1298   -0.1800   -3.0989 C   0  0  0  0  0  0  0  0  0  0  0  0
   -0.0592    0.4237    0.5374 H   0  0  0  0  0  0  0  0  0  0  0  0
   -2.0219    0.5257    0.4634 H   0  0  0  0  0  0  0  0  0  0  0  0
   -1.1298    2.0708    0.4311 H   0  0  0  0  0  0  0  0  0  0  0  0
   -1.1298   -1.1471   -3.5838 H   0  0  0  0  0  0  0  0  0  0  0  0
   -1.1298    0.7364   -3.6851 H   0  0  0  0  0  0  0  0  0  0  0  0
    1.0011   -0.1825    0.9772 C   0  0  0  0  0  3  0  0  0  0  0  0
    1.2236   -0.3656    2.4325 C   0  0  0  0  0  0  0  0  0  0  0  0
    2.3576   -1.3306    2.7610 C   0  0  0  0  0  0  0  0  0  0  0  0
    1.7626   -0.4603    0.2598 H   0  0  0  0  0  0  0  0  0  0  0  0
    1.4347    0.6086    2.8996 H   0  0  0  0  0  0  0  0  0  0  0  0
    0.2958   -0.7054    2.9079 H   0  0  0  0  0  0  0  0  0  0  0  0
    3.2987   -0.9845    2.3282 H   0  0  0  0  0  0  0  0  0  0  0  0
    2.1515   -2.3244    2.3594 H   0  0  0  0  0  0  0  0  0  0  0  0
    2.4987   -1.4239    3.8387 H   0  0  0  0  0  0  0  0  0  0  0  0
  1  2  1  0
  1  6  1  0
  1  7  1  0
  2  3  1  0
  3  4  2  3
  4  8  1  0
  4  9  1  0
  5 10  1  0
 10 11  1  0
 10 13  1  0
 11 12  1  0
 11 14  1  0
 11 15  1  0
 12 16  1  0
 12 17  1  0
 12 18  1  0
M  RAD  2   1   2  10   2
M  END
>  <reaction>  (13) 
rmg_rxn_15565

>  <mol_properties>  (13) 
{"0": {"label": "*1", "atom_type": "Cs"}, "1": {"label": "*0", "atom_type": "O2s"}, "4": {"label": "*2", "atom_type": "H0"}, "9": {"label": "*3", "atom_type": "Cs"}, "10": {"label": "*4", "atom_type": "Cs"}}

>  <type>  (13) 
unop_9

>  <geom_source>  (13) 
Heuristics

$$$$

     RDKit          3D

 18 16  0  0  0  0  0  0  0  0999 V2000
   -0.3469    1.6401    0.4509 C   0  0  0  0  0  3  0  0  0  0  0  0
   -1.0921    0.7943   -0.3421 O   0  0  0  0  0  0  0  0  0  0  0  0
   -1.5557   -0.3089    0.3604 N   0  0  0  0  0  0  0  0  0  0  0  0
   -2.2361   -1.1361   -0.2999 C   0  0  0  0  0  0  0  0  0  0  0  0
    0.9230    1.3178    0.4963 H   0  0  0  0  0  0  0  0  0  0  0  0
   -0.6214    1.5956    1.5028 H   0  0  0  0  0  0  0  0  0  0  0  0
   -0.3833    2.6384    0.0281 H   0  0  0  0  0  0  0  0  0  0  0  0
   -2.6033   -1.9916    0.2388 H   0  0  0  0  0  0  0  0  0  0  0  0
   -2.4663   -1.0378   -1.3567 H   0  0  0  0  0  0  0  0  0  0  0  0
    1.9896    0.9289   -0.0934 C   0  0  0  0  0  3  0  0  0  0  0  0
    1.8138   -0.4666   -0.5767 C   0  0  0  0  0  0  0  0  0  0  0  0
    1.6007   -1.4707    0.5527 C   0  0  0  0  0  0  0  0  0  0  0  0
    2.1074    1.5946   -0.9635 H   0  0  0  0  0  0  0  0  0  0  0  0
    1.0010   -0.5601   -1.3145 H   0  0  0  0  0  0  0  0  0  0  0  0
    2.7376   -0.7069   -1.1167 H   0  0  0  0  0  0  0  0  0  0  0  0
    0.6544   -1.2810    1.0555 H   0  0  0  0  0  0  0  0  0  0  0  0
    2.4011   -1.3857    1.2834 H   0  0  0  0  0  0  0  0  0  0  0  0
    1.5854   -2.4883    0.1668 H   0  0  0  0  0  0  0  0  0  0  0  0
  1  2  1  0
  1  6  1  0
  1  7  1  0
  2  3  1  0
  3  4  2  3
  4  8  1  0
  4  9  1  0
  5 10  1  0
 10 11  1  0
 10 13  1  0
 11 12  1  0
 11 14  1  0
 11 15  1  0
 12 16  1  0
 12 17  1  0
 12 18  1  0
M  RAD  2   1   2  10   2
M  END
>  <reaction>  (14) 
rmg_rxn_15565

>  <mol_properties>  (14) 
{"0": {"label": "*1", "atom_type": "Cs"}, "1": {"label": "*0", "atom_type": "O2s"}, "4": {"label": "*2", "atom_type": "H0"}, "9": {"label": "*3", "atom_type": "Cs"}, "10": {"label": "*4", "atom_type": "Cs"}}

>  <type>  (14) 
unop_10

>  <geom_source>  (14) 
Heuristics

$$$$

     RDKit          3D

 18 16  0  0  0  0  0  0  0  0999 V2000
   -1.0302    1.3305    0.3280 C   0  0  0  0  0  3  0  0  0  0  0  0
   -1.0302    1.3884   -1.0849 O   0  0  0  0  0  0  0  0  0  0  0  0
   -1.0302    0.1145   -1.6006 N   0  0  0  0  0  0  0  0  0  0  0  0
   -1.0302    0.1145   -2.8642 C   0  0  0  0  0  0  0  0  0  0  0  0
    0.0404    0.7183    0.7721 H   0  0  0  0  0  0  0  0  0  0  0  0
   -1.9223    0.8203    0.6981 H   0  0  0  0  0  0  0  0  0  0  0  0
   -1.0302    2.3654    0.6658 H   0  0  0  0  0  0  0  0  0  0  0  0
   -1.0302   -0.8526   -3.3490 H   0  0  0  0  0  0  0  0  0  0  0  0
   -1.0302    1.0310   -3.4504 H   0  0  0  0  0  0  0  0  0  0  0  0
    1.1006    0.1120    1.2120 C   0  0  0  0  0  3  0  0  0  0  0  0
    1.1040   -1.3563    1.4240 C   0  0  0  0  0  0  0  0  0  0  0  0
    2.0311   -1.8098    2.5464 C   0  0  0  0  0  0  0  0  0  0  0  0
    1.4721    0.7841    1.9750 H   0  0  0  0  0  0  0  0  0  0  0  0
    0.0814   -1.7006    1.6420 H   0  0  0  0  0  0  0  0  0  0  0  0
    1.3738   -1.8634    0.4900 H   0  0  0  0  0  0  0  0  0  0  0  0
    1.7499   -1.3442    3.4934 H   0  0  0  0  0  0  0  0  0  0  0  0
    3.0652   -1.5330    2.3328 H   0  0  0  0  0  0  0  0  0  0  0  0
    1.9915   -2.8918    2.6800 H   0  0  0  0  0  0  0  0  0  0  0  0
  1  2  1  0
  1  6  1  0
  1  7  1  0
  2  3  1  0
  3  4  2  3
  4  8  1  0
  4  9  1  0
  5 10  1  0
 10 11  1  0
 10 13  1  0
 11 12  1  0
 11 14  1  0
 11 15  1  0
 12 16  1  0
 12 17  1  0
 12 18  1  0
M  RAD  2   1   2  10   2
M  END
>  <reaction>  (15) 
rmg_rxn_15565

>  <mol_properties>  (15) 
{"0": {"label": "*1", "atom_type": "Cs"}, "1": {"label": "*0", "atom_type": "O2s"}, "4": {"label": "*2", "atom_type": "H0"}, "9": {"label": "*3", "atom_type": "Cs"}, "10": {"label": "*4", "atom_type": "Cs"}}

>  <type>  (15) 
unop_11

>  <geom_source>  (15) 
Heuristics

$$$$

     RDKit          3D

 18 16  0  0  0  0  0  0  0  0999 V2000
   -0.3483    1.6408    0.4513 C   0  0  0  0  0  3  0  0  0  0  0  0
   -1.0938    0.7949   -0.3414 O   0  0  0  0  0  0  0  0  0  0  0  0
   -1.5533   -0.3106    0.3602 N   0  0  0  0  0  0  0  0  0  0  0  0
   -2.2330   -1.1384   -0.3002 C   0  0  0  0  0  0  0  0  0  0  0  0
    0.9217    1.3191    0.4954 H   0  0  0  0  0  0  0  0  0  0  0  0
   -0.6218    1.5955    1.5035 H   0  0  0  0  0  0  0  0  0  0  0  0
   -0.3858    2.6392    0.0291 H   0  0  0  0  0  0  0  0  0  0  0  0
   -2.5977   -1.9953    0.2380 H   0  0  0  0  0  0  0  0  0  0  0  0
   -2.4660   -1.0385   -1.3562 H   0  0  0  0  0  0  0  0  0  0  0  0
    1.9880    0.9299   -0.0947 C   0  0  0  0  0  3  0  0  0  0  0  0
    1.8123   -0.4661   -0.5770 C   0  0  0  0  0  0  0  0  0  0  0  0
    1.6018   -1.4696    0.5534 C   0  0  0  0  0  0  0  0  0  0  0  0
    2.1049    1.5949   -0.9653 H   0  0  0  0  0  0  0  0  0  0  0  0
    0.9981   -0.5601   -1.3132 H   0  0  0  0  0  0  0  0  0  0  0  0
    2.7351   -0.7063   -1.1187 H   0  0  0  0  0  0  0  0  0  0  0  0
    2.4033   -1.3838    1.2827 H   0  0  0  0  0  0  0  0  0  0  0  0
    1.5865   -2.4875    0.1680 H   0  0  0  0  0  0  0  0  0  0  0  0
    0.6561   -1.2804    1.0576 H   0  0  0  0  0  0  0  0  0  0  0  0
  1  2  1  0
  1  6  1  0
  1  7  1  0
  2  3  1  0
  3  4  2  3
  4  8  1  0
  4  9  1  0
  5 10  1  0
 10 11  1  0
 10 13  1  0
 11 12  1  0
 11 14  1  0
 11 15  1  0
 12 16  1  0
 12 17  1  0
 12 18  1  0
M  RAD  2   1   2  10   2
M  END
>  <reaction>  (16) 
rmg_rxn_15565

>  <mol_properties>  (16) 
{"0": {"label": "*1", "atom_type": "Cs"}, "1": {"label": "*0", "atom_type": "O2s"}, "4": {"label": "*2", "atom_type": "H0"}, "9": {"label": "*3", "atom_type": "Cs"}, "10": {"label": "*4", "atom_type": "Cs"}}

>  <type>  (16) 
unop_12

>  <geom_source>  (16) 
Heuristics

$$$$

     RDKit          3D

 18 16  0  0  0  0  0  0  0  0999 V2000
   -1.0223    1.2121    0.1632 C   0  0  0  0  0  3  0  0  0  0  0  0
   -1.0223    1.2700   -1.2497 O   0  0  0  0  0  0  0  0  0  0  0  0
   -1.0223   -0.0039   -1.7654 N   0  0  0  0  0  0  0  0  0  0  0  0
   -1.0223   -0.0039   -3.0290 C   0  0  0  0  0  0  0  0  0  0  0  0
    0.0483    0.5999    0.6073 H   0  0  0  0  0  0  0  0  0  0  0  0
   -1.9144    0.7019    0.5334 H   0  0  0  0  0  0  0  0  0  0  0  0
   -1.0223    2.2470    0.5010 H   0  0  0  0  0  0  0  0  0  0  0  0
   -1.0223   -0.9709   -3.5138 H   0  0  0  0  0  0  0  0  0  0  0  0
   -1.0223    0.9126   -3.6152 H   0  0  0  0  0  0  0  0  0  0  0  0
    1.1085   -0.0063    1.0472 C   0  0  0  0  0  3  0  0  0  0  0  0
    0.9954   -1.2395    1.8641 C   0  0  0  0  0  0  0  0  0  0  0  0
    2.0861   -1.3749    2.9211 C   0  0  0  0  0  0  0  0  0  0  0  0
    1.7069    0.8303    1.3846 H   0  0  0  0  0  0  0  0  0  0  0  0
    0.0118   -1.2669    2.3578 H   0  0  0  0  0  0  0  0  0  0  0  0
    1.0007   -2.1183    1.2085 H   0  0  0  0  0  0  0  0  0  0  0  0
    2.0679   -0.5259    3.6079 H   0  0  0  0  0  0  0  0  0  0  0  0
    3.0742   -1.4085    2.4585 H   0  0  0  0  0  0  0  0  0  0  0  0
    1.9570   -2.2846    3.5092 H   0  0  0  0  0  0  0  0  0  0  0  0
  1  2  1  0
  1  6  1  0
  1  7  1  0
  2  3  1  0
  3  4  2  3
  4  8  1  0
  4  9  1  0
  5 10  1  0
 10 11  1  0
 10 13  1  0
 11 12  1  0
 11 14  1  0
 11 15  1  0
 12 16  1  0
 12 17  1  0
 12 18  1  0
M  RAD  2   1   2  10   2
M  END
>  <reaction>  (17) 
rmg_rxn_15565

>  <mol_properties>  (17) 
{"0": {"label": "*1", "atom_type": "Cs"}, "1": {"label": "*0", "atom_type": "O2s"}, "4": {"label": "*2", "atom_type": "H0"}, "9": {"label": "*3", "atom_type": "Cs"}, "10": {"label": "*4", "atom_type": "Cs"}}

>  <type>  (17) 
unop_13

>  <geom_source>  (17) 
Heuristics

$$$$

     RDKit          3D

 18 16  0  0  0  0  0  0  0  0999 V2000
   -0.3484   -1.6400    0.4504 C   0  0  0  0  0  3  0  0  0  0  0  0
   -1.0930   -0.7934   -0.3423 O   0  0  0  0  0  0  0  0  0  0  0  0
   -1.5563    0.3096    0.3607 N   0  0  0  0  0  0  0  0  0  0  0  0
   -2.2368    1.1371   -0.2993 C   0  0  0  0  0  0  0  0  0  0  0  0
    0.9214   -1.3178    0.4969 H   0  0  0  0  0  0  0  0  0  0  0  0
   -0.3846   -2.6378    0.0267 H   0  0  0  0  0  0  0  0  0  0  0  0
   -0.6237   -1.5964    1.5022 H   0  0  0  0  0  0  0  0  0  0  0  0
   -2.6039    1.9923    0.2397 H   0  0  0  0  0  0  0  0  0  0  0  0
   -2.4675    1.0389   -1.3560 H   0  0  0  0  0  0  0  0  0  0  0  0
    1.9888   -0.9301   -0.0923 C   0  0  0  0  0  3  0  0  0  0  0  0
    1.8148    0.4651   -0.5769 C   0  0  0  0  0  0  0  0  0  0  0  0
    1.6043    1.4707    0.5518 C   0  0  0  0  0  0  0  0  0  0  0  0
    2.1066   -1.5967   -0.9616 H   0  0  0  0  0  0  0  0  0  0  0  0
    2.7384    0.7035   -1.1180 H   0  0  0  0  0  0  0  0  0  0  0  0
    1.0014    0.5591   -1.3140 H   0  0  0  0  0  0  0  0  0  0  0  0
    2.4038    1.3830    1.2831 H   0  0  0  0  0  0  0  0  0  0  0  0
    0.6569    1.2847    1.0539 H   0  0  0  0  0  0  0  0  0  0  0  0
    1.5930    2.4882    0.1654 H   0  0  0  0  0  0  0  0  0  0  0  0
  1  2  1  0
  1  6  1  0
  1  7  1  0
  2  3  1  0
  3  4  2  3
  4  8  1  0
  4  9  1  0
  5 10  1  0
 10 11  1  0
 10 13  1  0
 11 12  1  0
 11 14  1  0
 11 15  1  0
 12 16  1  0
 12 17  1  0
 12 18  1  0
M  RAD  2   1   2  10   2
M  END
>  <reaction>  (18) 
rmg_rxn_15565

>  <mol_properties>  (18) 
{"0": {"label": "*1", "atom_type": "Cs"}, "1": {"label": "*0", "atom_type": "O2s"}, "4": {"label": "*2", "atom_type": "H0"}, "9": {"label": "*3", "atom_type": "Cs"}, "10": {"label": "*4", "atom_type": "Cs"}}

>  <type>  (18) 
unop_14

>  <geom_source>  (18) 
Heuristics

$$$$

     RDKit          3D

 18 16  0  0  0  0  0  0  0  0999 V2000
   -1.3307    0.6564    0.2606 C   0  0  0  0  0  3  0  0  0  0  0  0
   -1.3307    0.7143   -1.1523 O   0  0  0  0  0  0  0  0  0  0  0  0
   -1.3307   -0.5595   -1.6680 N   0  0  0  0  0  0  0  0  0  0  0  0
   -1.3307   -0.5595   -2.9316 C   0  0  0  0  0  0  0  0  0  0  0  0
   -0.2601    0.0442    0.7047 H   0  0  0  0  0  0  0  0  0  0  0  0
   -2.2228    0.1462    0.6307 H   0  0  0  0  0  0  0  0  0  0  0  0
   -1.3307    1.6913    0.5984 H   0  0  0  0  0  0  0  0  0  0  0  0
   -1.3307   -1.5266   -3.4165 H   0  0  0  0  0  0  0  0  0  0  0  0
   -1.3307    0.3569   -3.5178 H   0  0  0  0  0  0  0  0  0  0  0  0
    0.8002   -0.5620    1.1445 C   0  0  0  0  0  3  0  0  0  0  0  0
    2.0388    0.1961    1.4478 C   0  0  0  0  0  0  0  0  0  0  0  0
    2.5739   -0.0447    2.8552 C   0  0  0  0  0  0  0  0  0  0  0  0
    0.5089   -1.4135    1.7463 H   0  0  0  0  0  0  0  0  0  0  0  0
    2.8200   -0.0648    0.7173 H   0  0  0  0  0  0  0  0  0  0  0  0
    1.8628    1.2674    1.2942 H   0  0  0  0  0  0  0  0  0  0  0  0
    2.7931   -1.1032    3.0108 H   0  0  0  0  0  0  0  0  0  0  0  0
    1.8426    0.2584    3.6067 H   0  0  0  0  0  0  0  0  0  0  0  0
    3.4923    0.5172    3.0312 H   0  0  0  0  0  0  0  0  0  0  0  0
  1  2  1  0
  1  6  1  0
  1  7  1  0
  2  3  1  0
  3  4  2  3
  4  8  1  0
  4  9  1  0
  5 10  1  0
 10 11  1  0
 10 13  1  0
 11 12  1  0
 11 14  1  0
 11 15  1  0
 12 16  1  0
 12 17  1  0
 12 18  1  0
M  RAD  2   1   2  10   2
M  END
>  <reaction>  (19) 
rmg_rxn_15565

>  <mol_properties>  (19) 
{"0": {"label": "*1", "atom_type": "Cs"}, "1": {"label": "*0", "atom_type": "O2s"}, "4": {"label": "*2", "atom_type": "H0"}, "9": {"label": "*3", "atom_type": "Cs"}, "10": {"label": "*4", "atom_type": "Cs"}}

>  <type>  (19) 
unop_15

>  <geom_source>  (19) 
Heuristics

$$$$

     RDKit          3D

 18 16  0  0  0  0  0  0  0  0999 V2000
   -0.3473   -1.6406    0.4505 C   0  0  0  0  0  3  0  0  0  0  0  0
   -1.0924   -0.7944   -0.3422 O   0  0  0  0  0  0  0  0  0  0  0  0
   -1.5553    0.3088    0.3605 N   0  0  0  0  0  0  0  0  0  0  0  0
   -2.2345    1.1371   -0.2997 C   0  0  0  0  0  0  0  0  0  0  0  0
    0.9224   -1.3180    0.4962 H   0  0  0  0  0  0  0  0  0  0  0  0
   -0.3838   -2.6387    0.0274 H   0  0  0  0  0  0  0  0  0  0  0  0
   -0.6220   -1.5964    1.5025 H   0  0  0  0  0  0  0  0  0  0  0  0
   -2.6009    1.9928    0.2392 H   0  0  0  0  0  0  0  0  0  0  0  0
   -2.4645    1.0395   -1.3566 H   0  0  0  0  0  0  0  0  0  0  0  0
    1.9893   -0.9291   -0.0930 C   0  0  0  0  0  3  0  0  0  0  0  0
    1.8133    0.4663   -0.5766 C   0  0  0  0  0  0  0  0  0  0  0  0
    1.6003    1.4708    0.5525 C   0  0  0  0  0  0  0  0  0  0  0  0
    2.1072   -1.5948   -0.9630 H   0  0  0  0  0  0  0  0  0  0  0  0
    2.7370    0.7065   -1.1169 H   0  0  0  0  0  0  0  0  0  0  0  0
    1.0004    0.5595   -1.3142 H   0  0  0  0  0  0  0  0  0  0  0  0
    0.6538    1.2818    1.0551 H   0  0  0  0  0  0  0  0  0  0  0  0
    1.5857    2.4883    0.1664 H   0  0  0  0  0  0  0  0  0  0  0  0
    2.4005    1.3855    1.2835 H   0  0  0  0  0  0  0  0  0  0  0  0
  1  2  1  0
  1  6  1  0
  1  7  1  0
  2  3  1  0
  3  4  2  3
  4  8  1  0
  4  9  1  0
  5 10  1  0
 10 11  1  0
 10 13  1  0
 11 12  1  0
 11 14  1  0
 11 15  1  0
 12 16  1  0
 12 17  1  0
 12 18  1  0
M  RAD  2   1   2  10   2
M  END
>  <reaction>  (20) 
rmg_rxn_15565

>  <mol_properties>  (20) 
{"0": {"label": "*1", "atom_type": "Cs"}, "1": {"label": "*0", "atom_type": "O2s"}, "4": {"label": "*2", "atom_type": "H0"}, "9": {"label": "*3", "atom_type": "Cs"}, "10": {"label": "*4", "atom_type": "Cs"}}

>  <type>  (20) 
unop_16

>  <geom_source>  (20) 
Heuristics

$$$$

     RDKit          3D

 18 16  0  0  0  0  0  0  0  0999 V2000
   -1.2522    1.2535    0.6827 C   0  0  0  0  0  3  0  0  0  0  0  0
   -1.2522    1.3114   -0.7302 O   0  0  0  0  0  0  0  0  0  0  0  0
   -1.2522    0.0375   -1.2459 N   0  0  0  0  0  0  0  0  0  0  0  0
   -1.2522    0.0375   -2.5096 C   0  0  0  0  0  0  0  0  0  0  0  0
   -0.1816    0.6413    1.1268 H   0  0  0  0  0  0  0  0  0  0  0  0
   -2.1443    0.7433    1.0528 H   0  0  0  0  0  0  0  0  0  0  0  0
   -1.2522    2.2884    1.0205 H   0  0  0  0  0  0  0  0  0  0  0  0
   -1.2522   -0.9295   -2.9944 H   0  0  0  0  0  0  0  0  0  0  0  0
   -1.2522    0.9540   -3.0957 H   0  0  0  0  0  0  0  0  0  0  0  0
    0.8786    0.0351    1.5666 C   0  0  0  0  0  3  0  0  0  0  0  0
    1.5359   -1.0256    0.7642 C   0  0  0  0  0  0  0  0  0  0  0  0
    2.6742   -1.7287    1.4956 C   0  0  0  0  0  0  0  0  0  0  0  0
    0.9975    0.0719    2.6420 H   0  0  0  0  0  0  0  0  0  0  0  0
    0.7889   -1.7743    0.4588 H   0  0  0  0  0  0  0  0  0  0  0  0
    1.9039   -0.6013   -0.1775 H   0  0  0  0  0  0  0  0  0  0  0  0
    2.3152   -2.1921    2.4171 H   0  0  0  0  0  0  0  0  0  0  0  0
    3.4609   -1.0208    1.7630 H   0  0  0  0  0  0  0  0  0  0  0  0
    3.1185   -2.5107    0.8782 H   0  0  0  0  0  0  0  0  0  0  0  0
  1  2  1  0
  1  6  1  0
  1  7  1  0
  2  3  1  0
  3  4  2  3
  4  8  1  0
  4  9  1  0
  5 10  1  0
 10 11  1  0
 10 13  1  0
 11 12  1  0
 11 14  1  0
 11 15  1  0
 12 16  1  0
 12 17  1  0
 12 18  1  0
M  RAD  2   1   2  10   2
M  END
>  <reaction>  (21) 
rmg_rxn_15565

>  <mol_properties>  (21) 
{"0": {"label": "*1", "atom_type": "Cs"}, "1": {"label": "*0", "atom_type": "O2s"}, "4": {"label": "*2", "atom_type": "H0"}, "9": {"label": "*3", "atom_type": "Cs"}, "10": {"label": "*4", "atom_type": "Cs"}}

>  <type>  (21) 
unop_17

>  <geom_source>  (21) 
Heuristics

$$$$

     RDKit          3D

 18 16  0  0  0  0  0  0  0  0999 V2000
   -1.4261    0.6887    0.4671 C   0  0  0  0  0  3  0  0  0  0  0  0
   -1.4261    0.7466   -0.9458 O   0  0  0  0  0  0  0  0  0  0  0  0
   -1.4261   -0.5272   -1.4615 N   0  0  0  0  0  0  0  0  0  0  0  0
   -1.4261   -0.5272   -2.7251 C   0  0  0  0  0  0  0  0  0  0  0  0
   -0.3555    0.0766    0.9112 H   0  0  0  0  0  0  0  0  0  0  0  0
   -2.3182    0.1785    0.8372 H   0  0  0  0  0  0  0  0  0  0  0  0
   -1.4261    1.7236    0.8049 H   0  0  0  0  0  0  0  0  0  0  0  0
   -1.4261   -1.4943   -3.2100 H   0  0  0  0  0  0  0  0  0  0  0  0
   -1.4261    0.3892   -3.3113 H   0  0  0  0  0  0  0  0  0  0  0  0
    0.7047   -0.5297    1.3511 C   0  0  0  0  0  3  0  0  0  0  0  0
    2.0599   -0.0068    1.0494 C   0  0  0  0  0  0  0  0  0  0  0  0
    2.9993   -0.0137    2.2504 C   0  0  0  0  0  0  0  0  0  0  0  0
    0.5248   -1.1291    2.2344 H   0  0  0  0  0  0  0  0  0  0  0  0
    2.5114   -0.5969    0.2371 H   0  0  0  0  0  0  0  0  0  0  0  0
    1.9816    1.0087    0.6433 H   0  0  0  0  0  0  0  0  0  0  0  0
    3.1201   -1.0259    2.6422 H   0  0  0  0  0  0  0  0  0  0  0  0
    2.6067    0.6107    3.0551 H   0  0  0  0  0  0  0  0  0  0  0  0
    3.9877    0.3622    1.9823 H   0  0  0  0  0  0  0  0  0  0  0  0
  1  2  1  0
  1  6  1  0
  1  7  1  0
  2  3  1  0
  3  4  2  3
  4  8  1  0
  4  9  1  0
  5 10  1  0
 10 11  1  0
 10 13  1  0
 11 12  1  0
 11 14  1  0
 11 15  1  0
 12 16  1  0
 12 17  1  0
 12 18  1  0
M  RAD  2   1   2  10   2
M  END
>  <reaction>  (22) 
rmg_rxn_15565

>  <mol_properties>  (22) 
{"0": {"label": "*1", "atom_type": "Cs"}, "1": {"label": "*0", "atom_type": "O2s"}, "4": {"label": "*2", "atom_type": "H0"}, "9": {"label": "*3", "atom_type": "Cs"}, "10": {"label": "*4", "atom_type": "Cs"}}

>  <type>  (22) 
unop_18

>  <geom_source>  (22) 
Heuristics

$$$$

     RDKit          3D

 18 16  0  0  0  0  0  0  0  0999 V2000
   -1.0888    1.0736    0.0915 C   0  0  0  0  0  3  0  0  0  0  0  0
   -1.0888    1.1315   -1.3213 O   0  0  0  0  0  0  0  0  0  0  0  0
   -1.0888   -0.1424   -1.8371 N   0  0  0  0  0  0  0  0  0  0  0  0
   -1.0888   -0.1424   -3.1007 C   0  0  0  0  0  0  0  0  0  0  0  0
   -0.0182    0.4614    0.5357 H   0  0  0  0  0  0  0  0  0  0  0  0
   -1.9809    0.5634    0.4617 H   0  0  0  0  0  0  0  0  0  0  0  0
   -1.0888    2.1085    0.4294 H   0  0  0  0  0  0  0  0  0  0  0  0
   -1.0888   -1.1094   -3.5855 H   0  0  0  0  0  0  0  0  0  0  0  0
   -1.0888    0.7741   -3.6868 H   0  0  0  0  0  0  0  0  0  0  0  0
    1.0420   -0.1448    0.9755 C   0  0  0  0  0  3  0  0  0  0  0  0
    1.0092   -0.9076    2.2475 C   0  0  0  0  0  0  0  0  0  0  0  0
    2.3718   -1.0340    2.9201 C   0  0  0  0  0  0  0  0  0  0  0  0
    1.8773    0.5011    0.7368 H   0  0  0  0  0  0  0  0  0  0  0  0
    0.3066   -0.4293    2.9472 H   0  0  0  0  0  0  0  0  0  0  0  0
    0.5876   -1.9040    2.0695 H   0  0  0  0  0  0  0  0  0  0  0  0
    2.7878   -0.0487    3.1413 H   0  0  0  0  0  0  0  0  0  0  0  0
    3.0784   -1.5565    2.2726 H   0  0  0  0  0  0  0  0  0  0  0  0
    2.3008   -1.5862    3.8582 H   0  0  0  0  0  0  0  0  0  0  0  0
  1  2  1  0
  1  6  1  0
  1  7  1  0
  2  3  1  0
  3  4  2  3
  4  8  1  0
  4  9  1  0
  5 10  1  0
 10 11  1  0
 10 13  1  0
 11 12  1  0
 11 14  1  0
 11 15  1  0
 12 16  1  0
 12 17  1  0
 12 18  1  0
M  RAD  2   1   2  10   2
M  END
>  <reaction>  (23) 
rmg_rxn_15565

>  <mol_properties>  (23) 
{"0": {"label": "*1", "atom_type": "Cs"}, "1": {"label": "*0", "atom_type": "O2s"}, "4": {"label": "*2", "atom_type": "H0"}, "9": {"label": "*3", "atom_type": "Cs"}, "10": {"label": "*4", "atom_type": "Cs"}}

>  <type>  (23) 
unop_19

>  <geom_source>  (23) 
Heuristics

$$$$

     RDKit          3D

 18 16  0  0  0  0  0  0  0  0999 V2000
   -1.3823    1.0570    0.7311 C   0  0  0  0  0  3  0  0  0  0  0  0
   -1.3823    1.1149   -0.6817 O   0  0  0  0  0  0  0  0  0  0  0  0
   -1.3823   -0.1590   -1.1975 N   0  0  0  0  0  0  0  0  0  0  0  0
   -1.3823   -0.1590   -2.4611 C   0  0  0  0  0  0  0  0  0  0  0  0
   -0.3117    0.4448    1.1753 H   0  0  0  0  0  0  0  0  0  0  0  0
   -2.2744    0.5468    1.1013 H   0  0  0  0  0  0  0  0  0  0  0  0
   -1.3823    2.0919    1.0690 H   0  0  0  0  0  0  0  0  0  0  0  0
   -1.3823   -1.1260   -2.9459 H   0  0  0  0  0  0  0  0  0  0  0  0
   -1.3823    0.7575   -3.0472 H   0  0  0  0  0  0  0  0  0  0  0  0
    0.7485   -0.1614    1.6151 C   0  0  0  0  0  3  0  0  0  0  0  0
    1.7680   -0.6885    0.6751 C   0  0  0  0  0  0  0  0  0  0  0  0
    3.0649   -1.1137    1.3550 C   0  0  0  0  0  0  0  0  0  0  0  0
    0.8178   -0.3588    2.6773 H   0  0  0  0  0  0  0  0  0  0  0  0
    1.3538   -1.5467    0.1238 H   0  0  0  0  0  0  0  0  0  0  0  0
    1.9803    0.0604   -0.0971 H   0  0  0  0  0  0  0  0  0  0  0  0
    2.8758   -1.8897    2.0998 H   0  0  0  0  0  0  0  0  0  0  0  0
    3.5320   -0.2690    1.8649 H   0  0  0  0  0  0  0  0  0  0  0  0
    3.7797   -1.5097    0.6323 H   0  0  0  0  0  0  0  0  0  0  0  0
  1  2  1  0
  1  6  1  0
  1  7  1  0
  2  3  1  0
  3  4  2  3
  4  8  1  0
  4  9  1  0
  5 10  1  0
 10 11  1  0
 10 13  1  0
 11 12  1  0
 11 14  1  0
 11 15  1  0
 12 16  1  0
 12 17  1  0
 12 18  1  0
M  RAD  2   1   2  10   2
M  END
>  <reaction>  (24) 
rmg_rxn_15565

>  <mol_properties>  (24) 
{"0": {"label": "*1", "atom_type": "Cs"}, "1": {"label": "*0", "atom_type": "O2s"}, "4": {"label": "*2", "atom_type": "H0"}, "9": {"label": "*3", "atom_type": "Cs"}, "10": {"label": "*4", "atom_type": "Cs"}}

>  <type>  (24) 
unop_20

>  <geom_source>  (24) 
Heuristics

$$$$

     RDKit          3D

 18 16  0  0  0  0  0  0  0  0999 V2000
    2.0401   -0.5964   -1.0412 O   0  0  0  0  0  0  0  0  0  0  0  0
    3.3450   -0.1343   -0.9677 N   0  0  0  0  0  0  0  0  0  0  0  0
   -2.3101   -0.1468    0.5959 C   0  0  0  0  0  0  0  0  0  0  0  0
   -2.5567    0.9513   -0.4330 C   0  0  0  0  0  0  0  0  0  0  0  0
   -1.3538   -1.2014    0.0570 C   0  0  0  0  0  3  0  0  0  0  0  0
    1.1367   -0.5896    0.0607 C   0  0  0  0  0  3  0  0  0  0  0  0
    3.8956    0.3548    0.1008 C   0  0  0  0  0  0  0  0  0  0  0  0
   -3.2743   -0.6304    0.8612 H   0  0  0  0  0  0  0  0  0  0  0  0
   -1.8742    0.2992    1.5149 H   0  0  0  0  0  0  0  0  0  0  0  0
   -1.6029    1.4577   -0.6935 H   0  0  0  0  0  0  0  0  0  0  0  0
   -3.2551    1.7047   -0.0116 H   0  0  0  0  0  0  0  0  0  0  0  0
   -3.0087    0.5235   -1.3533 H   0  0  0  0  0  0  0  0  0  0  0  0
   -1.7798   -1.6973   -0.8412 H   0  0  0  0  0  0  0  0  0  0  0  0
   -0.1704   -0.6502   -0.2424 H   0  0  0  0  0  0  0  0  0  0  0  0
    0.9622    0.4495    0.4105 H   0  0  0  0  0  0  0  0  0  0  0  0
    1.5278   -1.2229    0.8846 H   0  0  0  0  0  0  0  0  0  0  0  0
    4.9224    0.6917    0.0640 H   0  0  0  0  0  0  0  0  0  0  0  0
    3.3562    0.4370    1.0343 H   0  0  0  0  0  0  0  0  0  0  0  0
  1  6  1  0
  1  2  1  0
  2  7  2  3
  3  5  1  0
  3  4  1  0
  3  8  1  0
  3  9  1  0
  4 10  1  0
  4 11  1  0
  4 12  1  0
  5 13  1  0
  5 14  1  0
  6 15  1  0
  6 16  1  0
  7 17  1  0
  7 18  1  0
M  RAD  2   5   2   6   2
M  END
>  <reaction>  (25) 
rmg_rxn_15565

>  <mol_properties>  (25) 
{"0": {"label": "*1", "atom_type": "Cs"}, "1": {"label": "*0", "atom_type": "O2s"}, "4": {"label": "*2", "atom_type": "H0"}, "9": {"label": "*3", "atom_type": "Cs"}, "10": {"label": "*4", "atom_type": "Cs"}}

>  <type>  (25) 
unop_21

>  <geom_source>  (25) 
AutoTST

$$$$

     RDKit          3D

 18 16  0  0  0  0  0  0  0  0999 V2000
   -1.4483    0.8394    0.6475 C   0  0  0  0  0  3  0  0  0  0  0  0
   -1.4484    0.8973   -0.7654 O   0  0  0  0  0  0  0  0  0  0  0  0
   -1.4484   -0.3766   -1.2811 N   0  0  0  0  0  0  0  0  0  0  0  0
   -1.4484   -0.3766   -2.5447 C   0  0  0  0  0  0  0  0  0  0  0  0
   -0.3777    0.2272    1.0916 H   0  0  0  0  0  0  0  0  0  0  0  0
   -2.3405    0.3292    1.0176 H   0  0  0  0  0  0  0  0  0  0  0  0
   -1.4484    1.8743    0.9853 H   0  0  0  0  0  0  0  0  0  0  0  0
   -1.4484   -1.3436   -3.0296 H   0  0  0  0  0  0  0  0  0  0  0  0
   -1.4484    0.5399   -3.1309 H   0  0  0  0  0  0  0  0  0  0  0  0
    0.6825   -0.3790    1.5314 C   0  0  0  0  0  3  0  0  0  0  0  0
    1.9574   -0.3265    0.7747 C   0  0  0  0  0  0  0  0  0  0  0  0
    3.1968   -0.4268    1.6571 C   0  0  0  0  0  0  0  0  0  0  0  0
    0.6533   -0.7597    2.5445 H   0  0  0  0  0  0  0  0  0  0  0  0
    1.9796   -1.1381    0.0312 H   0  0  0  0  0  0  0  0  0  0  0  0
    1.9964    0.5943    0.1807 H   0  0  0  0  0  0  0  0  0  0  0  0
    3.1934   -1.3591    2.2259 H   0  0  0  0  0  0  0  0  0  0  0  0
    3.2346    0.3987    2.3704 H   0  0  0  0  0  0  0  0  0  0  0  0
    4.1104   -0.4009    1.0615 H   0  0  0  0  0  0  0  0  0  0  0  0
  1  2  1  0
  1  6  1  0
  1  7  1  0
  2  3  1  0
  3  4  2  3
  4  8  1  0
  4  9  1  0
  5 10  1  0
 10 11  1  0
 10 13  1  0
 11 12  1  0
 11 14  1  0
 11 15  1  0
 12 16  1  0
 12 17  1  0
 12 18  1  0
M  RAD  2   1   2  10   2
M  END
>  <reaction>  (26) 
rmg_rxn_15565

>  <mol_properties>  (26) 
{"0": {"label": "*1", "atom_type": "Cs"}, "1": {"label": "*0", "atom_type": "O2s"}, "4": {"label": "*2", "atom_type": "H0"}, "9": {"label": "*3", "atom_type": "Cs"}, "10": {"label": "*4", "atom_type": "Cs"}}

>  <type>  (26) 
unop_22

>  <geom_source>  (26) 
gaussian_log

$$$$
