
     RDKit          3D

  9  8  0  0  0  0  0  0  0  0999 V2000
   -1.2461    0.5037    0.0950 C   0  0  0  0  0  0  0  0  0  0  0  0
   -0.0155   -0.3334    0.0640 C   0  0  0  0  0  0  0  0  0  0  0  0
    1.0697    0.1457   -0.3733 N   0  0  0  0  0  0  0  0  0  0  0  0
    2.1001   -0.7834   -0.3224 O   0  0  0  0  0  0  0  0  0  0  0  0
   -2.0357    0.0440   -0.5039 H   0  0  0  0  0  0  0  0  0  0  0  0
   -1.6237    0.5897    1.1166 H   0  0  0  0  0  0  0  0  0  0  0  0
   -1.0397    1.4998   -0.2929 H   0  0  0  0  0  0  0  0  0  0  0  0
   -0.0537   -1.3634    0.4205 H   0  0  0  0  0  0  0  0  0  0  0  0
    2.8478   -0.2985   -0.6758 H   0  0  0  0  0  0  0  0  0  0  0  0
  1  2  1  0
  1  5  1  0
  1  6  1  0
  1  7  1  0
  2  3  2  3
  2  8  1  0
  3  4  1  0
  4  9  1  0
M  END
>  <reaction>  (1) 
rmg_rxn_16501

>  <mol_properties>  (1) 
{"3": {"label": "donator", "atom_type": "O2s"}, "8": {"label": "d_hydrogen", "atom_type": "H0"}}

>  <type>  (1) 
r1h

$$$$

     RDKit          3D

  7  6  0  0  0  0  0  0  0  0999 V2000
   -0.6441   -0.1356    0.0624 C   0  0  0  0  0  0  0  0  0  0  0  0
    0.8523    0.0148   -0.0333 C   0  0  0  0  0  0  0  0  0  0  0  0
    1.6700   -0.6077    0.6603 N   0  0  0  0  0  2  0  0  0  0  0  0
   -1.0940    0.8275    0.3091 H   0  0  0  0  0  0  0  0  0  0  0  0
   -0.9104   -0.8656    0.8237 H   0  0  0  0  0  0  0  0  0  0  0  0
   -1.0427   -0.4545   -0.9022 H   0  0  0  0  0  0  0  0  0  0  0  0
    1.2362    0.7308   -0.7748 H   0  0  0  0  0  0  0  0  0  0  0  0
  1  2  1  0
  1  4  1  0
  1  5  1  0
  1  6  1  0
  2  3  2  0
  2  7  1  0
M  RAD  1   3   2
M  END
>  <reaction>  (2) 
rmg_rxn_16501

>  <mol_properties>  (2) 
{"2": {"label": "acceptor", "atom_type": "N3d"}}

>  <type>  (2) 
r2

$$$$

     RDKit          3D

  8  7  0  0  0  0  0  0  0  0999 V2000
    0.9548    0.1194   -0.0790 C   0  0  0  0  0  0  0  0  0  0  0  0
   -0.4838   -0.2649    0.0193 C   0  0  0  0  0  0  0  0  0  0  0  0
   -0.8933   -1.1081    0.8664 N   0  0  0  0  0  0  0  0  0  0  0  0
    1.3360   -0.0983   -1.0800 H   0  0  0  0  0  0  0  0  0  0  0  0
    1.0698    1.1948    0.0786 H   0  0  0  0  0  0  0  0  0  0  0  0
    1.5426   -0.4219    0.6602 H   0  0  0  0  0  0  0  0  0  0  0  0
   -1.1575    0.2324   -0.6905 H   0  0  0  0  0  0  0  0  0  0  0  0
   -1.8989   -1.2455    0.7886 H   0  0  0  0  0  0  0  0  0  0  0  0
  1  2  1  0
  1  4  1  0
  1  5  1  0
  1  6  1  0
  2  3  2  3
  2  7  1  0
  3  8  1  0
M  END
>  <reaction>  (3) 
rmg_rxn_16501

>  <mol_properties>  (3) 
{"2": {"label": "acceptor", "atom_type": "N3d"}, "7": {"label": "a_hydrogen", "atom_type": "H0"}}

>  <type>  (3) 
r2h

$$$$

     RDKit          3D

 16 14  0  0  0  0  0  0  0  0999 V2000
   -0.8336    2.2893    2.1915 C   0  0  0  0  0  0  0  0  0  0  0  0
   -0.1167    1.1453    1.5396 C   0  0  0  0  0  3  0  0  0  0  0  0
    0.8737    0.5663    2.0191 N   0  0  0  0  0  2  0  0  0  0  0  0
   -0.3722    2.5475    3.1420 H   0  0  0  0  0  0  0  0  0  0  0  0
   -1.8791    2.0195    2.3514 H   0  0  0  0  0  0  0  0  0  0  0  0
   -0.8161    3.1552    1.5270 H   0  0  0  0  0  0  0  0  0  0  0  0
   -0.4940    0.7869    0.5593 H   0  0  0  0  0  0  0  0  0  0  0  0
   -0.6322   -1.3685   -2.5883 C   0  0  0  0  0  0  0  0  0  0  0  0
    0.4152   -1.5988   -1.5551 C   0  0  0  0  0  3  0  0  0  0  0  0
    0.4603   -0.8815   -0.5086 N   0  0  0  0  0  2  0  0  0  0  0  0
    1.3993   -1.1181    0.3762 O   0  0  0  0  0  1  0  0  0  0  0  0
   -0.1774   -1.1315   -3.5532 H   0  0  0  0  0  0  0  0  0  0  0  0
   -1.2392   -2.2660   -2.7297 H   0  0  0  0  0  0  0  0  0  0  0  0
   -1.2838   -0.5462   -2.2956 H   0  0  0  0  0  0  0  0  0  0  0  0
    1.1500   -2.3904   -1.6981 H   0  0  0  0  0  0  0  0  0  0  0  0
    1.2560   -0.3162    1.2962 H   0  0  0  0  0  0  0  0  0  0  0  0
  1  4  1  0
  1  2  1  0
  1  6  1  0
  1  5  1  0
  2  7  1  0
  2  3  1  0
  3 16  1  0
  8 13  1  0
  8  9  1  0
  8 12  1  0
  8 14  1  0
  9 15  1  0
  9 10  1  0
 10 11  1  0
M  RAD  5   2   2   3   2   9   2  10   2  11   2
M  END
>  <reaction>  (4) 
rmg_rxn_16501

>  <mol_properties>  (4) 
{"1": {"label": "*0", "atom_type": "Cs"}, "2": {"label": "*1", "atom_type": "N3s"}, "9": {"label": "*4", "atom_type": "N3s"}, "10": {"label": "*3", "atom_type": "O2s"}, "15": {"label": "*2", "atom_type": "H0"}}

>  <type>  (4) 
ts

$$$$

     RDKit          3D

 16 14  0  0  0  0  0  0  0  0999 V2000
   -2.9163   -1.2149   -0.0002 C   0  0  0  0  0  0  0  0  0  0  0  0
   -1.7437   -0.2890   -0.0001 C   0  0  0  0  0  3  0  0  0  0  0  0
   -1.7942    0.9452    0.0003 N   0  0  0  0  0  2  0  0  0  0  0  0
   -2.8748   -1.8520    0.8819 H   0  0  0  0  0  0  0  0  0  0  0  0
   -2.8746   -1.8520   -0.8823 H   0  0  0  0  0  0  0  0  0  0  0  0
   -3.8433   -0.6485   -0.0003 H   0  0  0  0  0  0  0  0  0  0  0  0
   -0.7538   -0.7993   -0.0001 H   0  0  0  0  0  0  0  0  0  0  0  0
    2.6470   -1.3930    0.0001 C   0  0  0  0  0  0  0  0  0  0  0  0
    2.2263    0.0328   -0.0003 C   0  0  0  0  0  3  0  0  0  0  0  0
    1.0027    0.3367    0.0004 N   0  0  0  0  0  2  0  0  0  0  0  0
    0.5162    1.5438   -0.0002 O   0  0  0  0  0  1  0  0  0  0  0  0
    3.2534   -1.6022   -0.8803 H   0  0  0  0  0  0  0  0  0  0  0  0
    3.2558   -1.6008    0.8793 H   0  0  0  0  0  0  0  0  0  0  0  0
    1.7809   -2.0490    0.0018 H   0  0  0  0  0  0  0  0  0  0  0  0
    3.0097    0.7922   -0.0015 H   0  0  0  0  0  0  0  0  0  0  0  0
   -0.6895    1.4222    0.0002 H   0  0  0  0  0  0  0  0  0  0  0  0
  1  4  1  0
  1  2  1  0
  1  5  1  0
  1  6  1  0
  2  3  1  0
  2  7  1  0
  3 16  1  0
  8 14  1  0
  8 12  1  0
  8 13  1  0
  8  9  1  0
  9 10  1  0
  9 15  1  0
 10 11  1  0
M  RAD  5   2   2   3   2   9   2  10   2  11   2
M  END
>  <reaction>  (5) 
rmg_rxn_16501

>  <mol_properties>  (5) 
{"1": {"label": "*0", "atom_type": "Cs"}, "2": {"label": "*1", "atom_type": "N3s"}, "9": {"label": "*4", "atom_type": "N3s"}, "10": {"label": "*3", "atom_type": "O2s"}, "15": {"label": "*2", "atom_type": "H0"}}

>  <type>  (5) 
unop_1

>  <geom_source>  (5) 
crest_best.xyz

$$$$

     RDKit          3D

 16 14  0  0  0  0  0  0  0  0999 V2000
   -0.6607    2.2777    3.0936 C   0  0  0  0  0  0  0  0  0  0  0  0
   -0.7400    1.5416    1.7979 C   0  0  0  0  0  0  0  0  0  0  0  0
    0.2812    1.3368    1.0827 N   0  0  0  0  0  2  0  0  0  0  0  0
   -1.3061    3.1595    3.0668 H   0  0  0  0  0  0  0  0  0  0  0  0
    0.3649    2.5831    3.2934 H   0  0  0  0  0  0  0  0  0  0  0  0
   -1.0195    1.6453    3.9096 H   0  0  0  0  0  0  0  0  0  0  0  0
   -1.7403    1.1924    1.5108 H   0  0  0  0  0  0  0  0  0  0  0  0
    0.2812   -1.7561   -3.2888 C   0  0  0  0  0  0  0  0  0  0  0  0
    0.2812   -1.7561   -1.8002 C   0  0  0  0  0  0  0  0  0  0  0  0
    0.2812   -0.6640   -1.1634 N   0  0  0  0  0  0  0  0  0  0  0  0
    0.2812   -0.8687    0.2098 O   0  0  0  0  0  0  0  0  0  0  0  0
    1.1606   -2.2799   -3.6706 H   0  0  0  0  0  0  0  0  0  0  0  0
   -0.5982   -2.2799   -3.6706 H   0  0  0  0  0  0  0  0  0  0  0  0
    0.2812   -0.7364   -3.6702 H   0  0  0  0  0  0  0  0  0  0  0  0
    0.2812   -2.7036   -1.2600 H   0  0  0  0  0  0  0  0  0  0  0  0
    0.2812    0.2010    0.6332 H   0  0  0  0  0  0  0  0  0  0  0  0
  1  2  1  0
  1  4  1  0
  1  5  1  0
  1  6  1  0
  2  3  2  0
  2  7  1  0
  8  9  1  0
  8 12  1  0
  8 13  1  0
  8 14  1  0
  9 10  2  3
  9 15  1  0
 10 11  1  0
 11 16  1  0
M  RAD  1   3   2
M  END
>  <reaction>  (6) 
rmg_rxn_16501

>  <mol_properties>  (6) 
{"1": {"label": "*0", "atom_type": "Cs"}, "2": {"label": "*1", "atom_type": "N3s"}, "9": {"label": "*4", "atom_type": "N3s"}, "10": {"label": "*3", "atom_type": "O2s"}, "15": {"label": "*2", "atom_type": "H0"}}

>  <type>  (6) 
unop_2

>  <geom_source>  (6) 
Heuristics

$$$$

     RDKit          3D

 16 14  0  0  0  0  0  0  0  0999 V2000
   -0.8550    3.2011    1.3150 C   0  0  0  0  0  0  0  0  0  0  0  0
   -0.3445    1.8768    0.8540 C   0  0  0  0  0  0  0  0  0  0  0  0
    0.2451    1.0792    1.6366 N   0  0  0  0  0  2  0  0  0  0  0  0
   -0.3921    4.0057    0.7380 H   0  0  0  0  0  0  0  0  0  0  0  0
   -0.6408    3.3420    2.3730 H   0  0  0  0  0  0  0  0  0  0  0  0
   -1.9330    3.2690    1.1480 H   0  0  0  0  0  0  0  0  0  0  0  0
   -0.5154    1.6448   -0.2052 H   0  0  0  0  0  0  0  0  0  0  0  0
    0.2451   -2.0136   -2.7349 C   0  0  0  0  0  0  0  0  0  0  0  0
    0.2451   -2.0136   -1.2463 C   0  0  0  0  0  0  0  0  0  0  0  0
    0.2451   -0.9216   -0.6095 N   0  0  0  0  0  0  0  0  0  0  0  0
    0.2451   -1.1262    0.7637 O   0  0  0  0  0  0  0  0  0  0  0  0
    1.1245   -2.5375   -3.1167 H   0  0  0  0  0  0  0  0  0  0  0  0
   -0.6343   -2.5375   -3.1167 H   0  0  0  0  0  0  0  0  0  0  0  0
    0.2451   -0.9939   -3.1163 H   0  0  0  0  0  0  0  0  0  0  0  0
    0.2451   -2.9612   -0.7061 H   0  0  0  0  0  0  0  0  0  0  0  0
    0.2451   -0.0566    1.1871 H   0  0  0  0  0  0  0  0  0  0  0  0
  1  2  1  0
  1  4  1  0
  1  5  1  0
  1  6  1  0
  2  3  2  0
  2  7  1  0
  8  9  1  0
  8 12  1  0
  8 13  1  0
  8 14  1  0
  9 10  2  3
  9 15  1  0
 10 11  1  0
 11 16  1  0
M  RAD  1   3   2
M  END
>  <reaction>  (7) 
rmg_rxn_16501

>  <mol_properties>  (7) 
{"1": {"label": "*0", "atom_type": "Cs"}, "2": {"label": "*1", "atom_type": "N3s"}, "9": {"label": "*4", "atom_type": "N3s"}, "10": {"label": "*3", "atom_type": "O2s"}, "15": {"label": "*2", "atom_type": "H0"}}

>  <type>  (7) 
unop_3

>  <geom_source>  (7) 
Heuristics

$$$$

     RDKit          3D

 16 14  0  0  0  0  0  0  0  0999 V2000
   -0.0856    2.3669    3.1792 C   0  0  0  0  0  0  0  0  0  0  0  0
   -0.4790    1.3929    2.1191 C   0  0  0  0  0  0  0  0  0  0  0  0
    0.1107    1.3470    1.0026 N   0  0  0  0  0  2  0  0  0  0  0  0
   -0.9344    3.0045    3.4396 H   0  0  0  0  0  0  0  0  0  0  0  0
    0.7426    2.9849    2.8370 H   0  0  0  0  0  0  0  0  0  0  0  0
    0.2055    1.8367    4.0896 H   0  0  0  0  0  0  0  0  0  0  0  0
   -1.3105    0.7235    2.3745 H   0  0  0  0  0  0  0  0  0  0  0  0
    0.1107   -1.7459   -3.3689 C   0  0  0  0  0  0  0  0  0  0  0  0
    0.1107   -1.7459   -1.8802 C   0  0  0  0  0  0  0  0  0  0  0  0
    0.1107   -0.6538   -1.2435 N   0  0  0  0  0  0  0  0  0  0  0  0
    0.1107   -0.8585    0.1297 O   0  0  0  0  0  0  0  0  0  0  0  0
    0.9901   -2.2697   -3.7507 H   0  0  0  0  0  0  0  0  0  0  0  0
   -0.7688   -2.2697   -3.7507 H   0  0  0  0  0  0  0  0  0  0  0  0
    0.1107   -0.7262   -3.7503 H   0  0  0  0  0  0  0  0  0  0  0  0
    0.1106   -2.6934   -1.3401 H   0  0  0  0  0  0  0  0  0  0  0  0
    0.1107    0.2112    0.5531 H   0  0  0  0  0  0  0  0  0  0  0  0
  1  2  1  0
  1  4  1  0
  1  5  1  0
  1  6  1  0
  2  3  2  0
  2  7  1  0
  8  9  1  0
  8 12  1  0
  8 13  1  0
  8 14  1  0
  9 10  2  3
  9 15  1  0
 10 11  1  0
 11 16  1  0
M  RAD  1   3   2
M  END
>  <reaction>  (8) 
rmg_rxn_16501

>  <mol_properties>  (8) 
{"1": {"label": "*0", "atom_type": "Cs"}, "2": {"label": "*1", "atom_type": "N3s"}, "9": {"label": "*4", "atom_type": "N3s"}, "10": {"label": "*3", "atom_type": "O2s"}, "15": {"label": "*2", "atom_type": "H0"}}

>  <type>  (8) 
unop_4

>  <geom_source>  (8) 
Heuristics

$$$$

     RDKit          3D

 16 14  0  0  0  0  0  0  0  0999 V2000
    1.2864    2.8342    1.9428 C   0  0  0  0  0  0  0  0  0  0  0  0
    0.6307    1.8078    1.0805 C   0  0  0  0  0  0  0  0  0  0  0  0
   -0.3905    1.1691    1.4618 N   0  0  0  0  0  2  0  0  0  0  0  0
    2.3288    2.5621    2.1272 H   0  0  0  0  0  0  0  0  0  0  0  0
    0.7602    2.9238    2.8915 H   0  0  0  0  0  0  0  0  0  0  0  0
    1.2949    3.8029    1.4365 H   0  0  0  0  0  0  0  0  0  0  0  0
    1.0937    1.6470    0.0984 H   0  0  0  0  0  0  0  0  0  0  0  0
   -0.3905   -1.9237   -2.9098 C   0  0  0  0  0  0  0  0  0  0  0  0
   -0.3905   -1.9237   -1.4211 C   0  0  0  0  0  0  0  0  0  0  0  0
   -0.3905   -0.8317   -0.7843 N   0  0  0  0  0  0  0  0  0  0  0  0
   -0.3905   -1.0363    0.5889 O   0  0  0  0  0  0  0  0  0  0  0  0
    0.4889   -2.4476   -3.2916 H   0  0  0  0  0  0  0  0  0  0  0  0
   -1.2700   -2.4476   -3.2916 H   0  0  0  0  0  0  0  0  0  0  0  0
   -0.3905   -0.9041   -3.2912 H   0  0  0  0  0  0  0  0  0  0  0  0
   -0.3905   -2.8713   -0.8810 H   0  0  0  0  0  0  0  0  0  0  0  0
   -0.3905    0.0333    1.0122 H   0  0  0  0  0  0  0  0  0  0  0  0
  1  2  1  0
  1  4  1  0
  1  5  1  0
  1  6  1  0
  2  3  2  0
  2  7  1  0
  8  9  1  0
  8 12  1  0
  8 13  1  0
  8 14  1  0
  9 10  2  3
  9 15  1  0
 10 11  1  0
 11 16  1  0
M  RAD  1   3   2
M  END
>  <reaction>  (9) 
rmg_rxn_16501

>  <mol_properties>  (9) 
{"1": {"label": "*0", "atom_type": "Cs"}, "2": {"label": "*1", "atom_type": "N3s"}, "9": {"label": "*4", "atom_type": "N3s"}, "10": {"label": "*3", "atom_type": "O2s"}, "15": {"label": "*2", "atom_type": "H0"}}

>  <type>  (9) 
unop_5

>  <geom_source>  (9) 
Heuristics

$$$$

     RDKit          3D

 16 14  0  0  0  0  0  0  0  0999 V2000
    0.0000    2.5683    3.0633 C   0  0  0  0  0  0  0  0  0  0  0  0
    0.0000    1.3090    2.2624 C   0  0  0  0  0  0  0  0  0  0  0  0
    0.0000    1.3212    0.9990 N   0  0  0  0  0  2  0  0  0  0  0  0
   -0.8783    2.6023    3.7130 H   0  0  0  0  0  0  0  0  0  0  0  0
    0.0000    3.4354    2.4052 H   0  0  0  0  0  0  0  0  0  0  0  0
    0.8783    2.6023    3.7130 H   0  0  0  0  0  0  0  0  0  0  0  0
   -0.0000    0.3774    2.8429 H   0  0  0  0  0  0  0  0  0  0  0  0
   -0.0000   -1.7716   -3.3725 C   0  0  0  0  0  0  0  0  0  0  0  0
   -0.0000   -1.7716   -1.8838 C   0  0  0  0  0  0  0  0  0  0  0  0
   -0.0000   -0.6795   -1.2470 N   0  0  0  0  0  0  0  0  0  0  0  0
   -0.0000   -0.8842    0.1262 O   0  0  0  0  0  0  0  0  0  0  0  0
    0.8794   -2.2954   -3.7543 H   0  0  0  0  0  0  0  0  0  0  0  0
   -0.8794   -2.2954   -3.7543 H   0  0  0  0  0  0  0  0  0  0  0  0
   -0.0000   -0.7519   -3.7539 H   0  0  0  0  0  0  0  0  0  0  0  0
   -0.0000   -2.7191   -1.3437 H   0  0  0  0  0  0  0  0  0  0  0  0
   -0.0000    0.1854    0.5495 H   0  0  0  0  0  0  0  0  0  0  0  0
  1  2  1  0
  1  4  1  0
  1  5  1  0
  1  6  1  0
  2  3  2  0
  2  7  1  0
  8  9  1  0
  8 12  1  0
  8 13  1  0
  8 14  1  0
  9 10  2  3
  9 15  1  0
 10 11  1  0
 11 16  1  0
M  RAD  1   3   2
M  END
>  <reaction>  (10) 
rmg_rxn_16501

>  <mol_properties>  (10) 
{"1": {"label": "*0", "atom_type": "Cs"}, "2": {"label": "*1", "atom_type": "N3s"}, "9": {"label": "*4", "atom_type": "N3s"}, "10": {"label": "*3", "atom_type": "O2s"}, "15": {"label": "*2", "atom_type": "H0"}}

>  <type>  (10) 
unop_6

>  <geom_source>  (10) 
Heuristics

$$$$

     RDKit          3D

 16 14  0  0  0  0  0  0  0  0999 V2000
    1.1764    2.4718    2.6281 C   0  0  0  0  0  0  0  0  0  0  0  0
    0.7823    1.6894    1.4200 C   0  0  0  0  0  0  0  0  0  0  0  0
   -0.3970    1.2676    1.2530 N   0  0  0  0  0  2  0  0  0  0  0  0
    1.9795    1.9595    3.1640 H   0  0  0  0  0  0  0  0  0  0  0  0
    0.3221    2.6020    3.2901 H   0  0  0  0  0  0  0  0  0  0  0  0
    1.5637    3.4507    2.3340 H   0  0  0  0  0  0  0  0  0  0  0  0
    1.5823    1.5067    0.6910 H   0  0  0  0  0  0  0  0  0  0  0  0
   -0.3970   -1.8252   -3.1185 C   0  0  0  0  0  0  0  0  0  0  0  0
   -0.3970   -1.8252   -1.6298 C   0  0  0  0  0  0  0  0  0  0  0  0
   -0.3970   -0.7331   -0.9930 N   0  0  0  0  0  0  0  0  0  0  0  0
   -0.3970   -0.9378    0.3802 O   0  0  0  0  0  0  0  0  0  0  0  0
    0.4825   -2.3490   -3.5003 H   0  0  0  0  0  0  0  0  0  0  0  0
   -1.2764   -2.3490   -3.5003 H   0  0  0  0  0  0  0  0  0  0  0  0
   -0.3970   -0.8055   -3.4999 H   0  0  0  0  0  0  0  0  0  0  0  0
   -0.3970   -2.7727   -1.0897 H   0  0  0  0  0  0  0  0  0  0  0  0
   -0.3970    0.1319    0.8035 H   0  0  0  0  0  0  0  0  0  0  0  0
  1  2  1  0
  1  4  1  0
  1  5  1  0
  1  6  1  0
  2  3  2  0
  2  7  1  0
  8  9  1  0
  8 12  1  0
  8 13  1  0
  8 14  1  0
  9 10  2  3
  9 15  1  0
 10 11  1  0
 11 16  1  0
M  RAD  1   3   2
M  END
>  <reaction>  (11) 
rmg_rxn_16501

>  <mol_properties>  (11) 
{"1": {"label": "*0", "atom_type": "Cs"}, "2": {"label": "*1", "atom_type": "N3s"}, "9": {"label": "*4", "atom_type": "N3s"}, "10": {"label": "*3", "atom_type": "O2s"}, "15": {"label": "*2", "atom_type": "H0"}}

>  <type>  (11) 
unop_7

>  <geom_source>  (11) 
Heuristics

$$$$

     RDKit          3D

 16 14  0  0  0  0  0  0  0  0999 V2000
    0.6607    2.2777    3.0936 C   0  0  0  0  0  0  0  0  0  0  0  0
    0.7400    1.5415    1.7979 C   0  0  0  0  0  0  0  0  0  0  0  0
   -0.2812    1.3368    1.0827 N   0  0  0  0  0  2  0  0  0  0  0  0
    1.0195    1.6452    3.9096 H   0  0  0  0  0  0  0  0  0  0  0  0
   -0.3649    2.5831    3.2934 H   0  0  0  0  0  0  0  0  0  0  0  0
    1.3061    3.1595    3.0668 H   0  0  0  0  0  0  0  0  0  0  0  0
    1.7403    1.1924    1.5108 H   0  0  0  0  0  0  0  0  0  0  0  0
   -0.2812   -1.7561   -3.2888 C   0  0  0  0  0  0  0  0  0  0  0  0
   -0.2812   -1.7561   -1.8002 C   0  0  0  0  0  0  0  0  0  0  0  0
   -0.2812   -0.6640   -1.1634 N   0  0  0  0  0  0  0  0  0  0  0  0
   -0.2812   -0.8687    0.2098 O   0  0  0  0  0  0  0  0  0  0  0  0
    0.5982   -2.2799   -3.6706 H   0  0  0  0  0  0  0  0  0  0  0  0
   -1.1606   -2.2799   -3.6706 H   0  0  0  0  0  0  0  0  0  0  0  0
   -0.2812   -0.7364   -3.6702 H   0  0  0  0  0  0  0  0  0  0  0  0
   -0.2812   -2.7036   -1.2600 H   0  0  0  0  0  0  0  0  0  0  0  0
   -0.2812    0.2010    0.6332 H   0  0  0  0  0  0  0  0  0  0  0  0
  1  2  1  0
  1  4  1  0
  1  5  1  0
  1  6  1  0
  2  3  2  0
  2  7  1  0
  8  9  1  0
  8 12  1  0
  8 13  1  0
  8 14  1  0
  9 10  2  3
  9 15  1  0
 10 11  1  0
 11 16  1  0
M  RAD  1   3   2
M  END
>  <reaction>  (12) 
rmg_rxn_16501

>  <mol_properties>  (12) 
{"1": {"label": "*0", "atom_type": "Cs"}, "2": {"label": "*1", "atom_type": "N3s"}, "9": {"label": "*4", "atom_type": "N3s"}, "10": {"label": "*3", "atom_type": "O2s"}, "15": {"label": "*2", "atom_type": "H0"}}

>  <type>  (12) 
unop_8

>  <geom_source>  (12) 
Heuristics

$$$$

     RDKit          3D

 16 14  0  0  0  0  0  0  0  0999 V2000
   -1.1764    2.4718    2.6281 C   0  0  0  0  0  0  0  0  0  0  0  0
   -0.7823    1.6894    1.4200 C   0  0  0  0  0  0  0  0  0  0  0  0
    0.3970    1.2676    1.2530 N   0  0  0  0  0  2  0  0  0  0  0  0
   -1.5637    3.4507    2.3340 H   0  0  0  0  0  0  0  0  0  0  0  0
   -0.3221    2.6020    3.2901 H   0  0  0  0  0  0  0  0  0  0  0  0
   -1.9795    1.9595    3.1640 H   0  0  0  0  0  0  0  0  0  0  0  0
   -1.5823    1.5068    0.6910 H   0  0  0  0  0  0  0  0  0  0  0  0
    0.3970   -1.8252   -3.1185 C   0  0  0  0  0  0  0  0  0  0  0  0
    0.3970   -1.8252   -1.6298 C   0  0  0  0  0  0  0  0  0  0  0  0
    0.3970   -0.7331   -0.9930 N   0  0  0  0  0  0  0  0  0  0  0  0
    0.3970   -0.9378    0.3802 O   0  0  0  0  0  0  0  0  0  0  0  0
    1.2764   -2.3490   -3.5003 H   0  0  0  0  0  0  0  0  0  0  0  0
   -0.4825   -2.3490   -3.5003 H   0  0  0  0  0  0  0  0  0  0  0  0
    0.3970   -0.8055   -3.4999 H   0  0  0  0  0  0  0  0  0  0  0  0
    0.3970   -2.7727   -1.0897 H   0  0  0  0  0  0  0  0  0  0  0  0
    0.3970    0.1319    0.8035 H   0  0  0  0  0  0  0  0  0  0  0  0
  1  2  1  0
  1  4  1  0
  1  5  1  0
  1  6  1  0
  2  3  2  0
  2  7  1  0
  8  9  1  0
  8 12  1  0
  8 13  1  0
  8 14  1  0
  9 10  2  3
  9 15  1  0
 10 11  1  0
 11 16  1  0
M  RAD  1   3   2
M  END
>  <reaction>  (13) 
rmg_rxn_16501

>  <mol_properties>  (13) 
{"1": {"label": "*0", "atom_type": "Cs"}, "2": {"label": "*1", "atom_type": "N3s"}, "9": {"label": "*4", "atom_type": "N3s"}, "10": {"label": "*3", "atom_type": "O2s"}, "15": {"label": "*2", "atom_type": "H0"}}

>  <type>  (13) 
unop_9

>  <geom_source>  (13) 
Heuristics

$$$$

     RDKit          3D

 16 14  0  0  0  0  0  0  0  0999 V2000
   -2.9163   -1.2149   -0.0002 C   0  0  0  0  0  0  0  0  0  0  0  0
   -1.7437   -0.2890   -0.0001 C   0  0  0  0  0  3  0  0  0  0  0  0
   -1.7942    0.9452    0.0003 N   0  0  0  0  0  2  0  0  0  0  0  0
   -2.8748   -1.8520    0.8819 H   0  0  0  0  0  0  0  0  0  0  0  0
   -2.8746   -1.8520   -0.8823 H   0  0  0  0  0  0  0  0  0  0  0  0
   -3.8433   -0.6485   -0.0003 H   0  0  0  0  0  0  0  0  0  0  0  0
   -0.7538   -0.7993   -0.0001 H   0  0  0  0  0  0  0  0  0  0  0  0
    2.6470   -1.3930    0.0001 C   0  0  0  0  0  0  0  0  0  0  0  0
    2.2263    0.0328   -0.0003 C   0  0  0  0  0  3  0  0  0  0  0  0
    1.0027    0.3367    0.0004 N   0  0  0  0  0  2  0  0  0  0  0  0
    0.5162    1.5438   -0.0002 O   0  0  0  0  0  1  0  0  0  0  0  0
    3.2534   -1.6022   -0.8803 H   0  0  0  0  0  0  0  0  0  0  0  0
    3.2558   -1.6008    0.8793 H   0  0  0  0  0  0  0  0  0  0  0  0
    1.7809   -2.0490    0.0018 H   0  0  0  0  0  0  0  0  0  0  0  0
    3.0097    0.7922   -0.0015 H   0  0  0  0  0  0  0  0  0  0  0  0
   -0.6895    1.4222    0.0002 H   0  0  0  0  0  0  0  0  0  0  0  0
  1  4  1  0
  1  2  1  0
  1  5  1  0
  1  6  1  0
  2  3  1  0
  2  7  1  0
  3 16  1  0
  8 14  1  0
  8 12  1  0
  8 13  1  0
  8  9  1  0
  9 10  1  0
  9 15  1  0
 10 11  1  0
M  RAD  5   2   2   3   2   9   2  10   2  11   2
M  END
>  <reaction>  (14) 
rmg_rxn_16501

>  <mol_properties>  (14) 
{"1": {"label": "*0", "atom_type": "Cs"}, "2": {"label": "*1", "atom_type": "N3s"}, "9": {"label": "*4", "atom_type": "N3s"}, "10": {"label": "*3", "atom_type": "O2s"}, "15": {"label": "*2", "atom_type": "H0"}}

>  <type>  (14) 
unop_10

>  <geom_source>  (14) 
Heuristics

$$$$

     RDKit          3D

 16 14  0  0  0  0  0  0  0  0999 V2000
    0.8550    3.2011    1.3150 C   0  0  0  0  0  0  0  0  0  0  0  0
    0.3445    1.8768    0.8540 C   0  0  0  0  0  0  0  0  0  0  0  0
   -0.2451    1.0792    1.6366 N   0  0  0  0  0  2  0  0  0  0  0  0
    1.9330    3.2690    1.1480 H   0  0  0  0  0  0  0  0  0  0  0  0
    0.6408    3.3420    2.3730 H   0  0  0  0  0  0  0  0  0  0  0  0
    0.3921    4.0057    0.7380 H   0  0  0  0  0  0  0  0  0  0  0  0
    0.5154    1.6448   -0.2052 H   0  0  0  0  0  0  0  0  0  0  0  0
   -0.2451   -2.0136   -2.7349 C   0  0  0  0  0  0  0  0  0  0  0  0
   -0.2451   -2.0136   -1.2463 C   0  0  0  0  0  0  0  0  0  0  0  0
   -0.2451   -0.9216   -0.6095 N   0  0  0  0  0  0  0  0  0  0  0  0
   -0.2451   -1.1262    0.7637 O   0  0  0  0  0  0  0  0  0  0  0  0
    0.6343   -2.5375   -3.1167 H   0  0  0  0  0  0  0  0  0  0  0  0
   -1.1245   -2.5375   -3.1167 H   0  0  0  0  0  0  0  0  0  0  0  0
   -0.2451   -0.9939   -3.1163 H   0  0  0  0  0  0  0  0  0  0  0  0
   -0.2451   -2.9612   -0.7061 H   0  0  0  0  0  0  0  0  0  0  0  0
   -0.2451   -0.0566    1.1871 H   0  0  0  0  0  0  0  0  0  0  0  0
  1  2  1  0
  1  4  1  0
  1  5  1  0
  1  6  1  0
  2  3  2  0
  2  7  1  0
  8  9  1  0
  8 12  1  0
  8 13  1  0
  8 14  1  0
  9 10  2  3
  9 15  1  0
 10 11  1  0
 11 16  1  0
M  RAD  1   3   2
M  END
>  <reaction>  (15) 
rmg_rxn_16501

>  <mol_properties>  (15) 
{"1": {"label": "*0", "atom_type": "Cs"}, "2": {"label": "*1", "atom_type": "N3s"}, "9": {"label": "*4", "atom_type": "N3s"}, "10": {"label": "*3", "atom_type": "O2s"}, "15": {"label": "*2", "atom_type": "H0"}}

>  <type>  (15) 
unop_11

>  <geom_source>  (15) 
Heuristics

$$$$

     RDKit          3D

 16 14  0  0  0  0  0  0  0  0999 V2000
   -1.2864    2.8342    1.9428 C   0  0  0  0  0  0  0  0  0  0  0  0
   -0.6307    1.8078    1.0805 C   0  0  0  0  0  0  0  0  0  0  0  0
    0.3905    1.1691    1.4618 N   0  0  0  0  0  2  0  0  0  0  0  0
   -1.2949    3.8029    1.4365 H   0  0  0  0  0  0  0  0  0  0  0  0
   -0.7602    2.9238    2.8915 H   0  0  0  0  0  0  0  0  0  0  0  0
   -2.3288    2.5621    2.1272 H   0  0  0  0  0  0  0  0  0  0  0  0
   -1.0937    1.6470    0.0984 H   0  0  0  0  0  0  0  0  0  0  0  0
    0.3905   -1.9237   -2.9098 C   0  0  0  0  0  0  0  0  0  0  0  0
    0.3905   -1.9237   -1.4211 C   0  0  0  0  0  0  0  0  0  0  0  0
    0.3905   -0.8317   -0.7843 N   0  0  0  0  0  0  0  0  0  0  0  0
    0.3905   -1.0363    0.5889 O   0  0  0  0  0  0  0  0  0  0  0  0
    1.2700   -2.4476   -3.2916 H   0  0  0  0  0  0  0  0  0  0  0  0
   -0.4889   -2.4476   -3.2916 H   0  0  0  0  0  0  0  0  0  0  0  0
    0.3905   -0.9041   -3.2912 H   0  0  0  0  0  0  0  0  0  0  0  0
    0.3905   -2.8713   -0.8810 H   0  0  0  0  0  0  0  0  0  0  0  0
    0.3905    0.0333    1.0122 H   0  0  0  0  0  0  0  0  0  0  0  0
  1  2  1  0
  1  4  1  0
  1  5  1  0
  1  6  1  0
  2  3  2  0
  2  7  1  0
  8  9  1  0
  8 12  1  0
  8 13  1  0
  8 14  1  0
  9 10  2  3
  9 15  1  0
 10 11  1  0
 11 16  1  0
M  RAD  1   3   2
M  END
>  <reaction>  (16) 
rmg_rxn_16501

>  <mol_properties>  (16) 
{"1": {"label": "*0", "atom_type": "Cs"}, "2": {"label": "*1", "atom_type": "N3s"}, "9": {"label": "*4", "atom_type": "N3s"}, "10": {"label": "*3", "atom_type": "O2s"}, "15": {"label": "*2", "atom_type": "H0"}}

>  <type>  (16) 
unop_12

>  <geom_source>  (16) 
Heuristics

$$$$

     RDKit          3D

 16 14  0  0  0  0  0  0  0  0999 V2000
    0.0856    2.3669    3.1792 C   0  0  0  0  0  0  0  0  0  0  0  0
    0.4790    1.3929    2.1191 C   0  0  0  0  0  0  0  0  0  0  0  0
   -0.1107    1.3470    1.0026 N   0  0  0  0  0  2  0  0  0  0  0  0
   -0.2055    1.8367    4.0896 H   0  0  0  0  0  0  0  0  0  0  0  0
   -0.7426    2.9849    2.8370 H   0  0  0  0  0  0  0  0  0  0  0  0
    0.9344    3.0045    3.4396 H   0  0  0  0  0  0  0  0  0  0  0  0
    1.3105    0.7235    2.3745 H   0  0  0  0  0  0  0  0  0  0  0  0
   -0.1107   -1.7459   -3.3689 C   0  0  0  0  0  0  0  0  0  0  0  0
   -0.1107   -1.7459   -1.8802 C   0  0  0  0  0  0  0  0  0  0  0  0
   -0.1107   -0.6538   -1.2435 N   0  0  0  0  0  0  0  0  0  0  0  0
   -0.1107   -0.8585    0.1297 O   0  0  0  0  0  0  0  0  0  0  0  0
    0.7688   -2.2697   -3.7507 H   0  0  0  0  0  0  0  0  0  0  0  0
   -0.9901   -2.2697   -3.7507 H   0  0  0  0  0  0  0  0  0  0  0  0
   -0.1107   -0.7262   -3.7503 H   0  0  0  0  0  0  0  0  0  0  0  0
   -0.1107   -2.6934   -1.3401 H   0  0  0  0  0  0  0  0  0  0  0  0
   -0.1107    0.2112    0.5531 H   0  0  0  0  0  0  0  0  0  0  0  0
  1  2  1  0
  1  4  1  0
  1  5  1  0
  1  6  1  0
  2  3  2  0
  2  7  1  0
  8  9  1  0
  8 12  1  0
  8 13  1  0
  8 14  1  0
  9 10  2  3
  9 15  1  0
 10 11  1  0
 11 16  1  0
M  RAD  1   3   2
M  END
>  <reaction>  (17) 
rmg_rxn_16501

>  <mol_properties>  (17) 
{"1": {"label": "*0", "atom_type": "Cs"}, "2": {"label": "*1", "atom_type": "N3s"}, "9": {"label": "*4", "atom_type": "N3s"}, "10": {"label": "*3", "atom_type": "O2s"}, "15": {"label": "*2", "atom_type": "H0"}}

>  <type>  (17) 
unop_13

>  <geom_source>  (17) 
Heuristics

$$$$

     RDKit          3D

 16 14  0  0  0  0  0  0  0  0999 V2000
    0.0000    3.3634    1.0543 C   0  0  0  0  0  0  0  0  0  0  0  0
    0.0000    1.8971    0.7765 C   0  0  0  0  0  0  0  0  0  0  0  0
    0.0000    1.0414    1.7060 N   0  0  0  0  0  2  0  0  0  0  0  0
    0.8783    3.8329    0.6039 H   0  0  0  0  0  0  0  0  0  0  0  0
    0.0000    3.5453    2.1276 H   0  0  0  0  0  0  0  0  0  0  0  0
   -0.8783    3.8329    0.6039 H   0  0  0  0  0  0  0  0  0  0  0  0
    0.0000    1.6151   -0.2843 H   0  0  0  0  0  0  0  0  0  0  0  0
   -0.0000   -2.0514   -2.6655 C   0  0  0  0  0  0  0  0  0  0  0  0
   -0.0000   -2.0514   -1.1769 C   0  0  0  0  0  0  0  0  0  0  0  0
   -0.0000   -0.9594   -0.5401 N   0  0  0  0  0  0  0  0  0  0  0  0
   -0.0000   -1.1640    0.8331 O   0  0  0  0  0  0  0  0  0  0  0  0
    0.8794   -2.5753   -3.0473 H   0  0  0  0  0  0  0  0  0  0  0  0
   -0.8794   -2.5753   -3.0473 H   0  0  0  0  0  0  0  0  0  0  0  0
   -0.0000   -1.0317   -3.0469 H   0  0  0  0  0  0  0  0  0  0  0  0
   -0.0000   -2.9989   -0.6367 H   0  0  0  0  0  0  0  0  0  0  0  0
   -0.0000   -0.0944    1.2565 H   0  0  0  0  0  0  0  0  0  0  0  0
  1  2  1  0
  1  4  1  0
  1  5  1  0
  1  6  1  0
  2  3  2  0
  2  7  1  0
  8  9  1  0
  8 12  1  0
  8 13  1  0
  8 14  1  0
  9 10  2  3
  9 15  1  0
 10 11  1  0
 11 16  1  0
M  RAD  1   3   2
M  END
>  <reaction>  (18) 
rmg_rxn_16501

>  <mol_properties>  (18) 
{"1": {"label": "*0", "atom_type": "Cs"}, "2": {"label": "*1", "atom_type": "N3s"}, "9": {"label": "*4", "atom_type": "N3s"}, "10": {"label": "*3", "atom_type": "O2s"}, "15": {"label": "*2", "atom_type": "H0"}}

>  <type>  (18) 
unop_14

>  <geom_source>  (18) 
Heuristics

$$$$

     RDKit          3D

 16 14  0  0  0  0  0  0  0  0999 V2000
   -0.8550    3.2011    1.3150 C   0  0  0  0  0  0  0  0  0  0  0  0
   -0.3445    1.8768    0.8540 C   0  0  0  0  0  0  0  0  0  0  0  0
    0.2451    1.0792    1.6366 N   0  0  0  0  0  2  0  0  0  0  0  0
   -0.3921    4.0057    0.7380 H   0  0  0  0  0  0  0  0  0  0  0  0
   -0.6408    3.3420    2.3730 H   0  0  0  0  0  0  0  0  0  0  0  0
   -1.9330    3.2690    1.1480 H   0  0  0  0  0  0  0  0  0  0  0  0
   -0.5154    1.6448   -0.2052 H   0  0  0  0  0  0  0  0  0  0  0  0
    0.2451   -2.0137   -2.7349 C   0  0  0  0  0  0  0  0  0  0  0  0
    0.2451   -2.0137   -1.2463 C   0  0  0  0  0  0  0  0  0  0  0  0
    0.2451   -0.9216   -0.6095 N   0  0  0  0  0  0  0  0  0  0  0  0
    0.2451   -1.1262    0.7637 O   0  0  0  0  0  0  0  0  0  0  0  0
    1.1245   -2.5375   -3.1167 H   0  0  0  0  0  0  0  0  0  0  0  0
   -0.6343   -2.5375   -3.1167 H   0  0  0  0  0  0  0  0  0  0  0  0
    0.2451   -0.9940   -3.1164 H   0  0  0  0  0  0  0  0  0  0  0  0
    0.2451   -2.9611   -0.7061 H   0  0  0  0  0  0  0  0  0  0  0  0
    0.2451   -0.0566    1.1871 H   0  0  0  0  0  0  0  0  0  0  0  0
  1  2  1  0
  1  4  1  0
  1  5  1  0
  1  6  1  0
  2  3  2  0
  2  7  1  0
  8  9  1  0
  8 12  1  0
  8 13  1  0
  8 14  1  0
  9 10  2  3
  9 15  1  0
 10 11  1  0
 11 16  1  0
M  RAD  1   3   2
M  END
>  <reaction>  (19) 
rmg_rxn_16501

>  <mol_properties>  (19) 
{"1": {"label": "*0", "atom_type": "Cs"}, "2": {"label": "*1", "atom_type": "N3s"}, "9": {"label": "*4", "atom_type": "N3s"}, "10": {"label": "*3", "atom_type": "O2s"}, "15": {"label": "*2", "atom_type": "H0"}}

>  <type>  (19) 
unop_15

>  <geom_source>  (19) 
gaussian_log

$$$$
