
     RDKit          3D

 14 14  0  0  0  0  0  0  0  0999 V2000
    0.6827    1.2401    0.0000 C   0  0  0  0  0  0  0  0  0  0  0  0
    0.0177    0.6645    1.2385 C   0  0  0  0  0  0  0  0  0  0  0  0
    0.0177   -0.7579    1.1790 O   0  0  0  0  0  0  0  0  0  0  0  0
   -0.6317   -1.2178    0.0000 C   0  0  0  0  0  0  0  0  0  0  0  0
    0.0177   -0.7579   -1.1790 O   0  0  0  0  0  0  0  0  0  0  0  0
    0.0177    0.6645   -1.2385 C   0  0  0  0  0  0  0  0  0  0  0  0
    0.6376    2.3333    0.0000 H   0  0  0  0  0  0  0  0  0  0  0  0
    1.7374    0.9389    0.0000 H   0  0  0  0  0  0  0  0  0  0  0  0
    0.5646    0.9666    2.1371 H   0  0  0  0  0  0  0  0  0  0  0  0
   -1.0132    1.0237    1.3411 H   0  0  0  0  0  0  0  0  0  0  0  0
   -1.6888   -0.9240    0.0000 H   0  0  0  0  0  0  0  0  0  0  0  0
   -0.5898   -2.3108    0.0000 H   0  0  0  0  0  0  0  0  0  0  0  0
   -1.0132    1.0237   -1.3411 H   0  0  0  0  0  0  0  0  0  0  0  0
    0.5646    0.9666   -2.1371 H   0  0  0  0  0  0  0  0  0  0  0  0
  1  2  1  0
  1  6  1  0
  1  7  1  0
  1  8  1  0
  2  3  1  0
  2  9  1  0
  2 10  1  0
  3  4  1  0
  4  5  1  0
  4 11  1  0
  4 12  1  0
  5  6  1  0
  6 13  1  0
  6 14  1  0
M  END
>  <reaction>  (1) 
rmg_rxn_1155

>  <mol_properties>  (1) 
{"0": {"label": "donator", "atom_type": "Cs"}, "6": {"label": "d_hydrogen", "atom_type": "H0"}}

>  <type>  (1) 
r1h

$$$$

     RDKit          3D

  1  0  0  0  0  0  0  0  0  0999 V2000
    0.0000    0.0000    0.0000 O   0  0  0  0  0 15  0  0  0  0  0  0
M  END
>  <reaction>  (2) 
rmg_rxn_1155

>  <mol_properties>  (2) 
{"0": {"label": "acceptor", "atom_type": "O2s"}}

>  <type>  (2) 
r2

$$$$

     RDKit          3D

  2  1  0  0  0  0  0  0  0  0999 V2000
    0.0000    0.0000    0.1079 O   0  0  0  0  0  1  0  0  0  0  0  0
    0.0000    0.0000   -0.8631 H   0  0  0  0  0  0  0  0  0  0  0  0
  1  2  1  0
M  RAD  1   1   2
M  END
>  <reaction>  (3) 
rmg_rxn_1155

>  <mol_properties>  (3) 
{"0": {"label": "acceptor", "atom_type": "O2s"}, "1": {"label": "a_hydrogen", "atom_type": "H0"}}

>  <type>  (3) 
r2h

$$$$

     RDKit          3D

 15 14  0  0  0  0  0  0  0  0999 V2000
    3.1420   -0.0001    0.2853 O   0  0  0  0  0  1  0  0  0  0  0  0
    0.7707    0.0026   -0.5335 C   0  0  0  0  0  3  0  0  0  0  0  0
    0.1274   -1.2444    0.0269 C   0  0  0  0  0  0  0  0  0  0  0  0
   -1.2737   -1.1646   -0.1803 O   0  0  0  0  0  0  0  0  0  0  0  0
   -1.8042   -0.0023    0.3844 C   0  0  0  0  0  0  0  0  0  0  0  0
   -1.2780    1.1619   -0.1799 O   0  0  0  0  0  0  0  0  0  0  0  0
    0.1226    1.2466    0.0285 C   0  0  0  0  0  0  0  0  0  0  0  0
    1.9928    0.0041   -0.1385 H   0  0  0  0  0  0  0  0  0  0  0  0
    0.8583    0.0044   -1.6193 H   0  0  0  0  0  0  0  0  0  0  0  0
    0.4739   -2.1478   -0.4698 H   0  0  0  0  0  0  0  0  0  0  0  0
    0.3401   -1.3309    1.1017 H   0  0  0  0  0  0  0  0  0  0  0  0
   -1.6160   -0.0021    1.4725 H   0  0  0  0  0  0  0  0  0  0  0  0
   -2.8723   -0.0054    0.1804 H   0  0  0  0  0  0  0  0  0  0  0  0
    0.3347    1.3343    1.1032 H   0  0  0  0  0  0  0  0  0  0  0  0
    0.4667    2.1508   -0.4686 H   0  0  0  0  0  0  0  0  0  0  0  0
  1  8  1  0
  2  3  1  0
  2  7  1  0
  2  9  1  0
  3  4  1  0
  3 10  1  0
  3 11  1  0
  4  5  1  0
  5  6  1  0
  5 12  1  0
  5 13  1  0
  6  7  1  0
  7 14  1  0
  7 15  1  0
M  RAD  2   1   2   2   2
M  END
>  <reaction>  (4) 
rmg_rxn_1155

>  <mol_properties>  (4) 
{"0": {"label": "*1", "atom_type": "O2s"}, "1": {"label": "*3", "atom_type": "Cs"}, "2": {"label": "*4", "atom_type": "Cs"}, "7": {"label": "*2", "atom_type": "H0"}}

>  <type>  (4) 
ts

$$$$

     RDKit          3D

 15 14  0  0  0  0  0  0  0  0999 V2000
    0.3659   -2.8655    1.4170 O   0  0  0  0  0  1  0  0  0  0  0  0
    0.5046   -0.5581    0.5236 C   0  0  0  0  0  3  0  0  0  0  0  0
    0.5046   -0.5581   -0.9954 C   0  0  0  0  0  0  0  0  0  0  0  0
    0.5046    0.7784   -1.4858 O   0  0  0  0  0  0  0  0  0  0  0  0
   -0.6102    1.5048   -0.9831 C   0  0  0  0  0  0  0  0  0  0  0  0
   -0.5941    1.5889    0.4367 O   0  0  0  0  0  0  0  0  0  0  0  0
   -0.6496    0.2932    1.0241 C   0  0  0  0  0  0  0  0  0  0  0  0
    0.4311   -1.7805    0.9969 H   0  0  0  0  0  0  0  0  0  0  0  0
    1.4434   -0.1100    0.8713 H   0  0  0  0  0  0  0  0  0  0  0  0
    1.4012   -1.0585   -1.3741 H   0  0  0  0  0  0  0  0  0  0  0  0
   -0.3665   -1.0913   -1.3943 H   0  0  0  0  0  0  0  0  0  0  0  0
   -1.5510    1.0632   -1.3346 H   0  0  0  0  0  0  0  0  0  0  0  0
   -0.5519    2.5228   -1.3789 H   0  0  0  0  0  0  0  0  0  0  0  0
   -1.6163   -0.1694    0.7926 H   0  0  0  0  0  0  0  0  0  0  0  0
   -0.5904    0.4105    2.1107 H   0  0  0  0  0  0  0  0  0  0  0  0
  1  8  1  0
  2  3  1  0
  2  7  1  0
  2  9  1  0
  3  4  1  0
  3 10  1  0
  3 11  1  0
  4  5  1  0
  5  6  1  0
  5 12  1  0
  5 13  1  0
  6  7  1  0
  7 14  1  0
  7 15  1  0
M  RAD  2   1   2   2   2
M  END
>  <reaction>  (5) 
rmg_rxn_1155

>  <mol_properties>  (5) 
{"0": {"label": "*1", "atom_type": "O2s"}, "1": {"label": "*3", "atom_type": "Cs"}, "2": {"label": "*4", "atom_type": "Cs"}, "7": {"label": "*2", "atom_type": "H0"}}

>  <type>  (5) 
unop_1

>  <geom_source>  (5) 
Heuristics

$$$$

     RDKit          3D

 15 14  0  0  0  0  0  0  0  0999 V2000
   -0.8074    0.9889    0.9785 O   0  0  0  0  0  0  0  0  0  0  0  0
   -1.3912   -0.7005   -0.6209 O   0  0  0  0  0  0  0  0  0  0  0  0
    3.2707   -0.0221   -0.6993 O   0  0  0  0  0  1  0  0  0  0  0  0
    0.2779    1.1842    0.0985 C   0  0  0  0  0  0  0  0  0  0  0  0
   -0.1524   -1.2443   -0.2220 C   0  0  0  0  0  0  0  0  0  0  0  0
   -1.8447    0.2548    0.3340 C   0  0  0  0  0  0  0  0  0  0  0  0
    0.9204   -0.1584   -0.2417 C   0  0  0  0  0  3  0  0  0  0  0  0
    1.0290    1.8404    0.5864 H   0  0  0  0  0  0  0  0  0  0  0  0
   -0.0559    1.6932   -0.8341 H   0  0  0  0  0  0  0  0  0  0  0  0
    0.1386   -2.0439   -0.9339 H   0  0  0  0  0  0  0  0  0  0  0  0
   -0.2319   -1.7036    0.7905 H   0  0  0  0  0  0  0  0  0  0  0  0
   -2.4423   -0.2692    1.1098 H   0  0  0  0  0  0  0  0  0  0  0  0
   -2.5260    0.9687   -0.1755 H   0  0  0  0  0  0  0  0  0  0  0  0
    1.7234   -0.4102    0.4847 H   0  0  0  0  0  0  0  0  0  0  0  0
    2.0918   -0.3780   -0.6550 H   0  0  0  0  0  0  0  0  0  0  0  0
  1  4  1  0
  1  6  1  0
  2  5  1  0
  2  6  1  0
  3 15  1  0
  4  7  1  0
  4  8  1  0
  4  9  1  0
  5  7  1  0
  5 10  1  0
  5 11  1  0
  6 12  1  0
  6 13  1  0
  7 14  1  0
M  RAD  2   3   2   7   2
M  END
>  <reaction>  (6) 
rmg_rxn_1155

>  <mol_properties>  (6) 
{"0": {"label": "*1", "atom_type": "O2s"}, "1": {"label": "*3", "atom_type": "Cs"}, "2": {"label": "*4", "atom_type": "Cs"}, "7": {"label": "*2", "atom_type": "H0"}}

>  <type>  (6) 
unop_2

>  <geom_source>  (6) 
AutoTST

$$$$

     RDKit          3D

 15 14  0  0  0  0  0  0  0  0999 V2000
    1.3880   -0.5455   -0.7068 O   0  0  0  0  0  0  0  0  0  0  0  0
    0.6646    0.6913    1.2165 O   0  0  0  0  0  0  0  0  0  0  0  0
   -3.1836   -0.5122    0.2324 O   0  0  0  0  0 15  0  0  0  0  0  0
   -0.9426   -0.0093   -0.4320 C   0  0  0  0  0  0  0  0  0  0  0  0
    0.1019   -1.1142   -0.5937 C   0  0  0  0  0  0  0  0  0  0  0  0
   -0.3098    1.1659    0.3136 C   0  0  0  0  0  0  0  0  0  0  0  0
    1.7522    0.1031    0.5085 C   0  0  0  0  0  0  0  0  0  0  0  0
   -1.9045   -0.4477    0.2047 H   0  0  0  0  0  0  0  0  0  0  0  0
   -1.3003    0.3330   -1.4274 H   0  0  0  0  0  0  0  0  0  0  0  0
    0.0592   -1.8195    0.2680 H   0  0  0  0  0  0  0  0  0  0  0  0
   -0.1186   -1.6989   -1.5116 H   0  0  0  0  0  0  0  0  0  0  0  0
   -1.0971    1.7058    0.8802 H   0  0  0  0  0  0  0  0  0  0  0  0
    0.1406    1.8902   -0.4042 H   0  0  0  0  0  0  0  0  0  0  0  0
    2.4994    0.8920    0.2786 H   0  0  0  0  0  0  0  0  0  0  0  0
    2.2504   -0.6339    1.1734 H   0  0  0  0  0  0  0  0  0  0  0  0
  1  5  1  0
  1  7  1  0
  2  6  1  0
  2  7  1  0
  4  5  1  0
  4  6  1  0
  4  8  1  0
  4  9  1  0
  5 10  1  0
  5 11  1  0
  6 12  1  0
  6 13  1  0
  7 14  1  0
  7 15  1  0
M  END
>  <reaction>  (7) 
rmg_rxn_1155

>  <mol_properties>  (7) 
{"0": {"label": "*1", "atom_type": "O2s"}, "1": {"label": "*3", "atom_type": "Cs"}, "2": {"label": "*4", "atom_type": "Cs"}, "7": {"label": "*2", "atom_type": "H0"}}

>  <type>  (7) 
unop_3

>  <geom_source>  (7) 
gaussian_log

$$$$
