
     RDKit          3D

 14 13  0  0  0  0  0  0  0  0999 V2000
    2.6835   -0.4133    0.0000 C   0  0  0  0  0  0  0  0  0  0  0  0
    1.5970    0.5046    0.0000 O   0  0  0  0  0  0  0  0  0  0  0  0
    0.3396   -0.1741   -0.0000 C   0  0  0  0  0  0  0  0  0  0  0  0
   -0.7603    0.8710    0.0000 C   0  0  0  0  0  0  0  0  0  0  0  0
   -2.1280    0.2478    0.0000 C   0  0  0  0  0  0  0  0  0  0  0  0
   -2.3411   -0.9603    0.0000 O   0  0  0  0  0  0  0  0  0  0  0  0
    2.6563   -1.0389   -0.8974 H   0  0  0  0  0  0  0  0  0  0  0  0
    2.6563   -1.0389    0.8974 H   0  0  0  0  0  0  0  0  0  0  0  0
    3.6159    0.1574    0.0000 H   0  0  0  0  0  0  0  0  0  0  0  0
    0.2658   -0.8093   -0.8908 H   0  0  0  0  0  0  0  0  0  0  0  0
    0.2658   -0.8093    0.8908 H   0  0  0  0  0  0  0  0  0  0  0  0
   -0.6740    1.5163   -0.8809 H   0  0  0  0  0  0  0  0  0  0  0  0
   -0.6740    1.5163    0.8809 H   0  0  0  0  0  0  0  0  0  0  0  0
   -2.9678    0.9638   -0.0000 H   0  0  0  0  0  0  0  0  0  0  0  0
  1  2  1  0
  1  7  1  0
  1  8  1  0
  1  9  1  0
  2  3  1  0
  3  4  1  0
  3 10  1  0
  3 11  1  0
  4  5  1  0
  4 12  1  0
  4 13  1  0
  5  6  2  0
  5 14  1  0
M  END
>  <reaction>  (1) 
rmg_rxn_1345

>  <mol_properties>  (1) 
{"0": {"label": "donator", "atom_type": "Cs"}, "6": {"label": "d_hydrogen", "atom_type": "H0"}}

>  <type>  (1) 
r1h

$$$$

     RDKit          3D

  8  7  0  0  0  0  0  0  0  0999 V2000
   -1.1207   -0.2113   -0.0024 C   0  0  0  0  0  0  0  0  0  0  0  0
    0.2278    0.5304   -0.0026 C   0  0  0  0  0  0  0  0  0  0  0  0
    1.1758   -0.3927    0.0010 O   0  0  0  0  0  1  0  0  0  0  0  0
   -1.2050   -0.8270    0.9007 H   0  0  0  0  0  0  0  0  0  0  0  0
   -1.9706    0.4828   -0.0053 H   0  0  0  0  0  0  0  0  0  0  0  0
   -1.2203   -0.8816   -0.8654 H   0  0  0  0  0  0  0  0  0  0  0  0
    0.1749    1.2243   -0.8560 H   0  0  0  0  0  0  0  0  0  0  0  0
    0.1727    1.2287    0.8472 H   0  0  0  0  0  0  0  0  0  0  0  0
  1  2  1  0
  1  4  1  0
  1  5  1  0
  1  6  1  0
  2  3  1  0
  2  7  1  0
  2  8  1  0
M  RAD  1   3   2
M  END
>  <reaction>  (2) 
rmg_rxn_1345

>  <mol_properties>  (2) 
{"2": {"label": "acceptor", "atom_type": "O2s"}}

>  <type>  (2) 
r2

$$$$

     RDKit          3D

  9  8  0  0  0  0  0  0  0  0999 V2000
    1.1890   -0.2426   -0.0202 C   0  0  0  0  0  0  0  0  0  0  0  0
   -0.0825    0.5777    0.0465 C   0  0  0  0  0  0  0  0  0  0  0  0
   -1.2134   -0.2664   -0.1128 O   0  0  0  0  0  0  0  0  0  0  0  0
    1.2515   -0.7796   -0.9723 H   0  0  0  0  0  0  0  0  0  0  0  0
    2.0707    0.3958    0.0844 H   0  0  0  0  0  0  0  0  0  0  0  0
    1.2046   -0.9975    0.7728 H   0  0  0  0  0  0  0  0  0  0  0  0
   -0.0988    1.3243   -0.7528 H   0  0  0  0  0  0  0  0  0  0  0  0
   -0.1645    1.0974    1.0059 H   0  0  0  0  0  0  0  0  0  0  0  0
   -1.1953   -0.9198    0.6071 H   0  0  0  0  0  0  0  0  0  0  0  0
  1  2  1  0
  1  4  1  0
  1  5  1  0
  1  6  1  0
  2  3  1  0
  2  7  1  0
  2  8  1  0
  3  9  1  0
M  END
>  <reaction>  (3) 
rmg_rxn_1345

>  <mol_properties>  (3) 
{"2": {"label": "acceptor", "atom_type": "O2s"}, "8": {"label": "a_hydrogen", "atom_type": "H0"}}

>  <type>  (3) 
r2h

$$$$

     RDKit          3D

 22 20  0  0  0  0  0  0  0  0999 V2000
   -1.2936   -1.6166    1.0219 C   0  0  0  0  0  0  0  0  0  0  0  0
   -1.7400   -1.3627   -0.4030 C   0  0  0  0  0  0  0  0  0  0  0  0
   -2.6907   -0.3081   -0.4330 O   0  0  0  0  0  0  0  0  0  0  0  0
   -2.1511   -1.8651    1.6558 H   0  0  0  0  0  0  0  0  0  0  0  0
   -0.5728   -2.4379    1.0641 H   0  0  0  0  0  0  0  0  0  0  0  0
   -0.8315   -0.7202    1.4483 H   0  0  0  0  0  0  0  0  0  0  0  0
   -2.2095   -2.2573   -0.8223 H   0  0  0  0  0  0  0  0  0  0  0  0
   -0.8915   -1.0887   -1.0373 H   0  0  0  0  0  0  0  0  0  0  0  0
   -1.4406    1.8296   -0.2991 C   0  0  0  0  0  3  0  0  0  0  0  0
   -0.2364    1.6567    0.4377 O   0  0  0  0  0  0  0  0  0  0  0  0
    0.6266    0.7048   -0.1876 C   0  0  0  0  0  0  0  0  0  0  0  0
    1.8811    0.5797    0.6566 C   0  0  0  0  0  0  0  0  0  0  0  0
    2.8548   -0.4059    0.0742 C   0  0  0  0  0  0  0  0  0  0  0  0
    2.6679   -1.0392   -0.9597 O   0  0  0  0  0  0  0  0  0  0  0  0
   -2.1025    0.6977   -0.3700 H   0  0  0  0  0  0  0  0  0  0  0  0
   -1.2242    2.2042   -1.3042 H   0  0  0  0  0  0  0  0  0  0  0  0
   -2.0600    2.5646    0.2218 H   0  0  0  0  0  0  0  0  0  0  0  0
    0.1146   -0.2621   -0.2602 H   0  0  0  0  0  0  0  0  0  0  0  0
    0.8769    1.0459   -1.1992 H   0  0  0  0  0  0  0  0  0  0  0  0
    1.6274    0.2568    1.6721 H   0  0  0  0  0  0  0  0  0  0  0  0
    2.3813    1.5504    0.7435 H   0  0  0  0  0  0  0  0  0  0  0  0
    3.7877   -0.5368    0.6492 H   0  0  0  0  0  0  0  0  0  0  0  0
  1  2  1  0
  1  4  1  0
  1  5  1  0
  1  6  1  0
  2  3  1  0
  2  7  1  0
  2  8  1  0
  3 15  1  0
  9 10  1  0
  9 16  1  0
  9 17  1  0
 10 11  1  0
 11 12  1  0
 11 18  1  0
 11 19  1  0
 12 13  1  0
 12 20  1  0
 12 21  1  0
 13 14  2  0
 13 22  1  0
M  RAD  1   9   2
M  END
>  <reaction>  (4) 
rmg_rxn_1345

>  <mol_properties>  (4) 
{"1": {"label": "*0", "atom_type": "Cs"}, "2": {"label": "*1", "atom_type": "O2s"}, "8": {"label": "*3", "atom_type": "Cs"}, "9": {"label": "*4", "atom_type": "O2s"}, "14": {"label": "*2", "atom_type": "H0"}}

>  <type>  (4) 
ts

$$$$

     RDKit          3D

 22 20  0  0  0  0  0  0  0  0999 V2000
   -1.0855    3.6538    0.1593 C   0  0  0  0  0  0  0  0  0  0  0  0
   -1.9990    2.7493   -0.6416 C   0  0  0  0  0  0  0  0  0  0  0  0
   -1.2886    1.5952   -1.0662 O   0  0  0  0  0  0  0  0  0  0  0  0
   -0.2142    3.9461   -0.4360 H   0  0  0  0  0  0  0  0  0  0  0  0
   -1.6135    4.5561    0.4801 H   0  0  0  0  0  0  0  0  0  0  0  0
   -0.7059    3.1341    1.0452 H   0  0  0  0  0  0  0  0  0  0  0  0
   -2.3685    3.2687   -1.5305 H   0  0  0  0  0  0  0  0  0  0  0  0
   -2.8594    2.4323   -0.0445 H   0  0  0  0  0  0  0  0  0  0  0  0
    0.7453    1.4096    0.3406 C   0  0  0  0  0  3  0  0  0  0  0  0
    0.7453    0.1802    1.0559 O   0  0  0  0  0  0  0  0  0  0  0  0
    0.7453   -0.9402    0.1691 C   0  0  0  0  0  0  0  0  0  0  0  0
    0.7453   -2.2050    1.0071 C   0  0  0  0  0  0  0  0  0  0  0  0
    0.7453   -3.4436    0.1559 C   0  0  0  0  0  0  0  0  0  0  0  0
    0.7453   -3.4436   -1.0709 O   0  0  0  0  0  0  0  0  0  0  0  0
   -0.3316    1.5079   -0.4042 H   0  0  0  0  0  0  0  0  0  0  0  0
    1.6427    1.4915   -0.2801 H   0  0  0  0  0  0  0  0  0  0  0  0
    0.7453    2.2287    1.0647 H   0  0  0  0  0  0  0  0  0  0  0  0
   -0.1454   -0.9025   -0.4694 H   0  0  0  0  0  0  0  0  0  0  0  0
    1.6361   -0.9025   -0.4694 H   0  0  0  0  0  0  0  0  0  0  0  0
   -0.1356   -2.2320    1.6576 H   0  0  0  0  0  0  0  0  0  0  0  0
    1.6262   -2.2320    1.6576 H   0  0  0  0  0  0  0  0  0  0  0  0
    0.7453   -4.3950    0.7151 H   0  0  0  0  0  0  0  0  0  0  0  0
  1  2  1  0
  1  4  1  0
  1  5  1  0
  1  6  1  0
  2  3  1  0
  2  7  1  0
  2  8  1  0
  3 15  1  0
  9 10  1  0
  9 16  1  0
  9 17  1  0
 10 11  1  0
 11 12  1  0
 11 18  1  0
 11 19  1  0
 12 13  1  0
 12 20  1  0
 12 21  1  0
 13 14  2  0
 13 22  1  0
M  RAD  1   9   2
M  END
>  <reaction>  (5) 
rmg_rxn_1345

>  <mol_properties>  (5) 
{"1": {"label": "*0", "atom_type": "Cs"}, "2": {"label": "*1", "atom_type": "O2s"}, "8": {"label": "*3", "atom_type": "Cs"}, "9": {"label": "*4", "atom_type": "O2s"}, "14": {"label": "*2", "atom_type": "H0"}}

>  <type>  (5) 
unop_1

>  <geom_source>  (5) 
Heuristics

$$$$

     RDKit          3D

 22 20  0  0  0  0  0  0  0  0999 V2000
   -2.0899    1.6043    0.9503 C   0  0  0  0  0  0  0  0  0  0  0  0
   -2.1572    1.3712   -0.5448 C   0  0  0  0  0  0  0  0  0  0  0  0
   -1.1196    2.0903   -1.1953 O   0  0  0  0  0  0  0  0  0  0  0  0
   -2.1724    2.6721    1.1778 H   0  0  0  0  0  0  0  0  0  0  0  0
   -2.8933    1.0699    1.4648 H   0  0  0  0  0  0  0  0  0  0  0  0
   -1.1287    1.2666    1.3517 H   0  0  0  0  0  0  0  0  0  0  0  0
   -3.1148    1.7184   -0.9436 H   0  0  0  0  0  0  0  0  0  0  0  0
   -2.0497    0.3083   -0.7816 H   0  0  0  0  0  0  0  0  0  0  0  0
    0.9143    1.9047    0.2116 C   0  0  0  0  0  3  0  0  0  0  0  0
    0.9143    0.6753    0.9268 O   0  0  0  0  0  0  0  0  0  0  0  0
    0.9143   -0.4451    0.0400 C   0  0  0  0  0  0  0  0  0  0  0  0
    0.9143   -1.7098    0.8781 C   0  0  0  0  0  0  0  0  0  0  0  0
    0.9143   -2.9485    0.0268 C   0  0  0  0  0  0  0  0  0  0  0  0
    0.9143   -2.9485   -1.2000 O   0  0  0  0  0  0  0  0  0  0  0  0
   -0.1626    2.0030   -0.5333 H   0  0  0  0  0  0  0  0  0  0  0  0
    1.8117    1.9866   -0.4092 H   0  0  0  0  0  0  0  0  0  0  0  0
    0.9143    2.7238    0.9356 H   0  0  0  0  0  0  0  0  0  0  0  0
    0.0235   -0.4074   -0.5984 H   0  0  0  0  0  0  0  0  0  0  0  0
    1.8050   -0.4074   -0.5984 H   0  0  0  0  0  0  0  0  0  0  0  0
    0.0334   -1.7369    1.5286 H   0  0  0  0  0  0  0  0  0  0  0  0
    1.7952   -1.7369    1.5286 H   0  0  0  0  0  0  0  0  0  0  0  0
    0.9143   -3.8999    0.5860 H   0  0  0  0  0  0  0  0  0  0  0  0
  1  2  1  0
  1  4  1  0
  1  5  1  0
  1  6  1  0
  2  3  1  0
  2  7  1  0
  2  8  1  0
  3 15  1  0
  9 10  1  0
  9 16  1  0
  9 17  1  0
 10 11  1  0
 11 12  1  0
 11 18  1  0
 11 19  1  0
 12 13  1  0
 12 20  1  0
 12 21  1  0
 13 14  2  0
 13 22  1  0
M  RAD  1   9   2
M  END
>  <reaction>  (6) 
rmg_rxn_1345

>  <mol_properties>  (6) 
{"1": {"label": "*0", "atom_type": "Cs"}, "2": {"label": "*1", "atom_type": "O2s"}, "8": {"label": "*3", "atom_type": "Cs"}, "9": {"label": "*4", "atom_type": "O2s"}, "14": {"label": "*2", "atom_type": "H0"}}

>  <type>  (6) 
unop_2

>  <geom_source>  (6) 
Heuristics

$$$$

     RDKit          3D

 22 20  0  0  0  0  0  0  0  0999 V2000
   -0.4726    3.7647   -0.8837 C   0  0  0  0  0  0  0  0  0  0  0  0
   -1.7346    2.9324   -0.9778 C   0  0  0  0  0  0  0  0  0  0  0  0
   -1.4155    1.5530   -0.8663 O   0  0  0  0  0  0  0  0  0  0  0  0
    0.2371    3.4782   -1.6667 H   0  0  0  0  0  0  0  0  0  0  0  0
   -0.6995    4.8297   -0.9845 H   0  0  0  0  0  0  0  0  0  0  0  0
    0.0286    3.6005    0.0758 H   0  0  0  0  0  0  0  0  0  0  0  0
   -2.2273    3.0918   -1.9413 H   0  0  0  0  0  0  0  0  0  0  0  0
   -2.4385    3.1955   -0.1825 H   0  0  0  0  0  0  0  0  0  0  0  0
    0.6184    1.3674    0.5405 C   0  0  0  0  0  3  0  0  0  0  0  0
    0.6184    0.1380    1.2557 O   0  0  0  0  0  0  0  0  0  0  0  0
    0.6184   -0.9824    0.3690 C   0  0  0  0  0  0  0  0  0  0  0  0
    0.6184   -2.2472    1.2070 C   0  0  0  0  0  0  0  0  0  0  0  0
    0.6184   -3.4858    0.3557 C   0  0  0  0  0  0  0  0  0  0  0  0
    0.6184   -3.4858   -0.8710 O   0  0  0  0  0  0  0  0  0  0  0  0
   -0.4585    1.4657   -0.2044 H   0  0  0  0  0  0  0  0  0  0  0  0
    1.5158    1.4493   -0.0802 H   0  0  0  0  0  0  0  0  0  0  0  0
    0.6184    2.1865    1.2646 H   0  0  0  0  0  0  0  0  0  0  0  0
   -0.2724   -0.9447   -0.2695 H   0  0  0  0  0  0  0  0  0  0  0  0
    1.5091   -0.9447   -0.2695 H   0  0  0  0  0  0  0  0  0  0  0  0
   -0.2625   -2.2742    1.8575 H   0  0  0  0  0  0  0  0  0  0  0  0
    1.4993   -2.2742    1.8575 H   0  0  0  0  0  0  0  0  0  0  0  0
    0.6184   -4.4372    0.9150 H   0  0  0  0  0  0  0  0  0  0  0  0
  1  2  1  0
  1  4  1  0
  1  5  1  0
  1  6  1  0
  2  3  1  0
  2  7  1  0
  2  8  1  0
  3 15  1  0
  9 10  1  0
  9 16  1  0
  9 17  1  0
 10 11  1  0
 11 12  1  0
 11 18  1  0
 11 19  1  0
 12 13  1  0
 12 20  1  0
 12 21  1  0
 13 14  2  0
 13 22  1  0
M  RAD  1   9   2
M  END
>  <reaction>  (7) 
rmg_rxn_1345

>  <mol_properties>  (7) 
{"1": {"label": "*0", "atom_type": "Cs"}, "2": {"label": "*1", "atom_type": "O2s"}, "8": {"label": "*3", "atom_type": "Cs"}, "9": {"label": "*4", "atom_type": "O2s"}, "14": {"label": "*2", "atom_type": "H0"}}

>  <type>  (7) 
unop_3

>  <geom_source>  (7) 
Heuristics

$$$$

     RDKit          3D

 22 20  0  0  0  0  0  0  0  0999 V2000
   -2.0549    0.0892   -1.0879 C   0  0  0  0  0  0  0  0  0  0  0  0
   -1.2465    1.2397   -1.6509 C   0  0  0  0  0  0  0  0  0  0  0  0
   -1.2547    2.3298   -0.7406 O   0  0  0  0  0  0  0  0  0  0  0  0
   -3.0842    0.4037   -0.8867 H   0  0  0  0  0  0  0  0  0  0  0  0
   -2.0722   -0.7530   -1.7851 H   0  0  0  0  0  0  0  0  0  0  0  0
   -1.6339   -0.2502   -0.1358 H   0  0  0  0  0  0  0  0  0  0  0  0
   -1.6757    1.5822   -2.5970 H   0  0  0  0  0  0  0  0  0  0  0  0
   -0.2097    0.9400   -1.8307 H   0  0  0  0  0  0  0  0  0  0  0  0
    0.7792    2.1441    0.6663 C   0  0  0  0  0  3  0  0  0  0  0  0
    0.7792    0.9147    1.3815 O   0  0  0  0  0  0  0  0  0  0  0  0
    0.7792   -0.2057    0.4947 C   0  0  0  0  0  0  0  0  0  0  0  0
    0.7792   -1.4704    1.3328 C   0  0  0  0  0  0  0  0  0  0  0  0
    0.7792   -2.7091    0.4815 C   0  0  0  0  0  0  0  0  0  0  0  0
    0.7792   -2.7091   -0.7453 O   0  0  0  0  0  0  0  0  0  0  0  0
   -0.2977    2.2424   -0.0786 H   0  0  0  0  0  0  0  0  0  0  0  0
    1.6766    2.2260    0.0455 H   0  0  0  0  0  0  0  0  0  0  0  0
    0.7792    2.9632    1.3903 H   0  0  0  0  0  0  0  0  0  0  0  0
   -0.1116   -0.1680   -0.1437 H   0  0  0  0  0  0  0  0  0  0  0  0
    1.6700   -0.1680   -0.1437 H   0  0  0  0  0  0  0  0  0  0  0  0
   -0.1017   -1.4975    1.9833 H   0  0  0  0  0  0  0  0  0  0  0  0
    1.6601   -1.4975    1.9832 H   0  0  0  0  0  0  0  0  0  0  0  0
    0.7792   -3.6605    1.0407 H   0  0  0  0  0  0  0  0  0  0  0  0
  1  2  1  0
  1  4  1  0
  1  5  1  0
  1  6  1  0
  2  3  1  0
  2  7  1  0
  2  8  1  0
  3 15  1  0
  9 10  1  0
  9 16  1  0
  9 17  1  0
 10 11  1  0
 11 12  1  0
 11 18  1  0
 11 19  1  0
 12 13  1  0
 12 20  1  0
 12 21  1  0
 13 14  2  0
 13 22  1  0
M  RAD  1   9   2
M  END
>  <reaction>  (8) 
rmg_rxn_1345

>  <mol_properties>  (8) 
{"1": {"label": "*0", "atom_type": "Cs"}, "2": {"label": "*1", "atom_type": "O2s"}, "8": {"label": "*3", "atom_type": "Cs"}, "9": {"label": "*4", "atom_type": "O2s"}, "14": {"label": "*2", "atom_type": "H0"}}

>  <type>  (8) 
unop_4

>  <geom_source>  (8) 
Heuristics

$$$$

     RDKit          3D

 22 20  0  0  0  0  0  0  0  0999 V2000
   -0.1922    2.9682   -2.1767 C   0  0  0  0  0  0  0  0  0  0  0  0
   -1.4353    2.9151   -1.3130 C   0  0  0  0  0  0  0  0  0  0  0  0
   -1.4990    1.6715   -0.6302 O   0  0  0  0  0  0  0  0  0  0  0  0
   -0.1877    2.1432   -2.8965 H   0  0  0  0  0  0  0  0  0  0  0  0
   -0.1368    3.9142   -2.7226 H   0  0  0  0  0  0  0  0  0  0  0  0
    0.7093    2.8615   -1.5645 H   0  0  0  0  0  0  0  0  0  0  0  0
   -2.3339    3.0125   -1.9291 H   0  0  0  0  0  0  0  0  0  0  0  0
   -1.4345    3.7220   -0.5739 H   0  0  0  0  0  0  0  0  0  0  0  0
    0.5349    1.4859    0.7766 C   0  0  0  0  0  3  0  0  0  0  0  0
    0.5349    0.2564    1.4918 O   0  0  0  0  0  0  0  0  0  0  0  0
    0.5349   -0.8639    0.6050 C   0  0  0  0  0  0  0  0  0  0  0  0
    0.5349   -2.1287    1.4431 C   0  0  0  0  0  0  0  0  0  0  0  0
    0.5349   -3.3673    0.5918 C   0  0  0  0  0  0  0  0  0  0  0  0
    0.5349   -3.3673   -0.6349 O   0  0  0  0  0  0  0  0  0  0  0  0
   -0.5420    1.5841    0.0317 H   0  0  0  0  0  0  0  0  0  0  0  0
    1.4323    1.5678    0.1559 H   0  0  0  0  0  0  0  0  0  0  0  0
    0.5349    2.3050    1.5007 H   0  0  0  0  0  0  0  0  0  0  0  0
   -0.3559   -0.8263   -0.0334 H   0  0  0  0  0  0  0  0  0  0  0  0
    1.4256   -0.8263   -0.0334 H   0  0  0  0  0  0  0  0  0  0  0  0
   -0.3460   -2.1558    2.0936 H   0  0  0  0  0  0  0  0  0  0  0  0
    1.4158   -2.1558    2.0936 H   0  0  0  0  0  0  0  0  0  0  0  0
    0.5349   -4.3188    1.1511 H   0  0  0  0  0  0  0  0  0  0  0  0
  1  2  1  0
  1  4  1  0
  1  5  1  0
  1  6  1  0
  2  3  1  0
  2  7  1  0
  2  8  1  0
  3 15  1  0
  9 10  1  0
  9 16  1  0
  9 17  1  0
 10 11  1  0
 11 12  1  0
 11 18  1  0
 11 19  1  0
 12 13  1  0
 12 20  1  0
 12 21  1  0
 13 14  2  0
 13 22  1  0
M  RAD  1   9   2
M  END
>  <reaction>  (9) 
rmg_rxn_1345

>  <mol_properties>  (9) 
{"1": {"label": "*0", "atom_type": "Cs"}, "2": {"label": "*1", "atom_type": "O2s"}, "8": {"label": "*3", "atom_type": "Cs"}, "9": {"label": "*4", "atom_type": "O2s"}, "14": {"label": "*2", "atom_type": "H0"}}

>  <type>  (9) 
unop_5

>  <geom_source>  (9) 
Heuristics

$$$$

     RDKit          3D

 22 20  0  0  0  0  0  0  0  0999 V2000
   -1.6291    0.2825   -1.9535 C   0  0  0  0  0  0  0  0  0  0  0  0
   -1.0426    1.6754   -1.8532 C   0  0  0  0  0  0  0  0  0  0  0  0
   -1.3458    2.2394   -0.5856 O   0  0  0  0  0  0  0  0  0  0  0  0
   -2.7133    0.3093   -1.8033 H   0  0  0  0  0  0  0  0  0  0  0  0
   -1.4182   -0.1598   -2.9312 H   0  0  0  0  0  0  0  0  0  0  0  0
   -1.2160   -0.3683   -1.1759 H   0  0  0  0  0  0  0  0  0  0  0  0
   -1.4646    2.3250   -2.6255 H   0  0  0  0  0  0  0  0  0  0  0  0
    0.0444    1.6534   -1.9769 H   0  0  0  0  0  0  0  0  0  0  0  0
    0.6881    2.0538    0.8212 C   0  0  0  0  0  3  0  0  0  0  0  0
    0.6881    0.8244    1.5364 O   0  0  0  0  0  0  0  0  0  0  0  0
    0.6881   -0.2960    0.6496 C   0  0  0  0  0  0  0  0  0  0  0  0
    0.6881   -1.5608    1.4877 C   0  0  0  0  0  0  0  0  0  0  0  0
    0.6881   -2.7994    0.6364 C   0  0  0  0  0  0  0  0  0  0  0  0
    0.6881   -2.7994   -0.5904 O   0  0  0  0  0  0  0  0  0  0  0  0
   -0.3888    2.1521    0.0763 H   0  0  0  0  0  0  0  0  0  0  0  0
    1.5855    2.1357    0.2005 H   0  0  0  0  0  0  0  0  0  0  0  0
    0.6881    2.8729    1.5452 H   0  0  0  0  0  0  0  0  0  0  0  0
   -0.2027   -0.2583    0.0112 H   0  0  0  0  0  0  0  0  0  0  0  0
    1.5788   -0.2583    0.0112 H   0  0  0  0  0  0  0  0  0  0  0  0
   -0.1928   -1.5878    2.1382 H   0  0  0  0  0  0  0  0  0  0  0  0
    1.5690   -1.5878    2.1382 H   0  0  0  0  0  0  0  0  0  0  0  0
    0.6881   -3.7508    1.1956 H   0  0  0  0  0  0  0  0  0  0  0  0
  1  2  1  0
  1  4  1  0
  1  5  1  0
  1  6  1  0
  2  3  1  0
  2  7  1  0
  2  8  1  0
  3 15  1  0
  9 10  1  0
  9 16  1  0
  9 17  1  0
 10 11  1  0
 11 12  1  0
 11 18  1  0
 11 19  1  0
 12 13  1  0
 12 20  1  0
 12 21  1  0
 13 14  2  0
 13 22  1  0
M  RAD  1   9   2
M  END
>  <reaction>  (10) 
rmg_rxn_1345

>  <mol_properties>  (10) 
{"1": {"label": "*0", "atom_type": "Cs"}, "2": {"label": "*1", "atom_type": "O2s"}, "8": {"label": "*3", "atom_type": "Cs"}, "9": {"label": "*4", "atom_type": "O2s"}, "14": {"label": "*2", "atom_type": "H0"}}

>  <type>  (10) 
unop_6

>  <geom_source>  (10) 
Heuristics

$$$$

     RDKit          3D

 22 20  0  0  0  0  0  0  0  0999 V2000
   -1.1559    0.8733   -2.5614 C   0  0  0  0  0  0  0  0  0  0  0  0
   -0.9980    2.2001   -1.8481 C   0  0  0  0  0  0  0  0  0  0  0  0
   -1.4211    2.0785   -0.4979 O   0  0  0  0  0  0  0  0  0  0  0  0
   -2.1970    0.5363   -2.5222 H   0  0  0  0  0  0  0  0  0  0  0  0
   -0.8496    0.9544   -3.6080 H   0  0  0  0  0  0  0  0  0  0  0  0
   -0.5522    0.0990   -2.0766 H   0  0  0  0  0  0  0  0  0  0  0  0
   -1.6098    2.9686   -2.3294 H   0  0  0  0  0  0  0  0  0  0  0  0
    0.0449    2.5310   -1.8610 H   0  0  0  0  0  0  0  0  0  0  0  0
    0.6128    1.8929    0.9090 C   0  0  0  0  0  3  0  0  0  0  0  0
    0.6128    0.6635    1.6242 O   0  0  0  0  0  0  0  0  0  0  0  0
    0.6128   -0.4569    0.7374 C   0  0  0  0  0  0  0  0  0  0  0  0
    0.6128   -1.7217    1.5754 C   0  0  0  0  0  0  0  0  0  0  0  0
    0.6128   -2.9603    0.7242 C   0  0  0  0  0  0  0  0  0  0  0  0
    0.6128   -2.9603   -0.5026 O   0  0  0  0  0  0  0  0  0  0  0  0
   -0.4641    1.9912    0.1641 H   0  0  0  0  0  0  0  0  0  0  0  0
    1.5103    1.9748    0.2882 H   0  0  0  0  0  0  0  0  0  0  0  0
    0.6128    2.7120    1.6330 H   0  0  0  0  0  0  0  0  0  0  0  0
   -0.2779   -0.4192    0.0990 H   0  0  0  0  0  0  0  0  0  0  0  0
    1.5036   -0.4192    0.0990 H   0  0  0  0  0  0  0  0  0  0  0  0
   -0.2681   -1.7487    2.2259 H   0  0  0  0  0  0  0  0  0  0  0  0
    1.4938   -1.7487    2.2259 H   0  0  0  0  0  0  0  0  0  0  0  0
    0.6128   -3.9117    1.2834 H   0  0  0  0  0  0  0  0  0  0  0  0
  1  2  1  0
  1  4  1  0
  1  5  1  0
  1  6  1  0
  2  3  1  0
  2  7  1  0
  2  8  1  0
  3 15  1  0
  9 10  1  0
  9 16  1  0
  9 17  1  0
 10 11  1  0
 11 12  1  0
 11 18  1  0
 11 19  1  0
 12 13  1  0
 12 20  1  0
 12 21  1  0
 13 14  2  0
 13 22  1  0
M  RAD  1   9   2
M  END
>  <reaction>  (11) 
rmg_rxn_1345

>  <mol_properties>  (11) 
{"1": {"label": "*0", "atom_type": "Cs"}, "2": {"label": "*1", "atom_type": "O2s"}, "8": {"label": "*3", "atom_type": "Cs"}, "9": {"label": "*4", "atom_type": "O2s"}, "14": {"label": "*2", "atom_type": "H0"}}

>  <type>  (11) 
unop_7

>  <geom_source>  (11) 
Heuristics

$$$$

     RDKit          3D

 22 20  0  0  0  0  0  0  0  0999 V2000
   -1.5664    3.0674    0.7767 C   0  0  0  0  0  0  0  0  0  0  0  0
   -2.1959    2.3638   -0.4077 C   0  0  0  0  0  0  0  0  0  0  0  0
   -1.1904    1.7356   -1.1895 O   0  0  0  0  0  0  0  0  0  0  0  0
   -0.8340    3.8084    0.4399 H   0  0  0  0  0  0  0  0  0  0  0  0
   -2.3267    3.5707    1.3804 H   0  0  0  0  0  0  0  0  0  0  0  0
   -1.0291    2.3538    1.4100 H   0  0  0  0  0  0  0  0  0  0  0  0
   -2.7236    3.0811   -1.0429 H   0  0  0  0  0  0  0  0  0  0  0  0
   -2.9107    1.6036   -0.0781 H   0  0  0  0  0  0  0  0  0  0  0  0
    0.8435    1.5500    0.2173 C   0  0  0  0  0  3  0  0  0  0  0  0
    0.8435    0.3206    0.9325 O   0  0  0  0  0  0  0  0  0  0  0  0
    0.8435   -0.7998    0.0458 C   0  0  0  0  0  0  0  0  0  0  0  0
    0.8435   -2.0646    0.8838 C   0  0  0  0  0  0  0  0  0  0  0  0
    0.8435   -3.3032    0.0325 C   0  0  0  0  0  0  0  0  0  0  0  0
    0.8435   -3.3032   -1.1942 O   0  0  0  0  0  0  0  0  0  0  0  0
   -0.2334    1.6483   -0.5276 H   0  0  0  0  0  0  0  0  0  0  0  0
    1.7409    1.6319   -0.4034 H   0  0  0  0  0  0  0  0  0  0  0  0
    0.8435    2.3691    0.9414 H   0  0  0  0  0  0  0  0  0  0  0  0
   -0.0473   -0.7621   -0.5927 H   0  0  0  0  0  0  0  0  0  0  0  0
    1.7342   -0.7621   -0.5927 H   0  0  0  0  0  0  0  0  0  0  0  0
   -0.0374   -2.0917    1.5343 H   0  0  0  0  0  0  0  0  0  0  0  0
    1.7244   -2.0917    1.5343 H   0  0  0  0  0  0  0  0  0  0  0  0
    0.8435   -4.2547    0.5918 H   0  0  0  0  0  0  0  0  0  0  0  0
  1  2  1  0
  1  4  1  0
  1  5  1  0
  1  6  1  0
  2  3  1  0
  2  7  1  0
  2  8  1  0
  3 15  1  0
  9 10  1  0
  9 16  1  0
  9 17  1  0
 10 11  1  0
 11 12  1  0
 11 18  1  0
 11 19  1  0
 12 13  1  0
 12 20  1  0
 12 21  1  0
 13 14  2  0
 13 22  1  0
M  RAD  1   9   2
M  END
>  <reaction>  (12) 
rmg_rxn_1345

>  <mol_properties>  (12) 
{"1": {"label": "*0", "atom_type": "Cs"}, "2": {"label": "*1", "atom_type": "O2s"}, "8": {"label": "*3", "atom_type": "Cs"}, "9": {"label": "*4", "atom_type": "O2s"}, "14": {"label": "*2", "atom_type": "H0"}}

>  <type>  (12) 
unop_8

>  <geom_source>  (12) 
Heuristics

$$$$

     RDKit          3D

 22 20  0  0  0  0  0  0  0  0999 V2000
   -2.3038    0.3450   -0.1620 C   0  0  0  0  0  0  0  0  0  0  0  0
   -1.5573    1.0100   -1.2998 C   0  0  0  0  0  0  0  0  0  0  0  0
   -1.1741    2.3253   -0.9255 O   0  0  0  0  0  0  0  0  0  0  0  0
   -3.1872    0.9303    0.1134 H   0  0  0  0  0  0  0  0  0  0  0  0
   -2.6206   -0.6639   -0.4405 H   0  0  0  0  0  0  0  0  0  0  0  0
   -1.6727    0.2822    0.7306 H   0  0  0  0  0  0  0  0  0  0  0  0
   -2.1941    1.0795   -2.1865 H   0  0  0  0  0  0  0  0  0  0  0  0
   -0.6588    0.4441   -1.5636 H   0  0  0  0  0  0  0  0  0  0  0  0
    0.8598    2.1397    0.4813 C   0  0  0  0  0  3  0  0  0  0  0  0
    0.8598    0.9103    1.1965 O   0  0  0  0  0  0  0  0  0  0  0  0
    0.8598   -0.2101    0.3097 C   0  0  0  0  0  0  0  0  0  0  0  0
    0.8598   -1.4749    1.1478 C   0  0  0  0  0  0  0  0  0  0  0  0
    0.8598   -2.7135    0.2965 C   0  0  0  0  0  0  0  0  0  0  0  0
    0.8598   -2.7135   -0.9302 O   0  0  0  0  0  0  0  0  0  0  0  0
   -0.2171    2.2380   -0.2636 H   0  0  0  0  0  0  0  0  0  0  0  0
    1.7572    2.2216   -0.1394 H   0  0  0  0  0  0  0  0  0  0  0  0
    0.8598    2.9588    1.2054 H   0  0  0  0  0  0  0  0  0  0  0  0
   -0.0310   -0.1724   -0.3287 H   0  0  0  0  0  0  0  0  0  0  0  0
    1.7506   -0.1724   -0.3287 H   0  0  0  0  0  0  0  0  0  0  0  0
   -0.0211   -1.5020    1.7983 H   0  0  0  0  0  0  0  0  0  0  0  0
    1.7407   -1.5020    1.7983 H   0  0  0  0  0  0  0  0  0  0  0  0
    0.8598   -3.6650    0.8558 H   0  0  0  0  0  0  0  0  0  0  0  0
  1  2  1  0
  1  4  1  0
  1  5  1  0
  1  6  1  0
  2  3  1  0
  2  7  1  0
  2  8  1  0
  3 15  1  0
  9 10  1  0
  9 16  1  0
  9 17  1  0
 10 11  1  0
 11 12  1  0
 11 18  1  0
 11 19  1  0
 12 13  1  0
 12 20  1  0
 12 21  1  0
 13 14  2  0
 13 22  1  0
M  RAD  1   9   2
M  END
>  <reaction>  (13) 
rmg_rxn_1345

>  <mol_properties>  (13) 
{"1": {"label": "*0", "atom_type": "Cs"}, "2": {"label": "*1", "atom_type": "O2s"}, "8": {"label": "*3", "atom_type": "Cs"}, "9": {"label": "*4", "atom_type": "O2s"}, "14": {"label": "*2", "atom_type": "H0"}}

>  <type>  (13) 
unop_9

>  <geom_source>  (13) 
Heuristics

$$$$

     RDKit          3D

 22 20  0  0  0  0  0  0  0  0999 V2000
   -1.8734    2.3277    1.0202 C   0  0  0  0  0  0  0  0  0  0  0  0
   -2.2616    1.8580   -0.3664 C   0  0  0  0  0  0  0  0  0  0  0  0
   -1.1363    1.9155   -1.2309 O   0  0  0  0  0  0  0  0  0  0  0  0
   -1.4780    3.3482    0.9847 H   0  0  0  0  0  0  0  0  0  0  0  0
   -2.7339    2.3051    1.6947 H   0  0  0  0  0  0  0  0  0  0  0  0
   -1.0830    1.6944    1.4363 H   0  0  0  0  0  0  0  0  0  0  0  0
   -3.0445    2.4987   -0.7824 H   0  0  0  0  0  0  0  0  0  0  0  0
   -2.6339    0.8294   -0.3424 H   0  0  0  0  0  0  0  0  0  0  0  0
    0.8976    1.7299    0.1759 C   0  0  0  0  0  3  0  0  0  0  0  0
    0.8976    0.5004    0.8911 O   0  0  0  0  0  0  0  0  0  0  0  0
    0.8976   -0.6199    0.0044 C   0  0  0  0  0  0  0  0  0  0  0  0
    0.8976   -1.8847    0.8424 C   0  0  0  0  0  0  0  0  0  0  0  0
    0.8976   -3.1233   -0.0089 C   0  0  0  0  0  0  0  0  0  0  0  0
    0.8976   -3.1233   -1.2356 O   0  0  0  0  0  0  0  0  0  0  0  0
   -0.1793    1.8282   -0.5689 H   0  0  0  0  0  0  0  0  0  0  0  0
    1.7950    1.8118   -0.4448 H   0  0  0  0  0  0  0  0  0  0  0  0
    0.8976    2.5490    0.9000 H   0  0  0  0  0  0  0  0  0  0  0  0
    0.0068   -0.5823   -0.6341 H   0  0  0  0  0  0  0  0  0  0  0  0
    1.7883   -0.5823   -0.6341 H   0  0  0  0  0  0  0  0  0  0  0  0
    0.0167   -1.9118    1.4929 H   0  0  0  0  0  0  0  0  0  0  0  0
    1.7785   -1.9118    1.4929 H   0  0  0  0  0  0  0  0  0  0  0  0
    0.8976   -4.0748    0.5504 H   0  0  0  0  0  0  0  0  0  0  0  0
  1  2  1  0
  1  4  1  0
  1  5  1  0
  1  6  1  0
  2  3  1  0
  2  7  1  0
  2  8  1  0
  3 15  1  0
  9 10  1  0
  9 16  1  0
  9 17  1  0
 10 11  1  0
 11 12  1  0
 11 18  1  0
 11 19  1  0
 12 13  1  0
 12 20  1  0
 12 21  1  0
 13 14  2  0
 13 22  1  0
M  RAD  1   9   2
M  END
>  <reaction>  (14) 
rmg_rxn_1345

>  <mol_properties>  (14) 
{"1": {"label": "*0", "atom_type": "Cs"}, "2": {"label": "*1", "atom_type": "O2s"}, "8": {"label": "*3", "atom_type": "Cs"}, "9": {"label": "*4", "atom_type": "O2s"}, "14": {"label": "*2", "atom_type": "H0"}}

>  <type>  (14) 
unop_10

>  <geom_source>  (14) 
Heuristics

$$$$

     RDKit          3D

 22 20  0  0  0  0  0  0  0  0999 V2000
   -0.6462    1.7701   -2.7542 C   0  0  0  0  0  0  0  0  0  0  0  0
   -1.1397    2.6649   -1.6362 C   0  0  0  0  0  0  0  0  0  0  0  0
   -1.4751    1.8816   -0.5000 O   0  0  0  0  0  0  0  0  0  0  0  0
   -1.4077    1.0294   -3.0194 H   0  0  0  0  0  0  0  0  0  0  0  0
   -0.3992    2.3572   -3.6432 H   0  0  0  0  0  0  0  0  0  0  0  0
    0.2434    1.2140   -2.4409 H   0  0  0  0  0  0  0  0  0  0  0  0
   -2.0339    3.2115   -1.9497 H   0  0  0  0  0  0  0  0  0  0  0  0
   -0.3742    3.3917   -1.3482 H   0  0  0  0  0  0  0  0  0  0  0  0
    0.5588    1.6960    0.9068 C   0  0  0  0  0  3  0  0  0  0  0  0
    0.5588    0.4666    1.6220 O   0  0  0  0  0  0  0  0  0  0  0  0
    0.5588   -0.6538    0.7352 C   0  0  0  0  0  0  0  0  0  0  0  0
    0.5588   -1.9186    1.5733 C   0  0  0  0  0  0  0  0  0  0  0  0
    0.5588   -3.1572    0.7220 C   0  0  0  0  0  0  0  0  0  0  0  0
    0.5588   -3.1572   -0.5048 O   0  0  0  0  0  0  0  0  0  0  0  0
   -0.5181    1.7943    0.1619 H   0  0  0  0  0  0  0  0  0  0  0  0
    1.4563    1.7779    0.2861 H   0  0  0  0  0  0  0  0  0  0  0  0
    0.5588    2.5151    1.6309 H   0  0  0  0  0  0  0  0  0  0  0  0
   -0.3319   -0.6161    0.0968 H   0  0  0  0  0  0  0  0  0  0  0  0
    1.4496   -0.6161    0.0968 H   0  0  0  0  0  0  0  0  0  0  0  0
   -0.3221   -1.9456    2.2238 H   0  0  0  0  0  0  0  0  0  0  0  0
    1.4398   -1.9456    2.2238 H   0  0  0  0  0  0  0  0  0  0  0  0
    0.5588   -4.1086    1.2812 H   0  0  0  0  0  0  0  0  0  0  0  0
  1  2  1  0
  1  4  1  0
  1  5  1  0
  1  6  1  0
  2  3  1  0
  2  7  1  0
  2  8  1  0
  3 15  1  0
  9 10  1  0
  9 16  1  0
  9 17  1  0
 10 11  1  0
 11 12  1  0
 11 18  1  0
 11 19  1  0
 12 13  1  0
 12 20  1  0
 12 21  1  0
 13 14  2  0
 13 22  1  0
M  RAD  1   9   2
M  END
>  <reaction>  (15) 
rmg_rxn_1345

>  <mol_properties>  (15) 
{"1": {"label": "*0", "atom_type": "Cs"}, "2": {"label": "*1", "atom_type": "O2s"}, "8": {"label": "*3", "atom_type": "Cs"}, "9": {"label": "*4", "atom_type": "O2s"}, "14": {"label": "*2", "atom_type": "H0"}}

>  <type>  (15) 
unop_11

>  <geom_source>  (15) 
Heuristics

$$$$

     RDKit          3D

 22 20  0  0  0  0  0  0  0  0999 V2000
   -2.2767    0.9233    0.5672 C   0  0  0  0  0  0  0  0  0  0  0  0
   -1.8957    1.0551   -0.8928 C   0  0  0  0  0  0  0  0  0  0  0  0
   -1.1297    2.2346   -1.0898 O   0  0  0  0  0  0  0  0  0  0  0  0
   -2.8437    1.7997    0.8980 H   0  0  0  0  0  0  0  0  0  0  0  0
   -2.8817    0.0275    0.7330 H   0  0  0  0  0  0  0  0  0  0  0  0
   -1.3828    0.8662    1.1969 H   0  0  0  0  0  0  0  0  0  0  0  0
   -2.7911    1.1214   -1.5176 H   0  0  0  0  0  0  0  0  0  0  0  0
   -1.3068    0.1944   -1.2239 H   0  0  0  0  0  0  0  0  0  0  0  0
    0.9042    2.0490    0.3170 C   0  0  0  0  0  3  0  0  0  0  0  0
    0.9042    0.8196    1.0322 O   0  0  0  0  0  0  0  0  0  0  0  0
    0.9042   -0.3008    0.1455 C   0  0  0  0  0  0  0  0  0  0  0  0
    0.9042   -1.5655    0.9835 C   0  0  0  0  0  0  0  0  0  0  0  0
    0.9042   -2.8042    0.1322 C   0  0  0  0  0  0  0  0  0  0  0  0
    0.9042   -2.8042   -1.0945 O   0  0  0  0  0  0  0  0  0  0  0  0
   -0.1727    2.1473   -0.4279 H   0  0  0  0  0  0  0  0  0  0  0  0
    1.8016    2.1309   -0.3037 H   0  0  0  0  0  0  0  0  0  0  0  0
    0.9042    2.8681    1.0411 H   0  0  0  0  0  0  0  0  0  0  0  0
    0.0134   -0.2631   -0.4930 H   0  0  0  0  0  0  0  0  0  0  0  0
    1.7949   -0.2631   -0.4930 H   0  0  0  0  0  0  0  0  0  0  0  0
    0.0233   -1.5926    1.6340 H   0  0  0  0  0  0  0  0  0  0  0  0
    1.7851   -1.5926    1.6340 H   0  0  0  0  0  0  0  0  0  0  0  0
    0.9042   -3.7556    0.6915 H   0  0  0  0  0  0  0  0  0  0  0  0
  1  2  1  0
  1  4  1  0
  1  5  1  0
  1  6  1  0
  2  3  1  0
  2  7  1  0
  2  8  1  0
  3 15  1  0
  9 10  1  0
  9 16  1  0
  9 17  1  0
 10 11  1  0
 11 12  1  0
 11 18  1  0
 11 19  1  0
 12 13  1  0
 12 20  1  0
 12 21  1  0
 13 14  2  0
 13 22  1  0
M  RAD  1   9   2
M  END
>  <reaction>  (16) 
rmg_rxn_1345

>  <mol_properties>  (16) 
{"1": {"label": "*0", "atom_type": "Cs"}, "2": {"label": "*1", "atom_type": "O2s"}, "8": {"label": "*3", "atom_type": "Cs"}, "9": {"label": "*4", "atom_type": "O2s"}, "14": {"label": "*2", "atom_type": "H0"}}

>  <type>  (16) 
unop_12

>  <geom_source>  (16) 
Heuristics

$$$$

     RDKit          3D

 22 20  0  0  0  0  0  0  0  0999 V2000
   -1.2143   -1.3150    1.0904 O   0  0  0  0  0  0  0  0  0  0  0  0
    1.4515   -0.0756   -0.2431 O   0  0  0  0  0  0  0  0  0  0  0  0
   -3.7116    0.6282   -1.8181 O   0  0  0  0  0  0  0  0  0  0  0  0
   -3.0533    0.0345    0.3752 C   0  0  0  0  0  0  0  0  0  0  0  0
   -1.6328   -0.4391    0.0717 C   0  0  0  0  0  0  0  0  0  0  0  0
    2.7781    0.2054    0.0963 C   0  0  0  0  0  0  0  0  0  0  0  0
    3.3437    1.2419   -0.8620 C   0  0  0  0  0  0  0  0  0  0  0  0
   -3.5374    0.9973   -0.6675 C   0  0  0  0  0  0  0  0  0  0  0  0
    0.0898   -1.7240    0.7791 C   0  0  0  0  0  3  0  0  0  0  0  0
   -3.7409   -0.8377    0.4167 H   0  0  0  0  0  0  0  0  0  0  0  0
   -3.0675    0.5379    1.3661 H   0  0  0  0  0  0  0  0  0  0  0  0
    2.8224    0.6002    1.1346 H   0  0  0  0  0  0  0  0  0  0  0  0
    3.3845   -0.7241    0.0341 H   0  0  0  0  0  0  0  0  0  0  0  0
   -1.6321   -0.9604   -0.9149 H   0  0  0  0  0  0  0  0  0  0  0  0
   -0.9633    0.4525    0.0235 H   0  0  0  0  0  0  0  0  0  0  0  0
    2.7501    2.1788   -0.8025 H   0  0  0  0  0  0  0  0  0  0  0  0
    4.3975    1.4654   -0.5927 H   0  0  0  0  0  0  0  0  0  0  0  0
    3.3120    0.8549   -1.9026 H   0  0  0  0  0  0  0  0  0  0  0  0
   -3.7491    2.0268   -0.3976 H   0  0  0  0  0  0  0  0  0  0  0  0
    0.7769   -1.4260    1.5980 H   0  0  0  0  0  0  0  0  0  0  0  0
    0.1139   -2.8273    0.6617 H   0  0  0  0  0  0  0  0  0  0  0  0
    1.0821   -0.8945    0.5537 H   0  0  0  0  0  0  0  0  0  0  0  0
  1  9  1  0
  1  5  1  0
  2  6  1  0
  2 22  1  0
  3  8  2  0
  4  8  1  0
  4  5  1  0
  4 10  1  0
  4 11  1  0
  5 14  1  0
  5 15  1  0
  6  7  1  0
  6 12  1  0
  6 13  1  0
  7 16  1  0
  7 17  1  0
  7 18  1  0
  8 19  1  0
  9 20  1  0
  9 21  1  0
M  RAD  1   9   2
M  END
>  <reaction>  (17) 
rmg_rxn_1345

>  <mol_properties>  (17) 
{"1": {"label": "*0", "atom_type": "Cs"}, "2": {"label": "*1", "atom_type": "O2s"}, "8": {"label": "*3", "atom_type": "Cs"}, "9": {"label": "*4", "atom_type": "O2s"}, "14": {"label": "*2", "atom_type": "H0"}}

>  <type>  (17) 
unop_13

>  <geom_source>  (17) 
AutoTST

$$$$

     RDKit          3D

 22 20  0  0  0  0  0  0  0  0999 V2000
   -2.0899    1.6043    0.9503 C   0  0  0  0  0  0  0  0  0  0  0  0
   -2.1572    1.3712   -0.5448 C   0  0  0  0  0  0  0  0  0  0  0  0
   -1.1197    2.0903   -1.1953 O   0  0  0  0  0  0  0  0  0  0  0  0
   -2.1724    2.6721    1.1778 H   0  0  0  0  0  0  0  0  0  0  0  0
   -2.8933    1.0699    1.4648 H   0  0  0  0  0  0  0  0  0  0  0  0
   -1.1287    1.2666    1.3517 H   0  0  0  0  0  0  0  0  0  0  0  0
   -3.1148    1.7184   -0.9436 H   0  0  0  0  0  0  0  0  0  0  0  0
   -2.0497    0.3083   -0.7816 H   0  0  0  0  0  0  0  0  0  0  0  0
    0.9143    1.9047    0.2116 C   0  0  0  0  0  3  0  0  0  0  0  0
    0.9143    0.6753    0.9268 O   0  0  0  0  0  0  0  0  0  0  0  0
    0.9143   -0.4451    0.0400 C   0  0  0  0  0  0  0  0  0  0  0  0
    0.9143   -1.7098    0.8780 C   0  0  0  0  0  0  0  0  0  0  0  0
    0.9143   -2.9485    0.0268 C   0  0  0  0  0  0  0  0  0  0  0  0
    0.9143   -2.9485   -1.2000 O   0  0  0  0  0  0  0  0  0  0  0  0
   -0.1626    2.0030   -0.5333 H   0  0  0  0  0  0  0  0  0  0  0  0
    1.8117    1.9866   -0.4092 H   0  0  0  0  0  0  0  0  0  0  0  0
    0.9143    2.7238    0.9356 H   0  0  0  0  0  0  0  0  0  0  0  0
    0.0235   -0.4074   -0.5984 H   0  0  0  0  0  0  0  0  0  0  0  0
    1.8050   -0.4074   -0.5984 H   0  0  0  0  0  0  0  0  0  0  0  0
    0.0333   -1.7369    1.5286 H   0  0  0  0  0  0  0  0  0  0  0  0
    1.7952   -1.7369    1.5286 H   0  0  0  0  0  0  0  0  0  0  0  0
    0.9143   -3.8999    0.5860 H   0  0  0  0  0  0  0  0  0  0  0  0
  1  2  1  0
  1  4  1  0
  1  5  1  0
  1  6  1  0
  2  3  1  0
  2  7  1  0
  2  8  1  0
  3 15  1  0
  9 10  1  0
  9 16  1  0
  9 17  1  0
 10 11  1  0
 11 12  1  0
 11 18  1  0
 11 19  1  0
 12 13  1  0
 12 20  1  0
 12 21  1  0
 13 14  2  0
 13 22  1  0
M  RAD  1   9   2
M  END
>  <reaction>  (18) 
rmg_rxn_1345

>  <mol_properties>  (18) 
{"1": {"label": "*0", "atom_type": "Cs"}, "2": {"label": "*1", "atom_type": "O2s"}, "8": {"label": "*3", "atom_type": "Cs"}, "9": {"label": "*4", "atom_type": "O2s"}, "14": {"label": "*2", "atom_type": "H0"}}

>  <type>  (18) 
unop_14

>  <geom_source>  (18) 
gaussian_log

$$$$
