
     RDKit          3D

  5  4  0  0  0  0  0  0  0  0999 V2000
   -0.4583    0.0384    0.1517 N   0  0  0  0  0  0  0  0  0  0  0  0
    0.7454   -0.3487    0.5322 N   0  0  0  0  0  0  0  0  0  0  0  0
    0.7566   -1.0388    1.5193 O   0  0  0  0  0  0  0  0  0  0  0  0
   -1.2688   -0.2521    0.6850 H   0  0  0  0  0  0  0  0  0  0  0  0
   -0.5137    0.6154   -0.6670 H   0  0  0  0  0  0  0  0  0  0  0  0
  1  2  1  0
  1  4  1  0
  1  5  1  0
  2  3  2  0
M  END
>  <reaction>  (1) 
rmg_rxn_1519

>  <mol_properties>  (1) 
{"0": {"label": "donator", "atom_type": "N3s"}, "3": {"label": "d_hydrogen", "atom_type": "H0"}}

>  <type>  (1) 
r1h

$$$$

     RDKit          3D

 11 10  0  0  0  0  0  0  0  0999 V2000
   -1.2230    0.3768   -0.0849 C   0  0  0  0  0  0  0  0  0  0  0  0
   -0.0734   -0.5533    0.2746 C   0  0  0  0  0  0  0  0  0  0  0  0
   -0.0853   -1.8426   -0.5372 C   0  0  0  0  0  0  0  0  0  0  0  0
    0.0319   -1.6944   -1.8815 O   0  0  0  0  0  1  0  0  0  0  0  0
   -2.1874   -0.0885    0.1341 H   0  0  0  0  0  0  0  0  0  0  0  0
   -1.1670    1.3099    0.4765 H   0  0  0  0  0  0  0  0  0  0  0  0
   -1.2014    0.6189   -1.1483 H   0  0  0  0  0  0  0  0  0  0  0  0
    0.8834   -0.0518    0.1071 H   0  0  0  0  0  0  0  0  0  0  0  0
   -0.1104   -0.8149    1.3362 H   0  0  0  0  0  0  0  0  0  0  0  0
    0.6767   -2.5604   -0.1861 H   0  0  0  0  0  0  0  0  0  0  0  0
   -1.0401   -2.3871   -0.3877 H   0  0  0  0  0  0  0  0  0  0  0  0
  1  2  1  0
  1  5  1  0
  1  6  1  0
  1  7  1  0
  2  3  1  0
  2  8  1  0
  2  9  1  0
  3  4  1  0
  3 10  1  0
  3 11  1  0
M  RAD  1   4   2
M  END
>  <reaction>  (2) 
rmg_rxn_1519

>  <mol_properties>  (2) 
{"3": {"label": "acceptor", "atom_type": "O2s"}}

>  <type>  (2) 
r2

$$$$

     RDKit          3D

 12 11  0  0  0  0  0  0  0  0999 V2000
   -1.4643   -0.2505   -0.5284 C   0  0  0  0  0  0  0  0  0  0  0  0
   -0.3946    0.4302    0.3143 C   0  0  0  0  0  0  0  0  0  0  0  0
   -0.5959    0.2382    1.8102 C   0  0  0  0  0  0  0  0  0  0  0  0
   -0.5633   -1.1190    2.2092 O   0  0  0  0  0  0  0  0  0  0  0  0
   -2.4511    0.1644   -0.3109 H   0  0  0  0  0  0  0  0  0  0  0  0
   -1.5019   -1.3198   -0.3181 H   0  0  0  0  0  0  0  0  0  0  0  0
   -1.2720   -0.1182   -1.5941 H   0  0  0  0  0  0  0  0  0  0  0  0
    0.5965    0.0515    0.0385 H   0  0  0  0  0  0  0  0  0  0  0  0
   -0.3776    1.5047    0.1078 H   0  0  0  0  0  0  0  0  0  0  0  0
   -1.5821    0.6048    2.1034 H   0  0  0  0  0  0  0  0  0  0  0  0
    0.1495    0.8220    2.3649 H   0  0  0  0  0  0  0  0  0  0  0  0
    0.3017   -1.4750    1.9997 H   0  0  0  0  0  0  0  0  0  0  0  0
  1  2  1  0
  1  5  1  0
  1  6  1  0
  1  7  1  0
  2  3  1  0
  2  8  1  0
  2  9  1  0
  3  4  1  0
  3 10  1  0
  3 11  1  0
  4 12  1  0
M  END
>  <reaction>  (3) 
rmg_rxn_1519

>  <mol_properties>  (3) 
{"0": {"label": "a_hydrogen", "atom_type": "H0"}, "4": {"label": "acceptor", "atom_type": "O2s"}}

>  <type>  (3) 
r2h

$$$$

     RDKit          3D

 16 14  0  0  0  0  0  0  0  0999 V2000
    1.2617   -0.3974    1.9940 N   0  0  0  0  0  0  0  0  0  0  0  0
    0.7382   -1.5313    1.7605 N   0  0  0  0  0  0  0  0  0  0  0  0
   -0.1700   -1.5604    0.9575 O   0  0  0  0  0  0  0  0  0  0  0  0
    0.7257    0.4542    1.3743 H   0  0  0  0  0  0  0  0  0  0  0  0
    2.0069   -0.4198    2.6738 H   0  0  0  0  0  0  0  0  0  0  0  0
   -2.1386    1.0060   -1.6269 C   0  0  0  0  0  0  0  0  0  0  0  0
   -0.7883    0.3083   -1.6977 C   0  0  0  0  0  0  0  0  0  0  0  0
    0.2474    0.9259   -0.7710 C   0  0  0  0  0  0  0  0  0  0  0  0
   -0.1423    0.9531    0.5601 O   0  0  0  0  0  1  0  0  0  0  0  0
   -2.0557    2.0551   -1.9228 H   0  0  0  0  0  0  0  0  0  0  0  0
   -2.8620    0.5278   -2.2887 H   0  0  0  0  0  0  0  0  0  0  0  0
   -2.5330    0.9736   -0.6111 H   0  0  0  0  0  0  0  0  0  0  0  0
   -0.8959   -0.7452   -1.4305 H   0  0  0  0  0  0  0  0  0  0  0  0
   -0.3943    0.3451   -2.7180 H   0  0  0  0  0  0  0  0  0  0  0  0
    1.2186    0.4240   -0.8888 H   0  0  0  0  0  0  0  0  0  0  0  0
    0.4118    1.9799   -1.0577 H   0  0  0  0  0  0  0  0  0  0  0  0
  1  2  1  0
  1  4  1  0
  1  5  1  0
  2  3  2  0
  6  7  1  0
  6 10  1  0
  6 11  1  0
  6 12  1  0
  7  8  1  0
  7 13  1  0
  7 14  1  0
  8  9  1  0
  8 15  1  0
  8 16  1  0
M  RAD  1   9   2
M  END
>  <reaction>  (4) 
rmg_rxn_1519

>  <mol_properties>  (4) 
{"0": {"label": "*1", "atom_type": "N3s"}, "1": {"label": "*0", "atom_type": "N3d"}, "3": {"label": "*2", "atom_type": "H0"}, "7": {"label": "*4", "atom_type": "Cs"}, "8": {"label": "*3", "atom_type": "O2s"}}

>  <type>  (4) 
ts

$$$$

     RDKit          3D

 16 14  0  0  0  0  0  0  0  0999 V2000
    1.8671    0.6787   -0.0003 N   0  0  0  0  0  0  0  0  0  0  0  0
    2.1939   -0.5183   -0.0448 N   0  0  0  0  0  0  0  0  0  0  0  0
    1.4741   -1.4816   -0.0411 O   0  0  0  0  0  1  0  0  0  0  0  0
    0.7545    1.1931    0.0864 H   0  0  0  0  0  0  0  0  0  0  0  0
    2.6410    1.3348   -0.0063 H   0  0  0  0  0  0  0  0  0  0  0  0
   -2.7003   -1.1121   -0.1010 C   0  0  0  0  0  0  0  0  0  0  0  0
   -1.4680   -0.3679    0.3911 C   0  0  0  0  0  0  0  0  0  0  0  0
   -1.2704    0.9631   -0.3396 C   0  0  0  0  0  0  0  0  0  0  0  0
   -0.2478    1.7413    0.1518 O   0  0  0  0  0  0  0  0  0  0  0  0
   -3.6035   -0.5376    0.0945 H   0  0  0  0  0  0  0  0  0  0  0  0
   -2.6339   -1.2933   -1.1718 H   0  0  0  0  0  0  0  0  0  0  0  0
   -2.7879   -2.0709    0.4040 H   0  0  0  0  0  0  0  0  0  0  0  0
   -1.5454   -0.1761    1.4636 H   0  0  0  0  0  0  0  0  0  0  0  0
   -0.5793   -0.9908    0.2275 H   0  0  0  0  0  0  0  0  0  0  0  0
   -1.1523    0.7808   -1.4237 H   0  0  0  0  0  0  0  0  0  0  0  0
   -2.1830    1.5661   -0.2148 H   0  0  0  0  0  0  0  0  0  0  0  0
  1  2  2  3
  1  5  1  0
  2  3  1  0
  4  9  1  0
  6  7  1  0
  6 10  1  0
  6 11  1  0
  6 12  1  0
  7  8  1  0
  7 13  1  0
  7 14  1  0
  8  9  1  0
  8 15  1  0
  8 16  1  0
M  RAD  1   3   2
M  END
>  <reaction>  (5) 
rmg_rxn_1519

>  <mol_properties>  (5) 
{"0": {"label": "*1", "atom_type": "N3s"}, "1": {"label": "*0", "atom_type": "N3d"}, "3": {"label": "*2", "atom_type": "H0"}, "7": {"label": "*4", "atom_type": "Cs"}, "8": {"label": "*3", "atom_type": "O2s"}}

>  <type>  (5) 
unop_1

>  <geom_source>  (5) 
crest_best.xyz

$$$$

     RDKit          3D

 16 14  0  0  0  0  0  0  0  0999 V2000
    0.5265   -1.0008    0.4619 N   0  0  0  0  0  0  0  0  0  0  0  0
    0.5265   -2.2036   -0.0828 N   0  0  0  0  0  0  0  0  0  0  0  0
    0.5265   -2.2036   -1.2873 O   0  0  0  0  0  1  0  0  0  0  0  0
    0.5265   -0.0182   -0.2533 H   0  0  0  0  0  0  0  0  0  0  0  0
    0.5265   -0.9545    1.4640 H   0  0  0  0  0  0  0  0  0  0  0  0
   -0.3373    1.5870    1.8731 C   0  0  0  0  0  0  0  0  0  0  0  0
   -1.2647    1.3288    0.6937 C   0  0  0  0  0  0  0  0  0  0  0  0
   -0.6364    1.6678   -0.6500 C   0  0  0  0  0  0  0  0  0  0  0  0
    0.5265    0.9118   -0.9302 O   0  0  0  0  0  0  0  0  0  0  0  0
   -0.0722    2.6451    1.9332 H   0  0  0  0  0  0  0  0  0  0  0  0
   -0.8082    1.3050    2.8158 H   0  0  0  0  0  0  0  0  0  0  0  0
    0.5884    1.0200    1.7704 H   0  0  0  0  0  0  0  0  0  0  0  0
   -1.5752    0.2776    0.6847 H   0  0  0  0  0  0  0  0  0  0  0  0
   -2.1822    1.9158    0.7987 H   0  0  0  0  0  0  0  0  0  0  0  0
   -1.3780    1.5467   -1.4497 H   0  0  0  0  0  0  0  0  0  0  0  0
   -0.3147    2.7116   -0.6581 H   0  0  0  0  0  0  0  0  0  0  0  0
  1  2  2  3
  1  5  1  0
  2  3  1  0
  4  9  1  0
  6  7  1  0
  6 10  1  0
  6 11  1  0
  6 12  1  0
  7  8  1  0
  7 13  1  0
  7 14  1  0
  8  9  1  0
  8 15  1  0
  8 16  1  0
M  RAD  1   3   2
M  END
>  <reaction>  (6) 
rmg_rxn_1519

>  <mol_properties>  (6) 
{"0": {"label": "*1", "atom_type": "N3s"}, "1": {"label": "*0", "atom_type": "N3d"}, "3": {"label": "*2", "atom_type": "H0"}, "7": {"label": "*4", "atom_type": "Cs"}, "8": {"label": "*3", "atom_type": "O2s"}}

>  <type>  (6) 
unop_2

>  <geom_source>  (6) 
Heuristics

$$$$

     RDKit          3D

 16 14  0  0  0  0  0  0  0  0999 V2000
    1.8671    0.6787    0.0002 N   0  0  0  0  0  0  0  0  0  0  0  0
    2.1939   -0.5183    0.0447 N   0  0  0  0  0  0  0  0  0  0  0  0
    1.4741   -1.4816    0.0412 O   0  0  0  0  0  1  0  0  0  0  0  0
    0.7545    1.1931   -0.0866 H   0  0  0  0  0  0  0  0  0  0  0  0
    2.6409    1.3348    0.0063 H   0  0  0  0  0  0  0  0  0  0  0  0
   -2.7002   -1.1121    0.1009 C   0  0  0  0  0  0  0  0  0  0  0  0
   -1.4679   -0.3679   -0.3911 C   0  0  0  0  0  0  0  0  0  0  0  0
   -1.2704    0.9631    0.3396 C   0  0  0  0  0  0  0  0  0  0  0  0
   -0.2478    1.7414   -0.1517 O   0  0  0  0  0  0  0  0  0  0  0  0
   -3.6034   -0.5377   -0.0947 H   0  0  0  0  0  0  0  0  0  0  0  0
   -2.7879   -2.0710   -0.4039 H   0  0  0  0  0  0  0  0  0  0  0  0
   -2.6339   -1.2933    1.1717 H   0  0  0  0  0  0  0  0  0  0  0  0
   -0.5793   -0.9908   -0.2275 H   0  0  0  0  0  0  0  0  0  0  0  0
   -1.5453   -0.1761   -1.4636 H   0  0  0  0  0  0  0  0  0  0  0  0
   -2.1830    1.5661    0.2148 H   0  0  0  0  0  0  0  0  0  0  0  0
   -1.1523    0.7808    1.4238 H   0  0  0  0  0  0  0  0  0  0  0  0
  1  2  2  3
  1  5  1  0
  2  3  1  0
  4  9  1  0
  6  7  1  0
  6 10  1  0
  6 11  1  0
  6 12  1  0
  7  8  1  0
  7 13  1  0
  7 14  1  0
  8  9  1  0
  8 15  1  0
  8 16  1  0
M  RAD  1   3   2
M  END
>  <reaction>  (7) 
rmg_rxn_1519

>  <mol_properties>  (7) 
{"0": {"label": "*1", "atom_type": "N3s"}, "1": {"label": "*0", "atom_type": "N3d"}, "3": {"label": "*2", "atom_type": "H0"}, "7": {"label": "*4", "atom_type": "Cs"}, "8": {"label": "*3", "atom_type": "O2s"}}

>  <type>  (7) 
unop_3

>  <geom_source>  (7) 
Heuristics

$$$$

     RDKit          3D

 16 14  0  0  0  0  0  0  0  0999 V2000
    0.7766   -0.4769    1.4389 N   0  0  0  0  0  0  0  0  0  0  0  0
    0.7766   -1.6797    0.8942 N   0  0  0  0  0  0  0  0  0  0  0  0
    0.7766   -1.6797   -0.3103 O   0  0  0  0  0  1  0  0  0  0  0  0
    0.7766    0.5057    0.7237 H   0  0  0  0  0  0  0  0  0  0  0  0
    0.7766   -0.4305    2.4410 H   0  0  0  0  0  0  0  0  0  0  0  0
   -2.1960    0.9805   -0.0839 C   0  0  0  0  0  0  0  0  0  0  0  0
   -1.1496    0.2794   -0.9391 C   0  0  0  0  0  0  0  0  0  0  0  0
    0.1052    1.1123   -1.1560 C   0  0  0  0  0  0  0  0  0  0  0  0
    0.7766    1.4358    0.0468 O   0  0  0  0  0  0  0  0  0  0  0  0
   -2.5359    1.9008   -0.5645 H   0  0  0  0  0  0  0  0  0  0  0  0
   -3.0674    0.3439    0.0760 H   0  0  0  0  0  0  0  0  0  0  0  0
   -1.7853    1.2487    0.8899 H   0  0  0  0  0  0  0  0  0  0  0  0
   -0.8668   -0.6740   -0.4779 H   0  0  0  0  0  0  0  0  0  0  0  0
   -1.5674    0.0307   -1.9194 H   0  0  0  0  0  0  0  0  0  0  0  0
    0.7810    0.5952   -1.8488 H   0  0  0  0  0  0  0  0  0  0  0  0
   -0.1576    2.0703   -1.6101 H   0  0  0  0  0  0  0  0  0  0  0  0
  1  2  2  3
  1  5  1  0
  2  3  1  0
  4  9  1  0
  6  7  1  0
  6 10  1  0
  6 11  1  0
  6 12  1  0
  7  8  1  0
  7 13  1  0
  7 14  1  0
  8  9  1  0
  8 15  1  0
  8 16  1  0
M  RAD  1   3   2
M  END
>  <reaction>  (8) 
rmg_rxn_1519

>  <mol_properties>  (8) 
{"0": {"label": "*1", "atom_type": "N3s"}, "1": {"label": "*0", "atom_type": "N3d"}, "3": {"label": "*2", "atom_type": "H0"}, "7": {"label": "*4", "atom_type": "Cs"}, "8": {"label": "*3", "atom_type": "O2s"}}

>  <type>  (8) 
unop_4

>  <geom_source>  (8) 
Heuristics

$$$$

     RDKit          3D

 16 14  0  0  0  0  0  0  0  0999 V2000
    0.0363   -1.1689    0.3494 N   0  0  0  0  0  0  0  0  0  0  0  0
    0.0363   -2.3717   -0.1954 N   0  0  0  0  0  0  0  0  0  0  0  0
    0.0363   -2.3717   -1.3999 O   0  0  0  0  0  1  0  0  0  0  0  0
    0.0363   -0.1862   -0.3658 H   0  0  0  0  0  0  0  0  0  0  0  0
    0.0363   -1.1225    1.3515 H   0  0  0  0  0  0  0  0  0  0  0  0
    0.9440    1.7971    1.6270 C   0  0  0  0  0  0  0  0  0  0  0  0
   -0.4986    1.7097    1.1482 C   0  0  0  0  0  0  0  0  0  0  0  0
   -0.6351    1.7890   -0.3652 C   0  0  0  0  0  0  0  0  0  0  0  0
    0.0363    0.7438   -1.0428 O   0  0  0  0  0  0  0  0  0  0  0  0
    1.3892    2.7535    1.3433 H   0  0  0  0  0  0  0  0  0  0  0  0
    1.0068    1.7065    2.7123 H   0  0  0  0  0  0  0  0  0  0  0  0
    1.5491    1.0063    1.1824 H   0  0  0  0  0  0  0  0  0  0  0  0
   -0.9527    0.7748    1.4965 H   0  0  0  0  0  0  0  0  0  0  0  0
   -1.0919    2.5177    1.5867 H   0  0  0  0  0  0  0  0  0  0  0  0
   -1.6963    1.8108   -0.6434 H   0  0  0  0  0  0  0  0  0  0  0  0
   -0.1821    2.7127   -0.7322 H   0  0  0  0  0  0  0  0  0  0  0  0
  1  2  2  3
  1  5  1  0
  2  3  1  0
  4  9  1  0
  6  7  1  0
  6 10  1  0
  6 11  1  0
  6 12  1  0
  7  8  1  0
  7 13  1  0
  7 14  1  0
  8  9  1  0
  8 15  1  0
  8 16  1  0
M  RAD  1   3   2
M  END
>  <reaction>  (9) 
rmg_rxn_1519

>  <mol_properties>  (9) 
{"0": {"label": "*1", "atom_type": "N3s"}, "1": {"label": "*0", "atom_type": "N3d"}, "3": {"label": "*2", "atom_type": "H0"}, "7": {"label": "*4", "atom_type": "Cs"}, "8": {"label": "*3", "atom_type": "O2s"}}

>  <type>  (9) 
unop_5

>  <geom_source>  (9) 
Heuristics

$$$$

     RDKit          3D

 16 14  0  0  0  0  0  0  0  0999 V2000
   -0.2732   -0.6782    1.9535 N   0  0  0  0  0  0  0  0  0  0  0  0
   -0.2732   -1.8810    1.4087 N   0  0  0  0  0  0  0  0  0  0  0  0
   -0.2732   -1.8810    0.2042 O   0  0  0  0  0  1  0  0  0  0  0  0
   -0.2732    0.3044    1.2382 H   0  0  0  0  0  0  0  0  0  0  0  0
   -0.2732   -0.6319    2.9556 H   0  0  0  0  0  0  0  0  0  0  0  0
   -0.3708    1.4012   -2.4426 C   0  0  0  0  0  0  0  0  0  0  0  0
    0.6462    0.6145   -1.6272 C   0  0  0  0  0  0  0  0  0  0  0  0
    0.8897    1.2002   -0.2441 C   0  0  0  0  0  0  0  0  0  0  0  0
   -0.2732    1.2345    0.5613 O   0  0  0  0  0  0  0  0  0  0  0  0
   -0.0228    2.4222   -2.6149 H   0  0  0  0  0  0  0  0  0  0  0  0
   -0.5429    0.9367   -3.4146 H   0  0  0  0  0  0  0  0  0  0  0  0
   -1.3252    1.4615   -1.9187 H   0  0  0  0  0  0  0  0  0  0  0  0
    0.3156   -0.4250   -1.5187 H   0  0  0  0  0  0  0  0  0  0  0  0
    1.6043    0.5753   -2.1543 H   0  0  0  0  0  0  0  0  0  0  0  0
    1.6923    0.6467    0.2593 H   0  0  0  0  0  0  0  0  0  0  0  0
    1.2146    2.2394   -0.3316 H   0  0  0  0  0  0  0  0  0  0  0  0
  1  2  2  3
  1  5  1  0
  2  3  1  0
  4  9  1  0
  6  7  1  0
  6 10  1  0
  6 11  1  0
  6 12  1  0
  7  8  1  0
  7 13  1  0
  7 14  1  0
  8  9  1  0
  8 15  1  0
  8 16  1  0
M  RAD  1   3   2
M  END
>  <reaction>  (10) 
rmg_rxn_1519

>  <mol_properties>  (10) 
{"0": {"label": "*1", "atom_type": "N3s"}, "1": {"label": "*0", "atom_type": "N3d"}, "3": {"label": "*2", "atom_type": "H0"}, "7": {"label": "*4", "atom_type": "Cs"}, "8": {"label": "*3", "atom_type": "O2s"}}

>  <type>  (10) 
unop_6

>  <geom_source>  (10) 
Heuristics

$$$$

     RDKit          3D

 16 14  0  0  0  0  0  0  0  0999 V2000
    1.8671   -0.6786    0.0004 N   0  0  0  0  0  0  0  0  0  0  0  0
    2.1939    0.5183    0.0448 N   0  0  0  0  0  0  0  0  0  0  0  0
    1.4740    1.4816    0.0410 O   0  0  0  0  0  1  0  0  0  0  0  0
    0.7546   -1.1931   -0.0864 H   0  0  0  0  0  0  0  0  0  0  0  0
    2.6410   -1.3348    0.0066 H   0  0  0  0  0  0  0  0  0  0  0  0
   -2.7002    1.1121    0.1011 C   0  0  0  0  0  0  0  0  0  0  0  0
   -1.4680    0.3678   -0.3912 C   0  0  0  0  0  0  0  0  0  0  0  0
   -1.2704   -0.9632    0.3396 C   0  0  0  0  0  0  0  0  0  0  0  0
   -0.2478   -1.7414   -0.1518 O   0  0  0  0  0  0  0  0  0  0  0  0
   -2.7881    2.0708   -0.4040 H   0  0  0  0  0  0  0  0  0  0  0  0
   -3.6035    0.5376   -0.0941 H   0  0  0  0  0  0  0  0  0  0  0  0
   -2.6335    1.2936    1.1718 H   0  0  0  0  0  0  0  0  0  0  0  0
   -1.5457    0.1759   -1.4636 H   0  0  0  0  0  0  0  0  0  0  0  0
   -0.5794    0.9907   -0.2279 H   0  0  0  0  0  0  0  0  0  0  0  0
   -1.1522   -0.7808    1.4237 H   0  0  0  0  0  0  0  0  0  0  0  0
   -2.1829   -1.5662    0.2149 H   0  0  0  0  0  0  0  0  0  0  0  0
  1  2  2  3
  1  5  1  0
  2  3  1  0
  4  9  1  0
  6  7  1  0
  6 10  1  0
  6 11  1  0
  6 12  1  0
  7  8  1  0
  7 13  1  0
  7 14  1  0
  8  9  1  0
  8 15  1  0
  8 16  1  0
M  RAD  1   3   2
M  END
>  <reaction>  (11) 
rmg_rxn_1519

>  <mol_properties>  (11) 
{"0": {"label": "*1", "atom_type": "N3s"}, "1": {"label": "*0", "atom_type": "N3d"}, "3": {"label": "*2", "atom_type": "H0"}, "7": {"label": "*4", "atom_type": "Cs"}, "8": {"label": "*3", "atom_type": "O2s"}}

>  <type>  (11) 
unop_7

>  <geom_source>  (11) 
Heuristics

$$$$

     RDKit          3D

 16 14  0  0  0  0  0  0  0  0999 V2000
   -0.5261   -1.2631    0.6424 N   0  0  0  0  0  0  0  0  0  0  0  0
   -0.5261   -2.4659    0.0977 N   0  0  0  0  0  0  0  0  0  0  0  0
   -0.5261   -2.4659   -1.1068 O   0  0  0  0  0  1  0  0  0  0  0  0
   -0.5262   -0.2804   -0.0728 H   0  0  0  0  0  0  0  0  0  0  0  0
   -0.5261   -1.2167    1.6445 H   0  0  0  0  0  0  0  0  0  0  0  0
    2.0071    1.9871    0.1747 C   0  0  0  0  0  0  0  0  0  0  0  0
    0.7056    1.9056    0.9605 C   0  0  0  0  0  0  0  0  0  0  0  0
   -0.5262    1.8006    0.0733 C   0  0  0  0  0  0  0  0  0  0  0  0
   -0.5262    0.6496   -0.7497 O   0  0  0  0  0  0  0  0  0  0  0  0
    2.0241    2.8793   -0.4553 H   0  0  0  0  0  0  0  0  0  0  0  0
    2.8695    2.0305    0.8414 H   0  0  0  0  0  0  0  0  0  0  0  0
    2.1220    1.1204   -0.4769 H   0  0  0  0  0  0  0  0  0  0  0  0
    0.7299    1.0431    1.6366 H   0  0  0  0  0  0  0  0  0  0  0  0
    0.5927    2.7881    1.5974 H   0  0  0  0  0  0  0  0  0  0  0  0
   -1.4336    1.8352    0.6893 H   0  0  0  0  0  0  0  0  0  0  0  0
   -0.5645    2.6497   -0.6128 H   0  0  0  0  0  0  0  0  0  0  0  0
  1  2  2  3
  1  5  1  0
  2  3  1  0
  4  9  1  0
  6  7  1  0
  6 10  1  0
  6 11  1  0
  6 12  1  0
  7  8  1  0
  7 13  1  0
  7 14  1  0
  8  9  1  0
  8 15  1  0
  8 16  1  0
M  RAD  1   3   2
M  END
>  <reaction>  (12) 
rmg_rxn_1519

>  <mol_properties>  (12) 
{"0": {"label": "*1", "atom_type": "N3s"}, "1": {"label": "*0", "atom_type": "N3d"}, "3": {"label": "*2", "atom_type": "H0"}, "7": {"label": "*4", "atom_type": "Cs"}, "8": {"label": "*3", "atom_type": "O2s"}}

>  <type>  (12) 
unop_8

>  <geom_source>  (12) 
Heuristics

$$$$

     RDKit          3D

 16 14  0  0  0  0  0  0  0  0999 V2000
    1.8669    0.6787   -0.0008 N   0  0  0  0  0  0  0  0  0  0  0  0
    2.1939   -0.5182   -0.0449 N   0  0  0  0  0  0  0  0  0  0  0  0
    1.4742   -1.4815   -0.0407 O   0  0  0  0  0  1  0  0  0  0  0  0
    0.7545    1.1931    0.0865 H   0  0  0  0  0  0  0  0  0  0  0  0
    2.6408    1.3349   -0.0072 H   0  0  0  0  0  0  0  0  0  0  0  0
   -2.7001   -1.1123   -0.1012 C   0  0  0  0  0  0  0  0  0  0  0  0
   -1.4679   -0.3680    0.3909 C   0  0  0  0  0  0  0  0  0  0  0  0
   -1.2706    0.9633   -0.3392 C   0  0  0  0  0  0  0  0  0  0  0  0
   -0.2479    1.7414    0.1520 O   0  0  0  0  0  0  0  0  0  0  0  0
   -2.6338   -1.2931   -1.1721 H   0  0  0  0  0  0  0  0  0  0  0  0
   -2.7875   -2.0713    0.4034 H   0  0  0  0  0  0  0  0  0  0  0  0
   -3.6034   -0.5381    0.0946 H   0  0  0  0  0  0  0  0  0  0  0  0
   -1.5452   -0.1767    1.4635 H   0  0  0  0  0  0  0  0  0  0  0  0
   -0.5791   -0.9907    0.2270 H   0  0  0  0  0  0  0  0  0  0  0  0
   -1.1530    0.7814   -1.4235 H   0  0  0  0  0  0  0  0  0  0  0  0
   -2.1832    1.5662   -0.2138 H   0  0  0  0  0  0  0  0  0  0  0  0
  1  2  2  3
  1  5  1  0
  2  3  1  0
  4  9  1  0
  6  7  1  0
  6 10  1  0
  6 11  1  0
  6 12  1  0
  7  8  1  0
  7 13  1  0
  7 14  1  0
  8  9  1  0
  8 15  1  0
  8 16  1  0
M  RAD  1   3   2
M  END
>  <reaction>  (13) 
rmg_rxn_1519

>  <mol_properties>  (13) 
{"0": {"label": "*1", "atom_type": "N3s"}, "1": {"label": "*0", "atom_type": "N3d"}, "3": {"label": "*2", "atom_type": "H0"}, "7": {"label": "*4", "atom_type": "Cs"}, "8": {"label": "*3", "atom_type": "O2s"}}

>  <type>  (13) 
unop_9

>  <geom_source>  (13) 
Heuristics

$$$$

     RDKit          3D

 16 14  0  0  0  0  0  0  0  0999 V2000
   -0.5729   -0.8838    1.7722 N   0  0  0  0  0  0  0  0  0  0  0  0
   -0.5729   -2.0866    1.2274 N   0  0  0  0  0  0  0  0  0  0  0  0
   -0.5729   -2.0866    0.0229 O   0  0  0  0  0  1  0  0  0  0  0  0
   -0.5729    0.0988    1.0569 H   0  0  0  0  0  0  0  0  0  0  0  0
   -0.5729   -0.8375    2.7742 H   0  0  0  0  0  0  0  0  0  0  0  0
    0.4240    1.6820   -2.3840 C   0  0  0  0  0  0  0  0  0  0  0  0
    1.2318    1.0106   -1.2820 C   0  0  0  0  0  0  0  0  0  0  0  0
    0.7699    1.3897    0.1174 C   0  0  0  0  0  0  0  0  0  0  0  0
   -0.5729    1.0289    0.3800 O   0  0  0  0  0  0  0  0  0  0  0  0
    0.5215    2.7687   -2.3287 H   0  0  0  0  0  0  0  0  0  0  0  0
    0.7620    1.3647   -3.3716 H   0  0  0  0  0  0  0  0  0  0  0  0
   -0.6352    1.4404   -2.2912 H   0  0  0  0  0  0  0  0  0  0  0  0
    1.1786   -0.0790   -1.3897 H   0  0  0  0  0  0  0  0  0  0  0  0
    2.2898    1.2739   -1.3747 H   0  0  0  0  0  0  0  0  0  0  0  0
    1.4417    0.9484    0.8643 H   0  0  0  0  0  0  0  0  0  0  0  0
    0.8101    2.4741    0.2419 H   0  0  0  0  0  0  0  0  0  0  0  0
  1  2  2  3
  1  5  1  0
  2  3  1  0
  4  9  1  0
  6  7  1  0
  6 10  1  0
  6 11  1  0
  6 12  1  0
  7  8  1  0
  7 13  1  0
  7 14  1  0
  8  9  1  0
  8 15  1  0
  8 16  1  0
M  RAD  1   3   2
M  END
>  <reaction>  (14) 
rmg_rxn_1519

>  <mol_properties>  (14) 
{"0": {"label": "*1", "atom_type": "N3s"}, "1": {"label": "*0", "atom_type": "N3d"}, "3": {"label": "*2", "atom_type": "H0"}, "7": {"label": "*4", "atom_type": "Cs"}, "8": {"label": "*3", "atom_type": "O2s"}}

>  <type>  (14) 
unop_10

>  <geom_source>  (14) 
Heuristics

$$$$

     RDKit          3D

 16 14  0  0  0  0  0  0  0  0999 V2000
    1.8671   -0.6787   -0.0009 N   0  0  0  0  0  0  0  0  0  0  0  0
    2.1939    0.5183   -0.0449 N   0  0  0  0  0  0  0  0  0  0  0  0
    1.4741    1.4816   -0.0406 O   0  0  0  0  0  1  0  0  0  0  0  0
    0.7545   -1.1931    0.0863 H   0  0  0  0  0  0  0  0  0  0  0  0
    2.6410   -1.3349   -0.0076 H   0  0  0  0  0  0  0  0  0  0  0  0
   -2.7001    1.1122   -0.1015 C   0  0  0  0  0  0  0  0  0  0  0  0
   -1.4681    0.3679    0.3912 C   0  0  0  0  0  0  0  0  0  0  0  0
   -1.2705   -0.9632   -0.3393 C   0  0  0  0  0  0  0  0  0  0  0  0
   -0.2478   -1.7413    0.1521 O   0  0  0  0  0  0  0  0  0  0  0  0
   -2.6331    1.2935   -1.1722 H   0  0  0  0  0  0  0  0  0  0  0  0
   -3.6035    0.5378    0.0935 H   0  0  0  0  0  0  0  0  0  0  0  0
   -2.7880    2.0710    0.4035 H   0  0  0  0  0  0  0  0  0  0  0  0
   -0.5793    0.9907    0.2281 H   0  0  0  0  0  0  0  0  0  0  0  0
   -1.5461    0.1761    1.4637 H   0  0  0  0  0  0  0  0  0  0  0  0
   -2.1829   -1.5663   -0.2146 H   0  0  0  0  0  0  0  0  0  0  0  0
   -1.1523   -0.7810   -1.4235 H   0  0  0  0  0  0  0  0  0  0  0  0
  1  2  2  3
  1  5  1  0
  2  3  1  0
  4  9  1  0
  6  7  1  0
  6 10  1  0
  6 11  1  0
  6 12  1  0
  7  8  1  0
  7 13  1  0
  7 14  1  0
  8  9  1  0
  8 15  1  0
  8 16  1  0
M  RAD  1   3   2
M  END
>  <reaction>  (15) 
rmg_rxn_1519

>  <mol_properties>  (15) 
{"0": {"label": "*1", "atom_type": "N3s"}, "1": {"label": "*0", "atom_type": "N3d"}, "3": {"label": "*2", "atom_type": "H0"}, "7": {"label": "*4", "atom_type": "Cs"}, "8": {"label": "*3", "atom_type": "O2s"}}

>  <type>  (15) 
unop_11

>  <geom_source>  (15) 
Heuristics

$$$$

     RDKit          3D

 16 14  0  0  0  0  0  0  0  0999 V2000
   -0.7168   -1.0902    1.4930 N   0  0  0  0  0  0  0  0  0  0  0  0
   -0.7168   -2.2930    0.9482 N   0  0  0  0  0  0  0  0  0  0  0  0
   -0.7168   -2.2930   -0.2563 O   0  0  0  0  0  1  0  0  0  0  0  0
   -0.7168   -0.1075    0.7778 H   0  0  0  0  0  0  0  0  0  0  0  0
   -0.7168   -1.0438    2.4951 H   0  0  0  0  0  0  0  0  0  0  0  0
    1.0634    1.9279   -2.0601 C   0  0  0  0  0  0  0  0  0  0  0  0
    1.5200    1.4486   -0.6890 C   0  0  0  0  0  0  0  0  0  0  0  0
    0.4460    1.5784    0.3810 C   0  0  0  0  0  0  0  0  0  0  0  0
   -0.7168    0.8225    0.1008 O   0  0  0  0  0  0  0  0  0  0  0  0
    0.8045    2.9888   -2.0333 H   0  0  0  0  0  0  0  0  0  0  0  0
    1.8464    1.7922   -2.8075 H   0  0  0  0  0  0  0  0  0  0  0  0
    0.1793    1.3804   -2.3880 H   0  0  0  0  0  0  0  0  0  0  0  0
    1.8392    0.4015   -0.7456 H   0  0  0  0  0  0  0  0  0  0  0  0
    2.3966    2.0164   -0.3628 H   0  0  0  0  0  0  0  0  0  0  0  0
    0.8593    1.3033    1.3596 H   0  0  0  0  0  0  0  0  0  0  0  0
    0.1104    2.6157    0.4481 H   0  0  0  0  0  0  0  0  0  0  0  0
  1  2  2  3
  1  5  1  0
  2  3  1  0
  4  9  1  0
  6  7  1  0
  6 10  1  0
  6 11  1  0
  6 12  1  0
  7  8  1  0
  7 13  1  0
  7 14  1  0
  8  9  1  0
  8 15  1  0
  8 16  1  0
M  RAD  1   3   2
M  END
>  <reaction>  (16) 
rmg_rxn_1519

>  <mol_properties>  (16) 
{"0": {"label": "*1", "atom_type": "N3s"}, "1": {"label": "*0", "atom_type": "N3d"}, "3": {"label": "*2", "atom_type": "H0"}, "7": {"label": "*4", "atom_type": "Cs"}, "8": {"label": "*3", "atom_type": "O2s"}}

>  <type>  (16) 
unop_12

>  <geom_source>  (16) 
Heuristics

$$$$

     RDKit          3D

 16 14  0  0  0  0  0  0  0  0999 V2000
    0.7971   -0.7951    0.7478 N   0  0  0  0  0  0  0  0  0  0  0  0
    0.7971   -1.9979    0.2031 N   0  0  0  0  0  0  0  0  0  0  0  0
    0.7971   -1.9979   -1.0014 O   0  0  0  0  0  1  0  0  0  0  0  0
    0.7971    0.1876    0.0326 H   0  0  0  0  0  0  0  0  0  0  0  0
    0.7971   -0.7487    1.7499 H   0  0  0  0  0  0  0  0  0  0  0  0
   -1.2793    1.3435    1.5233 C   0  0  0  0  0  0  0  0  0  0  0  0
   -1.5324    0.8916    0.0916 C   0  0  0  0  0  0  0  0  0  0  0  0
   -0.5457    1.4784   -0.9069 C   0  0  0  0  0  0  0  0  0  0  0  0
    0.7971    1.1176   -0.6443 O   0  0  0  0  0  0  0  0  0  0  0  0
   -1.3840    2.4273    1.6117 H   0  0  0  0  0  0  0  0  0  0  0  0
   -1.9847    0.8806    2.2148 H   0  0  0  0  0  0  0  0  0  0  0  0
   -0.2690    1.0824    1.8399 H   0  0  0  0  0  0  0  0  0  0  0  0
   -1.4896   -0.2021    0.0312 H   0  0  0  0  0  0  0  0  0  0  0  0
   -2.5423    1.1740   -0.2209 H   0  0  0  0  0  0  0  0  0  0  0  0
   -0.8309    1.1902   -1.9265 H   0  0  0  0  0  0  0  0  0  0  0  0
   -0.5696    2.5693   -0.8570 H   0  0  0  0  0  0  0  0  0  0  0  0
  1  2  2  3
  1  5  1  0
  2  3  1  0
  4  9  1  0
  6  7  1  0
  6 10  1  0
  6 11  1  0
  6 12  1  0
  7  8  1  0
  7 13  1  0
  7 14  1  0
  8  9  1  0
  8 15  1  0
  8 16  1  0
M  RAD  1   3   2
M  END
>  <reaction>  (17) 
rmg_rxn_1519

>  <mol_properties>  (17) 
{"0": {"label": "*1", "atom_type": "N3s"}, "1": {"label": "*0", "atom_type": "N3d"}, "3": {"label": "*2", "atom_type": "H0"}, "7": {"label": "*4", "atom_type": "Cs"}, "8": {"label": "*3", "atom_type": "O2s"}}

>  <type>  (17) 
unop_13

>  <geom_source>  (17) 
Heuristics

$$$$

     RDKit          3D

 16 14  0  0  0  0  0  0  0  0999 V2000
    1.8671    0.6787   -0.0003 N   0  0  0  0  0  0  0  0  0  0  0  0
    2.1939   -0.5183   -0.0448 N   0  0  0  0  0  0  0  0  0  0  0  0
    1.4741   -1.4816   -0.0411 O   0  0  0  0  0  1  0  0  0  0  0  0
    0.7545    1.1931    0.0864 H   0  0  0  0  0  0  0  0  0  0  0  0
    2.6410    1.3348   -0.0063 H   0  0  0  0  0  0  0  0  0  0  0  0
   -2.7003   -1.1121   -0.1010 C   0  0  0  0  0  0  0  0  0  0  0  0
   -1.4680   -0.3679    0.3911 C   0  0  0  0  0  0  0  0  0  0  0  0
   -1.2704    0.9631   -0.3396 C   0  0  0  0  0  0  0  0  0  0  0  0
   -0.2478    1.7413    0.1518 O   0  0  0  0  0  0  0  0  0  0  0  0
   -3.6035   -0.5376    0.0945 H   0  0  0  0  0  0  0  0  0  0  0  0
   -2.6339   -1.2933   -1.1718 H   0  0  0  0  0  0  0  0  0  0  0  0
   -2.7879   -2.0709    0.4040 H   0  0  0  0  0  0  0  0  0  0  0  0
   -1.5454   -0.1761    1.4636 H   0  0  0  0  0  0  0  0  0  0  0  0
   -0.5793   -0.9908    0.2275 H   0  0  0  0  0  0  0  0  0  0  0  0
   -1.1523    0.7808   -1.4237 H   0  0  0  0  0  0  0  0  0  0  0  0
   -2.1830    1.5661   -0.2148 H   0  0  0  0  0  0  0  0  0  0  0  0
  1  2  2  3
  1  5  1  0
  2  3  1  0
  4  9  1  0
  6  7  1  0
  6 10  1  0
  6 11  1  0
  6 12  1  0
  7  8  1  0
  7 13  1  0
  7 14  1  0
  8  9  1  0
  8 15  1  0
  8 16  1  0
M  RAD  1   3   2
M  END
>  <reaction>  (18) 
rmg_rxn_1519

>  <mol_properties>  (18) 
{"0": {"label": "*1", "atom_type": "N3s"}, "1": {"label": "*0", "atom_type": "N3d"}, "3": {"label": "*2", "atom_type": "H0"}, "7": {"label": "*4", "atom_type": "Cs"}, "8": {"label": "*3", "atom_type": "O2s"}}

>  <type>  (18) 
unop_14

>  <geom_source>  (18) 
Heuristics

$$$$

     RDKit          3D

 16 14  0  0  0  0  0  0  0  0999 V2000
    0.1362   -0.5221    1.9606 N   0  0  0  0  0  0  0  0  0  0  0  0
    0.1362   -1.7249    1.4158 N   0  0  0  0  0  0  0  0  0  0  0  0
    0.1362   -1.7249    0.2113 O   0  0  0  0  0  1  0  0  0  0  0  0
    0.1362    0.4605    1.2454 H   0  0  0  0  0  0  0  0  0  0  0  0
    0.1362   -0.4758    2.9627 H   0  0  0  0  0  0  0  0  0  0  0  0
   -1.2859    1.1529   -2.0738 C   0  0  0  0  0  0  0  0  0  0  0  0
   -0.0745    0.3400   -1.6386 C   0  0  0  0  0  0  0  0  0  0  0  0
    0.8076    1.0671   -0.6344 C   0  0  0  0  0  0  0  0  0  0  0  0
    0.1362    1.3906    0.5685 O   0  0  0  0  0  0  0  0  0  0  0  0
   -0.9756    2.0747   -2.5713 H   0  0  0  0  0  0  0  0  0  0  0  0
   -1.9108    0.5905   -2.7690 H   0  0  0  0  0  0  0  0  0  0  0  0
   -1.8961    1.4310   -1.2140 H   0  0  0  0  0  0  0  0  0  0  0  0
   -0.3994   -0.6113   -1.2015 H   0  0  0  0  0  0  0  0  0  0  0  0
    0.5391    0.0816   -2.5070 H   0  0  0  0  0  0  0  0  0  0  0  0
    1.7060    0.4720   -0.4275 H   0  0  0  0  0  0  0  0  0  0  0  0
    1.1369    2.0218   -1.0504 H   0  0  0  0  0  0  0  0  0  0  0  0
  1  2  2  3
  1  5  1  0
  2  3  1  0
  4  9  1  0
  6  7  1  0
  6 10  1  0
  6 11  1  0
  6 12  1  0
  7  8  1  0
  7 13  1  0
  7 14  1  0
  8  9  1  0
  8 15  1  0
  8 16  1  0
M  RAD  1   3   2
M  END
>  <reaction>  (19) 
rmg_rxn_1519

>  <mol_properties>  (19) 
{"0": {"label": "*1", "atom_type": "N3s"}, "1": {"label": "*0", "atom_type": "N3d"}, "3": {"label": "*2", "atom_type": "H0"}, "7": {"label": "*4", "atom_type": "Cs"}, "8": {"label": "*3", "atom_type": "O2s"}}

>  <type>  (19) 
unop_15

>  <geom_source>  (19) 
Heuristics

$$$$

     RDKit          3D

 16 14  0  0  0  0  0  0  0  0999 V2000
    0.8693   -0.6033    1.0896 N   0  0  0  0  0  0  0  0  0  0  0  0
    0.8693   -1.8062    0.5448 N   0  0  0  0  0  0  0  0  0  0  0  0
    0.8693   -1.8062   -0.6597 O   0  0  0  0  0  1  0  0  0  0  0  0
    0.8693    0.3793    0.3743 H   0  0  0  0  0  0  0  0  0  0  0  0
    0.8693   -0.5570    2.0917 H   0  0  0  0  0  0  0  0  0  0  0  0
   -1.9034    1.1156    0.8529 C   0  0  0  0  0  0  0  0  0  0  0  0
   -1.4457    0.5141   -0.4687 C   0  0  0  0  0  0  0  0  0  0  0  0
   -0.2935    1.2751   -1.1080 C   0  0  0  0  0  0  0  0  0  0  0  0
    0.8693    1.3093   -0.3026 O   0  0  0  0  0  0  0  0  0  0  0  0
   -2.2706    2.1343    0.7084 H   0  0  0  0  0  0  0  0  0  0  0  0
   -2.7084    0.5284    1.2970 H   0  0  0  0  0  0  0  0  0  0  0  0
   -1.0792    1.1596    1.5655 H   0  0  0  0  0  0  0  0  0  0  0  0
   -1.1426   -0.5288   -0.3204 H   0  0  0  0  0  0  0  0  0  0  0  0
   -2.2759    0.4910   -1.1811 H   0  0  0  0  0  0  0  0  0  0  0  0
   -0.0680    0.8507   -2.0945 H   0  0  0  0  0  0  0  0  0  0  0  0
   -0.5750    2.3197   -1.2584 H   0  0  0  0  0  0  0  0  0  0  0  0
  1  2  2  3
  1  5  1  0
  2  3  1  0
  4  9  1  0
  6  7  1  0
  6 10  1  0
  6 11  1  0
  6 12  1  0
  7  8  1  0
  7 13  1  0
  7 14  1  0
  8  9  1  0
  8 15  1  0
  8 16  1  0
M  RAD  1   3   2
M  END
>  <reaction>  (20) 
rmg_rxn_1519

>  <mol_properties>  (20) 
{"0": {"label": "*1", "atom_type": "N3s"}, "1": {"label": "*0", "atom_type": "N3d"}, "3": {"label": "*2", "atom_type": "H0"}, "7": {"label": "*4", "atom_type": "Cs"}, "8": {"label": "*3", "atom_type": "O2s"}}

>  <type>  (20) 
unop_16

>  <geom_source>  (20) 
Heuristics

$$$$

     RDKit          3D

 16 14  0  0  0  0  0  0  0  0999 V2000
   -0.7275   -1.2374    1.1399 N   0  0  0  0  0  0  0  0  0  0  0  0
   -0.7275   -2.4402    0.5952 N   0  0  0  0  0  0  0  0  0  0  0  0
   -0.7275   -2.4402   -0.6093 O   0  0  0  0  0  1  0  0  0  0  0  0
   -0.7275   -0.2547    0.4247 H   0  0  0  0  0  0  0  0  0  0  0  0
   -0.7275   -1.1910    2.1420 H   0  0  0  0  0  0  0  0  0  0  0  0
    1.6925    2.0584   -1.3886 C   0  0  0  0  0  0  0  0  0  0  0  0
    1.4254    1.8016    0.0881 C   0  0  0  0  0  0  0  0  0  0  0  0
   -0.0561    1.7205    0.4253 C   0  0  0  0  0  0  0  0  0  0  0  0
   -0.7275    0.6753   -0.2522 O   0  0  0  0  0  0  0  0  0  0  0  0
    1.2697    3.0170   -1.6979 H   0  0  0  0  0  0  0  0  0  0  0  0
    2.7627    2.0801   -1.5991 H   0  0  0  0  0  0  0  0  0  0  0  0
    1.2384    1.2826   -2.0058 H   0  0  0  0  0  0  0  0  0  0  0  0
    1.9114    0.8698    0.3999 H   0  0  0  0  0  0  0  0  0  0  0  0
    1.8705    2.5949    0.6962 H   0  0  0  0  0  0  0  0  0  0  0  0
   -0.1869    1.6241    1.5105 H   0  0  0  0  0  0  0  0  0  0  0  0
   -0.5594    2.6392    0.1159 H   0  0  0  0  0  0  0  0  0  0  0  0
  1  2  2  3
  1  5  1  0
  2  3  1  0
  4  9  1  0
  6  7  1  0
  6 10  1  0
  6 11  1  0
  6 12  1  0
  7  8  1  0
  7 13  1  0
  7 14  1  0
  8  9  1  0
  8 15  1  0
  8 16  1  0
M  RAD  1   3   2
M  END
>  <reaction>  (21) 
rmg_rxn_1519

>  <mol_properties>  (21) 
{"0": {"label": "*1", "atom_type": "N3s"}, "1": {"label": "*0", "atom_type": "N3d"}, "3": {"label": "*2", "atom_type": "H0"}, "7": {"label": "*4", "atom_type": "Cs"}, "8": {"label": "*3", "atom_type": "O2s"}}

>  <type>  (21) 
unop_17

>  <geom_source>  (21) 
Heuristics

$$$$

     RDKit          3D

 16 14  0  0  0  0  0  0  0  0999 V2000
    0.5262   -0.4487    1.7613 N   0  0  0  0  0  0  0  0  0  0  0  0
    0.5262   -1.6515    1.2166 N   0  0  0  0  0  0  0  0  0  0  0  0
    0.5262   -1.6515    0.0121 O   0  0  0  0  0  1  0  0  0  0  0  0
    0.5262    0.5340    1.0461 H   0  0  0  0  0  0  0  0  0  0  0  0
    0.5262   -0.4023    2.7634 H   0  0  0  0  0  0  0  0  0  0  0  0
   -2.0071    0.9954   -1.1877 C   0  0  0  0  0  0  0  0  0  0  0  0
   -0.7056    0.2227   -1.3517 C   0  0  0  0  0  0  0  0  0  0  0  0
    0.5261    1.0346   -0.9791 C   0  0  0  0  0  0  0  0  0  0  0  0
    0.5261    1.4640    0.3692 O   0  0  0  0  0  0  0  0  0  0  0  0
   -2.0241    1.8692   -1.8431 H   0  0  0  0  0  0  0  0  0  0  0  0
   -2.8695    0.3744   -1.4339 H   0  0  0  0  0  0  0  0  0  0  0  0
   -2.1220    1.3491   -0.1627 H   0  0  0  0  0  0  0  0  0  0  0  0
   -0.7299   -0.6859   -0.7388 H   0  0  0  0  0  0  0  0  0  0  0  0
   -0.5927   -0.1122   -2.3872 H   0  0  0  0  0  0  0  0  0  0  0  0
    1.4336    0.4591   -1.2014 H   0  0  0  0  0  0  0  0  0  0  0  0
    0.5645    1.9485   -1.5762 H   0  0  0  0  0  0  0  0  0  0  0  0
  1  2  2  3
  1  5  1  0
  2  3  1  0
  4  9  1  0
  6  7  1  0
  6 10  1  0
  6 11  1  0
  6 12  1  0
  7  8  1  0
  7 13  1  0
  7 14  1  0
  8  9  1  0
  8 15  1  0
  8 16  1  0
M  RAD  1   3   2
M  END
>  <reaction>  (22) 
rmg_rxn_1519

>  <mol_properties>  (22) 
{"0": {"label": "*1", "atom_type": "N3s"}, "1": {"label": "*0", "atom_type": "N3d"}, "3": {"label": "*2", "atom_type": "H0"}, "7": {"label": "*4", "atom_type": "Cs"}, "8": {"label": "*3", "atom_type": "O2s"}}

>  <type>  (22) 
unop_18

>  <geom_source>  (22) 
Heuristics

$$$$

     RDKit          3D

 16 14  0  0  0  0  0  0  0  0999 V2000
    0.7766   -0.4769    1.4389 N   0  0  0  0  0  0  0  0  0  0  0  0
    0.7766   -1.6797    0.8942 N   0  0  0  0  0  0  0  0  0  0  0  0
    0.7766   -1.6797   -0.3103 O   0  0  0  0  0  1  0  0  0  0  0  0
    0.7766    0.5057    0.7237 H   0  0  0  0  0  0  0  0  0  0  0  0
    0.7766   -0.4305    2.4410 H   0  0  0  0  0  0  0  0  0  0  0  0
   -2.1960    0.9805   -0.0839 C   0  0  0  0  0  0  0  0  0  0  0  0
   -1.1496    0.2794   -0.9391 C   0  0  0  0  0  0  0  0  0  0  0  0
    0.1052    1.1123   -1.1560 C   0  0  0  0  0  0  0  0  0  0  0  0
    0.7766    1.4358    0.0468 O   0  0  0  0  0  0  0  0  0  0  0  0
   -2.5359    1.9008   -0.5645 H   0  0  0  0  0  0  0  0  0  0  0  0
   -3.0674    0.3439    0.0760 H   0  0  0  0  0  0  0  0  0  0  0  0
   -1.7853    1.2487    0.8899 H   0  0  0  0  0  0  0  0  0  0  0  0
   -0.8668   -0.6740   -0.4779 H   0  0  0  0  0  0  0  0  0  0  0  0
   -1.5674    0.0307   -1.9194 H   0  0  0  0  0  0  0  0  0  0  0  0
    0.7810    0.5952   -1.8488 H   0  0  0  0  0  0  0  0  0  0  0  0
   -0.1576    2.0703   -1.6101 H   0  0  0  0  0  0  0  0  0  0  0  0
  1  2  2  3
  1  5  1  0
  2  3  1  0
  4  9  1  0
  6  7  1  0
  6 10  1  0
  6 11  1  0
  6 12  1  0
  7  8  1  0
  7 13  1  0
  7 14  1  0
  8  9  1  0
  8 15  1  0
  8 16  1  0
M  RAD  1   3   2
M  END
>  <reaction>  (23) 
rmg_rxn_1519

>  <mol_properties>  (23) 
{"0": {"label": "*1", "atom_type": "N3s"}, "1": {"label": "*0", "atom_type": "N3d"}, "3": {"label": "*2", "atom_type": "H0"}, "7": {"label": "*4", "atom_type": "Cs"}, "8": {"label": "*3", "atom_type": "O2s"}}

>  <type>  (23) 
unop_19

>  <geom_source>  (23) 
gaussian_log

$$$$
