
     RDKit          3D

  7  6  0  0  0  0  0  0  0  0999 V2000
   -0.8548    0.0121    0.2120 C   0  0  0  0  0  0  0  0  0  0  0  0
    0.1921   -0.9637    0.4698 N   0  0  0  0  0  0  0  0  0  0  0  0
    0.8785   -1.2092   -0.5201 N   0  0  0  0  0  0  0  0  0  0  0  0
   -1.8110   -0.4522    0.4600 H   0  0  0  0  0  0  0  0  0  0  0  0
   -0.7101    0.8457    0.9015 H   0  0  0  0  0  0  0  0  0  0  0  0
   -0.8478    0.3585   -0.8239 H   0  0  0  0  0  0  0  0  0  0  0  0
    1.5811   -1.9033   -0.2318 H   0  0  0  0  0  0  0  0  0  0  0  0
  1  2  1  0
  1  4  1  0
  1  5  1  0
  1  6  1  0
  2  3  2  3
  3  7  1  0
M  END
>  <reaction>  (1) 
rmg_rxn_16713

>  <mol_properties>  (1) 
{"2": {"label": "donator", "atom_type": "N3d"}, "6": {"label": "d_hydrogen", "atom_type": "H0"}}

>  <type>  (1) 
r1h

$$$$

     RDKit          3D

  7  6  0  0  0  0  0  0  0  0999 V2000
   -0.6441   -0.1356    0.0624 C   0  0  0  0  0  0  0  0  0  0  0  0
    0.8523    0.0148   -0.0333 C   0  0  0  0  0  0  0  0  0  0  0  0
    1.6700   -0.6077    0.6603 N   0  0  0  0  0  2  0  0  0  0  0  0
   -1.0940    0.8275    0.3091 H   0  0  0  0  0  0  0  0  0  0  0  0
   -0.9104   -0.8656    0.8237 H   0  0  0  0  0  0  0  0  0  0  0  0
   -1.0427   -0.4545   -0.9022 H   0  0  0  0  0  0  0  0  0  0  0  0
    1.2362    0.7308   -0.7748 H   0  0  0  0  0  0  0  0  0  0  0  0
  1  2  1  0
  1  4  1  0
  1  5  1  0
  1  6  1  0
  2  3  2  0
  2  7  1  0
M  RAD  1   3   2
M  END
>  <reaction>  (2) 
rmg_rxn_16713

>  <mol_properties>  (2) 
{"2": {"label": "acceptor", "atom_type": "N3d"}}

>  <type>  (2) 
r2

$$$$

     RDKit          3D

  8  7  0  0  0  0  0  0  0  0999 V2000
    0.9548    0.1194   -0.0790 C   0  0  0  0  0  0  0  0  0  0  0  0
   -0.4838   -0.2649    0.0193 C   0  0  0  0  0  0  0  0  0  0  0  0
   -0.8933   -1.1081    0.8664 N   0  0  0  0  0  0  0  0  0  0  0  0
    1.3360   -0.0983   -1.0800 H   0  0  0  0  0  0  0  0  0  0  0  0
    1.0698    1.1948    0.0786 H   0  0  0  0  0  0  0  0  0  0  0  0
    1.5426   -0.4219    0.6602 H   0  0  0  0  0  0  0  0  0  0  0  0
   -1.1575    0.2324   -0.6905 H   0  0  0  0  0  0  0  0  0  0  0  0
   -1.8989   -1.2455    0.7886 H   0  0  0  0  0  0  0  0  0  0  0  0
  1  2  1  0
  1  4  1  0
  1  5  1  0
  1  6  1  0
  2  3  2  3
  2  7  1  0
  3  8  1  0
M  END
>  <reaction>  (3) 
rmg_rxn_16713

>  <mol_properties>  (3) 
{"0": {"label": "a_hydrogen", "atom_type": "H0"}, "3": {"label": "acceptor", "atom_type": "N3d"}}

>  <type>  (3) 
r2h

$$$$

     RDKit          3D

 14 12  0  0  0  0  0  0  0  0999 V2000
   -2.4823   -0.8909   -0.0058 C   0  0  0  0  0  0  0  0  0  0  0  0
   -2.1944    0.5475    0.0485 N   0  0  0  0  0  0  0  0  0  0  0  0
   -1.0570    0.9432    0.0561 N   0  0  0  0  0  0  0  0  0  0  0  0
   -3.0956   -1.0659   -0.8898 H   0  0  0  0  0  0  0  0  0  0  0  0
   -1.5735   -1.4959   -0.0356 H   0  0  0  0  0  0  0  0  0  0  0  0
   -3.0835   -1.1347    0.8702 H   0  0  0  0  0  0  0  0  0  0  0  0
   -0.2821    0.1138    0.0184 H   0  0  0  0  0  0  0  0  0  0  0  0
    3.3178   -0.2281   -0.0193 C   0  0  0  0  0  0  0  0  0  0  0  0
    1.8555    0.1206    0.0042 C   0  0  0  0  0  0  0  0  0  0  0  0
    0.9432   -0.7311   -0.0229 N   0  0  0  0  0  2  0  0  0  0  0  0
    3.7919    0.2373   -0.8858 H   0  0  0  0  0  0  0  0  0  0  0  0
    3.4580   -1.3062   -0.0625 H   0  0  0  0  0  0  0  0  0  0  0  0
    3.8038    0.1684    0.8744 H   0  0  0  0  0  0  0  0  0  0  0  0
    1.6131    1.1948    0.0479 H   0  0  0  0  0  0  0  0  0  0  0  0
  1  2  1  0
  1  4  1  0
  1  5  1  0
  1  6  1  0
  2  3  2  3
  3  7  1  0
  8  9  1  0
  8 11  1  0
  8 12  1  0
  8 13  1  0
  9 10  2  0
  9 14  1  0
M  RAD  1  10   2
M  END
>  <reaction>  (4) 
rmg_rxn_16713

>  <mol_properties>  (4) 
{"1": {"label": "*0", "atom_type": "N3d"}, "2": {"label": "*1", "atom_type": "N3d"}, "6": {"label": "*2", "atom_type": "H0"}, "8": {"label": "*4", "atom_type": "Cd"}, "9": {"label": "*3", "atom_type": "N3d"}}

>  <type>  (4) 
ts

$$$$

     RDKit          3D

 14 12  0  0  0  0  0  0  0  0999 V2000
   -2.4246   -1.0178   -0.0002 C   0  0  0  0  0  0  0  0  0  0  0  0
   -2.2576    0.4043   -0.0006 N   0  0  0  0  0  0  0  0  0  0  0  0
   -1.2496    1.0158    0.0004 N   0  0  0  0  0  2  0  0  0  0  0  0
   -3.0120   -1.2747   -0.8817 H   0  0  0  0  0  0  0  0  0  0  0  0
   -1.4698   -1.5510   -0.0001 H   0  0  0  0  0  0  0  0  0  0  0  0
   -3.0117   -1.2741    0.8817 H   0  0  0  0  0  0  0  0  0  0  0  0
   -0.1567    0.3442    0.0011 H   0  0  0  0  0  0  0  0  0  0  0  0
    3.2381   -0.2989   -0.0004 C   0  0  0  0  0  0  0  0  0  0  0  0
    1.8854    0.3424   -0.0002 C   0  0  0  0  0  0  0  0  0  0  0  0
    0.8339   -0.3219    0.0010 N   0  0  0  0  0  0  0  0  0  0  0  0
    3.7893    0.0190   -0.8842 H   0  0  0  0  0  0  0  0  0  0  0  0
    3.1446   -1.3813    0.0031 H   0  0  0  0  0  0  0  0  0  0  0  0
    3.7925    0.0247    0.8793 H   0  0  0  0  0  0  0  0  0  0  0  0
    1.9134    1.4422   -0.0013 H   0  0  0  0  0  0  0  0  0  0  0  0
  1  2  1  0
  1  4  1  0
  1  5  1  0
  1  6  1  0
  2  3  2  0
  7 10  1  0
  8  9  1  0
  8 11  1  0
  8 12  1  0
  8 13  1  0
  9 10  2  3
  9 14  1  0
M  RAD  1   3   2
M  END
>  <reaction>  (5) 
rmg_rxn_16713

>  <mol_properties>  (5) 
{"1": {"label": "*0", "atom_type": "N3d"}, "2": {"label": "*1", "atom_type": "N3d"}, "6": {"label": "*2", "atom_type": "H0"}, "8": {"label": "*4", "atom_type": "Cd"}, "9": {"label": "*3", "atom_type": "N3d"}}

>  <type>  (5) 
unop_1

>  <geom_source>  (5) 
crest_best.xyz

$$$$

     RDKit          3D

 14 12  0  0  0  0  0  0  0  0999 V2000
   -0.3302   -0.9360   -3.1079 C   0  0  0  0  0  0  0  0  0  0  0  0
   -0.3302   -0.9360   -1.6537 N   0  0  0  0  0  0  0  0  0  0  0  0
   -0.3302    0.1944   -1.1703 N   0  0  0  0  0  2  0  0  0  0  0  0
    0.5489   -1.4906   -3.4408 H   0  0  0  0  0  0  0  0  0  0  0  0
   -1.2093   -1.4906   -3.4408 H   0  0  0  0  0  0  0  0  0  0  0  0
   -0.3302    0.0761   -3.5190 H   0  0  0  0  0  0  0  0  0  0  0  0
   -0.3302    0.0594    0.0569 H   0  0  0  0  0  0  0  0  0  0  0  0
    0.6117    1.2635    3.0429 C   0  0  0  0  0  0  0  0  0  0  0  0
    0.6910    0.4623    1.7864 C   0  0  0  0  0  0  0  0  0  0  0  0
   -0.3302   -0.0742    1.2711 N   0  0  0  0  0  0  0  0  0  0  0  0
    1.2571    0.8276    3.8098 H   0  0  0  0  0  0  0  0  0  0  0  0
   -0.4139    1.2974    3.4062 H   0  0  0  0  0  0  0  0  0  0  0  0
    0.9705    2.2805    2.8653 H   0  0  0  0  0  0  0  0  0  0  0  0
    1.6913    0.3717    1.3436 H   0  0  0  0  0  0  0  0  0  0  0  0
  1  2  1  0
  1  4  1  0
  1  5  1  0
  1  6  1  0
  2  3  2  0
  7 10  1  0
  8  9  1  0
  8 11  1  0
  8 12  1  0
  8 13  1  0
  9 10  2  3
  9 14  1  0
M  RAD  1   3   2
M  END
>  <reaction>  (6) 
rmg_rxn_16713

>  <mol_properties>  (6) 
{"1": {"label": "*0", "atom_type": "N3d"}, "2": {"label": "*1", "atom_type": "N3d"}, "6": {"label": "*2", "atom_type": "H0"}, "8": {"label": "*4", "atom_type": "Cd"}, "9": {"label": "*3", "atom_type": "N3d"}}

>  <type>  (6) 
unop_2

>  <geom_source>  (6) 
Heuristics

$$$$

     RDKit          3D

 14 12  0  0  0  0  0  0  0  0999 V2000
   -0.2878   -0.2196   -3.0712 C   0  0  0  0  0  0  0  0  0  0  0  0
   -0.2878   -0.2196   -1.6170 N   0  0  0  0  0  0  0  0  0  0  0  0
   -0.2878    0.9107   -1.1336 N   0  0  0  0  0  2  0  0  0  0  0  0
    0.5913   -0.7743   -3.4042 H   0  0  0  0  0  0  0  0  0  0  0  0
   -1.1669   -0.7743   -3.4042 H   0  0  0  0  0  0  0  0  0  0  0  0
   -0.2878    0.7924   -3.4823 H   0  0  0  0  0  0  0  0  0  0  0  0
   -0.2878    0.7757    0.0936 H   0  0  0  0  0  0  0  0  0  0  0  0
    0.8123   -0.6341    3.0332 C   0  0  0  0  0  0  0  0  0  0  0  0
    0.3018   -0.4226    1.6469 C   0  0  0  0  0  0  0  0  0  0  0  0
   -0.2878    0.6422    1.3077 N   0  0  0  0  0  0  0  0  0  0  0  0
    0.3494   -1.5203    3.4747 H   0  0  0  0  0  0  0  0  0  0  0  0
    0.5981    0.2353    3.6523 H   0  0  0  0  0  0  0  0  0  0  0  0
    1.8903   -0.8134    3.0152 H   0  0  0  0  0  0  0  0  0  0  0  0
    0.4727   -1.2504    0.9467 H   0  0  0  0  0  0  0  0  0  0  0  0
  1  2  1  0
  1  4  1  0
  1  5  1  0
  1  6  1  0
  2  3  2  0
  7 10  1  0
  8  9  1  0
  8 11  1  0
  8 12  1  0
  8 13  1  0
  9 10  2  3
  9 14  1  0
M  RAD  1   3   2
M  END
>  <reaction>  (7) 
rmg_rxn_16713

>  <mol_properties>  (7) 
{"1": {"label": "*0", "atom_type": "N3d"}, "2": {"label": "*1", "atom_type": "N3d"}, "6": {"label": "*2", "atom_type": "H0"}, "8": {"label": "*4", "atom_type": "Cd"}, "9": {"label": "*3", "atom_type": "N3d"}}

>  <type>  (7) 
unop_3

>  <geom_source>  (7) 
Heuristics

$$$$

     RDKit          3D

 14 12  0  0  0  0  0  0  0  0999 V2000
   -0.1299   -1.0247   -3.1413 C   0  0  0  0  0  0  0  0  0  0  0  0
   -0.1299   -1.0247   -1.6871 N   0  0  0  0  0  0  0  0  0  0  0  0
   -0.1299    0.1056   -1.2037 N   0  0  0  0  0  2  0  0  0  0  0  0
    0.7492   -1.5794   -3.4742 H   0  0  0  0  0  0  0  0  0  0  0  0
   -1.0090   -1.5794   -3.4742 H   0  0  0  0  0  0  0  0  0  0  0  0
   -0.1299   -0.0127   -3.5524 H   0  0  0  0  0  0  0  0  0  0  0  0
   -0.1299   -0.0294    0.0235 H   0  0  0  0  0  0  0  0  0  0  0  0
    0.0663    1.2844    3.1568 C   0  0  0  0  0  0  0  0  0  0  0  0
    0.4597    0.8026    1.8002 C   0  0  0  0  0  0  0  0  0  0  0  0
   -0.1299   -0.1630    1.2377 N   0  0  0  0  0  0  0  0  0  0  0  0
    0.9151    1.2165    3.8421 H   0  0  0  0  0  0  0  0  0  0  0  0
   -0.7619    0.6930    3.5431 H   0  0  0  0  0  0  0  0  0  0  0  0
   -0.2247    2.3370    3.1137 H   0  0  0  0  0  0  0  0  0  0  0  0
    1.2912    1.3413    1.3278 H   0  0  0  0  0  0  0  0  0  0  0  0
  1  2  1  0
  1  4  1  0
  1  5  1  0
  1  6  1  0
  2  3  2  0
  7 10  1  0
  8  9  1  0
  8 11  1  0
  8 12  1  0
  8 13  1  0
  9 10  2  3
  9 14  1  0
M  RAD  1   3   2
M  END
>  <reaction>  (8) 
rmg_rxn_16713

>  <mol_properties>  (8) 
{"1": {"label": "*0", "atom_type": "N3d"}, "2": {"label": "*1", "atom_type": "N3d"}, "6": {"label": "*2", "atom_type": "H0"}, "8": {"label": "*4", "atom_type": "Cd"}, "9": {"label": "*3", "atom_type": "N3d"}}

>  <type>  (8) 
unop_4

>  <geom_source>  (8) 
Heuristics

$$$$

     RDKit          3D

 14 12  0  0  0  0  0  0  0  0999 V2000
    0.4586   -0.4505   -3.0739 C   0  0  0  0  0  0  0  0  0  0  0  0
    0.4586   -0.4505   -1.6197 N   0  0  0  0  0  0  0  0  0  0  0  0
    0.4586    0.6799   -1.1363 N   0  0  0  0  0  2  0  0  0  0  0  0
    1.3377   -1.0051   -3.4068 H   0  0  0  0  0  0  0  0  0  0  0  0
   -0.4205   -1.0051   -3.4068 H   0  0  0  0  0  0  0  0  0  0  0  0
    0.4586    0.5616   -3.4850 H   0  0  0  0  0  0  0  0  0  0  0  0
    0.4586    0.5449    0.0909 H   0  0  0  0  0  0  0  0  0  0  0  0
   -1.2183    0.0582    3.0019 C   0  0  0  0  0  0  0  0  0  0  0  0
   -0.5626   -0.2244    1.6915 C   0  0  0  0  0  0  0  0  0  0  0  0
    0.4586    0.4113    1.3051 N   0  0  0  0  0  0  0  0  0  0  0  0
   -2.2608    0.3483    2.8476 H   0  0  0  0  0  0  0  0  0  0  0  0
   -0.6921    0.8550    3.5246 H   0  0  0  0  0  0  0  0  0  0  0  0
   -1.2268   -0.8422    3.6216 H   0  0  0  0  0  0  0  0  0  0  0  0
   -1.0257   -1.0174    1.0902 H   0  0  0  0  0  0  0  0  0  0  0  0
  1  2  1  0
  1  4  1  0
  1  5  1  0
  1  6  1  0
  2  3  2  0
  7 10  1  0
  8  9  1  0
  8 11  1  0
  8 12  1  0
  8 13  1  0
  9 10  2  3
  9 14  1  0
M  RAD  1   3   2
M  END
>  <reaction>  (9) 
rmg_rxn_16713

>  <mol_properties>  (9) 
{"1": {"label": "*0", "atom_type": "N3d"}, "2": {"label": "*1", "atom_type": "N3d"}, "6": {"label": "*2", "atom_type": "H0"}, "8": {"label": "*4", "atom_type": "Cd"}, "9": {"label": "*3", "atom_type": "N3d"}}

>  <type>  (9) 
unop_5

>  <geom_source>  (9) 
Heuristics

$$$$

     RDKit          3D

 14 12  0  0  0  0  0  0  0  0999 V2000
    0.0000   -1.0143   -3.1700 C   0  0  0  0  0  0  0  0  0  0  0  0
    0.0000   -1.0143   -1.7158 N   0  0  0  0  0  0  0  0  0  0  0  0
    0.0000    0.1160   -1.2324 N   0  0  0  0  0  2  0  0  0  0  0  0
    0.8791   -1.5690   -3.5029 H   0  0  0  0  0  0  0  0  0  0  0  0
   -0.8791   -1.5690   -3.5029 H   0  0  0  0  0  0  0  0  0  0  0  0
    0.0000   -0.0023   -3.5811 H   0  0  0  0  0  0  0  0  0  0  0  0
    0.0000   -0.0190   -0.0052 H   0  0  0  0  0  0  0  0  0  0  0  0
   -0.0000    1.0893    3.2764 C   0  0  0  0  0  0  0  0  0  0  0  0
   -0.0000    0.9700    1.7888 C   0  0  0  0  0  0  0  0  0  0  0  0
   -0.0000   -0.1525    1.2090 N   0  0  0  0  0  0  0  0  0  0  0  0
    0.8783    1.6477    3.6102 H   0  0  0  0  0  0  0  0  0  0  0  0
   -0.0000    0.1022    3.7353 H   0  0  0  0  0  0  0  0  0  0  0  0
   -0.8783    1.6477    3.6102 H   0  0  0  0  0  0  0  0  0  0  0  0
    0.0000    1.9186    1.2366 H   0  0  0  0  0  0  0  0  0  0  0  0
  1  2  1  0
  1  4  1  0
  1  5  1  0
  1  6  1  0
  2  3  2  0
  7 10  1  0
  8  9  1  0
  8 11  1  0
  8 12  1  0
  8 13  1  0
  9 10  2  3
  9 14  1  0
M  RAD  1   3   2
M  END
>  <reaction>  (10) 
rmg_rxn_16713

>  <mol_properties>  (10) 
{"1": {"label": "*0", "atom_type": "N3d"}, "2": {"label": "*1", "atom_type": "N3d"}, "6": {"label": "*2", "atom_type": "H0"}, "8": {"label": "*4", "atom_type": "Cd"}, "9": {"label": "*3", "atom_type": "N3d"}}

>  <type>  (10) 
unop_6

>  <geom_source>  (10) 
Heuristics

$$$$

     RDKit          3D

 14 12  0  0  0  0  0  0  0  0999 V2000
    0.4661   -0.7212   -3.0862 C   0  0  0  0  0  0  0  0  0  0  0  0
    0.4661   -0.7212   -1.6320 N   0  0  0  0  0  0  0  0  0  0  0  0
    0.4661    0.4091   -1.1486 N   0  0  0  0  0  2  0  0  0  0  0  0
    1.3453   -1.2759   -3.4191 H   0  0  0  0  0  0  0  0  0  0  0  0
   -0.4130   -1.2759   -3.4191 H   0  0  0  0  0  0  0  0  0  0  0  0
    0.4661    0.2908   -3.4973 H   0  0  0  0  0  0  0  0  0  0  0  0
    0.4661    0.2741    0.0786 H   0  0  0  0  0  0  0  0  0  0  0  0
   -1.1072    0.7932    3.0001 C   0  0  0  0  0  0  0  0  0  0  0  0
   -0.7131    0.0909    1.7437 C   0  0  0  0  0  0  0  0  0  0  0  0
    0.4661    0.1405    1.2928 N   0  0  0  0  0  0  0  0  0  0  0  0
   -1.9103    1.5064    2.7978 H   0  0  0  0  0  0  0  0  0  0  0  0
   -0.2529    1.3175    3.4247 H   0  0  0  0  0  0  0  0  0  0  0  0
   -1.4945    0.0756    3.7280 H   0  0  0  0  0  0  0  0  0  0  0  0
   -1.5131   -0.4681    1.2414 H   0  0  0  0  0  0  0  0  0  0  0  0
  1  2  1  0
  1  4  1  0
  1  5  1  0
  1  6  1  0
  2  3  2  0
  7 10  1  0
  8  9  1  0
  8 11  1  0
  8 12  1  0
  8 13  1  0
  9 10  2  3
  9 14  1  0
M  RAD  1   3   2
M  END
>  <reaction>  (11) 
rmg_rxn_16713

>  <mol_properties>  (11) 
{"1": {"label": "*0", "atom_type": "N3d"}, "2": {"label": "*1", "atom_type": "N3d"}, "6": {"label": "*2", "atom_type": "H0"}, "8": {"label": "*4", "atom_type": "Cd"}, "9": {"label": "*3", "atom_type": "N3d"}}

>  <type>  (11) 
unop_7

>  <geom_source>  (11) 
Heuristics

$$$$

     RDKit          3D

 14 12  0  0  0  0  0  0  0  0999 V2000
    0.3302   -0.9360   -3.1079 C   0  0  0  0  0  0  0  0  0  0  0  0
    0.3302   -0.9360   -1.6537 N   0  0  0  0  0  0  0  0  0  0  0  0
    0.3302    0.1944   -1.1703 N   0  0  0  0  0  2  0  0  0  0  0  0
    1.2093   -1.4906   -3.4408 H   0  0  0  0  0  0  0  0  0  0  0  0
   -0.5489   -1.4906   -3.4408 H   0  0  0  0  0  0  0  0  0  0  0  0
    0.3302    0.0761   -3.5190 H   0  0  0  0  0  0  0  0  0  0  0  0
    0.3302    0.0594    0.0569 H   0  0  0  0  0  0  0  0  0  0  0  0
   -0.6117    1.2635    3.0429 C   0  0  0  0  0  0  0  0  0  0  0  0
   -0.6910    0.4623    1.7864 C   0  0  0  0  0  0  0  0  0  0  0  0
    0.3302   -0.0742    1.2711 N   0  0  0  0  0  0  0  0  0  0  0  0
   -0.9705    2.2805    2.8653 H   0  0  0  0  0  0  0  0  0  0  0  0
    0.4139    1.2974    3.4062 H   0  0  0  0  0  0  0  0  0  0  0  0
   -1.2571    0.8276    3.8098 H   0  0  0  0  0  0  0  0  0  0  0  0
   -1.6913    0.3717    1.3436 H   0  0  0  0  0  0  0  0  0  0  0  0
  1  2  1  0
  1  4  1  0
  1  5  1  0
  1  6  1  0
  2  3  2  0
  7 10  1  0
  8  9  1  0
  8 11  1  0
  8 12  1  0
  8 13  1  0
  9 10  2  3
  9 14  1  0
M  RAD  1   3   2
M  END
>  <reaction>  (12) 
rmg_rxn_16713

>  <mol_properties>  (12) 
{"1": {"label": "*0", "atom_type": "N3d"}, "2": {"label": "*1", "atom_type": "N3d"}, "6": {"label": "*2", "atom_type": "H0"}, "8": {"label": "*4", "atom_type": "Cd"}, "9": {"label": "*3", "atom_type": "N3d"}}

>  <type>  (12) 
unop_8

>  <geom_source>  (12) 
Heuristics

$$$$

     RDKit          3D

 14 12  0  0  0  0  0  0  0  0999 V2000
   -0.4661   -0.7212   -3.0862 C   0  0  0  0  0  0  0  0  0  0  0  0
   -0.4661   -0.7212   -1.6320 N   0  0  0  0  0  0  0  0  0  0  0  0
   -0.4661    0.4091   -1.1486 N   0  0  0  0  0  2  0  0  0  0  0  0
    0.4130   -1.2759   -3.4191 H   0  0  0  0  0  0  0  0  0  0  0  0
   -1.3453   -1.2759   -3.4191 H   0  0  0  0  0  0  0  0  0  0  0  0
   -0.4661    0.2908   -3.4973 H   0  0  0  0  0  0  0  0  0  0  0  0
   -0.4661    0.2741    0.0786 H   0  0  0  0  0  0  0  0  0  0  0  0
    1.1072    0.7932    3.0001 C   0  0  0  0  0  0  0  0  0  0  0  0
    0.7131    0.0909    1.7437 C   0  0  0  0  0  0  0  0  0  0  0  0
   -0.4661    0.1405    1.2928 N   0  0  0  0  0  0  0  0  0  0  0  0
    1.4945    0.0756    3.7280 H   0  0  0  0  0  0  0  0  0  0  0  0
    0.2529    1.3175    3.4247 H   0  0  0  0  0  0  0  0  0  0  0  0
    1.9103    1.5064    2.7978 H   0  0  0  0  0  0  0  0  0  0  0  0
    1.5131   -0.4681    1.2414 H   0  0  0  0  0  0  0  0  0  0  0  0
  1  2  1  0
  1  4  1  0
  1  5  1  0
  1  6  1  0
  2  3  2  0
  7 10  1  0
  8  9  1  0
  8 11  1  0
  8 12  1  0
  8 13  1  0
  9 10  2  3
  9 14  1  0
M  RAD  1   3   2
M  END
>  <reaction>  (13) 
rmg_rxn_16713

>  <mol_properties>  (13) 
{"1": {"label": "*0", "atom_type": "N3d"}, "2": {"label": "*1", "atom_type": "N3d"}, "6": {"label": "*2", "atom_type": "H0"}, "8": {"label": "*4", "atom_type": "Cd"}, "9": {"label": "*3", "atom_type": "N3d"}}

>  <type>  (13) 
unop_9

>  <geom_source>  (13) 
Heuristics

$$$$

     RDKit          3D

 14 12  0  0  0  0  0  0  0  0999 V2000
   -2.4246   -1.0178   -0.0002 C   0  0  0  0  0  0  0  0  0  0  0  0
   -2.2576    0.4043   -0.0006 N   0  0  0  0  0  0  0  0  0  0  0  0
   -1.2496    1.0158    0.0004 N   0  0  0  0  0  2  0  0  0  0  0  0
   -3.0120   -1.2747   -0.8817 H   0  0  0  0  0  0  0  0  0  0  0  0
   -1.4698   -1.5510   -0.0001 H   0  0  0  0  0  0  0  0  0  0  0  0
   -3.0117   -1.2741    0.8817 H   0  0  0  0  0  0  0  0  0  0  0  0
   -0.1567    0.3442    0.0011 H   0  0  0  0  0  0  0  0  0  0  0  0
    3.2381   -0.2989   -0.0004 C   0  0  0  0  0  0  0  0  0  0  0  0
    1.8854    0.3424   -0.0002 C   0  0  0  0  0  0  0  0  0  0  0  0
    0.8339   -0.3219    0.0010 N   0  0  0  0  0  0  0  0  0  0  0  0
    3.7893    0.0190   -0.8842 H   0  0  0  0  0  0  0  0  0  0  0  0
    3.1446   -1.3813    0.0031 H   0  0  0  0  0  0  0  0  0  0  0  0
    3.7925    0.0247    0.8793 H   0  0  0  0  0  0  0  0  0  0  0  0
    1.9134    1.4422   -0.0013 H   0  0  0  0  0  0  0  0  0  0  0  0
  1  2  1  0
  1  4  1  0
  1  5  1  0
  1  6  1  0
  2  3  2  0
  7 10  1  0
  8  9  1  0
  8 11  1  0
  8 12  1  0
  8 13  1  0
  9 10  2  3
  9 14  1  0
M  RAD  1   3   2
M  END
>  <reaction>  (14) 
rmg_rxn_16713

>  <mol_properties>  (14) 
{"1": {"label": "*0", "atom_type": "N3d"}, "2": {"label": "*1", "atom_type": "N3d"}, "6": {"label": "*2", "atom_type": "H0"}, "8": {"label": "*4", "atom_type": "Cd"}, "9": {"label": "*3", "atom_type": "N3d"}}

>  <type>  (14) 
unop_10

>  <geom_source>  (14) 
Heuristics

$$$$

     RDKit          3D

 14 12  0  0  0  0  0  0  0  0999 V2000
    0.2878   -0.2196   -3.0712 C   0  0  0  0  0  0  0  0  0  0  0  0
    0.2878   -0.2196   -1.6170 N   0  0  0  0  0  0  0  0  0  0  0  0
    0.2878    0.9107   -1.1336 N   0  0  0  0  0  2  0  0  0  0  0  0
    1.1669   -0.7743   -3.4042 H   0  0  0  0  0  0  0  0  0  0  0  0
   -0.5913   -0.7743   -3.4042 H   0  0  0  0  0  0  0  0  0  0  0  0
    0.2878    0.7924   -3.4823 H   0  0  0  0  0  0  0  0  0  0  0  0
    0.2878    0.7757    0.0936 H   0  0  0  0  0  0  0  0  0  0  0  0
   -0.8123   -0.6341    3.0332 C   0  0  0  0  0  0  0  0  0  0  0  0
   -0.3018   -0.4226    1.6469 C   0  0  0  0  0  0  0  0  0  0  0  0
    0.2878    0.6422    1.3077 N   0  0  0  0  0  0  0  0  0  0  0  0
   -1.8903   -0.8134    3.0152 H   0  0  0  0  0  0  0  0  0  0  0  0
   -0.5981    0.2353    3.6523 H   0  0  0  0  0  0  0  0  0  0  0  0
   -0.3494   -1.5203    3.4747 H   0  0  0  0  0  0  0  0  0  0  0  0
   -0.4727   -1.2504    0.9467 H   0  0  0  0  0  0  0  0  0  0  0  0
  1  2  1  0
  1  4  1  0
  1  5  1  0
  1  6  1  0
  2  3  2  0
  7 10  1  0
  8  9  1  0
  8 11  1  0
  8 12  1  0
  8 13  1  0
  9 10  2  3
  9 14  1  0
M  RAD  1   3   2
M  END
>  <reaction>  (15) 
rmg_rxn_16713

>  <mol_properties>  (15) 
{"1": {"label": "*0", "atom_type": "N3d"}, "2": {"label": "*1", "atom_type": "N3d"}, "6": {"label": "*2", "atom_type": "H0"}, "8": {"label": "*4", "atom_type": "Cd"}, "9": {"label": "*3", "atom_type": "N3d"}}

>  <type>  (15) 
unop_11

>  <geom_source>  (15) 
Heuristics

$$$$

     RDKit          3D

 14 12  0  0  0  0  0  0  0  0999 V2000
   -0.4586   -0.4505   -3.0739 C   0  0  0  0  0  0  0  0  0  0  0  0
   -0.4586   -0.4505   -1.6197 N   0  0  0  0  0  0  0  0  0  0  0  0
   -0.4586    0.6799   -1.1363 N   0  0  0  0  0  2  0  0  0  0  0  0
    0.4205   -1.0051   -3.4068 H   0  0  0  0  0  0  0  0  0  0  0  0
   -1.3377   -1.0051   -3.4068 H   0  0  0  0  0  0  0  0  0  0  0  0
   -0.4586    0.5616   -3.4850 H   0  0  0  0  0  0  0  0  0  0  0  0
   -0.4586    0.5449    0.0909 H   0  0  0  0  0  0  0  0  0  0  0  0
    1.2183    0.0582    3.0019 C   0  0  0  0  0  0  0  0  0  0  0  0
    0.5626   -0.2244    1.6915 C   0  0  0  0  0  0  0  0  0  0  0  0
   -0.4586    0.4113    1.3051 N   0  0  0  0  0  0  0  0  0  0  0  0
    1.2268   -0.8422    3.6216 H   0  0  0  0  0  0  0  0  0  0  0  0
    0.6921    0.8550    3.5246 H   0  0  0  0  0  0  0  0  0  0  0  0
    2.2608    0.3483    2.8476 H   0  0  0  0  0  0  0  0  0  0  0  0
    1.0257   -1.0174    1.0902 H   0  0  0  0  0  0  0  0  0  0  0  0
  1  2  1  0
  1  4  1  0
  1  5  1  0
  1  6  1  0
  2  3  2  0
  7 10  1  0
  8  9  1  0
  8 11  1  0
  8 12  1  0
  8 13  1  0
  9 10  2  3
  9 14  1  0
M  RAD  1   3   2
M  END
>  <reaction>  (16) 
rmg_rxn_16713

>  <mol_properties>  (16) 
{"1": {"label": "*0", "atom_type": "N3d"}, "2": {"label": "*1", "atom_type": "N3d"}, "6": {"label": "*2", "atom_type": "H0"}, "8": {"label": "*4", "atom_type": "Cd"}, "9": {"label": "*3", "atom_type": "N3d"}}

>  <type>  (16) 
unop_12

>  <geom_source>  (16) 
Heuristics

$$$$

     RDKit          3D

 14 12  0  0  0  0  0  0  0  0999 V2000
    0.1299   -1.0247   -3.1413 C   0  0  0  0  0  0  0  0  0  0  0  0
    0.1299   -1.0247   -1.6871 N   0  0  0  0  0  0  0  0  0  0  0  0
    0.1299    0.1056   -1.2037 N   0  0  0  0  0  2  0  0  0  0  0  0
    1.0091   -1.5794   -3.4742 H   0  0  0  0  0  0  0  0  0  0  0  0
   -0.7492   -1.5794   -3.4742 H   0  0  0  0  0  0  0  0  0  0  0  0
    0.1299   -0.0127   -3.5524 H   0  0  0  0  0  0  0  0  0  0  0  0
    0.1299   -0.0294    0.0235 H   0  0  0  0  0  0  0  0  0  0  0  0
   -0.0663    1.2844    3.1568 C   0  0  0  0  0  0  0  0  0  0  0  0
   -0.4597    0.8026    1.8002 C   0  0  0  0  0  0  0  0  0  0  0  0
    0.1299   -0.1630    1.2377 N   0  0  0  0  0  0  0  0  0  0  0  0
    0.2247    2.3370    3.1137 H   0  0  0  0  0  0  0  0  0  0  0  0
    0.7619    0.6930    3.5431 H   0  0  0  0  0  0  0  0  0  0  0  0
   -0.9151    1.2165    3.8421 H   0  0  0  0  0  0  0  0  0  0  0  0
   -1.2912    1.3413    1.3278 H   0  0  0  0  0  0  0  0  0  0  0  0
  1  2  1  0
  1  4  1  0
  1  5  1  0
  1  6  1  0
  2  3  2  0
  7 10  1  0
  8  9  1  0
  8 11  1  0
  8 12  1  0
  8 13  1  0
  9 10  2  3
  9 14  1  0
M  RAD  1   3   2
M  END
>  <reaction>  (17) 
rmg_rxn_16713

>  <mol_properties>  (17) 
{"1": {"label": "*0", "atom_type": "N3d"}, "2": {"label": "*1", "atom_type": "N3d"}, "6": {"label": "*2", "atom_type": "H0"}, "8": {"label": "*4", "atom_type": "Cd"}, "9": {"label": "*3", "atom_type": "N3d"}}

>  <type>  (17) 
unop_13

>  <geom_source>  (17) 
Heuristics

$$$$

     RDKit          3D

 14 12  0  0  0  0  0  0  0  0999 V2000
    0.0000   -0.1268   -3.0724 C   0  0  0  0  0  0  0  0  0  0  0  0
    0.0000   -0.1268   -1.6182 N   0  0  0  0  0  0  0  0  0  0  0  0
    0.0000    1.0035   -1.1348 N   0  0  0  0  0  2  0  0  0  0  0  0
    0.8791   -0.6815   -3.4053 H   0  0  0  0  0  0  0  0  0  0  0  0
   -0.8791   -0.6815   -3.4053 H   0  0  0  0  0  0  0  0  0  0  0  0
    0.0000    0.8852   -3.4835 H   0  0  0  0  0  0  0  0  0  0  0  0
    0.0000    0.8685    0.0924 H   0  0  0  0  0  0  0  0  0  0  0  0
   -0.0000   -0.9266    3.0546 C   0  0  0  0  0  0  0  0  0  0  0  0
   -0.0000   -0.4868    1.6285 C   0  0  0  0  0  0  0  0  0  0  0  0
   -0.0000    0.7349    1.3066 N   0  0  0  0  0  0  0  0  0  0  0  0
   -0.8783   -1.5443    3.2591 H   0  0  0  0  0  0  0  0  0  0  0  0
    0.0000   -0.0629    3.7171 H   0  0  0  0  0  0  0  0  0  0  0  0
    0.8783   -1.5443    3.2591 H   0  0  0  0  0  0  0  0  0  0  0  0
   -0.0000   -1.2927    0.8833 H   0  0  0  0  0  0  0  0  0  0  0  0
  1  2  1  0
  1  4  1  0
  1  5  1  0
  1  6  1  0
  2  3  2  0
  7 10  1  0
  8  9  1  0
  8 11  1  0
  8 12  1  0
  8 13  1  0
  9 10  2  3
  9 14  1  0
M  RAD  1   3   2
M  END
>  <reaction>  (18) 
rmg_rxn_16713

>  <mol_properties>  (18) 
{"1": {"label": "*0", "atom_type": "N3d"}, "2": {"label": "*1", "atom_type": "N3d"}, "6": {"label": "*2", "atom_type": "H0"}, "8": {"label": "*4", "atom_type": "Cd"}, "9": {"label": "*3", "atom_type": "N3d"}}

>  <type>  (18) 
unop_14

>  <geom_source>  (18) 
Heuristics

$$$$

     RDKit          3D

 14 12  0  0  0  0  0  0  0  0999 V2000
   -0.2878   -0.2196   -3.0713 C   0  0  0  0  0  0  0  0  0  0  0  0
   -0.2878   -0.2196   -1.6170 N   0  0  0  0  0  0  0  0  0  0  0  0
   -0.2878    0.9107   -1.1337 N   0  0  0  0  0  2  0  0  0  0  0  0
    0.5913   -0.7743   -3.4042 H   0  0  0  0  0  0  0  0  0  0  0  0
   -1.1669   -0.7743   -3.4042 H   0  0  0  0  0  0  0  0  0  0  0  0
   -0.2878    0.7924   -3.4823 H   0  0  0  0  0  0  0  0  0  0  0  0
   -0.2878    0.7757    0.0936 H   0  0  0  0  0  0  0  0  0  0  0  0
    0.8123   -0.6341    3.0332 C   0  0  0  0  0  0  0  0  0  0  0  0
    0.3018   -0.4226    1.6469 C   0  0  0  0  0  0  0  0  0  0  0  0
   -0.2878    0.6422    1.3077 N   0  0  0  0  0  0  0  0  0  0  0  0
    0.3494   -1.5203    3.4747 H   0  0  0  0  0  0  0  0  0  0  0  0
    0.5981    0.2353    3.6523 H   0  0  0  0  0  0  0  0  0  0  0  0
    1.8903   -0.8134    3.0152 H   0  0  0  0  0  0  0  0  0  0  0  0
    0.4727   -1.2504    0.9467 H   0  0  0  0  0  0  0  0  0  0  0  0
  1  2  1  0
  1  4  1  0
  1  5  1  0
  1  6  1  0
  2  3  2  0
  7 10  1  0
  8  9  1  0
  8 11  1  0
  8 12  1  0
  8 13  1  0
  9 10  2  3
  9 14  1  0
M  RAD  1   3   2
M  END
>  <reaction>  (19) 
rmg_rxn_16713

>  <mol_properties>  (19) 
{"1": {"label": "*0", "atom_type": "N3d"}, "2": {"label": "*1", "atom_type": "N3d"}, "6": {"label": "*2", "atom_type": "H0"}, "8": {"label": "*4", "atom_type": "Cd"}, "9": {"label": "*3", "atom_type": "N3d"}}

>  <type>  (19) 
unop_15

>  <geom_source>  (19) 
gaussian_log

$$$$
