
     RDKit          3D

  9  8  0  0  0  0  0  0  0  0999 V2000
   -1.0434   -0.0834    0.0221 C   0  0  0  0  0  0  0  0  0  0  0  0
    0.4680   -0.2131    0.0785 C   0  0  0  0  0  0  0  0  0  0  0  0
    0.9450   -1.3136   -0.7058 N   0  0  0  0  0  2  0  0  0  0  0  0
   -1.5170   -0.9919    0.3960 H   0  0  0  0  0  0  0  0  0  0  0  0
   -1.3864    0.7592    0.6249 H   0  0  0  0  0  0  0  0  0  0  0  0
   -1.3736    0.0696   -1.0061 H   0  0  0  0  0  0  0  0  0  0  0  0
    0.8045   -0.3309    1.1214 H   0  0  0  0  0  0  0  0  0  0  0  0
    0.9463    0.7186   -0.2648 H   0  0  0  0  0  0  0  0  0  0  0  0
    1.9638   -1.3321   -0.6157 H   0  0  0  0  0  0  0  0  0  0  0  0
  1  2  1  0
  1  4  1  0
  1  5  1  0
  1  6  1  0
  2  3  1  0
  2  7  1  0
  2  8  1  0
  3  9  1  0
M  RAD  1   3   2
M  END
>  <reaction>  (1) 
rmg_rxn_209

>  <mol_properties>  (1) 
{"2": {"label": "donator", "atom_type": "N3s"}, "8": {"label": "d_hydrogen", "atom_type": "H0"}}

>  <type>  (1) 
r1h

$$$$

     RDKit          3D

 17 16  0  0  0  0  0  0  0  0999 V2000
    2.3993   -0.7259   -0.8796 C   0  0  0  0  0  0  0  0  0  0  0  0
    1.8173   -0.7170    0.4851 C   0  0  0  0  0  3  0  0  0  0  0  0
    2.6779   -0.5182    1.6852 C   0  0  0  0  0  0  0  0  0  0  0  0
    3.8710   -1.2723    1.6674 O   0  0  0  0  0  0  0  0  0  0  0  0
    3.6589   -2.6587    1.8015 C   0  0  0  0  0  0  0  0  0  0  0  0
    4.9969   -3.3586    1.7556 C   0  0  0  0  0  0  0  0  0  0  0  0
    3.3755   -1.2152   -0.8894 H   0  0  0  0  0  0  0  0  0  0  0  0
    1.7457   -1.2284   -1.5943 H   0  0  0  0  0  0  0  0  0  0  0  0
    2.5578    0.2962   -1.2545 H   0  0  0  0  0  0  0  0  0  0  0  0
    0.7445   -0.6275    0.6059 H   0  0  0  0  0  0  0  0  0  0  0  0
    2.1057   -0.7316    2.5992 H   0  0  0  0  0  0  0  0  0  0  0  0
    3.0103    0.5272    1.7516 H   0  0  0  0  0  0  0  0  0  0  0  0
    3.0050   -3.0235    0.9977 H   0  0  0  0  0  0  0  0  0  0  0  0
    3.1469   -2.8645    2.7531 H   0  0  0  0  0  0  0  0  0  0  0  0
    5.6430   -3.0039    2.5594 H   0  0  0  0  0  0  0  0  0  0  0  0
    4.8641   -4.4360    1.8660 H   0  0  0  0  0  0  0  0  0  0  0  0
    5.4957   -3.1672    0.8046 H   0  0  0  0  0  0  0  0  0  0  0  0
  1  2  1  0
  1  7  1  0
  1  8  1  0
  1  9  1  0
  2  3  1  0
  2 10  1  0
  3  4  1  0
  3 11  1  0
  3 12  1  0
  4  5  1  0
  5  6  1  0
  5 13  1  0
  5 14  1  0
  6 15  1  0
  6 16  1  0
  6 17  1  0
M  RAD  1   2   2
M  END
>  <reaction>  (2) 
rmg_rxn_209

>  <mol_properties>  (2) 
{"1": {"label": "acceptor", "atom_type": "Cs"}}

>  <type>  (2) 
r2

$$$$

     RDKit          3D

 18 17  0  0  0  0  0  0  0  0999 V2000
    2.2026   -0.7213   -0.2612 C   0  0  0  0  0  0  0  0  0  0  0  0
    1.5384    0.2638    0.6915 C   0  0  0  0  0  0  0  0  0  0  0  0
    2.2584    1.5946    0.7694 C   0  0  0  0  0  0  0  0  0  0  0  0
    2.2212    2.2185   -0.4893 O   0  0  0  0  0  0  0  0  0  0  0  0
    2.8988    3.4488   -0.5204 C   0  0  0  0  0  0  0  0  0  0  0  0
    2.7981    4.0296   -1.9118 C   0  0  0  0  0  0  0  0  0  0  0  0
    3.2294   -0.9309    0.0486 H   0  0  0  0  0  0  0  0  0  0  0  0
    2.2338   -0.3181   -1.2734 H   0  0  0  0  0  0  0  0  0  0  0  0
    1.6610   -1.6680   -0.2875 H   0  0  0  0  0  0  0  0  0  0  0  0
    1.4990   -0.1566    1.7002 H   0  0  0  0  0  0  0  0  0  0  0  0
    0.5055    0.4455    0.3835 H   0  0  0  0  0  0  0  0  0  0  0  0
    3.3038    1.4410    1.0808 H   0  0  0  0  0  0  0  0  0  0  0  0
    1.7844    2.2410    1.5226 H   0  0  0  0  0  0  0  0  0  0  0  0
    2.4596    4.1376    0.2164 H   0  0  0  0  0  0  0  0  0  0  0  0
    3.9524    3.3035   -0.2397 H   0  0  0  0  0  0  0  0  0  0  0  0
    1.7543    4.1869   -2.1856 H   0  0  0  0  0  0  0  0  0  0  0  0
    3.2472    3.3545   -2.6411 H   0  0  0  0  0  0  0  0  0  0  0  0
    3.3178    4.9878   -1.9600 H   0  0  0  0  0  0  0  0  0  0  0  0
  1  2  1  0
  1  7  1  0
  1  8  1  0
  1  9  1  0
  2  3  1  0
  2 10  1  0
  2 11  1  0
  3  4  1  0
  3 12  1  0
  3 13  1  0
  4  5  1  0
  5  6  1  0
  5 14  1  0
  5 15  1  0
  6 16  1  0
  6 17  1  0
  6 18  1  0
M  END
>  <reaction>  (3) 
rmg_rxn_209

>  <mol_properties>  (3) 
{"0": {"label": "a_hydrogen", "atom_type": "H0"}, "2": {"label": "acceptor", "atom_type": "Cs"}}

>  <type>  (3) 
r2h

$$$$

     RDKit          3D

 26 24  0  0  0  0  0  0  0  0999 V2000
   -0.8148   -0.7704   -3.3396 C   0  0  0  0  0  0  0  0  0  0  0  0
   -0.9501   -0.7373   -1.8236 C   0  0  0  0  0  0  0  0  0  0  0  0
   -1.7013    0.3925   -1.3792 N   0  0  0  0  0  2  0  0  0  0  0  0
   -0.3028    0.1241   -3.6964 H   0  0  0  0  0  0  0  0  0  0  0  0
   -0.2426   -1.6445   -3.6559 H   0  0  0  0  0  0  0  0  0  0  0  0
   -1.7963   -0.8097   -3.8136 H   0  0  0  0  0  0  0  0  0  0  0  0
    0.0370   -0.7266   -1.3380 H   0  0  0  0  0  0  0  0  0  0  0  0
   -1.4368   -1.6583   -1.4637 H   0  0  0  0  0  0  0  0  0  0  0  0
   -1.6816    0.3358   -0.1774 H   0  0  0  0  0  0  0  0  0  0  0  0
   -1.5831   -1.2807    1.5265 C   0  0  0  0  0  0  0  0  0  0  0  0
   -1.5321    0.1880    1.2164 C   0  0  0  0  0  3  0  0  0  0  0  0
   -0.2533    0.9083    1.5190 C   0  0  0  0  0  0  0  0  0  0  0  0
    0.8225    0.2509    0.8959 O   0  0  0  0  0  0  0  0  0  0  0  0
    2.0643    0.8690    1.1264 C   0  0  0  0  0  0  0  0  0  0  0  0
    3.1355    0.0981    0.3909 C   0  0  0  0  0  0  0  0  0  0  0  0
   -1.5101   -1.4556    2.6068 H   0  0  0  0  0  0  0  0  0  0  0  0
   -2.5196   -1.7236    1.1845 H   0  0  0  0  0  0  0  0  0  0  0  0
   -0.7545   -1.8104    1.0555 H   0  0  0  0  0  0  0  0  0  0  0  0
   -2.4044    0.7507    1.5475 H   0  0  0  0  0  0  0  0  0  0  0  0
   -0.0847    0.9405    2.6108 H   0  0  0  0  0  0  0  0  0  0  0  0
   -0.3151    1.9494    1.1716 H   0  0  0  0  0  0  0  0  0  0  0  0
    2.2761    0.8912    2.2052 H   0  0  0  0  0  0  0  0  0  0  0  0
    2.0329    1.9115    0.7789 H   0  0  0  0  0  0  0  0  0  0  0  0
    2.9349    0.0931   -0.6812 H   0  0  0  0  0  0  0  0  0  0  0  0
    4.1119    0.5552    0.5573 H   0  0  0  0  0  0  0  0  0  0  0  0
    3.1723   -0.9344    0.7403 H   0  0  0  0  0  0  0  0  0  0  0  0
  1  2  1  0
  1  4  1  0
  1  5  1  0
  1  6  1  0
  2  3  1  0
  2  7  1  0
  2  8  1  0
  3  9  1  0
 10 11  1  0
 10 16  1  0
 10 17  1  0
 10 18  1  0
 11 12  1  0
 11 19  1  0
 12 13  1  0
 12 20  1  0
 12 21  1  0
 13 14  1  0
 14 15  1  0
 14 22  1  0
 14 23  1  0
 15 24  1  0
 15 25  1  0
 15 26  1  0
M  RAD  2   3   2  11   2
M  END
>  <reaction>  (4) 
rmg_rxn_209

>  <mol_properties>  (4) 
{"1": {"label": "*0", "atom_type": "Cs"}, "2": {"label": "*1", "atom_type": "N3s"}, "8": {"label": "*2", "atom_type": "H0"}, "10": {"label": "*3", "atom_type": "Cs"}, "11": {"label": "*4", "atom_type": "Cs"}}

>  <type>  (4) 
ts

$$$$

     RDKit          3D

 26 24  0  0  0  0  0  0  0  0999 V2000
    0.3778   -2.0349   -2.8655 C   0  0  0  0  0  0  0  0  0  0  0  0
    0.3778   -2.0349   -1.3475 C   0  0  0  0  0  0  0  0  0  0  0  0
    0.3778   -0.7073   -0.8077 N   0  0  0  0  0  2  0  0  0  0  0  0
    1.2600   -1.5184   -3.2455 H   0  0  0  0  0  0  0  0  0  0  0  0
    0.3778   -3.0538   -3.2565 H   0  0  0  0  0  0  0  0  0  0  0  0
   -0.5044   -1.5184   -3.2455 H   0  0  0  0  0  0  0  0  0  0  0  0
    1.2500   -2.5886   -0.9636 H   0  0  0  0  0  0  0  0  0  0  0  0
   -0.4944   -2.5886   -0.9636 H   0  0  0  0  0  0  0  0  0  0  0  0
    0.3778   -0.8109    0.4155 H   0  0  0  0  0  0  0  0  0  0  0  0
    1.6165   -0.2530    2.3038 C   0  0  0  0  0  0  0  0  0  0  0  0
    0.3778   -0.9215    1.7225 C   0  0  0  0  0  3  0  0  0  0  0  0
   -0.7419    0.0549    1.4254 C   0  0  0  0  0  0  0  0  0  0  0  0
   -0.3182    0.9636    0.4406 O   0  0  0  0  0  0  0  0  0  0  0  0
   -1.2849    1.9331    0.1258 C   0  0  0  0  0  0  0  0  0  0  0  0
   -0.7293    2.8537   -0.9360 C   0  0  0  0  0  0  0  0  0  0  0  0
    1.3803    0.2575    3.2408 H   0  0  0  0  0  0  0  0  0  0  0  0
    2.3981   -0.9858    2.5097 H   0  0  0  0  0  0  0  0  0  0  0  0
    2.0169    0.4871    1.6109 H   0  0  0  0  0  0  0  0  0  0  0  0
   -0.0065   -1.6720    2.4188 H   0  0  0  0  0  0  0  0  0  0  0  0
   -1.0221    0.5986    2.3414 H   0  0  0  0  0  0  0  0  0  0  0  0
   -1.6358   -0.4841    1.0787 H   0  0  0  0  0  0  0  0  0  0  0  0
   -1.5514    2.5033    1.0279 H   0  0  0  0  0  0  0  0  0  0  0  0
   -2.2037    1.4446   -0.2315 H   0  0  0  0  0  0  0  0  0  0  0  0
   -0.4776    2.2913   -1.8358 H   0  0  0  0  0  0  0  0  0  0  0  0
   -1.4644    3.6164   -1.1976 H   0  0  0  0  0  0  0  0  0  0  0  0
    0.1729    3.3503   -0.5771 H   0  0  0  0  0  0  0  0  0  0  0  0
  1  2  1  0
  1  4  1  0
  1  5  1  0
  1  6  1  0
  2  3  1  0
  2  7  1  0
  2  8  1  0
  3  9  1  0
 10 11  1  0
 10 16  1  0
 10 17  1  0
 10 18  1  0
 11 12  1  0
 11 19  1  0
 12 13  1  0
 12 20  1  0
 12 21  1  0
 13 14  1  0
 14 15  1  0
 14 22  1  0
 14 23  1  0
 15 24  1  0
 15 25  1  0
 15 26  1  0
M  RAD  2   3   2  11   2
M  END
>  <reaction>  (5) 
rmg_rxn_209

>  <mol_properties>  (5) 
{"1": {"label": "*0", "atom_type": "Cs"}, "2": {"label": "*1", "atom_type": "N3s"}, "8": {"label": "*2", "atom_type": "H0"}, "10": {"label": "*3", "atom_type": "Cs"}, "11": {"label": "*4", "atom_type": "Cs"}}

>  <type>  (5) 
unop_1

>  <geom_source>  (5) 
Heuristics

$$$$

     RDKit          3D

 26 24  0  0  0  0  0  0  0  0999 V2000
   -1.1774   -1.5061   -3.2539 C   0  0  0  0  0  0  0  0  0  0  0  0
   -1.1774   -1.5061   -1.7359 C   0  0  0  0  0  0  0  0  0  0  0  0
   -1.1774   -0.1785   -1.1961 N   0  0  0  0  0  2  0  0  0  0  0  0
   -0.2952   -0.9896   -3.6339 H   0  0  0  0  0  0  0  0  0  0  0  0
   -1.1774   -2.5250   -3.6449 H   0  0  0  0  0  0  0  0  0  0  0  0
   -2.0596   -0.9896   -3.6339 H   0  0  0  0  0  0  0  0  0  0  0  0
   -0.3052   -2.0598   -1.3520 H   0  0  0  0  0  0  0  0  0  0  0  0
   -2.0496   -2.0598   -1.3520 H   0  0  0  0  0  0  0  0  0  0  0  0
   -1.1774   -0.2821    0.0271 H   0  0  0  0  0  0  0  0  0  0  0  0
   -0.4622   -1.6711    1.7506 C   0  0  0  0  0  0  0  0  0  0  0  0
   -1.1774   -0.3927    1.3341 C   0  0  0  0  0  3  0  0  0  0  0  0
   -0.3398    0.8527    1.5408 C   0  0  0  0  0  0  0  0  0  0  0  0
    0.8017    0.7871    0.7236 O   0  0  0  0  0  0  0  0  0  0  0  0
    1.6591    1.8894    0.8763 C   0  0  0  0  0  0  0  0  0  0  0  0
    2.8473    1.7180   -0.0415 C   0  0  0  0  0  0  0  0  0  0  0  0
   -0.1923   -1.6393    2.8092 H   0  0  0  0  0  0  0  0  0  0  0  0
   -1.0962   -2.5449    1.5931 H   0  0  0  0  0  0  0  0  0  0  0  0
    0.4536   -1.8061    1.1753 H   0  0  0  0  0  0  0  0  0  0  0  0
   -2.1017   -0.2750    1.9065 H   0  0  0  0  0  0  0  0  0  0  0  0
   -0.0399    0.9354    2.5975 H   0  0  0  0  0  0  0  0  0  0  0  0
   -0.9253    1.7510    1.2958 H   0  0  0  0  0  0  0  0  0  0  0  0
    1.9894    1.9649    1.9229 H   0  0  0  0  0  0  0  0  0  0  0  0
    1.1209    2.8190    0.6389 H   0  0  0  0  0  0  0  0  0  0  0  0
    2.5218    1.6568   -1.0805 H   0  0  0  0  0  0  0  0  0  0  0  0
    3.5284    2.5644    0.0597 H   0  0  0  0  0  0  0  0  0  0  0  0
    3.3906    0.8045    0.2032 H   0  0  0  0  0  0  0  0  0  0  0  0
  1  2  1  0
  1  4  1  0
  1  5  1  0
  1  6  1  0
  2  3  1  0
  2  7  1  0
  2  8  1  0
  3  9  1  0
 10 11  1  0
 10 16  1  0
 10 17  1  0
 10 18  1  0
 11 12  1  0
 11 19  1  0
 12 13  1  0
 12 20  1  0
 12 21  1  0
 13 14  1  0
 14 15  1  0
 14 22  1  0
 14 23  1  0
 15 24  1  0
 15 25  1  0
 15 26  1  0
M  RAD  2   3   2  11   2
M  END
>  <reaction>  (6) 
rmg_rxn_209

>  <mol_properties>  (6) 
{"1": {"label": "*0", "atom_type": "Cs"}, "2": {"label": "*1", "atom_type": "N3s"}, "8": {"label": "*2", "atom_type": "H0"}, "10": {"label": "*3", "atom_type": "Cs"}, "11": {"label": "*4", "atom_type": "Cs"}}

>  <type>  (6) 
unop_2

>  <geom_source>  (6) 
Heuristics

$$$$

     RDKit          3D

 26 24  0  0  0  0  0  0  0  0999 V2000
    1.0176   -1.6704   -3.0542 C   0  0  0  0  0  0  0  0  0  0  0  0
    1.0176   -1.6704   -1.5362 C   0  0  0  0  0  0  0  0  0  0  0  0
    1.0176   -0.3429   -0.9964 N   0  0  0  0  0  2  0  0  0  0  0  0
    1.8998   -1.1540   -3.4342 H   0  0  0  0  0  0  0  0  0  0  0  0
    1.0176   -2.6893   -3.4453 H   0  0  0  0  0  0  0  0  0  0  0  0
    0.1354   -1.1540   -3.4342 H   0  0  0  0  0  0  0  0  0  0  0  0
    1.8899   -2.2241   -1.1523 H   0  0  0  0  0  0  0  0  0  0  0  0
    0.1454   -2.2241   -1.1523 H   0  0  0  0  0  0  0  0  0  0  0  0
    1.0176   -0.4464    0.2268 H   0  0  0  0  0  0  0  0  0  0  0  0
    1.7328    0.6331    2.1592 C   0  0  0  0  0  0  0  0  0  0  0  0
    1.0176   -0.5570    1.5338 C   0  0  0  0  0  3  0  0  0  0  0  0
   -0.4807   -0.3612    1.4243 C   0  0  0  0  0  0  0  0  0  0  0  0
   -0.7476    0.7200    0.5672 O   0  0  0  0  0  0  0  0  0  0  0  0
   -2.1181    0.9984    0.4334 C   0  0  0  0  0  0  0  0  0  0  0  0
   -2.2915    2.1717   -0.5031 C   0  0  0  0  0  0  0  0  0  0  0  0
    1.3607    0.8247    3.1688 H   0  0  0  0  0  0  0  0  0  0  0  0
    2.8070    0.4547    2.2267 H   0  0  0  0  0  0  0  0  0  0  0  0
    1.5734    1.5342    1.5670 H   0  0  0  0  0  0  0  0  0  0  0  0
    1.1964   -1.4579    2.1273 H   0  0  0  0  0  0  0  0  0  0  0  0
   -0.9099   -0.1652    2.4197 H   0  0  0  0  0  0  0  0  0  0  0  0
   -0.9571   -1.2737    1.0367 H   0  0  0  0  0  0  0  0  0  0  0  0
   -2.5522    1.2252    1.4183 H   0  0  0  0  0  0  0  0  0  0  0  0
   -2.6443    0.1144    0.0437 H   0  0  0  0  0  0  0  0  0  0  0  0
   -1.8737    1.9426   -1.4840 H   0  0  0  0  0  0  0  0  0  0  0  0
   -3.3503    2.4064   -0.6231 H   0  0  0  0  0  0  0  0  0  0  0  0
   -1.7833    3.0528   -0.1099 H   0  0  0  0  0  0  0  0  0  0  0  0
  1  2  1  0
  1  4  1  0
  1  5  1  0
  1  6  1  0
  2  3  1  0
  2  7  1  0
  2  8  1  0
  3  9  1  0
 10 11  1  0
 10 16  1  0
 10 17  1  0
 10 18  1  0
 11 12  1  0
 11 19  1  0
 12 13  1  0
 12 20  1  0
 12 21  1  0
 13 14  1  0
 14 15  1  0
 14 22  1  0
 14 23  1  0
 15 24  1  0
 15 25  1  0
 15 26  1  0
M  RAD  2   3   2  11   2
M  END
>  <reaction>  (7) 
rmg_rxn_209

>  <mol_properties>  (7) 
{"1": {"label": "*0", "atom_type": "Cs"}, "2": {"label": "*1", "atom_type": "N3s"}, "8": {"label": "*2", "atom_type": "H0"}, "10": {"label": "*3", "atom_type": "Cs"}, "11": {"label": "*4", "atom_type": "Cs"}}

>  <type>  (7) 
unop_3

>  <geom_source>  (7) 
Heuristics

$$$$

     RDKit          3D

 26 24  0  0  0  0  0  0  0  0999 V2000
   -0.7958   -0.0665   -4.1691 C   0  0  0  0  0  0  0  0  0  0  0  0
   -0.7958   -0.0665   -2.6512 C   0  0  0  0  0  0  0  0  0  0  0  0
   -0.7958    1.2611   -2.1114 N   0  0  0  0  0  2  0  0  0  0  0  0
    0.0864    0.4500   -4.5492 H   0  0  0  0  0  0  0  0  0  0  0  0
   -0.7958   -1.0854   -4.5602 H   0  0  0  0  0  0  0  0  0  0  0  0
   -1.6781    0.4500   -4.5492 H   0  0  0  0  0  0  0  0  0  0  0  0
    0.0764   -0.6202   -2.2672 H   0  0  0  0  0  0  0  0  0  0  0  0
   -1.6681   -0.6202   -2.2672 H   0  0  0  0  0  0  0  0  0  0  0  0
   -0.7958    1.1576   -0.8882 H   0  0  0  0  0  0  0  0  0  0  0  0
   -2.0345    0.2902    0.8795 C   0  0  0  0  0  0  0  0  0  0  0  0
   -0.7958    1.0469    0.4188 C   0  0  0  0  0  3  0  0  0  0  0  0
    0.3717    0.9165    1.3754 C   0  0  0  0  0  0  0  0  0  0  0  0
    0.7683   -0.4299    1.4453 O   0  0  0  0  0  0  0  0  0  0  0  0
    1.8280   -0.6517    2.3406 C   0  0  0  0  0  0  0  0  0  0  0  0
    2.1721   -2.1231    2.3390 C   0  0  0  0  0  0  0  0  0  0  0  0
   -2.3752    0.6555    1.8515 H   0  0  0  0  0  0  0  0  0  0  0  0
   -2.8548    0.4110    0.1704 H   0  0  0  0  0  0  0  0  0  0  0  0
   -1.8224   -0.7744    0.9773 H   0  0  0  0  0  0  0  0  0  0  0  0
   -1.0238    2.1109    0.3096 H   0  0  0  0  0  0  0  0  0  0  0  0
    0.0822    1.2744    2.3761 H   0  0  0  0  0  0  0  0  0  0  0  0
    1.2134    1.5384    1.0367 H   0  0  0  0  0  0  0  0  0  0  0  0
    1.5397   -0.3253    3.3507 H   0  0  0  0  0  0  0  0  0  0  0  0
    2.7015   -0.0523    2.0439 H   0  0  0  0  0  0  0  0  0  0  0  0
    2.4713   -2.4446    1.3408 H   0  0  0  0  0  0  0  0  0  0  0  0
    2.9948   -2.3198    3.0282 H   0  0  0  0  0  0  0  0  0  0  0  0
    1.3113   -2.7172    2.6481 H   0  0  0  0  0  0  0  0  0  0  0  0
  1  2  1  0
  1  4  1  0
  1  5  1  0
  1  6  1  0
  2  3  1  0
  2  7  1  0
  2  8  1  0
  3  9  1  0
 10 11  1  0
 10 16  1  0
 10 17  1  0
 10 18  1  0
 11 12  1  0
 11 19  1  0
 12 13  1  0
 12 20  1  0
 12 21  1  0
 13 14  1  0
 14 15  1  0
 14 22  1  0
 14 23  1  0
 15 24  1  0
 15 25  1  0
 15 26  1  0
M  RAD  2   3   2  11   2
M  END
>  <reaction>  (8) 
rmg_rxn_209

>  <mol_properties>  (8) 
{"1": {"label": "*0", "atom_type": "Cs"}, "2": {"label": "*1", "atom_type": "N3s"}, "8": {"label": "*2", "atom_type": "H0"}, "10": {"label": "*3", "atom_type": "Cs"}, "11": {"label": "*4", "atom_type": "Cs"}}

>  <type>  (8) 
unop_4

>  <geom_source>  (8) 
Heuristics

$$$$

     RDKit          3D

 26 24  0  0  0  0  0  0  0  0999 V2000
    1.3363   -0.7891   -3.5924 C   0  0  0  0  0  0  0  0  0  0  0  0
    1.3363   -0.7891   -2.0744 C   0  0  0  0  0  0  0  0  0  0  0  0
    1.3363    0.5384   -1.5347 N   0  0  0  0  0  2  0  0  0  0  0  0
    2.2186   -0.2727   -3.9725 H   0  0  0  0  0  0  0  0  0  0  0  0
    1.3363   -1.8080   -3.9835 H   0  0  0  0  0  0  0  0  0  0  0  0
    0.4541   -0.2727   -3.9725 H   0  0  0  0  0  0  0  0  0  0  0  0
    2.2086   -1.3428   -1.6905 H   0  0  0  0  0  0  0  0  0  0  0  0
    0.4641   -1.3428   -1.6905 H   0  0  0  0  0  0  0  0  0  0  0  0
    1.3363    0.4349   -0.3115 H   0  0  0  0  0  0  0  0  0  0  0  0
    1.3363    1.7054    1.6372 C   0  0  0  0  0  0  0  0  0  0  0  0
    1.3363    0.3243    0.9955 C   0  0  0  0  0  3  0  0  0  0  0  0
    0.1499   -0.5234    1.4067 C   0  0  0  0  0  0  0  0  0  0  0  0
   -1.0353    0.0880    0.9631 O   0  0  0  0  0  0  0  0  0  0  0  0
   -2.1949   -0.6137    1.3323 C   0  0  0  0  0  0  0  0  0  0  0  0
   -3.4040    0.1264    0.8091 C   0  0  0  0  0  0  0  0  0  0  0  0
    1.3605    1.6287    2.7271 H   0  0  0  0  0  0  0  0  0  0  0  0
    2.2061    2.2843    1.3231 H   0  0  0  0  0  0  0  0  0  0  0  0
    0.4397    2.2598    1.3602 H   0  0  0  0  0  0  0  0  0  0  0  0
    2.2467   -0.2171    1.2677 H   0  0  0  0  0  0  0  0  0  0  0  0
    0.1267   -0.6350    2.5023 H   0  0  0  0  0  0  0  0  0  0  0  0
    0.2350   -1.5323    0.9770 H   0  0  0  0  0  0  0  0  0  0  0  0
   -2.2445   -0.7058    2.4273 H   0  0  0  0  0  0  0  0  0  0  0  0
   -2.1621   -1.6344    0.9230 H   0  0  0  0  0  0  0  0  0  0  0  0
   -3.3626    0.2060   -0.2777 H   0  0  0  0  0  0  0  0  0  0  0  0
   -4.3186   -0.4015    1.0838 H   0  0  0  0  0  0  0  0  0  0  0  0
   -3.4460    1.1331    1.2265 H   0  0  0  0  0  0  0  0  0  0  0  0
  1  2  1  0
  1  4  1  0
  1  5  1  0
  1  6  1  0
  2  3  1  0
  2  7  1  0
  2  8  1  0
  3  9  1  0
 10 11  1  0
 10 16  1  0
 10 17  1  0
 10 18  1  0
 11 12  1  0
 11 19  1  0
 12 13  1  0
 12 20  1  0
 12 21  1  0
 13 14  1  0
 14 15  1  0
 14 22  1  0
 14 23  1  0
 15 24  1  0
 15 25  1  0
 15 26  1  0
M  RAD  2   3   2  11   2
M  END
>  <reaction>  (9) 
rmg_rxn_209

>  <mol_properties>  (9) 
{"1": {"label": "*0", "atom_type": "Cs"}, "2": {"label": "*1", "atom_type": "N3s"}, "8": {"label": "*2", "atom_type": "H0"}, "10": {"label": "*3", "atom_type": "Cs"}, "11": {"label": "*4", "atom_type": "Cs"}}

>  <type>  (9) 
unop_5

>  <geom_source>  (9) 
Heuristics

$$$$

     RDKit          3D

 26 24  0  0  0  0  0  0  0  0999 V2000
   -0.3571    0.1228   -4.2738 C   0  0  0  0  0  0  0  0  0  0  0  0
   -0.3571    0.1228   -2.7558 C   0  0  0  0  0  0  0  0  0  0  0  0
   -0.3571    1.4504   -2.2160 N   0  0  0  0  0  2  0  0  0  0  0  0
    0.5252    0.6393   -4.6538 H   0  0  0  0  0  0  0  0  0  0  0  0
   -0.3571   -0.8961   -4.6648 H   0  0  0  0  0  0  0  0  0  0  0  0
   -1.2393    0.6393   -4.6538 H   0  0  0  0  0  0  0  0  0  0  0  0
    0.5152   -0.4309   -2.3719 H   0  0  0  0  0  0  0  0  0  0  0  0
   -1.2293   -0.4309   -2.3719 H   0  0  0  0  0  0  0  0  0  0  0  0
   -0.3571    1.3469   -0.9928 H   0  0  0  0  0  0  0  0  0  0  0  0
   -1.7874    1.1921    0.8352 C   0  0  0  0  0  0  0  0  0  0  0  0
   -0.3571    1.2362    0.3142 C   0  0  0  0  0  3  0  0  0  0  0  0
    0.6536    0.6899    1.3018 C   0  0  0  0  0  0  0  0  0  0  0  0
    0.3889   -0.6706    1.5344 O   0  0  0  0  0  0  0  0  0  0  0  0
    1.2595   -1.2546    2.4695 C   0  0  0  0  0  0  0  0  0  0  0  0
    0.8881   -2.7089    2.6446 C   0  0  0  0  0  0  0  0  0  0  0  0
   -1.8865    1.7790    1.7518 H   0  0  0  0  0  0  0  0  0  0  0  0
   -2.4853    1.5976    0.1012 H   0  0  0  0  0  0  0  0  0  0  0  0
   -2.0852    0.1679    1.0594 H   0  0  0  0  0  0  0  0  0  0  0  0
   -0.0740    2.2659    0.0785 H   0  0  0  0  0  0  0  0  0  0  0  0
    0.5975    1.2498    2.2487 H   0  0  0  0  0  0  0  0  0  0  0  0
    1.6740    0.8118    0.9098 H   0  0  0  0  0  0  0  0  0  0  0  0
    1.1904   -0.7218    3.4295 H   0  0  0  0  0  0  0  0  0  0  0  0
    2.2994   -1.1625    2.1225 H   0  0  0  0  0  0  0  0  0  0  0  0
    0.9697   -3.2409    1.6962 H   0  0  0  0  0  0  0  0  0  0  0  0
    1.5527   -3.1844    3.3676 H   0  0  0  0  0  0  0  0  0  0  0  0
   -0.1376   -2.8008    3.0036 H   0  0  0  0  0  0  0  0  0  0  0  0
  1  2  1  0
  1  4  1  0
  1  5  1  0
  1  6  1  0
  2  3  1  0
  2  7  1  0
  2  8  1  0
  3  9  1  0
 10 11  1  0
 10 16  1  0
 10 17  1  0
 10 18  1  0
 11 12  1  0
 11 19  1  0
 12 13  1  0
 12 20  1  0
 12 21  1  0
 13 14  1  0
 14 15  1  0
 14 22  1  0
 14 23  1  0
 15 24  1  0
 15 25  1  0
 15 26  1  0
M  RAD  2   3   2  11   2
M  END
>  <reaction>  (10) 
rmg_rxn_209

>  <mol_properties>  (10) 
{"1": {"label": "*0", "atom_type": "Cs"}, "2": {"label": "*1", "atom_type": "N3s"}, "8": {"label": "*2", "atom_type": "H0"}, "10": {"label": "*3", "atom_type": "Cs"}, "11": {"label": "*4", "atom_type": "Cs"}}

>  <type>  (10) 
unop_6

>  <geom_source>  (10) 
Heuristics

$$$$

     RDKit          3D

 26 24  0  0  0  0  0  0  0  0999 V2000
    0.1545    0.1745   -4.2721 C   0  0  0  0  0  0  0  0  0  0  0  0
    0.1545    0.1745   -2.7541 C   0  0  0  0  0  0  0  0  0  0  0  0
    0.1545    1.5020   -2.2143 N   0  0  0  0  0  2  0  0  0  0  0  0
    1.0367    0.6909   -4.6521 H   0  0  0  0  0  0  0  0  0  0  0  0
    0.1545   -0.8444   -4.6632 H   0  0  0  0  0  0  0  0  0  0  0  0
   -0.7278    0.6909   -4.6521 H   0  0  0  0  0  0  0  0  0  0  0  0
    1.0267   -0.3792   -2.3702 H   0  0  0  0  0  0  0  0  0  0  0  0
   -0.7178   -0.3792   -2.3702 H   0  0  0  0  0  0  0  0  0  0  0  0
    0.1545    1.3985   -0.9911 H   0  0  0  0  0  0  0  0  0  0  0  0
   -1.0842    1.9564    0.8972 C   0  0  0  0  0  0  0  0  0  0  0  0
    0.1545    1.2879    0.3159 C   0  0  0  0  0  3  0  0  0  0  0  0
    0.8015    0.3026    1.2676 C   0  0  0  0  0  0  0  0  0  0  0  0
   -0.0941   -0.7480    1.5303 O   0  0  0  0  0  0  0  0  0  0  0  0
    0.4107   -1.6958    2.4361 C   0  0  0  0  0  0  0  0  0  0  0  0
   -0.6266   -2.7742    2.6471 C   0  0  0  0  0  0  0  0  0  0  0  0
   -0.8384    2.5068    1.8088 H   0  0  0  0  0  0  0  0  0  0  0  0
   -1.5194    2.6616    0.1876 H   0  0  0  0  0  0  0  0  0  0  0  0
   -1.8418    1.2140    1.1482 H   0  0  0  0  0  0  0  0  0  0  0  0
    0.9014    2.0424    0.0540 H   0  0  0  0  0  0  0  0  0  0  0  0
    1.0726    0.8080    2.2081 H   0  0  0  0  0  0  0  0  0  0  0  0
    1.7294   -0.0957    0.8314 H   0  0  0  0  0  0  0  0  0  0  0  0
    0.6574   -1.2076    3.3905 H   0  0  0  0  0  0  0  0  0  0  0  0
    1.3425   -2.1300    2.0444 H   0  0  0  0  0  0  0  0  0  0  0  0
   -0.8617   -3.2681    1.7037 H   0  0  0  0  0  0  0  0  0  0  0  0
   -0.2557   -3.5236    3.3481 H   0  0  0  0  0  0  0  0  0  0  0  0
   -1.5455   -2.3470    3.0502 H   0  0  0  0  0  0  0  0  0  0  0  0
  1  2  1  0
  1  4  1  0
  1  5  1  0
  1  6  1  0
  2  3  1  0
  2  7  1  0
  2  8  1  0
  3  9  1  0
 10 11  1  0
 10 16  1  0
 10 17  1  0
 10 18  1  0
 11 12  1  0
 11 19  1  0
 12 13  1  0
 12 20  1  0
 12 21  1  0
 13 14  1  0
 14 15  1  0
 14 22  1  0
 14 23  1  0
 15 24  1  0
 15 25  1  0
 15 26  1  0
M  RAD  2   3   2  11   2
M  END
>  <reaction>  (11) 
rmg_rxn_209

>  <mol_properties>  (11) 
{"1": {"label": "*0", "atom_type": "Cs"}, "2": {"label": "*1", "atom_type": "N3s"}, "8": {"label": "*2", "atom_type": "H0"}, "10": {"label": "*3", "atom_type": "Cs"}, "11": {"label": "*4", "atom_type": "Cs"}}

>  <type>  (11) 
unop_7

>  <geom_source>  (11) 
Heuristics

$$$$

     RDKit          3D

 26 24  0  0  0  0  0  0  0  0999 V2000
   -0.2212   -2.0783   -2.8724 C   0  0  0  0  0  0  0  0  0  0  0  0
   -0.2212   -2.0783   -1.3544 C   0  0  0  0  0  0  0  0  0  0  0  0
   -0.2212   -0.7507   -0.8147 N   0  0  0  0  0  2  0  0  0  0  0  0
    0.6610   -1.5618   -3.2525 H   0  0  0  0  0  0  0  0  0  0  0  0
   -0.2212   -3.0972   -3.2635 H   0  0  0  0  0  0  0  0  0  0  0  0
   -1.1035   -1.5618   -3.2525 H   0  0  0  0  0  0  0  0  0  0  0  0
    0.6510   -2.6320   -0.9705 H   0  0  0  0  0  0  0  0  0  0  0  0
   -1.0935   -2.6320   -0.9705 H   0  0  0  0  0  0  0  0  0  0  0  0
   -0.2212   -0.8543    0.4085 H   0  0  0  0  0  0  0  0  0  0  0  0
    1.2091   -1.0090    2.2365 C   0  0  0  0  0  0  0  0  0  0  0  0
   -0.2212   -0.9649    1.7155 C   0  0  0  0  0  3  0  0  0  0  0  0
   -0.7184    0.4430    1.4589 C   0  0  0  0  0  0  0  0  0  0  0  0
    0.0591    1.0346    0.4488 O   0  0  0  0  0  0  0  0  0  0  0  0
   -0.3097    2.3607    0.1678 C   0  0  0  0  0  0  0  0  0  0  0  0
    0.5850    2.8980   -0.9251 C   0  0  0  0  0  0  0  0  0  0  0  0
    1.2977   -0.4619    3.1785 H   0  0  0  0  0  0  0  0  0  0  0  0
    1.5306   -2.0362    2.4146 H   0  0  0  0  0  0  0  0  0  0  0  0
    1.8949   -0.5563    1.5205 H   0  0  0  0  0  0  0  0  0  0  0  0
   -0.8982   -1.4347    2.4344 H   0  0  0  0  0  0  0  0  0  0  0  0
   -0.6523    1.0412    2.3815 H   0  0  0  0  0  0  0  0  0  0  0  0
   -1.7757    0.4248    1.1562 H   0  0  0  0  0  0  0  0  0  0  0  0
   -0.2191    2.9752    1.0757 H   0  0  0  0  0  0  0  0  0  0  0  0
   -1.3638    2.3988   -0.1448 H   0  0  0  0  0  0  0  0  0  0  0  0
    0.4855    2.2977   -1.8301 H   0  0  0  0  0  0  0  0  0  0  0  0
    0.3162    3.9289   -1.1611 H   0  0  0  0  0  0  0  0  0  0  0  0
    1.6289    2.8753   -0.6101 H   0  0  0  0  0  0  0  0  0  0  0  0
  1  2  1  0
  1  4  1  0
  1  5  1  0
  1  6  1  0
  2  3  1  0
  2  7  1  0
  2  8  1  0
  3  9  1  0
 10 11  1  0
 10 16  1  0
 10 17  1  0
 10 18  1  0
 11 12  1  0
 11 19  1  0
 12 13  1  0
 12 20  1  0
 12 21  1  0
 13 14  1  0
 14 15  1  0
 14 22  1  0
 14 23  1  0
 15 24  1  0
 15 25  1  0
 15 26  1  0
M  RAD  2   3   2  11   2
M  END
>  <reaction>  (12) 
rmg_rxn_209

>  <mol_properties>  (12) 
{"1": {"label": "*0", "atom_type": "Cs"}, "2": {"label": "*1", "atom_type": "N3s"}, "8": {"label": "*2", "atom_type": "H0"}, "10": {"label": "*3", "atom_type": "Cs"}, "11": {"label": "*4", "atom_type": "Cs"}}

>  <type>  (12) 
unop_8

>  <geom_source>  (12) 
Heuristics

$$$$

     RDKit          3D

 26 24  0  0  0  0  0  0  0  0999 V2000
   -1.1652   -0.4207   -3.9449 C   0  0  0  0  0  0  0  0  0  0  0  0
   -1.1652   -0.4207   -2.4269 C   0  0  0  0  0  0  0  0  0  0  0  0
   -1.1652    0.9068   -1.8871 N   0  0  0  0  0  2  0  0  0  0  0  0
   -0.2830    0.0957   -4.3249 H   0  0  0  0  0  0  0  0  0  0  0  0
   -1.1652   -1.4396   -4.3359 H   0  0  0  0  0  0  0  0  0  0  0  0
   -2.0474    0.0957   -4.3249 H   0  0  0  0  0  0  0  0  0  0  0  0
   -0.2929   -0.9744   -2.0430 H   0  0  0  0  0  0  0  0  0  0  0  0
   -2.0374   -0.9744   -2.0430 H   0  0  0  0  0  0  0  0  0  0  0  0
   -1.1652    0.8033   -0.6639 H   0  0  0  0  0  0  0  0  0  0  0  0
   -1.8803   -0.5857    1.0596 C   0  0  0  0  0  0  0  0  0  0  0  0
   -1.1652    0.6927    0.6431 C   0  0  0  0  0  3  0  0  0  0  0  0
    0.0771    0.9744    1.4633 C   0  0  0  0  0  0  0  0  0  0  0  0
    1.0131   -0.0538    1.2589 O   0  0  0  0  0  0  0  0  0  0  0  0
    2.1886    0.1067    2.0113 C   0  0  0  0  0  0  0  0  0  0  0  0
    3.1200   -1.0468    1.7187 C   0  0  0  0  0  0  0  0  0  0  0  0
   -2.1927   -0.5343    2.1057 H   0  0  0  0  0  0  0  0  0  0  0  0
   -2.7711   -0.7531    0.4523 H   0  0  0  0  0  0  0  0  0  0  0  0
   -1.2244   -1.4490    0.9479 H   0  0  0  0  0  0  0  0  0  0  0  0
   -1.8367    1.5497    0.7448 H   0  0  0  0  0  0  0  0  0  0  0  0
   -0.1821    1.0382    2.5320 H   0  0  0  0  0  0  0  0  0  0  0  0
    0.5134    1.9418    1.1743 H   0  0  0  0  0  0  0  0  0  0  0  0
    1.9452    0.1420    3.0835 H   0  0  0  0  0  0  0  0  0  0  0  0
    2.6692    1.0630    1.7569 H   0  0  0  0  0  0  0  0  0  0  0  0
    3.3727   -1.0743    0.6582 H   0  0  0  0  0  0  0  0  0  0  0  0
    4.0421   -0.9431    2.2928 H   0  0  0  0  0  0  0  0  0  0  0  0
    2.6503   -1.9943    1.9851 H   0  0  0  0  0  0  0  0  0  0  0  0
  1  2  1  0
  1  4  1  0
  1  5  1  0
  1  6  1  0
  2  3  1  0
  2  7  1  0
  2  8  1  0
  3  9  1  0
 10 11  1  0
 10 16  1  0
 10 17  1  0
 10 18  1  0
 11 12  1  0
 11 19  1  0
 12 13  1  0
 12 20  1  0
 12 21  1  0
 13 14  1  0
 14 15  1  0
 14 22  1  0
 14 23  1  0
 15 24  1  0
 15 25  1  0
 15 26  1  0
M  RAD  2   3   2  11   2
M  END
>  <reaction>  (13) 
rmg_rxn_209

>  <mol_properties>  (13) 
{"1": {"label": "*0", "atom_type": "Cs"}, "2": {"label": "*1", "atom_type": "N3s"}, "8": {"label": "*2", "atom_type": "H0"}, "10": {"label": "*3", "atom_type": "Cs"}, "11": {"label": "*4", "atom_type": "Cs"}}

>  <type>  (13) 
unop_9

>  <geom_source>  (13) 
Heuristics

$$$$

     RDKit          3D

 26 24  0  0  0  0  0  0  0  0999 V2000
   -0.7587   -1.9004   -3.0016 C   0  0  0  0  0  0  0  0  0  0  0  0
   -0.7587   -1.9004   -1.4836 C   0  0  0  0  0  0  0  0  0  0  0  0
   -0.7587   -0.5728   -0.9438 N   0  0  0  0  0  2  0  0  0  0  0  0
    0.1235   -1.3839   -3.3816 H   0  0  0  0  0  0  0  0  0  0  0  0
   -0.7587   -2.9193   -3.3926 H   0  0  0  0  0  0  0  0  0  0  0  0
   -1.6409   -1.3839   -3.3816 H   0  0  0  0  0  0  0  0  0  0  0  0
    0.1135   -2.4541   -1.0997 H   0  0  0  0  0  0  0  0  0  0  0  0
   -1.6309   -2.4541   -1.0997 H   0  0  0  0  0  0  0  0  0  0  0  0
   -0.7587   -0.6764    0.2794 H   0  0  0  0  0  0  0  0  0  0  0  0
    0.4800   -1.5437    2.0471 C   0  0  0  0  0  0  0  0  0  0  0  0
   -0.7587   -0.7870    1.5864 C   0  0  0  0  0  3  0  0  0  0  0  0
   -0.5460    0.7109    1.5063 C   0  0  0  0  0  0  0  0  0  0  0  0
    0.4360    0.9909    0.5408 O   0  0  0  0  0  0  0  0  0  0  0  0
    0.7254    2.3605    0.4228 C   0  0  0  0  0  0  0  0  0  0  0  0
    1.7879    2.5484   -0.6352 C   0  0  0  0  0  0  0  0  0  0  0  0
    0.7926   -1.2116    3.0402 H   0  0  0  0  0  0  0  0  0  0  0  0
    0.2885   -2.6165    2.0979 H   0  0  0  0  0  0  0  0  0  0  0  0
    1.3110   -1.3778    1.3615 H   0  0  0  0  0  0  0  0  0  0  0  0
   -1.5897   -0.9723    2.2726 H   0  0  0  0  0  0  0  0  0  0  0  0
   -0.2295    1.1006    2.4868 H   0  0  0  0  0  0  0  0  0  0  0  0
   -1.4867    1.2159    1.2420 H   0  0  0  0  0  0  0  0  0  0  0  0
    1.0714    2.7550    1.3896 H   0  0  0  0  0  0  0  0  0  0  0  0
   -0.1863    2.9148    0.1548 H   0  0  0  0  0  0  0  0  0  0  0  0
    1.4404    2.1701   -1.5971 H   0  0  0  0  0  0  0  0  0  0  0  0
    2.0290    3.6069   -0.7450 H   0  0  0  0  0  0  0  0  0  0  0  0
    2.6975    2.0120   -0.3627 H   0  0  0  0  0  0  0  0  0  0  0  0
  1  2  1  0
  1  4  1  0
  1  5  1  0
  1  6  1  0
  2  3  1  0
  2  7  1  0
  2  8  1  0
  3  9  1  0
 10 11  1  0
 10 16  1  0
 10 17  1  0
 10 18  1  0
 11 12  1  0
 11 19  1  0
 12 13  1  0
 12 20  1  0
 12 21  1  0
 13 14  1  0
 14 15  1  0
 14 22  1  0
 14 23  1  0
 15 24  1  0
 15 25  1  0
 15 26  1  0
M  RAD  2   3   2  11   2
M  END
>  <reaction>  (14) 
rmg_rxn_209

>  <mol_properties>  (14) 
{"1": {"label": "*0", "atom_type": "Cs"}, "2": {"label": "*1", "atom_type": "N3s"}, "8": {"label": "*2", "atom_type": "H0"}, "10": {"label": "*3", "atom_type": "Cs"}, "11": {"label": "*4", "atom_type": "Cs"}}

>  <type>  (14) 
unop_10

>  <geom_source>  (14) 
Heuristics

$$$$

     RDKit          3D

 26 24  0  0  0  0  0  0  0  0999 V2000
    0.8068   -0.0229   -4.1031 C   0  0  0  0  0  0  0  0  0  0  0  0
    0.8068   -0.0229   -2.5851 C   0  0  0  0  0  0  0  0  0  0  0  0
    0.8068    1.3046   -2.0453 N   0  0  0  0  0  2  0  0  0  0  0  0
    1.6891    0.4935   -4.4831 H   0  0  0  0  0  0  0  0  0  0  0  0
    0.8068   -1.0418   -4.4942 H   0  0  0  0  0  0  0  0  0  0  0  0
   -0.0754    0.4935   -4.4831 H   0  0  0  0  0  0  0  0  0  0  0  0
    1.6791   -0.5767   -2.2012 H   0  0  0  0  0  0  0  0  0  0  0  0
   -0.0654   -0.5767   -2.2012 H   0  0  0  0  0  0  0  0  0  0  0  0
    0.8068    1.2011   -0.8221 H   0  0  0  0  0  0  0  0  0  0  0  0
    0.0917    2.2806    1.1103 C   0  0  0  0  0  0  0  0  0  0  0  0
    0.8068    1.0904    0.4849 C   0  0  0  0  0  3  0  0  0  0  0  0
    0.6853   -0.1765    1.3067 C   0  0  0  0  0  0  0  0  0  0  0  0
   -0.6658   -0.5563    1.3797 O   0  0  0  0  0  0  0  0  0  0  0  0
   -0.8786   -1.7076    2.1562 C   0  0  0  0  0  0  0  0  0  0  0  0
   -2.3560   -2.0250    2.1688 C   0  0  0  0  0  0  0  0  0  0  0  0
    0.4967    2.5020    2.1010 H   0  0  0  0  0  0  0  0  0  0  0  0
    0.2050    3.1745    0.4951 H   0  0  0  0  0  0  0  0  0  0  0  0
   -0.9731    2.0762    1.2219 H   0  0  0  0  0  0  0  0  0  0  0  0
    1.8709    1.3119    0.3639 H   0  0  0  0  0  0  0  0  0  0  0  0
    1.0829   -0.0091    2.3203 H   0  0  0  0  0  0  0  0  0  0  0  0
    1.2779   -0.9840    0.8523 H   0  0  0  0  0  0  0  0  0  0  0  0
   -0.5122   -1.5419    3.1801 H   0  0  0  0  0  0  0  0  0  0  0  0
   -0.3076   -2.5512    1.7407 H   0  0  0  0  0  0  0  0  0  0  0  0
   -2.7172   -2.2030    1.1553 H   0  0  0  0  0  0  0  0  0  0  0  0
   -2.5458   -2.9178    2.7667 H   0  0  0  0  0  0  0  0  0  0  0  0
   -2.9214   -1.1956    2.5949 H   0  0  0  0  0  0  0  0  0  0  0  0
  1  2  1  0
  1  4  1  0
  1  5  1  0
  1  6  1  0
  2  3  1  0
  2  7  1  0
  2  8  1  0
  3  9  1  0
 10 11  1  0
 10 16  1  0
 10 17  1  0
 10 18  1  0
 11 12  1  0
 11 19  1  0
 12 13  1  0
 12 20  1  0
 12 21  1  0
 13 14  1  0
 14 15  1  0
 14 22  1  0
 14 23  1  0
 15 24  1  0
 15 25  1  0
 15 26  1  0
M  RAD  2   3   2  11   2
M  END
>  <reaction>  (15) 
rmg_rxn_209

>  <mol_properties>  (15) 
{"1": {"label": "*0", "atom_type": "Cs"}, "2": {"label": "*1", "atom_type": "N3s"}, "8": {"label": "*2", "atom_type": "H0"}, "10": {"label": "*3", "atom_type": "Cs"}, "11": {"label": "*4", "atom_type": "Cs"}}

>  <type>  (15) 
unop_11

>  <geom_source>  (15) 
Heuristics

$$$$

     RDKit          3D

 26 24  0  0  0  0  0  0  0  0999 V2000
   -1.3363   -0.9501   -3.6060 C   0  0  0  0  0  0  0  0  0  0  0  0
   -1.3363   -0.9501   -2.0881 C   0  0  0  0  0  0  0  0  0  0  0  0
   -1.3363    0.3775   -1.5483 N   0  0  0  0  0  2  0  0  0  0  0  0
   -0.4541   -0.4336   -3.9861 H   0  0  0  0  0  0  0  0  0  0  0  0
   -1.3363   -1.9690   -3.9971 H   0  0  0  0  0  0  0  0  0  0  0  0
   -2.2186   -0.4336   -3.9861 H   0  0  0  0  0  0  0  0  0  0  0  0
   -0.4641   -1.5038   -1.7041 H   0  0  0  0  0  0  0  0  0  0  0  0
   -2.2086   -1.5038   -1.7041 H   0  0  0  0  0  0  0  0  0  0  0  0
   -1.3363    0.2739   -0.3251 H   0  0  0  0  0  0  0  0  0  0  0  0
   -1.3363   -1.3060    1.3823 C   0  0  0  0  0  0  0  0  0  0  0  0
   -1.3363    0.1633    0.9819 C   0  0  0  0  0  3  0  0  0  0  0  0
   -0.1498    0.9298    1.5297 C   0  0  0  0  0  0  0  0  0  0  0  0
    1.0353    0.4017    0.9897 O   0  0  0  0  0  0  0  0  0  0  0  0
    2.1949    1.0314    1.4715 C   0  0  0  0  0  0  0  0  0  0  0  0
    3.4040    0.3897    0.8314 C   0  0  0  0  0  0  0  0  0  0  0  0
   -1.3605   -1.4136    2.4696 H   0  0  0  0  0  0  0  0  0  0  0  0
   -2.2061   -1.8239    0.9754 H   0  0  0  0  0  0  0  0  0  0  0  0
   -0.4397   -1.8059    1.0161 H   0  0  0  0  0  0  0  0  0  0  0  0
   -2.2467    0.6512    1.3412 H   0  0  0  0  0  0  0  0  0  0  0  0
   -0.1267    0.8557    2.6285 H   0  0  0  0  0  0  0  0  0  0  0  0
   -0.2350    1.9966    1.2757 H   0  0  0  0  0  0  0  0  0  0  0  0
    2.2445    0.9381    2.5665 H   0  0  0  0  0  0  0  0  0  0  0  0
    2.1621    2.1063    1.2396 H   0  0  0  0  0  0  0  0  0  0  0  0
    3.3626    0.4939   -0.2534 H   0  0  0  0  0  0  0  0  0  0  0  0
    4.3186    0.8639    1.1909 H   0  0  0  0  0  0  0  0  0  0  0  0
    3.4460   -0.6728    1.0737 H   0  0  0  0  0  0  0  0  0  0  0  0
  1  2  1  0
  1  4  1  0
  1  5  1  0
  1  6  1  0
  2  3  1  0
  2  7  1  0
  2  8  1  0
  3  9  1  0
 10 11  1  0
 10 16  1  0
 10 17  1  0
 10 18  1  0
 11 12  1  0
 11 19  1  0
 12 13  1  0
 12 20  1  0
 12 21  1  0
 13 14  1  0
 14 15  1  0
 14 22  1  0
 14 23  1  0
 15 24  1  0
 15 25  1  0
 15 26  1  0
M  RAD  2   3   2  11   2
M  END
>  <reaction>  (16) 
rmg_rxn_209

>  <mol_properties>  (16) 
{"1": {"label": "*0", "atom_type": "Cs"}, "2": {"label": "*1", "atom_type": "N3s"}, "8": {"label": "*2", "atom_type": "H0"}, "10": {"label": "*3", "atom_type": "Cs"}, "11": {"label": "*4", "atom_type": "Cs"}}

>  <type>  (16) 
unop_12

>  <geom_source>  (16) 
Heuristics

$$$$

     RDKit          3D

 26 24  0  0  0  0  0  0  0  0999 V2000
   -1.1774   -1.5061   -3.2539 C   0  0  0  0  0  0  0  0  0  0  0  0
   -1.1774   -1.5061   -1.7359 C   0  0  0  0  0  0  0  0  0  0  0  0
   -1.1774   -0.1785   -1.1961 N   0  0  0  0  0  2  0  0  0  0  0  0
   -0.2952   -0.9896   -3.6339 H   0  0  0  0  0  0  0  0  0  0  0  0
   -1.1774   -2.5250   -3.6449 H   0  0  0  0  0  0  0  0  0  0  0  0
   -2.0596   -0.9896   -3.6339 H   0  0  0  0  0  0  0  0  0  0  0  0
   -0.3052   -2.0598   -1.3519 H   0  0  0  0  0  0  0  0  0  0  0  0
   -2.0496   -2.0598   -1.3519 H   0  0  0  0  0  0  0  0  0  0  0  0
   -1.1774   -0.2821    0.0271 H   0  0  0  0  0  0  0  0  0  0  0  0
   -0.4622   -1.6711    1.7506 C   0  0  0  0  0  0  0  0  0  0  0  0
   -1.1774   -0.3927    1.3341 C   0  0  0  0  0  3  0  0  0  0  0  0
   -0.3398    0.8527    1.5408 C   0  0  0  0  0  0  0  0  0  0  0  0
    0.8017    0.7871    0.7236 O   0  0  0  0  0  0  0  0  0  0  0  0
    1.6591    1.8894    0.8763 C   0  0  0  0  0  0  0  0  0  0  0  0
    2.8473    1.7180   -0.0415 C   0  0  0  0  0  0  0  0  0  0  0  0
   -0.1923   -1.6393    2.8091 H   0  0  0  0  0  0  0  0  0  0  0  0
   -1.0962   -2.5449    1.5931 H   0  0  0  0  0  0  0  0  0  0  0  0
    0.4536   -1.8061    1.1753 H   0  0  0  0  0  0  0  0  0  0  0  0
   -2.1017   -0.2750    1.9065 H   0  0  0  0  0  0  0  0  0  0  0  0
   -0.0399    0.9354    2.5975 H   0  0  0  0  0  0  0  0  0  0  0  0
   -0.9253    1.7510    1.2958 H   0  0  0  0  0  0  0  0  0  0  0  0
    1.9894    1.9649    1.9229 H   0  0  0  0  0  0  0  0  0  0  0  0
    1.1209    2.8190    0.6389 H   0  0  0  0  0  0  0  0  0  0  0  0
    2.5218    1.6568   -1.0805 H   0  0  0  0  0  0  0  0  0  0  0  0
    3.5284    2.5644    0.0597 H   0  0  0  0  0  0  0  0  0  0  0  0
    3.3906    0.8045    0.2032 H   0  0  0  0  0  0  0  0  0  0  0  0
  1  2  1  0
  1  4  1  0
  1  5  1  0
  1  6  1  0
  2  3  1  0
  2  7  1  0
  2  8  1  0
  3  9  1  0
 10 11  1  0
 10 16  1  0
 10 17  1  0
 10 18  1  0
 11 12  1  0
 11 19  1  0
 12 13  1  0
 12 20  1  0
 12 21  1  0
 13 14  1  0
 14 15  1  0
 14 22  1  0
 14 23  1  0
 15 24  1  0
 15 25  1  0
 15 26  1  0
M  RAD  2   3   2  11   2
M  END
>  <reaction>  (17) 
rmg_rxn_209

>  <mol_properties>  (17) 
{"1": {"label": "*0", "atom_type": "Cs"}, "2": {"label": "*1", "atom_type": "N3s"}, "8": {"label": "*2", "atom_type": "H0"}, "10": {"label": "*3", "atom_type": "Cs"}, "11": {"label": "*4", "atom_type": "Cs"}}

>  <type>  (17) 
unop_13

>  <geom_source>  (17) 
gaussian_log

$$$$
