
     RDKit          3D

 14 13  0  0  0  0  0  0  0  0999 V2000
    1.8106   -0.5953    0.5577 C   0  0  0  0  0  0  0  0  0  0  0  0
    0.5197    0.2064    0.6554 C   0  0  0  0  0  0  0  0  0  0  0  0
   -0.5206   -0.2080   -0.3788 C   0  0  0  0  0  0  0  0  0  0  0  0
   -1.8114    0.5937   -0.2812 C   0  0  0  0  0  0  0  0  0  0  0  0
    2.2725   -0.4752   -0.4251 H   0  0  0  0  0  0  0  0  0  0  0  0
    1.6214   -1.6612    0.7052 H   0  0  0  0  0  0  0  0  0  0  0  0
    2.5364   -0.2784    1.3084 H   0  0  0  0  0  0  0  0  0  0  0  0
    0.0930    0.0950    1.6574 H   0  0  0  0  0  0  0  0  0  0  0  0
    0.7393    1.2723    0.5354 H   0  0  0  0  0  0  0  0  0  0  0  0
   -0.7402   -1.2739   -0.2588 H   0  0  0  0  0  0  0  0  0  0  0  0
   -0.0938   -0.0965   -1.3808 H   0  0  0  0  0  0  0  0  0  0  0  0
   -1.6222    1.6596   -0.4287 H   0  0  0  0  0  0  0  0  0  0  0  0
   -2.2734    0.4736    0.7017 H   0  0  0  0  0  0  0  0  0  0  0  0
   -2.5373    0.2768   -1.0318 H   0  0  0  0  0  0  0  0  0  0  0  0
  1  2  1  0
  1  5  1  0
  1  6  1  0
  1  7  1  0
  2  3  1  0
  2  8  1  0
  2  9  1  0
  3  4  1  0
  3 10  1  0
  3 11  1  0
  4 12  1  0
  4 13  1  0
  4 14  1  0
M  END
>  <reaction>  (1) 
rmg_rxn_34

>  <mol_properties>  (1) 
{"3": {"label": "donator", "atom_type": "Cs"}, "12": {"label": "d_hydrogen", "atom_type": "H0"}}

>  <type>  (1) 
r1h

$$$$

     RDKit          3D

 14 13  0  0  0  0  0  0  0  0999 V2000
    2.5796   -0.5432    0.2329 C   0  0  0  0  0  3  0  0  0  0  0  0
    1.2594    0.0982    0.3029 C   0  0  0  0  0  0  0  0  0  0  0  0
   -0.0483   -1.0244    0.9576 S   0  0  0  0  0  0  0  0  0  0  0  0
   -0.0049   -2.3732   -0.2491 C   0  0  0  0  0  0  0  0  0  0  0  0
   -0.3891   -1.9781   -1.6653 C   0  0  0  0  0  0  0  0  0  0  0  0
    2.9359   -0.9798   -0.6903 H   0  0  0  0  0  0  0  0  0  0  0  0
    3.1327   -0.7454    1.1400 H   0  0  0  0  0  0  0  0  0  0  0  0
    0.9347    0.4858   -0.6621 H   0  0  0  0  0  0  0  0  0  0  0  0
    1.2442    0.9220    1.0193 H   0  0  0  0  0  0  0  0  0  0  0  0
    0.9819   -2.8380   -0.2257 H   0  0  0  0  0  0  0  0  0  0  0  0
   -0.7110   -3.1037    0.1493 H   0  0  0  0  0  0  0  0  0  0  0  0
    0.3274   -1.2737   -2.0913 H   0  0  0  0  0  0  0  0  0  0  0  0
   -0.4075   -2.8581   -2.3121 H   0  0  0  0  0  0  0  0  0  0  0  0
   -1.3749   -1.5123   -1.6865 H   0  0  0  0  0  0  0  0  0  0  0  0
  1  2  1  0
  1  6  1  0
  1  7  1  0
  2  3  1  0
  2  8  1  0
  2  9  1  0
  3  4  1  0
  4  5  1  0
  4 10  1  0
  4 11  1  0
  5 12  1  0
  5 13  1  0
  5 14  1  0
M  RAD  1   1   2
M  END
>  <reaction>  (2) 
rmg_rxn_34

>  <mol_properties>  (2) 
{"0": {"label": "acceptor", "atom_type": "Cs"}}

>  <type>  (2) 
r2

$$$$

     RDKit          3D

 15 14  0  0  0  0  0  0  0  0999 V2000
   -2.0554    0.0723   -0.4910 C   0  0  0  0  0  0  0  0  0  0  0  0
   -0.7461   -0.6266   -0.8178 C   0  0  0  0  0  0  0  0  0  0  0  0
    0.3249    0.2591   -1.9782 S   0  0  0  0  0  0  0  0  0  0  0  0
   -0.7172    0.3642   -3.4551 C   0  0  0  0  0  0  0  0  0  0  0  0
   -1.1375   -0.9737   -4.0409 C   0  0  0  0  0  0  0  0  0  0  0  0
   -2.7005    0.1427   -1.3684 H   0  0  0  0  0  0  0  0  0  0  0  0
   -2.6016   -0.4848    0.2733 H   0  0  0  0  0  0  0  0  0  0  0  0
   -1.8758    1.0825   -0.1213 H   0  0  0  0  0  0  0  0  0  0  0  0
   -0.1320   -0.7246    0.0789 H   0  0  0  0  0  0  0  0  0  0  0  0
   -0.9254   -1.6374   -1.1879 H   0  0  0  0  0  0  0  0  0  0  0  0
   -1.5873    0.9874   -3.2422 H   0  0  0  0  0  0  0  0  0  0  0  0
   -0.1021    0.9161   -4.1678 H   0  0  0  0  0  0  0  0  0  0  0  0
   -1.7876   -1.5224   -3.3574 H   0  0  0  0  0  0  0  0  0  0  0  0
   -0.2676   -1.5962   -4.2534 H   0  0  0  0  0  0  0  0  0  0  0  0
   -1.6916   -0.8229   -4.9700 H   0  0  0  0  0  0  0  0  0  0  0  0
  1  2  1  0
  1  6  1  0
  1  7  1  0
  1  8  1  0
  2  3  1  0
  2  9  1  0
  2 10  1  0
  3  4  1  0
  4  5  1  0
  4 11  1  0
  4 12  1  0
  5 13  1  0
  5 14  1  0
  5 15  1  0
M  END
>  <reaction>  (3) 
rmg_rxn_34

>  <mol_properties>  (3) 
{"0": {"label": "acceptor", "atom_type": "Cs"}, "14": {"label": "a_hydrogen", "atom_type": "H0"}}

>  <type>  (3) 
r2h

$$$$

     RDKit          3D

 28 26  0  0  0  0  0  0  0  0999 V2000
    0.0570   -0.6452    1.4500 C   0  0  0  0  0  3  0  0  0  0  0  0
   -0.9498   -0.8334    0.3497 C   0  0  0  0  0  0  0  0  0  0  0  0
   -1.6963    0.6880   -0.2996 S   0  0  0  0  0  0  0  0  0  0  0  0
   -2.3945    1.4346    1.1937 C   0  0  0  0  0  0  0  0  0  0  0  0
   -3.4269    0.5830    1.9135 C   0  0  0  0  0  0  0  0  0  0  0  0
   -0.3242   -0.1596    2.3464 H   0  0  0  0  0  0  0  0  0  0  0  0
    0.6049   -1.5536    1.6971 H   0  0  0  0  0  0  0  0  0  0  0  0
   -1.7495   -1.5135    0.6583 H   0  0  0  0  0  0  0  0  0  0  0  0
   -0.4785   -1.2872   -0.5251 H   0  0  0  0  0  0  0  0  0  0  0  0
   -1.5845    1.7196    1.8674 H   0  0  0  0  0  0  0  0  0  0  0  0
   -2.8461    2.3608    0.8344 H   0  0  0  0  0  0  0  0  0  0  0  0
   -2.9817   -0.3309    2.3106 H   0  0  0  0  0  0  0  0  0  0  0  0
   -3.8520    1.1340    2.7552 H   0  0  0  0  0  0  0  0  0  0  0  0
   -4.2368    0.3005    1.2400 H   0  0  0  0  0  0  0  0  0  0  0  0
    2.8280   -1.3530   -2.5102 C   0  0  0  0  0  0  0  0  0  0  0  0
    2.6577   -0.8873   -1.0709 C   0  0  0  0  0  0  0  0  0  0  0  0
    2.1271    0.5390   -0.9674 C   0  0  0  0  0  0  0  0  0  0  0  0
    1.9284    1.0035    0.4512 C   0  0  0  0  0  0  0  0  0  0  0  0
    3.5257   -0.7086   -3.0502 H   0  0  0  0  0  0  0  0  0  0  0  0
    1.8752   -1.3268   -3.0444 H   0  0  0  0  0  0  0  0  0  0  0  0
    3.2105   -2.3738   -2.5584 H   0  0  0  0  0  0  0  0  0  0  0  0
    1.9771   -1.5638   -0.5447 H   0  0  0  0  0  0  0  0  0  0  0  0
    3.6155   -0.9532   -0.5451 H   0  0  0  0  0  0  0  0  0  0  0  0
    1.1779    0.6192   -1.5070 H   0  0  0  0  0  0  0  0  0  0  0  0
    2.8220    1.2138   -1.4843 H   0  0  0  0  0  0  0  0  0  0  0  0
    2.7986    0.8825    1.0972 H   0  0  0  0  0  0  0  0  0  0  0  0
    1.0148    0.2025    0.9946 H   0  0  0  0  0  0  0  0  0  0  0  0
    1.4835    1.9917    0.5487 H   0  0  0  0  0  0  0  0  0  0  0  0
  1  2  1  0
  1  6  1  0
  1  7  1  0
  2  3  1  0
  2  8  1  0
  2  9  1  0
  3  4  1  0
  4  5  1  0
  4 10  1  0
  4 11  1  0
  5 12  1  0
  5 13  1  0
  5 14  1  0
 15 16  1  0
 15 19  1  0
 15 20  1  0
 15 21  1  0
 16 17  1  0
 16 22  1  0
 16 23  1  0
 17 18  1  0
 17 24  1  0
 17 25  1  0
 18 26  1  0
 18 27  1  0
 18 28  1  0
M  RAD  1   1   2
M  END
>  <reaction>  (4) 
rmg_rxn_34

>  <mol_properties>  (4) 
{"0": {"label": "*3", "atom_type": "Cs"}, "1": {"label": "*4", "atom_type": "Cs"}, "16": {"label": "*0", "atom_type": "Cs"}, "17": {"label": "*1", "atom_type": "Cs"}, "26": {"label": "*2", "atom_type": "H0"}}

>  <type>  (4) 
ts

$$$$

     RDKit          3D

 28 26  0  0  0  0  0  0  0  0999 V2000
   -0.5998    1.0902    1.0012 C   0  0  0  0  0  0  0  0  0  0  0  0
   -0.1993   -0.0992    1.8582 C   0  0  0  0  0  0  0  0  0  0  0  0
   -0.1571   -1.6877    0.9904 S   0  0  0  0  0  0  0  0  0  0  0  0
   -1.8708   -1.8634    0.4328 C   0  0  0  0  0  0  0  0  0  0  0  0
   -2.9072   -1.8964    1.5438 C   0  0  0  0  0  0  0  0  0  0  0  0
   -1.6321    1.0053    0.6575 H   0  0  0  0  0  0  0  0  0  0  0  0
   -0.5212    2.0152    1.5766 H   0  0  0  0  0  0  0  0  0  0  0  0
   -0.8424   -0.1817    2.7360 H   0  0  0  0  0  0  0  0  0  0  0  0
    0.8208    0.0224    2.2263 H   0  0  0  0  0  0  0  0  0  0  0  0
   -2.0995   -1.0794   -0.2909 H   0  0  0  0  0  0  0  0  0  0  0  0
   -1.8696   -2.8068   -0.1157 H   0  0  0  0  0  0  0  0  0  0  0  0
   -2.9510   -0.9456    2.0776 H   0  0  0  0  0  0  0  0  0  0  0  0
   -3.9001   -2.0858    1.1299 H   0  0  0  0  0  0  0  0  0  0  0  0
   -2.6782   -2.6800    2.2669 H   0  0  0  0  0  0  0  0  0  0  0  0
    1.5139    0.9187   -3.5800 C   0  0  0  0  0  0  0  0  0  0  0  0
    1.5139    0.9187   -2.0573 C   0  0  0  0  0  0  0  0  0  0  0  0
    1.5139    2.3211   -1.4599 C   0  0  0  0  0  0  0  0  0  0  0  0
    1.5139    2.3211    0.0628 C   0  0  0  0  0  3  0  0  0  0  0  0
    2.3954    1.4320   -3.9714 H   0  0  0  0  0  0  0  0  0  0  0  0
    0.6323    1.4320   -3.9714 H   0  0  0  0  0  0  0  0  0  0  0  0
    1.5139   -0.0964   -3.9804 H   0  0  0  0  0  0  0  0  0  0  0  0
    0.6388    0.3728   -1.6900 H   0  0  0  0  0  0  0  0  0  0  0  0
    2.3889    0.3728   -1.6900 H   0  0  0  0  0  0  0  0  0  0  0  0
    0.6388    2.8669   -1.8272 H   0  0  0  0  0  0  0  0  0  0  0  0
    2.3889    2.8669   -1.8272 H   0  0  0  0  0  0  0  0  0  0  0  0
    2.3954    1.8077    0.4541 H   0  0  0  0  0  0  0  0  0  0  0  0
    0.4560    1.7050    0.5324 H   0  0  0  0  0  0  0  0  0  0  0  0
    1.5139    3.3362    0.4631 H   0  0  0  0  0  0  0  0  0  0  0  0
  1  2  1  0
  1  6  1  0
  1  7  1  0
  1 27  1  0
  2  3  1  0
  2  8  1  0
  2  9  1  0
  3  4  1  0
  4  5  1  0
  4 10  1  0
  4 11  1  0
  5 12  1  0
  5 13  1  0
  5 14  1  0
 15 16  1  0
 15 19  1  0
 15 20  1  0
 15 21  1  0
 16 17  1  0
 16 22  1  0
 16 23  1  0
 17 18  1  0
 17 24  1  0
 17 25  1  0
 18 26  1  0
 18 28  1  0
M  RAD  1  18   2
M  END
>  <reaction>  (5) 
rmg_rxn_34

>  <mol_properties>  (5) 
{"0": {"label": "*3", "atom_type": "Cs"}, "1": {"label": "*4", "atom_type": "Cs"}, "16": {"label": "*0", "atom_type": "Cs"}, "17": {"label": "*1", "atom_type": "Cs"}, "26": {"label": "*2", "atom_type": "H0"}}

>  <type>  (5) 
unop_1

>  <geom_source>  (5) 
Heuristics

$$$$

     RDKit          3D

 28 26  0  0  0  0  0  0  0  0999 V2000
    0.1228    0.0118    1.9755 C   0  0  0  0  0  0  0  0  0  0  0  0
   -0.3384   -1.0781    1.0221 C   0  0  0  0  0  0  0  0  0  0  0  0
   -1.1438   -0.4840   -0.4867 S   0  0  0  0  0  0  0  0  0  0  0  0
   -2.5681    0.4195    0.1714 C   0  0  0  0  0  0  0  0  0  0  0  0
   -3.5359   -0.4173    0.9917 C   0  0  0  0  0  0  0  0  0  0  0  0
   -0.7223    0.5666    2.3868 H   0  0  0  0  0  0  0  0  0  0  0  0
    0.6676   -0.4252    2.8153 H   0  0  0  0  0  0  0  0  0  0  0  0
   -0.9945   -1.7876    1.5289 H   0  0  0  0  0  0  0  0  0  0  0  0
    0.5157   -1.6482    0.6530 H   0  0  0  0  0  0  0  0  0  0  0  0
   -2.2194    1.2826    0.7408 H   0  0  0  0  0  0  0  0  0  0  0  0
   -3.0622    0.8097   -0.7199 H   0  0  0  0  0  0  0  0  0  0  0  0
   -3.0703   -0.7824    1.9086 H   0  0  0  0  0  0  0  0  0  0  0  0
   -4.4031    0.1809    1.2803 H   0  0  0  0  0  0  0  0  0  0  0  0
   -3.8841   -1.2799    0.4224 H   0  0  0  0  0  0  0  0  0  0  0  0
    2.2365   -0.1596   -2.6056 C   0  0  0  0  0  0  0  0  0  0  0  0
    2.2365   -0.1596   -1.0829 C   0  0  0  0  0  0  0  0  0  0  0  0
    2.2365    1.2427   -0.4856 C   0  0  0  0  0  0  0  0  0  0  0  0
    2.2365    1.2427    1.0371 C   0  0  0  0  0  3  0  0  0  0  0  0
    3.1180    0.3537   -2.9970 H   0  0  0  0  0  0  0  0  0  0  0  0
    1.3549    0.3537   -2.9970 H   0  0  0  0  0  0  0  0  0  0  0  0
    2.2364   -1.1747   -3.0060 H   0  0  0  0  0  0  0  0  0  0  0  0
    1.3614   -0.7055   -0.7156 H   0  0  0  0  0  0  0  0  0  0  0  0
    3.1115   -0.7055   -0.7156 H   0  0  0  0  0  0  0  0  0  0  0  0
    1.3614    1.7886   -0.8529 H   0  0  0  0  0  0  0  0  0  0  0  0
    3.1115    1.7886   -0.8529 H   0  0  0  0  0  0  0  0  0  0  0  0
    3.1180    0.7294    1.4285 H   0  0  0  0  0  0  0  0  0  0  0  0
    1.1786    0.6267    1.5068 H   0  0  0  0  0  0  0  0  0  0  0  0
    2.2365    2.2578    1.4375 H   0  0  0  0  0  0  0  0  0  0  0  0
  1  2  1  0
  1  6  1  0
  1  7  1  0
  1 27  1  0
  2  3  1  0
  2  8  1  0
  2  9  1  0
  3  4  1  0
  4  5  1  0
  4 10  1  0
  4 11  1  0
  5 12  1  0
  5 13  1  0
  5 14  1  0
 15 16  1  0
 15 19  1  0
 15 20  1  0
 15 21  1  0
 16 17  1  0
 16 22  1  0
 16 23  1  0
 17 18  1  0
 17 24  1  0
 17 25  1  0
 18 26  1  0
 18 28  1  0
M  RAD  1  18   2
M  END
>  <reaction>  (6) 
rmg_rxn_34

>  <mol_properties>  (6) 
{"0": {"label": "*3", "atom_type": "Cs"}, "1": {"label": "*4", "atom_type": "Cs"}, "16": {"label": "*0", "atom_type": "Cs"}, "17": {"label": "*1", "atom_type": "Cs"}, "26": {"label": "*2", "atom_type": "H0"}}

>  <type>  (6) 
unop_2

>  <geom_source>  (6) 
Heuristics

$$$$

     RDKit          3D

 28 26  0  0  0  0  0  0  0  0999 V2000
   -0.9100    0.9964    0.5495 C   0  0  0  0  0  0  0  0  0  0  0  0
   -0.6101    0.3497    1.8917 C   0  0  0  0  0  0  0  0  0  0  0  0
    0.1651   -1.2838    1.7974 S   0  0  0  0  0  0  0  0  0  0  0  0
   -1.0793   -2.2455    0.9004 C   0  0  0  0  0  0  0  0  0  0  0  0
   -2.4324   -2.3424    1.5854 C   0  0  0  0  0  0  0  0  0  0  0  0
   -1.6617    0.4332   -0.0062 H   0  0  0  0  0  0  0  0  0  0  0  0
   -1.2986    2.0068    0.6944 H   0  0  0  0  0  0  0  0  0  0  0  0
   -1.5103    0.2898    2.5056 H   0  0  0  0  0  0  0  0  0  0  0  0
    0.1120    0.9476    2.4502 H   0  0  0  0  0  0  0  0  0  0  0  0
   -1.1821   -1.8520   -0.1123 H   0  0  0  0  0  0  0  0  0  0  0  0
   -0.6266   -3.2342    0.8089 H   0  0  0  0  0  0  0  0  0  0  0  0
   -2.9186   -1.3675    1.6490 H   0  0  0  0  0  0  0  0  0  0  0  0
   -3.0955   -3.0030    1.0224 H   0  0  0  0  0  0  0  0  0  0  0  0
   -2.3293   -2.7356    2.5974 H   0  0  0  0  0  0  0  0  0  0  0  0
    1.2037    0.8249   -4.0317 C   0  0  0  0  0  0  0  0  0  0  0  0
    1.2037    0.8249   -2.5090 C   0  0  0  0  0  0  0  0  0  0  0  0
    1.2037    2.2273   -1.9116 C   0  0  0  0  0  0  0  0  0  0  0  0
    1.2037    2.2273   -0.3889 C   0  0  0  0  0  3  0  0  0  0  0  0
    2.0852    1.3383   -4.4230 H   0  0  0  0  0  0  0  0  0  0  0  0
    0.3221    1.3383   -4.4230 H   0  0  0  0  0  0  0  0  0  0  0  0
    1.2037   -0.1902   -4.4320 H   0  0  0  0  0  0  0  0  0  0  0  0
    0.3286    0.2790   -2.1417 H   0  0  0  0  0  0  0  0  0  0  0  0
    2.0787    0.2790   -2.1417 H   0  0  0  0  0  0  0  0  0  0  0  0
    0.3286    2.7732   -2.2789 H   0  0  0  0  0  0  0  0  0  0  0  0
    2.0787    2.7732   -2.2789 H   0  0  0  0  0  0  0  0  0  0  0  0
    2.0852    1.7139    0.0025 H   0  0  0  0  0  0  0  0  0  0  0  0
    0.1458    1.6113    0.0807 H   0  0  0  0  0  0  0  0  0  0  0  0
    1.2037    3.2424    0.0115 H   0  0  0  0  0  0  0  0  0  0  0  0
  1  2  1  0
  1  6  1  0
  1  7  1  0
  1 27  1  0
  2  3  1  0
  2  8  1  0
  2  9  1  0
  3  4  1  0
  4  5  1  0
  4 10  1  0
  4 11  1  0
  5 12  1  0
  5 13  1  0
  5 14  1  0
 15 16  1  0
 15 19  1  0
 15 20  1  0
 15 21  1  0
 16 17  1  0
 16 22  1  0
 16 23  1  0
 17 18  1  0
 17 24  1  0
 17 25  1  0
 18 26  1  0
 18 28  1  0
M  RAD  1  18   2
M  END
>  <reaction>  (7) 
rmg_rxn_34

>  <mol_properties>  (7) 
{"0": {"label": "*3", "atom_type": "Cs"}, "1": {"label": "*4", "atom_type": "Cs"}, "16": {"label": "*0", "atom_type": "Cs"}, "17": {"label": "*1", "atom_type": "Cs"}, "26": {"label": "*2", "atom_type": "H0"}}

>  <type>  (7) 
unop_3

>  <geom_source>  (7) 
Heuristics

$$$$

     RDKit          3D

 28 26  0  0  0  0  0  0  0  0999 V2000
   -0.2725   -1.4059    1.0825 C   0  0  0  0  0  0  0  0  0  0  0  0
   -1.5486   -0.7264    0.6142 C   0  0  0  0  0  0  0  0  0  0  0  0
   -1.3628    1.0139    0.1505 S   0  0  0  0  0  0  0  0  0  0  0  0
   -0.7835    1.7604    1.6949 C   0  0  0  0  0  0  0  0  0  0  0  0
   -1.7377    1.6265    2.8702 C   0  0  0  0  0  0  0  0  0  0  0  0
    0.0917   -0.9724    2.0154 H   0  0  0  0  0  0  0  0  0  0  0  0
   -0.4532   -2.4678    1.2633 H   0  0  0  0  0  0  0  0  0  0  0  0
   -2.3378   -0.8210    1.3619 H   0  0  0  0  0  0  0  0  0  0  0  0
   -1.9202   -1.1992   -0.2965 H   0  0  0  0  0  0  0  0  0  0  0  0
    0.2011    1.3614    1.9445 H   0  0  0  0  0  0  0  0  0  0  0  0
   -0.6408    2.8112    1.4375 H   0  0  0  0  0  0  0  0  0  0  0  0
   -1.8606    0.5839    3.1681 H   0  0  0  0  0  0  0  0  0  0  0  0
   -1.3520    2.1709    3.7350 H   0  0  0  0  0  0  0  0  0  0  0  0
   -2.7215    2.0252    2.6204 H   0  0  0  0  0  0  0  0  0  0  0  0
    1.8412   -1.5774   -3.4987 C   0  0  0  0  0  0  0  0  0  0  0  0
    1.8412   -1.5774   -1.9760 C   0  0  0  0  0  0  0  0  0  0  0  0
    1.8412   -0.1750   -1.3786 C   0  0  0  0  0  0  0  0  0  0  0  0
    1.8412   -0.1750    0.1440 C   0  0  0  0  0  3  0  0  0  0  0  0
    2.7228   -1.0640   -3.8901 H   0  0  0  0  0  0  0  0  0  0  0  0
    0.9597   -1.0640   -3.8901 H   0  0  0  0  0  0  0  0  0  0  0  0
    1.8412   -2.5925   -3.8991 H   0  0  0  0  0  0  0  0  0  0  0  0
    0.9662   -2.1233   -1.6087 H   0  0  0  0  0  0  0  0  0  0  0  0
    2.7163   -2.1233   -1.6087 H   0  0  0  0  0  0  0  0  0  0  0  0
    0.9662    0.3709   -1.7460 H   0  0  0  0  0  0  0  0  0  0  0  0
    2.7163    0.3709   -1.7460 H   0  0  0  0  0  0  0  0  0  0  0  0
    2.7227   -0.6884    0.5354 H   0  0  0  0  0  0  0  0  0  0  0  0
    0.7834   -0.7910    0.6137 H   0  0  0  0  0  0  0  0  0  0  0  0
    1.8412    0.8401    0.5444 H   0  0  0  0  0  0  0  0  0  0  0  0
  1  2  1  0
  1  6  1  0
  1  7  1  0
  1 27  1  0
  2  3  1  0
  2  8  1  0
  2  9  1  0
  3  4  1  0
  4  5  1  0
  4 10  1  0
  4 11  1  0
  5 12  1  0
  5 13  1  0
  5 14  1  0
 15 16  1  0
 15 19  1  0
 15 20  1  0
 15 21  1  0
 16 17  1  0
 16 22  1  0
 16 23  1  0
 17 18  1  0
 17 24  1  0
 17 25  1  0
 18 26  1  0
 18 28  1  0
M  RAD  1  18   2
M  END
>  <reaction>  (8) 
rmg_rxn_34

>  <mol_properties>  (8) 
{"0": {"label": "*3", "atom_type": "Cs"}, "1": {"label": "*4", "atom_type": "Cs"}, "16": {"label": "*0", "atom_type": "Cs"}, "17": {"label": "*1", "atom_type": "Cs"}, "26": {"label": "*2", "atom_type": "H0"}}

>  <type>  (8) 
unop_4

>  <geom_source>  (8) 
Heuristics

$$$$

     RDKit          3D

 28 26  0  0  0  0  0  0  0  0999 V2000
   -1.3150    0.5042    0.0847 C   0  0  0  0  0  0  0  0  0  0  0  0
   -1.3135    0.5052    1.6045 C   0  0  0  0  0  0  0  0  0  0  0  0
    0.1758   -0.1856    2.3682 S   0  0  0  0  0  0  0  0  0  0  0  0
    0.1737   -1.8839    1.7407 C   0  0  0  0  0  0  0  0  0  0  0  0
   -1.0453   -2.7077    2.1217 C   0  0  0  0  0  0  0  0  0  0  0  0
   -1.3201   -0.5116   -0.3141 H   0  0  0  0  0  0  0  0  0  0  0  0
   -2.2068    1.0090   -0.2933 H   0  0  0  0  0  0  0  0  0  0  0  0
   -2.1937   -0.0076    1.9957 H   0  0  0  0  0  0  0  0  0  0  0  0
   -1.3500    1.5272    1.9852 H   0  0  0  0  0  0  0  0  0  0  0  0
    0.3134   -1.8716    0.6585 H   0  0  0  0  0  0  0  0  0  0  0  0
    1.0776   -2.3199    2.1693 H   0  0  0  0  0  0  0  0  0  0  0  0
   -1.9542   -2.3095    1.6677 H   0  0  0  0  0  0  0  0  0  0  0  0
   -0.9300   -3.7371    1.7752 H   0  0  0  0  0  0  0  0  0  0  0  0
   -1.1846   -2.7197    3.2032 H   0  0  0  0  0  0  0  0  0  0  0  0
    0.7986    0.3328   -4.4964 C   0  0  0  0  0  0  0  0  0  0  0  0
    0.7986    0.3328   -2.9737 C   0  0  0  0  0  0  0  0  0  0  0  0
    0.7986    1.7351   -2.3764 C   0  0  0  0  0  0  0  0  0  0  0  0
    0.7986    1.7351   -0.8537 C   0  0  0  0  0  3  0  0  0  0  0  0
    1.6802    0.8461   -4.8878 H   0  0  0  0  0  0  0  0  0  0  0  0
   -0.0829    0.8461   -4.8878 H   0  0  0  0  0  0  0  0  0  0  0  0
    0.7986   -0.6823   -4.8968 H   0  0  0  0  0  0  0  0  0  0  0  0
   -0.0764   -0.2131   -2.6064 H   0  0  0  0  0  0  0  0  0  0  0  0
    1.6737   -0.2131   -2.6064 H   0  0  0  0  0  0  0  0  0  0  0  0
   -0.0764    2.2810   -2.7437 H   0  0  0  0  0  0  0  0  0  0  0  0
    1.6737    2.2810   -2.7437 H   0  0  0  0  0  0  0  0  0  0  0  0
    1.6802    1.2218   -0.4623 H   0  0  0  0  0  0  0  0  0  0  0  0
   -0.2592    1.1191   -0.3840 H   0  0  0  0  0  0  0  0  0  0  0  0
    0.7986    2.7502   -0.4533 H   0  0  0  0  0  0  0  0  0  0  0  0
  1  2  1  0
  1  6  1  0
  1  7  1  0
  1 27  1  0
  2  3  1  0
  2  8  1  0
  2  9  1  0
  3  4  1  0
  4  5  1  0
  4 10  1  0
  4 11  1  0
  5 12  1  0
  5 13  1  0
  5 14  1  0
 15 16  1  0
 15 19  1  0
 15 20  1  0
 15 21  1  0
 16 17  1  0
 16 22  1  0
 16 23  1  0
 17 18  1  0
 17 24  1  0
 17 25  1  0
 18 26  1  0
 18 28  1  0
M  RAD  1  18   2
M  END
>  <reaction>  (9) 
rmg_rxn_34

>  <mol_properties>  (9) 
{"0": {"label": "*3", "atom_type": "Cs"}, "1": {"label": "*4", "atom_type": "Cs"}, "16": {"label": "*0", "atom_type": "Cs"}, "17": {"label": "*1", "atom_type": "Cs"}, "26": {"label": "*2", "atom_type": "H0"}}

>  <type>  (9) 
unop_5

>  <geom_source>  (9) 
Heuristics

$$$$

     RDKit          3D

 28 26  0  0  0  0  0  0  0  0999 V2000
   -0.6034   -1.4028    0.5701 C   0  0  0  0  0  0  0  0  0  0  0  0
   -1.7556   -0.4310    0.7645 C   0  0  0  0  0  0  0  0  0  0  0  0
   -1.2907    1.3188    0.7523 S   0  0  0  0  0  0  0  0  0  0  0  0
   -0.1422    1.4182    2.1485 C   0  0  0  0  0  0  0  0  0  0  0  0
   -0.7349    1.0391    3.4956 C   0  0  0  0  0  0  0  0  0  0  0  0
    0.0993   -1.3610    1.4040 H   0  0  0  0  0  0  0  0  0  0  0  0
   -0.9781   -2.4269    0.5085 H   0  0  0  0  0  0  0  0  0  0  0  0
   -2.3042   -0.6548    1.6809 H   0  0  0  0  0  0  0  0  0  0  0  0
   -2.4686   -0.5157   -0.0573 H   0  0  0  0  0  0  0  0  0  0  0  0
    0.7459    0.8224    1.9315 H   0  0  0  0  0  0  0  0  0  0  0  0
    0.1731    2.4629    2.1510 H   0  0  0  0  0  0  0  0  0  0  0  0
   -1.0186   -0.0142    3.5249 H   0  0  0  0  0  0  0  0  0  0  0  0
   -0.0042    1.2039    4.2906 H   0  0  0  0  0  0  0  0  0  0  0  0
   -1.6225    1.6347    3.7120 H   0  0  0  0  0  0  0  0  0  0  0  0
    1.5103   -1.5742   -4.0110 C   0  0  0  0  0  0  0  0  0  0  0  0
    1.5103   -1.5742   -2.4883 C   0  0  0  0  0  0  0  0  0  0  0  0
    1.5103   -0.1719   -1.8910 C   0  0  0  0  0  0  0  0  0  0  0  0
    1.5103   -0.1719   -0.3683 C   0  0  0  0  0  3  0  0  0  0  0  0
    2.3918   -1.0609   -4.4024 H   0  0  0  0  0  0  0  0  0  0  0  0
    0.6287   -1.0609   -4.4024 H   0  0  0  0  0  0  0  0  0  0  0  0
    1.5103   -2.5893   -4.4114 H   0  0  0  0  0  0  0  0  0  0  0  0
    0.6352   -2.1201   -2.1210 H   0  0  0  0  0  0  0  0  0  0  0  0
    2.3853   -2.1201   -2.1210 H   0  0  0  0  0  0  0  0  0  0  0  0
    0.6352    0.3740   -2.2583 H   0  0  0  0  0  0  0  0  0  0  0  0
    2.3853    0.3740   -2.2583 H   0  0  0  0  0  0  0  0  0  0  0  0
    2.3918   -0.6852    0.0231 H   0  0  0  0  0  0  0  0  0  0  0  0
    0.4524   -0.7879    0.1014 H   0  0  0  0  0  0  0  0  0  0  0  0
    1.5103    0.8432    0.0321 H   0  0  0  0  0  0  0  0  0  0  0  0
  1  2  1  0
  1  6  1  0
  1  7  1  0
  1 27  1  0
  2  3  1  0
  2  8  1  0
  2  9  1  0
  3  4  1  0
  4  5  1  0
  4 10  1  0
  4 11  1  0
  5 12  1  0
  5 13  1  0
  5 14  1  0
 15 16  1  0
 15 19  1  0
 15 20  1  0
 15 21  1  0
 16 17  1  0
 16 22  1  0
 16 23  1  0
 17 18  1  0
 17 24  1  0
 17 25  1  0
 18 26  1  0
 18 28  1  0
M  RAD  1  18   2
M  END
>  <reaction>  (10) 
rmg_rxn_34

>  <mol_properties>  (10) 
{"0": {"label": "*3", "atom_type": "Cs"}, "1": {"label": "*4", "atom_type": "Cs"}, "16": {"label": "*0", "atom_type": "Cs"}, "17": {"label": "*1", "atom_type": "Cs"}, "26": {"label": "*2", "atom_type": "H0"}}

>  <type>  (10) 
unop_6

>  <geom_source>  (10) 
Heuristics

$$$$

     RDKit          3D

 28 26  0  0  0  0  0  0  0  0999 V2000
   -0.9912   -1.0909    0.1170 C   0  0  0  0  0  0  0  0  0  0  0  0
   -1.8280   -0.1555    0.9740 C   0  0  0  0  0  0  0  0  0  0  0  0
   -0.9887    1.3624    1.4932 S   0  0  0  0  0  0  0  0  0  0  0  0
    0.4095    0.7184    2.4464 C   0  0  0  0  0  0  0  0  0  0  0  0
    0.0301   -0.1157    3.6588 C   0  0  0  0  0  0  0  0  0  0  0  0
   -0.1442   -1.4934    0.6750 H   0  0  0  0  0  0  0  0  0  0  0  0
   -1.5941   -1.9374   -0.2192 H   0  0  0  0  0  0  0  0  0  0  0  0
   -2.2169   -0.6741    1.8519 H   0  0  0  0  0  0  0  0  0  0  0  0
   -2.6921    0.2047    0.4133 H   0  0  0  0  0  0  0  0  0  0  0  0
    1.0759    0.1634    1.7841 H   0  0  0  0  0  0  0  0  0  0  0  0
    0.9486    1.6158    2.7546 H   0  0  0  0  0  0  0  0  0  0  0  0
   -0.4745   -1.0383    3.3668 H   0  0  0  0  0  0  0  0  0  0  0  0
    0.9239   -0.3950    4.2210 H   0  0  0  0  0  0  0  0  0  0  0  0
   -0.6360    0.4393    4.3203 H   0  0  0  0  0  0  0  0  0  0  0  0
    1.1225   -1.2624   -4.4642 C   0  0  0  0  0  0  0  0  0  0  0  0
    1.1225   -1.2624   -2.9415 C   0  0  0  0  0  0  0  0  0  0  0  0
    1.1225    0.1400   -2.3441 C   0  0  0  0  0  0  0  0  0  0  0  0
    1.1225    0.1400   -0.8214 C   0  0  0  0  0  3  0  0  0  0  0  0
    2.0040   -0.7490   -4.8556 H   0  0  0  0  0  0  0  0  0  0  0  0
    0.2409   -0.7490   -4.8556 H   0  0  0  0  0  0  0  0  0  0  0  0
    1.1225   -2.2775   -4.8646 H   0  0  0  0  0  0  0  0  0  0  0  0
    0.2474   -1.8082   -2.5742 H   0  0  0  0  0  0  0  0  0  0  0  0
    1.9975   -1.8082   -2.5742 H   0  0  0  0  0  0  0  0  0  0  0  0
    0.2474    0.6859   -2.7114 H   0  0  0  0  0  0  0  0  0  0  0  0
    1.9975    0.6859   -2.7114 H   0  0  0  0  0  0  0  0  0  0  0  0
    2.0040   -0.3733   -0.4301 H   0  0  0  0  0  0  0  0  0  0  0  0
    0.0646   -0.4760   -0.3518 H   0  0  0  0  0  0  0  0  0  0  0  0
    1.1225    1.1551   -0.4211 H   0  0  0  0  0  0  0  0  0  0  0  0
  1  2  1  0
  1  6  1  0
  1  7  1  0
  1 27  1  0
  2  3  1  0
  2  8  1  0
  2  9  1  0
  3  4  1  0
  4  5  1  0
  4 10  1  0
  4 11  1  0
  5 12  1  0
  5 13  1  0
  5 14  1  0
 15 16  1  0
 15 19  1  0
 15 20  1  0
 15 21  1  0
 16 17  1  0
 16 22  1  0
 16 23  1  0
 17 18  1  0
 17 24  1  0
 17 25  1  0
 18 26  1  0
 18 28  1  0
M  RAD  1  18   2
M  END
>  <reaction>  (11) 
rmg_rxn_34

>  <mol_properties>  (11) 
{"0": {"label": "*3", "atom_type": "Cs"}, "1": {"label": "*4", "atom_type": "Cs"}, "16": {"label": "*0", "atom_type": "Cs"}, "17": {"label": "*1", "atom_type": "Cs"}, "26": {"label": "*2", "atom_type": "H0"}}

>  <type>  (11) 
unop_7

>  <geom_source>  (11) 
Heuristics

$$$$

     RDKit          3D

 28 26  0  0  0  0  0  0  0  0999 V2000
   -0.3328    0.9620    1.4470 C   0  0  0  0  0  0  0  0  0  0  0  0
   -0.0563   -0.5196    1.6413 C   0  0  0  0  0  0  0  0  0  0  0  0
   -0.5413   -1.5768    0.2537 S   0  0  0  0  0  0  0  0  0  0  0  0
   -2.3242   -1.2782    0.1517 C   0  0  0  0  0  0  0  0  0  0  0  0
   -3.1099   -1.6503    1.3982 C   0  0  0  0  0  0  0  0  0  0  0  0
   -1.4036    1.1639    1.3867 H   0  0  0  0  0  0  0  0  0  0  0  0
    0.0615    1.5345    2.2894 H   0  0  0  0  0  0  0  0  0  0  0  0
   -0.5219   -0.8864    2.5576 H   0  0  0  0  0  0  0  0  0  0  0  0
    1.0158   -0.6976    1.7406 H   0  0  0  0  0  0  0  0  0  0  0  0
   -2.5031   -0.2382   -0.1262 H   0  0  0  0  0  0  0  0  0  0  0  0
   -2.6414   -1.8888   -0.6953 H   0  0  0  0  0  0  0  0  0  0  0  0
   -2.8346   -1.0212    2.2464 H   0  0  0  0  0  0  0  0  0  0  0  0
   -4.1801   -1.5169    1.2252 H   0  0  0  0  0  0  0  0  0  0  0  0
   -2.9308   -2.6896    1.6756 H   0  0  0  0  0  0  0  0  0  0  0  0
    1.7808    0.7905   -3.1342 C   0  0  0  0  0  0  0  0  0  0  0  0
    1.7808    0.7905   -1.6115 C   0  0  0  0  0  0  0  0  0  0  0  0
    1.7808    2.1929   -1.0141 C   0  0  0  0  0  0  0  0  0  0  0  0
    1.7808    2.1929    0.5086 C   0  0  0  0  0  3  0  0  0  0  0  0
    2.6624    1.3039   -3.5256 H   0  0  0  0  0  0  0  0  0  0  0  0
    0.8993    1.3039   -3.5256 H   0  0  0  0  0  0  0  0  0  0  0  0
    1.7808   -0.2246   -3.5346 H   0  0  0  0  0  0  0  0  0  0  0  0
    0.9058    0.2447   -1.2442 H   0  0  0  0  0  0  0  0  0  0  0  0
    2.6559    0.2447   -1.2442 H   0  0  0  0  0  0  0  0  0  0  0  0
    0.9058    2.7388   -1.3814 H   0  0  0  0  0  0  0  0  0  0  0  0
    2.6559    2.7388   -1.3814 H   0  0  0  0  0  0  0  0  0  0  0  0
    2.6624    1.6796    0.8999 H   0  0  0  0  0  0  0  0  0  0  0  0
    0.7230    1.5769    0.9782 H   0  0  0  0  0  0  0  0  0  0  0  0
    1.7808    3.2080    0.9089 H   0  0  0  0  0  0  0  0  0  0  0  0
  1  2  1  0
  1  6  1  0
  1  7  1  0
  1 27  1  0
  2  3  1  0
  2  8  1  0
  2  9  1  0
  3  4  1  0
  4  5  1  0
  4 10  1  0
  4 11  1  0
  5 12  1  0
  5 13  1  0
  5 14  1  0
 15 16  1  0
 15 19  1  0
 15 20  1  0
 15 21  1  0
 16 17  1  0
 16 22  1  0
 16 23  1  0
 17 18  1  0
 17 24  1  0
 17 25  1  0
 18 26  1  0
 18 28  1  0
M  RAD  1  18   2
M  END
>  <reaction>  (12) 
rmg_rxn_34

>  <mol_properties>  (12) 
{"0": {"label": "*3", "atom_type": "Cs"}, "1": {"label": "*4", "atom_type": "Cs"}, "16": {"label": "*0", "atom_type": "Cs"}, "17": {"label": "*1", "atom_type": "Cs"}, "26": {"label": "*2", "atom_type": "H0"}}

>  <type>  (12) 
unop_8

>  <geom_source>  (12) 
Heuristics

$$$$

     RDKit          3D

 28 26  0  0  0  0  0  0  0  0999 V2000
   -0.0138   -1.1403    1.5458 C   0  0  0  0  0  0  0  0  0  0  0  0
   -1.1894   -1.0035    0.5924 C   0  0  0  0  0  0  0  0  0  0  0  0
   -1.3148    0.5983   -0.2424 S   0  0  0  0  0  0  0  0  0  0  0  0
   -1.4986    1.7408    1.1501 C   0  0  0  0  0  0  0  0  0  0  0  0
   -2.7219    1.5018    2.0196 C   0  0  0  0  0  0  0  0  0  0  0  0
   -0.1075   -0.4617    2.3953 H   0  0  0  0  0  0  0  0  0  0  0  0
    0.0357   -2.1568    1.9424 H   0  0  0  0  0  0  0  0  0  0  0  0
   -2.1303   -1.2237    1.0992 H   0  0  0  0  0  0  0  0  0  0  0  0
   -1.0998   -1.7173   -0.2282 H   0  0  0  0  0  0  0  0  0  0  0  0
   -0.5866    1.7330    1.7493 H   0  0  0  0  0  0  0  0  0  0  0  0
   -1.5542    2.7217    0.6751 H   0  0  0  0  0  0  0  0  0  0  0  0
   -2.6640    0.5417    2.5352 H   0  0  0  0  0  0  0  0  0  0  0  0
   -2.8018    2.2791    2.7827 H   0  0  0  0  0  0  0  0  0  0  0  0
   -3.6331    1.5095    1.4204 H   0  0  0  0  0  0  0  0  0  0  0  0
    2.0998   -1.3118   -3.0354 C   0  0  0  0  0  0  0  0  0  0  0  0
    2.0998   -1.3118   -1.5127 C   0  0  0  0  0  0  0  0  0  0  0  0
    2.0998    0.0906   -0.9153 C   0  0  0  0  0  0  0  0  0  0  0  0
    2.0998    0.0906    0.6074 C   0  0  0  0  0  3  0  0  0  0  0  0
    2.9814   -0.7984   -3.4268 H   0  0  0  0  0  0  0  0  0  0  0  0
    1.2183   -0.7984   -3.4268 H   0  0  0  0  0  0  0  0  0  0  0  0
    2.0998   -2.3269   -3.4358 H   0  0  0  0  0  0  0  0  0  0  0  0
    1.2248   -1.8577   -1.1454 H   0  0  0  0  0  0  0  0  0  0  0  0
    2.9749   -1.8577   -1.1454 H   0  0  0  0  0  0  0  0  0  0  0  0
    1.2248    0.6365   -1.2826 H   0  0  0  0  0  0  0  0  0  0  0  0
    2.9749    0.6365   -1.2826 H   0  0  0  0  0  0  0  0  0  0  0  0
    2.9814   -0.4227    0.9987 H   0  0  0  0  0  0  0  0  0  0  0  0
    1.0420   -0.5254    1.0770 H   0  0  0  0  0  0  0  0  0  0  0  0
    2.0998    1.1057    1.0077 H   0  0  0  0  0  0  0  0  0  0  0  0
  1  2  1  0
  1  6  1  0
  1  7  1  0
  1 27  1  0
  2  3  1  0
  2  8  1  0
  2  9  1  0
  3  4  1  0
  4  5  1  0
  4 10  1  0
  4 11  1  0
  5 12  1  0
  5 13  1  0
  5 14  1  0
 15 16  1  0
 15 19  1  0
 15 20  1  0
 15 21  1  0
 16 17  1  0
 16 22  1  0
 16 23  1  0
 17 18  1  0
 17 24  1  0
 17 25  1  0
 18 26  1  0
 18 28  1  0
M  RAD  1  18   2
M  END
>  <reaction>  (13) 
rmg_rxn_34

>  <mol_properties>  (13) 
{"0": {"label": "*3", "atom_type": "Cs"}, "1": {"label": "*4", "atom_type": "Cs"}, "16": {"label": "*0", "atom_type": "Cs"}, "17": {"label": "*1", "atom_type": "Cs"}, "26": {"label": "*2", "atom_type": "H0"}}

>  <type>  (13) 
unop_9

>  <geom_source>  (13) 
Heuristics

$$$$

     RDKit          3D

 28 26  0  0  0  0  0  0  0  0999 V2000
   -0.0683    0.5932    1.8106 C   0  0  0  0  0  0  0  0  0  0  0  0
   -0.1072   -0.8521    1.3423 C   0  0  0  0  0  0  0  0  0  0  0  0
   -0.9012   -1.1147   -0.2635 S   0  0  0  0  0  0  0  0  0  0  0  0
   -2.5797   -0.5059    0.0367 C   0  0  0  0  0  0  0  0  0  0  0  0
   -3.3425   -1.2379    1.1285 C   0  0  0  0  0  0  0  0  0  0  0  0
   -1.0714    0.9785    2.0010 H   0  0  0  0  0  0  0  0  0  0  0  0
    0.4961    0.6743    2.7422 H   0  0  0  0  0  0  0  0  0  0  0  0
   -0.5791   -1.4918    2.0899 H   0  0  0  0  0  0  0  0  0  0  0  0
    0.9050   -1.2330    1.1965 H   0  0  0  0  0  0  0  0  0  0  0  0
   -2.5471    0.5666    0.2357 H   0  0  0  0  0  0  0  0  0  0  0  0
   -3.0774   -0.6319   -0.9262 H   0  0  0  0  0  0  0  0  0  0  0  0
   -2.8815   -1.0890    2.1064 H   0  0  0  0  0  0  0  0  0  0  0  0
   -4.3674   -0.8652    1.1894 H   0  0  0  0  0  0  0  0  0  0  0  0
   -3.3748   -2.3096    0.9294 H   0  0  0  0  0  0  0  0  0  0  0  0
    2.0454    0.4217   -2.7705 C   0  0  0  0  0  0  0  0  0  0  0  0
    2.0454    0.4217   -1.2479 C   0  0  0  0  0  0  0  0  0  0  0  0
    2.0454    1.8241   -0.6505 C   0  0  0  0  0  0  0  0  0  0  0  0
    2.0454    1.8241    0.8722 C   0  0  0  0  0  3  0  0  0  0  0  0
    2.9269    0.9351   -3.1619 H   0  0  0  0  0  0  0  0  0  0  0  0
    1.1638    0.9351   -3.1619 H   0  0  0  0  0  0  0  0  0  0  0  0
    2.0454   -0.5934   -3.1709 H   0  0  0  0  0  0  0  0  0  0  0  0
    1.1703   -0.1242   -0.8805 H   0  0  0  0  0  0  0  0  0  0  0  0
    2.9204   -0.1242   -0.8805 H   0  0  0  0  0  0  0  0  0  0  0  0
    1.1703    2.3700   -1.0178 H   0  0  0  0  0  0  0  0  0  0  0  0
    2.9204    2.3700   -1.0178 H   0  0  0  0  0  0  0  0  0  0  0  0
    2.9269    1.3107    1.2636 H   0  0  0  0  0  0  0  0  0  0  0  0
    0.9875    1.2081    1.3419 H   0  0  0  0  0  0  0  0  0  0  0  0
    2.0454    2.8392    1.2726 H   0  0  0  0  0  0  0  0  0  0  0  0
  1  2  1  0
  1  6  1  0
  1  7  1  0
  1 27  1  0
  2  3  1  0
  2  8  1  0
  2  9  1  0
  3  4  1  0
  4  5  1  0
  4 10  1  0
  4 11  1  0
  5 12  1  0
  5 13  1  0
  5 14  1  0
 15 16  1  0
 15 19  1  0
 15 20  1  0
 15 21  1  0
 16 17  1  0
 16 22  1  0
 16 23  1  0
 17 18  1  0
 17 24  1  0
 17 25  1  0
 18 26  1  0
 18 28  1  0
M  RAD  1  18   2
M  END
>  <reaction>  (14) 
rmg_rxn_34

>  <mol_properties>  (14) 
{"0": {"label": "*3", "atom_type": "Cs"}, "1": {"label": "*4", "atom_type": "Cs"}, "16": {"label": "*0", "atom_type": "Cs"}, "17": {"label": "*1", "atom_type": "Cs"}, "26": {"label": "*2", "atom_type": "H0"}}

>  <type>  (14) 
unop_10

>  <geom_source>  (14) 
Heuristics

$$$$

     RDKit          3D

 28 26  0  0  0  0  0  0  0  0999 V2000
   -1.3386   -0.4136   -0.1156 C   0  0  0  0  0  0  0  0  0  0  0  0
   -1.7531    0.1663    1.2266 C   0  0  0  0  0  0  0  0  0  0  0  0
   -0.4142    0.9312    2.1756 S   0  0  0  0  0  0  0  0  0  0  0  0
    0.7245   -0.4559    2.4149 C   0  0  0  0  0  0  0  0  0  0  0  0
    0.1463   -1.6373    3.1762 C   0  0  0  0  0  0  0  0  0  0  0  0
   -0.6541   -1.2547    0.0070 H   0  0  0  0  0  0  0  0  0  0  0  0
   -2.2141   -0.7800   -0.6564 H   0  0  0  0  0  0  0  0  0  0  0  0
   -2.2492   -0.5871    1.8406 H   0  0  0  0  0  0  0  0  0  0  0  0
   -2.4685    0.9784    1.0865 H   0  0  0  0  0  0  0  0  0  0  0  0
    1.1213   -0.7712    1.4485 H   0  0  0  0  0  0  0  0  0  0  0  0
    1.5563   -0.0162    2.9678 H   0  0  0  0  0  0  0  0  0  0  0  0
   -0.6609   -2.1153    2.6187 H   0  0  0  0  0  0  0  0  0  0  0  0
    0.9175   -2.3915    3.3475 H   0  0  0  0  0  0  0  0  0  0  0  0
   -0.2502   -1.3218    4.1419 H   0  0  0  0  0  0  0  0  0  0  0  0
    0.7750   -0.5851   -4.6968 C   0  0  0  0  0  0  0  0  0  0  0  0
    0.7750   -0.5851   -3.1741 C   0  0  0  0  0  0  0  0  0  0  0  0
    0.7750    0.8172   -2.5767 C   0  0  0  0  0  0  0  0  0  0  0  0
    0.7750    0.8172   -1.0540 C   0  0  0  0  0  3  0  0  0  0  0  0
    1.6566   -0.0718   -5.0881 H   0  0  0  0  0  0  0  0  0  0  0  0
   -0.1065   -0.0718   -5.0881 H   0  0  0  0  0  0  0  0  0  0  0  0
    0.7750   -1.6002   -5.0971 H   0  0  0  0  0  0  0  0  0  0  0  0
   -0.1000   -1.1310   -2.8067 H   0  0  0  0  0  0  0  0  0  0  0  0
    1.6501   -1.1310   -2.8067 H   0  0  0  0  0  0  0  0  0  0  0  0
   -0.1000    1.3631   -2.9440 H   0  0  0  0  0  0  0  0  0  0  0  0
    1.6501    1.3631   -2.9440 H   0  0  0  0  0  0  0  0  0  0  0  0
    1.6566    0.3039   -0.6626 H   0  0  0  0  0  0  0  0  0  0  0  0
   -0.2828    0.2012   -0.5843 H   0  0  0  0  0  0  0  0  0  0  0  0
    0.7750    1.8324   -0.6536 H   0  0  0  0  0  0  0  0  0  0  0  0
  1  2  1  0
  1  6  1  0
  1  7  1  0
  1 27  1  0
  2  3  1  0
  2  8  1  0
  2  9  1  0
  3  4  1  0
  4  5  1  0
  4 10  1  0
  4 11  1  0
  5 12  1  0
  5 13  1  0
  5 14  1  0
 15 16  1  0
 15 19  1  0
 15 20  1  0
 15 21  1  0
 16 17  1  0
 16 22  1  0
 16 23  1  0
 17 18  1  0
 17 24  1  0
 17 25  1  0
 18 26  1  0
 18 28  1  0
M  RAD  1  18   2
M  END
>  <reaction>  (15) 
rmg_rxn_34

>  <mol_properties>  (15) 
{"0": {"label": "*3", "atom_type": "Cs"}, "1": {"label": "*4", "atom_type": "Cs"}, "16": {"label": "*0", "atom_type": "Cs"}, "17": {"label": "*1", "atom_type": "Cs"}, "26": {"label": "*2", "atom_type": "H0"}}

>  <type>  (15) 
unop_11

>  <geom_source>  (15) 
Heuristics

$$$$

     RDKit          3D

 28 26  0  0  0  0  0  0  0  0999 V2000
    0.1421   -0.6337    1.8741 C   0  0  0  0  0  0  0  0  0  0  0  0
   -0.7352   -1.1446    0.7431 C   0  0  0  0  0  0  0  0  0  0  0  0
   -1.2507    0.1132   -0.4529 S   0  0  0  0  0  0  0  0  0  0  0  0
   -2.1762    1.2714    0.5864 C   0  0  0  0  0  0  0  0  0  0  0  0
   -3.3890    0.6791    1.2850 C   0  0  0  0  0  0  0  0  0  0  0  0
   -0.3991    0.0640    2.5154 H   0  0  0  0  0  0  0  0  0  0  0  0
    0.4740   -1.4645    2.5007 H   0  0  0  0  0  0  0  0  0  0  0  0
   -1.6158   -1.6572    1.1336 H   0  0  0  0  0  0  0  0  0  0  0  0
   -0.1914   -1.8712    0.1372 H   0  0  0  0  0  0  0  0  0  0  0  0
   -1.4992    1.7346    1.3060 H   0  0  0  0  0  0  0  0  0  0  0  0
   -2.4816    2.0559   -0.1079 H   0  0  0  0  0  0  0  0  0  0  0  0
   -3.0990   -0.0797    2.0139 H   0  0  0  0  0  0  0  0  0  0  0  0
   -3.9344    1.4580    1.8224 H   0  0  0  0  0  0  0  0  0  0  0  0
   -4.0653    0.2161    0.5656 H   0  0  0  0  0  0  0  0  0  0  0  0
    2.2557   -0.8052   -2.7071 C   0  0  0  0  0  0  0  0  0  0  0  0
    2.2557   -0.8052   -1.1844 C   0  0  0  0  0  0  0  0  0  0  0  0
    2.2557    0.5972   -0.5870 C   0  0  0  0  0  0  0  0  0  0  0  0
    2.2557    0.5972    0.9357 C   0  0  0  0  0  3  0  0  0  0  0  0
    3.1373   -0.2918   -3.0985 H   0  0  0  0  0  0  0  0  0  0  0  0
    1.3742   -0.2918   -3.0985 H   0  0  0  0  0  0  0  0  0  0  0  0
    2.2557   -1.8203   -3.1075 H   0  0  0  0  0  0  0  0  0  0  0  0
    1.3807   -1.3511   -0.8171 H   0  0  0  0  0  0  0  0  0  0  0  0
    3.1308   -1.3511   -0.8171 H   0  0  0  0  0  0  0  0  0  0  0  0
    1.3807    1.1431   -0.9543 H   0  0  0  0  0  0  0  0  0  0  0  0
    3.1308    1.1431   -0.9543 H   0  0  0  0  0  0  0  0  0  0  0  0
    3.1373    0.0838    1.3270 H   0  0  0  0  0  0  0  0  0  0  0  0
    1.1979   -0.0188    1.4053 H   0  0  0  0  0  0  0  0  0  0  0  0
    2.2557    1.6123    1.3360 H   0  0  0  0  0  0  0  0  0  0  0  0
  1  2  1  0
  1  6  1  0
  1  7  1  0
  1 27  1  0
  2  3  1  0
  2  8  1  0
  2  9  1  0
  3  4  1  0
  4  5  1  0
  4 10  1  0
  4 11  1  0
  5 12  1  0
  5 13  1  0
  5 14  1  0
 15 16  1  0
 15 19  1  0
 15 20  1  0
 15 21  1  0
 16 17  1  0
 16 22  1  0
 16 23  1  0
 17 18  1  0
 17 24  1  0
 17 25  1  0
 18 26  1  0
 18 28  1  0
M  RAD  1  18   2
M  END
>  <reaction>  (16) 
rmg_rxn_34

>  <mol_properties>  (16) 
{"0": {"label": "*3", "atom_type": "Cs"}, "1": {"label": "*4", "atom_type": "Cs"}, "16": {"label": "*0", "atom_type": "Cs"}, "17": {"label": "*1", "atom_type": "Cs"}, "26": {"label": "*2", "atom_type": "H0"}}

>  <type>  (16) 
unop_12

>  <geom_source>  (16) 
Heuristics

$$$$

     RDKit          3D

 28 26  0  0  0  0  0  0  0  0999 V2000
   -1.7074    1.0954    0.1931 S   0  0  0  0  0  0  0  0  0  0  0  0
    2.5097    0.1087    1.3567 C   0  0  0  0  0  0  0  0  0  0  0  0
    2.2326   -1.2102    0.6240 C   0  0  0  0  0  0  0  0  0  0  0  0
   -3.5078    0.9559    0.4773 C   0  0  0  0  0  0  0  0  0  0  0  0
   -1.7089    0.2946   -1.4474 C   0  0  0  0  0  0  0  0  0  0  0  0
    3.7165    0.8551    0.7887 C   0  0  0  0  0  0  0  0  0  0  0  0
   -3.8501   -0.3797    1.1245 C   0  0  0  0  0  0  0  0  0  0  0  0
   -0.2886    0.2207   -1.9836 C   0  0  0  0  0  0  0  0  0  0  0  0
    1.6706   -0.9784   -0.7744 C   0  0  0  0  0  3  0  0  0  0  0  0
    2.7116   -0.1180    2.4261 H   0  0  0  0  0  0  0  0  0  0  0  0
    1.6121    0.7637    1.3139 H   0  0  0  0  0  0  0  0  0  0  0  0
    1.4814   -1.7840    1.2082 H   0  0  0  0  0  0  0  0  0  0  0  0
    3.1576   -1.8240    0.5631 H   0  0  0  0  0  0  0  0  0  0  0  0
   -4.0745    1.0779   -0.4702 H   0  0  0  0  0  0  0  0  0  0  0  0
   -3.8131    1.7734    1.1639 H   0  0  0  0  0  0  0  0  0  0  0  0
   -2.3343    0.8835   -2.1516 H   0  0  0  0  0  0  0  0  0  0  0  0
   -2.1174   -0.7340   -1.3678 H   0  0  0  0  0  0  0  0  0  0  0  0
   -3.5910   -1.2195    0.4474 H   0  0  0  0  0  0  0  0  0  0  0  0
   -3.2951   -0.4949    2.0796 H   0  0  0  0  0  0  0  0  0  0  0  0
   -4.9390   -0.4207    1.3379 H   0  0  0  0  0  0  0  0  0  0  0  0
    0.1345    1.2422   -2.0896 H   0  0  0  0  0  0  0  0  0  0  0  0
   -0.2895   -0.2723   -2.9785 H   0  0  0  0  0  0  0  0  0  0  0  0
    0.4709   -0.4864   -1.1539 H   0  0  0  0  0  0  0  0  0  0  0  0
    4.6147    0.2016    0.7933 H   0  0  0  0  0  0  0  0  0  0  0  0
    3.5144    1.1985   -0.2471 H   0  0  0  0  0  0  0  0  0  0  0  0
    3.9263    1.7477    1.4149 H   0  0  0  0  0  0  0  0  0  0  0  0
    2.4476   -0.5571   -1.4456 H   0  0  0  0  0  0  0  0  0  0  0  0
    1.3161   -1.9396   -1.2027 H   0  0  0  0  0  0  0  0  0  0  0  0
  1  4  1  0
  1  5  1  0
  2  6  1  0
  2  3  1  0
  2 10  1  0
  2 11  1  0
  3  9  1  0
  3 12  1  0
  3 13  1  0
  4  7  1  0
  4 14  1  0
  4 15  1  0
  5  8  1  0
  5 16  1  0
  5 17  1  0
  6 24  1  0
  6 25  1  0
  6 26  1  0
  7 18  1  0
  7 19  1  0
  7 20  1  0
  8 21  1  0
  8 22  1  0
  8 23  1  0
  9 27  1  0
  9 28  1  0
M  RAD  1   9   2
M  END
>  <reaction>  (17) 
rmg_rxn_34

>  <mol_properties>  (17) 
{"0": {"label": "*3", "atom_type": "Cs"}, "1": {"label": "*4", "atom_type": "Cs"}, "16": {"label": "*0", "atom_type": "Cs"}, "17": {"label": "*1", "atom_type": "Cs"}, "26": {"label": "*2", "atom_type": "H0"}}

>  <type>  (17) 
unop_13

>  <geom_source>  (17) 
AutoTST

$$$$

     RDKit          3D

 28 26  0  0  0  0  0  0  0  0999 V2000
    0.1228    0.0118    1.9755 C   0  0  0  0  0  0  0  0  0  0  0  0
   -0.3384   -1.0781    1.0221 C   0  0  0  0  0  0  0  0  0  0  0  0
   -1.1438   -0.4839   -0.4867 S   0  0  0  0  0  0  0  0  0  0  0  0
   -2.5681    0.4195    0.1714 C   0  0  0  0  0  0  0  0  0  0  0  0
   -3.5360   -0.4173    0.9917 C   0  0  0  0  0  0  0  0  0  0  0  0
   -0.7223    0.5666    2.3868 H   0  0  0  0  0  0  0  0  0  0  0  0
    0.6676   -0.4252    2.8153 H   0  0  0  0  0  0  0  0  0  0  0  0
   -0.9945   -1.7876    1.5289 H   0  0  0  0  0  0  0  0  0  0  0  0
    0.5157   -1.6482    0.6530 H   0  0  0  0  0  0  0  0  0  0  0  0
   -2.2194    1.2826    0.7408 H   0  0  0  0  0  0  0  0  0  0  0  0
   -3.0622    0.8097   -0.7199 H   0  0  0  0  0  0  0  0  0  0  0  0
   -3.0703   -0.7824    1.9086 H   0  0  0  0  0  0  0  0  0  0  0  0
   -4.4031    0.1809    1.2803 H   0  0  0  0  0  0  0  0  0  0  0  0
   -3.8841   -1.2799    0.4224 H   0  0  0  0  0  0  0  0  0  0  0  0
    2.2365   -0.1596   -2.6056 C   0  0  0  0  0  0  0  0  0  0  0  0
    2.2365   -0.1596   -1.0829 C   0  0  0  0  0  0  0  0  0  0  0  0
    2.2365    1.2427   -0.4856 C   0  0  0  0  0  0  0  0  0  0  0  0
    2.2365    1.2427    1.0371 C   0  0  0  0  0  3  0  0  0  0  0  0
    3.1180    0.3537   -2.9970 H   0  0  0  0  0  0  0  0  0  0  0  0
    1.3549    0.3537   -2.9970 H   0  0  0  0  0  0  0  0  0  0  0  0
    2.2365   -1.1747   -3.0060 H   0  0  0  0  0  0  0  0  0  0  0  0
    1.3614   -0.7055   -0.7156 H   0  0  0  0  0  0  0  0  0  0  0  0
    3.1115   -0.7055   -0.7156 H   0  0  0  0  0  0  0  0  0  0  0  0
    1.3614    1.7886   -0.8529 H   0  0  0  0  0  0  0  0  0  0  0  0
    3.1115    1.7886   -0.8529 H   0  0  0  0  0  0  0  0  0  0  0  0
    3.1180    0.7294    1.4285 H   0  0  0  0  0  0  0  0  0  0  0  0
    1.1786    0.6267    1.5068 H   0  0  0  0  0  0  0  0  0  0  0  0
    2.2365    2.2578    1.4375 H   0  0  0  0  0  0  0  0  0  0  0  0
  1  2  1  0
  1  6  1  0
  1  7  1  0
  1 27  1  0
  2  3  1  0
  2  8  1  0
  2  9  1  0
  3  4  1  0
  4  5  1  0
  4 10  1  0
  4 11  1  0
  5 12  1  0
  5 13  1  0
  5 14  1  0
 15 16  1  0
 15 19  1  0
 15 20  1  0
 15 21  1  0
 16 17  1  0
 16 22  1  0
 16 23  1  0
 17 18  1  0
 17 24  1  0
 17 25  1  0
 18 26  1  0
 18 28  1  0
M  RAD  1  18   2
M  END
>  <reaction>  (18) 
rmg_rxn_34

>  <mol_properties>  (18) 
{"0": {"label": "*3", "atom_type": "Cs"}, "1": {"label": "*4", "atom_type": "Cs"}, "16": {"label": "*0", "atom_type": "Cs"}, "17": {"label": "*1", "atom_type": "Cs"}, "26": {"label": "*2", "atom_type": "H0"}}

>  <type>  (18) 
unop_14

>  <geom_source>  (18) 
gaussian_log

$$$$
