
     RDKit          3D

 14 13  0  0  0  0  0  0  0  0999 V2000
    2.0971    0.1613   -0.6223 C   0  0  0  0  0  0  0  0  0  0  0  0
    1.5428   -0.7797    0.1293 C   0  0  0  0  0  0  0  0  0  0  0  0
    0.3488   -0.7496    0.7703 O   0  0  0  0  0  0  0  0  0  0  0  0
   -0.3508    0.4714    0.8111 C   0  0  0  0  0  0  0  0  0  0  0  0
   -0.8890    0.8565   -0.4033 O   0  0  0  0  0  0  0  0  0  0  0  0
   -1.8791   -0.0185   -0.8977 C   0  0  0  0  0  0  0  0  0  0  0  0
    1.6101    1.0955   -0.8606 H   0  0  0  0  0  0  0  0  0  0  0  0
    3.0772   -0.0240   -1.0369 H   0  0  0  0  0  0  0  0  0  0  0  0
    2.0343   -1.7274    0.3141 H   0  0  0  0  0  0  0  0  0  0  0  0
    0.3209    1.2758    1.1216 H   0  0  0  0  0  0  0  0  0  0  0  0
   -1.1355    0.3080    1.5577 H   0  0  0  0  0  0  0  0  0  0  0  0
   -2.6811   -0.1588   -0.1626 H   0  0  0  0  0  0  0  0  0  0  0  0
   -2.2911    0.4428   -1.7929 H   0  0  0  0  0  0  0  0  0  0  0  0
   -1.4587   -0.9943   -1.1544 H   0  0  0  0  0  0  0  0  0  0  0  0
  1  2  2  3
  1  7  1  0
  1  8  1  0
  2  3  1  0
  2  9  1  0
  3  4  1  0
  4  5  1  0
  4 10  1  0
  4 11  1  0
  5  6  1  0
  6 12  1  0
  6 13  1  0
  6 14  1  0
M  END
>  <reaction>  (1) 
rmg_rxn_15671

>  <mol_properties>  (1) 
{"5": {"label": "donator", "atom_type": "Cs"}, "11": {"label": "d_hydrogen", "atom_type": "H0"}}

>  <type>  (1) 
r1h

$$$$

     RDKit          3D

  8  7  0  0  0  0  0  0  0  0999 V2000
    1.7077   -0.1964   -0.0607 C   0  0  0  0  0  3  0  0  0  0  0  0
    0.4209   -0.4565    0.2808 O   0  0  0  0  0  0  0  0  0  0  0  0
   -0.4607    0.4385   -0.2968 N   0  0  0  0  0  0  0  0  0  0  0  0
   -1.6584    0.1416   -0.0244 C   0  0  0  0  0  0  0  0  0  0  0  0
    2.4163   -0.7685    0.5170 H   0  0  0  0  0  0  0  0  0  0  0  0
    1.9214    0.7645   -0.5045 H   0  0  0  0  0  0  0  0  0  0  0  0
   -2.4185    0.7953   -0.4307 H   0  0  0  0  0  0  0  0  0  0  0  0
   -1.9286   -0.7185    0.5831 H   0  0  0  0  0  0  0  0  0  0  0  0
  1  2  1  0
  1  5  1  0
  1  6  1  0
  2  3  1  0
  3  4  2  3
  4  7  1  0
  4  8  1  0
M  RAD  1   1   2
M  END
>  <reaction>  (2) 
rmg_rxn_15671

>  <mol_properties>  (2) 
{"0": {"label": "acceptor", "atom_type": "Cs"}}

>  <type>  (2) 
r2

$$$$

     RDKit          3D

  9  8  0  0  0  0  0  0  0  0999 V2000
   -1.5470   -0.0755   -0.1976 C   0  0  0  0  0  0  0  0  0  0  0  0
   -0.2885    0.4507    0.1749 O   0  0  0  0  0  0  0  0  0  0  0  0
   -0.1502    1.7216   -0.3294 N   0  0  0  0  0  0  0  0  0  0  0  0
    0.9626    2.2353   -0.0219 C   0  0  0  0  0  0  0  0  0  0  0  0
   -1.6392   -0.1356   -1.2844 H   0  0  0  0  0  0  0  0  0  0  0  0
   -2.3597    0.5337    0.2044 H   0  0  0  0  0  0  0  0  0  0  0  0
   -1.5879   -1.0750    0.2318 H   0  0  0  0  0  0  0  0  0  0  0  0
    1.1497    3.2381   -0.3820 H   0  0  0  0  0  0  0  0  0  0  0  0
    1.7060    1.7101    0.5739 H   0  0  0  0  0  0  0  0  0  0  0  0
  1  2  1  0
  1  5  1  0
  1  6  1  0
  1  7  1  0
  2  3  1  0
  3  4  2  3
  4  8  1  0
  4  9  1  0
M  END
>  <reaction>  (3) 
rmg_rxn_15671

>  <mol_properties>  (3) 
{"0": {"label": "acceptor", "atom_type": "Cs"}, "8": {"label": "a_hydrogen", "atom_type": "H0"}}

>  <type>  (3) 
r2h

$$$$

     RDKit          3D

 22 20  0  0  0  0  0  0  0  0999 V2000
   -2.3325    1.4227   -0.2495 C   0  0  0  0  0  3  0  0  0  0  0  0
   -2.8955    0.2686    0.2841 O   0  0  0  0  0  0  0  0  0  0  0  0
   -2.3264   -0.8522   -0.2754 N   0  0  0  0  0  0  0  0  0  0  0  0
   -2.7850   -1.9176    0.2265 C   0  0  0  0  0  0  0  0  0  0  0  0
   -2.2391    1.3932   -1.3352 H   0  0  0  0  0  0  0  0  0  0  0  0
   -2.8911    2.2743    0.1288 H   0  0  0  0  0  0  0  0  0  0  0  0
   -2.3877   -2.8451   -0.1632 H   0  0  0  0  0  0  0  0  0  0  0  0
   -3.5385   -1.9189    1.0105 H   0  0  0  0  0  0  0  0  0  0  0  0
    3.8181   -0.0511   -0.0618 C   0  0  0  0  0  0  0  0  0  0  0  0
    2.9181   -0.9239    0.3694 C   0  0  0  0  0  0  0  0  0  0  0  0
    1.5835   -0.9418    0.1348 O   0  0  0  0  0  0  0  0  0  0  0  0
    1.0641   -0.0407   -0.8106 C   0  0  0  0  0  0  0  0  0  0  0  0
    1.0706    1.2846   -0.3770 O   0  0  0  0  0  0  0  0  0  0  0  0
    0.2156    1.5517    0.6795 C   0  0  0  0  0  0  0  0  0  0  0  0
    3.5670    0.8231   -0.6445 H   0  0  0  0  0  0  0  0  0  0  0  0
    4.8537   -0.2079    0.2023 H   0  0  0  0  0  0  0  0  0  0  0  0
    3.1922   -1.7665    0.9929 H   0  0  0  0  0  0  0  0  0  0  0  0
    0.0441   -0.3853   -0.9943 H   0  0  0  0  0  0  0  0  0  0  0  0
    1.6677   -0.0642   -1.7209 H   0  0  0  0  0  0  0  0  0  0  0  0
   -1.0554    1.5364    0.2305 H   0  0  0  0  0  0  0  0  0  0  0  0
    0.2497    0.8071    1.4769 H   0  0  0  0  0  0  0  0  0  0  0  0
    0.3876    2.5658    1.0310 H   0  0  0  0  0  0  0  0  0  0  0  0
  1  2  1  0
  1  5  1  0
  1  6  1  0
  2  3  1  0
  3  4  2  3
  4  7  1  0
  4  8  1  0
  9 10  2  3
  9 15  1  0
  9 16  1  0
 10 11  1  0
 10 17  1  0
 11 12  1  0
 12 13  1  0
 12 18  1  0
 12 19  1  0
 13 14  1  0
 14 20  1  0
 14 21  1  0
 14 22  1  0
M  RAD  1   1   2
M  END
>  <reaction>  (4) 
rmg_rxn_15671

>  <mol_properties>  (4) 
{"0": {"label": "*3", "atom_type": "Cs"}, "1": {"label": "*4", "atom_type": "O2s"}, "12": {"label": "*0", "atom_type": "O2s"}, "13": {"label": "*1", "atom_type": "Cs"}, "19": {"label": "*2", "atom_type": "H0"}}

>  <type>  (4) 
ts

$$$$

     RDKit          3D

 22 20  0  0  0  0  0  0  0  0999 V2000
   -2.2973    1.4844   -0.0704 C   0  0  0  0  0  0  0  0  0  0  0  0
   -2.7609    0.2610    0.3893 O   0  0  0  0  0  0  0  0  0  0  0  0
   -2.3006   -0.7962   -0.3703 N   0  0  0  0  0  0  0  0  0  0  0  0
   -2.6619   -1.9471    0.0074 C   0  0  0  0  0  0  0  0  0  0  0  0
   -2.3116    1.5738   -1.1546 H   0  0  0  0  0  0  0  0  0  0  0  0
   -2.8565    2.2597    0.4409 H   0  0  0  0  0  0  0  0  0  0  0  0
   -2.3087   -2.7763   -0.5787 H   0  0  0  0  0  0  0  0  0  0  0  0
   -3.2948   -2.1360    0.8684 H   0  0  0  0  0  0  0  0  0  0  0  0
    3.7344   -0.1066   -0.1197 C   0  0  0  0  0  0  0  0  0  0  0  0
    2.8552   -0.8870    0.4827 C   0  0  0  0  0  0  0  0  0  0  0  0
    1.5044   -0.9412    0.2946 O   0  0  0  0  0  0  0  0  0  0  0  0
    0.9519   -0.1634   -0.7300 C   0  0  0  0  0  0  0  0  0  0  0  0
    1.0106    1.2128   -0.4961 O   0  0  0  0  0  0  0  0  0  0  0  0
    0.2708    1.6503    0.5991 C   0  0  0  0  0  3  0  0  0  0  0  0
    3.4581    0.6302   -0.8519 H   0  0  0  0  0  0  0  0  0  0  0  0
    4.7764   -0.1824    0.1281 H   0  0  0  0  0  0  0  0  0  0  0  0
    3.1350   -1.6088    1.2382 H   0  0  0  0  0  0  0  0  0  0  0  0
   -0.0924   -0.5068   -0.8129 H   0  0  0  0  0  0  0  0  0  0  0  0
    1.4855   -0.3245   -1.6765 H   0  0  0  0  0  0  0  0  0  0  0  0
   -1.0223    1.6170    0.2816 H   0  0  0  0  0  0  0  0  0  0  0  0
    0.3791    1.0129    1.4761 H   0  0  0  0  0  0  0  0  0  0  0  0
    0.5262    2.6867    0.7899 H   0  0  0  0  0  0  0  0  0  0  0  0
  1  2  1  0
  1  5  1  0
  1  6  1  0
  1 20  1  0
  2  3  1  0
  3  4  2  3
  4  7  1  0
  4  8  1  0
  9 10  2  3
  9 15  1  0
  9 16  1  0
 10 11  1  0
 10 17  1  0
 11 12  1  0
 12 13  1  0
 12 18  1  0
 12 19  1  0
 13 14  1  0
 14 21  1  0
 14 22  1  0
M  RAD  1  14   2
M  END
>  <reaction>  (5) 
rmg_rxn_15671

>  <mol_properties>  (5) 
{"0": {"label": "*3", "atom_type": "Cs"}, "1": {"label": "*4", "atom_type": "O2s"}, "12": {"label": "*0", "atom_type": "O2s"}, "13": {"label": "*1", "atom_type": "Cs"}, "19": {"label": "*2", "atom_type": "H0"}}

>  <type>  (5) 
unop_1

>  <geom_source>  (5) 
crest_best.xyz

$$$$

     RDKit          3D

 22 20  0  0  0  0  0  0  0  0999 V2000
   -0.2539    1.3040    1.2603 C   0  0  0  0  0  0  0  0  0  0  0  0
   -1.1176    2.4086    1.0772 O   0  0  0  0  0  0  0  0  0  0  0  0
   -1.6077    2.8198    2.2935 N   0  0  0  0  0  0  0  0  0  0  0  0
   -2.3872    3.8080    2.1811 C   0  0  0  0  0  0  0  0  0  0  0  0
    0.5973    1.5737    1.8895 H   0  0  0  0  0  0  0  0  0  0  0  0
   -0.7863    0.4618    1.7078 H   0  0  0  0  0  0  0  0  0  0  0  0
   -2.8168    4.1932    3.0962 H   0  0  0  0  0  0  0  0  0  0  0  0
   -2.6250    4.2608    1.2209 H   0  0  0  0  0  0  0  0  0  0  0  0
    1.3622   -3.2914   -2.4096 C   0  0  0  0  0  0  0  0  0  0  0  0
    1.3622   -3.2914   -1.0838 C   0  0  0  0  0  0  0  0  0  0  0  0
    1.3622   -2.2285   -0.2426 O   0  0  0  0  0  0  0  0  0  0  0  0
    1.5543   -0.9472   -0.7937 C   0  0  0  0  0  0  0  0  0  0  0  0
    0.4808   -0.4810   -1.5305 O   0  0  0  0  0  0  0  0  0  0  0  0
   -0.6956   -0.2890   -0.7758 C   0  0  0  0  0  3  0  0  0  0  0  0
    1.3126   -2.3911   -3.0042 H   0  0  0  0  0  0  0  0  0  0  0  0
    1.3907   -4.2415   -2.9229 H   0  0  0  0  0  0  0  0  0  0  0  0
    1.3654   -4.2115   -0.5118 H   0  0  0  0  0  0  0  0  0  0  0  0
    2.4134   -0.9570   -1.4694 H   0  0  0  0  0  0  0  0  0  0  0  0
    1.7471   -0.3066    0.0736 H   0  0  0  0  0  0  0  0  0  0  0  0
   -0.4739    0.5105    0.2461 H   0  0  0  0  0  0  0  0  0  0  0  0
   -1.4254    0.1715   -1.4384 H   0  0  0  0  0  0  0  0  0  0  0  0
   -1.0920   -1.2375   -0.4045 H   0  0  0  0  0  0  0  0  0  0  0  0
  1  2  1  0
  1  5  1  0
  1  6  1  0
  1 20  1  0
  2  3  1  0
  3  4  2  3
  4  7  1  0
  4  8  1  0
  9 10  2  3
  9 15  1  0
  9 16  1  0
 10 11  1  0
 10 17  1  0
 11 12  1  0
 12 13  1  0
 12 18  1  0
 12 19  1  0
 13 14  1  0
 14 21  1  0
 14 22  1  0
M  RAD  1  14   2
M  END
>  <reaction>  (6) 
rmg_rxn_15671

>  <mol_properties>  (6) 
{"0": {"label": "*3", "atom_type": "Cs"}, "1": {"label": "*4", "atom_type": "O2s"}, "12": {"label": "*0", "atom_type": "O2s"}, "13": {"label": "*1", "atom_type": "Cs"}, "19": {"label": "*2", "atom_type": "H0"}}

>  <type>  (6) 
unop_2

>  <geom_source>  (6) 
Heuristics

$$$$

     RDKit          3D

 22 20  0  0  0  0  0  0  0  0999 V2000
   -1.3281    0.4215    1.1975 C   0  0  0  0  0  0  0  0  0  0  0  0
   -2.6216    0.3692    0.6997 O   0  0  0  0  0  0  0  0  0  0  0  0
   -2.9357   -0.4051   -0.3611 N   0  0  0  0  0  0  0  0  0  0  0  0
   -2.0671   -1.0423   -1.0196 C   0  0  0  0  0  0  0  0  0  0  0  0
   -1.3704    0.9792    2.1265 H   0  0  0  0  0  0  0  0  0  0  0  0
   -0.8499   -0.5517    1.3064 H   0  0  0  0  0  0  0  0  0  0  0  0
   -2.4469   -1.6310   -1.8364 H   0  0  0  0  0  0  0  0  0  0  0  0
   -0.9933   -1.0449   -0.8536 H   0  0  0  0  0  0  0  0  0  0  0  0
    1.5691   -1.9500   -0.4904 C   0  0  0  0  0  0  0  0  0  0  0  0
    1.7142   -1.3469    0.6765 C   0  0  0  0  0  0  0  0  0  0  0  0
    1.9860   -0.0312    0.9197 O   0  0  0  0  0  0  0  0  0  0  0  0
    2.2716    0.7919   -0.1766 C   0  0  0  0  0  0  0  0  0  0  0  0
    1.1888    1.0258   -1.0169 O   0  0  0  0  0  0  0  0  0  0  0  0
    0.1770    1.8284   -0.4861 C   0  0  0  0  0  3  0  0  0  0  0  0
    1.6449   -1.4330   -1.4303 H   0  0  0  0  0  0  0  0  0  0  0  0
    1.3608   -3.0029   -0.5275 H   0  0  0  0  0  0  0  0  0  0  0  0
    1.6209   -1.8676    1.6202 H   0  0  0  0  0  0  0  0  0  0  0  0
    3.0495    0.3415   -0.8089 H   0  0  0  0  0  0  0  0  0  0  0  0
    2.6379    1.7293    0.2687 H   0  0  0  0  0  0  0  0  0  0  0  0
   -0.5598    1.1280    0.3726 H   0  0  0  0  0  0  0  0  0  0  0  0
    0.5608    2.6817    0.0740 H   0  0  0  0  0  0  0  0  0  0  0  0
   -0.4847    2.1132   -1.2974 H   0  0  0  0  0  0  0  0  0  0  0  0
  1  2  1  0
  1  5  1  0
  1  6  1  0
  1 20  1  0
  2  3  1  0
  3  4  2  3
  4  7  1  0
  4  8  1  0
  9 10  2  3
  9 15  1  0
  9 16  1  0
 10 11  1  0
 10 17  1  0
 11 12  1  0
 12 13  1  0
 12 18  1  0
 12 19  1  0
 13 14  1  0
 14 21  1  0
 14 22  1  0
M  RAD  1  14   2
M  END
>  <reaction>  (7) 
rmg_rxn_15671

>  <mol_properties>  (7) 
{"0": {"label": "*3", "atom_type": "Cs"}, "1": {"label": "*4", "atom_type": "O2s"}, "12": {"label": "*0", "atom_type": "O2s"}, "13": {"label": "*1", "atom_type": "Cs"}, "19": {"label": "*2", "atom_type": "H0"}}

>  <type>  (7) 
unop_3

>  <geom_source>  (7) 
Heuristics

$$$$

     RDKit          3D

 22 20  0  0  0  0  0  0  0  0999 V2000
    1.3318    0.4308    1.1945 C   0  0  0  0  0  0  0  0  0  0  0  0
    2.6239    0.3715    0.6940 O   0  0  0  0  0  0  0  0  0  0  0  0
    2.9338   -0.4128   -0.3608 N   0  0  0  0  0  0  0  0  0  0  0  0
    2.0622   -1.0533   -1.0120 C   0  0  0  0  0  0  0  0  0  0  0  0
    0.8515   -0.5403    1.3124 H   0  0  0  0  0  0  0  0  0  0  0  0
    1.3777    0.9958    2.1189 H   0  0  0  0  0  0  0  0  0  0  0  0
    2.4387   -1.6503   -1.8243 H   0  0  0  0  0  0  0  0  0  0  0  0
    0.9887   -1.0519   -0.8436 H   0  0  0  0  0  0  0  0  0  0  0  0
   -1.5796   -1.9496   -0.4896 C   0  0  0  0  0  0  0  0  0  0  0  0
   -1.7152   -1.3462    0.6783 C   0  0  0  0  0  0  0  0  0  0  0  0
   -1.9789   -0.0291    0.9233 O   0  0  0  0  0  0  0  0  0  0  0  0
   -2.2685    0.7949   -0.1712 C   0  0  0  0  0  0  0  0  0  0  0  0
   -1.1900    1.0252   -1.0180 O   0  0  0  0  0  0  0  0  0  0  0  0
   -0.1747    1.8287   -0.4954 C   0  0  0  0  0  3  0  0  0  0  0  0
   -1.6577   -1.4318   -1.4289 H   0  0  0  0  0  0  0  0  0  0  0  0
   -1.3773   -3.0037   -0.5283 H   0  0  0  0  0  0  0  0  0  0  0  0
   -1.6193   -1.8677    1.6213 H   0  0  0  0  0  0  0  0  0  0  0  0
   -2.6289    1.7336    0.2763 H   0  0  0  0  0  0  0  0  0  0  0  0
   -3.0518    0.3471   -0.7986 H   0  0  0  0  0  0  0  0  0  0  0  0
    0.5631    1.1331    0.3662 H   0  0  0  0  0  0  0  0  0  0  0  0
    0.4852    2.1066   -1.3105 H   0  0  0  0  0  0  0  0  0  0  0  0
   -0.5550    2.6866    0.0602 H   0  0  0  0  0  0  0  0  0  0  0  0
  1  2  1  0
  1  5  1  0
  1  6  1  0
  1 20  1  0
  2  3  1  0
  3  4  2  3
  4  7  1  0
  4  8  1  0
  9 10  2  3
  9 15  1  0
  9 16  1  0
 10 11  1  0
 10 17  1  0
 11 12  1  0
 12 13  1  0
 12 18  1  0
 12 19  1  0
 13 14  1  0
 14 21  1  0
 14 22  1  0
M  RAD  1  14   2
M  END
>  <reaction>  (8) 
rmg_rxn_15671

>  <mol_properties>  (8) 
{"0": {"label": "*3", "atom_type": "Cs"}, "1": {"label": "*4", "atom_type": "O2s"}, "12": {"label": "*0", "atom_type": "O2s"}, "13": {"label": "*1", "atom_type": "Cs"}, "19": {"label": "*2", "atom_type": "H0"}}

>  <type>  (8) 
unop_4

>  <geom_source>  (8) 
Heuristics

$$$$

     RDKit          3D

 22 20  0  0  0  0  0  0  0  0999 V2000
   -1.0874    1.2527    1.4307 C   0  0  0  0  0  0  0  0  0  0  0  0
   -0.0541    2.1252    1.0177 O   0  0  0  0  0  0  0  0  0  0  0  0
   -0.0339    3.2353    1.8277 N   0  0  0  0  0  0  0  0  0  0  0  0
    0.8759    4.0473    1.4967 C   0  0  0  0  0  0  0  0  0  0  0  0
   -0.9263    0.9145    2.4568 H   0  0  0  0  0  0  0  0  0  0  0  0
   -2.0627    1.7388    1.3555 H   0  0  0  0  0  0  0  0  0  0  0  0
    0.9585    4.9499    2.0872 H   0  0  0  0  0  0  0  0  0  0  0  0
    1.5506    3.8638    0.6632 H   0  0  0  0  0  0  0  0  0  0  0  0
    0.5287   -3.3428   -2.2392 C   0  0  0  0  0  0  0  0  0  0  0  0
    0.5287   -3.3428   -0.9133 C   0  0  0  0  0  0  0  0  0  0  0  0
    0.5287   -2.2799   -0.0722 O   0  0  0  0  0  0  0  0  0  0  0  0
    0.7208   -0.9986   -0.6233 C   0  0  0  0  0  0  0  0  0  0  0  0
   -0.3527   -0.5324   -1.3600 O   0  0  0  0  0  0  0  0  0  0  0  0
   -1.5291   -0.3403   -0.6053 C   0  0  0  0  0  3  0  0  0  0  0  0
    0.4790   -2.4424   -2.8337 H   0  0  0  0  0  0  0  0  0  0  0  0
    0.5571   -4.2929   -2.7525 H   0  0  0  0  0  0  0  0  0  0  0  0
    0.5319   -4.2629   -0.3414 H   0  0  0  0  0  0  0  0  0  0  0  0
    1.5799   -1.0084   -1.2990 H   0  0  0  0  0  0  0  0  0  0  0  0
    0.9136   -0.3580    0.2441 H   0  0  0  0  0  0  0  0  0  0  0  0
   -1.3074    0.4592    0.4165 H   0  0  0  0  0  0  0  0  0  0  0  0
   -2.2589    0.1201   -1.2680 H   0  0  0  0  0  0  0  0  0  0  0  0
   -1.9255   -1.2889   -0.2340 H   0  0  0  0  0  0  0  0  0  0  0  0
  1  2  1  0
  1  5  1  0
  1  6  1  0
  1 20  1  0
  2  3  1  0
  3  4  2  3
  4  7  1  0
  4  8  1  0
  9 10  2  3
  9 15  1  0
  9 16  1  0
 10 11  1  0
 10 17  1  0
 11 12  1  0
 12 13  1  0
 12 18  1  0
 12 19  1  0
 13 14  1  0
 14 21  1  0
 14 22  1  0
M  RAD  1  14   2
M  END
>  <reaction>  (9) 
rmg_rxn_15671

>  <mol_properties>  (9) 
{"0": {"label": "*3", "atom_type": "Cs"}, "1": {"label": "*4", "atom_type": "O2s"}, "12": {"label": "*0", "atom_type": "O2s"}, "13": {"label": "*1", "atom_type": "Cs"}, "19": {"label": "*2", "atom_type": "H0"}}

>  <type>  (9) 
unop_5

>  <geom_source>  (9) 
Heuristics

$$$$

     RDKit          3D

 22 20  0  0  0  0  0  0  0  0999 V2000
    2.5501    1.4626   -0.1596 C   0  0  0  0  0  0  0  0  0  0  0  0
    2.9979    0.2069    0.2749 O   0  0  0  0  0  0  0  0  0  0  0  0
    2.2453   -0.8120   -0.2811 N   0  0  0  0  0  0  0  0  0  0  0  0
    2.5796   -1.9841    0.0323 C   0  0  0  0  0  0  0  0  0  0  0  0
    2.9680    2.2153    0.4757 H   0  0  0  0  0  0  0  0  0  0  0  0
    2.7215    1.6392   -1.2182 H   0  0  0  0  0  0  0  0  0  0  0  0
    1.9956   -2.7816   -0.3926 H   0  0  0  0  0  0  0  0  0  0  0  0
    3.4052   -2.2286    0.6938 H   0  0  0  0  0  0  0  0  0  0  0  0
   -3.7927   -0.0413   -0.2134 C   0  0  0  0  0  0  0  0  0  0  0  0
   -2.9628   -0.8506    0.4200 C   0  0  0  0  0  0  0  0  0  0  0  0
   -1.6052   -0.9309    0.3014 O   0  0  0  0  0  0  0  0  0  0  0  0
   -0.9844   -0.1464   -0.6763 C   0  0  0  0  0  0  0  0  0  0  0  0
   -1.0352    1.2275   -0.4167 O   0  0  0  0  0  0  0  0  0  0  0  0
   -0.3765    1.6383    0.7116 C   0  0  0  0  0  3  0  0  0  0  0  0
   -3.4646    0.7014   -0.9181 H   0  0  0  0  0  0  0  0  0  0  0  0
   -4.8475   -0.0979   -0.0213 H   0  0  0  0  0  0  0  0  0  0  0  0
   -3.2968   -1.5784    1.1469 H   0  0  0  0  0  0  0  0  0  0  0  0
   -1.4669   -0.2801   -1.6544 H   0  0  0  0  0  0  0  0  0  0  0  0
    0.0602   -0.4975   -0.7046 H   0  0  0  0  0  0  0  0  0  0  0  0
    1.4934    1.6742    0.1419 H   0  0  0  0  0  0  0  0  0  0  0  0
   -0.5829    2.6673    0.9463 H   0  0  0  0  0  0  0  0  0  0  0  0
   -0.2692    0.9231    1.5121 H   0  0  0  0  0  0  0  0  0  0  0  0
  1  2  1  0
  1  5  1  0
  1  6  1  0
  1 20  1  0
  2  3  1  0
  3  4  2  3
  4  7  1  0
  4  8  1  0
  9 10  2  3
  9 15  1  0
  9 16  1  0
 10 11  1  0
 10 17  1  0
 11 12  1  0
 12 13  1  0
 12 18  1  0
 12 19  1  0
 13 14  1  0
 14 21  1  0
 14 22  1  0
M  RAD  1  14   2
M  END
>  <reaction>  (10) 
rmg_rxn_15671

>  <mol_properties>  (10) 
{"0": {"label": "*3", "atom_type": "Cs"}, "1": {"label": "*4", "atom_type": "O2s"}, "12": {"label": "*0", "atom_type": "O2s"}, "13": {"label": "*1", "atom_type": "Cs"}, "19": {"label": "*2", "atom_type": "H0"}}

>  <type>  (10) 
unop_6

>  <geom_source>  (10) 
Heuristics

$$$$

     RDKit          3D

 22 20  0  0  0  0  0  0  0  0999 V2000
   -0.1997    1.4776    1.0782 C   0  0  0  0  0  0  0  0  0  0  0  0
   -1.4234    2.1456    1.3149 O   0  0  0  0  0  0  0  0  0  0  0  0
   -1.4939    2.5300    2.6324 N   0  0  0  0  0  0  0  0  0  0  0  0
   -2.5733    3.1330    2.8934 C   0  0  0  0  0  0  0  0  0  0  0  0
    0.6494    2.1344    1.2805 H   0  0  0  0  0  0  0  0  0  0  0  0
   -0.1202    0.5784    1.6931 H   0  0  0  0  0  0  0  0  0  0  0  0
   -2.7066    3.4693    3.9129 H   0  0  0  0  0  0  0  0  0  0  0  0
   -3.3402    3.3132    2.1431 H   0  0  0  0  0  0  0  0  0  0  0  0
    1.4163   -3.1178   -2.5917 C   0  0  0  0  0  0  0  0  0  0  0  0
    1.4163   -3.1178   -1.2658 C   0  0  0  0  0  0  0  0  0  0  0  0
    1.4163   -2.0549   -0.4247 O   0  0  0  0  0  0  0  0  0  0  0  0
    1.6085   -0.7736   -0.9758 C   0  0  0  0  0  0  0  0  0  0  0  0
    0.5350   -0.3074   -1.7125 O   0  0  0  0  0  0  0  0  0  0  0  0
   -0.6414   -0.1154   -0.9578 C   0  0  0  0  0  3  0  0  0  0  0  0
    1.3667   -2.2175   -3.1862 H   0  0  0  0  0  0  0  0  0  0  0  0
    1.4448   -4.0679   -3.1050 H   0  0  0  0  0  0  0  0  0  0  0  0
    1.4195   -4.0379   -0.6939 H   0  0  0  0  0  0  0  0  0  0  0  0
    2.4676   -0.7834   -1.6515 H   0  0  0  0  0  0  0  0  0  0  0  0
    1.8013   -0.1330   -0.1084 H   0  0  0  0  0  0  0  0  0  0  0  0
   -0.4197    0.6841    0.0640 H   0  0  0  0  0  0  0  0  0  0  0  0
   -1.3712    0.3451   -1.6205 H   0  0  0  0  0  0  0  0  0  0  0  0
   -1.0378   -1.0639   -0.5865 H   0  0  0  0  0  0  0  0  0  0  0  0
  1  2  1  0
  1  5  1  0
  1  6  1  0
  1 20  1  0
  2  3  1  0
  3  4  2  3
  4  7  1  0
  4  8  1  0
  9 10  2  3
  9 15  1  0
  9 16  1  0
 10 11  1  0
 10 17  1  0
 11 12  1  0
 12 13  1  0
 12 18  1  0
 12 19  1  0
 13 14  1  0
 14 21  1  0
 14 22  1  0
M  RAD  1  14   2
M  END
>  <reaction>  (11) 
rmg_rxn_15671

>  <mol_properties>  (11) 
{"0": {"label": "*3", "atom_type": "Cs"}, "1": {"label": "*4", "atom_type": "O2s"}, "12": {"label": "*0", "atom_type": "O2s"}, "13": {"label": "*1", "atom_type": "Cs"}, "19": {"label": "*2", "atom_type": "H0"}}

>  <type>  (11) 
unop_7

>  <geom_source>  (11) 
Heuristics

$$$$

     RDKit          3D

 22 20  0  0  0  0  0  0  0  0999 V2000
   -1.0303    1.9974    0.8675 C   0  0  0  0  0  0  0  0  0  0  0  0
   -0.0374    1.3586    1.6458 O   0  0  0  0  0  0  0  0  0  0  0  0
   -0.2235    1.6615    2.9734 N   0  0  0  0  0  0  0  0  0  0  0  0
    0.6425    1.1116    3.7112 C   0  0  0  0  0  0  0  0  0  0  0  0
   -2.0285    1.6565    1.1512 H   0  0  0  0  0  0  0  0  0  0  0  0
   -0.9715    3.0830    0.9738 H   0  0  0  0  0  0  0  0  0  0  0  0
    0.5651    1.3010    4.7735 H   0  0  0  0  0  0  0  0  0  0  0  0
    1.4324    0.4771    3.3150 H   0  0  0  0  0  0  0  0  0  0  0  0
    0.5858   -2.5980   -2.8023 C   0  0  0  0  0  0  0  0  0  0  0  0
    0.5858   -2.5980   -1.4765 C   0  0  0  0  0  0  0  0  0  0  0  0
    0.5858   -1.5351   -0.6354 O   0  0  0  0  0  0  0  0  0  0  0  0
    0.7779   -0.2538   -1.1864 C   0  0  0  0  0  0  0  0  0  0  0  0
   -0.2956    0.2124   -1.9232 O   0  0  0  0  0  0  0  0  0  0  0  0
   -1.4720    0.4044   -1.1685 C   0  0  0  0  0  3  0  0  0  0  0  0
    0.5362   -1.6977   -3.3969 H   0  0  0  0  0  0  0  0  0  0  0  0
    0.6143   -3.5481   -3.3156 H   0  0  0  0  0  0  0  0  0  0  0  0
    0.5890   -3.5181   -0.9045 H   0  0  0  0  0  0  0  0  0  0  0  0
    1.6370   -0.2636   -1.8621 H   0  0  0  0  0  0  0  0  0  0  0  0
    0.9707    0.3868   -0.3191 H   0  0  0  0  0  0  0  0  0  0  0  0
   -1.2503    1.2039   -0.1466 H   0  0  0  0  0  0  0  0  0  0  0  0
   -2.2018    0.8649   -1.8311 H   0  0  0  0  0  0  0  0  0  0  0  0
   -1.8684   -0.5441   -0.7972 H   0  0  0  0  0  0  0  0  0  0  0  0
  1  2  1  0
  1  5  1  0
  1  6  1  0
  1 20  1  0
  2  3  1  0
  3  4  2  3
  4  7  1  0
  4  8  1  0
  9 10  2  3
  9 15  1  0
  9 16  1  0
 10 11  1  0
 10 17  1  0
 11 12  1  0
 12 13  1  0
 12 18  1  0
 12 19  1  0
 13 14  1  0
 14 21  1  0
 14 22  1  0
M  RAD  1  14   2
M  END
>  <reaction>  (12) 
rmg_rxn_15671

>  <mol_properties>  (12) 
{"0": {"label": "*3", "atom_type": "Cs"}, "1": {"label": "*4", "atom_type": "O2s"}, "12": {"label": "*0", "atom_type": "O2s"}, "13": {"label": "*1", "atom_type": "Cs"}, "19": {"label": "*2", "atom_type": "H0"}}

>  <type>  (12) 
unop_8

>  <geom_source>  (12) 
Heuristics

$$$$

     RDKit          3D

 22 20  0  0  0  0  0  0  0  0999 V2000
   -2.5299    1.4798    0.1493 C   0  0  0  0  0  0  0  0  0  0  0  0
   -3.0576    0.2275   -0.2003 O   0  0  0  0  0  0  0  0  0  0  0  0
   -2.2526   -0.8020    0.2417 N   0  0  0  0  0  0  0  0  0  0  0  0
   -2.6357   -1.9689   -0.0369 C   0  0  0  0  0  0  0  0  0  0  0  0
   -3.2379    2.2318   -0.1714 H   0  0  0  0  0  0  0  0  0  0  0  0
   -2.2355    1.5680    1.1768 H   0  0  0  0  0  0  0  0  0  0  0  0
   -2.0106   -2.7753    0.3042 H   0  0  0  0  0  0  0  0  0  0  0  0
   -3.5415   -2.1993   -0.5891 H   0  0  0  0  0  0  0  0  0  0  0  0
    3.8033    0.0089    0.2832 C   0  0  0  0  0  0  0  0  0  0  0  0
    3.0259   -0.8127   -0.3991 C   0  0  0  0  0  0  0  0  0  0  0  0
    1.6681   -0.9391   -0.3363 O   0  0  0  0  0  0  0  0  0  0  0  0
    0.9837   -0.1952    0.6304 C   0  0  0  0  0  0  0  0  0  0  0  0
    1.0022    1.1850    0.4010 O   0  0  0  0  0  0  0  0  0  0  0  0
    0.3741    1.6001   -0.7443 C   0  0  0  0  0  3  0  0  0  0  0  0
    3.4237    0.7253    0.9892 H   0  0  0  0  0  0  0  0  0  0  0  0
    4.8661   -0.0095    0.1318 H   0  0  0  0  0  0  0  0  0  0  0  0
    3.4117   -1.5133   -1.1271 H   0  0  0  0  0  0  0  0  0  0  0  0
    1.4298   -0.3351    1.6249 H   0  0  0  0  0  0  0  0  0  0  0  0
   -0.0497   -0.5780    0.6085 H   0  0  0  0  0  0  0  0  0  0  0  0
   -1.4930    1.6545   -0.2370 H   0  0  0  0  0  0  0  0  0  0  0  0
    0.5781    2.6333   -0.9628 H   0  0  0  0  0  0  0  0  0  0  0  0
    0.3048    0.8925   -1.5555 H   0  0  0  0  0  0  0  0  0  0  0  0
  1  2  1  0
  1  5  1  0
  1  6  1  0
  1 20  1  0
  2  3  1  0
  3  4  2  3
  4  7  1  0
  4  8  1  0
  9 10  2  3
  9 15  1  0
  9 16  1  0
 10 11  1  0
 10 17  1  0
 11 12  1  0
 12 13  1  0
 12 18  1  0
 12 19  1  0
 13 14  1  0
 14 21  1  0
 14 22  1  0
M  RAD  1  14   2
M  END
>  <reaction>  (13) 
rmg_rxn_15671

>  <mol_properties>  (13) 
{"0": {"label": "*3", "atom_type": "Cs"}, "1": {"label": "*4", "atom_type": "O2s"}, "12": {"label": "*0", "atom_type": "O2s"}, "13": {"label": "*1", "atom_type": "Cs"}, "19": {"label": "*2", "atom_type": "H0"}}

>  <type>  (13) 
unop_9

>  <geom_source>  (13) 
Heuristics

$$$$

     RDKit          3D

 22 20  0  0  0  0  0  0  0  0999 V2000
   -0.2364    1.6021    0.9559 C   0  0  0  0  0  0  0  0  0  0  0  0
   -1.4749    1.7168    1.6287 O   0  0  0  0  0  0  0  0  0  0  0  0
   -1.3349    2.5414    2.7192 N   0  0  0  0  0  0  0  0  0  0  0  0
   -2.4189    2.6753    3.3547 C   0  0  0  0  0  0  0  0  0  0  0  0
    0.1049    2.5756    0.5970 H   0  0  0  0  0  0  0  0  0  0  0  0
    0.5238    1.1667    1.6085 H   0  0  0  0  0  0  0  0  0  0  0  0
   -2.3927    3.3112    4.2295 H   0  0  0  0  0  0  0  0  0  0  0  0
   -3.3407    2.1835    3.0515 H   0  0  0  0  0  0  0  0  0  0  0  0
    1.3796   -2.9934   -2.7139 C   0  0  0  0  0  0  0  0  0  0  0  0
    1.3796   -2.9934   -1.3881 C   0  0  0  0  0  0  0  0  0  0  0  0
    1.3796   -1.9304   -0.5470 O   0  0  0  0  0  0  0  0  0  0  0  0
    1.5718   -0.6492   -1.0980 C   0  0  0  0  0  0  0  0  0  0  0  0
    0.4983   -0.1830   -1.8348 O   0  0  0  0  0  0  0  0  0  0  0  0
   -0.6781    0.0091   -1.0801 C   0  0  0  0  0  3  0  0  0  0  0  0
    1.3300   -2.0930   -3.3085 H   0  0  0  0  0  0  0  0  0  0  0  0
    1.4081   -3.9435   -3.2272 H   0  0  0  0  0  0  0  0  0  0  0  0
    1.3828   -3.9135   -0.8161 H   0  0  0  0  0  0  0  0  0  0  0  0
    2.4309   -0.6590   -1.7737 H   0  0  0  0  0  0  0  0  0  0  0  0
    1.7646   -0.0085   -0.2307 H   0  0  0  0  0  0  0  0  0  0  0  0
   -0.4564    0.8086   -0.0582 H   0  0  0  0  0  0  0  0  0  0  0  0
   -1.4079    0.4695   -1.7428 H   0  0  0  0  0  0  0  0  0  0  0  0
   -1.0745   -0.9395   -0.7088 H   0  0  0  0  0  0  0  0  0  0  0  0
  1  2  1  0
  1  5  1  0
  1  6  1  0
  1 20  1  0
  2  3  1  0
  3  4  2  3
  4  7  1  0
  4  8  1  0
  9 10  2  3
  9 15  1  0
  9 16  1  0
 10 11  1  0
 10 17  1  0
 11 12  1  0
 12 13  1  0
 12 18  1  0
 12 19  1  0
 13 14  1  0
 14 21  1  0
 14 22  1  0
M  RAD  1  14   2
M  END
>  <reaction>  (14) 
rmg_rxn_15671

>  <mol_properties>  (14) 
{"0": {"label": "*3", "atom_type": "Cs"}, "1": {"label": "*4", "atom_type": "O2s"}, "12": {"label": "*0", "atom_type": "O2s"}, "13": {"label": "*1", "atom_type": "Cs"}, "19": {"label": "*2", "atom_type": "H0"}}

>  <type>  (14) 
unop_10

>  <geom_source>  (14) 
Heuristics

$$$$

     RDKit          3D

 22 20  0  0  0  0  0  0  0  0999 V2000
   -2.2977    1.4851    0.0665 C   0  0  0  0  0  0  0  0  0  0  0  0
   -2.7588    0.2606   -0.3929 O   0  0  0  0  0  0  0  0  0  0  0  0
   -2.3043   -0.7947    0.3725 N   0  0  0  0  0  0  0  0  0  0  0  0
   -2.6630   -1.9465   -0.0052 C   0  0  0  0  0  0  0  0  0  0  0  0
   -2.8547    2.2592   -0.4488 H   0  0  0  0  0  0  0  0  0  0  0  0
   -2.3168    1.5765    1.1504 H   0  0  0  0  0  0  0  0  0  0  0  0
   -2.3148   -2.7744    0.5858 H   0  0  0  0  0  0  0  0  0  0  0  0
   -3.2892   -2.1374   -0.8707 H   0  0  0  0  0  0  0  0  0  0  0  0
    3.7348   -0.1075    0.1193 C   0  0  0  0  0  0  0  0  0  0  0  0
    2.8552   -0.8859   -0.4853 C   0  0  0  0  0  0  0  0  0  0  0  0
    1.5044   -0.9404   -0.2969 O   0  0  0  0  0  0  0  0  0  0  0  0
    0.9524   -0.1658    0.7302 C   0  0  0  0  0  0  0  0  0  0  0  0
    1.0106    1.2111    0.5004 O   0  0  0  0  0  0  0  0  0  0  0  0
    0.2726    1.6512   -0.5950 C   0  0  0  0  0  3  0  0  0  0  0  0
    3.4588    0.6271    0.8538 H   0  0  0  0  0  0  0  0  0  0  0  0
    4.7766   -0.1824   -0.1293 H   0  0  0  0  0  0  0  0  0  0  0  0
    3.1346   -1.6052   -1.2433 H   0  0  0  0  0  0  0  0  0  0  0  0
    1.4865   -0.3296    1.6760 H   0  0  0  0  0  0  0  0  0  0  0  0
   -0.0918   -0.5096    0.8129 H   0  0  0  0  0  0  0  0  0  0  0  0
   -1.0212    1.6174   -0.2804 H   0  0  0  0  0  0  0  0  0  0  0  0
    0.5282    2.6882   -0.7827 H   0  0  0  0  0  0  0  0  0  0  0  0
    0.3825    1.0160   -1.4733 H   0  0  0  0  0  0  0  0  0  0  0  0
  1  2  1  0
  1  5  1  0
  1  6  1  0
  1 20  1  0
  2  3  1  0
  3  4  2  3
  4  7  1  0
  4  8  1  0
  9 10  2  3
  9 15  1  0
  9 16  1  0
 10 11  1  0
 10 17  1  0
 11 12  1  0
 12 13  1  0
 12 18  1  0
 12 19  1  0
 13 14  1  0
 14 21  1  0
 14 22  1  0
M  RAD  1  14   2
M  END
>  <reaction>  (15) 
rmg_rxn_15671

>  <mol_properties>  (15) 
{"0": {"label": "*3", "atom_type": "Cs"}, "1": {"label": "*4", "atom_type": "O2s"}, "12": {"label": "*0", "atom_type": "O2s"}, "13": {"label": "*1", "atom_type": "Cs"}, "19": {"label": "*2", "atom_type": "H0"}}

>  <type>  (15) 
unop_11

>  <geom_source>  (15) 
Heuristics

$$$$

     RDKit          3D

 22 20  0  0  0  0  0  0  0  0999 V2000
   -0.7234    2.0434    0.7866 C   0  0  0  0  0  0  0  0  0  0  0  0
   -0.3393    1.2015    1.8558 O   0  0  0  0  0  0  0  0  0  0  0  0
   -0.8848    1.6647    3.0290 N   0  0  0  0  0  0  0  0  0  0  0  0
   -0.5687    0.9426    4.0166 C   0  0  0  0  0  0  0  0  0  0  0  0
   -1.8093    2.0543    0.6686 H   0  0  0  0  0  0  0  0  0  0  0  0
   -0.3630    3.0626    0.9429 H   0  0  0  0  0  0  0  0  0  0  0  0
   -0.9595    1.2409    4.9802 H   0  0  0  0  0  0  0  0  0  0  0  0
    0.0632    0.0623    3.9206 H   0  0  0  0  0  0  0  0  0  0  0  0
    0.8927   -2.5521   -2.8833 C   0  0  0  0  0  0  0  0  0  0  0  0
    0.8927   -2.5521   -1.5575 C   0  0  0  0  0  0  0  0  0  0  0  0
    0.8927   -1.4892   -0.7164 O   0  0  0  0  0  0  0  0  0  0  0  0
    1.0848   -0.2079   -1.2674 C   0  0  0  0  0  0  0  0  0  0  0  0
    0.0113    0.2583   -2.0042 O   0  0  0  0  0  0  0  0  0  0  0  0
   -1.1651    0.4503   -1.2495 C   0  0  0  0  0  3  0  0  0  0  0  0
    0.8430   -1.6517   -3.4779 H   0  0  0  0  0  0  0  0  0  0  0  0
    0.9212   -3.5022   -3.3966 H   0  0  0  0  0  0  0  0  0  0  0  0
    0.8959   -3.4722   -0.9855 H   0  0  0  0  0  0  0  0  0  0  0  0
    1.9439   -0.2177   -1.9431 H   0  0  0  0  0  0  0  0  0  0  0  0
    1.2776    0.4327   -0.4001 H   0  0  0  0  0  0  0  0  0  0  0  0
   -0.9434    1.2499   -0.2276 H   0  0  0  0  0  0  0  0  0  0  0  0
   -1.8949    0.9108   -1.9121 H   0  0  0  0  0  0  0  0  0  0  0  0
   -1.5615   -0.4982   -0.8782 H   0  0  0  0  0  0  0  0  0  0  0  0
  1  2  1  0
  1  5  1  0
  1  6  1  0
  1 20  1  0
  2  3  1  0
  3  4  2  3
  4  7  1  0
  4  8  1  0
  9 10  2  3
  9 15  1  0
  9 16  1  0
 10 11  1  0
 10 17  1  0
 11 12  1  0
 12 13  1  0
 12 18  1  0
 12 19  1  0
 13 14  1  0
 14 21  1  0
 14 22  1  0
M  RAD  1  14   2
M  END
>  <reaction>  (16) 
rmg_rxn_15671

>  <mol_properties>  (16) 
{"0": {"label": "*3", "atom_type": "Cs"}, "1": {"label": "*4", "atom_type": "O2s"}, "12": {"label": "*0", "atom_type": "O2s"}, "13": {"label": "*1", "atom_type": "Cs"}, "19": {"label": "*2", "atom_type": "H0"}}

>  <type>  (16) 
unop_12

>  <geom_source>  (16) 
Heuristics

$$$$

     RDKit          3D

 22 20  0  0  0  0  0  0  0  0999 V2000
   -2.2980   -1.4839   -0.0759 C   0  0  0  0  0  0  0  0  0  0  0  0
   -2.7650   -0.2620    0.3844 O   0  0  0  0  0  0  0  0  0  0  0  0
   -2.2997    0.7977   -0.3686 N   0  0  0  0  0  0  0  0  0  0  0  0
   -2.6636    1.9474    0.0104 C   0  0  0  0  0  0  0  0  0  0  0  0
   -2.8594   -2.2608    0.4303 H   0  0  0  0  0  0  0  0  0  0  0  0
   -2.3065   -1.5705   -1.1603 H   0  0  0  0  0  0  0  0  0  0  0  0
   -2.3061    2.7785   -0.5704 H   0  0  0  0  0  0  0  0  0  0  0  0
   -3.3022    2.1334    0.8676 H   0  0  0  0  0  0  0  0  0  0  0  0
    3.7364    0.1038   -0.1236 C   0  0  0  0  0  0  0  0  0  0  0  0
    2.8593    0.8861    0.4795 C   0  0  0  0  0  0  0  0  0  0  0  0
    1.5082    0.9418    0.2941 O   0  0  0  0  0  0  0  0  0  0  0  0
    0.9527    0.1624   -0.7278 C   0  0  0  0  0  0  0  0  0  0  0  0
    1.0098   -1.2132   -0.4903 O   0  0  0  0  0  0  0  0  0  0  0  0
    0.2674   -1.6473    0.6044 C   0  0  0  0  0  3  0  0  0  0  0  0
    3.4577   -0.6338   -0.8541 H   0  0  0  0  0  0  0  0  0  0  0  0
    4.7789    0.1787    0.1219 H   0  0  0  0  0  0  0  0  0  0  0  0
    3.1415    1.6085    1.2335 H   0  0  0  0  0  0  0  0  0  0  0  0
    1.4849    0.3205   -1.6755 H   0  0  0  0  0  0  0  0  0  0  0  0
   -0.0912    0.5072   -0.8096 H   0  0  0  0  0  0  0  0  0  0  0  0
   -1.0247   -1.6157    0.2823 H   0  0  0  0  0  0  0  0  0  0  0  0
    0.5226   -2.6829    0.7997 H   0  0  0  0  0  0  0  0  0  0  0  0
    0.3727   -1.0066    1.4793 H   0  0  0  0  0  0  0  0  0  0  0  0
  1  2  1  0
  1  5  1  0
  1  6  1  0
  1 20  1  0
  2  3  1  0
  3  4  2  3
  4  7  1  0
  4  8  1  0
  9 10  2  3
  9 15  1  0
  9 16  1  0
 10 11  1  0
 10 17  1  0
 11 12  1  0
 12 13  1  0
 12 18  1  0
 12 19  1  0
 13 14  1  0
 14 21  1  0
 14 22  1  0
M  RAD  1  14   2
M  END
>  <reaction>  (17) 
rmg_rxn_15671

>  <mol_properties>  (17) 
{"0": {"label": "*3", "atom_type": "Cs"}, "1": {"label": "*4", "atom_type": "O2s"}, "12": {"label": "*0", "atom_type": "O2s"}, "13": {"label": "*1", "atom_type": "Cs"}, "19": {"label": "*2", "atom_type": "H0"}}

>  <type>  (17) 
unop_13

>  <geom_source>  (17) 
Heuristics

$$$$

     RDKit          3D

 22 20  0  0  0  0  0  0  0  0999 V2000
   -0.4434    1.9417    0.8025 C   0  0  0  0  0  0  0  0  0  0  0  0
   -0.7537    1.1847    1.9559 O   0  0  0  0  0  0  0  0  0  0  0  0
   -1.3611    1.9903    2.8890 N   0  0  0  0  0  0  0  0  0  0  0  0
   -1.6583    1.3566    3.9411 C   0  0  0  0  0  0  0  0  0  0  0  0
   -1.3486    2.3531    0.3500 H   0  0  0  0  0  0  0  0  0  0  0  0
    0.2464    2.7540    1.0422 H   0  0  0  0  0  0  0  0  0  0  0  0
   -2.1414    1.9214    4.7271 H   0  0  0  0  0  0  0  0  0  0  0  0
   -1.4464    0.2970    4.0666 H   0  0  0  0  0  0  0  0  0  0  0  0
    1.1726   -2.6538   -2.8674 C   0  0  0  0  0  0  0  0  0  0  0  0
    1.1726   -2.6538   -1.5415 C   0  0  0  0  0  0  0  0  0  0  0  0
    1.1726   -1.5908   -0.7004 O   0  0  0  0  0  0  0  0  0  0  0  0
    1.3647   -0.3096   -1.2515 C   0  0  0  0  0  0  0  0  0  0  0  0
    0.2913    0.1566   -1.9882 O   0  0  0  0  0  0  0  0  0  0  0  0
   -0.8851    0.3487   -1.2335 C   0  0  0  0  0  3  0  0  0  0  0  0
    1.1230   -1.7534   -3.4619 H   0  0  0  0  0  0  0  0  0  0  0  0
    1.2011   -3.6039   -3.3807 H   0  0  0  0  0  0  0  0  0  0  0  0
    1.1758   -3.5739   -0.9696 H   0  0  0  0  0  0  0  0  0  0  0  0
    2.2238   -0.3194   -1.9272 H   0  0  0  0  0  0  0  0  0  0  0  0
    1.5575    0.3311   -0.3841 H   0  0  0  0  0  0  0  0  0  0  0  0
   -0.6635    1.1482   -0.2117 H   0  0  0  0  0  0  0  0  0  0  0  0
   -1.6150    0.8092   -1.8962 H   0  0  0  0  0  0  0  0  0  0  0  0
   -1.2816   -0.5999   -0.8622 H   0  0  0  0  0  0  0  0  0  0  0  0
  1  2  1  0
  1  5  1  0
  1  6  1  0
  1 20  1  0
  2  3  1  0
  3  4  2  3
  4  7  1  0
  4  8  1  0
  9 10  2  3
  9 15  1  0
  9 16  1  0
 10 11  1  0
 10 17  1  0
 11 12  1  0
 12 13  1  0
 12 18  1  0
 12 19  1  0
 13 14  1  0
 14 21  1  0
 14 22  1  0
M  RAD  1  14   2
M  END
>  <reaction>  (18) 
rmg_rxn_15671

>  <mol_properties>  (18) 
{"0": {"label": "*3", "atom_type": "Cs"}, "1": {"label": "*4", "atom_type": "O2s"}, "12": {"label": "*0", "atom_type": "O2s"}, "13": {"label": "*1", "atom_type": "Cs"}, "19": {"label": "*2", "atom_type": "H0"}}

>  <type>  (18) 
unop_14

>  <geom_source>  (18) 
Heuristics

$$$$

     RDKit          3D

 22 20  0  0  0  0  0  0  0  0999 V2000
    2.5497    1.4611   -0.1538 C   0  0  0  0  0  0  0  0  0  0  0  0
    2.9921    0.2037    0.2804 O   0  0  0  0  0  0  0  0  0  0  0  0
    2.2422   -0.8125   -0.2844 N   0  0  0  0  0  0  0  0  0  0  0  0
    2.5724   -1.9861    0.0275 C   0  0  0  0  0  0  0  0  0  0  0  0
    2.9560    2.2118    0.4906 H   0  0  0  0  0  0  0  0  0  0  0  0
    2.7320    1.6430   -1.2095 H   0  0  0  0  0  0  0  0  0  0  0  0
    1.9901   -2.7811   -0.4043 H   0  0  0  0  0  0  0  0  0  0  0  0
    3.3930   -2.2344    0.6940 H   0  0  0  0  0  0  0  0  0  0  0  0
   -3.7896   -0.0508   -0.2130 C   0  0  0  0  0  0  0  0  0  0  0  0
   -2.9556   -0.8522    0.4251 C   0  0  0  0  0  0  0  0  0  0  0  0
   -1.5977   -0.9270    0.3061 O   0  0  0  0  0  0  0  0  0  0  0  0
   -0.9810   -0.1451   -0.6762 C   0  0  0  0  0  0  0  0  0  0  0  0
   -1.0359    1.2300   -0.4233 O   0  0  0  0  0  0  0  0  0  0  0  0
   -0.3798    1.6479    0.7039 C   0  0  0  0  0  3  0  0  0  0  0  0
   -3.4654    0.6889   -0.9225 H   0  0  0  0  0  0  0  0  0  0  0  0
   -4.8440   -0.1112   -0.0199 H   0  0  0  0  0  0  0  0  0  0  0  0
   -3.2856   -1.5768    1.1570 H   0  0  0  0  0  0  0  0  0  0  0  0
   -1.4643   -0.2851   -1.6530 H   0  0  0  0  0  0  0  0  0  0  0  0
    0.0647   -0.4928   -0.7045 H   0  0  0  0  0  0  0  0  0  0  0  0
    1.4924    1.6757    0.1406 H   0  0  0  0  0  0  0  0  0  0  0  0
   -0.5864    2.6785    0.9312 H   0  0  0  0  0  0  0  0  0  0  0  0
   -0.2753    0.9379    1.5094 H   0  0  0  0  0  0  0  0  0  0  0  0
  1  2  1  0
  1  5  1  0
  1  6  1  0
  1 20  1  0
  2  3  1  0
  3  4  2  3
  4  7  1  0
  4  8  1  0
  9 10  2  3
  9 15  1  0
  9 16  1  0
 10 11  1  0
 10 17  1  0
 11 12  1  0
 12 13  1  0
 12 18  1  0
 12 19  1  0
 13 14  1  0
 14 21  1  0
 14 22  1  0
M  RAD  1  14   2
M  END
>  <reaction>  (19) 
rmg_rxn_15671

>  <mol_properties>  (19) 
{"0": {"label": "*3", "atom_type": "Cs"}, "1": {"label": "*4", "atom_type": "O2s"}, "12": {"label": "*0", "atom_type": "O2s"}, "13": {"label": "*1", "atom_type": "Cs"}, "19": {"label": "*2", "atom_type": "H0"}}

>  <type>  (19) 
unop_15

>  <geom_source>  (19) 
Heuristics

$$$$

     RDKit          3D

 22 20  0  0  0  0  0  0  0  0999 V2000
   -0.4610    1.1609    1.4201 C   0  0  0  0  0  0  0  0  0  0  0  0
   -0.7160    2.4685    0.9461 O   0  0  0  0  0  0  0  0  0  0  0  0
   -1.3419    3.2022    1.9253 N   0  0  0  0  0  0  0  0  0  0  0  0
   -1.5912    4.3819    1.5474 C   0  0  0  0  0  0  0  0  0  0  0  0
    0.1959    1.1827    2.2925 H   0  0  0  0  0  0  0  0  0  0  0  0
   -1.3917    0.6499    1.6768 H   0  0  0  0  0  0  0  0  0  0  0  0
   -2.0848    5.0260    2.2629 H   0  0  0  0  0  0  0  0  0  0  0  0
   -1.3298    4.7478    0.5568 H   0  0  0  0  0  0  0  0  0  0  0  0
    1.1551   -3.4346   -2.2497 C   0  0  0  0  0  0  0  0  0  0  0  0
    1.1551   -3.4346   -0.9239 C   0  0  0  0  0  0  0  0  0  0  0  0
    1.1551   -2.3717   -0.0828 O   0  0  0  0  0  0  0  0  0  0  0  0
    1.3472   -1.0904   -0.6339 C   0  0  0  0  0  0  0  0  0  0  0  0
    0.2737   -0.6242   -1.3706 O   0  0  0  0  0  0  0  0  0  0  0  0
   -0.9027   -0.4321   -0.6159 C   0  0  0  0  0  3  0  0  0  0  0  0
    1.1054   -2.5342   -2.8443 H   0  0  0  0  0  0  0  0  0  0  0  0
    1.1835   -4.3847   -2.7630 H   0  0  0  0  0  0  0  0  0  0  0  0
    1.1582   -4.3547   -0.3520 H   0  0  0  0  0  0  0  0  0  0  0  0
    2.2063   -1.1002   -1.3096 H   0  0  0  0  0  0  0  0  0  0  0  0
    1.5400   -0.4497    0.2335 H   0  0  0  0  0  0  0  0  0  0  0  0
   -0.6810    0.3674    0.4059 H   0  0  0  0  0  0  0  0  0  0  0  0
   -1.6325    0.0283   -1.2786 H   0  0  0  0  0  0  0  0  0  0  0  0
   -1.2991   -1.3807   -0.2446 H   0  0  0  0  0  0  0  0  0  0  0  0
  1  2  1  0
  1  5  1  0
  1  6  1  0
  1 20  1  0
  2  3  1  0
  3  4  2  3
  4  7  1  0
  4  8  1  0
  9 10  2  3
  9 15  1  0
  9 16  1  0
 10 11  1  0
 10 17  1  0
 11 12  1  0
 12 13  1  0
 12 18  1  0
 12 19  1  0
 13 14  1  0
 14 21  1  0
 14 22  1  0
M  RAD  1  14   2
M  END
>  <reaction>  (20) 
rmg_rxn_15671

>  <mol_properties>  (20) 
{"0": {"label": "*3", "atom_type": "Cs"}, "1": {"label": "*4", "atom_type": "O2s"}, "12": {"label": "*0", "atom_type": "O2s"}, "13": {"label": "*1", "atom_type": "Cs"}, "19": {"label": "*2", "atom_type": "H0"}}

>  <type>  (20) 
unop_16

>  <geom_source>  (20) 
Heuristics

$$$$

     RDKit          3D

 22 20  0  0  0  0  0  0  0  0999 V2000
   -2.2973    1.4844   -0.0704 C   0  0  0  0  0  0  0  0  0  0  0  0
   -2.7609    0.2610    0.3893 O   0  0  0  0  0  0  0  0  0  0  0  0
   -2.3006   -0.7962   -0.3703 N   0  0  0  0  0  0  0  0  0  0  0  0
   -2.6619   -1.9471    0.0074 C   0  0  0  0  0  0  0  0  0  0  0  0
   -2.3116    1.5738   -1.1546 H   0  0  0  0  0  0  0  0  0  0  0  0
   -2.8565    2.2597    0.4409 H   0  0  0  0  0  0  0  0  0  0  0  0
   -2.3087   -2.7763   -0.5787 H   0  0  0  0  0  0  0  0  0  0  0  0
   -3.2948   -2.1360    0.8684 H   0  0  0  0  0  0  0  0  0  0  0  0
    3.7344   -0.1066   -0.1197 C   0  0  0  0  0  0  0  0  0  0  0  0
    2.8552   -0.8870    0.4827 C   0  0  0  0  0  0  0  0  0  0  0  0
    1.5044   -0.9412    0.2946 O   0  0  0  0  0  0  0  0  0  0  0  0
    0.9519   -0.1634   -0.7300 C   0  0  0  0  0  0  0  0  0  0  0  0
    1.0106    1.2128   -0.4961 O   0  0  0  0  0  0  0  0  0  0  0  0
    0.2708    1.6503    0.5991 C   0  0  0  0  0  3  0  0  0  0  0  0
    3.4581    0.6302   -0.8519 H   0  0  0  0  0  0  0  0  0  0  0  0
    4.7764   -0.1824    0.1281 H   0  0  0  0  0  0  0  0  0  0  0  0
    3.1350   -1.6088    1.2382 H   0  0  0  0  0  0  0  0  0  0  0  0
   -0.0924   -0.5068   -0.8129 H   0  0  0  0  0  0  0  0  0  0  0  0
    1.4855   -0.3245   -1.6765 H   0  0  0  0  0  0  0  0  0  0  0  0
   -1.0223    1.6170    0.2816 H   0  0  0  0  0  0  0  0  0  0  0  0
    0.3791    1.0129    1.4761 H   0  0  0  0  0  0  0  0  0  0  0  0
    0.5262    2.6867    0.7899 H   0  0  0  0  0  0  0  0  0  0  0  0
  1  2  1  0
  1  5  1  0
  1  6  1  0
  1 20  1  0
  2  3  1  0
  3  4  2  3
  4  7  1  0
  4  8  1  0
  9 10  2  3
  9 15  1  0
  9 16  1  0
 10 11  1  0
 10 17  1  0
 11 12  1  0
 12 13  1  0
 12 18  1  0
 12 19  1  0
 13 14  1  0
 14 21  1  0
 14 22  1  0
M  RAD  1  14   2
M  END
>  <reaction>  (21) 
rmg_rxn_15671

>  <mol_properties>  (21) 
{"0": {"label": "*3", "atom_type": "Cs"}, "1": {"label": "*4", "atom_type": "O2s"}, "12": {"label": "*0", "atom_type": "O2s"}, "13": {"label": "*1", "atom_type": "Cs"}, "19": {"label": "*2", "atom_type": "H0"}}

>  <type>  (21) 
unop_17

>  <geom_source>  (21) 
Heuristics

$$$$

     RDKit          3D

 22 20  0  0  0  0  0  0  0  0999 V2000
   -1.2495    1.7979    1.0392 C   0  0  0  0  0  0  0  0  0  0  0  0
    0.1033    1.5957    1.3978 O   0  0  0  0  0  0  0  0  0  0  0  0
    0.3173    2.0541    2.6756 N   0  0  0  0  0  0  0  0  0  0  0  0
    1.5160    1.8946    3.0422 C   0  0  0  0  0  0  0  0  0  0  0  0
   -1.9170    1.2489    1.7072 H   0  0  0  0  0  0  0  0  0  0  0  0
   -1.5047    2.8598    1.0602 H   0  0  0  0  0  0  0  0  0  0  0  0
    1.7669    2.2308    4.0393 H   0  0  0  0  0  0  0  0  0  0  0  0
    2.2701    1.4439    2.4005 H   0  0  0  0  0  0  0  0  0  0  0  0
    0.3666   -2.7975   -2.6306 C   0  0  0  0  0  0  0  0  0  0  0  0
    0.3666   -2.7975   -1.3048 C   0  0  0  0  0  0  0  0  0  0  0  0
    0.3666   -1.7346   -0.4637 O   0  0  0  0  0  0  0  0  0  0  0  0
    0.5587   -0.4534   -1.0147 C   0  0  0  0  0  0  0  0  0  0  0  0
   -0.5148    0.0129   -1.7515 O   0  0  0  0  0  0  0  0  0  0  0  0
   -1.6912    0.2049   -0.9968 C   0  0  0  0  0  3  0  0  0  0  0  0
    0.3169   -1.8972   -3.2252 H   0  0  0  0  0  0  0  0  0  0  0  0
    0.3950   -3.7476   -3.1439 H   0  0  0  0  0  0  0  0  0  0  0  0
    0.3698   -3.7176   -0.7328 H   0  0  0  0  0  0  0  0  0  0  0  0
    1.4178   -0.4632   -1.6904 H   0  0  0  0  0  0  0  0  0  0  0  0
    0.7515    0.1873   -0.1474 H   0  0  0  0  0  0  0  0  0  0  0  0
   -1.4695    1.0044    0.0251 H   0  0  0  0  0  0  0  0  0  0  0  0
   -2.4210    0.6654   -1.6595 H   0  0  0  0  0  0  0  0  0  0  0  0
   -2.0876   -0.7436   -0.6255 H   0  0  0  0  0  0  0  0  0  0  0  0
  1  2  1  0
  1  5  1  0
  1  6  1  0
  1 20  1  0
  2  3  1  0
  3  4  2  3
  4  7  1  0
  4  8  1  0
  9 10  2  3
  9 15  1  0
  9 16  1  0
 10 11  1  0
 10 17  1  0
 11 12  1  0
 12 13  1  0
 12 18  1  0
 12 19  1  0
 13 14  1  0
 14 21  1  0
 14 22  1  0
M  RAD  1  14   2
M  END
>  <reaction>  (22) 
rmg_rxn_15671

>  <mol_properties>  (22) 
{"0": {"label": "*3", "atom_type": "Cs"}, "1": {"label": "*4", "atom_type": "O2s"}, "12": {"label": "*0", "atom_type": "O2s"}, "13": {"label": "*1", "atom_type": "Cs"}, "19": {"label": "*2", "atom_type": "H0"}}

>  <type>  (22) 
unop_18

>  <geom_source>  (22) 
Heuristics

$$$$

     RDKit          3D

 22 20  0  0  0  0  0  0  0  0999 V2000
   -0.7727    1.1310    1.4896 C   0  0  0  0  0  0  0  0  0  0  0  0
   -0.3333    2.3537    0.9314 O   0  0  0  0  0  0  0  0  0  0  0  0
   -0.7399    3.3983    1.7265 N   0  0  0  0  0  0  0  0  0  0  0  0
   -0.3696    4.5158    1.2673 C   0  0  0  0  0  0  0  0  0  0  0  0
   -0.3462    0.9797    2.4838 H   0  0  0  0  0  0  0  0  0  0  0  0
   -1.8628    1.0990    1.5514 H   0  0  0  0  0  0  0  0  0  0  0  0
   -0.6509    5.3914    1.8369 H   0  0  0  0  0  0  0  0  0  0  0  0
    0.2034    4.6107    0.3474 H   0  0  0  0  0  0  0  0  0  0  0  0
    0.8434   -3.4645   -2.1802 C   0  0  0  0  0  0  0  0  0  0  0  0
    0.8434   -3.4645   -0.8544 C   0  0  0  0  0  0  0  0  0  0  0  0
    0.8434   -2.4016   -0.0133 O   0  0  0  0  0  0  0  0  0  0  0  0
    1.0355   -1.1203   -0.5644 C   0  0  0  0  0  0  0  0  0  0  0  0
   -0.0379   -0.6541   -1.3011 O   0  0  0  0  0  0  0  0  0  0  0  0
   -1.2144   -0.4621   -0.5464 C   0  0  0  0  0  3  0  0  0  0  0  0
    0.7938   -2.5641   -2.7748 H   0  0  0  0  0  0  0  0  0  0  0  0
    0.8719   -4.4146   -2.6935 H   0  0  0  0  0  0  0  0  0  0  0  0
    0.8466   -4.3846   -0.2825 H   0  0  0  0  0  0  0  0  0  0  0  0
    1.8946   -1.1301   -1.2401 H   0  0  0  0  0  0  0  0  0  0  0  0
    1.2283   -0.4797    0.3030 H   0  0  0  0  0  0  0  0  0  0  0  0
   -0.9927    0.3375    0.4754 H   0  0  0  0  0  0  0  0  0  0  0  0
   -1.9442   -0.0016   -1.2091 H   0  0  0  0  0  0  0  0  0  0  0  0
   -1.6108   -1.4106   -0.1751 H   0  0  0  0  0  0  0  0  0  0  0  0
  1  2  1  0
  1  5  1  0
  1  6  1  0
  1 20  1  0
  2  3  1  0
  3  4  2  3
  4  7  1  0
  4  8  1  0
  9 10  2  3
  9 15  1  0
  9 16  1  0
 10 11  1  0
 10 17  1  0
 11 12  1  0
 12 13  1  0
 12 18  1  0
 12 19  1  0
 13 14  1  0
 14 21  1  0
 14 22  1  0
M  RAD  1  14   2
M  END
>  <reaction>  (23) 
rmg_rxn_15671

>  <mol_properties>  (23) 
{"0": {"label": "*3", "atom_type": "Cs"}, "1": {"label": "*4", "atom_type": "O2s"}, "12": {"label": "*0", "atom_type": "O2s"}, "13": {"label": "*1", "atom_type": "Cs"}, "19": {"label": "*2", "atom_type": "H0"}}

>  <type>  (23) 
unop_19

>  <geom_source>  (23) 
Heuristics

$$$$

     RDKit          3D

 22 20  0  0  0  0  0  0  0  0999 V2000
   -0.2824    1.7559    0.8784 C   0  0  0  0  0  0  0  0  0  0  0  0
   -1.1866    1.3491    1.8867 O   0  0  0  0  0  0  0  0  0  0  0  0
   -1.4576    2.4076    2.7203 N   0  0  0  0  0  0  0  0  0  0  0  0
   -2.2638    2.0920    3.6407 C   0  0  0  0  0  0  0  0  0  0  0  0
   -0.7087    2.5581    0.2719 H   0  0  0  0  0  0  0  0  0  0  0  0
    0.6627    2.0895    1.3127 H   0  0  0  0  0  0  0  0  0  0  0  0
   -2.5291    2.8723    4.3415 H   0  0  0  0  0  0  0  0  0  0  0  0
   -2.6796    1.0914    3.7382 H   0  0  0  0  0  0  0  0  0  0  0  0
    1.3336   -2.8396   -2.7914 C   0  0  0  0  0  0  0  0  0  0  0  0
    1.3336   -2.8396   -1.4656 C   0  0  0  0  0  0  0  0  0  0  0  0
    1.3336   -1.7767   -0.6245 O   0  0  0  0  0  0  0  0  0  0  0  0
    1.5258   -0.4954   -1.1755 C   0  0  0  0  0  0  0  0  0  0  0  0
    0.4523   -0.0292   -1.9123 O   0  0  0  0  0  0  0  0  0  0  0  0
   -0.7241    0.1629   -1.1576 C   0  0  0  0  0  3  0  0  0  0  0  0
    1.2840   -1.9392   -3.3860 H   0  0  0  0  0  0  0  0  0  0  0  0
    1.3621   -3.7897   -3.3047 H   0  0  0  0  0  0  0  0  0  0  0  0
    1.3368   -3.7597   -0.8936 H   0  0  0  0  0  0  0  0  0  0  0  0
    2.3848   -0.5052   -1.8512 H   0  0  0  0  0  0  0  0  0  0  0  0
    1.7185    0.1452   -0.3082 H   0  0  0  0  0  0  0  0  0  0  0  0
   -0.5024    0.9624   -0.1357 H   0  0  0  0  0  0  0  0  0  0  0  0
   -1.4540    0.6233   -1.8203 H   0  0  0  0  0  0  0  0  0  0  0  0
   -1.1205   -0.7857   -0.7863 H   0  0  0  0  0  0  0  0  0  0  0  0
  1  2  1  0
  1  5  1  0
  1  6  1  0
  1 20  1  0
  2  3  1  0
  3  4  2  3
  4  7  1  0
  4  8  1  0
  9 10  2  3
  9 15  1  0
  9 16  1  0
 10 11  1  0
 10 17  1  0
 11 12  1  0
 12 13  1  0
 12 18  1  0
 12 19  1  0
 13 14  1  0
 14 21  1  0
 14 22  1  0
M  RAD  1  14   2
M  END
>  <reaction>  (24) 
rmg_rxn_15671

>  <mol_properties>  (24) 
{"0": {"label": "*3", "atom_type": "Cs"}, "1": {"label": "*4", "atom_type": "O2s"}, "12": {"label": "*0", "atom_type": "O2s"}, "13": {"label": "*1", "atom_type": "Cs"}, "19": {"label": "*2", "atom_type": "H0"}}

>  <type>  (24) 
unop_20

>  <geom_source>  (24) 
Heuristics

$$$$

     RDKit          3D

 22 20  0  0  0  0  0  0  0  0999 V2000
   -1.2769    1.5078    1.2555 C   0  0  0  0  0  0  0  0  0  0  0  0
    0.0907    1.8587    1.1780 O   0  0  0  0  0  0  0  0  0  0  0  0
    0.4125    2.6998    2.2162 N   0  0  0  0  0  0  0  0  0  0  0  0
    1.6286    3.0422    2.1895 C   0  0  0  0  0  0  0  0  0  0  0  0
   -1.4936    0.9839    2.1892 H   0  0  0  0  0  0  0  0  0  0  0  0
   -1.9124    2.3928    1.1777 H   0  0  0  0  0  0  0  0  0  0  0  0
    1.9627    3.7059    2.9757 H   0  0  0  0  0  0  0  0  0  0  0  0
    2.3182    2.6965    1.4224 H   0  0  0  0  0  0  0  0  0  0  0  0
    0.3391   -3.0877   -2.4144 C   0  0  0  0  0  0  0  0  0  0  0  0
    0.3391   -3.0877   -1.0885 C   0  0  0  0  0  0  0  0  0  0  0  0
    0.3391   -2.0248   -0.2474 O   0  0  0  0  0  0  0  0  0  0  0  0
    0.5312   -0.7435   -0.7985 C   0  0  0  0  0  0  0  0  0  0  0  0
   -0.5422   -0.2773   -1.5353 O   0  0  0  0  0  0  0  0  0  0  0  0
   -1.7186   -0.0852   -0.7805 C   0  0  0  0  0  3  0  0  0  0  0  0
    0.2895   -2.1873   -3.0089 H   0  0  0  0  0  0  0  0  0  0  0  0
    0.3676   -4.0378   -2.9277 H   0  0  0  0  0  0  0  0  0  0  0  0
    0.3423   -4.0078   -0.5166 H   0  0  0  0  0  0  0  0  0  0  0  0
    1.3903   -0.7533   -1.4742 H   0  0  0  0  0  0  0  0  0  0  0  0
    0.7240   -0.1029    0.0688 H   0  0  0  0  0  0  0  0  0  0  0  0
   -1.4970    0.7143    0.2413 H   0  0  0  0  0  0  0  0  0  0  0  0
   -2.4485    0.3752   -1.4432 H   0  0  0  0  0  0  0  0  0  0  0  0
   -2.1151   -1.0338   -0.4093 H   0  0  0  0  0  0  0  0  0  0  0  0
  1  2  1  0
  1  5  1  0
  1  6  1  0
  1 20  1  0
  2  3  1  0
  3  4  2  3
  4  7  1  0
  4  8  1  0
  9 10  2  3
  9 15  1  0
  9 16  1  0
 10 11  1  0
 10 17  1  0
 11 12  1  0
 12 13  1  0
 12 18  1  0
 12 19  1  0
 13 14  1  0
 14 21  1  0
 14 22  1  0
M  RAD  1  14   2
M  END
>  <reaction>  (25) 
rmg_rxn_15671

>  <mol_properties>  (25) 
{"0": {"label": "*3", "atom_type": "Cs"}, "1": {"label": "*4", "atom_type": "O2s"}, "12": {"label": "*0", "atom_type": "O2s"}, "13": {"label": "*1", "atom_type": "Cs"}, "19": {"label": "*2", "atom_type": "H0"}}

>  <type>  (25) 
unop_21

>  <geom_source>  (25) 
Heuristics

$$$$

     RDKit          3D

 22 20  0  0  0  0  0  0  0  0999 V2000
    2.3658   -0.1655    0.2914 O   0  0  0  0  0  0  0  0  0  0  0  0
    1.0688   -1.4902   -1.1255 O   0  0  0  0  0  0  0  0  0  0  0  0
   -2.4858    0.3595    0.9434 O   0  0  0  0  0  0  0  0  0  0  0  0
   -2.8490    0.3995   -0.3832 N   0  0  0  0  0  0  0  0  0  0  0  0
    2.2464   -1.4310   -0.3544 C   0  0  0  0  0  0  0  0  0  0  0  0
   -1.7169   -0.7218    1.4413 C   0  0  0  0  0  0  0  0  0  0  0  0
    2.4872    1.0202   -0.4330 C   0  0  0  0  0  0  0  0  0  0  0  0
    2.5887    2.1792    0.2037 C   0  0  0  0  0  0  0  0  0  0  0  0
   -0.0177   -1.5490   -0.2406 C   0  0  0  0  0  3  0  0  0  0  0  0
   -3.5498    1.3831   -0.8422 C   0  0  0  0  0  0  0  0  0  0  0  0
    2.2844   -2.2469    0.4044 H   0  0  0  0  0  0  0  0  0  0  0  0
    3.1182   -1.5794   -1.0268 H   0  0  0  0  0  0  0  0  0  0  0  0
   -2.2777   -1.6716    1.3144 H   0  0  0  0  0  0  0  0  0  0  0  0
   -1.5114   -0.5608    2.5195 H   0  0  0  0  0  0  0  0  0  0  0  0
   -0.5489   -0.7942    0.7721 H   0  0  0  0  0  0  0  0  0  0  0  0
    2.4987    1.0016   -1.5166 H   0  0  0  0  0  0  0  0  0  0  0  0
    2.6826    3.1009   -0.3556 H   0  0  0  0  0  0  0  0  0  0  0  0
    2.5782    2.2146    1.2855 H   0  0  0  0  0  0  0  0  0  0  0  0
   -3.8613    2.1896   -0.1902 H   0  0  0  0  0  0  0  0  0  0  0  0
   -3.8290    1.4032   -1.8866 H   0  0  0  0  0  0  0  0  0  0  0  0
   -0.6541   -2.4220   -0.4936 H   0  0  0  0  0  0  0  0  0  0  0  0
   -0.6174   -0.6190   -0.3273 H   0  0  0  0  0  0  0  0  0  0  0  0
  1  7  1  0
  1  5  1  0
  2  9  1  0
  2  5  1  0
  3  6  1  0
  3  4  1  0
  4 10  2  3
  5 11  1  0
  5 12  1  0
  6 13  1  0
  6 14  1  0
  6 15  1  0
  7  8  2  3
  7 16  1  0
  8 17  1  0
  8 18  1  0
  9 21  1  0
  9 22  1  0
 10 19  1  0
 10 20  1  0
M  RAD  1   9   2
M  END
>  <reaction>  (26) 
rmg_rxn_15671

>  <mol_properties>  (26) 
{"0": {"label": "*3", "atom_type": "Cs"}, "1": {"label": "*4", "atom_type": "O2s"}, "12": {"label": "*0", "atom_type": "O2s"}, "13": {"label": "*1", "atom_type": "Cs"}, "19": {"label": "*2", "atom_type": "H0"}}

>  <type>  (26) 
unop_22

>  <geom_source>  (26) 
AutoTST

$$$$

     RDKit          3D

 22 20  0  0  0  0  0  0  0  0999 V2000
   -1.0874    1.2527    1.4307 C   0  0  0  0  0  0  0  0  0  0  0  0
   -0.0541    2.1252    1.0177 O   0  0  0  0  0  0  0  0  0  0  0  0
   -0.0339    3.2353    1.8277 N   0  0  0  0  0  0  0  0  0  0  0  0
    0.8759    4.0473    1.4967 C   0  0  0  0  0  0  0  0  0  0  0  0
   -0.9264    0.9145    2.4568 H   0  0  0  0  0  0  0  0  0  0  0  0
   -2.0627    1.7388    1.3555 H   0  0  0  0  0  0  0  0  0  0  0  0
    0.9585    4.9499    2.0872 H   0  0  0  0  0  0  0  0  0  0  0  0
    1.5506    3.8638    0.6632 H   0  0  0  0  0  0  0  0  0  0  0  0
    0.5287   -3.3428   -2.2392 C   0  0  0  0  0  0  0  0  0  0  0  0
    0.5287   -3.3428   -0.9133 C   0  0  0  0  0  0  0  0  0  0  0  0
    0.5287   -2.2799   -0.0722 O   0  0  0  0  0  0  0  0  0  0  0  0
    0.7208   -0.9986   -0.6233 C   0  0  0  0  0  0  0  0  0  0  0  0
   -0.3527   -0.5324   -1.3600 O   0  0  0  0  0  0  0  0  0  0  0  0
   -1.5291   -0.3403   -0.6053 C   0  0  0  0  0  3  0  0  0  0  0  0
    0.4790   -2.4424   -2.8337 H   0  0  0  0  0  0  0  0  0  0  0  0
    0.5571   -4.2929   -2.7525 H   0  0  0  0  0  0  0  0  0  0  0  0
    0.5319   -4.2629   -0.3414 H   0  0  0  0  0  0  0  0  0  0  0  0
    1.5799   -1.0084   -1.2990 H   0  0  0  0  0  0  0  0  0  0  0  0
    0.9136   -0.3579    0.2441 H   0  0  0  0  0  0  0  0  0  0  0  0
   -1.3074    0.4592    0.4165 H   0  0  0  0  0  0  0  0  0  0  0  0
   -2.2589    0.1201   -1.2680 H   0  0  0  0  0  0  0  0  0  0  0  0
   -1.9255   -1.2889   -0.2340 H   0  0  0  0  0  0  0  0  0  0  0  0
  1  2  1  0
  1  5  1  0
  1  6  1  0
  1 20  1  0
  2  3  1  0
  3  4  2  3
  4  7  1  0
  4  8  1  0
  9 10  2  3
  9 15  1  0
  9 16  1  0
 10 11  1  0
 10 17  1  0
 11 12  1  0
 12 13  1  0
 12 18  1  0
 12 19  1  0
 13 14  1  0
 14 21  1  0
 14 22  1  0
M  RAD  1  14   2
M  END
>  <reaction>  (27) 
rmg_rxn_15671

>  <mol_properties>  (27) 
{"0": {"label": "*3", "atom_type": "Cs"}, "1": {"label": "*4", "atom_type": "O2s"}, "12": {"label": "*0", "atom_type": "O2s"}, "13": {"label": "*1", "atom_type": "Cs"}, "19": {"label": "*2", "atom_type": "H0"}}

>  <type>  (27) 
unop_23

>  <geom_source>  (27) 
gaussian_log

$$$$
