
     RDKit          3D

  3  2  0  0  0  0  0  0  0  0999 V2000
   -0.0007    0.6157    0.0000 S   0  0  0  0  0  0  0  0  0  0  0  0
   -0.9686   -0.3090    0.0000 H   0  0  0  0  0  0  0  0  0  0  0  0
    0.9693   -0.3067    0.0000 H   0  0  0  0  0  0  0  0  0  0  0  0
  1  2  1  0
  1  3  1  0
M  END
>  <reaction>  (1) 
rmg_rxn_219

>  <mol_properties>  (1) 
{"0": {"label": "donator", "atom_type": "S2s"}, "1": {"label": "d_hydrogen", "atom_type": "H0"}}

>  <type>  (1) 
r1h

$$$$

     RDKit          3D

 17 16  0  0  0  0  0  0  0  0999 V2000
    2.3993   -0.7259   -0.8796 C   0  0  0  0  0  0  0  0  0  0  0  0
    1.8173   -0.7170    0.4851 C   0  0  0  0  0  3  0  0  0  0  0  0
    2.6779   -0.5182    1.6852 C   0  0  0  0  0  0  0  0  0  0  0  0
    3.8710   -1.2723    1.6674 O   0  0  0  0  0  0  0  0  0  0  0  0
    3.6589   -2.6587    1.8015 C   0  0  0  0  0  0  0  0  0  0  0  0
    4.9969   -3.3586    1.7556 C   0  0  0  0  0  0  0  0  0  0  0  0
    3.3755   -1.2152   -0.8894 H   0  0  0  0  0  0  0  0  0  0  0  0
    1.7457   -1.2284   -1.5943 H   0  0  0  0  0  0  0  0  0  0  0  0
    2.5578    0.2962   -1.2545 H   0  0  0  0  0  0  0  0  0  0  0  0
    0.7445   -0.6275    0.6059 H   0  0  0  0  0  0  0  0  0  0  0  0
    2.1057   -0.7316    2.5992 H   0  0  0  0  0  0  0  0  0  0  0  0
    3.0103    0.5272    1.7516 H   0  0  0  0  0  0  0  0  0  0  0  0
    3.0050   -3.0235    0.9977 H   0  0  0  0  0  0  0  0  0  0  0  0
    3.1469   -2.8645    2.7531 H   0  0  0  0  0  0  0  0  0  0  0  0
    5.6430   -3.0039    2.5594 H   0  0  0  0  0  0  0  0  0  0  0  0
    4.8641   -4.4360    1.8660 H   0  0  0  0  0  0  0  0  0  0  0  0
    5.4957   -3.1672    0.8046 H   0  0  0  0  0  0  0  0  0  0  0  0
  1  2  1  0
  1  7  1  0
  1  8  1  0
  1  9  1  0
  2  3  1  0
  2 10  1  0
  3  4  1  0
  3 11  1  0
  3 12  1  0
  4  5  1  0
  5  6  1  0
  5 13  1  0
  5 14  1  0
  6 15  1  0
  6 16  1  0
  6 17  1  0
M  RAD  1   2   2
M  END
>  <reaction>  (2) 
rmg_rxn_219

>  <mol_properties>  (2) 
{"1": {"label": "acceptor", "atom_type": "Cs"}}

>  <type>  (2) 
r2

$$$$

     RDKit          3D

 18 17  0  0  0  0  0  0  0  0999 V2000
    2.2026   -0.7213   -0.2612 C   0  0  0  0  0  0  0  0  0  0  0  0
    1.5384    0.2638    0.6915 C   0  0  0  0  0  0  0  0  0  0  0  0
    2.2584    1.5946    0.7694 C   0  0  0  0  0  0  0  0  0  0  0  0
    2.2212    2.2185   -0.4893 O   0  0  0  0  0  0  0  0  0  0  0  0
    2.8988    3.4488   -0.5204 C   0  0  0  0  0  0  0  0  0  0  0  0
    2.7981    4.0296   -1.9118 C   0  0  0  0  0  0  0  0  0  0  0  0
    3.2294   -0.9309    0.0486 H   0  0  0  0  0  0  0  0  0  0  0  0
    2.2338   -0.3181   -1.2734 H   0  0  0  0  0  0  0  0  0  0  0  0
    1.6610   -1.6680   -0.2875 H   0  0  0  0  0  0  0  0  0  0  0  0
    1.4990   -0.1566    1.7002 H   0  0  0  0  0  0  0  0  0  0  0  0
    0.5055    0.4455    0.3835 H   0  0  0  0  0  0  0  0  0  0  0  0
    3.3038    1.4410    1.0808 H   0  0  0  0  0  0  0  0  0  0  0  0
    1.7844    2.2410    1.5226 H   0  0  0  0  0  0  0  0  0  0  0  0
    2.4596    4.1376    0.2164 H   0  0  0  0  0  0  0  0  0  0  0  0
    3.9524    3.3035   -0.2397 H   0  0  0  0  0  0  0  0  0  0  0  0
    1.7543    4.1869   -2.1856 H   0  0  0  0  0  0  0  0  0  0  0  0
    3.2472    3.3545   -2.6411 H   0  0  0  0  0  0  0  0  0  0  0  0
    3.3178    4.9878   -1.9600 H   0  0  0  0  0  0  0  0  0  0  0  0
  1  2  1  0
  1  7  1  0
  1  8  1  0
  1  9  1  0
  2  3  1  0
  2 10  1  0
  2 11  1  0
  3  4  1  0
  3 12  1  0
  3 13  1  0
  4  5  1  0
  5  6  1  0
  5 14  1  0
  5 15  1  0
  6 16  1  0
  6 17  1  0
  6 18  1  0
M  END
>  <reaction>  (3) 
rmg_rxn_219

>  <mol_properties>  (3) 
{"0": {"label": "a_hydrogen", "atom_type": "H0"}, "2": {"label": "acceptor", "atom_type": "Cs"}}

>  <type>  (3) 
r2h

$$$$

     RDKit          3D

 20 18  0  0  0  0  0  0  0  0999 V2000
   -0.0383   -3.0756   -1.1156 S   0  0  0  0  0  0  0  0  0  0  0  0
   -0.4904   -1.7171   -0.7659 H   0  0  0  0  0  0  0  0  0  0  0  0
    0.0605   -3.4047    0.1790 H   0  0  0  0  0  0  0  0  0  0  0  0
   -1.4510    0.2257   -1.6863 C   0  0  0  0  0  0  0  0  0  0  0  0
   -0.8947   -0.2932   -0.4024 C   0  0  0  0  0  3  0  0  0  0  0  0
    0.4095    0.2615    0.0807 C   0  0  0  0  0  0  0  0  0  0  0  0
    0.2093    1.6047    0.4608 O   0  0  0  0  0  0  0  0  0  0  0  0
    1.3869    2.2257    0.9228 C   0  0  0  0  0  0  0  0  0  0  0  0
    1.0701    3.6545    1.2966 C   0  0  0  0  0  0  0  0  0  0  0  0
   -0.6977    0.2111   -2.4773 H   0  0  0  0  0  0  0  0  0  0  0  0
   -2.3150   -0.3531   -2.0135 H   0  0  0  0  0  0  0  0  0  0  0  0
   -1.7695    1.2659   -1.5571 H   0  0  0  0  0  0  0  0  0  0  0  0
   -1.6187   -0.5159    0.3776 H   0  0  0  0  0  0  0  0  0  0  0  0
    1.1624    0.2007   -0.7187 H   0  0  0  0  0  0  0  0  0  0  0  0
    0.7842   -0.3232    0.9320 H   0  0  0  0  0  0  0  0  0  0  0  0
    2.1570    2.1928    0.1389 H   0  0  0  0  0  0  0  0  0  0  0  0
    1.7814    1.6778    1.7905 H   0  0  0  0  0  0  0  0  0  0  0  0
    0.3147    3.6861    2.0824 H   0  0  0  0  0  0  0  0  0  0  0  0
    1.9684    4.1568    1.6586 H   0  0  0  0  0  0  0  0  0  0  0  0
    0.6919    4.2015    0.4323 H   0  0  0  0  0  0  0  0  0  0  0  0
  1  2  1  0
  1  3  1  0
  4  5  1  0
  4 10  1  0
  4 11  1  0
  4 12  1  0
  5  6  1  0
  5 13  1  0
  6  7  1  0
  6 14  1  0
  6 15  1  0
  7  8  1  0
  8  9  1  0
  8 16  1  0
  8 17  1  0
  9 18  1  0
  9 19  1  0
  9 20  1  0
M  RAD  1   5   2
M  END
>  <reaction>  (4) 
rmg_rxn_219

>  <mol_properties>  (4) 
{"0": {"label": "*1", "atom_type": "S2s"}, "1": {"label": "*2", "atom_type": "H0"}, "2": {"label": "*0", "atom_type": "H0"}, "4": {"label": "*3", "atom_type": "Cs"}, "5": {"label": "*4", "atom_type": "Cs"}}

>  <type>  (4) 
ts

$$$$

     RDKit          3D

 20 18  0  0  0  0  0  0  0  0999 V2000
   -0.5214   -3.4766   -0.0043 S   0  0  0  0  0  1  0  0  0  0  0  0
   -0.5214   -1.8721    0.0728 H   0  0  0  0  0  0  0  0  0  0  0  0
   -0.5214   -3.4766   -1.3429 H   0  0  0  0  0  0  0  0  0  0  0  0
   -1.7597   -0.0722    0.8750 C   0  0  0  0  0  0  0  0  0  0  0  0
   -0.5214   -0.5613    0.1357 C   0  0  0  0  0  0  0  0  0  0  0  0
    0.1160    0.5064   -0.7297 C   0  0  0  0  0  0  0  0  0  0  0  0
    0.5663    1.5590    0.0853 O   0  0  0  0  0  0  0  0  0  0  0  0
    1.1426    2.6157   -0.6390 C   0  0  0  0  0  0  0  0  0  0  0  0
    1.5889    3.6877    0.3280 C   0  0  0  0  0  0  0  0  0  0  0  0
   -2.5242    0.2681    0.1720 H   0  0  0  0  0  0  0  0  0  0  0  0
   -2.1941   -0.8675    1.4825 H   0  0  0  0  0  0  0  0  0  0  0  0
   -1.5131    0.7623    1.5314 H   0  0  0  0  0  0  0  0  0  0  0  0
    0.2244   -0.9205    0.8496 H   0  0  0  0  0  0  0  0  0  0  0  0
   -0.6146    0.8853   -1.4619 H   0  0  0  0  0  0  0  0  0  0  0  0
    0.9586    0.0844   -1.2971 H   0  0  0  0  0  0  0  0  0  0  0  0
    0.4120    3.0225   -1.3537 H   0  0  0  0  0  0  0  0  0  0  0  0
    1.9974    2.2466   -1.2251 H   0  0  0  0  0  0  0  0  0  0  0  0
    2.3237    3.2889    1.0282 H   0  0  0  0  0  0  0  0  0  0  0  0
    2.0413    4.5204   -0.2130 H   0  0  0  0  0  0  0  0  0  0  0  0
    0.7396    4.0654    0.8985 H   0  0  0  0  0  0  0  0  0  0  0  0
  1  3  1  0
  2  5  1  0
  4  5  1  0
  4 10  1  0
  4 11  1  0
  4 12  1  0
  5  6  1  0
  5 13  1  0
  6  7  1  0
  6 14  1  0
  6 15  1  0
  7  8  1  0
  8  9  1  0
  8 16  1  0
  8 17  1  0
  9 18  1  0
  9 19  1  0
  9 20  1  0
M  RAD  1   1   2
M  END
>  <reaction>  (5) 
rmg_rxn_219

>  <mol_properties>  (5) 
{"0": {"label": "*1", "atom_type": "S2s"}, "1": {"label": "*2", "atom_type": "H0"}, "2": {"label": "*0", "atom_type": "H0"}, "4": {"label": "*3", "atom_type": "Cs"}, "5": {"label": "*4", "atom_type": "Cs"}}

>  <type>  (5) 
unop_1

>  <geom_source>  (5) 
Heuristics

$$$$

     RDKit          3D

 20 18  0  0  0  0  0  0  0  0999 V2000
   -0.6060   -3.4095   -0.3914 S   0  0  0  0  0  1  0  0  0  0  0  0
   -0.6060   -1.8050   -0.3143 H   0  0  0  0  0  0  0  0  0  0  0  0
   -0.6060   -3.4095   -1.7300 H   0  0  0  0  0  0  0  0  0  0  0  0
   -1.3209    0.0886   -1.4631 C   0  0  0  0  0  0  0  0  0  0  0  0
   -0.6060   -0.4943   -0.2513 C   0  0  0  0  0  0  0  0  0  0  0  0
    0.6467    0.2699    0.1256 C   0  0  0  0  0  0  0  0  0  0  0  0
    0.2988    1.5794    0.4987 O   0  0  0  0  0  0  0  0  0  0  0  0
    1.4071    2.3756    0.8321 C   0  0  0  0  0  0  0  0  0  0  0  0
    0.9232    3.7551    1.2146 C   0  0  0  0  0  0  0  0  0  0  0  0
   -0.6682    0.0848   -2.3396 H   0  0  0  0  0  0  0  0  0  0  0  0
   -2.2134   -0.4893   -1.7080 H   0  0  0  0  0  0  0  0  0  0  0  0
   -1.6228    1.1188   -1.2746 H   0  0  0  0  0  0  0  0  0  0  0  0
   -1.2778   -0.5065    0.6108 H   0  0  0  0  0  0  0  0  0  0  0  0
    1.3443    0.2958   -0.7265 H   0  0  0  0  0  0  0  0  0  0  0  0
    1.1640   -0.2320    0.9564 H   0  0  0  0  0  0  0  0  0  0  0  0
    2.0975    2.4335   -0.0223 H   0  0  0  0  0  0  0  0  0  0  0  0
    1.9610    1.9178    1.6652 H   0  0  0  0  0  0  0  0  0  0  0  0
    0.2495    3.7001    2.0703 H   0  0  0  0  0  0  0  0  0  0  0  0
    1.7685    4.3926    1.4787 H   0  0  0  0  0  0  0  0  0  0  0  0
    0.3875    4.2161    0.3840 H   0  0  0  0  0  0  0  0  0  0  0  0
  1  3  1  0
  2  5  1  0
  4  5  1  0
  4 10  1  0
  4 11  1  0
  4 12  1  0
  5  6  1  0
  5 13  1  0
  6  7  1  0
  6 14  1  0
  6 15  1  0
  7  8  1  0
  8  9  1  0
  8 16  1  0
  8 17  1  0
  9 18  1  0
  9 19  1  0
  9 20  1  0
M  RAD  1   1   2
M  END
>  <reaction>  (6) 
rmg_rxn_219

>  <mol_properties>  (6) 
{"0": {"label": "*1", "atom_type": "S2s"}, "1": {"label": "*2", "atom_type": "H0"}, "2": {"label": "*0", "atom_type": "H0"}, "4": {"label": "*3", "atom_type": "Cs"}, "5": {"label": "*4", "atom_type": "Cs"}}

>  <type>  (6) 
unop_2

>  <geom_source>  (6) 
Heuristics

$$$$

     RDKit          3D

 20 18  0  0  0  0  0  0  0  0999 V2000
   -0.1303   -3.4927    0.3766 S   0  0  0  0  0  1  0  0  0  0  0  0
   -0.1303   -1.8882    0.4537 H   0  0  0  0  0  0  0  0  0  0  0  0
   -0.1303   -3.4927   -0.9620 H   0  0  0  0  0  0  0  0  0  0  0  0
   -0.8453   -0.1134    1.7787 C   0  0  0  0  0  0  0  0  0  0  0  0
   -0.1303   -0.5774    0.5166 C   0  0  0  0  0  0  0  0  0  0  0  0
   -0.2666    0.3953   -0.6368 C   0  0  0  0  0  0  0  0  0  0  0  0
    0.3458    1.6129   -0.2939 O   0  0  0  0  0  0  0  0  0  0  0  0
    0.2369    2.5917   -1.2958 C   0  0  0  0  0  0  0  0  0  0  0  0
    0.9239    3.8531   -0.8264 C   0  0  0  0  0  0  0  0  0  0  0  0
   -1.9147    0.0171    1.5950 H   0  0  0  0  0  0  0  0  0  0  0  0
   -0.7304   -0.8397    2.5846 H   0  0  0  0  0  0  0  0  0  0  0  0
   -0.4452    0.8411    2.1203 H   0  0  0  0  0  0  0  0  0  0  0  0
    0.9330   -0.7268    0.7211 H   0  0  0  0  0  0  0  0  0  0  0  0
   -1.3309    0.5627   -0.8664 H   0  0  0  0  0  0  0  0  0  0  0  0
    0.2019   -0.0184   -1.5419 H   0  0  0  0  0  0  0  0  0  0  0  0
   -0.8232    2.7892   -1.5130 H   0  0  0  0  0  0  0  0  0  0  0  0
    0.6957    2.2279   -2.2272 H   0  0  0  0  0  0  0  0  0  0  0  0
    1.9782    3.6614   -0.6240 H   0  0  0  0  0  0  0  0  0  0  0  0
    0.8526    4.6291   -1.5902 H   0  0  0  0  0  0  0  0  0  0  0  0
    0.4597    4.2233    0.0885 H   0  0  0  0  0  0  0  0  0  0  0  0
  1  3  1  0
  2  5  1  0
  4  5  1  0
  4 10  1  0
  4 11  1  0
  4 12  1  0
  5  6  1  0
  5 13  1  0
  6  7  1  0
  6 14  1  0
  6 15  1  0
  7  8  1  0
  8  9  1  0
  8 16  1  0
  8 17  1  0
  9 18  1  0
  9 19  1  0
  9 20  1  0
M  RAD  1   1   2
M  END
>  <reaction>  (7) 
rmg_rxn_219

>  <mol_properties>  (7) 
{"0": {"label": "*1", "atom_type": "S2s"}, "1": {"label": "*2", "atom_type": "H0"}, "2": {"label": "*0", "atom_type": "H0"}, "4": {"label": "*3", "atom_type": "Cs"}, "5": {"label": "*4", "atom_type": "Cs"}}

>  <type>  (7) 
unop_3

>  <geom_source>  (7) 
Heuristics

$$$$

     RDKit          3D

 20 18  0  0  0  0  0  0  0  0999 V2000
   -0.4677   -2.6022   -1.3884 S   0  0  0  0  0  1  0  0  0  0  0  0
   -0.4677   -0.9977   -1.3114 H   0  0  0  0  0  0  0  0  0  0  0  0
   -0.4677   -2.6022   -2.7271 H   0  0  0  0  0  0  0  0  0  0  0  0
    0.7706    0.8707   -1.9374 C   0  0  0  0  0  0  0  0  0  0  0  0
   -0.4677    0.3130   -1.2484 C   0  0  0  0  0  0  0  0  0  0  0  0
   -0.2496    0.0186    0.2216 C   0  0  0  0  0  0  0  0  0  0  0  0
    0.0399    1.2157    0.8984 O   0  0  0  0  0  0  0  0  0  0  0  0
    0.2929    1.0330    2.2682 C   0  0  0  0  0  0  0  0  0  0  0  0
    0.5919    2.3749    2.8954 C   0  0  0  0  0  0  0  0  0  0  0  0
    1.6033    0.1659   -1.8726 H   0  0  0  0  0  0  0  0  0  0  0  0
    0.5783    1.0653   -2.9935 H   0  0  0  0  0  0  0  0  0  0  0  0
    1.0848    1.8042   -1.4704 H   0  0  0  0  0  0  0  0  0  0  0  0
   -1.2984    1.0173   -1.3418 H   0  0  0  0  0  0  0  0  0  0  0  0
    0.5826   -0.6925    0.3452 H   0  0  0  0  0  0  0  0  0  0  0  0
   -1.1462   -0.4494    0.6539 H   0  0  0  0  0  0  0  0  0  0  0  0
    1.1421    0.3472    2.4041 H   0  0  0  0  0  0  0  0  0  0  0  0
   -0.5790    0.5682    2.7520 H   0  0  0  0  0  0  0  0  0  0  0  0
   -0.2550    3.0511    2.7731 H   0  0  0  0  0  0  0  0  0  0  0  0
    0.7914    2.2578    3.9617 H   0  0  0  0  0  0  0  0  0  0  0  0
    1.4655    2.8295    2.4269 H   0  0  0  0  0  0  0  0  0  0  0  0
  1  3  1  0
  2  5  1  0
  4  5  1  0
  4 10  1  0
  4 11  1  0
  4 12  1  0
  5  6  1  0
  5 13  1  0
  6  7  1  0
  6 14  1  0
  6 15  1  0
  7  8  1  0
  8  9  1  0
  8 16  1  0
  8 17  1  0
  9 18  1  0
  9 19  1  0
  9 20  1  0
M  RAD  1   1   2
M  END
>  <reaction>  (8) 
rmg_rxn_219

>  <mol_properties>  (8) 
{"0": {"label": "*1", "atom_type": "S2s"}, "1": {"label": "*2", "atom_type": "H0"}, "2": {"label": "*0", "atom_type": "H0"}, "4": {"label": "*3", "atom_type": "Cs"}, "5": {"label": "*4", "atom_type": "Cs"}}

>  <type>  (8) 
unop_4

>  <geom_source>  (8) 
Heuristics

$$$$

     RDKit          3D

 20 18  0  0  0  0  0  0  0  0999 V2000
    0.8227   -3.2587    0.2973 S   0  0  0  0  0  1  0  0  0  0  0  0
    0.8227   -1.6542    0.3744 H   0  0  0  0  0  0  0  0  0  0  0  0
    0.8227   -3.2587   -1.0413 H   0  0  0  0  0  0  0  0  0  0  0  0
    0.8227    0.1113    1.8907 C   0  0  0  0  0  0  0  0  0  0  0  0
    0.8227   -0.3435    0.4373 C   0  0  0  0  0  0  0  0  0  0  0  0
   -0.3733    0.1603   -0.3443 C   0  0  0  0  0  0  0  0  0  0  0  0
   -0.3365    1.5641   -0.3984 O   0  0  0  0  0  0  0  0  0  0  0  0
   -1.4318    2.1234   -1.0773 C   0  0  0  0  0  0  0  0  0  0  0  0
   -1.2939    3.6283   -1.0759 C   0  0  0  0  0  0  0  0  0  0  0  0
   -0.0711   -0.2434    2.4100 H   0  0  0  0  0  0  0  0  0  0  0  0
    1.6938   -0.2740    2.4228 H   0  0  0  0  0  0  0  0  0  0  0  0
    0.8377    1.1993    1.9548 H   0  0  0  0  0  0  0  0  0  0  0  0
    1.7329   -0.0024   -0.0626 H   0  0  0  0  0  0  0  0  0  0  0  0
   -1.3067   -0.1718    0.1372 H   0  0  0  0  0  0  0  0  0  0  0  0
   -0.3654   -0.2547   -1.3629 H   0  0  0  0  0  0  0  0  0  0  0  0
   -2.3696    1.8228   -0.5873 H   0  0  0  0  0  0  0  0  0  0  0  0
   -1.4687    1.7418   -2.1085 H   0  0  0  0  0  0  0  0  0  0  0  0
   -0.3711    3.9279   -1.5737 H   0  0  0  0  0  0  0  0  0  0  0  0
   -2.1350    4.0855   -1.5993 H   0  0  0  0  0  0  0  0  0  0  0  0
   -1.2729    4.0091   -0.0541 H   0  0  0  0  0  0  0  0  0  0  0  0
  1  3  1  0
  2  5  1  0
  4  5  1  0
  4 10  1  0
  4 11  1  0
  4 12  1  0
  5  6  1  0
  5 13  1  0
  6  7  1  0
  6 14  1  0
  6 15  1  0
  7  8  1  0
  8  9  1  0
  8 16  1  0
  8 17  1  0
  9 18  1  0
  9 19  1  0
  9 20  1  0
M  RAD  1   1   2
M  END
>  <reaction>  (9) 
rmg_rxn_219

>  <mol_properties>  (9) 
{"0": {"label": "*1", "atom_type": "S2s"}, "1": {"label": "*2", "atom_type": "H0"}, "2": {"label": "*0", "atom_type": "H0"}, "4": {"label": "*3", "atom_type": "Cs"}, "5": {"label": "*4", "atom_type": "Cs"}}

>  <type>  (9) 
unop_5

>  <geom_source>  (9) 
Heuristics

$$$$

     RDKit          3D

 20 18  0  0  0  0  0  0  0  0999 V2000
    0.1706   -2.4299   -1.5097 S   0  0  0  0  0  1  0  0  0  0  0  0
    0.1706   -0.8254   -1.4326 H   0  0  0  0  0  0  0  0  0  0  0  0
    0.1706   -2.4299   -2.8483 H   0  0  0  0  0  0  0  0  0  0  0  0
    1.6005    1.0087   -1.3445 C   0  0  0  0  0  0  0  0  0  0  0  0
    0.1706    0.4853   -1.3696 C   0  0  0  0  0  0  0  0  0  0  0  0
   -0.3201    0.0277   -0.0113 C   0  0  0  0  0  0  0  0  0  0  0  0
   -0.3452    1.1236    0.8682 O   0  0  0  0  0  0  0  0  0  0  0  0
   -0.7560    0.7842    2.1680 C   0  0  0  0  0  0  0  0  0  0  0  0
   -0.7462    2.0279    3.0264 C   0  0  0  0  0  0  0  0  0  0  0  0
    2.2920    0.2366   -0.9982 H   0  0  0  0  0  0  0  0  0  0  0  0
    1.9210    1.3234   -2.3387 H   0  0  0  0  0  0  0  0  0  0  0  0
    1.6874    1.8622   -0.6721 H   0  0  0  0  0  0  0  0  0  0  0  0
   -0.5060    1.2596   -1.7404 H   0  0  0  0  0  0  0  0  0  0  0  0
    0.3438   -0.7564    0.3859 H   0  0  0  0  0  0  0  0  0  0  0  0
   -1.3264   -0.4081   -0.0963 H   0  0  0  0  0  0  0  0  0  0  0  0
   -0.0820    0.0225    2.5871 H   0  0  0  0  0  0  0  0  0  0  0  0
   -1.7639    0.3443    2.1401 H   0  0  0  0  0  0  0  0  0  0  0  0
   -1.4245    2.7785    2.6194 H   0  0  0  0  0  0  0  0  0  0  0  0
   -1.0630    1.7883    4.0427 H   0  0  0  0  0  0  0  0  0  0  0  0
    0.2561    2.4560    3.0674 H   0  0  0  0  0  0  0  0  0  0  0  0
  1  3  1  0
  2  5  1  0
  4  5  1  0
  4 10  1  0
  4 11  1  0
  4 12  1  0
  5  6  1  0
  5 13  1  0
  6  7  1  0
  6 14  1  0
  6 15  1  0
  7  8  1  0
  8  9  1  0
  8 16  1  0
  8 17  1  0
  9 18  1  0
  9 19  1  0
  9 20  1  0
M  RAD  1   1   2
M  END
>  <reaction>  (10) 
rmg_rxn_219

>  <mol_properties>  (10) 
{"0": {"label": "*1", "atom_type": "S2s"}, "1": {"label": "*2", "atom_type": "H0"}, "2": {"label": "*0", "atom_type": "H0"}, "4": {"label": "*3", "atom_type": "Cs"}, "5": {"label": "*4", "atom_type": "Cs"}}

>  <type>  (10) 
unop_6

>  <geom_source>  (10) 
Heuristics

$$$$

     RDKit          3D

 20 18  0  0  0  0  0  0  0  0999 V2000
    0.8483   -2.4387   -1.2386 S   0  0  0  0  0  1  0  0  0  0  0  0
    0.8483   -0.8342   -1.1615 H   0  0  0  0  0  0  0  0  0  0  0  0
    0.8483   -2.4387   -2.5772 H   0  0  0  0  0  0  0  0  0  0  0  0
    2.0866    0.9656   -0.3592 C   0  0  0  0  0  0  0  0  0  0  0  0
    0.8483    0.4765   -1.0985 C   0  0  0  0  0  0  0  0  0  0  0  0
   -0.2644    0.0354   -0.1697 C   0  0  0  0  0  0  0  0  0  0  0  0
   -0.7000    1.1345    0.5900 O   0  0  0  0  0  0  0  0  0  0  0  0
   -1.7116    0.8095    1.5090 C   0  0  0  0  0  0  0  0  0  0  0  0
   -2.1031    2.0554    2.2692 C   0  0  0  0  0  0  0  0  0  0  0  0
    2.4959    0.1783    0.2787 H   0  0  0  0  0  0  0  0  0  0  0  0
    2.8671    1.2692   -1.0585 H   0  0  0  0  0  0  0  0  0  0  0  0
    1.8459    1.8191    0.2746 H   0  0  0  0  0  0  0  0  0  0  0  0
    0.4642    1.2655   -1.7502 H   0  0  0  0  0  0  0  0  0  0  0  0
    0.0954   -0.7631    0.4985 H   0  0  0  0  0  0  0  0  0  0  0  0
   -1.1038   -0.3765   -0.7490 H   0  0  0  0  0  0  0  0  0  0  0  0
   -1.3536    0.0332    2.2013 H   0  0  0  0  0  0  0  0  0  0  0  0
   -2.5810    0.3938    0.9784 H   0  0  0  0  0  0  0  0  0  0  0  0
   -2.4712    2.8207    1.5850 H   0  0  0  0  0  0  0  0  0  0  0  0
   -2.8897    1.8270    2.9901 H   0  0  0  0  0  0  0  0  0  0  0  0
   -1.2454    2.4596    2.8082 H   0  0  0  0  0  0  0  0  0  0  0  0
  1  3  1  0
  2  5  1  0
  4  5  1  0
  4 10  1  0
  4 11  1  0
  4 12  1  0
  5  6  1  0
  5 13  1  0
  6  7  1  0
  6 14  1  0
  6 15  1  0
  7  8  1  0
  8  9  1  0
  8 16  1  0
  8 17  1  0
  9 18  1  0
  9 19  1  0
  9 20  1  0
M  RAD  1   1   2
M  END
>  <reaction>  (11) 
rmg_rxn_219

>  <mol_properties>  (11) 
{"0": {"label": "*1", "atom_type": "S2s"}, "1": {"label": "*2", "atom_type": "H0"}, "2": {"label": "*0", "atom_type": "H0"}, "4": {"label": "*3", "atom_type": "Cs"}, "5": {"label": "*4", "atom_type": "Cs"}}

>  <type>  (11) 
unop_7

>  <geom_source>  (11) 
Heuristics

$$$$

     RDKit          3D

 20 18  0  0  0  0  0  0  0  0999 V2000
   -0.5274   -3.4637   -0.2803 S   0  0  0  0  0  1  0  0  0  0  0  0
   -0.5274   -1.8592   -0.2032 H   0  0  0  0  0  0  0  0  0  0  0  0
   -0.5274   -3.4637   -1.6189 H   0  0  0  0  0  0  0  0  0  0  0  0
   -1.9573   -0.0250   -0.1151 C   0  0  0  0  0  0  0  0  0  0  0  0
   -0.5274   -0.5485   -0.1403 C   0  0  0  0  0  0  0  0  0  0  0  0
    0.4820    0.4968   -0.5691 C   0  0  0  0  0  0  0  0  0  0  0  0
    0.4911    1.5464    0.3654 O   0  0  0  0  0  0  0  0  0  0  0  0
    1.3769    2.5834    0.0284 C   0  0  0  0  0  0  0  0  0  0  0  0
    1.3073    3.6538    1.0928 C   0  0  0  0  0  0  0  0  0  0  0  0
   -2.2612    0.3260   -1.1045 H   0  0  0  0  0  0  0  0  0  0  0  0
   -2.6555   -0.8049    0.1923 H   0  0  0  0  0  0  0  0  0  0  0  0
   -2.0507    0.8096    0.5797 H   0  0  0  0  0  0  0  0  0  0  0  0
   -0.2455   -0.9179    0.8491 H   0  0  0  0  0  0  0  0  0  0  0  0
    0.2229    0.8855   -1.5667 H   0  0  0  0  0  0  0  0  0  0  0  0
    1.4848    0.0510   -0.6423 H   0  0  0  0  0  0  0  0  0  0  0  0
    1.1097    3.0000   -0.9539 H   0  0  0  0  0  0  0  0  0  0  0  0
    2.4009    2.1899   -0.0547 H   0  0  0  0  0  0  0  0  0  0  0  0
    1.5855    3.2448    2.0648 H   0  0  0  0  0  0  0  0  0  0  0  0
    1.9889    4.4711    0.8522 H   0  0  0  0  0  0  0  0  0  0  0  0
    0.2960    4.0555    1.1652 H   0  0  0  0  0  0  0  0  0  0  0  0
  1  3  1  0
  2  5  1  0
  4  5  1  0
  4 10  1  0
  4 11  1  0
  4 12  1  0
  5  6  1  0
  5 13  1  0
  6  7  1  0
  6 14  1  0
  6 15  1  0
  7  8  1  0
  8  9  1  0
  8 16  1  0
  8 17  1  0
  9 18  1  0
  9 19  1  0
  9 20  1  0
M  RAD  1   1   2
M  END
>  <reaction>  (12) 
rmg_rxn_219

>  <mol_properties>  (12) 
{"0": {"label": "*1", "atom_type": "S2s"}, "1": {"label": "*2", "atom_type": "H0"}, "2": {"label": "*0", "atom_type": "H0"}, "4": {"label": "*3", "atom_type": "Cs"}, "5": {"label": "*4", "atom_type": "Cs"}}

>  <type>  (12) 
unop_8

>  <geom_source>  (12) 
Heuristics

$$$$

     RDKit          3D

 20 18  0  0  0  0  0  0  0  0999 V2000
   -0.8364   -2.9000   -0.9973 S   0  0  0  0  0  1  0  0  0  0  0  0
   -0.8364   -1.2955   -0.9202 H   0  0  0  0  0  0  0  0  0  0  0  0
   -0.8364   -2.9000   -2.3359 H   0  0  0  0  0  0  0  0  0  0  0  0
   -0.1215    0.5981   -2.0690 C   0  0  0  0  0  0  0  0  0  0  0  0
   -0.8364    0.0152   -0.8573 C   0  0  0  0  0  0  0  0  0  0  0  0
    0.0078    0.0387    0.4005 C   0  0  0  0  0  0  0  0  0  0  0  0
    0.2911    1.3710    0.7465 O   0  0  0  0  0  0  0  0  0  0  0  0
    1.1032    1.4888    1.8867 C   0  0  0  0  0  0  0  0  0  0  0  0
    1.3454    2.9538    2.1676 C   0  0  0  0  0  0  0  0  0  0  0  0
    0.7930    0.0408   -2.2872 H   0  0  0  0  0  0  0  0  0  0  0  0
   -0.7562    0.5597   -2.9555 H   0  0  0  0  0  0  0  0  0  0  0  0
    0.1541    1.6376   -1.8917 H   0  0  0  0  0  0  0  0  0  0  0  0
   -1.7604    0.5668   -0.6655 H   0  0  0  0  0  0  0  0  0  0  0  0
    0.9466   -0.5135    0.2359 H   0  0  0  0  0  0  0  0  0  0  0  0
   -0.5234   -0.4583    1.2255 H   0  0  0  0  0  0  0  0  0  0  0  0
    2.0570    0.9659    1.7230 H   0  0  0  0  0  0  0  0  0  0  0  0
    0.6141    1.0082    2.7470 H   0  0  0  0  0  0  0  0  0  0  0  0
    0.4012    3.4703    2.3437 H   0  0  0  0  0  0  0  0  0  0  0  0
    1.9748    3.0703    3.0513 H   0  0  0  0  0  0  0  0  0  0  0  0
    1.8443    3.4277    1.3215 H   0  0  0  0  0  0  0  0  0  0  0  0
  1  3  1  0
  2  5  1  0
  4  5  1  0
  4 10  1  0
  4 11  1  0
  4 12  1  0
  5  6  1  0
  5 13  1  0
  6  7  1  0
  6 14  1  0
  6 15  1  0
  7  8  1  0
  8  9  1  0
  8 16  1  0
  8 17  1  0
  9 18  1  0
  9 19  1  0
  9 20  1  0
M  RAD  1   1   2
M  END
>  <reaction>  (13) 
rmg_rxn_219

>  <mol_properties>  (13) 
{"0": {"label": "*1", "atom_type": "S2s"}, "1": {"label": "*2", "atom_type": "H0"}, "2": {"label": "*0", "atom_type": "H0"}, "4": {"label": "*3", "atom_type": "Cs"}, "5": {"label": "*4", "atom_type": "Cs"}}

>  <type>  (13) 
unop_9

>  <geom_source>  (13) 
Heuristics

$$$$

     RDKit          3D

 20 18  0  0  0  0  0  0  0  0999 V2000
   -0.4899   -3.4633   -0.3644 S   0  0  0  0  0  1  0  0  0  0  0  0
   -0.4899   -1.8588   -0.2873 H   0  0  0  0  0  0  0  0  0  0  0  0
   -0.4899   -3.4633   -1.7030 H   0  0  0  0  0  0  0  0  0  0  0  0
   -1.7283    0.0096   -0.9133 C   0  0  0  0  0  0  0  0  0  0  0  0
   -0.4899   -0.5481   -0.2243 C   0  0  0  0  0  0  0  0  0  0  0  0
    0.6841    0.4093   -0.2431 C   0  0  0  0  0  0  0  0  0  0  0  0
    0.3518    1.5679    0.4796 O   0  0  0  0  0  0  0  0  0  0  0  0
    1.3738    2.5317    0.4859 C   0  0  0  0  0  0  0  0  0  0  0  0
    0.9143    3.7293    1.2847 C   0  0  0  0  0  0  0  0  0  0  0  0
   -1.5205    0.2404   -1.9611 H   0  0  0  0  0  0  0  0  0  0  0  0
   -2.5499   -0.7076   -0.8851 H   0  0  0  0  0  0  0  0  0  0  0  0
   -2.0599    0.9273   -0.4276 H   0  0  0  0  0  0  0  0  0  0  0  0
   -0.7187   -0.7966    0.8153 H   0  0  0  0  0  0  0  0  0  0  0  0
    0.9383    0.6752   -1.2813 H   0  0  0  0  0  0  0  0  0  0  0  0
    1.5715   -0.0669    0.1991 H   0  0  0  0  0  0  0  0  0  0  0  0
    1.6161    2.8275   -0.5455 H   0  0  0  0  0  0  0  0  0  0  0  0
    2.2887    2.1056    0.9237 H   0  0  0  0  0  0  0  0  0  0  0  0
    0.6869    3.4395    2.3112 H   0  0  0  0  0  0  0  0  0  0  0  0
    1.6937    4.4926    1.3040 H   0  0  0  0  0  0  0  0  0  0  0  0
    0.0161    4.1619    0.8424 H   0  0  0  0  0  0  0  0  0  0  0  0
  1  3  1  0
  2  5  1  0
  4  5  1  0
  4 10  1  0
  4 11  1  0
  4 12  1  0
  5  6  1  0
  5 13  1  0
  6  7  1  0
  6 14  1  0
  6 15  1  0
  7  8  1  0
  8  9  1  0
  8 16  1  0
  8 17  1  0
  9 18  1  0
  9 19  1  0
  9 20  1  0
M  RAD  1   1   2
M  END
>  <reaction>  (14) 
rmg_rxn_219

>  <mol_properties>  (14) 
{"0": {"label": "*1", "atom_type": "S2s"}, "1": {"label": "*2", "atom_type": "H0"}, "2": {"label": "*0", "atom_type": "H0"}, "4": {"label": "*3", "atom_type": "Cs"}, "5": {"label": "*4", "atom_type": "Cs"}}

>  <type>  (14) 
unop_10

>  <geom_source>  (14) 
Heuristics

$$$$

     RDKit          3D

 20 18  0  0  0  0  0  0  0  0999 V2000
    1.2531   -2.7185   -0.5440 S   0  0  0  0  0  1  0  0  0  0  0  0
    1.2531   -1.1140   -0.4670 H   0  0  0  0  0  0  0  0  0  0  0  0
    1.2531   -2.7185   -1.8827 H   0  0  0  0  0  0  0  0  0  0  0  0
    1.9680    0.6607    0.8581 C   0  0  0  0  0  0  0  0  0  0  0  0
    1.2531    0.1967   -0.4040 C   0  0  0  0  0  0  0  0  0  0  0  0
   -0.2429    0.0441   -0.2191 C   0  0  0  0  0  0  0  0  0  0  0  0
   -0.8050    1.2963    0.0826 O   0  0  0  0  0  0  0  0  0  0  0  0
   -2.1909    1.2444    0.3065 C   0  0  0  0  0  0  0  0  0  0  0  0
   -2.6897    2.6356    0.6216 C   0  0  0  0  0  0  0  0  0  0  0  0
    1.8176   -0.0499    1.6747 H   0  0  0  0  0  0  0  0  0  0  0  0
    3.0418    0.7541    0.6893 H   0  0  0  0  0  0  0  0  0  0  0  0
    1.5884    1.6294    1.1828 H   0  0  0  0  0  0  0  0  0  0  0  0
    1.4318    0.9038   -1.2181 H   0  0  0  0  0  0  0  0  0  0  0  0
   -0.4523   -0.6669    0.5959 H   0  0  0  0  0  0  0  0  0  0  0  0
   -0.7005   -0.3622   -1.1330 H   0  0  0  0  0  0  0  0  0  0  0  0
   -2.4105    0.5594    1.1387 H   0  0  0  0  0  0  0  0  0  0  0  0
   -2.7000    0.8458   -0.5836 H   0  0  0  0  0  0  0  0  0  0  0  0
   -2.4847    3.3122   -0.2087 H   0  0  0  0  0  0  0  0  0  0  0  0
   -3.7662    2.6201    0.7990 H   0  0  0  0  0  0  0  0  0  0  0  0
   -2.1968    3.0255    1.5129 H   0  0  0  0  0  0  0  0  0  0  0  0
  1  3  1  0
  2  5  1  0
  4  5  1  0
  4 10  1  0
  4 11  1  0
  4 12  1  0
  5  6  1  0
  5 13  1  0
  6  7  1  0
  6 14  1  0
  6 15  1  0
  7  8  1  0
  8  9  1  0
  8 16  1  0
  8 17  1  0
  9 18  1  0
  9 19  1  0
  9 20  1  0
M  RAD  1   1   2
M  END
>  <reaction>  (15) 
rmg_rxn_219

>  <mol_properties>  (15) 
{"0": {"label": "*1", "atom_type": "S2s"}, "1": {"label": "*2", "atom_type": "H0"}, "2": {"label": "*0", "atom_type": "H0"}, "4": {"label": "*3", "atom_type": "Cs"}, "5": {"label": "*4", "atom_type": "Cs"}}

>  <type>  (15) 
unop_11

>  <geom_source>  (15) 
Heuristics

$$$$

     RDKit          3D

 20 18  0  0  0  0  0  0  0  0999 V2000
   -0.8227   -3.2163   -0.5861 S   0  0  0  0  0  1  0  0  0  0  0  0
   -0.8227   -1.6118   -0.5090 H   0  0  0  0  0  0  0  0  0  0  0  0
   -0.8227   -3.2163   -1.9247 H   0  0  0  0  0  0  0  0  0  0  0  0
   -0.8227    0.2910   -1.8491 C   0  0  0  0  0  0  0  0  0  0  0  0
   -0.8227   -0.3011   -0.4460 C   0  0  0  0  0  0  0  0  0  0  0  0
    0.3733    0.1255    0.3803 C   0  0  0  0  0  0  0  0  0  0  0  0
    0.3365    1.5177    0.5688 O   0  0  0  0  0  0  0  0  0  0  0  0
    1.4318    2.0093    1.2982 C   0  0  0  0  0  0  0  0  0  0  0  0
    1.2939    3.5074    1.4409 C   0  0  0  0  0  0  0  0  0  0  0  0
    0.0711   -0.0123   -2.4000 H   0  0  0  0  0  0  0  0  0  0  0  0
   -1.6938   -0.0416   -2.4156 H   0  0  0  0  0  0  0  0  0  0  0  0
   -0.8377    1.3801   -1.8086 H   0  0  0  0  0  0  0  0  0  0  0  0
   -1.7329   -0.0095    0.0843 H   0  0  0  0  0  0  0  0  0  0  0  0
    1.3067   -0.1589   -0.1308 H   0  0  0  0  0  0  0  0  0  0  0  0
    0.3654   -0.3852    1.3545 H   0  0  0  0  0  0  0  0  0  0  0  0
    2.3696    1.7570    0.7816 H   0  0  0  0  0  0  0  0  0  0  0  0
    1.4687    1.5306    2.2880 H   0  0  0  0  0  0  0  0  0  0  0  0
    0.3711    3.7579    1.9653 H   0  0  0  0  0  0  0  0  0  0  0  0
    2.1350    3.9123    2.0059 H   0  0  0  0  0  0  0  0  0  0  0  0
    1.2729    3.9844    0.4604 H   0  0  0  0  0  0  0  0  0  0  0  0
  1  3  1  0
  2  5  1  0
  4  5  1  0
  4 10  1  0
  4 11  1  0
  4 12  1  0
  5  6  1  0
  5 13  1  0
  6  7  1  0
  6 14  1  0
  6 15  1  0
  7  8  1  0
  8  9  1  0
  8 16  1  0
  8 17  1  0
  9 18  1  0
  9 19  1  0
  9 20  1  0
M  RAD  1   1   2
M  END
>  <reaction>  (16) 
rmg_rxn_219

>  <mol_properties>  (16) 
{"0": {"label": "*1", "atom_type": "S2s"}, "1": {"label": "*2", "atom_type": "H0"}, "2": {"label": "*0", "atom_type": "H0"}, "4": {"label": "*3", "atom_type": "Cs"}, "5": {"label": "*4", "atom_type": "Cs"}}

>  <type>  (16) 
unop_12

>  <geom_source>  (16) 
Heuristics

$$$$

     RDKit          3D

 20 18  0  0  0  0  0  0  0  0999 V2000
   -0.6060   -3.4095   -0.3914 S   0  0  0  0  0  1  0  0  0  0  0  0
   -0.6060   -1.8050   -0.3143 H   0  0  0  0  0  0  0  0  0  0  0  0
   -0.6060   -3.4095   -1.7300 H   0  0  0  0  0  0  0  0  0  0  0  0
   -1.3210    0.0886   -1.4631 C   0  0  0  0  0  0  0  0  0  0  0  0
   -0.6060   -0.4943   -0.2513 C   0  0  0  0  0  0  0  0  0  0  0  0
    0.6467    0.2699    0.1256 C   0  0  0  0  0  0  0  0  0  0  0  0
    0.2988    1.5794    0.4987 O   0  0  0  0  0  0  0  0  0  0  0  0
    1.4071    2.3756    0.8321 C   0  0  0  0  0  0  0  0  0  0  0  0
    0.9232    3.7551    1.2146 C   0  0  0  0  0  0  0  0  0  0  0  0
   -0.6682    0.0848   -2.3396 H   0  0  0  0  0  0  0  0  0  0  0  0
   -2.2134   -0.4893   -1.7080 H   0  0  0  0  0  0  0  0  0  0  0  0
   -1.6228    1.1188   -1.2746 H   0  0  0  0  0  0  0  0  0  0  0  0
   -1.2778   -0.5065    0.6108 H   0  0  0  0  0  0  0  0  0  0  0  0
    1.3443    0.2958   -0.7265 H   0  0  0  0  0  0  0  0  0  0  0  0
    1.1640   -0.2320    0.9564 H   0  0  0  0  0  0  0  0  0  0  0  0
    2.0976    2.4335   -0.0223 H   0  0  0  0  0  0  0  0  0  0  0  0
    1.9610    1.9178    1.6652 H   0  0  0  0  0  0  0  0  0  0  0  0
    0.2495    3.7001    2.0703 H   0  0  0  0  0  0  0  0  0  0  0  0
    1.7685    4.3926    1.4787 H   0  0  0  0  0  0  0  0  0  0  0  0
    0.3875    4.2161    0.3840 H   0  0  0  0  0  0  0  0  0  0  0  0
  1  3  1  0
  2  5  1  0
  4  5  1  0
  4 10  1  0
  4 11  1  0
  4 12  1  0
  5  6  1  0
  5 13  1  0
  6  7  1  0
  6 14  1  0
  6 15  1  0
  7  8  1  0
  8  9  1  0
  8 16  1  0
  8 17  1  0
  9 18  1  0
  9 19  1  0
  9 20  1  0
M  RAD  1   1   2
M  END
>  <reaction>  (17) 
rmg_rxn_219

>  <mol_properties>  (17) 
{"0": {"label": "*1", "atom_type": "S2s"}, "1": {"label": "*2", "atom_type": "H0"}, "2": {"label": "*0", "atom_type": "H0"}, "4": {"label": "*3", "atom_type": "Cs"}, "5": {"label": "*4", "atom_type": "Cs"}}

>  <type>  (17) 
unop_13

>  <geom_source>  (17) 
gaussian_log

$$$$
