
     RDKit          3D

 18 17  0  0  0  0  0  0  0  0999 V2000
    2.3520    0.9498    0.2303 C   0  0  0  0  0  0  0  0  0  0  0  0
    1.9456   -0.3826   -0.3833 C   0  0  0  0  0  0  0  0  0  0  0  0
    0.6129   -0.8880    0.1586 C   0  0  0  0  0  0  0  0  0  0  0  0
   -0.4216    0.0223   -0.2088 O   0  0  0  0  0  0  0  0  0  0  0  0
   -1.6937   -0.3990    0.2766 C   0  0  0  0  0  0  0  0  0  0  0  0
   -2.7315    0.6179   -0.1548 C   0  0  0  0  0  0  0  0  0  0  0  0
    2.4361    0.8699    1.3188 H   0  0  0  0  0  0  0  0  0  0  0  0
    1.6247    1.7340   -0.0020 H   0  0  0  0  0  0  0  0  0  0  0  0
    3.3238    1.2651   -0.1628 H   0  0  0  0  0  0  0  0  0  0  0  0
    2.7250   -1.1255   -0.1814 H   0  0  0  0  0  0  0  0  0  0  0  0
    1.8763   -0.2576   -1.4701 H   0  0  0  0  0  0  0  0  0  0  0  0
    0.6566   -0.9798    1.2501 H   0  0  0  0  0  0  0  0  0  0  0  0
    0.3966   -1.8732   -0.2699 H   0  0  0  0  0  0  0  0  0  0  0  0
   -1.9410   -1.3825   -0.1378 H   0  0  0  0  0  0  0  0  0  0  0  0
   -1.6694   -0.4651    1.3699 H   0  0  0  0  0  0  0  0  0  0  0  0
   -2.7548    0.7058   -1.2461 H   0  0  0  0  0  0  0  0  0  0  0  0
   -2.4866    1.6097    0.2395 H   0  0  0  0  0  0  0  0  0  0  0  0
   -3.7268    0.3335    0.1978 H   0  0  0  0  0  0  0  0  0  0  0  0
  1  2  1  0
  1  7  1  0
  1  8  1  0
  1  9  1  0
  2  3  1  0
  2 10  1  0
  2 11  1  0
  3  4  1  0
  3 12  1  0
  3 13  1  0
  4  5  1  0
  5  6  1  0
  5 14  1  0
  5 15  1  0
  6 16  1  0
  6 17  1  0
  6 18  1  0
M  END
>  <reaction>  (1) 
rmg_rxn_1162

>  <mol_properties>  (1) 
{"2": {"label": "donator", "atom_type": "Cs"}, "11": {"label": "d_hydrogen", "atom_type": "H0"}}

>  <type>  (1) 
r1h

$$$$

     RDKit          3D

  1  0  0  0  0  0  0  0  0  0999 V2000
    0.0000    0.0000    0.0000 O   0  0  0  0  0 15  0  0  0  0  0  0
M  END
>  <reaction>  (2) 
rmg_rxn_1162

>  <mol_properties>  (2) 
{"0": {"label": "acceptor", "atom_type": "O2s"}}

>  <type>  (2) 
r2

$$$$

     RDKit          3D

  2  1  0  0  0  0  0  0  0  0999 V2000
    0.0000    0.0000    0.1079 O   0  0  0  0  0  1  0  0  0  0  0  0
    0.0000    0.0000   -0.8631 H   0  0  0  0  0  0  0  0  0  0  0  0
  1  2  1  0
M  RAD  1   1   2
M  END
>  <reaction>  (3) 
rmg_rxn_1162

>  <mol_properties>  (3) 
{"0": {"label": "acceptor", "atom_type": "O2s"}, "1": {"label": "a_hydrogen", "atom_type": "H0"}}

>  <type>  (3) 
r2h

$$$$

     RDKit          3D

 19 17  0  0  0  0  0  0  0  0999 V2000
    0.6326    2.4177   -0.3953 O   0  0  0  0  0 15  0  0  0  0  0  0
    2.1900   -0.8687   -0.8763 C   0  0  0  0  0  0  0  0  0  0  0  0
    1.8211   -0.6719    0.5897 C   0  0  0  0  0  0  0  0  0  0  0  0
    0.5355    0.0993    0.7807 C   0  0  0  0  0  0  0  0  0  0  0  0
   -0.5224   -0.5145    0.1651 O   0  0  0  0  0  0  0  0  0  0  0  0
   -1.7625    0.1405    0.3258 C   0  0  0  0  0  0  0  0  0  0  0  0
   -2.8094   -0.5798   -0.4925 C   0  0  0  0  0  0  0  0  0  0  0  0
    2.3307    0.1034   -1.3736 H   0  0  0  0  0  0  0  0  0  0  0  0
    1.3947   -1.4096   -1.4077 H   0  0  0  0  0  0  0  0  0  0  0  0
    3.1235   -1.4408   -0.9769 H   0  0  0  0  0  0  0  0  0  0  0  0
    2.6204   -0.1319    1.1212 H   0  0  0  0  0  0  0  0  0  0  0  0
    1.7112   -1.6488    1.0919 H   0  0  0  0  0  0  0  0  0  0  0  0
    0.6871    1.1824    0.2824 H   0  0  0  0  0  0  0  0  0  0  0  0
    0.3248    0.3454    1.8418 H   0  0  0  0  0  0  0  0  0  0  0  0
   -2.0393    0.1517    1.3986 H   0  0  0  0  0  0  0  0  0  0  0  0
   -1.6521    1.1916    0.0021 H   0  0  0  0  0  0  0  0  0  0  0  0
   -2.8995   -1.6280   -0.1728 H   0  0  0  0  0  0  0  0  0  0  0  0
   -2.5432   -0.5641   -1.5590 H   0  0  0  0  0  0  0  0  0  0  0  0
   -3.7879   -0.0936   -0.3705 H   0  0  0  0  0  0  0  0  0  0  0  0
  2  3  1  0
  2  8  1  0
  2  9  1  0
  2 10  1  0
  3  4  1  0
  3 11  1  0
  3 12  1  0
  4  5  1  0
  4 13  1  0
  4 14  1  0
  5  6  1  0
  6  7  1  0
  6 15  1  0
  6 16  1  0
  7 17  1  0
  7 18  1  0
  7 19  1  0
M  END
>  <reaction>  (4) 
rmg_rxn_1162

>  <mol_properties>  (4) 
{"0": {"label": "*3", "atom_type": "O2s"}, "3": {"label": "*1", "atom_type": "Cs"}, "4": {"label": "*0", "atom_type": "O2s"}, "12": {"label": "*2", "atom_type": "H0"}}

>  <type>  (4) 
ts

$$$$

     RDKit          3D

 19 17  0  0  0  0  0  0  0  0999 V2000
    2.3701    0.7189   -0.2533 O   0  0  0  0  0  1  0  0  0  0  0  0
    0.4153   -1.9668   -1.5152 C   0  0  0  0  0  0  0  0  0  0  0  0
    0.4153   -1.9668    0.0069 C   0  0  0  0  0  0  0  0  0  0  0  0
    0.4153   -0.5566    0.5868 C   0  0  0  0  0  3  0  0  0  0  0  0
   -0.7910    0.1067    0.2143 O   0  0  0  0  0  0  0  0  0  0  0  0
   -0.8438    1.4355    0.7272 C   0  0  0  0  0  0  0  0  0  0  0  0
   -2.1501    2.0666    0.2880 C   0  0  0  0  0  0  0  0  0  0  0  0
    1.2906   -1.4384   -1.9064 H   0  0  0  0  0  0  0  0  0  0  0  0
   -0.4834   -1.4859   -1.9138 H   0  0  0  0  0  0  0  0  0  0  0  0
    0.4426   -2.9940   -1.8923 H   0  0  0  0  0  0  0  0  0  0  0  0
    1.2970   -2.5079    0.3677 H   0  0  0  0  0  0  0  0  0  0  0  0
   -0.4734   -2.5065    0.3540 H   0  0  0  0  0  0  0  0  0  0  0  0
    1.4519    0.1198    0.1413 H   0  0  0  0  0  0  0  0  0  0  0  0
    0.4741   -0.6131    1.6797 H   0  0  0  0  0  0  0  0  0  0  0  0
   -0.7904    1.4126    1.8211 H   0  0  0  0  0  0  0  0  0  0  0  0
   -0.0005    2.0164    0.3378 H   0  0  0  0  0  0  0  0  0  0  0  0
   -3.0020    1.4860    0.6571 H   0  0  0  0  0  0  0  0  0  0  0  0
   -2.2234    2.0804   -0.8045 H   0  0  0  0  0  0  0  0  0  0  0  0
   -2.2332    3.0913    0.6606 H   0  0  0  0  0  0  0  0  0  0  0  0
  1 13  1  0
  2  3  1  0
  2  8  1  0
  2  9  1  0
  2 10  1  0
  3  4  1  0
  3 11  1  0
  3 12  1  0
  4  5  1  0
  4 14  1  0
  5  6  1  0
  6  7  1  0
  6 15  1  0
  6 16  1  0
  7 17  1  0
  7 18  1  0
  7 19  1  0
M  RAD  2   1   2   4   2
M  END
>  <reaction>  (5) 
rmg_rxn_1162

>  <mol_properties>  (5) 
{"0": {"label": "*3", "atom_type": "O2s"}, "3": {"label": "*1", "atom_type": "Cs"}, "4": {"label": "*0", "atom_type": "O2s"}, "12": {"label": "*2", "atom_type": "H0"}}

>  <type>  (5) 
unop_1

>  <geom_source>  (5) 
Heuristics

$$$$

     RDKit          3D

 19 17  0  0  0  0  0  0  0  0999 V2000
    0.7143   -0.3540   -0.7181 O   0  0  0  0  0  0  0  0  0  0  0  0
   -1.2969   -0.1719    1.7330 O   0  0  0  0  0  1  0  0  0  0  0  0
   -1.6736   -0.6530   -0.7024 C   0  0  0  0  0  0  0  0  0  0  0  0
    1.5435   -0.0279    0.3708 C   0  0  0  0  0  0  0  0  0  0  0  0
   -2.0069    0.6905   -0.0621 C   0  0  0  0  0  0  0  0  0  0  0  0
    2.6659    0.8787   -0.1103 C   0  0  0  0  0  0  0  0  0  0  0  0
   -0.3185   -1.1681   -0.2268 C   0  0  0  0  0  3  0  0  0  0  0  0
   -2.4563   -1.3891   -0.4193 H   0  0  0  0  0  0  0  0  0  0  0  0
   -1.6717   -0.5517   -1.8093 H   0  0  0  0  0  0  0  0  0  0  0  0
    0.9702    0.5159    1.1577 H   0  0  0  0  0  0  0  0  0  0  0  0
    1.9985   -0.9466    0.8089 H   0  0  0  0  0  0  0  0  0  0  0  0
    3.3274    1.1424    0.7418 H   0  0  0  0  0  0  0  0  0  0  0  0
    3.2678    0.3598   -0.8864 H   0  0  0  0  0  0  0  0  0  0  0  0
    2.2428    1.8115   -0.5400 H   0  0  0  0  0  0  0  0  0  0  0  0
   -1.2679    1.4609   -0.3691 H   0  0  0  0  0  0  0  0  0  0  0  0
   -2.0039    0.6000    1.0452 H   0  0  0  0  0  0  0  0  0  0  0  0
   -3.0158    1.0181   -0.3902 H   0  0  0  0  0  0  0  0  0  0  0  0
   -0.1658   -2.2086   -0.5855 H   0  0  0  0  0  0  0  0  0  0  0  0
   -0.8531   -1.0071    0.9621 H   0  0  0  0  0  0  0  0  0  0  0  0
  1  4  1  0
  1  7  1  0
  2 19  1  0
  3  5  1  0
  3  7  1  0
  3  8  1  0
  3  9  1  0
  4  6  1  0
  4 10  1  0
  4 11  1  0
  5 15  1  0
  5 16  1  0
  5 17  1  0
  6 12  1  0
  6 13  1  0
  6 14  1  0
  7 18  1  0
M  RAD  2   2   2   7   2
M  END
>  <reaction>  (6) 
rmg_rxn_1162

>  <mol_properties>  (6) 
{"0": {"label": "*3", "atom_type": "O2s"}, "3": {"label": "*1", "atom_type": "Cs"}, "4": {"label": "*0", "atom_type": "O2s"}, "12": {"label": "*2", "atom_type": "H0"}}

>  <type>  (6) 
unop_2

>  <geom_source>  (6) 
AutoTST

$$$$

     RDKit          3D

 19 17  0  0  0  0  0  0  0  0999 V2000
   -0.4852   -0.3866    0.4746 O   0  0  0  0  0  0  0  0  0  0  0  0
    1.1018   -0.2341    3.0240 O   0  0  0  0  0 15  0  0  0  0  0  0
    1.5299    0.6656   -0.3845 C   0  0  0  0  0  0  0  0  0  0  0  0
    0.5799    0.4865    0.8049 C   0  0  0  0  0  0  0  0  0  0  0  0
   -1.6199    0.3476    0.0648 C   0  0  0  0  0  0  0  0  0  0  0  0
    2.1506   -0.6592   -0.8213 C   0  0  0  0  0  0  0  0  0  0  0  0
   -2.6878   -0.6173   -0.4264 C   0  0  0  0  0  0  0  0  0  0  0  0
    0.9856    1.1172   -1.2409 H   0  0  0  0  0  0  0  0  0  0  0  0
    2.3437    1.3630   -0.0909 H   0  0  0  0  0  0  0  0  0  0  0  0
    1.2045   -0.0095    1.7307 H   0  0  0  0  0  0  0  0  0  0  0  0
    0.2392    1.4859    1.1666 H   0  0  0  0  0  0  0  0  0  0  0  0
   -2.0360    0.9249    0.9211 H   0  0  0  0  0  0  0  0  0  0  0  0
   -1.3719    1.0449   -0.7673 H   0  0  0  0  0  0  0  0  0  0  0  0
    2.8574   -0.4790   -1.6585 H   0  0  0  0  0  0  0  0  0  0  0  0
    2.7087   -1.1212    0.0207 H   0  0  0  0  0  0  0  0  0  0  0  0
    1.3634   -1.3609   -1.1699 H   0  0  0  0  0  0  0  0  0  0  0  0
   -2.9729   -1.3160    0.3885 H   0  0  0  0  0  0  0  0  0  0  0  0
   -2.3034   -1.2011   -1.2896 H   0  0  0  0  0  0  0  0  0  0  0  0
   -3.5877   -0.0507   -0.7465 H   0  0  0  0  0  0  0  0  0  0  0  0
  1  5  1  0
  1  4  1  0
  3  6  1  0
  3  4  1  0
  3  8  1  0
  3  9  1  0
  4 10  1  0
  4 11  1  0
  5  7  1  0
  5 12  1  0
  5 13  1  0
  6 14  1  0
  6 15  1  0
  6 16  1  0
  7 17  1  0
  7 18  1  0
  7 19  1  0
M  END
>  <reaction>  (7) 
rmg_rxn_1162

>  <mol_properties>  (7) 
{"0": {"label": "*3", "atom_type": "O2s"}, "3": {"label": "*1", "atom_type": "Cs"}, "4": {"label": "*0", "atom_type": "O2s"}, "12": {"label": "*2", "atom_type": "H0"}}

>  <type>  (7) 
unop_3

>  <geom_source>  (7) 
gaussian_log

$$$$
