
     RDKit          3D

  5  4  0  0  0  0  0  0  0  0999 V2000
    0.7361   -0.2872    0.4035 N   0  0  0  0  0  2  0  0  0  0  0  0
   -0.3891   -0.1505   -0.3131 N   0  0  0  0  0  0  0  0  0  0  0  0
    1.4909    0.0686   -0.1831 H   0  0  0  0  0  0  0  0  0  0  0  0
   -1.1819   -0.6340    0.0744 H   0  0  0  0  0  0  0  0  0  0  0  0
   -0.3592   -0.1189   -1.3223 H   0  0  0  0  0  0  0  0  0  0  0  0
  1  2  1  0
  1  3  1  0
  2  4  1  0
  2  5  1  0
M  RAD  1   1   2
M  END
>  <reaction>  (1) 
rmg_rxn_319

>  <mol_properties>  (1) 
{"0": {"label": "donator", "atom_type": "N3s"}, "2": {"label": "d_hydrogen", "atom_type": "H0"}}

>  <type>  (1) 
r1h

$$$$

     RDKit          3D

 17 16  0  0  0  0  0  0  0  0999 V2000
   -2.5196    0.7765    0.6863 C   0  0  0  0  0  0  0  0  0  0  0  0
   -1.7832    0.2264   -0.5439 C   0  0  0  0  0  0  0  0  0  0  0  0
   -0.5364   -0.5090   -0.2164 C   0  0  0  0  0  3  0  0  0  0  0  0
   -0.7195   -1.6896    0.4220 O   0  0  0  0  0  0  0  0  0  0  0  0
    0.4618   -2.3470    0.8423 C   0  0  0  0  0  0  0  0  0  0  0  0
    0.0797   -3.6206    1.5573 C   0  0  0  0  0  0  0  0  0  0  0  0
   -1.8902    1.4809    1.2340 H   0  0  0  0  0  0  0  0  0  0  0  0
   -3.4347    1.2951    0.3937 H   0  0  0  0  0  0  0  0  0  0  0  0
   -2.7882   -0.0345    1.3642 H   0  0  0  0  0  0  0  0  0  0  0  0
   -2.4551   -0.4399   -1.0937 H   0  0  0  0  0  0  0  0  0  0  0  0
   -1.5294    1.0480   -1.2176 H   0  0  0  0  0  0  0  0  0  0  0  0
    0.3864    0.0229    0.0104 H   0  0  0  0  0  0  0  0  0  0  0  0
    1.0871   -2.5604   -0.0319 H   0  0  0  0  0  0  0  0  0  0  0  0
    1.0283   -1.6824    1.5065 H   0  0  0  0  0  0  0  0  0  0  0  0
   -0.4799   -4.2803    0.8934 H   0  0  0  0  0  0  0  0  0  0  0  0
    0.9764   -4.1449    1.8908 H   0  0  0  0  0  0  0  0  0  0  0  0
   -0.5383   -3.4025    2.4289 H   0  0  0  0  0  0  0  0  0  0  0  0
  1  2  1  0
  1  7  1  0
  1  8  1  0
  1  9  1  0
  2  3  1  0
  2 10  1  0
  2 11  1  0
  3  4  1  0
  3 12  1  0
  4  5  1  0
  5  6  1  0
  5 13  1  0
  5 14  1  0
  6 15  1  0
  6 16  1  0
  6 17  1  0
M  RAD  1   3   2
M  END
>  <reaction>  (2) 
rmg_rxn_319

>  <mol_properties>  (2) 
{"2": {"label": "acceptor", "atom_type": "Cs"}}

>  <type>  (2) 
r2

$$$$

     RDKit          3D

 18 17  0  0  0  0  0  0  0  0999 V2000
    2.2026   -0.7213   -0.2612 C   0  0  0  0  0  0  0  0  0  0  0  0
    1.5384    0.2638    0.6915 C   0  0  0  0  0  0  0  0  0  0  0  0
    2.2584    1.5946    0.7694 C   0  0  0  0  0  0  0  0  0  0  0  0
    2.2212    2.2185   -0.4893 O   0  0  0  0  0  0  0  0  0  0  0  0
    2.8988    3.4488   -0.5204 C   0  0  0  0  0  0  0  0  0  0  0  0
    2.7981    4.0296   -1.9118 C   0  0  0  0  0  0  0  0  0  0  0  0
    3.2294   -0.9309    0.0486 H   0  0  0  0  0  0  0  0  0  0  0  0
    2.2338   -0.3181   -1.2734 H   0  0  0  0  0  0  0  0  0  0  0  0
    1.6610   -1.6680   -0.2875 H   0  0  0  0  0  0  0  0  0  0  0  0
    1.4990   -0.1566    1.7002 H   0  0  0  0  0  0  0  0  0  0  0  0
    0.5055    0.4455    0.3835 H   0  0  0  0  0  0  0  0  0  0  0  0
    3.3038    1.4410    1.0808 H   0  0  0  0  0  0  0  0  0  0  0  0
    1.7844    2.2410    1.5226 H   0  0  0  0  0  0  0  0  0  0  0  0
    2.4596    4.1376    0.2164 H   0  0  0  0  0  0  0  0  0  0  0  0
    3.9524    3.3035   -0.2397 H   0  0  0  0  0  0  0  0  0  0  0  0
    1.7543    4.1869   -2.1856 H   0  0  0  0  0  0  0  0  0  0  0  0
    3.2472    3.3545   -2.6411 H   0  0  0  0  0  0  0  0  0  0  0  0
    3.3178    4.9878   -1.9600 H   0  0  0  0  0  0  0  0  0  0  0  0
  1  2  1  0
  1  7  1  0
  1  8  1  0
  1  9  1  0
  2  3  1  0
  2 10  1  0
  2 11  1  0
  3  4  1  0
  3 12  1  0
  3 13  1  0
  4  5  1  0
  5  6  1  0
  5 14  1  0
  5 15  1  0
  6 16  1  0
  6 17  1  0
  6 18  1  0
M  END
>  <reaction>  (3) 
rmg_rxn_319

>  <mol_properties>  (3) 
{"0": {"label": "a_hydrogen", "atom_type": "H0"}, "3": {"label": "acceptor", "atom_type": "Cs"}}

>  <type>  (3) 
r2h

$$$$

     RDKit          3D

 22 20  0  0  0  0  0  0  0  0999 V2000
   -1.0911   -1.7320   -0.9656 N   0  0  0  0  0  2  0  0  0  0  0  0
    0.2291   -1.8689   -1.1415 N   0  0  0  0  0  0  0  0  0  0  0  0
   -1.1823   -0.5638   -0.5541 H   0  0  0  0  0  0  0  0  0  0  0  0
    0.5524   -2.8226   -1.2007 H   0  0  0  0  0  0  0  0  0  0  0  0
    0.8451   -1.2243   -0.6537 H   0  0  0  0  0  0  0  0  0  0  0  0
    0.2028    1.4051   -2.1870 C   0  0  0  0  0  0  0  0  0  0  0  0
   -0.8677    1.6831   -1.1378 C   0  0  0  0  0  0  0  0  0  0  0  0
   -0.9118    0.6782   -0.0216 C   0  0  0  0  0  3  0  0  0  0  0  0
    0.3053    0.5530    0.6252 O   0  0  0  0  0  0  0  0  0  0  0  0
    0.2357   -0.1395    1.8605 C   0  0  0  0  0  0  0  0  0  0  0  0
    1.6351   -0.3124    2.3995 C   0  0  0  0  0  0  0  0  0  0  0  0
    0.0416    0.4364   -2.6618 H   0  0  0  0  0  0  0  0  0  0  0  0
    0.1875    2.1726   -2.9617 H   0  0  0  0  0  0  0  0  0  0  0  0
    1.1967    1.4011   -1.7377 H   0  0  0  0  0  0  0  0  0  0  0  0
   -0.7120    2.6802   -0.7077 H   0  0  0  0  0  0  0  0  0  0  0  0
   -1.8553    1.6950   -1.6052 H   0  0  0  0  0  0  0  0  0  0  0  0
   -1.7434    0.8171    0.6779 H   0  0  0  0  0  0  0  0  0  0  0  0
   -0.3839    0.4356    2.5594 H   0  0  0  0  0  0  0  0  0  0  0  0
   -0.2492   -1.1107    1.7069 H   0  0  0  0  0  0  0  0  0  0  0  0
    2.1179    0.6557    2.5361 H   0  0  0  0  0  0  0  0  0  0  0  0
    1.6041   -0.8239    3.3624 H   0  0  0  0  0  0  0  0  0  0  0  0
    2.2433   -0.9070    1.7159 H   0  0  0  0  0  0  0  0  0  0  0  0
  1  2  1  0
  1  3  1  0
  2  4  1  0
  2  5  1  0
  6  7  1  0
  6 12  1  0
  6 13  1  0
  6 14  1  0
  7  8  1  0
  7 15  1  0
  7 16  1  0
  8  9  1  0
  8 17  1  0
  9 10  1  0
 10 11  1  0
 10 18  1  0
 10 19  1  0
 11 20  1  0
 11 21  1  0
 11 22  1  0
M  RAD  2   1   2   8   2
M  END
>  <reaction>  (4) 
rmg_rxn_319

>  <mol_properties>  (4) 
{"0": {"label": "*1", "atom_type": "N3s"}, "1": {"label": "*0", "atom_type": "N3s"}, "2": {"label": "*2", "atom_type": "H0"}, "7": {"label": "*3", "atom_type": "Cs"}, "8": {"label": "*4", "atom_type": "O2s"}}

>  <type>  (4) 
ts

$$$$

     RDKit          3D

 22 20  0  0  0  0  0  0  0  0999 V2000
   -0.0999   -2.5422    0.0202 N   0  0  0  0  0  2  0  0  0  0  0  0
   -0.0999   -2.5422   -1.3208 N   0  0  0  0  0  0  0  0  0  0  0  0
   -0.0999   -1.3664    0.3604 H   0  0  0  0  0  0  0  0  0  0  0  0
    0.0880   -3.4422   -1.7297 H   0  0  0  0  0  0  0  0  0  0  0  0
    0.2621   -1.7538   -1.8383 H   0  0  0  0  0  0  0  0  0  0  0  0
   -2.4666    0.8127    0.7415 C   0  0  0  0  0  0  0  0  0  0  0  0
   -1.3323    0.2049    1.5558 C   0  0  0  0  0  0  0  0  0  0  0  0
   -0.0999   -0.0967    0.7279 C   0  0  0  0  0  3  0  0  0  0  0  0
    0.4196    1.1030    0.2122 O   0  0  0  0  0  0  0  0  0  0  0  0
    1.5492    0.9154   -0.6018 C   0  0  0  0  0  0  0  0  0  0  0  0
    2.0232    2.2605   -1.1012 C   0  0  0  0  0  0  0  0  0  0  0  0
   -2.7769    0.1369   -0.0594 H   0  0  0  0  0  0  0  0  0  0  0  0
   -3.3374    1.0111    1.3681 H   0  0  0  0  0  0  0  0  0  0  0  0
   -2.1539    1.7518    0.2850 H   0  0  0  0  0  0  0  0  0  0  0  0
   -1.0488    0.8804    2.3670 H   0  0  0  0  0  0  0  0  0  0  0  0
   -1.6613   -0.7285    2.0211 H   0  0  0  0  0  0  0  0  0  0  0  0
    0.6595   -0.6002    1.3440 H   0  0  0  0  0  0  0  0  0  0  0  0
    2.3449    0.4154   -0.0299 H   0  0  0  0  0  0  0  0  0  0  0  0
    1.2968    0.2585   -1.4473 H   0  0  0  0  0  0  0  0  0  0  0  0
    2.2868    2.9077   -0.2639 H   0  0  0  0  0  0  0  0  0  0  0  0
    2.9020    2.1397   -1.7365 H   0  0  0  0  0  0  0  0  0  0  0  0
    1.2404    2.7503   -1.6815 H   0  0  0  0  0  0  0  0  0  0  0  0
  1  2  1  0
  1  3  1  0
  2  4  1  0
  2  5  1  0
  6  7  1  0
  6 12  1  0
  6 13  1  0
  6 14  1  0
  7  8  1  0
  7 15  1  0
  7 16  1  0
  8  9  1  0
  8 17  1  0
  9 10  1  0
 10 11  1  0
 10 18  1  0
 10 19  1  0
 11 20  1  0
 11 21  1  0
 11 22  1  0
M  RAD  2   1   2   8   2
M  END
>  <reaction>  (5) 
rmg_rxn_319

>  <mol_properties>  (5) 
{"0": {"label": "*1", "atom_type": "N3s"}, "1": {"label": "*0", "atom_type": "N3s"}, "2": {"label": "*2", "atom_type": "H0"}, "7": {"label": "*3", "atom_type": "Cs"}, "8": {"label": "*4", "atom_type": "O2s"}}

>  <type>  (5) 
unop_1

>  <geom_source>  (5) 
Heuristics

$$$$

     RDKit          3D

 22 20  0  0  0  0  0  0  0  0999 V2000
   -0.7038   -2.2332   -0.3813 N   0  0  0  0  0  2  0  0  0  0  0  0
   -0.7038   -2.2332   -1.7222 N   0  0  0  0  0  0  0  0  0  0  0  0
   -0.7038   -1.0574   -0.0410 H   0  0  0  0  0  0  0  0  0  0  0  0
   -0.5158   -3.1331   -2.1311 H   0  0  0  0  0  0  0  0  0  0  0  0
   -0.3418   -1.4448   -2.2397 H   0  0  0  0  0  0  0  0  0  0  0  0
   -0.5810    1.2912   -1.9648 C   0  0  0  0  0  0  0  0  0  0  0  0
   -1.4153    1.0542   -0.7130 C   0  0  0  0  0  0  0  0  0  0  0  0
   -0.7038    0.2124    0.3264 C   0  0  0  0  0  3  0  0  0  0  0  0
    0.4423    0.8929    0.7718 O   0  0  0  0  0  0  0  0  0  0  0  0
    1.1877    0.1678    1.7164 C   0  0  0  0  0  0  0  0  0  0  0  0
    2.3910    0.9856    2.1247 C   0  0  0  0  0  0  0  0  0  0  0  0
   -0.3202    0.3443   -2.4442 H   0  0  0  0  0  0  0  0  0  0  0  0
   -1.1263    1.8951   -2.6915 H   0  0  0  0  0  0  0  0  0  0  0  0
    0.3462    1.8085   -1.7186 H   0  0  0  0  0  0  0  0  0  0  0  0
   -1.6888    2.0097   -0.2579 H   0  0  0  0  0  0  0  0  0  0  0  0
   -2.3492    0.5484   -0.9733 H   0  0  0  0  0  0  0  0  0  0  0  0
   -1.3729    0.0089    1.1754 H   0  0  0  0  0  0  0  0  0  0  0  0
    0.5626   -0.0603    2.5925 H   0  0  0  0  0  0  0  0  0  0  0  0
    1.5043   -0.7936    1.2857 H   0  0  0  0  0  0  0  0  0  0  0  0
    2.0778    1.9331    2.5644 H   0  0  0  0  0  0  0  0  0  0  0  0
    2.9860    0.4416    2.8599 H   0  0  0  0  0  0  0  0  0  0  0  0
    3.0195    1.1990    1.2593 H   0  0  0  0  0  0  0  0  0  0  0  0
  1  2  1  0
  1  3  1  0
  2  4  1  0
  2  5  1  0
  6  7  1  0
  6 12  1  0
  6 13  1  0
  6 14  1  0
  7  8  1  0
  7 15  1  0
  7 16  1  0
  8  9  1  0
  8 17  1  0
  9 10  1  0
 10 11  1  0
 10 18  1  0
 10 19  1  0
 11 20  1  0
 11 21  1  0
 11 22  1  0
M  RAD  2   1   2   8   2
M  END
>  <reaction>  (6) 
rmg_rxn_319

>  <mol_properties>  (6) 
{"0": {"label": "*1", "atom_type": "N3s"}, "1": {"label": "*0", "atom_type": "N3s"}, "2": {"label": "*2", "atom_type": "H0"}, "7": {"label": "*3", "atom_type": "Cs"}, "8": {"label": "*4", "atom_type": "O2s"}}

>  <type>  (6) 
unop_2

>  <geom_source>  (6) 
Heuristics

$$$$

     RDKit          3D

 22 20  0  0  0  0  0  0  0  0999 V2000
    0.3087   -2.4596    0.0533 N   0  0  0  0  0  2  0  0  0  0  0  0
    0.3087   -2.4596   -1.2876 N   0  0  0  0  0  0  0  0  0  0  0  0
    0.3087   -1.2838    0.3936 H   0  0  0  0  0  0  0  0  0  0  0  0
    0.4967   -3.3596   -1.6965 H   0  0  0  0  0  0  0  0  0  0  0  0
    0.6707   -1.6712   -1.8051 H   0  0  0  0  0  0  0  0  0  0  0  0
   -1.9116    0.2918    1.9463 C   0  0  0  0  0  0  0  0  0  0  0  0
   -0.4028    0.1427    2.0893 C   0  0  0  0  0  0  0  0  0  0  0  0
    0.3087   -0.0141    0.7610 C   0  0  0  0  0  3  0  0  0  0  0  0
    0.1253    1.1494   -0.0057 O   0  0  0  0  0  0  0  0  0  0  0  0
    0.7241    1.0793   -1.2746 C   0  0  0  0  0  0  0  0  0  0  0  0
    0.4668    2.3736   -2.0109 C   0  0  0  0  0  0  0  0  0  0  0  0
   -2.3445   -0.5821    1.4528 H   0  0  0  0  0  0  0  0  0  0  0  0
   -2.3900    0.3967    2.9211 H   0  0  0  0  0  0  0  0  0  0  0  0
   -2.1580    1.1698    1.3493 H   0  0  0  0  0  0  0  0  0  0  0  0
    0.0129    1.0119    2.6054 H   0  0  0  0  0  0  0  0  0  0  0  0
   -0.1675   -0.7320    2.7020 H   0  0  0  0  0  0  0  0  0  0  0  0
    1.3821   -0.1918    0.9221 H   0  0  0  0  0  0  0  0  0  0  0  0
    1.8053    0.9049   -1.1701 H   0  0  0  0  0  0  0  0  0  0  0  0
    0.3119    0.2285   -1.8369 H   0  0  0  0  0  0  0  0  0  0  0  0
    0.8872    3.2163   -1.4609 H   0  0  0  0  0  0  0  0  0  0  0  0
    0.9240    2.3426   -3.0011 H   0  0  0  0  0  0  0  0  0  0  0  0
   -0.6046    2.5397   -2.1287 H   0  0  0  0  0  0  0  0  0  0  0  0
  1  2  1  0
  1  3  1  0
  2  4  1  0
  2  5  1  0
  6  7  1  0
  6 12  1  0
  6 13  1  0
  6 14  1  0
  7  8  1  0
  7 15  1  0
  7 16  1  0
  8  9  1  0
  8 17  1  0
  9 10  1  0
 10 11  1  0
 10 18  1  0
 10 19  1  0
 11 20  1  0
 11 21  1  0
 11 22  1  0
M  RAD  2   1   2   8   2
M  END
>  <reaction>  (7) 
rmg_rxn_319

>  <mol_properties>  (7) 
{"0": {"label": "*1", "atom_type": "N3s"}, "1": {"label": "*0", "atom_type": "N3s"}, "2": {"label": "*2", "atom_type": "H0"}, "7": {"label": "*3", "atom_type": "Cs"}, "8": {"label": "*4", "atom_type": "O2s"}}

>  <type>  (7) 
unop_3

>  <geom_source>  (7) 
Heuristics

$$$$

     RDKit          3D

 22 20  0  0  0  0  0  0  0  0999 V2000
   -0.3472   -1.4192   -0.9645 N   0  0  0  0  0  2  0  0  0  0  0  0
   -0.3472   -1.4192   -2.3055 N   0  0  0  0  0  0  0  0  0  0  0  0
   -0.3472   -0.2434   -0.6243 H   0  0  0  0  0  0  0  0  0  0  0  0
   -0.1593   -2.3191   -2.7144 H   0  0  0  0  0  0  0  0  0  0  0  0
    0.0148   -0.6308   -2.8230 H   0  0  0  0  0  0  0  0  0  0  0  0
    2.0543    0.7762   -1.0305 C   0  0  0  0  0  0  0  0  0  0  0  0
    0.8852    1.7235   -0.7958 C   0  0  0  0  0  0  0  0  0  0  0  0
   -0.3472    1.0264   -0.2568 C   0  0  0  0  0  3  0  0  0  0  0  0
   -0.0584    0.4793    1.0050 O   0  0  0  0  0  0  0  0  0  0  0  0
   -1.1385   -0.2203    1.5684 C   0  0  0  0  0  0  0  0  0  0  0  0
   -0.7221   -0.7647    2.9151 C   0  0  0  0  0  0  0  0  0  0  0  0
    1.7868   -0.0021   -1.7497 H   0  0  0  0  0  0  0  0  0  0  0  0
    2.9204    1.3110   -1.4229 H   0  0  0  0  0  0  0  0  0  0  0  0
    2.3475    0.2873   -0.1015 H   0  0  0  0  0  0  0  0  0  0  0  0
    1.1744    2.5097   -0.0937 H   0  0  0  0  0  0  0  0  0  0  0  0
    0.6092    2.2193   -1.7306 H   0  0  0  0  0  0  0  0  0  0  0  0
   -1.1824    1.7375   -0.1751 H   0  0  0  0  0  0  0  0  0  0  0  0
   -2.0045    0.4498    1.6757 H   0  0  0  0  0  0  0  0  0  0  0  0
   -1.4439   -1.0391    0.9003 H   0  0  0  0  0  0  0  0  0  0  0  0
   -0.4323    0.0476    3.5826 H   0  0  0  0  0  0  0  0  0  0  0  0
   -1.5471   -1.3126    3.3730 H   0  0  0  0  0  0  0  0  0  0  0  0
    0.1265   -1.4413    2.8079 H   0  0  0  0  0  0  0  0  0  0  0  0
  1  2  1  0
  1  3  1  0
  2  4  1  0
  2  5  1  0
  6  7  1  0
  6 12  1  0
  6 13  1  0
  6 14  1  0
  7  8  1  0
  7 15  1  0
  7 16  1  0
  8  9  1  0
  8 17  1  0
  9 10  1  0
 10 11  1  0
 10 18  1  0
 10 19  1  0
 11 20  1  0
 11 21  1  0
 11 22  1  0
M  RAD  2   1   2   8   2
M  END
>  <reaction>  (8) 
rmg_rxn_319

>  <mol_properties>  (8) 
{"0": {"label": "*1", "atom_type": "N3s"}, "1": {"label": "*0", "atom_type": "N3s"}, "2": {"label": "*2", "atom_type": "H0"}, "7": {"label": "*3", "atom_type": "Cs"}, "8": {"label": "*4", "atom_type": "O2s"}}

>  <type>  (8) 
unop_4

>  <geom_source>  (8) 
Heuristics

$$$$

     RDKit          3D

 22 20  0  0  0  0  0  0  0  0999 V2000
    0.7571   -2.0710   -0.1906 N   0  0  0  0  0  2  0  0  0  0  0  0
    0.7571   -2.0710   -1.5316 N   0  0  0  0  0  0  0  0  0  0  0  0
    0.7571   -0.8952    0.1496 H   0  0  0  0  0  0  0  0  0  0  0  0
    0.9451   -2.9709   -1.9405 H   0  0  0  0  0  0  0  0  0  0  0  0
    1.1191   -1.2826   -2.0491 H   0  0  0  0  0  0  0  0  0  0  0  0
   -0.4260   -0.2280    2.6770 C   0  0  0  0  0  0  0  0  0  0  0  0
    0.7571    0.4783    2.0285 C   0  0  0  0  0  0  0  0  0  0  0  0
    0.7571    0.3746    0.5170 C   0  0  0  0  0  3  0  0  0  0  0  0
   -0.3817    1.0202    0.0059 O   0  0  0  0  0  0  0  0  0  0  0  0
   -0.4837    0.9434   -1.3931 C   0  0  0  0  0  0  0  0  0  0  0  0
   -1.7363    1.6644   -1.8343 C   0  0  0  0  0  0  0  0  0  0  0  0
   -0.4276   -1.2925    2.4296 H   0  0  0  0  0  0  0  0  0  0  0  0
   -0.3901   -0.1371    3.7636 H   0  0  0  0  0  0  0  0  0  0  0  0
   -1.3674    0.1980    2.3301 H   0  0  0  0  0  0  0  0  0  0  0  0
    0.7596    1.5361    2.3039 H   0  0  0  0  0  0  0  0  0  0  0  0
    1.6959    0.0534    2.3946 H   0  0  0  0  0  0  0  0  0  0  0  0
    1.6665    0.8346    0.1033 H   0  0  0  0  0  0  0  0  0  0  0  0
    0.4044    1.3952   -1.8594 H   0  0  0  0  0  0  0  0  0  0  0  0
   -0.5146   -0.1098   -1.7092 H   0  0  0  0  0  0  0  0  0  0  0  0
   -1.7003    2.7119   -1.5334 H   0  0  0  0  0  0  0  0  0  0  0  0
   -1.8365    1.6183   -2.9199 H   0  0  0  0  0  0  0  0  0  0  0  0
   -2.6186    1.2074   -1.3849 H   0  0  0  0  0  0  0  0  0  0  0  0
  1  2  1  0
  1  3  1  0
  2  4  1  0
  2  5  1  0
  6  7  1  0
  6 12  1  0
  6 13  1  0
  6 14  1  0
  7  8  1  0
  7 15  1  0
  7 16  1  0
  8  9  1  0
  8 17  1  0
  9 10  1  0
 10 11  1  0
 10 18  1  0
 10 19  1  0
 11 20  1  0
 11 21  1  0
 11 22  1  0
M  RAD  2   1   2   8   2
M  END
>  <reaction>  (9) 
rmg_rxn_319

>  <mol_properties>  (9) 
{"0": {"label": "*1", "atom_type": "N3s"}, "1": {"label": "*0", "atom_type": "N3s"}, "2": {"label": "*2", "atom_type": "H0"}, "7": {"label": "*3", "atom_type": "Cs"}, "8": {"label": "*4", "atom_type": "O2s"}}

>  <type>  (9) 
unop_5

>  <geom_source>  (9) 
Heuristics

$$$$

     RDKit          3D

 22 20  0  0  0  0  0  0  0  0999 V2000
    0.0215   -1.3161   -0.9841 N   0  0  0  0  0  2  0  0  0  0  0  0
    0.0215   -1.3161   -2.3250 N   0  0  0  0  0  0  0  0  0  0  0  0
    0.0215   -0.1403   -0.6438 H   0  0  0  0  0  0  0  0  0  0  0  0
    0.2095   -2.2161   -2.7339 H   0  0  0  0  0  0  0  0  0  0  0  0
    0.3835   -0.5277   -2.8425 H   0  0  0  0  0  0  0  0  0  0  0  0
    2.4616    0.5045    0.0128 C   0  0  0  0  0  0  0  0  0  0  0  0
    1.4446    1.6287   -0.1319 C   0  0  0  0  0  0  0  0  0  0  0  0
    0.0215    1.1294   -0.2764 C   0  0  0  0  0  3  0  0  0  0  0  0
   -0.3523    0.4437    0.8920 O   0  0  0  0  0  0  0  0  0  0  0  0
   -1.6514   -0.0877    0.8334 C   0  0  0  0  0  0  0  0  0  0  0  0
   -1.9492   -0.8006    2.1321 C   0  0  0  0  0  0  0  0  0  0  0  0
    2.4409   -0.1543   -0.8589 H   0  0  0  0  0  0  0  0  0  0  0  0
    3.4737    0.9005    0.1089 H   0  0  0  0  0  0  0  0  0  0  0  0
    2.2467   -0.0994    0.8944 H   0  0  0  0  0  0  0  0  0  0  0  0
    1.4932    2.2927    0.7350 H   0  0  0  0  0  0  0  0  0  0  0  0
    1.6783    2.2368   -1.0102 H   0  0  0  0  0  0  0  0  0  0  0  0
   -0.6625    1.9728   -0.4515 H   0  0  0  0  0  0  0  0  0  0  0  0
   -2.3794    0.7191    0.6620 H   0  0  0  0  0  0  0  0  0  0  0  0
   -1.7338   -0.7833   -0.0148 H   0  0  0  0  0  0  0  0  0  0  0  0
   -1.8813   -0.1085    2.9721 H   0  0  0  0  0  0  0  0  0  0  0  0
   -2.9555   -1.2220    2.1099 H   0  0  0  0  0  0  0  0  0  0  0  0
   -1.2375   -1.6107    2.2952 H   0  0  0  0  0  0  0  0  0  0  0  0
  1  2  1  0
  1  3  1  0
  2  4  1  0
  2  5  1  0
  6  7  1  0
  6 12  1  0
  6 13  1  0
  6 14  1  0
  7  8  1  0
  7 15  1  0
  7 16  1  0
  8  9  1  0
  8 17  1  0
  9 10  1  0
 10 11  1  0
 10 18  1  0
 10 19  1  0
 11 20  1  0
 11 21  1  0
 11 22  1  0
M  RAD  2   1   2   8   2
M  END
>  <reaction>  (10) 
rmg_rxn_319

>  <mol_properties>  (10) 
{"0": {"label": "*1", "atom_type": "N3s"}, "1": {"label": "*0", "atom_type": "N3s"}, "2": {"label": "*2", "atom_type": "H0"}, "7": {"label": "*3", "atom_type": "Cs"}, "8": {"label": "*4", "atom_type": "O2s"}}

>  <type>  (10) 
unop_6

>  <geom_source>  (10) 
Heuristics

$$$$

     RDKit          3D

 22 20  0  0  0  0  0  0  0  0999 V2000
    0.3979   -1.3466   -0.8728 N   0  0  0  0  0  2  0  0  0  0  0  0
    0.3979   -1.3466   -2.2137 N   0  0  0  0  0  0  0  0  0  0  0  0
    0.3979   -0.1708   -0.5325 H   0  0  0  0  0  0  0  0  0  0  0  0
    0.5859   -2.2465   -2.6226 H   0  0  0  0  0  0  0  0  0  0  0  0
    0.7599   -0.5582   -2.7312 H   0  0  0  0  0  0  0  0  0  0  0  0
    2.2872    0.1515    1.2353 C   0  0  0  0  0  0  0  0  0  0  0  0
    1.6303    1.4005    0.6629 C   0  0  0  0  0  0  0  0  0  0  0  0
    0.3979    1.0990   -0.1651 C   0  0  0  0  0  3  0  0  0  0  0  0
   -0.5811    0.5113    0.6541 O   0  0  0  0  0  0  0  0  0  0  0  0
   -1.7518    0.1637   -0.0404 C   0  0  0  0  0  0  0  0  0  0  0  0
   -2.7313   -0.4572    0.9285 C   0  0  0  0  0  0  0  0  0  0  0  0
    2.5969   -0.5269    0.4363 H   0  0  0  0  0  0  0  0  0  0  0  0
    3.1725    0.4062    1.8198 H   0  0  0  0  0  0  0  0  0  0  0  0
    1.5947   -0.3869    1.8823 H   0  0  0  0  0  0  0  0  0  0  0  0
    1.3478    2.0799    1.4712 H   0  0  0  0  0  0  0  0  0  0  0  0
    2.3381    1.9405    0.0278 H   0  0  0  0  0  0  0  0  0  0  0  0
    0.0054    2.0228   -0.6149 H   0  0  0  0  0  0  0  0  0  0  0  0
   -2.1892    1.0575   -0.5094 H   0  0  0  0  0  0  0  0  0  0  0  0
   -1.5119   -0.5418   -0.8496 H   0  0  0  0  0  0  0  0  0  0  0  0
   -2.9804    0.2465    1.7236 H   0  0  0  0  0  0  0  0  0  0  0  0
   -3.6505   -0.7353    0.4107 H   0  0  0  0  0  0  0  0  0  0  0  0
   -2.3045   -1.3523    1.3824 H   0  0  0  0  0  0  0  0  0  0  0  0
  1  2  1  0
  1  3  1  0
  2  4  1  0
  2  5  1  0
  6  7  1  0
  6 12  1  0
  6 13  1  0
  6 14  1  0
  7  8  1  0
  7 15  1  0
  7 16  1  0
  8  9  1  0
  8 17  1  0
  9 10  1  0
 10 11  1  0
 10 18  1  0
 10 19  1  0
 11 20  1  0
 11 21  1  0
 11 22  1  0
M  RAD  2   1   2   8   2
M  END
>  <reaction>  (11) 
rmg_rxn_319

>  <mol_properties>  (11) 
{"0": {"label": "*1", "atom_type": "N3s"}, "1": {"label": "*0", "atom_type": "N3s"}, "2": {"label": "*2", "atom_type": "H0"}, "7": {"label": "*3", "atom_type": "Cs"}, "8": {"label": "*4", "atom_type": "O2s"}}

>  <type>  (11) 
unop_7

>  <geom_source>  (11) 
Heuristics

$$$$

     RDKit          3D

 22 20  0  0  0  0  0  0  0  0999 V2000
   -0.3588   -2.5083   -0.0937 N   0  0  0  0  0  2  0  0  0  0  0  0
   -0.3588   -2.5083   -1.4347 N   0  0  0  0  0  0  0  0  0  0  0  0
   -0.3588   -1.3325    0.2465 H   0  0  0  0  0  0  0  0  0  0  0  0
   -0.1709   -3.4083   -1.8436 H   0  0  0  0  0  0  0  0  0  0  0  0
    0.0032   -1.7199   -1.9522 H   0  0  0  0  0  0  0  0  0  0  0  0
   -2.2897    1.1638   -0.4795 C   0  0  0  0  0  0  0  0  0  0  0  0
   -1.7819    0.4366    0.7584 C   0  0  0  0  0  0  0  0  0  0  0  0
   -0.3588   -0.0627    0.6139 C   0  0  0  0  0  3  0  0  0  0  0  0
    0.5052    1.0337    0.4514 O   0  0  0  0  0  0  0  0  0  0  0  0
    1.8482    0.6618    0.2736 C   0  0  0  0  0  0  0  0  0  0  0  0
    2.6851    1.9091    0.1083 C   0  0  0  0  0  0  0  0  0  0  0  0
   -2.2682    0.5075   -1.3532 H   0  0  0  0  0  0  0  0  0  0  0  0
   -3.3172    1.5036   -0.3415 H   0  0  0  0  0  0  0  0  0  0  0  0
   -1.6695    2.0330   -0.6983 H   0  0  0  0  0  0  0  0  0  0  0  0
   -1.8315    1.0967    1.6282 H   0  0  0  0  0  0  0  0  0  0  0  0
   -2.4196   -0.4244    0.9772 H   0  0  0  0  0  0  0  0  0  0  0  0
   -0.0662   -0.6425    1.5017 H   0  0  0  0  0  0  0  0  0  0  0  0
    2.1939    0.0789    1.1401 H   0  0  0  0  0  0  0  0  0  0  0  0
    1.9439    0.0146   -0.6107 H   0  0  0  0  0  0  0  0  0  0  0  0
    2.6018    2.5449    0.9905 H   0  0  0  0  0  0  0  0  0  0  0  0
    3.7345    1.6446   -0.0309 H   0  0  0  0  0  0  0  0  0  0  0  0
    2.3532    2.4798   -0.7597 H   0  0  0  0  0  0  0  0  0  0  0  0
  1  2  1  0
  1  3  1  0
  2  4  1  0
  2  5  1  0
  6  7  1  0
  6 12  1  0
  6 13  1  0
  6 14  1  0
  7  8  1  0
  7 15  1  0
  7 16  1  0
  8  9  1  0
  8 17  1  0
  9 10  1  0
 10 11  1  0
 10 18  1  0
 10 19  1  0
 11 20  1  0
 11 21  1  0
 11 22  1  0
M  RAD  2   1   2   8   2
M  END
>  <reaction>  (12) 
rmg_rxn_319

>  <mol_properties>  (12) 
{"0": {"label": "*1", "atom_type": "N3s"}, "1": {"label": "*0", "atom_type": "N3s"}, "2": {"label": "*2", "atom_type": "H0"}, "7": {"label": "*3", "atom_type": "Cs"}, "8": {"label": "*4", "atom_type": "O2s"}}

>  <type>  (12) 
unop_8

>  <geom_source>  (12) 
Heuristics

$$$$

     RDKit          3D

 22 20  0  0  0  0  0  0  0  0999 V2000
   -0.6413   -1.6458   -0.8199 N   0  0  0  0  0  2  0  0  0  0  0  0
   -0.6413   -1.6458   -2.1609 N   0  0  0  0  0  0  0  0  0  0  0  0
   -0.6413   -0.4701   -0.4797 H   0  0  0  0  0  0  0  0  0  0  0  0
   -0.4533   -2.5458   -2.5698 H   0  0  0  0  0  0  0  0  0  0  0  0
   -0.2793   -0.8574   -2.6784 H   0  0  0  0  0  0  0  0  0  0  0  0
    1.3103    0.9664   -1.7222 C   0  0  0  0  0  0  0  0  0  0  0  0
    0.0702    1.6416   -1.1516 C   0  0  0  0  0  0  0  0  0  0  0  0
   -0.6413    0.7997   -0.1123 C   0  0  0  0  0  3  0  0  0  0  0  0
    0.2093    0.6022    0.9889 O   0  0  0  0  0  0  0  0  0  0  0  0
   -0.3573   -0.2015    1.9922 C   0  0  0  0  0  0  0  0  0  0  0  0
    0.6356   -0.3495    3.1217 C   0  0  0  0  0  0  0  0  0  0  0  0
    1.0524    0.0182   -2.2006 H   0  0  0  0  0  0  0  0  0  0  0  0
    1.7926    1.5980   -2.4696 H   0  0  0  0  0  0  0  0  0  0  0  0
    2.0336    0.7579   -0.9339 H   0  0  0  0  0  0  0  0  0  0  0  0
    0.3394    2.5989   -0.6979 H   0  0  0  0  0  0  0  0  0  0  0  0
   -0.6417    1.8595   -1.9525 H   0  0  0  0  0  0  0  0  0  0  0  0
   -1.5667    1.2974    0.2131 H   0  0  0  0  0  0  0  0  0  0  0  0
   -1.2893    0.2551    2.3569 H   0  0  0  0  0  0  0  0  0  0  0  0
   -0.6197   -1.1868    1.5793 H   0  0  0  0  0  0  0  0  0  0  0  0
    0.8858    0.6258    3.5407 H   0  0  0  0  0  0  0  0  0  0  0  0
    0.2163   -0.9707    3.9147 H   0  0  0  0  0  0  0  0  0  0  0  0
    1.5541   -0.8163    2.7644 H   0  0  0  0  0  0  0  0  0  0  0  0
  1  2  1  0
  1  3  1  0
  2  4  1  0
  2  5  1  0
  6  7  1  0
  6 12  1  0
  6 13  1  0
  6 14  1  0
  7  8  1  0
  7 15  1  0
  7 16  1  0
  8  9  1  0
  8 17  1  0
  9 10  1  0
 10 11  1  0
 10 18  1  0
 10 19  1  0
 11 20  1  0
 11 21  1  0
 11 22  1  0
M  RAD  2   1   2   8   2
M  END
>  <reaction>  (13) 
rmg_rxn_319

>  <mol_properties>  (13) 
{"0": {"label": "*1", "atom_type": "N3s"}, "1": {"label": "*0", "atom_type": "N3s"}, "2": {"label": "*2", "atom_type": "H0"}, "7": {"label": "*3", "atom_type": "Cs"}, "8": {"label": "*4", "atom_type": "O2s"}}

>  <type>  (13) 
unop_9

>  <geom_source>  (13) 
Heuristics

$$$$

     RDKit          3D

 22 20  0  0  0  0  0  0  0  0999 V2000
   -0.5483   -2.4123   -0.2228 N   0  0  0  0  0  2  0  0  0  0  0  0
   -0.5483   -2.4123   -1.5638 N   0  0  0  0  0  0  0  0  0  0  0  0
   -0.5483   -1.2365    0.1174 H   0  0  0  0  0  0  0  0  0  0  0  0
   -0.3603   -3.3122   -1.9727 H   0  0  0  0  0  0  0  0  0  0  0  0
   -0.1863   -1.6238   -2.0813 H   0  0  0  0  0  0  0  0  0  0  0  0
   -1.5736    1.3253   -1.4407 C   0  0  0  0  0  0  0  0  0  0  0  0
   -1.7807    0.7304   -0.0542 C   0  0  0  0  0  0  0  0  0  0  0  0
   -0.5483    0.0333    0.4848 C   0  0  0  0  0  3  0  0  0  0  0  0
    0.4875    0.9707    0.6380 O   0  0  0  0  0  0  0  0  0  0  0  0
    1.6863    0.4041    1.1021 C   0  0  0  0  0  0  0  0  0  0  0  0
    2.7267    1.4926    1.2293 C   0  0  0  0  0  0  0  0  0  0  0  0
   -1.3043    0.5492   -2.1614 H   0  0  0  0  0  0  0  0  0  0  0  0
   -2.4816    1.8134   -1.7981 H   0  0  0  0  0  0  0  0  0  0  0  0
   -0.7719    2.0636   -1.4282 H   0  0  0  0  0  0  0  0  0  0  0  0
   -2.0727    1.5134    0.6504 H   0  0  0  0  0  0  0  0  0  0  0  0
   -2.5965    0.0025   -0.0750 H   0  0  0  0  0  0  0  0  0  0  0  0
   -0.7709   -0.4411    1.4519 H   0  0  0  0  0  0  0  0  0  0  0  0
    1.5192   -0.0835    2.0740 H   0  0  0  0  0  0  0  0  0  0  0  0
    2.0276   -0.3744    0.4039 H   0  0  0  0  0  0  0  0  0  0  0  0
    2.3951    2.2579    1.9318 H   0  0  0  0  0  0  0  0  0  0  0  0
    3.6683    1.0753    1.5896 H   0  0  0  0  0  0  0  0  0  0  0  0
    2.9045    1.9662    0.2631 H   0  0  0  0  0  0  0  0  0  0  0  0
  1  2  1  0
  1  3  1  0
  2  4  1  0
  2  5  1  0
  6  7  1  0
  6 12  1  0
  6 13  1  0
  6 14  1  0
  7  8  1  0
  7 15  1  0
  7 16  1  0
  8  9  1  0
  8 17  1  0
  9 10  1  0
 10 11  1  0
 10 18  1  0
 10 19  1  0
 11 20  1  0
 11 21  1  0
 11 22  1  0
M  RAD  2   1   2   8   2
M  END
>  <reaction>  (14) 
rmg_rxn_319

>  <mol_properties>  (14) 
{"0": {"label": "*1", "atom_type": "N3s"}, "1": {"label": "*0", "atom_type": "N3s"}, "2": {"label": "*2", "atom_type": "H0"}, "7": {"label": "*3", "atom_type": "Cs"}, "8": {"label": "*4", "atom_type": "O2s"}}

>  <type>  (14) 
unop_10

>  <geom_source>  (14) 
Heuristics

$$$$

     RDKit          3D

 22 20  0  0  0  0  0  0  0  0999 V2000
    0.7258   -1.5704   -0.6108 N   0  0  0  0  0  2  0  0  0  0  0  0
    0.7258   -1.5704   -1.9517 N   0  0  0  0  0  0  0  0  0  0  0  0
    0.7258   -0.3946   -0.2705 H   0  0  0  0  0  0  0  0  0  0  0  0
    0.9137   -2.4704   -2.3606 H   0  0  0  0  0  0  0  0  0  0  0  0
    1.0878   -0.7820   -2.4692 H   0  0  0  0  0  0  0  0  0  0  0  0
    1.3250   -0.2000    2.3135 C   0  0  0  0  0  0  0  0  0  0  0  0
    1.4373    1.0319    1.4252 C   0  0  0  0  0  0  0  0  0  0  0  0
    0.7258    0.8752    0.0969 C   0  0  0  0  0  3  0  0  0  0  0  0
   -0.6513    0.7093    0.3230 O   0  0  0  0  0  0  0  0  0  0  0  0
   -1.3898    0.5203   -0.8570 C   0  0  0  0  0  0  0  0  0  0  0  0
   -2.8489    0.3524   -0.5014 C   0  0  0  0  0  0  0  0  0  0  0  0
    1.7555   -1.0757    1.8215 H   0  0  0  0  0  0  0  0  0  0  0  0
    1.8526   -0.0531    3.2571 H   0  0  0  0  0  0  0  0  0  0  0  0
    0.2813   -0.4208    2.5372 H   0  0  0  0  0  0  0  0  0  0  0  0
    1.0249    1.9040    1.9391 H   0  0  0  0  0  0  0  0  0  0  0  0
    2.4884    1.2529    1.2196 H   0  0  0  0  0  0  0  0  0  0  0  0
    0.8985    1.7589   -0.5347 H   0  0  0  0  0  0  0  0  0  0  0  0
   -1.2540    1.3824   -1.5268 H   0  0  0  0  0  0  0  0  0  0  0  0
   -1.0200   -0.3667   -1.3924 H   0  0  0  0  0  0  0  0  0  0  0  0
   -3.2200    1.2371    0.0172 H   0  0  0  0  0  0  0  0  0  0  0  0
   -3.4435    0.2044   -1.4043 H   0  0  0  0  0  0  0  0  0  0  0  0
   -2.9865   -0.5114    0.1500 H   0  0  0  0  0  0  0  0  0  0  0  0
  1  2  1  0
  1  3  1  0
  2  4  1  0
  2  5  1  0
  6  7  1  0
  6 12  1  0
  6 13  1  0
  6 14  1  0
  7  8  1  0
  7 15  1  0
  7 16  1  0
  8  9  1  0
  8 17  1  0
  9 10  1  0
 10 11  1  0
 10 18  1  0
 10 19  1  0
 11 20  1  0
 11 21  1  0
 11 22  1  0
M  RAD  2   1   2   8   2
M  END
>  <reaction>  (15) 
rmg_rxn_319

>  <mol_properties>  (15) 
{"0": {"label": "*1", "atom_type": "N3s"}, "1": {"label": "*0", "atom_type": "N3s"}, "2": {"label": "*2", "atom_type": "H0"}, "7": {"label": "*3", "atom_type": "Cs"}, "8": {"label": "*4", "atom_type": "O2s"}}

>  <type>  (15) 
unop_11

>  <geom_source>  (15) 
Heuristics

$$$$

     RDKit          3D

 22 20  0  0  0  0  0  0  0  0999 V2000
   -0.7665   -1.9539   -0.5951 N   0  0  0  0  0  2  0  0  0  0  0  0
   -0.7665   -1.9539   -1.9360 N   0  0  0  0  0  0  0  0  0  0  0  0
   -0.7665   -0.7782   -0.2548 H   0  0  0  0  0  0  0  0  0  0  0  0
   -0.5786   -2.8539   -2.3449 H   0  0  0  0  0  0  0  0  0  0  0  0
   -0.4045   -1.1655   -2.4535 H   0  0  0  0  0  0  0  0  0  0  0  0
    0.4166    1.1356   -2.0354 C   0  0  0  0  0  0  0  0  0  0  0  0
   -0.7665    1.3865   -1.1099 C   0  0  0  0  0  0  0  0  0  0  0  0
   -0.7665    0.4916    0.1126 C   0  0  0  0  0  3  0  0  0  0  0  0
    0.3723    0.7646    0.8895 O   0  0  0  0  0  0  0  0  0  0  0  0
    0.4743   -0.0475    2.0313 C   0  0  0  0  0  0  0  0  0  0  0  0
    1.7269    0.3264    2.7894 C   0  0  0  0  0  0  0  0  0  0  0  0
    0.4182    0.1034   -2.3946 H   0  0  0  0  0  0  0  0  0  0  0  0
    0.3807    1.7927   -2.9056 H   0  0  0  0  0  0  0  0  0  0  0  0
    1.3580    1.3105   -1.5146 H   0  0  0  0  0  0  0  0  0  0  0  0
   -0.7690    2.4279   -0.7778 H   0  0  0  0  0  0  0  0  0  0  0  0
   -1.7052    1.2227   -1.6464 H   0  0  0  0  0  0  0  0  0  0  0  0
   -1.6759    0.6596    0.7081 H   0  0  0  0  0  0  0  0  0  0  0  0
   -0.4138    0.0855    2.6668 H   0  0  0  0  0  0  0  0  0  0  0  0
    0.5052   -1.1067    1.7362 H   0  0  0  0  0  0  0  0  0  0  0  0
    1.6909    1.3728    3.0944 H   0  0  0  0  0  0  0  0  0  0  0  0
    1.8271   -0.2922    3.6826 H   0  0  0  0  0  0  0  0  0  0  0  0
    2.6092    0.1801    2.1653 H   0  0  0  0  0  0  0  0  0  0  0  0
  1  2  1  0
  1  3  1  0
  2  4  1  0
  2  5  1  0
  6  7  1  0
  6 12  1  0
  6 13  1  0
  6 14  1  0
  7  8  1  0
  7 15  1  0
  7 16  1  0
  8  9  1  0
  8 17  1  0
  9 10  1  0
 10 11  1  0
 10 18  1  0
 10 19  1  0
 11 20  1  0
 11 21  1  0
 11 22  1  0
M  RAD  2   1   2   8   2
M  END
>  <reaction>  (16) 
rmg_rxn_319

>  <mol_properties>  (16) 
{"0": {"label": "*1", "atom_type": "N3s"}, "1": {"label": "*0", "atom_type": "N3s"}, "2": {"label": "*2", "atom_type": "H0"}, "7": {"label": "*3", "atom_type": "Cs"}, "8": {"label": "*4", "atom_type": "O2s"}}

>  <type>  (16) 
unop_12

>  <geom_source>  (16) 
Heuristics

$$$$

     RDKit          3D

 22 20  0  0  0  0  0  0  0  0999 V2000
   -0.7038   -2.2332   -0.3812 N   0  0  0  0  0  2  0  0  0  0  0  0
   -0.7038   -2.2332   -1.7222 N   0  0  0  0  0  0  0  0  0  0  0  0
   -0.7038   -1.0574   -0.0410 H   0  0  0  0  0  0  0  0  0  0  0  0
   -0.5159   -3.1332   -2.1311 H   0  0  0  0  0  0  0  0  0  0  0  0
   -0.3418   -1.4448   -2.2397 H   0  0  0  0  0  0  0  0  0  0  0  0
   -0.5810    1.2912   -1.9648 C   0  0  0  0  0  0  0  0  0  0  0  0
   -1.4153    1.0542   -0.7129 C   0  0  0  0  0  0  0  0  0  0  0  0
   -0.7038    0.2124    0.3264 C   0  0  0  0  0  3  0  0  0  0  0  0
    0.4423    0.8929    0.7718 O   0  0  0  0  0  0  0  0  0  0  0  0
    1.1877    0.1678    1.7164 C   0  0  0  0  0  0  0  0  0  0  0  0
    2.3910    0.9856    2.1247 C   0  0  0  0  0  0  0  0  0  0  0  0
   -0.3202    0.3443   -2.4442 H   0  0  0  0  0  0  0  0  0  0  0  0
   -1.1263    1.8951   -2.6915 H   0  0  0  0  0  0  0  0  0  0  0  0
    0.3462    1.8085   -1.7186 H   0  0  0  0  0  0  0  0  0  0  0  0
   -1.6888    2.0097   -0.2579 H   0  0  0  0  0  0  0  0  0  0  0  0
   -2.3492    0.5484   -0.9733 H   0  0  0  0  0  0  0  0  0  0  0  0
   -1.3729    0.0089    1.1754 H   0  0  0  0  0  0  0  0  0  0  0  0
    0.5626   -0.0603    2.5925 H   0  0  0  0  0  0  0  0  0  0  0  0
    1.5043   -0.7936    1.2857 H   0  0  0  0  0  0  0  0  0  0  0  0
    2.0777    1.9331    2.5644 H   0  0  0  0  0  0  0  0  0  0  0  0
    2.9860    0.4416    2.8599 H   0  0  0  0  0  0  0  0  0  0  0  0
    3.0195    1.1989    1.2593 H   0  0  0  0  0  0  0  0  0  0  0  0
  1  2  1  0
  1  3  1  0
  2  4  1  0
  2  5  1  0
  6  7  1  0
  6 12  1  0
  6 13  1  0
  6 14  1  0
  7  8  1  0
  7 15  1  0
  7 16  1  0
  8  9  1  0
  8 17  1  0
  9 10  1  0
 10 11  1  0
 10 18  1  0
 10 19  1  0
 11 20  1  0
 11 21  1  0
 11 22  1  0
M  RAD  2   1   2   8   2
M  END
>  <reaction>  (17) 
rmg_rxn_319

>  <mol_properties>  (17) 
{"0": {"label": "*1", "atom_type": "N3s"}, "1": {"label": "*0", "atom_type": "N3s"}, "2": {"label": "*2", "atom_type": "H0"}, "7": {"label": "*3", "atom_type": "Cs"}, "8": {"label": "*4", "atom_type": "O2s"}}

>  <type>  (17) 
unop_13

>  <geom_source>  (17) 
gaussian_log

$$$$
