
     RDKit          3D

  9  8  0  0  0  0  0  0  0  0999 V2000
   -1.5470   -0.0755   -0.1976 C   0  0  0  0  0  0  0  0  0  0  0  0
   -0.2885    0.4507    0.1749 O   0  0  0  0  0  0  0  0  0  0  0  0
   -0.1502    1.7216   -0.3294 N   0  0  0  0  0  0  0  0  0  0  0  0
    0.9626    2.2353   -0.0219 C   0  0  0  0  0  0  0  0  0  0  0  0
   -1.6392   -0.1356   -1.2844 H   0  0  0  0  0  0  0  0  0  0  0  0
   -2.3597    0.5337    0.2044 H   0  0  0  0  0  0  0  0  0  0  0  0
   -1.5879   -1.0750    0.2318 H   0  0  0  0  0  0  0  0  0  0  0  0
    1.1497    3.2381   -0.3820 H   0  0  0  0  0  0  0  0  0  0  0  0
    1.7060    1.7101    0.5739 H   0  0  0  0  0  0  0  0  0  0  0  0
  1  2  1  0
  1  5  1  0
  1  6  1  0
  1  7  1  0
  2  3  1  0
  3  4  2  3
  4  8  1  0
  4  9  1  0
M  END
>  <reaction>  (1) 
rmg_rxn_15584

>  <mol_properties>  (1) 
{"0": {"label": "donator", "atom_type": "Cs"}, "4": {"label": "d_hydrogen", "atom_type": "H0"}}

>  <type>  (1) 
r1h

$$$$

     RDKit          3D

  9  8  0  0  0  0  0  0  0  0999 V2000
   -1.0434   -0.0834    0.0221 C   0  0  0  0  0  0  0  0  0  0  0  0
    0.4680   -0.2131    0.0785 C   0  0  0  0  0  0  0  0  0  0  0  0
    0.9450   -1.3136   -0.7058 N   0  0  0  0  0  2  0  0  0  0  0  0
   -1.5170   -0.9919    0.3960 H   0  0  0  0  0  0  0  0  0  0  0  0
   -1.3864    0.7592    0.6249 H   0  0  0  0  0  0  0  0  0  0  0  0
   -1.3736    0.0696   -1.0061 H   0  0  0  0  0  0  0  0  0  0  0  0
    0.8045   -0.3309    1.1214 H   0  0  0  0  0  0  0  0  0  0  0  0
    0.9463    0.7186   -0.2648 H   0  0  0  0  0  0  0  0  0  0  0  0
    1.9638   -1.3321   -0.6157 H   0  0  0  0  0  0  0  0  0  0  0  0
  1  2  1  0
  1  4  1  0
  1  5  1  0
  1  6  1  0
  2  3  1  0
  2  7  1  0
  2  8  1  0
  3  9  1  0
M  RAD  1   3   2
M  END
>  <reaction>  (2) 
rmg_rxn_15584

>  <mol_properties>  (2) 
{"2": {"label": "acceptor", "atom_type": "N3s"}}

>  <type>  (2) 
r2

$$$$

     RDKit          3D

 10  9  0  0  0  0  0  0  0  0999 V2000
   -1.1906   -0.0419   -0.0385 C   0  0  0  0  0  0  0  0  0  0  0  0
    0.2513    0.4500    0.0348 C   0  0  0  0  0  0  0  0  0  0  0  0
    1.2500   -0.5694    0.3278 N   0  0  0  0  0  0  0  0  0  0  0  0
   -1.4965   -0.4905    0.9100 H   0  0  0  0  0  0  0  0  0  0  0  0
   -1.3035   -0.7985   -0.8190 H   0  0  0  0  0  0  0  0  0  0  0  0
   -1.8789    0.7769   -0.2612 H   0  0  0  0  0  0  0  0  0  0  0  0
    0.3352    1.2278    0.7979 H   0  0  0  0  0  0  0  0  0  0  0  0
    0.5259    0.9233   -0.9113 H   0  0  0  0  0  0  0  0  0  0  0  0
    1.2298   -1.2971   -0.3752 H   0  0  0  0  0  0  0  0  0  0  0  0
    1.0523   -1.0138    1.2153 H   0  0  0  0  0  0  0  0  0  0  0  0
  1  2  1  0
  1  4  1  0
  1  5  1  0
  1  6  1  0
  2  3  1  0
  2  7  1  0
  2  8  1  0
  3  9  1  0
  3 10  1  0
M  END
>  <reaction>  (3) 
rmg_rxn_15584

>  <mol_properties>  (3) 
{"0": {"label": "a_hydrogen", "atom_type": "H0"}, "3": {"label": "acceptor", "atom_type": "N3s"}}

>  <type>  (3) 
r2h

$$$$

     RDKit          3D

 18 16  0  0  0  0  0  0  0  0999 V2000
   -1.0220    1.0212    0.8085 C   0  0  0  0  0  3  0  0  0  0  0  0
   -1.0682    0.8112   -0.5639 O   0  0  0  0  0  0  0  0  0  0  0  0
   -1.5463   -0.4511   -0.8443 N   0  0  0  0  0  0  0  0  0  0  0  0
   -1.5353   -0.6883   -2.0854 C   0  0  0  0  0  0  0  0  0  0  0  0
   -0.1177    0.2635    1.3841 H   0  0  0  0  0  0  0  0  0  0  0  0
   -1.9467    0.7417    1.3148 H   0  0  0  0  0  0  0  0  0  0  0  0
   -0.7166    2.0507    0.9776 H   0  0  0  0  0  0  0  0  0  0  0  0
   -1.9013   -1.6581   -2.3950 H   0  0  0  0  0  0  0  0  0  0  0  0
   -1.1824    0.0339   -2.8180 H   0  0  0  0  0  0  0  0  0  0  0  0
    2.1165   -0.4358   -0.3104 C   0  0  0  0  0  0  0  0  0  0  0  0
    2.0217   -0.2457    1.1999 C   0  0  0  0  0  0  0  0  0  0  0  0
    0.7488   -0.5761    1.8170 N   0  0  0  0  0  0  0  0  0  0  0  0
    1.4086    0.2113   -0.8297 H   0  0  0  0  0  0  0  0  0  0  0  0
    3.1216   -0.2042   -0.6695 H   0  0  0  0  0  0  0  0  0  0  0  0
    1.8912   -1.4699   -0.5829 H   0  0  0  0  0  0  0  0  0  0  0  0
    2.2648    0.7873    1.4642 H   0  0  0  0  0  0  0  0  0  0  0  0
    2.7815   -0.8674    1.6909 H   0  0  0  0  0  0  0  0  0  0  0  0
    0.3913   -1.4275    1.3804 H   0  0  0  0  0  0  0  0  0  0  0  0
  1  2  1  0
  1  6  1  0
  1  7  1  0
  2  3  1  0
  3  4  2  3
  4  8  1  0
  4  9  1  0
  5 12  1  0
 10 11  1  0
 10 13  1  0
 10 14  1  0
 10 15  1  0
 11 12  1  0
 11 16  1  0
 11 17  1  0
 12 18  1  0
M  RAD  1   1   2
M  END
>  <reaction>  (4) 
rmg_rxn_15584

>  <mol_properties>  (4) 
{"0": {"label": "*3", "atom_type": "Cs"}, "1": {"label": "*4", "atom_type": "O2s"}, "4": {"label": "*2", "atom_type": "H0"}, "10": {"label": "*0", "atom_type": "Cs"}, "11": {"label": "*1", "atom_type": "N3s"}}

>  <type>  (4) 
ts

$$$$

     RDKit          3D

 18 16  0  0  0  0  0  0  0  0999 V2000
   -0.6842    1.0321   -0.9554 C   0  0  0  0  0  3  0  0  0  0  0  0
   -1.2239    0.9339    0.3145 O   0  0  0  0  0  0  0  0  0  0  0  0
   -1.8934   -0.1706    0.7105 N   0  0  0  0  0  0  0  0  0  0  0  0
   -1.9071   -1.2297    0.0243 C   0  0  0  0  0  0  0  0  0  0  0  0
    0.3794    0.2348   -1.0690 H   0  0  0  0  0  0  0  0  0  0  0  0
   -0.3349    2.0511   -1.0772 H   0  0  0  0  0  0  0  0  0  0  0  0
   -1.3457    0.7011   -1.7554 H   0  0  0  0  0  0  0  0  0  0  0  0
   -2.4779   -2.0429    0.4375 H   0  0  0  0  0  0  0  0  0  0  0  0
   -1.3828   -1.3976   -0.9124 H   0  0  0  0  0  0  0  0  0  0  0  0
    2.3105    0.4902    0.9762 C   0  0  0  0  0  0  0  0  0  0  0  0
    1.8577   -0.7383    0.1814 C   0  0  0  0  0  0  0  0  0  0  0  0
    1.3690   -0.4661   -1.1418 N   0  0  0  0  0  0  0  0  0  0  0  0
    3.0863    1.0297    0.4343 H   0  0  0  0  0  0  0  0  0  0  0  0
    1.4700    1.1604    1.1438 H   0  0  0  0  0  0  0  0  0  0  0  0
    2.7080    0.1870    1.9411 H   0  0  0  0  0  0  0  0  0  0  0  0
    1.0679   -1.2639    0.7275 H   0  0  0  0  0  0  0  0  0  0  0  0
    2.7062   -1.4286    0.0783 H   0  0  0  0  0  0  0  0  0  0  0  0
    2.0472    0.1033   -1.6442 H   0  0  0  0  0  0  0  0  0  0  0  0
  1  2  1  0
  1  6  1  0
  1  7  1  0
  2  3  1  0
  3  4  2  3
  4  8  1  0
  4  9  1  0
  5 12  1  0
 10 11  1  0
 10 13  1  0
 10 14  1  0
 10 15  1  0
 11 12  1  0
 11 16  1  0
 11 17  1  0
 12 18  1  0
M  RAD  1   1   2
M  END
>  <reaction>  (5) 
rmg_rxn_15584

>  <mol_properties>  (5) 
{"0": {"label": "*3", "atom_type": "Cs"}, "1": {"label": "*4", "atom_type": "O2s"}, "4": {"label": "*2", "atom_type": "H0"}, "10": {"label": "*0", "atom_type": "Cs"}, "11": {"label": "*1", "atom_type": "N3s"}}

>  <type>  (5) 
unop_1

>  <geom_source>  (5) 
crest_best.xyz

$$$$

     RDKit          3D

 18 16  0  0  0  0  0  0  0  0999 V2000
   -1.2907    0.4837    0.3985 C   0  0  0  0  0  3  0  0  0  0  0  0
   -1.2907    0.5416   -1.0144 O   0  0  0  0  0  0  0  0  0  0  0  0
   -1.2907   -0.7323   -1.5302 N   0  0  0  0  0  0  0  0  0  0  0  0
   -1.2907   -0.7323   -2.7938 C   0  0  0  0  0  0  0  0  0  0  0  0
   -0.2201   -0.1285    0.8426 H   0  0  0  0  0  0  0  0  0  0  0  0
   -2.1828   -0.0265    0.7686 H   0  0  0  0  0  0  0  0  0  0  0  0
   -1.2907    1.5186    0.7363 H   0  0  0  0  0  0  0  0  0  0  0  0
   -1.2907   -1.6993   -3.2786 H   0  0  0  0  0  0  0  0  0  0  0  0
   -1.2907    0.1842   -3.3799 H   0  0  0  0  0  0  0  0  0  0  0  0
    2.7677    0.8351    1.4599 C   0  0  0  0  0  0  0  0  0  0  0  0
    1.5476    0.1914    2.1107 C   0  0  0  0  0  0  0  0  0  0  0  0
    0.7718   -0.6957    1.2541 N   0  0  0  0  0  0  0  0  0  0  0  0
    2.4744    1.4394    0.5978 H   0  0  0  0  0  0  0  0  0  0  0  0
    3.2964    1.4841    2.1619 H   0  0  0  0  0  0  0  0  0  0  0  0
    3.4694    0.0730    1.1118 H   0  0  0  0  0  0  0  0  0  0  0  0
    0.8754    0.9700    2.4799 H   0  0  0  0  0  0  0  0  0  0  0  0
    1.8590   -0.3809    2.9881 H   0  0  0  0  0  0  0  0  0  0  0  0
    1.3496   -1.4536    0.9137 H   0  0  0  0  0  0  0  0  0  0  0  0
  1  2  1  0
  1  6  1  0
  1  7  1  0
  2  3  1  0
  3  4  2  3
  4  8  1  0
  4  9  1  0
  5 12  1  0
 10 11  1  0
 10 13  1  0
 10 14  1  0
 10 15  1  0
 11 12  1  0
 11 16  1  0
 11 17  1  0
 12 18  1  0
M  RAD  1   1   2
M  END
>  <reaction>  (6) 
rmg_rxn_15584

>  <mol_properties>  (6) 
{"0": {"label": "*3", "atom_type": "Cs"}, "1": {"label": "*4", "atom_type": "O2s"}, "4": {"label": "*2", "atom_type": "H0"}, "10": {"label": "*0", "atom_type": "Cs"}, "11": {"label": "*1", "atom_type": "N3s"}}

>  <type>  (6) 
unop_2

>  <geom_source>  (6) 
Heuristics

$$$$

     RDKit          3D

 18 16  0  0  0  0  0  0  0  0999 V2000
   -0.5767    1.5857    0.4920 C   0  0  0  0  0  3  0  0  0  0  0  0
   -1.4221    0.8237   -0.2377 O   0  0  0  0  0  0  0  0  0  0  0  0
   -1.6637   -0.4203    0.2999 N   0  0  0  0  0  0  0  0  0  0  0  0
   -2.4093   -1.1807   -0.3893 C   0  0  0  0  0  0  0  0  0  0  0  0
    1.0941    1.2017   -0.1275 H   0  0  0  0  0  0  0  0  0  0  0  0
   -0.4319    1.3179    1.5269 H   0  0  0  0  0  0  0  0  0  0  0  0
   -0.6015    2.6178    0.1918 H   0  0  0  0  0  0  0  0  0  0  0  0
   -2.6044   -2.1552    0.0193 H   0  0  0  0  0  0  0  0  0  0  0  0
   -2.8486   -0.9025   -1.3414 H   0  0  0  0  0  0  0  0  0  0  0  0
    1.6598   -1.3412    0.6558 C   0  0  0  0  0  0  0  0  0  0  0  0
    2.2002   -0.5098   -0.5087 C   0  0  0  0  0  0  0  0  0  0  0  0
    2.0717    0.9248   -0.3565 N   0  0  0  0  0  0  0  0  0  0  0  0
    2.1603   -1.0655    1.5835 H   0  0  0  0  0  0  0  0  0  0  0  0
    0.5889   -1.1833    0.7751 H   0  0  0  0  0  0  0  0  0  0  0  0
    1.8325   -2.3989    0.4739 H   0  0  0  0  0  0  0  0  0  0  0  0
    1.6841   -0.7853   -1.4325 H   0  0  0  0  0  0  0  0  0  0  0  0
    3.2665   -0.7196   -0.6438 H   0  0  0  0  0  0  0  0  0  0  0  0
    2.3486    1.2178    0.5587 H   0  0  0  0  0  0  0  0  0  0  0  0
  1  2  1  0
  1  6  1  0
  1  7  1  0
  2  3  1  0
  3  4  2  3
  4  8  1  0
  4  9  1  0
  5 12  1  0
 10 11  1  0
 10 13  1  0
 10 14  1  0
 10 15  1  0
 11 12  1  0
 11 16  1  0
 11 17  1  0
 12 18  1  0
M  RAD  1   1   2
M  END
>  <reaction>  (7) 
rmg_rxn_15584

>  <mol_properties>  (7) 
{"0": {"label": "*3", "atom_type": "Cs"}, "1": {"label": "*4", "atom_type": "O2s"}, "4": {"label": "*2", "atom_type": "H0"}, "10": {"label": "*0", "atom_type": "Cs"}, "11": {"label": "*1", "atom_type": "N3s"}}

>  <type>  (7) 
unop_3

>  <geom_source>  (7) 
Heuristics

$$$$

     RDKit          3D

 18 16  0  0  0  0  0  0  0  0999 V2000
   -0.6853   -1.0419    0.9456 C   0  0  0  0  0  3  0  0  0  0  0  0
   -1.2246   -0.9302   -0.3234 O   0  0  0  0  0  0  0  0  0  0  0  0
   -1.8921    0.1792   -0.7087 N   0  0  0  0  0  0  0  0  0  0  0  0
   -1.9046    1.2315   -0.0122 C   0  0  0  0  0  0  0  0  0  0  0  0
    0.3800   -0.2481    1.0676 H   0  0  0  0  0  0  0  0  0  0  0  0
   -0.3382   -2.0627    1.0576 H   0  0  0  0  0  0  0  0  0  0  0  0
   -1.3464   -0.7173    1.7486 H   0  0  0  0  0  0  0  0  0  0  0  0
   -2.4736    2.0497   -0.4179 H   0  0  0  0  0  0  0  0  0  0  0  0
   -1.3807    1.3893    0.9265 H   0  0  0  0  0  0  0  0  0  0  0  0
    2.3062   -0.4780   -0.9856 C   0  0  0  0  0  0  0  0  0  0  0  0
    1.8580    0.7397   -0.1718 C   0  0  0  0  0  0  0  0  0  0  0  0
    1.3714    0.4495    1.1483 N   0  0  0  0  0  0  0  0  0  0  0  0
    2.7037   -0.1616   -1.9462 H   0  0  0  0  0  0  0  0  0  0  0  0
    3.0809   -1.0280   -0.4527 H   0  0  0  0  0  0  0  0  0  0  0  0
    1.4636   -1.1431   -1.1623 H   0  0  0  0  0  0  0  0  0  0  0  0
    1.0683    1.2752   -0.7086 H   0  0  0  0  0  0  0  0  0  0  0  0
    2.7083    1.4265   -0.0604 H   0  0  0  0  0  0  0  0  0  0  0  0
    2.0493   -0.1288    1.6408 H   0  0  0  0  0  0  0  0  0  0  0  0
  1  2  1  0
  1  6  1  0
  1  7  1  0
  2  3  1  0
  3  4  2  3
  4  8  1  0
  4  9  1  0
  5 12  1  0
 10 11  1  0
 10 13  1  0
 10 14  1  0
 10 15  1  0
 11 12  1  0
 11 16  1  0
 11 17  1  0
 12 18  1  0
M  RAD  1   1   2
M  END
>  <reaction>  (8) 
rmg_rxn_15584

>  <mol_properties>  (8) 
{"0": {"label": "*3", "atom_type": "Cs"}, "1": {"label": "*4", "atom_type": "O2s"}, "4": {"label": "*2", "atom_type": "H0"}, "10": {"label": "*0", "atom_type": "Cs"}, "11": {"label": "*1", "atom_type": "N3s"}}

>  <type>  (8) 
unop_4

>  <geom_source>  (8) 
Heuristics

$$$$

     RDKit          3D

 18 16  0  0  0  0  0  0  0  0999 V2000
   -1.2041    0.9041    0.9932 C   0  0  0  0  0  3  0  0  0  0  0  0
   -1.2041    0.9620   -0.4197 O   0  0  0  0  0  0  0  0  0  0  0  0
   -1.2041   -0.3118   -0.9355 N   0  0  0  0  0  0  0  0  0  0  0  0
   -1.2041   -0.3118   -2.1991 C   0  0  0  0  0  0  0  0  0  0  0  0
   -0.1335    0.2920    1.4373 H   0  0  0  0  0  0  0  0  0  0  0  0
   -2.0962    0.3939    1.3633 H   0  0  0  0  0  0  0  0  0  0  0  0
   -1.2041    1.9390    1.3310 H   0  0  0  0  0  0  0  0  0  0  0  0
   -1.2041   -1.2789   -2.6839 H   0  0  0  0  0  0  0  0  0  0  0  0
   -1.2041    0.6047   -2.7852 H   0  0  0  0  0  0  0  0  0  0  0  0
    1.9600   -0.9407   -0.3222 C   0  0  0  0  0  0  0  0  0  0  0  0
    1.9752   -0.0764    0.9345 C   0  0  0  0  0  0  0  0  0  0  0  0
    0.8584   -0.2752    1.8488 N   0  0  0  0  0  0  0  0  0  0  0  0
    1.0591   -0.7528   -0.9116 H   0  0  0  0  0  0  0  0  0  0  0  0
    2.8259   -0.7355   -0.9559 H   0  0  0  0  0  0  0  0  0  0  0  0
    1.9759   -2.0024   -0.0634 H   0  0  0  0  0  0  0  0  0  0  0  0
    1.9917    0.9795    0.6533 H   0  0  0  0  0  0  0  0  0  0  0  0
    2.8980   -0.2558    1.4919 H   0  0  0  0  0  0  0  0  0  0  0  0
    0.8239   -1.2371    2.1616 H   0  0  0  0  0  0  0  0  0  0  0  0
  1  2  1  0
  1  6  1  0
  1  7  1  0
  2  3  1  0
  3  4  2  3
  4  8  1  0
  4  9  1  0
  5 12  1  0
 10 11  1  0
 10 13  1  0
 10 14  1  0
 10 15  1  0
 11 12  1  0
 11 16  1  0
 11 17  1  0
 12 18  1  0
M  RAD  1   1   2
M  END
>  <reaction>  (9) 
rmg_rxn_15584

>  <mol_properties>  (9) 
{"0": {"label": "*3", "atom_type": "Cs"}, "1": {"label": "*4", "atom_type": "O2s"}, "4": {"label": "*2", "atom_type": "H0"}, "10": {"label": "*0", "atom_type": "Cs"}, "11": {"label": "*1", "atom_type": "N3s"}}

>  <type>  (9) 
unop_5

>  <geom_source>  (9) 
Heuristics

$$$$

     RDKit          3D

 18 16  0  0  0  0  0  0  0  0999 V2000
   -0.5773    1.5861    0.4920 C   0  0  0  0  0  3  0  0  0  0  0  0
   -1.4227    0.8237   -0.2373 O   0  0  0  0  0  0  0  0  0  0  0  0
   -1.6624   -0.4207    0.2998 N   0  0  0  0  0  0  0  0  0  0  0  0
   -2.4075   -1.1816   -0.3894 C   0  0  0  0  0  0  0  0  0  0  0  0
    1.0928    1.2028   -0.1292 H   0  0  0  0  0  0  0  0  0  0  0  0
   -0.4313    1.3181    1.5266 H   0  0  0  0  0  0  0  0  0  0  0  0
   -0.6030    2.6183    0.1922 H   0  0  0  0  0  0  0  0  0  0  0  0
   -2.6019   -2.1565    0.0189 H   0  0  0  0  0  0  0  0  0  0  0  0
   -2.8481   -0.9031   -1.3408 H   0  0  0  0  0  0  0  0  0  0  0  0
    1.6604   -1.3409    0.6564 C   0  0  0  0  0  0  0  0  0  0  0  0
    2.1982   -0.5096   -0.5094 C   0  0  0  0  0  0  0  0  0  0  0  0
    2.0710    0.9251   -0.3566 N   0  0  0  0  0  0  0  0  0  0  0  0
    0.5899   -1.1825    0.7784 H   0  0  0  0  0  0  0  0  0  0  0  0
    1.8321   -2.3987    0.4739 H   0  0  0  0  0  0  0  0  0  0  0  0
    2.1634   -1.0656    1.5828 H   0  0  0  0  0  0  0  0  0  0  0  0
    1.6795   -0.7847   -1.4319 H   0  0  0  0  0  0  0  0  0  0  0  0
    3.2640   -0.7201   -0.6473 H   0  0  0  0  0  0  0  0  0  0  0  0
    2.3539    1.2178    0.5571 H   0  0  0  0  0  0  0  0  0  0  0  0
  1  2  1  0
  1  6  1  0
  1  7  1  0
  2  3  1  0
  3  4  2  3
  4  8  1  0
  4  9  1  0
  5 12  1  0
 10 11  1  0
 10 13  1  0
 10 14  1  0
 10 15  1  0
 11 12  1  0
 11 16  1  0
 11 17  1  0
 12 18  1  0
M  RAD  1   1   2
M  END
>  <reaction>  (10) 
rmg_rxn_15584

>  <mol_properties>  (10) 
{"0": {"label": "*3", "atom_type": "Cs"}, "1": {"label": "*4", "atom_type": "O2s"}, "4": {"label": "*2", "atom_type": "H0"}, "10": {"label": "*0", "atom_type": "Cs"}, "11": {"label": "*1", "atom_type": "N3s"}}

>  <type>  (10) 
unop_6

>  <geom_source>  (10) 
Heuristics

$$$$

     RDKit          3D

 18 16  0  0  0  0  0  0  0  0999 V2000
   -1.1401    0.5077    0.1765 C   0  0  0  0  0  3  0  0  0  0  0  0
   -1.1401    0.5656   -1.2364 O   0  0  0  0  0  0  0  0  0  0  0  0
   -1.1401   -0.7082   -1.7521 N   0  0  0  0  0  0  0  0  0  0  0  0
   -1.1401   -0.7082   -3.0157 C   0  0  0  0  0  0  0  0  0  0  0  0
   -0.0695   -0.1045    0.6206 H   0  0  0  0  0  0  0  0  0  0  0  0
   -2.0322   -0.0025    0.5466 H   0  0  0  0  0  0  0  0  0  0  0  0
   -1.1401    1.5426    0.5143 H   0  0  0  0  0  0  0  0  0  0  0  0
   -1.1401   -1.6753   -3.5006 H   0  0  0  0  0  0  0  0  0  0  0  0
   -1.1401    0.2082   -3.6019 H   0  0  0  0  0  0  0  0  0  0  0  0
    2.2614    1.0302    2.3283 C   0  0  0  0  0  0  0  0  0  0  0  0
    1.2997   -0.1536    2.3405 C   0  0  0  0  0  0  0  0  0  0  0  0
    0.9224   -0.6716    1.0321 N   0  0  0  0  0  0  0  0  0  0  0  0
    1.8282    1.8767    1.7895 H   0  0  0  0  0  0  0  0  0  0  0  0
    2.4967    1.3614    3.3425 H   0  0  0  0  0  0  0  0  0  0  0  0
    3.1993    0.7634    1.8349 H   0  0  0  0  0  0  0  0  0  0  0  0
    0.3826    0.1242    2.8660 H   0  0  0  0  0  0  0  0  0  0  0  0
    1.7381   -0.9764    2.9108 H   0  0  0  0  0  0  0  0  0  0  0  0
    1.7423   -0.9723    0.5206 H   0  0  0  0  0  0  0  0  0  0  0  0
  1  2  1  0
  1  6  1  0
  1  7  1  0
  2  3  1  0
  3  4  2  3
  4  8  1  0
  4  9  1  0
  5 12  1  0
 10 11  1  0
 10 13  1  0
 10 14  1  0
 10 15  1  0
 11 12  1  0
 11 16  1  0
 11 17  1  0
 12 18  1  0
M  RAD  1   1   2
M  END
>  <reaction>  (11) 
rmg_rxn_15584

>  <mol_properties>  (11) 
{"0": {"label": "*3", "atom_type": "Cs"}, "1": {"label": "*4", "atom_type": "O2s"}, "4": {"label": "*2", "atom_type": "H0"}, "10": {"label": "*0", "atom_type": "Cs"}, "11": {"label": "*1", "atom_type": "N3s"}}

>  <type>  (11) 
unop_7

>  <geom_source>  (11) 
Heuristics

$$$$

     RDKit          3D

 18 16  0  0  0  0  0  0  0  0999 V2000
   -0.6988    1.3116    0.7425 C   0  0  0  0  0  3  0  0  0  0  0  0
   -0.6988    1.3695   -0.6703 O   0  0  0  0  0  0  0  0  0  0  0  0
   -0.6988    0.0956   -1.1861 N   0  0  0  0  0  0  0  0  0  0  0  0
   -0.6988    0.0956   -2.4497 C   0  0  0  0  0  0  0  0  0  0  0  0
    0.3718    0.6994    1.1867 H   0  0  0  0  0  0  0  0  0  0  0  0
   -1.5909    0.8014    1.1127 H   0  0  0  0  0  0  0  0  0  0  0  0
   -0.6988    2.3465    1.0803 H   0  0  0  0  0  0  0  0  0  0  0  0
   -0.6988   -0.8715   -2.9345 H   0  0  0  0  0  0  0  0  0  0  0  0
   -0.6988    1.0121   -3.0358 H   0  0  0  0  0  0  0  0  0  0  0  0
    0.0773   -1.8522    0.7171 C   0  0  0  0  0  0  0  0  0  0  0  0
    1.4203   -1.2308    1.0868 C   0  0  0  0  0  0  0  0  0  0  0  0
    1.3637    0.1322    1.5981 N   0  0  0  0  0  0  0  0  0  0  0  0
   -0.4210   -1.2663   -0.0594 H   0  0  0  0  0  0  0  0  0  0  0  0
    0.2006   -2.8713    0.3429 H   0  0  0  0  0  0  0  0  0  0  0  0
   -0.5852   -1.8901    1.5854 H   0  0  0  0  0  0  0  0  0  0  0  0
    2.0778   -1.2323    0.2139 H   0  0  0  0  0  0  0  0  0  0  0  0
    1.9155   -1.8489    1.8399 H   0  0  0  0  0  0  0  0  0  0  0  0
    0.7884    0.1748    2.4297 H   0  0  0  0  0  0  0  0  0  0  0  0
  1  2  1  0
  1  6  1  0
  1  7  1  0
  2  3  1  0
  3  4  2  3
  4  8  1  0
  4  9  1  0
  5 12  1  0
 10 11  1  0
 10 13  1  0
 10 14  1  0
 10 15  1  0
 11 12  1  0
 11 16  1  0
 11 17  1  0
 12 18  1  0
M  RAD  1   1   2
M  END
>  <reaction>  (12) 
rmg_rxn_15584

>  <mol_properties>  (12) 
{"0": {"label": "*3", "atom_type": "Cs"}, "1": {"label": "*4", "atom_type": "O2s"}, "4": {"label": "*2", "atom_type": "H0"}, "10": {"label": "*0", "atom_type": "Cs"}, "11": {"label": "*1", "atom_type": "N3s"}}

>  <type>  (12) 
unop_8

>  <geom_source>  (12) 
Heuristics

$$$$

     RDKit          3D

 18 16  0  0  0  0  0  0  0  0999 V2000
    0.5785   -1.5999    0.4771 C   0  0  0  0  0  3  0  0  0  0  0  0
    1.4124   -0.8219   -0.2493 O   0  0  0  0  0  0  0  0  0  0  0  0
    1.6599    0.4116    0.3093 N   0  0  0  0  0  0  0  0  0  0  0  0
    2.3926    1.1877   -0.3762 C   0  0  0  0  0  0  0  0  0  0  0  0
   -1.0901   -1.2178   -0.1134 H   0  0  0  0  0  0  0  0  0  0  0  0
    0.4454   -1.3508    1.5181 H   0  0  0  0  0  0  0  0  0  0  0  0
    0.6057   -2.6270    0.1601 H   0  0  0  0  0  0  0  0  0  0  0  0
    2.5919    2.1542    0.0493 H   0  0  0  0  0  0  0  0  0  0  0  0
    2.8177    0.9305   -1.3405 H   0  0  0  0  0  0  0  0  0  0  0  0
   -1.6528    1.3576    0.6420 C   0  0  0  0  0  0  0  0  0  0  0  0
   -2.1684    0.5060   -0.5201 C   0  0  0  0  0  0  0  0  0  0  0  0
   -2.0767   -0.9257   -0.3236 N   0  0  0  0  0  0  0  0  0  0  0  0
   -0.5911    1.1794    0.8057 H   0  0  0  0  0  0  0  0  0  0  0  0
   -1.7943    2.4135    0.4256 H   0  0  0  0  0  0  0  0  0  0  0  0
   -2.1933    1.1181    1.5570 H   0  0  0  0  0  0  0  0  0  0  0  0
   -1.6116    0.7456   -1.4302 H   0  0  0  0  0  0  0  0  0  0  0  0
   -3.2238    0.7362   -0.7007 H   0  0  0  0  0  0  0  0  0  0  0  0
   -2.4539   -1.1873    0.5702 H   0  0  0  0  0  0  0  0  0  0  0  0
  1  2  1  0
  1  6  1  0
  1  7  1  0
  2  3  1  0
  3  4  2  3
  4  8  1  0
  4  9  1  0
  5 12  1  0
 10 11  1  0
 10 13  1  0
 10 14  1  0
 10 15  1  0
 11 12  1  0
 11 16  1  0
 11 17  1  0
 12 18  1  0
M  RAD  1   1   2
M  END
>  <reaction>  (13) 
rmg_rxn_15584

>  <mol_properties>  (13) 
{"0": {"label": "*3", "atom_type": "Cs"}, "1": {"label": "*4", "atom_type": "O2s"}, "4": {"label": "*2", "atom_type": "H0"}, "10": {"label": "*0", "atom_type": "Cs"}, "11": {"label": "*1", "atom_type": "N3s"}}

>  <type>  (13) 
unop_9

>  <geom_source>  (13) 
Heuristics

$$$$

     RDKit          3D

 18 16  0  0  0  0  0  0  0  0999 V2000
   -0.8800    0.6412    0.0273 C   0  0  0  0  0  3  0  0  0  0  0  0
   -0.8800    0.6991   -1.3856 O   0  0  0  0  0  0  0  0  0  0  0  0
   -0.8800   -0.5748   -1.9014 N   0  0  0  0  0  0  0  0  0  0  0  0
   -0.8800   -0.5748   -3.1650 C   0  0  0  0  0  0  0  0  0  0  0  0
    0.1906    0.0290    0.4714 H   0  0  0  0  0  0  0  0  0  0  0  0
   -1.7721    0.1310    0.3974 H   0  0  0  0  0  0  0  0  0  0  0  0
   -0.8800    1.6761    0.3651 H   0  0  0  0  0  0  0  0  0  0  0  0
   -0.8800   -1.5418   -3.6498 H   0  0  0  0  0  0  0  0  0  0  0  0
   -0.8800    0.3417   -3.7511 H   0  0  0  0  0  0  0  0  0  0  0  0
    1.1186    0.7577    3.0476 C   0  0  0  0  0  0  0  0  0  0  0  0
    1.1717   -0.5919    2.3387 C   0  0  0  0  0  0  0  0  0  0  0  0
    1.1825   -0.5382    0.8829 N   0  0  0  0  0  0  0  0  0  0  0  0
    0.2179    1.3089    2.7660 H   0  0  0  0  0  0  0  0  0  0  0  0
    1.1134    0.6362    4.1333 H   0  0  0  0  0  0  0  0  0  0  0  0
    1.9836    1.3703    2.7813 H   0  0  0  0  0  0  0  0  0  0  0  0
    0.3164   -1.2001    2.6434 H   0  0  0  0  0  0  0  0  0  0  0  0
    2.0618   -1.1394    2.6586 H   0  0  0  0  0  0  0  0  0  0  0  0
    1.9800   -0.0090    0.5541 H   0  0  0  0  0  0  0  0  0  0  0  0
  1  2  1  0
  1  6  1  0
  1  7  1  0
  2  3  1  0
  3  4  2  3
  4  8  1  0
  4  9  1  0
  5 12  1  0
 10 11  1  0
 10 13  1  0
 10 14  1  0
 10 15  1  0
 11 12  1  0
 11 16  1  0
 11 17  1  0
 12 18  1  0
M  RAD  1   1   2
M  END
>  <reaction>  (14) 
rmg_rxn_15584

>  <mol_properties>  (14) 
{"0": {"label": "*3", "atom_type": "Cs"}, "1": {"label": "*4", "atom_type": "O2s"}, "4": {"label": "*2", "atom_type": "H0"}, "10": {"label": "*0", "atom_type": "Cs"}, "11": {"label": "*1", "atom_type": "N3s"}}

>  <type>  (14) 
unop_10

>  <geom_source>  (14) 
Heuristics

$$$$

     RDKit          3D

 18 16  0  0  0  0  0  0  0  0999 V2000
   -0.3729   -1.5140    0.4672 C   0  0  0  0  0  3  0  0  0  0  0  0
   -1.3882   -0.8525   -0.1957 O   0  0  0  0  0  0  0  0  0  0  0  0
   -1.6244    0.4096    0.3086 N   0  0  0  0  0  0  0  0  0  0  0  0
   -2.5173    1.0819   -0.2797 C   0  0  0  0  0  0  0  0  0  0  0  0
    0.8095   -1.2015   -0.0700 H   0  0  0  0  0  0  0  0  0  0  0  0
   -0.4793   -2.5772    0.2872 H   0  0  0  0  0  0  0  0  0  0  0  0
   -0.2810   -1.2366    1.5138 H   0  0  0  0  0  0  0  0  0  0  0  0
   -2.7081    2.0667    0.1073 H   0  0  0  0  0  0  0  0  0  0  0  0
   -3.0892    0.7259   -1.1310 H   0  0  0  0  0  0  0  0  0  0  0  0
    1.5764    1.5509    0.1252 C   0  0  0  0  0  0  0  0  0  0  0  0
    2.3918    0.2558    0.1916 C   0  0  0  0  0  0  0  0  0  0  0  0
    1.8616   -0.8474   -0.5582 N   0  0  0  0  0  0  0  0  0  0  0  0
    2.0536    2.3281    0.7166 H   0  0  0  0  0  0  0  0  0  0  0  0
    1.5001    1.8979   -0.9048 H   0  0  0  0  0  0  0  0  0  0  0  0
    0.5703    1.3873    0.5086 H   0  0  0  0  0  0  0  0  0  0  0  0
    2.4957   -0.0704    1.2310 H   0  0  0  0  0  0  0  0  0  0  0  0
    3.4014    0.4538   -0.1948 H   0  0  0  0  0  0  0  0  0  0  0  0
    1.6215   -0.5374   -1.4980 H   0  0  0  0  0  0  0  0  0  0  0  0
  1  2  1  0
  1  6  1  0
  1  7  1  0
  2  3  1  0
  3  4  2  3
  4  8  1  0
  4  9  1  0
  5 12  1  0
 10 11  1  0
 10 13  1  0
 10 14  1  0
 10 15  1  0
 11 12  1  0
 11 16  1  0
 11 17  1  0
 12 18  1  0
M  RAD  1   1   2
M  END
>  <reaction>  (15) 
rmg_rxn_15584

>  <mol_properties>  (15) 
{"0": {"label": "*3", "atom_type": "Cs"}, "1": {"label": "*4", "atom_type": "O2s"}, "4": {"label": "*2", "atom_type": "H0"}, "10": {"label": "*0", "atom_type": "Cs"}, "11": {"label": "*1", "atom_type": "N3s"}}

>  <type>  (15) 
unop_11

>  <geom_source>  (15) 
Heuristics

$$$$

     RDKit          3D

 18 16  0  0  0  0  0  0  0  0999 V2000
   -0.5946    1.2971    0.5031 C   0  0  0  0  0  3  0  0  0  0  0  0
   -0.5947    1.3551   -0.9098 O   0  0  0  0  0  0  0  0  0  0  0  0
   -0.5947    0.0812   -1.4255 N   0  0  0  0  0  0  0  0  0  0  0  0
   -0.5947    0.0812   -2.6891 C   0  0  0  0  0  0  0  0  0  0  0  0
    0.4760    0.6850    0.9472 H   0  0  0  0  0  0  0  0  0  0  0  0
   -1.4868    0.7870    0.8732 H   0  0  0  0  0  0  0  0  0  0  0  0
   -0.5947    2.3320    0.8409 H   0  0  0  0  0  0  0  0  0  0  0  0
   -0.5947   -0.8859   -3.1739 H   0  0  0  0  0  0  0  0  0  0  0  0
   -0.5946    0.9977   -3.2753 H   0  0  0  0  0  0  0  0  0  0  0  0
   -0.2445   -1.7308    1.4987 C   0  0  0  0  0  0  0  0  0  0  0  0
    1.2223   -1.3129    1.4825 C   0  0  0  0  0  0  0  0  0  0  0  0
    1.4679    0.1178    1.3587 N   0  0  0  0  0  0  0  0  0  0  0  0
   -0.7458   -1.4240    0.5773 H   0  0  0  0  0  0  0  0  0  0  0  0
   -0.3479   -2.8143    1.5936 H   0  0  0  0  0  0  0  0  0  0  0  0
   -0.7710   -1.2675    2.3369 H   0  0  0  0  0  0  0  0  0  0  0  0
    1.7367   -1.8119    0.6574 H   0  0  0  0  0  0  0  0  0  0  0  0
    1.7118   -1.6572    2.3969 H   0  0  0  0  0  0  0  0  0  0  0  0
    1.0345    0.6188    2.1238 H   0  0  0  0  0  0  0  0  0  0  0  0
  1  2  1  0
  1  6  1  0
  1  7  1  0
  2  3  1  0
  3  4  2  3
  4  8  1  0
  4  9  1  0
  5 12  1  0
 10 11  1  0
 10 13  1  0
 10 14  1  0
 10 15  1  0
 11 12  1  0
 11 16  1  0
 11 17  1  0
 12 18  1  0
M  RAD  1   1   2
M  END
>  <reaction>  (16) 
rmg_rxn_15584

>  <mol_properties>  (16) 
{"0": {"label": "*3", "atom_type": "Cs"}, "1": {"label": "*4", "atom_type": "O2s"}, "4": {"label": "*2", "atom_type": "H0"}, "10": {"label": "*0", "atom_type": "Cs"}, "11": {"label": "*1", "atom_type": "N3s"}}

>  <type>  (16) 
unop_12

>  <geom_source>  (16) 
Heuristics

$$$$

     RDKit          3D

 18 16  0  0  0  0  0  0  0  0999 V2000
   -0.6864   -1.0524    0.9355 C   0  0  0  0  0  3  0  0  0  0  0  0
   -1.2243   -0.9261   -0.3328 O   0  0  0  0  0  0  0  0  0  0  0  0
   -1.8890    0.1888   -0.7069 N   0  0  0  0  0  0  0  0  0  0  0  0
   -1.9002    1.2335    0.0010 C   0  0  0  0  0  0  0  0  0  0  0  0
    0.3806   -0.2624    1.0668 H   0  0  0  0  0  0  0  0  0  0  0  0
   -0.3414   -2.0751    1.0367 H   0  0  0  0  0  0  0  0  0  0  0  0
   -1.3475   -0.7352    1.7413 H   0  0  0  0  0  0  0  0  0  0  0  0
   -2.4675    2.0571   -0.3962 H   0  0  0  0  0  0  0  0  0  0  0  0
   -1.3774    1.3799    0.9421 H   0  0  0  0  0  0  0  0  0  0  0  0
    2.2986   -0.4654   -0.9959 C   0  0  0  0  0  0  0  0  0  0  0  0
    1.8572    0.7411   -0.1619 C   0  0  0  0  0  0  0  0  0  0  0  0
    1.3737    0.4319    1.1551 N   0  0  0  0  0  0  0  0  0  0  0  0
    1.4532   -1.1251   -1.1797 H   0  0  0  0  0  0  0  0  0  0  0  0
    2.6935   -0.1354   -1.9531 H   0  0  0  0  0  0  0  0  0  0  0  0
    3.0736   -1.0258   -0.4744 H   0  0  0  0  0  0  0  0  0  0  0  0
    1.0677    1.2875   -0.6878 H   0  0  0  0  0  0  0  0  0  0  0  0
    2.7102    1.4230   -0.0424 H   0  0  0  0  0  0  0  0  0  0  0  0
    2.0517   -0.1550    1.6370 H   0  0  0  0  0  0  0  0  0  0  0  0
  1  2  1  0
  1  6  1  0
  1  7  1  0
  2  3  1  0
  3  4  2  3
  4  8  1  0
  4  9  1  0
  5 12  1  0
 10 11  1  0
 10 13  1  0
 10 14  1  0
 10 15  1  0
 11 12  1  0
 11 16  1  0
 11 17  1  0
 12 18  1  0
M  RAD  1   1   2
M  END
>  <reaction>  (17) 
rmg_rxn_15584

>  <mol_properties>  (17) 
{"0": {"label": "*3", "atom_type": "Cs"}, "1": {"label": "*4", "atom_type": "O2s"}, "4": {"label": "*2", "atom_type": "H0"}, "10": {"label": "*0", "atom_type": "Cs"}, "11": {"label": "*1", "atom_type": "N3s"}}

>  <type>  (17) 
unop_13

>  <geom_source>  (17) 
Heuristics

$$$$

     RDKit          3D

 18 16  0  0  0  0  0  0  0  0999 V2000
   -0.5635    1.1677    0.2518 C   0  0  0  0  0  3  0  0  0  0  0  0
   -0.5635    1.2256   -1.1611 O   0  0  0  0  0  0  0  0  0  0  0  0
   -0.5635   -0.0483   -1.6768 N   0  0  0  0  0  0  0  0  0  0  0  0
   -0.5635   -0.0483   -2.9404 C   0  0  0  0  0  0  0  0  0  0  0  0
    0.5071    0.5555    0.6959 H   0  0  0  0  0  0  0  0  0  0  0  0
   -1.4556    0.6575    0.6219 H   0  0  0  0  0  0  0  0  0  0  0  0
   -0.5635    2.2026    0.5896 H   0  0  0  0  0  0  0  0  0  0  0  0
   -0.5635   -1.0154   -3.4253 H   0  0  0  0  0  0  0  0  0  0  0  0
   -0.5635    0.8682   -3.5266 H   0  0  0  0  0  0  0  0  0  0  0  0
   -0.3220   -1.2423    2.3480 C   0  0  0  0  0  0  0  0  0  0  0  0
    1.1286   -1.1905    1.8793 C   0  0  0  0  0  0  0  0  0  0  0  0
    1.4990   -0.0117    1.1074 N   0  0  0  0  0  0  0  0  0  0  0  0
   -1.0062   -1.2205    1.4961 H   0  0  0  0  0  0  0  0  0  0  0  0
   -0.5230   -2.1523    2.9182 H   0  0  0  0  0  0  0  0  0  0  0  0
   -0.5544   -0.3864    2.9866 H   0  0  0  0  0  0  0  0  0  0  0  0
    1.3488   -2.0706    1.2699 H   0  0  0  0  0  0  0  0  0  0  0  0
    1.7954   -1.2460    2.7434 H   0  0  0  0  0  0  0  0  0  0  0  0
    1.3411    0.8293    1.6478 H   0  0  0  0  0  0  0  0  0  0  0  0
  1  2  1  0
  1  6  1  0
  1  7  1  0
  2  3  1  0
  3  4  2  3
  4  8  1  0
  4  9  1  0
  5 12  1  0
 10 11  1  0
 10 13  1  0
 10 14  1  0
 10 15  1  0
 11 12  1  0
 11 16  1  0
 11 17  1  0
 12 18  1  0
M  RAD  1   1   2
M  END
>  <reaction>  (18) 
rmg_rxn_15584

>  <mol_properties>  (18) 
{"0": {"label": "*3", "atom_type": "Cs"}, "1": {"label": "*4", "atom_type": "O2s"}, "4": {"label": "*2", "atom_type": "H0"}, "10": {"label": "*0", "atom_type": "Cs"}, "11": {"label": "*1", "atom_type": "N3s"}}

>  <type>  (18) 
unop_14

>  <geom_source>  (18) 
Heuristics

$$$$

     RDKit          3D

 18 16  0  0  0  0  0  0  0  0999 V2000
    0.5790    1.5972   -0.4811 C   0  0  0  0  0  3  0  0  0  0  0  0
    1.4153    0.8223    0.2457 O   0  0  0  0  0  0  0  0  0  0  0  0
    1.6588   -0.4147   -0.3070 N   0  0  0  0  0  0  0  0  0  0  0  0
    2.3937   -1.1875    0.3799 C   0  0  0  0  0  0  0  0  0  0  0  0
   -1.0897    1.2152    0.1179 H   0  0  0  0  0  0  0  0  0  0  0  0
    0.4417    1.3435   -1.5205 H   0  0  0  0  0  0  0  0  0  0  0  0
    0.6070    2.6256   -0.1684 H   0  0  0  0  0  0  0  0  0  0  0  0
    2.5907   -2.1566   -0.0406 H   0  0  0  0  0  0  0  0  0  0  0  0
    2.8225   -0.9248    1.3411 H   0  0  0  0  0  0  0  0  0  0  0  0
   -1.6557   -1.3525   -0.6471 C   0  0  0  0  0  0  0  0  0  0  0  0
   -2.1731   -0.5069    0.5183 C   0  0  0  0  0  0  0  0  0  0  0  0
   -2.0739    0.9259    0.3330 N   0  0  0  0  0  0  0  0  0  0  0  0
   -1.8036   -2.4092   -0.4391 H   0  0  0  0  0  0  0  0  0  0  0  0
   -2.1901   -1.1037   -1.5632 H   0  0  0  0  0  0  0  0  0  0  0  0
   -0.5922   -1.1784   -0.8037 H   0  0  0  0  0  0  0  0  0  0  0  0
   -1.6226   -0.7556    1.4297 H   0  0  0  0  0  0  0  0  0  0  0  0
   -3.2305   -0.7329    0.6916 H   0  0  0  0  0  0  0  0  0  0  0  0
   -2.4301    1.1956   -0.5657 H   0  0  0  0  0  0  0  0  0  0  0  0
  1  2  1  0
  1  6  1  0
  1  7  1  0
  2  3  1  0
  3  4  2  3
  4  8  1  0
  4  9  1  0
  5 12  1  0
 10 11  1  0
 10 13  1  0
 10 14  1  0
 10 15  1  0
 11 12  1  0
 11 16  1  0
 11 17  1  0
 12 18  1  0
M  RAD  1   1   2
M  END
>  <reaction>  (19) 
rmg_rxn_15584

>  <mol_properties>  (19) 
{"0": {"label": "*3", "atom_type": "Cs"}, "1": {"label": "*4", "atom_type": "O2s"}, "4": {"label": "*2", "atom_type": "H0"}, "10": {"label": "*0", "atom_type": "Cs"}, "11": {"label": "*1", "atom_type": "N3s"}}

>  <type>  (19) 
unop_15

>  <geom_source>  (19) 
Heuristics

$$$$

     RDKit          3D

 18 16  0  0  0  0  0  0  0  0999 V2000
   -1.3526    0.5497    0.6449 C   0  0  0  0  0  3  0  0  0  0  0  0
   -1.3526    0.6076   -0.7679 O   0  0  0  0  0  0  0  0  0  0  0  0
   -1.3526   -0.6663   -1.2837 N   0  0  0  0  0  0  0  0  0  0  0  0
   -1.3526   -0.6663   -2.5473 C   0  0  0  0  0  0  0  0  0  0  0  0
   -0.2820   -0.0625    1.0891 H   0  0  0  0  0  0  0  0  0  0  0  0
   -2.2447    0.0395    1.0151 H   0  0  0  0  0  0  0  0  0  0  0  0
   -1.3526    1.5846    0.9828 H   0  0  0  0  0  0  0  0  0  0  0  0
   -1.3526   -1.6333   -3.0321 H   0  0  0  0  0  0  0  0  0  0  0  0
   -1.3526    0.2502   -3.1334 H   0  0  0  0  0  0  0  0  0  0  0  0
    2.8453    0.3914    0.6249 C   0  0  0  0  0  0  0  0  0  0  0  0
    1.7878    0.3251    1.7221 C   0  0  0  0  0  0  0  0  0  0  0  0
    0.7099   -0.6297    1.5005 N   0  0  0  0  0  0  0  0  0  0  0  0
    2.3956    0.6707   -0.3313 H   0  0  0  0  0  0  0  0  0  0  0  0
    3.6176    1.1270    0.8614 H   0  0  0  0  0  0  0  0  0  0  0  0
    3.3321   -0.5785    0.4957 H   0  0  0  0  0  0  0  0  0  0  0  0
    1.3368    1.3114    1.8569 H   0  0  0  0  0  0  0  0  0  0  0  0
    2.2626    0.0765    2.6745 H   0  0  0  0  0  0  0  0  0  0  0  0
    1.0811   -1.5660    1.4019 H   0  0  0  0  0  0  0  0  0  0  0  0
  1  2  1  0
  1  6  1  0
  1  7  1  0
  2  3  1  0
  3  4  2  3
  4  8  1  0
  4  9  1  0
  5 12  1  0
 10 11  1  0
 10 13  1  0
 10 14  1  0
 10 15  1  0
 11 12  1  0
 11 16  1  0
 11 17  1  0
 12 18  1  0
M  RAD  1   1   2
M  END
>  <reaction>  (20) 
rmg_rxn_15584

>  <mol_properties>  (20) 
{"0": {"label": "*3", "atom_type": "Cs"}, "1": {"label": "*4", "atom_type": "O2s"}, "4": {"label": "*2", "atom_type": "H0"}, "10": {"label": "*0", "atom_type": "Cs"}, "11": {"label": "*1", "atom_type": "N3s"}}

>  <type>  (20) 
unop_16

>  <geom_source>  (20) 
Heuristics

$$$$

     RDKit          3D

 18 16  0  0  0  0  0  0  0  0999 V2000
   -0.6842    1.0321   -0.9554 C   0  0  0  0  0  3  0  0  0  0  0  0
   -1.2239    0.9339    0.3145 O   0  0  0  0  0  0  0  0  0  0  0  0
   -1.8934   -0.1706    0.7105 N   0  0  0  0  0  0  0  0  0  0  0  0
   -1.9071   -1.2297    0.0243 C   0  0  0  0  0  0  0  0  0  0  0  0
    0.3794    0.2348   -1.0690 H   0  0  0  0  0  0  0  0  0  0  0  0
   -0.3349    2.0511   -1.0772 H   0  0  0  0  0  0  0  0  0  0  0  0
   -1.3457    0.7011   -1.7554 H   0  0  0  0  0  0  0  0  0  0  0  0
   -2.4779   -2.0429    0.4375 H   0  0  0  0  0  0  0  0  0  0  0  0
   -1.3828   -1.3976   -0.9124 H   0  0  0  0  0  0  0  0  0  0  0  0
    2.3105    0.4902    0.9762 C   0  0  0  0  0  0  0  0  0  0  0  0
    1.8577   -0.7383    0.1814 C   0  0  0  0  0  0  0  0  0  0  0  0
    1.3690   -0.4661   -1.1418 N   0  0  0  0  0  0  0  0  0  0  0  0
    3.0863    1.0297    0.4343 H   0  0  0  0  0  0  0  0  0  0  0  0
    1.4700    1.1604    1.1438 H   0  0  0  0  0  0  0  0  0  0  0  0
    2.7080    0.1870    1.9411 H   0  0  0  0  0  0  0  0  0  0  0  0
    1.0679   -1.2639    0.7275 H   0  0  0  0  0  0  0  0  0  0  0  0
    2.7062   -1.4286    0.0783 H   0  0  0  0  0  0  0  0  0  0  0  0
    2.0472    0.1033   -1.6442 H   0  0  0  0  0  0  0  0  0  0  0  0
  1  2  1  0
  1  6  1  0
  1  7  1  0
  2  3  1  0
  3  4  2  3
  4  8  1  0
  4  9  1  0
  5 12  1  0
 10 11  1  0
 10 13  1  0
 10 14  1  0
 10 15  1  0
 11 12  1  0
 11 16  1  0
 11 17  1  0
 12 18  1  0
M  RAD  1   1   2
M  END
>  <reaction>  (21) 
rmg_rxn_15584

>  <mol_properties>  (21) 
{"0": {"label": "*3", "atom_type": "Cs"}, "1": {"label": "*4", "atom_type": "O2s"}, "4": {"label": "*2", "atom_type": "H0"}, "10": {"label": "*0", "atom_type": "Cs"}, "11": {"label": "*1", "atom_type": "N3s"}}

>  <type>  (21) 
unop_17

>  <geom_source>  (21) 
Heuristics

$$$$

     RDKit          3D

 18 16  0  0  0  0  0  0  0  0999 V2000
   -0.8499    1.2352    0.9211 C   0  0  0  0  0  3  0  0  0  0  0  0
   -0.8499    1.2931   -0.4918 O   0  0  0  0  0  0  0  0  0  0  0  0
   -0.8499    0.0193   -1.0075 N   0  0  0  0  0  0  0  0  0  0  0  0
   -0.8499    0.0193   -2.2712 C   0  0  0  0  0  0  0  0  0  0  0  0
    0.2207    0.6231    1.3652 H   0  0  0  0  0  0  0  0  0  0  0  0
   -1.7420    0.7250    1.2912 H   0  0  0  0  0  0  0  0  0  0  0  0
   -0.8499    2.2701    1.2589 H   0  0  0  0  0  0  0  0  0  0  0  0
   -0.8499   -0.9478   -2.7560 H   0  0  0  0  0  0  0  0  0  0  0  0
   -0.8499    0.9358   -2.8573 H   0  0  0  0  0  0  0  0  0  0  0  0
    0.5680   -1.7377    0.1224 C   0  0  0  0  0  0  0  0  0  0  0  0
    1.6676   -0.9381    0.8136 C   0  0  0  0  0  0  0  0  0  0  0  0
    1.2126    0.0559    1.7767 N   0  0  0  0  0  0  0  0  0  0  0  0
   -0.1035   -1.0764   -0.4310 H   0  0  0  0  0  0  0  0  0  0  0  0
    0.9856   -2.4603   -0.5827 H   0  0  0  0  0  0  0  0  0  0  0  0
   -0.0303   -2.2874    0.8533 H   0  0  0  0  0  0  0  0  0  0  0  0
    2.2730   -0.4227    0.0637 H   0  0  0  0  0  0  0  0  0  0  0  0
    2.3454   -1.6199    1.3334 H   0  0  0  0  0  0  0  0  0  0  0  0
    0.6721   -0.3839    2.5106 H   0  0  0  0  0  0  0  0  0  0  0  0
  1  2  1  0
  1  6  1  0
  1  7  1  0
  2  3  1  0
  3  4  2  3
  4  8  1  0
  4  9  1  0
  5 12  1  0
 10 11  1  0
 10 13  1  0
 10 14  1  0
 10 15  1  0
 11 12  1  0
 11 16  1  0
 11 17  1  0
 12 18  1  0
M  RAD  1   1   2
M  END
>  <reaction>  (22) 
rmg_rxn_15584

>  <mol_properties>  (22) 
{"0": {"label": "*3", "atom_type": "Cs"}, "1": {"label": "*4", "atom_type": "O2s"}, "4": {"label": "*2", "atom_type": "H0"}, "10": {"label": "*0", "atom_type": "Cs"}, "11": {"label": "*1", "atom_type": "N3s"}}

>  <type>  (22) 
unop_18

>  <geom_source>  (22) 
Heuristics

$$$$

     RDKit          3D

 18 16  0  0  0  0  0  0  0  0999 V2000
   -1.3228    0.7029    0.8615 C   0  0  0  0  0  3  0  0  0  0  0  0
   -1.3228    0.7608   -0.5514 O   0  0  0  0  0  0  0  0  0  0  0  0
   -1.3228   -0.5131   -1.0672 N   0  0  0  0  0  0  0  0  0  0  0  0
   -1.3228   -0.5131   -2.3308 C   0  0  0  0  0  0  0  0  0  0  0  0
   -0.2522    0.0907    1.3056 H   0  0  0  0  0  0  0  0  0  0  0  0
   -2.2149    0.1927    1.2316 H   0  0  0  0  0  0  0  0  0  0  0  0
   -1.3228    1.7378    1.1993 H   0  0  0  0  0  0  0  0  0  0  0  0
   -1.3228   -1.4801   -2.8156 H   0  0  0  0  0  0  0  0  0  0  0  0
   -1.3228    0.4034   -2.9169 H   0  0  0  0  0  0  0  0  0  0  0  0
    2.5581   -0.2561   -0.0190 C   0  0  0  0  0  0  0  0  0  0  0  0
    1.9424    0.2263    1.2904 C   0  0  0  0  0  0  0  0  0  0  0  0
    0.7397   -0.4765    1.7171 N   0  0  0  0  0  0  0  0  0  0  0  0
    1.8479   -0.1527   -0.8433 H   0  0  0  0  0  0  0  0  0  0  0  0
    3.4533    0.3169   -0.2720 H   0  0  0  0  0  0  0  0  0  0  0  0
    2.8407   -1.3096    0.0498 H   0  0  0  0  0  0  0  0  0  0  0  0
    1.6973    1.2884    1.2111 H   0  0  0  0  0  0  0  0  0  0  0  0
    2.6787    0.1448    2.0939 H   0  0  0  0  0  0  0  0  0  0  0  0
    0.9295   -1.4635    1.8350 H   0  0  0  0  0  0  0  0  0  0  0  0
  1  2  1  0
  1  6  1  0
  1  7  1  0
  2  3  1  0
  3  4  2  3
  4  8  1  0
  4  9  1  0
  5 12  1  0
 10 11  1  0
 10 13  1  0
 10 14  1  0
 10 15  1  0
 11 12  1  0
 11 16  1  0
 11 17  1  0
 12 18  1  0
M  RAD  1   1   2
M  END
>  <reaction>  (23) 
rmg_rxn_15584

>  <mol_properties>  (23) 
{"0": {"label": "*3", "atom_type": "Cs"}, "1": {"label": "*4", "atom_type": "O2s"}, "4": {"label": "*2", "atom_type": "H0"}, "10": {"label": "*0", "atom_type": "Cs"}, "11": {"label": "*1", "atom_type": "N3s"}}

>  <type>  (23) 
unop_19

>  <geom_source>  (23) 
Heuristics

$$$$

     RDKit          3D

 18 16  0  0  0  0  0  0  0  0999 V2000
   -0.6429    0.9224    0.0593 C   0  0  0  0  0  3  0  0  0  0  0  0
   -0.6429    0.9803   -1.3536 O   0  0  0  0  0  0  0  0  0  0  0  0
   -0.6429   -0.2936   -1.8694 N   0  0  0  0  0  0  0  0  0  0  0  0
   -0.6429   -0.2936   -3.1330 C   0  0  0  0  0  0  0  0  0  0  0  0
    0.4277    0.3102    0.5034 H   0  0  0  0  0  0  0  0  0  0  0  0
   -1.5350    0.4122    0.4294 H   0  0  0  0  0  0  0  0  0  0  0  0
   -0.6429    1.9573    0.3971 H   0  0  0  0  0  0  0  0  0  0  0  0
   -0.6429   -1.2607   -3.6178 H   0  0  0  0  0  0  0  0  0  0  0  0
   -0.6429    0.6229   -3.7191 H   0  0  0  0  0  0  0  0  0  0  0  0
    0.0304   -0.3082    3.0212 C   0  0  0  0  0  0  0  0  0  0  0  0
    1.1352   -0.9317    2.1744 C   0  0  0  0  0  0  0  0  0  0  0  0
    1.4196   -0.2570    0.9149 N   0  0  0  0  0  0  0  0  0  0  0  0
   -0.9158   -0.2926    2.4746 H   0  0  0  0  0  0  0  0  0  0  0  0
   -0.1245   -0.8677    3.9467 H   0  0  0  0  0  0  0  0  0  0  0  0
    0.2803    0.7217    3.2881 H   0  0  0  0  0  0  0  0  0  0  0  0
    0.8807   -1.9698    1.9462 H   0  0  0  0  0  0  0  0  0  0  0  0
    2.0632   -0.9671    2.7505 H   0  0  0  0  0  0  0  0  0  0  0  0
    1.6923    0.7033    1.0814 H   0  0  0  0  0  0  0  0  0  0  0  0
  1  2  1  0
  1  6  1  0
  1  7  1  0
  2  3  1  0
  3  4  2  3
  4  8  1  0
  4  9  1  0
  5 12  1  0
 10 11  1  0
 10 13  1  0
 10 14  1  0
 10 15  1  0
 11 12  1  0
 11 16  1  0
 11 17  1  0
 12 18  1  0
M  RAD  1   1   2
M  END
>  <reaction>  (24) 
rmg_rxn_15584

>  <mol_properties>  (24) 
{"0": {"label": "*3", "atom_type": "Cs"}, "1": {"label": "*4", "atom_type": "O2s"}, "4": {"label": "*2", "atom_type": "H0"}, "10": {"label": "*0", "atom_type": "Cs"}, "11": {"label": "*1", "atom_type": "N3s"}}

>  <type>  (24) 
unop_20

>  <geom_source>  (24) 
Heuristics

$$$$

     RDKit          3D

 18 16  0  0  0  0  0  0  0  0999 V2000
   -1.0291    1.0942    1.0111 C   0  0  0  0  0  3  0  0  0  0  0  0
   -1.0291    1.1521   -0.4018 O   0  0  0  0  0  0  0  0  0  0  0  0
   -1.0291   -0.1218   -0.9176 N   0  0  0  0  0  0  0  0  0  0  0  0
   -1.0291   -0.1218   -2.1812 C   0  0  0  0  0  0  0  0  0  0  0  0
    0.0415    0.4820    1.4552 H   0  0  0  0  0  0  0  0  0  0  0  0
   -1.9212    0.5840    1.3812 H   0  0  0  0  0  0  0  0  0  0  0  0
   -1.0291    2.1291    1.3489 H   0  0  0  0  0  0  0  0  0  0  0  0
   -1.0291   -1.0888   -2.6660 H   0  0  0  0  0  0  0  0  0  0  0  0
   -1.0291    0.7947   -2.7673 H   0  0  0  0  0  0  0  0  0  0  0  0
    1.2215   -1.4521   -0.2465 C   0  0  0  0  0  0  0  0  0  0  0  0
    1.8765   -0.5074    0.7561 C   0  0  0  0  0  0  0  0  0  0  0  0
    1.0334   -0.0852    1.8667 N   0  0  0  0  0  0  0  0  0  0  0  0
    0.3442   -0.9866   -0.7025 H   0  0  0  0  0  0  0  0  0  0  0  0
    1.9134   -1.7232   -1.0474 H   0  0  0  0  0  0  0  0  0  0  0  0
    0.8958   -2.3731    0.2435 H   0  0  0  0  0  0  0  0  0  0  0  0
    2.2233    0.3916    0.2404 H   0  0  0  0  0  0  0  0  0  0  0  0
    2.7687   -0.9790    1.1756 H   0  0  0  0  0  0  0  0  0  0  0  0
    0.7143   -0.8879    2.3939 H   0  0  0  0  0  0  0  0  0  0  0  0
  1  2  1  0
  1  6  1  0
  1  7  1  0
  2  3  1  0
  3  4  2  3
  4  8  1  0
  4  9  1  0
  5 12  1  0
 10 11  1  0
 10 13  1  0
 10 14  1  0
 10 15  1  0
 11 12  1  0
 11 16  1  0
 11 17  1  0
 12 18  1  0
M  RAD  1   1   2
M  END
>  <reaction>  (25) 
rmg_rxn_15584

>  <mol_properties>  (25) 
{"0": {"label": "*3", "atom_type": "Cs"}, "1": {"label": "*4", "atom_type": "O2s"}, "4": {"label": "*2", "atom_type": "H0"}, "10": {"label": "*0", "atom_type": "Cs"}, "11": {"label": "*1", "atom_type": "N3s"}}

>  <type>  (25) 
unop_21

>  <geom_source>  (25) 
Heuristics

$$$$

     RDKit          3D

 18 16  0  0  0  0  0  0  0  0999 V2000
   -1.2041    0.9041    0.9932 C   0  0  0  0  0  3  0  0  0  0  0  0
   -1.2041    0.9620   -0.4197 O   0  0  0  0  0  0  0  0  0  0  0  0
   -1.2041   -0.3118   -0.9355 N   0  0  0  0  0  0  0  0  0  0  0  0
   -1.2041   -0.3118   -2.1991 C   0  0  0  0  0  0  0  0  0  0  0  0
   -0.1335    0.2919    1.4373 H   0  0  0  0  0  0  0  0  0  0  0  0
   -2.0962    0.3939    1.3633 H   0  0  0  0  0  0  0  0  0  0  0  0
   -1.2041    1.9390    1.3310 H   0  0  0  0  0  0  0  0  0  0  0  0
   -1.2041   -1.2789   -2.6839 H   0  0  0  0  0  0  0  0  0  0  0  0
   -1.2041    0.6047   -2.7852 H   0  0  0  0  0  0  0  0  0  0  0  0
    1.9600   -0.9407   -0.3222 C   0  0  0  0  0  0  0  0  0  0  0  0
    1.9752   -0.0764    0.9345 C   0  0  0  0  0  0  0  0  0  0  0  0
    0.8584   -0.2752    1.8488 N   0  0  0  0  0  0  0  0  0  0  0  0
    1.0591   -0.7528   -0.9116 H   0  0  0  0  0  0  0  0  0  0  0  0
    2.8259   -0.7355   -0.9559 H   0  0  0  0  0  0  0  0  0  0  0  0
    1.9759   -2.0024   -0.0634 H   0  0  0  0  0  0  0  0  0  0  0  0
    1.9917    0.9795    0.6533 H   0  0  0  0  0  0  0  0  0  0  0  0
    2.8980   -0.2558    1.4919 H   0  0  0  0  0  0  0  0  0  0  0  0
    0.8239   -1.2371    2.1616 H   0  0  0  0  0  0  0  0  0  0  0  0
  1  2  1  0
  1  6  1  0
  1  7  1  0
  2  3  1  0
  3  4  2  3
  4  8  1  0
  4  9  1  0
  5 12  1  0
 10 11  1  0
 10 13  1  0
 10 14  1  0
 10 15  1  0
 11 12  1  0
 11 16  1  0
 11 17  1  0
 12 18  1  0
M  RAD  1   1   2
M  END
>  <reaction>  (26) 
rmg_rxn_15584

>  <mol_properties>  (26) 
{"0": {"label": "*3", "atom_type": "Cs"}, "1": {"label": "*4", "atom_type": "O2s"}, "4": {"label": "*2", "atom_type": "H0"}, "10": {"label": "*0", "atom_type": "Cs"}, "11": {"label": "*1", "atom_type": "N3s"}}

>  <type>  (26) 
unop_22

>  <geom_source>  (26) 
gaussian_log

$$$$
