
     RDKit          3D

 10  9  0  0  0  0  0  0  0  0999 V2000
    1.9281   -0.2104    0.0000 C   0  0  0  0  0  0  0  0  0  0  0  0
    0.6881    0.1708    0.0000 C   0  0  0  0  0  0  0  0  0  0  0  0
   -0.5547    0.5538   -0.0000 C   0  0  0  0  0  0  0  0  0  0  0  0
   -1.7319   -0.3629    0.0000 C   0  0  0  0  0  0  0  0  0  0  0  0
    2.4558   -0.3741   -0.9324 H   0  0  0  0  0  0  0  0  0  0  0  0
    2.4558   -0.3741    0.9324 H   0  0  0  0  0  0  0  0  0  0  0  0
   -0.7657    1.6194   -0.0000 H   0  0  0  0  0  0  0  0  0  0  0  0
   -2.3467   -0.1819    0.8869 H   0  0  0  0  0  0  0  0  0  0  0  0
   -1.4304   -1.4153    0.0000 H   0  0  0  0  0  0  0  0  0  0  0  0
   -2.3467   -0.1819   -0.8869 H   0  0  0  0  0  0  0  0  0  0  0  0
  1  2  2  0
  1  5  1  0
  1  6  1  0
  2  3  2  0
  3  4  1  0
  3  7  1  0
  4  8  1  0
  4  9  1  0
  4 10  1  0
M  END
>  <reaction>  (1) 
rmg_rxn_16808

>  <mol_properties>  (1) 
{"3": {"label": "donator", "atom_type": "Cd"}, "7": {"label": "d_hydrogen", "atom_type": "H0"}}

>  <type>  (1) 
r1h

$$$$

     RDKit          3D

  7  6  0  0  0  0  0  0  0  0999 V2000
    1.1980    0.1044   -0.0001 C   0  0  0  0  0  0  0  0  0  0  0  0
   -0.1891   -0.4252    0.0002 C   0  0  0  0  0  3  0  0  0  0  0  0
   -1.3234    0.0281   -0.0002 N   0  0  0  0  0  0  0  0  0  0  0  0
    1.7318   -0.2602   -0.8784 H   0  0  0  0  0  0  0  0  0  0  0  0
    1.2067    1.2008   -0.0009 H   0  0  0  0  0  0  0  0  0  0  0  0
    1.7300   -0.2581    0.8800 H   0  0  0  0  0  0  0  0  0  0  0  0
   -1.4574    1.0456    0.0003 H   0  0  0  0  0  0  0  0  0  0  0  0
  1  2  1  0
  1  4  1  0
  1  5  1  0
  1  6  1  0
  2  3  2  3
  3  7  1  0
M  RAD  1   2   2
M  END
>  <reaction>  (2) 
rmg_rxn_16808

>  <mol_properties>  (2) 
{"2": {"label": "acceptor", "atom_type": "Cd"}}

>  <type>  (2) 
r2

$$$$

     RDKit          3D

  8  7  0  0  0  0  0  0  0  0999 V2000
    1.2099   -0.1388    0.0025 C   0  0  0  0  0  0  0  0  0  0  0  0
   -0.1788    0.4141    0.0007 C   0  0  0  0  0  0  0  0  0  0  0  0
   -1.2100   -0.3603    0.0013 N   0  0  0  0  0  0  0  0  0  0  0  0
    1.7355    0.2223   -0.8851 H   0  0  0  0  0  0  0  0  0  0  0  0
    1.7521    0.1663    0.9007 H   0  0  0  0  0  0  0  0  0  0  0  0
    1.1564   -1.2296   -0.0424 H   0  0  0  0  0  0  0  0  0  0  0  0
   -0.2911    1.5112   -0.0010 H   0  0  0  0  0  0  0  0  0  0  0  0
   -2.0699    0.2005   -0.0002 H   0  0  0  0  0  0  0  0  0  0  0  0
  1  2  1  0
  1  4  1  0
  1  5  1  0
  1  6  1  0
  2  3  2  3
  2  7  1  0
  3  8  1  0
M  END
>  <reaction>  (3) 
rmg_rxn_16808

>  <mol_properties>  (3) 
{"2": {"label": "acceptor", "atom_type": "Cd"}, "6": {"label": "a_hydrogen", "atom_type": "H0"}}

>  <type>  (3) 
r2h

$$$$

     RDKit          3D

 17 15  0  0  0  0  0  0  0  0999 V2000
   -3.1995   -0.3987    0.0992 N   0  0  0  0  0  0  0  0  0  0  0  0
   -1.6799    1.5154   -0.0108 C   0  0  0  0  0  0  0  0  0  0  0  0
    3.1379    0.7142   -0.2975 C   0  0  0  0  0  0  0  0  0  0  0  0
    2.2912   -0.1898    0.5476 C   0  0  0  0  0  3  0  0  0  0  0  0
   -2.0559    0.0766   -0.0211 C   0  0  0  0  0  0  0  0  0  0  0  0
    1.2435   -0.8531    0.1057 C   0  0  0  0  0  0  0  0  0  0  0  0
    0.1682   -1.4072   -0.3000 C   0  0  0  0  0  0  0  0  0  0  0  0
   -1.2280    1.7798   -0.9689 H   0  0  0  0  0  0  0  0  0  0  0  0
   -2.5530    2.1428    0.1716 H   0  0  0  0  0  0  0  0  0  0  0  0
   -0.9256    1.6918    0.7585 H   0  0  0  0  0  0  0  0  0  0  0  0
    4.1595    0.3325   -0.3719 H   0  0  0  0  0  0  0  0  0  0  0  0
    2.7323    0.8072   -1.3041 H   0  0  0  0  0  0  0  0  0  0  0  0
    3.1999    1.7114    0.1457 H   0  0  0  0  0  0  0  0  0  0  0  0
   -0.9723   -0.6944   -0.1669 H   0  0  0  0  0  0  0  0  0  0  0  0
    2.5807   -0.3272    1.5853 H   0  0  0  0  0  0  0  0  0  0  0  0
   -3.2303   -1.4161    0.0674 H   0  0  0  0  0  0  0  0  0  0  0  0
    0.0043   -2.3738   -0.7540 H   0  0  0  0  0  0  0  0  0  0  0  0
  1  5  2  3
  1 16  1  0
  2  5  1  0
  2  8  1  0
  2  9  1  0
  2 10  1  0
  3  4  1  0
  3 11  1  0
  3 12  1  0
  3 13  1  0
  4  6  1  0
  4 15  1  0
  5 14  1  0
  6  7  3  0
  7 17  1  0
M  RAD  1   4   2
M  END
>  <reaction>  (4) 
rmg_rxn_16808

>  <mol_properties>  (4) 
{"0": {"label": "*0", "atom_type": "N3d"}, "4": {"label": "*1", "atom_type": "Cd"}, "5": {"label": "*4", "atom_type": "Ct"}, "6": {"label": "*3", "atom_type": "Ct"}, "13": {"label": "*2", "atom_type": "H0"}}

>  <type>  (4) 
ts

$$$$

     RDKit          3D

 17 15  0  0  0  0  0  0  0  0999 V2000
   -3.1805   -0.4593    0.2428 C   0  0  0  0  0  0  0  0  0  0  0  0
   -1.8950    0.2316   -0.0025 C   0  0  0  0  0  0  0  0  0  0  0  0
   -1.7844    1.4517   -0.2117 N   0  0  0  0  0  0  0  0  0  0  0  0
   -4.0160    0.2389    0.2154 H   0  0  0  0  0  0  0  0  0  0  0  0
   -3.3248   -1.2302   -0.5133 H   0  0  0  0  0  0  0  0  0  0  0  0
   -3.1466   -0.9488    1.2155 H   0  0  0  0  0  0  0  0  0  0  0  0
   -0.8548    1.8275   -0.3696 H   0  0  0  0  0  0  0  0  0  0  0  0
    0.2248   -1.3364    0.0371 C   0  0  0  0  0  0  0  0  0  0  0  0
    1.3313   -0.7842   -0.2191 C   0  0  0  0  0  0  0  0  0  0  0  0
    2.3647   -0.0071   -0.4983 C   0  0  0  0  0  3  0  0  0  0  0  0
    3.1820    0.6896    0.5420 C   0  0  0  0  0  0  0  0  0  0  0  0
   -0.8524   -0.5711    0.0192 H   0  0  0  0  0  0  0  0  0  0  0  0
   -0.0552   -2.3391    0.2757 H   0  0  0  0  0  0  0  0  0  0  0  0
    2.6986    0.0849   -1.5233 H   0  0  0  0  0  0  0  0  0  0  0  0
    3.2264    1.7600    0.3329 H   0  0  0  0  0  0  0  0  0  0  0  0
    4.2066    0.3129    0.5420 H   0  0  0  0  0  0  0  0  0  0  0  0
    2.7553    0.5423    1.5315 H   0  0  0  0  0  0  0  0  0  0  0  0
  1  2  1  0
  1  4  1  0
  1  5  1  0
  1  6  1  0
  2  3  2  3
  2 12  1  0
  3  7  1  0
  8  9  3  0
  8 13  1  0
  9 10  1  0
 10 11  1  0
 10 14  1  0
 11 15  1  0
 11 16  1  0
 11 17  1  0
M  RAD  1  10   2
M  END
>  <reaction>  (5) 
rmg_rxn_16808

>  <mol_properties>  (5) 
{"0": {"label": "*0", "atom_type": "N3d"}, "4": {"label": "*1", "atom_type": "Cd"}, "5": {"label": "*4", "atom_type": "Ct"}, "6": {"label": "*3", "atom_type": "Ct"}, "13": {"label": "*2", "atom_type": "H0"}}

>  <type>  (5) 
unop_1

>  <geom_source>  (5) 
crest_best.xyz

$$$$

     RDKit          3D

 17 15  0  0  0  0  0  0  0  0999 V2000
   -1.4445    1.3038    2.5523 C   0  0  0  0  0  0  0  0  0  0  0  0
   -1.1858    1.2051    1.0835 C   0  0  0  0  0  3  0  0  0  0  0  0
   -1.4533    2.1836    0.2872 N   0  0  0  0  0  0  0  0  0  0  0  0
   -0.5165    1.2079    3.1211 H   0  0  0  0  0  0  0  0  0  0  0  0
   -1.9087    2.2700    2.7656 H   0  0  0  0  0  0  0  0  0  0  0  0
   -2.1381    0.5108    2.8433 H   0  0  0  0  0  0  0  0  0  0  0  0
   -1.2083    1.9286   -0.6766 H   0  0  0  0  0  0  0  0  0  0  0  0
    1.0717    0.1071    0.3196 C   0  0  0  0  0  0  0  0  0  0  0  0
    1.0717   -0.9561   -0.4238 C   0  0  0  0  0  0  0  0  0  0  0  0
    1.0717   -2.0219   -1.1691 C   0  0  0  0  0  0  0  0  0  0  0  0
    1.0717   -2.0219   -2.6612 C   0  0  0  0  0  0  0  0  0  0  0  0
   -0.0472    0.6513    0.6982 H   0  0  0  0  0  0  0  0  0  0  0  0
    2.0040    0.5606    0.6351 H   0  0  0  0  0  0  0  0  0  0  0  0
    1.0705   -2.9923   -0.6808 H   0  0  0  0  0  0  0  0  0  0  0  0
    1.9585   -2.5425   -3.0350 H   0  0  0  0  0  0  0  0  0  0  0  0
    1.0717   -1.0064   -3.0699 H   0  0  0  0  0  0  0  0  0  0  0  0
    0.1848   -2.5425   -3.0350 H   0  0  0  0  0  0  0  0  0  0  0  0
  1  2  1  0
  1  4  1  0
  1  5  1  0
  1  6  1  0
  2  3  2  3
  3  7  1  0
  8  9  2  0
  8 12  1  0
  8 13  1  0
  9 10  2  0
 10 11  1  0
 10 14  1  0
 11 15  1  0
 11 16  1  0
 11 17  1  0
M  RAD  1   2   2
M  END
>  <reaction>  (6) 
rmg_rxn_16808

>  <mol_properties>  (6) 
{"0": {"label": "*0", "atom_type": "N3d"}, "4": {"label": "*1", "atom_type": "Cd"}, "5": {"label": "*4", "atom_type": "Ct"}, "6": {"label": "*3", "atom_type": "Ct"}, "13": {"label": "*2", "atom_type": "H0"}}

>  <type>  (6) 
unop_2

>  <geom_source>  (6) 
Heuristics

$$$$

     RDKit          3D

 17 15  0  0  0  0  0  0  0  0999 V2000
   -2.2687    0.4306    1.2603 C   0  0  0  0  0  0  0  0  0  0  0  0
   -1.0878    1.3295    1.0824 C   0  0  0  0  0  3  0  0  0  0  0  0
   -1.0582    2.5100    1.6006 N   0  0  0  0  0  0  0  0  0  0  0  0
   -1.9895   -0.4828    1.7910 H   0  0  0  0  0  0  0  0  0  0  0  0
   -3.0374    0.9641    1.8251 H   0  0  0  0  0  0  0  0  0  0  0  0
   -2.6709    0.1761    0.2764 H   0  0  0  0  0  0  0  0  0  0  0  0
   -0.1708    2.9721    1.3706 H   0  0  0  0  0  0  0  0  0  0  0  0
    1.1696    0.2314    0.3184 C   0  0  0  0  0  0  0  0  0  0  0  0
    1.1696   -0.8318   -0.4250 C   0  0  0  0  0  0  0  0  0  0  0  0
    1.1696   -1.8976   -1.1702 C   0  0  0  0  0  0  0  0  0  0  0  0
    1.1696   -1.8976   -2.6623 C   0  0  0  0  0  0  0  0  0  0  0  0
    0.0508    0.7757    0.6971 H   0  0  0  0  0  0  0  0  0  0  0  0
    2.1020    0.6849    0.6340 H   0  0  0  0  0  0  0  0  0  0  0  0
    1.1685   -2.8679   -0.6820 H   0  0  0  0  0  0  0  0  0  0  0  0
    2.0565   -2.4182   -3.0361 H   0  0  0  0  0  0  0  0  0  0  0  0
    1.1696   -0.8820   -3.0711 H   0  0  0  0  0  0  0  0  0  0  0  0
    0.2827   -2.4182   -3.0361 H   0  0  0  0  0  0  0  0  0  0  0  0
  1  2  1  0
  1  4  1  0
  1  5  1  0
  1  6  1  0
  2  3  2  3
  3  7  1  0
  8  9  2  0
  8 12  1  0
  8 13  1  0
  9 10  2  0
 10 11  1  0
 10 14  1  0
 11 15  1  0
 11 16  1  0
 11 17  1  0
M  RAD  1   2   2
M  END
>  <reaction>  (7) 
rmg_rxn_16808

>  <mol_properties>  (7) 
{"0": {"label": "*0", "atom_type": "N3d"}, "4": {"label": "*1", "atom_type": "Cd"}, "5": {"label": "*4", "atom_type": "Ct"}, "6": {"label": "*3", "atom_type": "Ct"}, "13": {"label": "*2", "atom_type": "H0"}}

>  <type>  (7) 
unop_3

>  <geom_source>  (7) 
Heuristics

$$$$

     RDKit          3D

 17 15  0  0  0  0  0  0  0  0999 V2000
   -1.1631    1.9178    2.4479 C   0  0  0  0  0  0  0  0  0  0  0  0
   -1.1523    1.1994    1.1372 C   0  0  0  0  0  3  0  0  0  0  0  0
   -1.8877    1.5887    0.1519 N   0  0  0  0  0  0  0  0  0  0  0  0
   -0.1763    2.3258    2.6794 H   0  0  0  0  0  0  0  0  0  0  0  0
   -1.8947    2.7284    2.4010 H   0  0  0  0  0  0  0  0  0  0  0  0
   -1.4654    1.2188    3.2319 H   0  0  0  0  0  0  0  0  0  0  0  0
   -1.7439    0.9738   -0.6575 H   0  0  0  0  0  0  0  0  0  0  0  0
    1.1051    0.1014    0.3733 C   0  0  0  0  0  0  0  0  0  0  0  0
    1.1051   -0.9618   -0.3701 C   0  0  0  0  0  0  0  0  0  0  0  0
    1.1051   -2.0276   -1.1153 C   0  0  0  0  0  0  0  0  0  0  0  0
    1.1051   -2.0276   -2.6074 C   0  0  0  0  0  0  0  0  0  0  0  0
   -0.0137    0.6456    0.7519 H   0  0  0  0  0  0  0  0  0  0  0  0
    2.0375    0.5549    0.6888 H   0  0  0  0  0  0  0  0  0  0  0  0
    1.1039   -2.9980   -0.6271 H   0  0  0  0  0  0  0  0  0  0  0  0
    1.9920   -2.5482   -2.9812 H   0  0  0  0  0  0  0  0  0  0  0  0
    1.1051   -1.0121   -3.0162 H   0  0  0  0  0  0  0  0  0  0  0  0
    0.2182   -2.5482   -2.9812 H   0  0  0  0  0  0  0  0  0  0  0  0
  1  2  1  0
  1  4  1  0
  1  5  1  0
  1  6  1  0
  2  3  2  3
  3  7  1  0
  8  9  2  0
  8 12  1  0
  8 13  1  0
  9 10  2  0
 10 11  1  0
 10 14  1  0
 11 15  1  0
 11 16  1  0
 11 17  1  0
M  RAD  1   2   2
M  END
>  <reaction>  (8) 
rmg_rxn_16808

>  <mol_properties>  (8) 
{"0": {"label": "*0", "atom_type": "N3d"}, "4": {"label": "*1", "atom_type": "Cd"}, "5": {"label": "*4", "atom_type": "Ct"}, "6": {"label": "*3", "atom_type": "Ct"}, "13": {"label": "*2", "atom_type": "H0"}}

>  <type>  (8) 
unop_4

>  <geom_source>  (8) 
Heuristics

$$$$

     RDKit          3D

 17 15  0  0  0  0  0  0  0  0999 V2000
   -2.0644    1.6857    0.1134 C   0  0  0  0  0  0  0  0  0  0  0  0
   -1.1333    1.2055    1.1796 C   0  0  0  0  0  3  0  0  0  0  0  0
   -1.0642    1.7932    2.3255 N   0  0  0  0  0  0  0  0  0  0  0  0
   -2.7977    0.9169   -0.1418 H   0  0  0  0  0  0  0  0  0  0  0  0
   -2.5793    2.5812    0.4705 H   0  0  0  0  0  0  0  0  0  0  0  0
   -1.4818    1.9474   -0.7735 H   0  0  0  0  0  0  0  0  0  0  0  0
   -0.3729    1.3218    2.9204 H   0  0  0  0  0  0  0  0  0  0  0  0
    1.1241    0.1075    0.4157 C   0  0  0  0  0  0  0  0  0  0  0  0
    1.1241   -0.9557   -0.3278 C   0  0  0  0  0  0  0  0  0  0  0  0
    1.1241   -2.0215   -1.0730 C   0  0  0  0  0  0  0  0  0  0  0  0
    1.1241   -2.0215   -2.5651 C   0  0  0  0  0  0  0  0  0  0  0  0
    0.0052    0.6517    0.7943 H   0  0  0  0  0  0  0  0  0  0  0  0
    2.0564    0.5610    0.7312 H   0  0  0  0  0  0  0  0  0  0  0  0
    1.1229   -2.9918   -0.5847 H   0  0  0  0  0  0  0  0  0  0  0  0
    2.0110   -2.5421   -2.9389 H   0  0  0  0  0  0  0  0  0  0  0  0
    1.1241   -1.0059   -2.9738 H   0  0  0  0  0  0  0  0  0  0  0  0
    0.2372   -2.5421   -2.9389 H   0  0  0  0  0  0  0  0  0  0  0  0
  1  2  1  0
  1  4  1  0
  1  5  1  0
  1  6  1  0
  2  3  2  3
  3  7  1  0
  8  9  2  0
  8 12  1  0
  8 13  1  0
  9 10  2  0
 10 11  1  0
 10 14  1  0
 11 15  1  0
 11 16  1  0
 11 17  1  0
M  RAD  1   2   2
M  END
>  <reaction>  (9) 
rmg_rxn_16808

>  <mol_properties>  (9) 
{"0": {"label": "*0", "atom_type": "N3d"}, "4": {"label": "*1", "atom_type": "Cd"}, "5": {"label": "*4", "atom_type": "Ct"}, "6": {"label": "*3", "atom_type": "Ct"}, "13": {"label": "*2", "atom_type": "H0"}}

>  <type>  (9) 
unop_5

>  <geom_source>  (9) 
Heuristics

$$$$

     RDKit          3D

 17 15  0  0  0  0  0  0  0  0999 V2000
   -1.0244    2.4811    1.9656 C   0  0  0  0  0  0  0  0  0  0  0  0
   -1.1050    1.2579    1.1103 C   0  0  0  0  0  3  0  0  0  0  0  0
   -2.2406    0.7579    0.7587 N   0  0  0  0  0  0  0  0  0  0  0  0
   -0.5198    3.2948    1.4393 H   0  0  0  0  0  0  0  0  0  0  0  0
   -2.0370    2.7903    2.2369 H   0  0  0  0  0  0  0  0  0  0  0  0
   -0.4763    2.2381    2.8795 H   0  0  0  0  0  0  0  0  0  0  0  0
   -2.0921   -0.0748    0.1768 H   0  0  0  0  0  0  0  0  0  0  0  0
    1.1524    0.1599    0.3463 C   0  0  0  0  0  0  0  0  0  0  0  0
    1.1524   -0.9033   -0.3971 C   0  0  0  0  0  0  0  0  0  0  0  0
    1.1524   -1.9691   -1.1423 C   0  0  0  0  0  0  0  0  0  0  0  0
    1.1524   -1.9691   -2.6344 C   0  0  0  0  0  0  0  0  0  0  0  0
    0.0335    0.7041    0.7250 H   0  0  0  0  0  0  0  0  0  0  0  0
    2.0848    0.6134    0.6619 H   0  0  0  0  0  0  0  0  0  0  0  0
    1.1512   -2.9394   -0.6540 H   0  0  0  0  0  0  0  0  0  0  0  0
    2.0393   -2.4897   -3.0082 H   0  0  0  0  0  0  0  0  0  0  0  0
    1.1524   -0.9535   -3.0431 H   0  0  0  0  0  0  0  0  0  0  0  0
    0.2655   -2.4897   -3.0082 H   0  0  0  0  0  0  0  0  0  0  0  0
  1  2  1  0
  1  4  1  0
  1  5  1  0
  1  6  1  0
  2  3  2  3
  3  7  1  0
  8  9  2  0
  8 12  1  0
  8 13  1  0
  9 10  2  0
 10 11  1  0
 10 14  1  0
 11 15  1  0
 11 16  1  0
 11 17  1  0
M  RAD  1   2   2
M  END
>  <reaction>  (10) 
rmg_rxn_16808

>  <mol_properties>  (10) 
{"0": {"label": "*0", "atom_type": "N3d"}, "4": {"label": "*1", "atom_type": "Cd"}, "5": {"label": "*4", "atom_type": "Ct"}, "6": {"label": "*3", "atom_type": "Ct"}, "13": {"label": "*2", "atom_type": "H0"}}

>  <type>  (10) 
unop_6

>  <geom_source>  (10) 
Heuristics

$$$$

     RDKit          3D

 17 15  0  0  0  0  0  0  0  0999 V2000
   -1.7672    2.2376    0.2451 C   0  0  0  0  0  0  0  0  0  0  0  0
   -1.1741    1.1889    1.1298 C   0  0  0  0  0  3  0  0  0  0  0  0
   -1.1832    1.3096    2.4137 N   0  0  0  0  0  0  0  0  0  0  0  0
   -2.5952    1.8329   -0.3418 H   0  0  0  0  0  0  0  0  0  0  0  0
   -2.1251    3.0630    0.8659 H   0  0  0  0  0  0  0  0  0  0  0  0
   -0.9910    2.6152   -0.4253 H   0  0  0  0  0  0  0  0  0  0  0  0
   -0.7331    0.4944    2.8459 H   0  0  0  0  0  0  0  0  0  0  0  0
    1.0833    0.0908    0.3658 C   0  0  0  0  0  0  0  0  0  0  0  0
    1.0833   -0.9723   -0.3776 C   0  0  0  0  0  0  0  0  0  0  0  0
    1.0833   -2.0381   -1.1228 C   0  0  0  0  0  0  0  0  0  0  0  0
    1.0833   -2.0381   -2.6149 C   0  0  0  0  0  0  0  0  0  0  0  0
   -0.0356    0.6351    0.7445 H   0  0  0  0  0  0  0  0  0  0  0  0
    2.0157    0.5444    0.6814 H   0  0  0  0  0  0  0  0  0  0  0  0
    1.0821   -3.0085   -0.6345 H   0  0  0  0  0  0  0  0  0  0  0  0
    1.9702   -2.5588   -2.9887 H   0  0  0  0  0  0  0  0  0  0  0  0
    1.0833   -1.0226   -3.0236 H   0  0  0  0  0  0  0  0  0  0  0  0
    0.1964   -2.5588   -2.9887 H   0  0  0  0  0  0  0  0  0  0  0  0
  1  2  1  0
  1  4  1  0
  1  5  1  0
  1  6  1  0
  2  3  2  3
  3  7  1  0
  8  9  2  0
  8 12  1  0
  8 13  1  0
  9 10  2  0
 10 11  1  0
 10 14  1  0
 11 15  1  0
 11 16  1  0
 11 17  1  0
M  RAD  1   2   2
M  END
>  <reaction>  (11) 
rmg_rxn_16808

>  <mol_properties>  (11) 
{"0": {"label": "*0", "atom_type": "N3d"}, "4": {"label": "*1", "atom_type": "Cd"}, "5": {"label": "*4", "atom_type": "Ct"}, "6": {"label": "*3", "atom_type": "Ct"}, "13": {"label": "*2", "atom_type": "H0"}}

>  <type>  (11) 
unop_7

>  <geom_source>  (11) 
Heuristics

$$$$

     RDKit          3D

 17 15  0  0  0  0  0  0  0  0999 V2000
   -1.4420    2.6280    0.6579 C   0  0  0  0  0  0  0  0  0  0  0  0
   -1.1864    1.2142    1.0701 C   0  0  0  0  0  3  0  0  0  0  0  0
   -1.4573    0.8026    2.2619 N   0  0  0  0  0  0  0  0  0  0  0  0
   -2.1671    2.6734   -0.1582 H   0  0  0  0  0  0  0  0  0  0  0  0
   -1.8216    3.1843    1.5188 H   0  0  0  0  0  0  0  0  0  0  0  0
   -0.4993    3.0791    0.3381 H   0  0  0  0  0  0  0  0  0  0  0  0
   -1.2141   -0.1906    2.3538 H   0  0  0  0  0  0  0  0  0  0  0  0
    1.0710    0.1161    0.3061 C   0  0  0  0  0  0  0  0  0  0  0  0
    1.0710   -0.9471   -0.4373 C   0  0  0  0  0  0  0  0  0  0  0  0
    1.0710   -2.0129   -1.1825 C   0  0  0  0  0  0  0  0  0  0  0  0
    1.0710   -2.0129   -2.6746 C   0  0  0  0  0  0  0  0  0  0  0  0
   -0.0479    0.6603    0.6848 H   0  0  0  0  0  0  0  0  0  0  0  0
    2.0034    0.5696    0.6217 H   0  0  0  0  0  0  0  0  0  0  0  0
    1.0698   -2.9832   -0.6942 H   0  0  0  0  0  0  0  0  0  0  0  0
    1.9579   -2.5335   -3.0484 H   0  0  0  0  0  0  0  0  0  0  0  0
    1.0710   -0.9973   -3.0833 H   0  0  0  0  0  0  0  0  0  0  0  0
    0.1841   -2.5335   -3.0484 H   0  0  0  0  0  0  0  0  0  0  0  0
  1  2  1  0
  1  4  1  0
  1  5  1  0
  1  6  1  0
  2  3  2  3
  3  7  1  0
  8  9  2  0
  8 12  1  0
  8 13  1  0
  9 10  2  0
 10 11  1  0
 10 14  1  0
 11 15  1  0
 11 16  1  0
 11 17  1  0
M  RAD  1   2   2
M  END
>  <reaction>  (12) 
rmg_rxn_16808

>  <mol_properties>  (12) 
{"0": {"label": "*0", "atom_type": "N3d"}, "4": {"label": "*1", "atom_type": "Cd"}, "5": {"label": "*4", "atom_type": "Ct"}, "6": {"label": "*3", "atom_type": "Ct"}, "13": {"label": "*2", "atom_type": "H0"}}

>  <type>  (12) 
unop_8

>  <geom_source>  (12) 
Heuristics

$$$$

     RDKit          3D

 17 15  0  0  0  0  0  0  0  0999 V2000
   -1.7701    0.7824    2.3268 C   0  0  0  0  0  0  0  0  0  0  0  0
   -1.1733    1.2523    1.0395 C   0  0  0  0  0  3  0  0  0  0  0  0
   -1.1796    2.4997    0.7122 N   0  0  0  0  0  0  0  0  0  0  0  0
   -1.0136    0.3157    2.9622 H   0  0  0  0  0  0  0  0  0  0  0  0
   -2.2099    1.6378    2.8459 H   0  0  0  0  0  0  0  0  0  0  0  0
   -2.5619    0.0616    2.1074 H   0  0  0  0  0  0  0  0  0  0  0  0
   -0.7272    2.6251   -0.2009 H   0  0  0  0  0  0  0  0  0  0  0  0
    1.0841    0.1543    0.2756 C   0  0  0  0  0  0  0  0  0  0  0  0
    1.0841   -0.9089   -0.4678 C   0  0  0  0  0  0  0  0  0  0  0  0
    1.0841   -1.9747   -1.2130 C   0  0  0  0  0  0  0  0  0  0  0  0
    1.0841   -1.9747   -2.7051 C   0  0  0  0  0  0  0  0  0  0  0  0
   -0.0347    0.6985    0.6542 H   0  0  0  0  0  0  0  0  0  0  0  0
    2.0165    0.6078    0.5911 H   0  0  0  0  0  0  0  0  0  0  0  0
    1.0829   -2.9451   -0.7248 H   0  0  0  0  0  0  0  0  0  0  0  0
    1.9710   -2.4953   -3.0789 H   0  0  0  0  0  0  0  0  0  0  0  0
    1.0841   -0.9591   -3.1139 H   0  0  0  0  0  0  0  0  0  0  0  0
    0.1972   -2.4953   -3.0789 H   0  0  0  0  0  0  0  0  0  0  0  0
  1  2  1  0
  1  4  1  0
  1  5  1  0
  1  6  1  0
  2  3  2  3
  3  7  1  0
  8  9  2  0
  8 12  1  0
  8 13  1  0
  9 10  2  0
 10 11  1  0
 10 14  1  0
 11 15  1  0
 11 16  1  0
 11 17  1  0
M  RAD  1   2   2
M  END
>  <reaction>  (13) 
rmg_rxn_16808

>  <mol_properties>  (13) 
{"0": {"label": "*0", "atom_type": "N3d"}, "4": {"label": "*1", "atom_type": "Cd"}, "5": {"label": "*4", "atom_type": "Ct"}, "6": {"label": "*3", "atom_type": "Ct"}, "13": {"label": "*2", "atom_type": "H0"}}

>  <type>  (13) 
unop_9

>  <geom_source>  (13) 
Heuristics

$$$$

     RDKit          3D

 17 15  0  0  0  0  0  0  0  0999 V2000
   -3.1805   -0.4593    0.2428 C   0  0  0  0  0  0  0  0  0  0  0  0
   -1.8950    0.2316   -0.0025 C   0  0  0  0  0  0  0  0  0  0  0  0
   -1.7844    1.4517   -0.2117 N   0  0  0  0  0  0  0  0  0  0  0  0
   -4.0160    0.2389    0.2154 H   0  0  0  0  0  0  0  0  0  0  0  0
   -3.3248   -1.2302   -0.5133 H   0  0  0  0  0  0  0  0  0  0  0  0
   -3.1466   -0.9488    1.2155 H   0  0  0  0  0  0  0  0  0  0  0  0
   -0.8548    1.8275   -0.3696 H   0  0  0  0  0  0  0  0  0  0  0  0
    0.2248   -1.3364    0.0371 C   0  0  0  0  0  0  0  0  0  0  0  0
    1.3313   -0.7842   -0.2191 C   0  0  0  0  0  0  0  0  0  0  0  0
    2.3647   -0.0071   -0.4983 C   0  0  0  0  0  3  0  0  0  0  0  0
    3.1820    0.6896    0.5420 C   0  0  0  0  0  0  0  0  0  0  0  0
   -0.8524   -0.5711    0.0192 H   0  0  0  0  0  0  0  0  0  0  0  0
   -0.0552   -2.3391    0.2757 H   0  0  0  0  0  0  0  0  0  0  0  0
    2.6986    0.0849   -1.5233 H   0  0  0  0  0  0  0  0  0  0  0  0
    3.2264    1.7600    0.3329 H   0  0  0  0  0  0  0  0  0  0  0  0
    4.2066    0.3129    0.5420 H   0  0  0  0  0  0  0  0  0  0  0  0
    2.7553    0.5423    1.5315 H   0  0  0  0  0  0  0  0  0  0  0  0
  1  2  1  0
  1  4  1  0
  1  5  1  0
  1  6  1  0
  2  3  2  3
  2 12  1  0
  3  7  1  0
  8  9  3  0
  8 13  1  0
  9 10  1  0
 10 11  1  0
 10 14  1  0
 11 15  1  0
 11 16  1  0
 11 17  1  0
M  RAD  1  10   2
M  END
>  <reaction>  (14) 
rmg_rxn_16808

>  <mol_properties>  (14) 
{"0": {"label": "*0", "atom_type": "N3d"}, "4": {"label": "*1", "atom_type": "Cd"}, "5": {"label": "*4", "atom_type": "Ct"}, "6": {"label": "*3", "atom_type": "Ct"}, "13": {"label": "*2", "atom_type": "H0"}}

>  <type>  (14) 
unop_10

>  <geom_source>  (14) 
Heuristics

$$$$

     RDKit          3D

 17 15  0  0  0  0  0  0  0  0999 V2000
   -2.2673    1.1158    0.2801 C   0  0  0  0  0  0  0  0  0  0  0  0
   -1.0883    1.2553    1.1882 C   0  0  0  0  0  3  0  0  0  0  0  0
   -1.0594    2.1473    2.1191 N   0  0  0  0  0  0  0  0  0  0  0  0
   -2.7279    0.1305    0.3846 H   0  0  0  0  0  0  0  0  0  0  0  0
   -2.9971    1.8912    0.5264 H   0  0  0  0  0  0  0  0  0  0  0  0
   -1.9380    1.2605   -0.7519 H   0  0  0  0  0  0  0  0  0  0  0  0
   -0.1732    2.0884    2.6341 H   0  0  0  0  0  0  0  0  0  0  0  0
    1.1691    0.1573    0.4243 C   0  0  0  0  0  0  0  0  0  0  0  0
    1.1691   -0.9059   -0.3191 C   0  0  0  0  0  0  0  0  0  0  0  0
    1.1691   -1.9717   -1.0644 C   0  0  0  0  0  0  0  0  0  0  0  0
    1.1691   -1.9717   -2.5565 C   0  0  0  0  0  0  0  0  0  0  0  0
    0.0503    0.7015    0.8029 H   0  0  0  0  0  0  0  0  0  0  0  0
    2.1015    0.6108    0.7398 H   0  0  0  0  0  0  0  0  0  0  0  0
    1.1680   -2.9421   -0.5761 H   0  0  0  0  0  0  0  0  0  0  0  0
    2.0560   -2.4923   -2.9303 H   0  0  0  0  0  0  0  0  0  0  0  0
    1.1691   -0.9561   -2.9652 H   0  0  0  0  0  0  0  0  0  0  0  0
    0.2822   -2.4923   -2.9303 H   0  0  0  0  0  0  0  0  0  0  0  0
  1  2  1  0
  1  4  1  0
  1  5  1  0
  1  6  1  0
  2  3  2  3
  3  7  1  0
  8  9  2  0
  8 12  1  0
  8 13  1  0
  9 10  2  0
 10 11  1  0
 10 14  1  0
 11 15  1  0
 11 16  1  0
 11 17  1  0
M  RAD  1   2   2
M  END
>  <reaction>  (15) 
rmg_rxn_16808

>  <mol_properties>  (15) 
{"0": {"label": "*0", "atom_type": "N3d"}, "4": {"label": "*1", "atom_type": "Cd"}, "5": {"label": "*4", "atom_type": "Ct"}, "6": {"label": "*3", "atom_type": "Ct"}, "13": {"label": "*2", "atom_type": "H0"}}

>  <type>  (15) 
unop_11

>  <geom_source>  (15) 
Heuristics

$$$$

     RDKit          3D

 17 15  0  0  0  0  0  0  0  0999 V2000
   -2.0669    0.4695    1.8531 C   0  0  0  0  0  0  0  0  0  0  0  0
   -1.1326    1.3046    1.0383 C   0  0  0  0  0  3  0  0  0  0  0  0
   -1.0618    2.5824    1.1971 N   0  0  0  0  0  0  0  0  0  0  0  0
   -1.5179   -0.2579    2.4560 H   0  0  0  0  0  0  0  0  0  0  0  0
   -2.6486    1.1247    2.5064 H   0  0  0  0  0  0  0  0  0  0  0  0
   -2.7525   -0.0524    1.1808 H   0  0  0  0  0  0  0  0  0  0  0  0
   -0.3684    2.9783    0.5517 H   0  0  0  0  0  0  0  0  0  0  0  0
    1.1249    0.2065    0.2744 C   0  0  0  0  0  0  0  0  0  0  0  0
    1.1249   -0.8567   -0.4690 C   0  0  0  0  0  0  0  0  0  0  0  0
    1.1249   -1.9225   -1.2142 C   0  0  0  0  0  0  0  0  0  0  0  0
    1.1249   -1.9225   -2.7063 C   0  0  0  0  0  0  0  0  0  0  0  0
    0.0060    0.7507    0.6530 H   0  0  0  0  0  0  0  0  0  0  0  0
    2.0572    0.6600    0.5899 H   0  0  0  0  0  0  0  0  0  0  0  0
    1.1237   -2.8928   -0.7260 H   0  0  0  0  0  0  0  0  0  0  0  0
    2.0117   -2.4431   -3.0801 H   0  0  0  0  0  0  0  0  0  0  0  0
    1.1249   -0.9069   -3.1151 H   0  0  0  0  0  0  0  0  0  0  0  0
    0.2380   -2.4431   -3.0801 H   0  0  0  0  0  0  0  0  0  0  0  0
  1  2  1  0
  1  4  1  0
  1  5  1  0
  1  6  1  0
  2  3  2  3
  3  7  1  0
  8  9  2  0
  8 12  1  0
  8 13  1  0
  9 10  2  0
 10 11  1  0
 10 14  1  0
 11 15  1  0
 11 16  1  0
 11 17  1  0
M  RAD  1   2   2
M  END
>  <reaction>  (16) 
rmg_rxn_16808

>  <mol_properties>  (16) 
{"0": {"label": "*0", "atom_type": "N3d"}, "4": {"label": "*1", "atom_type": "Cd"}, "5": {"label": "*4", "atom_type": "Ct"}, "6": {"label": "*3", "atom_type": "Ct"}, "13": {"label": "*2", "atom_type": "H0"}}

>  <type>  (16) 
unop_12

>  <geom_source>  (16) 
Heuristics

$$$$

     RDKit          3D

 17 15  0  0  0  0  0  0  0  0999 V2000
   -1.1617    2.7406    1.2708 C   0  0  0  0  0  0  0  0  0  0  0  0
   -1.1527    1.2629    1.0461 C   0  0  0  0  0  3  0  0  0  0  0  0
   -1.8909    0.4722    1.7482 N   0  0  0  0  0  0  0  0  0  0  0  0
   -1.5018    3.2707    0.3780 H   0  0  0  0  0  0  0  0  0  0  0  0
   -1.8260    2.9669    2.1087 H   0  0  0  0  0  0  0  0  0  0  0  0
   -0.1504    3.0653    1.5287 H   0  0  0  0  0  0  0  0  0  0  0  0
   -1.7480   -0.4993    1.4488 H   0  0  0  0  0  0  0  0  0  0  0  0
    1.1047    0.1648    0.2821 C   0  0  0  0  0  0  0  0  0  0  0  0
    1.1047   -0.8984   -0.4613 C   0  0  0  0  0  0  0  0  0  0  0  0
    1.1047   -1.9642   -1.2065 C   0  0  0  0  0  0  0  0  0  0  0  0
    1.1047   -1.9642   -2.6986 C   0  0  0  0  0  0  0  0  0  0  0  0
   -0.0141    0.7091    0.6608 H   0  0  0  0  0  0  0  0  0  0  0  0
    2.0371    0.6183    0.5977 H   0  0  0  0  0  0  0  0  0  0  0  0
    1.1036   -2.9345   -0.7182 H   0  0  0  0  0  0  0  0  0  0  0  0
    1.9916   -2.4848   -3.0724 H   0  0  0  0  0  0  0  0  0  0  0  0
    1.1047   -0.9486   -3.1073 H   0  0  0  0  0  0  0  0  0  0  0  0
    0.2178   -2.4848   -3.0724 H   0  0  0  0  0  0  0  0  0  0  0  0
  1  2  1  0
  1  4  1  0
  1  5  1  0
  1  6  1  0
  2  3  2  3
  3  7  1  0
  8  9  2  0
  8 12  1  0
  8 13  1  0
  9 10  2  0
 10 11  1  0
 10 14  1  0
 11 15  1  0
 11 16  1  0
 11 17  1  0
M  RAD  1   2   2
M  END
>  <reaction>  (17) 
rmg_rxn_16808

>  <mol_properties>  (17) 
{"0": {"label": "*0", "atom_type": "N3d"}, "4": {"label": "*1", "atom_type": "Cd"}, "5": {"label": "*4", "atom_type": "Ct"}, "6": {"label": "*3", "atom_type": "Ct"}, "13": {"label": "*2", "atom_type": "H0"}}

>  <type>  (17) 
unop_13

>  <geom_source>  (17) 
Heuristics

$$$$

     RDKit          3D

 17 15  0  0  0  0  0  0  0  0999 V2000
   -2.3384    0.6644    0.6941 C   0  0  0  0  0  0  0  0  0  0  0  0
   -1.0680    1.3087    1.1468 C   0  0  0  0  0  3  0  0  0  0  0  0
   -1.0771    2.3656    1.8857 N   0  0  0  0  0  0  0  0  0  0  0  0
   -2.4183   -0.3559    1.0767 H   0  0  0  0  0  0  0  0  0  0  0  0
   -3.1833    1.2586    1.0514 H   0  0  0  0  0  0  0  0  0  0  0  0
   -2.3580    0.6503   -0.3986 H   0  0  0  0  0  0  0  0  0  0  0  0
   -0.1148    2.6580    2.0918 H   0  0  0  0  0  0  0  0  0  0  0  0
    1.1895    0.2107    0.3828 C   0  0  0  0  0  0  0  0  0  0  0  0
    1.1895   -0.8525   -0.3606 C   0  0  0  0  0  0  0  0  0  0  0  0
    1.1895   -1.9183   -1.1058 C   0  0  0  0  0  0  0  0  0  0  0  0
    1.1895   -1.9183   -2.5979 C   0  0  0  0  0  0  0  0  0  0  0  0
    0.0706    0.7549    0.7615 H   0  0  0  0  0  0  0  0  0  0  0  0
    2.1218    0.6642    0.6984 H   0  0  0  0  0  0  0  0  0  0  0  0
    1.1883   -2.8886   -0.6175 H   0  0  0  0  0  0  0  0  0  0  0  0
    2.0763   -2.4389   -2.9717 H   0  0  0  0  0  0  0  0  0  0  0  0
    1.1895   -0.9027   -3.0066 H   0  0  0  0  0  0  0  0  0  0  0  0
    0.3026   -2.4389   -2.9717 H   0  0  0  0  0  0  0  0  0  0  0  0
  1  2  1  0
  1  4  1  0
  1  5  1  0
  1  6  1  0
  2  3  2  3
  3  7  1  0
  8  9  2  0
  8 12  1  0
  8 13  1  0
  9 10  2  0
 10 11  1  0
 10 14  1  0
 11 15  1  0
 11 16  1  0
 11 17  1  0
M  RAD  1   2   2
M  END
>  <reaction>  (18) 
rmg_rxn_16808

>  <mol_properties>  (18) 
{"0": {"label": "*0", "atom_type": "N3d"}, "4": {"label": "*1", "atom_type": "Cd"}, "5": {"label": "*4", "atom_type": "Ct"}, "6": {"label": "*3", "atom_type": "Ct"}, "13": {"label": "*2", "atom_type": "H0"}}

>  <type>  (18) 
unop_14

>  <geom_source>  (18) 
Heuristics

$$$$

     RDKit          3D

 17 15  0  0  0  0  0  0  0  0999 V2000
    2.5095   -0.1315   -1.6938 N   0  0  0  0  0  0  0  0  0  0  0  0
    3.2503   -0.5037    0.5669 C   0  0  0  0  0  0  0  0  0  0  0  0
   -3.6006    0.4310    0.1661 C   0  0  0  0  0  0  0  0  0  0  0  0
   -2.3757   -0.0816   -0.5153 C   0  0  0  0  0  3  0  0  0  0  0  0
    2.2386   -0.0717   -0.4422 C   0  0  0  0  0  0  0  0  0  0  0  0
   -1.2133   -0.0198    0.0742 C   0  0  0  0  0  0  0  0  0  0  0  0
   -0.0531    0.0422    0.6632 C   0  0  0  0  0  0  0  0  0  0  0  0
    2.8332   -0.3783    1.5875 H   0  0  0  0  0  0  0  0  0  0  0  0
    3.5076   -1.5721    0.4089 H   0  0  0  0  0  0  0  0  0  0  0  0
    4.1666    0.1159    0.4708 H   0  0  0  0  0  0  0  0  0  0  0  0
   -4.4821    0.2898   -0.4936 H   0  0  0  0  0  0  0  0  0  0  0  0
   -3.7692   -0.1238    1.1135 H   0  0  0  0  0  0  0  0  0  0  0  0
   -3.4880    1.5137    0.3872 H   0  0  0  0  0  0  0  0  0  0  0  0
    1.0837    0.3648   -0.0499 H   0  0  0  0  0  0  0  0  0  0  0  0
   -2.4474   -0.5091   -1.5069 H   0  0  0  0  0  0  0  0  0  0  0  0
    1.8124    0.1662   -2.3907 H   0  0  0  0  0  0  0  0  0  0  0  0
    0.0275    0.4678    1.6541 H   0  0  0  0  0  0  0  0  0  0  0  0
  1  5  2  3
  1 16  1  0
  2  5  1  0
  2  8  1  0
  2  9  1  0
  2 10  1  0
  3  4  1  0
  3 11  1  0
  3 12  1  0
  3 13  1  0
  4  6  1  0
  4 15  1  0
  5 14  1  0
  6  7  3  0
  7 17  1  0
M  RAD  1   4   2
M  END
>  <reaction>  (19) 
rmg_rxn_16808

>  <mol_properties>  (19) 
{"0": {"label": "*0", "atom_type": "N3d"}, "4": {"label": "*1", "atom_type": "Cd"}, "5": {"label": "*4", "atom_type": "Ct"}, "6": {"label": "*3", "atom_type": "Ct"}, "13": {"label": "*2", "atom_type": "H0"}}

>  <type>  (19) 
unop_15

>  <geom_source>  (19) 
AutoTST

$$$$

     RDKit          3D

 17 15  0  0  0  0  0  0  0  0999 V2000
   -2.2687    0.4306    1.2603 C   0  0  0  0  0  0  0  0  0  0  0  0
   -1.0878    1.3295    1.0824 C   0  0  0  0  0  3  0  0  0  0  0  0
   -1.0582    2.5100    1.6006 N   0  0  0  0  0  0  0  0  0  0  0  0
   -1.9895   -0.4828    1.7910 H   0  0  0  0  0  0  0  0  0  0  0  0
   -3.0374    0.9641    1.8251 H   0  0  0  0  0  0  0  0  0  0  0  0
   -2.6709    0.1761    0.2764 H   0  0  0  0  0  0  0  0  0  0  0  0
   -0.1708    2.9721    1.3706 H   0  0  0  0  0  0  0  0  0  0  0  0
    1.1696    0.2314    0.3184 C   0  0  0  0  0  0  0  0  0  0  0  0
    1.1696   -0.8318   -0.4250 C   0  0  0  0  0  0  0  0  0  0  0  0
    1.1696   -1.8976   -1.1702 C   0  0  0  0  0  0  0  0  0  0  0  0
    1.1696   -1.8976   -2.6623 C   0  0  0  0  0  0  0  0  0  0  0  0
    0.0508    0.7757    0.6970 H   0  0  0  0  0  0  0  0  0  0  0  0
    2.1020    0.6849    0.6340 H   0  0  0  0  0  0  0  0  0  0  0  0
    1.1684   -2.8679   -0.6820 H   0  0  0  0  0  0  0  0  0  0  0  0
    2.0565   -2.4182   -3.0361 H   0  0  0  0  0  0  0  0  0  0  0  0
    1.1696   -0.8820   -3.0711 H   0  0  0  0  0  0  0  0  0  0  0  0
    0.2827   -2.4182   -3.0361 H   0  0  0  0  0  0  0  0  0  0  0  0
  1  2  1  0
  1  4  1  0
  1  5  1  0
  1  6  1  0
  2  3  2  3
  3  7  1  0
  8  9  2  0
  8 12  1  0
  8 13  1  0
  9 10  2  0
 10 11  1  0
 10 14  1  0
 11 15  1  0
 11 16  1  0
 11 17  1  0
M  RAD  1   2   2
M  END
>  <reaction>  (20) 
rmg_rxn_16808

>  <mol_properties>  (20) 
{"0": {"label": "*0", "atom_type": "N3d"}, "4": {"label": "*1", "atom_type": "Cd"}, "5": {"label": "*4", "atom_type": "Ct"}, "6": {"label": "*3", "atom_type": "Ct"}, "13": {"label": "*2", "atom_type": "H0"}}

>  <type>  (20) 
unop_16

>  <geom_source>  (20) 
gaussian_log

$$$$
