
     RDKit          3D

  9  8  0  0  0  0  0  0  0  0999 V2000
   -1.5470   -0.0755   -0.1976 C   0  0  0  0  0  0  0  0  0  0  0  0
   -0.2885    0.4507    0.1749 O   0  0  0  0  0  0  0  0  0  0  0  0
   -0.1502    1.7216   -0.3294 N   0  0  0  0  0  0  0  0  0  0  0  0
    0.9626    2.2353   -0.0219 C   0  0  0  0  0  0  0  0  0  0  0  0
   -1.6392   -0.1356   -1.2844 H   0  0  0  0  0  0  0  0  0  0  0  0
   -2.3597    0.5337    0.2044 H   0  0  0  0  0  0  0  0  0  0  0  0
   -1.5879   -1.0750    0.2318 H   0  0  0  0  0  0  0  0  0  0  0  0
    1.1497    3.2381   -0.3820 H   0  0  0  0  0  0  0  0  0  0  0  0
    1.7060    1.7101    0.5739 H   0  0  0  0  0  0  0  0  0  0  0  0
  1  2  1  0
  1  5  1  0
  1  6  1  0
  1  7  1  0
  2  3  1  0
  3  4  2  3
  4  8  1  0
  4  9  1  0
M  END
>  <reaction>  (1) 
rmg_rxn_15710

>  <mol_properties>  (1) 
{"0": {"label": "donator", "atom_type": "Cs"}, "4": {"label": "d_hydrogen", "atom_type": "H0"}}

>  <type>  (1) 
r1h

$$$$

     RDKit          3D

 11 10  0  0  0  0  0  0  0  0999 V2000
   -1.3338    0.1639    0.5181 C   0  0  0  0  0  0  0  0  0  0  0  0
   -0.3239    0.1101   -0.5684 C   0  0  0  0  0  3  0  0  0  0  0  0
    0.9657   -0.6072   -0.3852 C   0  0  0  0  0  0  0  0  0  0  0  0
    1.6686   -0.2149    0.7868 O   0  0  0  0  0  0  0  0  0  0  0  0
   -0.8577    0.1686    1.5000 H   0  0  0  0  0  0  0  0  0  0  0  0
   -1.9752    1.0431    0.4339 H   0  0  0  0  0  0  0  0  0  0  0  0
   -1.9957   -0.7141    0.4872 H   0  0  0  0  0  0  0  0  0  0  0  0
   -0.6101    0.4054   -1.5710 H   0  0  0  0  0  0  0  0  0  0  0  0
    0.7976   -1.6846   -0.2560 H   0  0  0  0  0  0  0  0  0  0  0  0
    1.5948   -0.4872   -1.2750 H   0  0  0  0  0  0  0  0  0  0  0  0
    1.7856    0.7366    0.7517 H   0  0  0  0  0  0  0  0  0  0  0  0
  1  2  1  0
  1  5  1  0
  1  6  1  0
  1  7  1  0
  2  3  1  0
  2  8  1  0
  3  4  1  0
  3  9  1  0
  3 10  1  0
  4 11  1  0
M  RAD  1   2   2
M  END
>  <reaction>  (2) 
rmg_rxn_15710

>  <mol_properties>  (2) 
{"1": {"label": "acceptor", "atom_type": "Cs"}}

>  <type>  (2) 
r2

$$$$

     RDKit          3D

 12 11  0  0  0  0  0  0  0  0999 V2000
   -1.4643   -0.2505   -0.5284 C   0  0  0  0  0  0  0  0  0  0  0  0
   -0.3946    0.4302    0.3143 C   0  0  0  0  0  0  0  0  0  0  0  0
   -0.5959    0.2382    1.8102 C   0  0  0  0  0  0  0  0  0  0  0  0
   -0.5633   -1.1190    2.2092 O   0  0  0  0  0  0  0  0  0  0  0  0
   -2.4511    0.1644   -0.3109 H   0  0  0  0  0  0  0  0  0  0  0  0
   -1.5019   -1.3198   -0.3181 H   0  0  0  0  0  0  0  0  0  0  0  0
   -1.2720   -0.1182   -1.5941 H   0  0  0  0  0  0  0  0  0  0  0  0
    0.5965    0.0515    0.0385 H   0  0  0  0  0  0  0  0  0  0  0  0
   -0.3776    1.5047    0.1078 H   0  0  0  0  0  0  0  0  0  0  0  0
   -1.5821    0.6048    2.1034 H   0  0  0  0  0  0  0  0  0  0  0  0
    0.1495    0.8220    2.3649 H   0  0  0  0  0  0  0  0  0  0  0  0
    0.3017   -1.4750    1.9997 H   0  0  0  0  0  0  0  0  0  0  0  0
  1  2  1  0
  1  5  1  0
  1  6  1  0
  1  7  1  0
  2  3  1  0
  2  8  1  0
  2  9  1  0
  3  4  1  0
  3 10  1  0
  3 11  1  0
  4 12  1  0
M  END
>  <reaction>  (3) 
rmg_rxn_15710

>  <mol_properties>  (3) 
{"0": {"label": "a_hydrogen", "atom_type": "H0"}, "2": {"label": "acceptor", "atom_type": "Cs"}}

>  <type>  (3) 
r2h

$$$$

     RDKit          3D

 20 18  0  0  0  0  0  0  0  0999 V2000
   -0.4229   -1.4985   -0.8492 C   0  0  0  0  0  3  0  0  0  0  0  0
   -1.3873   -1.1568    0.0985 O   0  0  0  0  0  0  0  0  0  0  0  0
   -1.7527    0.1606   -0.0318 N   0  0  0  0  0  0  0  0  0  0  0  0
   -2.6805    0.4863    0.7618 C   0  0  0  0  0  0  0  0  0  0  0  0
    0.7325   -0.8278   -0.5798 H   0  0  0  0  0  0  0  0  0  0  0  0
   -0.6993   -1.2097   -1.8633 H   0  0  0  0  0  0  0  0  0  0  0  0
   -0.2066   -2.5564   -0.7320 H   0  0  0  0  0  0  0  0  0  0  0  0
   -3.0113    1.5154    0.7230 H   0  0  0  0  0  0  0  0  0  0  0  0
   -3.1304   -0.2212    1.4536 H   0  0  0  0  0  0  0  0  0  0  0  0
    2.5721   -0.9719    0.7563 C   0  0  0  0  0  0  0  0  0  0  0  0
    1.8417   -0.1408   -0.2653 C   0  0  0  0  0  0  0  0  0  0  0  0
    1.3626    1.2073    0.2115 C   0  0  0  0  0  0  0  0  0  0  0  0
    0.5728    1.8859   -0.7356 O   0  0  0  0  0  0  0  0  0  0  0  0
    1.9568   -1.1316    1.6456 H   0  0  0  0  0  0  0  0  0  0  0  0
    2.8436   -1.9497    0.3554 H   0  0  0  0  0  0  0  0  0  0  0  0
    3.4970   -0.4839    1.0828 H   0  0  0  0  0  0  0  0  0  0  0  0
    2.3467   -0.0751   -1.2302 H   0  0  0  0  0  0  0  0  0  0  0  0
    0.8250    1.0881    1.1637 H   0  0  0  0  0  0  0  0  0  0  0  0
    2.2244    1.8534    0.4167 H   0  0  0  0  0  0  0  0  0  0  0  0
   -0.2782    1.4306   -0.7711 H   0  0  0  0  0  0  0  0  0  0  0  0
  1  2  1  0
  1  6  1  0
  1  7  1  0
  2  3  1  0
  3  4  2  3
  4  8  1  0
  4  9  1  0
  5 11  1  0
 10 11  1  0
 10 14  1  0
 10 15  1  0
 10 16  1  0
 11 12  1  0
 11 17  1  0
 12 13  1  0
 12 18  1  0
 12 19  1  0
 13 20  1  0
M  RAD  1   1   2
M  END
>  <reaction>  (4) 
rmg_rxn_15710

>  <mol_properties>  (4) 
{"0": {"label": "*3", "atom_type": "Cs"}, "1": {"label": "*4", "atom_type": "O2s"}, "4": {"label": "*2", "atom_type": "H0"}, "10": {"label": "*1", "atom_type": "Cs"}, "11": {"label": "*0", "atom_type": "Cs"}}

>  <type>  (4) 
ts

$$$$

     RDKit          3D

 20 18  0  0  0  0  0  0  0  0999 V2000
   -0.3997    1.5249    0.7958 C   0  0  0  0  0  3  0  0  0  0  0  0
   -1.3813    1.1470   -0.1078 O   0  0  0  0  0  0  0  0  0  0  0  0
   -1.7984   -0.1554    0.0846 N   0  0  0  0  0  0  0  0  0  0  0  0
   -2.7354   -0.5607   -0.6613 C   0  0  0  0  0  0  0  0  0  0  0  0
    0.7324    0.8622    0.5216 H   0  0  0  0  0  0  0  0  0  0  0  0
   -0.6325    1.2667    1.8267 H   0  0  0  0  0  0  0  0  0  0  0  0
   -0.2029    2.5790    0.6411 H   0  0  0  0  0  0  0  0  0  0  0  0
   -3.0546   -1.5772   -0.5175 H   0  0  0  0  0  0  0  0  0  0  0  0
   -3.2190    0.0486   -1.4172 H   0  0  0  0  0  0  0  0  0  0  0  0
    2.6536    0.9751   -0.6859 C   0  0  0  0  0  0  0  0  0  0  0  0
    1.8106    0.1608    0.2613 C   0  0  0  0  0  0  0  0  0  0  0  0
    1.3387   -1.1660   -0.2995 C   0  0  0  0  0  0  0  0  0  0  0  0
    0.4980   -1.8725    0.5751 O   0  0  0  0  0  0  0  0  0  0  0  0
    3.5860    0.4568   -0.9182 H   0  0  0  0  0  0  0  0  0  0  0  0
    2.1246    1.1462   -1.6217 H   0  0  0  0  0  0  0  0  0  0  0  0
    2.9045    1.9378   -0.2461 H   0  0  0  0  0  0  0  0  0  0  0  0
    2.2730    0.0353    1.2389 H   0  0  0  0  0  0  0  0  0  0  0  0
    0.8461   -1.0046   -1.2714 H   0  0  0  0  0  0  0  0  0  0  0  0
    2.2016   -1.8239   -0.4686 H   0  0  0  0  0  0  0  0  0  0  0  0
   -0.3364   -1.3814    0.6649 H   0  0  0  0  0  0  0  0  0  0  0  0
  1  2  1  0
  1  6  1  0
  1  7  1  0
  2  3  1  0
  3  4  2  3
  4  8  1  0
  4  9  1  0
  5 11  1  0
 10 11  1  0
 10 14  1  0
 10 15  1  0
 10 16  1  0
 11 12  1  0
 11 17  1  0
 12 13  1  0
 12 18  1  0
 12 19  1  0
 13 20  1  0
M  RAD  1   1   2
M  END
>  <reaction>  (5) 
rmg_rxn_15710

>  <mol_properties>  (5) 
{"0": {"label": "*3", "atom_type": "Cs"}, "1": {"label": "*4", "atom_type": "O2s"}, "4": {"label": "*2", "atom_type": "H0"}, "10": {"label": "*1", "atom_type": "Cs"}, "11": {"label": "*0", "atom_type": "Cs"}}

>  <type>  (5) 
unop_1

>  <geom_source>  (5) 
crest_best.xyz

$$$$

     RDKit          3D

 20 18  0  0  0  0  0  0  0  0999 V2000
   -1.4571    1.2060    0.2288 C   0  0  0  0  0  0  0  0  0  0  0  0
   -1.4571    1.2640   -1.1841 O   0  0  0  0  0  0  0  0  0  0  0  0
   -1.4571   -0.0099   -1.6998 N   0  0  0  0  0  0  0  0  0  0  0  0
   -1.4571   -0.0099   -2.9634 C   0  0  0  0  0  0  0  0  0  0  0  0
   -0.3865    0.5939    0.6729 H   0  0  0  0  0  0  0  0  0  0  0  0
   -2.3492    0.6958    0.5989 H   0  0  0  0  0  0  0  0  0  0  0  0
   -1.4571    2.2409    0.5666 H   0  0  0  0  0  0  0  0  0  0  0  0
   -1.4571   -0.9770   -3.4483 H   0  0  0  0  0  0  0  0  0  0  0  0
   -1.4571    0.9066   -3.5496 H   0  0  0  0  0  0  0  0  0  0  0  0
    1.4919    0.9127    2.0119 C   0  0  0  0  0  0  0  0  0  0  0  0
    0.6860   -0.0194    1.1178 C   0  0  0  0  0  3  0  0  0  0  0  0
    1.4972   -1.1914    0.5855 C   0  0  0  0  0  0  0  0  0  0  0  0
    2.0133   -2.0240    1.6066 O   0  0  0  0  0  0  0  0  0  0  0  0
    0.8725    1.7228    2.3993 H   0  0  0  0  0  0  0  0  0  0  0  0
    1.9136    0.3700    2.8585 H   0  0  0  0  0  0  0  0  0  0  0  0
    2.3215    1.3590    1.4587 H   0  0  0  0  0  0  0  0  0  0  0  0
   -0.1802   -0.4078    1.6660 H   0  0  0  0  0  0  0  0  0  0  0  0
    0.8916   -1.7747   -0.1195 H   0  0  0  0  0  0  0  0  0  0  0  0
    2.3694   -0.8237    0.0404 H   0  0  0  0  0  0  0  0  0  0  0  0
    1.2767   -2.3974    2.0934 H   0  0  0  0  0  0  0  0  0  0  0  0
  1  2  1  0
  1  5  1  0
  1  6  1  0
  1  7  1  0
  2  3  1  0
  3  4  2  3
  4  8  1  0
  4  9  1  0
 10 11  1  0
 10 14  1  0
 10 15  1  0
 10 16  1  0
 11 12  1  0
 11 17  1  0
 12 13  1  0
 12 18  1  0
 12 19  1  0
 13 20  1  0
M  RAD  1  11   2
M  END
>  <reaction>  (6) 
rmg_rxn_15710

>  <mol_properties>  (6) 
{"0": {"label": "*3", "atom_type": "Cs"}, "1": {"label": "*4", "atom_type": "O2s"}, "4": {"label": "*2", "atom_type": "H0"}, "10": {"label": "*1", "atom_type": "Cs"}, "11": {"label": "*0", "atom_type": "Cs"}}

>  <type>  (6) 
unop_2

>  <geom_source>  (6) 
Heuristics

$$$$

     RDKit          3D

 20 18  0  0  0  0  0  0  0  0999 V2000
   -1.9774    1.3195   -0.9443 C   0  0  0  0  0  3  0  0  0  0  0  0
   -2.3341    0.0814   -0.5969 O   0  0  0  0  0  0  0  0  0  0  0  0
   -1.5382   -0.5250    0.3429 N   0  0  0  0  0  0  0  0  0  0  0  0
   -1.8836   -1.7041    0.6868 C   0  0  0  0  0  0  0  0  0  0  0  0
    1.0080   -0.7377   -0.7353 H   0  0  0  0  0  0  0  0  0  0  0  0
   -1.1398    1.8054   -0.4823 H   0  0  0  0  0  0  0  0  0  0  0  0
   -2.6164    1.7672   -1.6763 H   0  0  0  0  0  0  0  0  0  0  0  0
   -1.2649   -2.1876    1.4197 H   0  0  0  0  0  0  0  0  0  0  0  0
   -2.7457   -2.2238    0.2863 H   0  0  0  0  0  0  0  0  0  0  0  0
    3.1842   -0.8450   -0.9115 C   0  0  0  0  0  0  0  0  0  0  0  0
    1.8976   -0.1207   -0.5722 C   0  0  0  0  0  0  0  0  0  0  0  0
    1.8972    0.5018    0.8177 C   0  0  0  0  0  0  0  0  0  0  0  0
    0.7026    1.1764    1.1162 O   0  0  0  0  0  0  0  0  0  0  0  0
    4.0256   -0.1563   -0.8775 H   0  0  0  0  0  0  0  0  0  0  0  0
    3.3689   -1.6454   -0.1979 H   0  0  0  0  0  0  0  0  0  0  0  0
    3.1317   -1.2766   -1.9079 H   0  0  0  0  0  0  0  0  0  0  0  0
    1.5961    0.5802   -1.3243 H   0  0  0  0  0  0  0  0  0  0  0  0
    2.0963   -0.2807    1.5665 H   0  0  0  0  0  0  0  0  0  0  0  0
    2.6913    1.2508    0.8892 H   0  0  0  0  0  0  0  0  0  0  0  0
   -0.0321    0.5431    1.0365 H   0  0  0  0  0  0  0  0  0  0  0  0
  1  2  1  0
  1  6  1  0
  1  7  1  0
  2  3  1  0
  3  4  2  3
  4  8  1  0
  4  9  1  0
  5 11  1  0
 10 11  1  0
 10 14  1  0
 10 15  1  0
 10 16  1  0
 11 12  1  0
 11 17  1  0
 12 13  1  0
 12 18  1  0
 12 19  1  0
 13 20  1  0
M  RAD  1   1   2
M  END
>  <reaction>  (7) 
rmg_rxn_15710

>  <mol_properties>  (7) 
{"0": {"label": "*3", "atom_type": "Cs"}, "1": {"label": "*4", "atom_type": "O2s"}, "4": {"label": "*2", "atom_type": "H0"}, "10": {"label": "*1", "atom_type": "Cs"}, "11": {"label": "*0", "atom_type": "Cs"}}

>  <type>  (7) 
unop_3

>  <geom_source>  (7) 
Heuristics

$$$$

     RDKit          3D

 20 18  0  0  0  0  0  0  0  0999 V2000
   -0.3982   -1.5282   -0.7911 C   0  0  0  0  0  3  0  0  0  0  0  0
   -1.3797   -1.1473    0.1114 O   0  0  0  0  0  0  0  0  0  0  0  0
   -1.7994    0.1533   -0.0873 N   0  0  0  0  0  0  0  0  0  0  0  0
   -2.7369    0.5606    0.6568 C   0  0  0  0  0  0  0  0  0  0  0  0
    0.7331   -0.8627   -0.5204 H   0  0  0  0  0  0  0  0  0  0  0  0
   -0.6320   -1.2753   -1.8230 H   0  0  0  0  0  0  0  0  0  0  0  0
   -0.1998   -2.5812   -0.6313 H   0  0  0  0  0  0  0  0  0  0  0  0
   -3.0578    1.5759    0.5083 H   0  0  0  0  0  0  0  0  0  0  0  0
   -3.2191   -0.0458    1.4161 H   0  0  0  0  0  0  0  0  0  0  0  0
    2.6576   -0.9722    0.6815 C   0  0  0  0  0  0  0  0  0  0  0  0
    1.8103   -0.1589   -0.2627 C   0  0  0  0  0  0  0  0  0  0  0  0
    1.3366    1.1660    0.3009 C   0  0  0  0  0  0  0  0  0  0  0  0
    0.4955    1.8735   -0.5725 O   0  0  0  0  0  0  0  0  0  0  0  0
    2.1307   -1.1470    1.6178 H   0  0  0  0  0  0  0  0  0  0  0  0
    2.9109   -1.9331    0.2392 H   0  0  0  0  0  0  0  0  0  0  0  0
    3.5887   -0.4513    0.9132 H   0  0  0  0  0  0  0  0  0  0  0  0
    2.2701   -0.0309   -1.2412 H   0  0  0  0  0  0  0  0  0  0  0  0
    0.8437    1.0017    1.2721 H   0  0  0  0  0  0  0  0  0  0  0  0
    2.1986    1.8246    0.4720 H   0  0  0  0  0  0  0  0  0  0  0  0
   -0.3380    1.3813   -0.6645 H   0  0  0  0  0  0  0  0  0  0  0  0
  1  2  1  0
  1  6  1  0
  1  7  1  0
  2  3  1  0
  3  4  2  3
  4  8  1  0
  4  9  1  0
  5 11  1  0
 10 11  1  0
 10 14  1  0
 10 15  1  0
 10 16  1  0
 11 12  1  0
 11 17  1  0
 12 13  1  0
 12 18  1  0
 12 19  1  0
 13 20  1  0
M  RAD  1   1   2
M  END
>  <reaction>  (8) 
rmg_rxn_15710

>  <mol_properties>  (8) 
{"0": {"label": "*3", "atom_type": "Cs"}, "1": {"label": "*4", "atom_type": "O2s"}, "4": {"label": "*2", "atom_type": "H0"}, "10": {"label": "*1", "atom_type": "Cs"}, "11": {"label": "*0", "atom_type": "Cs"}}

>  <type>  (8) 
unop_4

>  <geom_source>  (8) 
Heuristics

$$$$

     RDKit          3D

 20 18  0  0  0  0  0  0  0  0999 V2000
   -1.3680    1.2884    0.2196 C   0  0  0  0  0  0  0  0  0  0  0  0
   -1.3680    1.3463   -1.1933 O   0  0  0  0  0  0  0  0  0  0  0  0
   -1.3680    0.0724   -1.7091 N   0  0  0  0  0  0  0  0  0  0  0  0
   -1.3680    0.0724   -2.9727 C   0  0  0  0  0  0  0  0  0  0  0  0
   -0.2974    0.6762    0.6637 H   0  0  0  0  0  0  0  0  0  0  0  0
   -2.2601    0.7782    0.5897 H   0  0  0  0  0  0  0  0  0  0  0  0
   -1.3680    2.3233    0.5574 H   0  0  0  0  0  0  0  0  0  0  0  0
   -1.3680   -0.8947   -3.4575 H   0  0  0  0  0  0  0  0  0  0  0  0
   -1.3680    0.9889   -3.5588 H   0  0  0  0  0  0  0  0  0  0  0  0
    1.9380    0.2745    0.1491 C   0  0  0  0  0  0  0  0  0  0  0  0
    0.7750    0.0630    1.1086 C   0  0  0  0  0  3  0  0  0  0  0  0
    0.7015   -1.3531    1.6604 C   0  0  0  0  0  0  0  0  0  0  0  0
    1.8514   -1.7273    2.3953 O   0  0  0  0  0  0  0  0  0  0  0  0
    1.9780    1.3065   -0.2026 H   0  0  0  0  0  0  0  0  0  0  0  0
    2.8872    0.0410    0.6321 H   0  0  0  0  0  0  0  0  0  0  0  0
    1.8427   -0.3747   -0.7244 H   0  0  0  0  0  0  0  0  0  0  0  0
    0.8480    0.7664    1.9461 H   0  0  0  0  0  0  0  0  0  0  0  0
   -0.2023   -1.4688    2.2717 H   0  0  0  0  0  0  0  0  0  0  0  0
    0.6344   -2.0700    0.8390 H   0  0  0  0  0  0  0  0  0  0  0  0
    1.9318   -1.1415    3.1498 H   0  0  0  0  0  0  0  0  0  0  0  0
  1  2  1  0
  1  5  1  0
  1  6  1  0
  1  7  1  0
  2  3  1  0
  3  4  2  3
  4  8  1  0
  4  9  1  0
 10 11  1  0
 10 14  1  0
 10 15  1  0
 10 16  1  0
 11 12  1  0
 11 17  1  0
 12 13  1  0
 12 18  1  0
 12 19  1  0
 13 20  1  0
M  RAD  1  11   2
M  END
>  <reaction>  (9) 
rmg_rxn_15710

>  <mol_properties>  (9) 
{"0": {"label": "*3", "atom_type": "Cs"}, "1": {"label": "*4", "atom_type": "O2s"}, "4": {"label": "*2", "atom_type": "H0"}, "10": {"label": "*1", "atom_type": "Cs"}, "11": {"label": "*0", "atom_type": "Cs"}}

>  <type>  (9) 
unop_5

>  <geom_source>  (9) 
Heuristics

$$$$

     RDKit          3D

 20 18  0  0  0  0  0  0  0  0999 V2000
   -0.3989   -1.5259   -0.7932 C   0  0  0  0  0  3  0  0  0  0  0  0
   -1.3808   -1.1468    0.1096 O   0  0  0  0  0  0  0  0  0  0  0  0
   -1.7995    0.1546   -0.0858 N   0  0  0  0  0  0  0  0  0  0  0  0
   -2.7377    0.5600    0.6585 C   0  0  0  0  0  0  0  0  0  0  0  0
    0.7329   -0.8620   -0.5206 H   0  0  0  0  0  0  0  0  0  0  0  0
   -0.6319   -1.2702   -1.8246 H   0  0  0  0  0  0  0  0  0  0  0  0
   -0.2013   -2.5795   -0.6361 H   0  0  0  0  0  0  0  0  0  0  0  0
   -3.0583    1.5758    0.5124 H   0  0  0  0  0  0  0  0  0  0  0  0
   -3.2211   -0.0487    1.4151 H   0  0  0  0  0  0  0  0  0  0  0  0
    2.6563   -0.9739    0.6835 C   0  0  0  0  0  0  0  0  0  0  0  0
    1.8110   -0.1599   -0.2621 C   0  0  0  0  0  0  0  0  0  0  0  0
    1.3391    1.1663    0.2999 C   0  0  0  0  0  0  0  0  0  0  0  0
    0.4965    1.8725   -0.5731 O   0  0  0  0  0  0  0  0  0  0  0  0
    2.9072   -1.9361    0.2428 H   0  0  0  0  0  0  0  0  0  0  0  0
    3.5886   -0.4549    0.9144 H   0  0  0  0  0  0  0  0  0  0  0  0
    2.1289   -1.1459    1.6200 H   0  0  0  0  0  0  0  0  0  0  0  0
    2.2718   -0.0338   -1.2404 H   0  0  0  0  0  0  0  0  0  0  0  0
    0.8482    1.0042    1.2725 H   0  0  0  0  0  0  0  0  0  0  0  0
    2.2018    1.8248    0.4678 H   0  0  0  0  0  0  0  0  0  0  0  0
   -0.3375    1.3806   -0.6625 H   0  0  0  0  0  0  0  0  0  0  0  0
  1  2  1  0
  1  6  1  0
  1  7  1  0
  2  3  1  0
  3  4  2  3
  4  8  1  0
  4  9  1  0
  5 11  1  0
 10 11  1  0
 10 14  1  0
 10 15  1  0
 10 16  1  0
 11 12  1  0
 11 17  1  0
 12 13  1  0
 12 18  1  0
 12 19  1  0
 13 20  1  0
M  RAD  1   1   2
M  END
>  <reaction>  (10) 
rmg_rxn_15710

>  <mol_properties>  (10) 
{"0": {"label": "*3", "atom_type": "Cs"}, "1": {"label": "*4", "atom_type": "O2s"}, "4": {"label": "*2", "atom_type": "H0"}, "10": {"label": "*1", "atom_type": "Cs"}, "11": {"label": "*0", "atom_type": "Cs"}}

>  <type>  (10) 
unop_6

>  <geom_source>  (10) 
Heuristics

$$$$

     RDKit          3D

 20 18  0  0  0  0  0  0  0  0999 V2000
   -1.5328    1.1094    0.3030 C   0  0  0  0  0  0  0  0  0  0  0  0
   -1.5328    1.1673   -1.1099 O   0  0  0  0  0  0  0  0  0  0  0  0
   -1.5328   -0.1065   -1.6256 N   0  0  0  0  0  0  0  0  0  0  0  0
   -1.5328   -0.1065   -2.8893 C   0  0  0  0  0  0  0  0  0  0  0  0
   -0.4622    0.4973    0.7471 H   0  0  0  0  0  0  0  0  0  0  0  0
   -2.4249    0.5992    0.6731 H   0  0  0  0  0  0  0  0  0  0  0  0
   -1.5328    2.1443    0.6408 H   0  0  0  0  0  0  0  0  0  0  0  0
   -1.5328   -1.0736   -3.3741 H   0  0  0  0  0  0  0  0  0  0  0  0
   -1.5328    0.8099   -3.4754 H   0  0  0  0  0  0  0  0  0  0  0  0
    0.9991    0.4297    2.5591 C   0  0  0  0  0  0  0  0  0  0  0  0
    0.6102   -0.1160    1.1920 C   0  0  0  0  0  3  0  0  0  0  0  0
    1.8009   -0.6003    0.3777 C   0  0  0  0  0  0  0  0  0  0  0  0
    2.5129   -1.6530    0.9998 O   0  0  0  0  0  0  0  0  0  0  0  0
    0.1200    0.7389    3.1262 H   0  0  0  0  0  0  0  0  0  0  0  0
    1.5333   -0.3228    3.1398 H   0  0  0  0  0  0  0  0  0  0  0  0
    1.6557    1.2969    2.4577 H   0  0  0  0  0  0  0  0  0  0  0  0
   -0.1002   -0.9428    1.3072 H   0  0  0  0  0  0  0  0  0  0  0  0
    1.4705   -0.8972   -0.6257 H   0  0  0  0  0  0  0  0  0  0  0  0
    2.5239    0.2095    0.2572 H   0  0  0  0  0  0  0  0  0  0  0  0
    1.9223   -2.4018    1.0963 H   0  0  0  0  0  0  0  0  0  0  0  0
  1  2  1  0
  1  5  1  0
  1  6  1  0
  1  7  1  0
  2  3  1  0
  3  4  2  3
  4  8  1  0
  4  9  1  0
 10 11  1  0
 10 14  1  0
 10 15  1  0
 10 16  1  0
 11 12  1  0
 11 17  1  0
 12 13  1  0
 12 18  1  0
 12 19  1  0
 13 20  1  0
M  RAD  1  11   2
M  END
>  <reaction>  (11) 
rmg_rxn_15710

>  <mol_properties>  (11) 
{"0": {"label": "*3", "atom_type": "Cs"}, "1": {"label": "*4", "atom_type": "O2s"}, "4": {"label": "*2", "atom_type": "H0"}, "10": {"label": "*1", "atom_type": "Cs"}, "11": {"label": "*0", "atom_type": "Cs"}}

>  <type>  (11) 
unop_7

>  <geom_source>  (11) 
Heuristics

$$$$

     RDKit          3D

 20 18  0  0  0  0  0  0  0  0999 V2000
   -0.9753    1.1523   -0.0753 C   0  0  0  0  0  0  0  0  0  0  0  0
   -0.9753    1.2102   -1.4881 O   0  0  0  0  0  0  0  0  0  0  0  0
   -0.9753   -0.0637   -2.0039 N   0  0  0  0  0  0  0  0  0  0  0  0
   -0.9753   -0.0637   -3.2675 C   0  0  0  0  0  0  0  0  0  0  0  0
    0.0953    0.5401    0.3689 H   0  0  0  0  0  0  0  0  0  0  0  0
   -1.8674    0.6421    0.2949 H   0  0  0  0  0  0  0  0  0  0  0  0
   -0.9753    2.1872    0.2626 H   0  0  0  0  0  0  0  0  0  0  0  0
   -0.9753   -1.0307   -3.7523 H   0  0  0  0  0  0  0  0  0  0  0  0
   -0.9753    0.8528   -3.8536 H   0  0  0  0  0  0  0  0  0  0  0  0
    1.2209   -1.4965    0.2760 C   0  0  0  0  0  0  0  0  0  0  0  0
    1.1678   -0.0731    0.8138 C   0  0  0  0  0  3  0  0  0  0  0  0
    0.4218    0.0424    2.1349 C   0  0  0  0  0  0  0  0  0  0  0  0
    1.0066   -0.7173    3.1756 O   0  0  0  0  0  0  0  0  0  0  0  0
    1.7879   -1.5469   -0.6546 H   0  0  0  0  0  0  0  0  0  0  0  0
    1.6882   -2.1669    0.9978 H   0  0  0  0  0  0  0  0  0  0  0  0
    0.2149   -1.8734    0.0774 H   0  0  0  0  0  0  0  0  0  0  0  0
    2.1842    0.3155    0.9455 H   0  0  0  0  0  0  0  0  0  0  0  0
    0.3396    1.0973    2.4258 H   0  0  0  0  0  0  0  0  0  0  0  0
   -0.5930   -0.3461    2.0249 H   0  0  0  0  0  0  0  0  0  0  0  0
    1.8930   -0.3868    3.3299 H   0  0  0  0  0  0  0  0  0  0  0  0
  1  2  1  0
  1  5  1  0
  1  6  1  0
  1  7  1  0
  2  3  1  0
  3  4  2  3
  4  8  1  0
  4  9  1  0
 10 11  1  0
 10 14  1  0
 10 15  1  0
 10 16  1  0
 11 12  1  0
 11 17  1  0
 12 13  1  0
 12 18  1  0
 12 19  1  0
 13 20  1  0
M  RAD  1  11   2
M  END
>  <reaction>  (12) 
rmg_rxn_15710

>  <mol_properties>  (12) 
{"0": {"label": "*3", "atom_type": "Cs"}, "1": {"label": "*4", "atom_type": "O2s"}, "4": {"label": "*2", "atom_type": "H0"}, "10": {"label": "*1", "atom_type": "Cs"}, "11": {"label": "*0", "atom_type": "Cs"}}

>  <type>  (12) 
unop_8

>  <geom_source>  (12) 
Heuristics

$$$$

     RDKit          3D

 20 18  0  0  0  0  0  0  0  0999 V2000
    1.9825   -1.3134   -0.9494 C   0  0  0  0  0  3  0  0  0  0  0  0
    2.3299   -0.0733   -0.5995 O   0  0  0  0  0  0  0  0  0  0  0  0
    1.5351    0.5213    0.3487 N   0  0  0  0  0  0  0  0  0  0  0  0
    1.8726    1.7013    0.6972 C   0  0  0  0  0  0  0  0  0  0  0  0
   -1.0006    0.7328   -0.7360 H   0  0  0  0  0  0  0  0  0  0  0  0
    1.1520   -1.8085   -0.4844 H   0  0  0  0  0  0  0  0  0  0  0  0
    2.6171   -1.7503   -1.6915 H   0  0  0  0  0  0  0  0  0  0  0  0
    1.2549    2.1748    1.4374 H   0  0  0  0  0  0  0  0  0  0  0  0
    2.7278    2.2306    0.2946 H   0  0  0  0  0  0  0  0  0  0  0  0
   -3.1759    0.8507   -0.9117 C   0  0  0  0  0  0  0  0  0  0  0  0
   -1.8929    0.1193   -0.5740 C   0  0  0  0  0  0  0  0  0  0  0  0
   -1.8952   -0.5046    0.8153 C   0  0  0  0  0  0  0  0  0  0  0  0
   -0.7040   -1.1856    1.1129 O   0  0  0  0  0  0  0  0  0  0  0  0
   -3.1219    1.2831   -1.9076 H   0  0  0  0  0  0  0  0  0  0  0  0
   -4.0210    0.1664   -0.8779 H   0  0  0  0  0  0  0  0  0  0  0  0
   -3.3560    1.6513   -0.1971 H   0  0  0  0  0  0  0  0  0  0  0  0
   -1.5964   -0.5831   -1.3268 H   0  0  0  0  0  0  0  0  0  0  0  0
   -2.0900    0.2782    1.5650 H   0  0  0  0  0  0  0  0  0  0  0  0
   -2.6931   -1.2495    0.8863 H   0  0  0  0  0  0  0  0  0  0  0  0
    0.0336   -0.5553    1.0354 H   0  0  0  0  0  0  0  0  0  0  0  0
  1  2  1  0
  1  6  1  0
  1  7  1  0
  2  3  1  0
  3  4  2  3
  4  8  1  0
  4  9  1  0
  5 11  1  0
 10 11  1  0
 10 14  1  0
 10 15  1  0
 10 16  1  0
 11 12  1  0
 11 17  1  0
 12 13  1  0
 12 18  1  0
 12 19  1  0
 13 20  1  0
M  RAD  1   1   2
M  END
>  <reaction>  (13) 
rmg_rxn_15710

>  <mol_properties>  (13) 
{"0": {"label": "*3", "atom_type": "Cs"}, "1": {"label": "*4", "atom_type": "O2s"}, "4": {"label": "*2", "atom_type": "H0"}, "10": {"label": "*1", "atom_type": "Cs"}, "11": {"label": "*0", "atom_type": "Cs"}}

>  <type>  (13) 
unop_9

>  <geom_source>  (13) 
Heuristics

$$$$

     RDKit          3D

 20 18  0  0  0  0  0  0  0  0999 V2000
   -1.5671    0.8104    0.2591 C   0  0  0  0  0  0  0  0  0  0  0  0
   -1.5671    0.8683   -1.1537 O   0  0  0  0  0  0  0  0  0  0  0  0
   -1.5671   -0.4056   -1.6695 N   0  0  0  0  0  0  0  0  0  0  0  0
   -1.5671   -0.4056   -2.9331 C   0  0  0  0  0  0  0  0  0  0  0  0
   -0.4965    0.1982    0.7033 H   0  0  0  0  0  0  0  0  0  0  0  0
   -2.4592    0.3002    0.6293 H   0  0  0  0  0  0  0  0  0  0  0  0
   -1.5671    1.8453    0.5969 H   0  0  0  0  0  0  0  0  0  0  0  0
   -1.5671   -1.3727   -3.4179 H   0  0  0  0  0  0  0  0  0  0  0  0
   -1.5671    0.5109   -3.5193 H   0  0  0  0  0  0  0  0  0  0  0  0
    0.5586   -0.4678    2.6696 C   0  0  0  0  0  0  0  0  0  0  0  0
    0.5760   -0.4151    1.1481 C   0  0  0  0  0  3  0  0  0  0  0  0
    1.7971    0.2974    0.5857 C   0  0  0  0  0  0  0  0  0  0  0  0
    3.0189   -0.3213    0.9416 O   0  0  0  0  0  0  0  0  0  0  0  0
   -0.3133   -1.0110    3.0367 H   0  0  0  0  0  0  0  0  0  0  0  0
    1.4536   -0.9601    3.0512 H   0  0  0  0  0  0  0  0  0  0  0  0
    0.5294    0.5393    3.0919 H   0  0  0  0  0  0  0  0  0  0  0  0
    0.5381   -1.4309    0.7379 H   0  0  0  0  0  0  0  0  0  0  0  0
    1.7101    0.3822   -0.5049 H   0  0  0  0  0  0  0  0  0  0  0  0
    1.8554    1.3111    0.9884 H   0  0  0  0  0  0  0  0  0  0  0  0
    3.0258   -1.2082    0.5781 H   0  0  0  0  0  0  0  0  0  0  0  0
  1  2  1  0
  1  5  1  0
  1  6  1  0
  1  7  1  0
  2  3  1  0
  3  4  2  3
  4  8  1  0
  4  9  1  0
 10 11  1  0
 10 14  1  0
 10 15  1  0
 10 16  1  0
 11 12  1  0
 11 17  1  0
 12 13  1  0
 12 18  1  0
 12 19  1  0
 13 20  1  0
M  RAD  1  11   2
M  END
>  <reaction>  (14) 
rmg_rxn_15710

>  <mol_properties>  (14) 
{"0": {"label": "*3", "atom_type": "Cs"}, "1": {"label": "*4", "atom_type": "O2s"}, "4": {"label": "*2", "atom_type": "H0"}, "10": {"label": "*1", "atom_type": "Cs"}, "11": {"label": "*0", "atom_type": "Cs"}}

>  <type>  (14) 
unop_10

>  <geom_source>  (14) 
Heuristics

$$$$

     RDKit          3D

 20 18  0  0  0  0  0  0  0  0999 V2000
   -0.3999    1.5222    0.8008 C   0  0  0  0  0  3  0  0  0  0  0  0
   -1.3803    1.1466   -0.1050 O   0  0  0  0  0  0  0  0  0  0  0  0
   -1.7981   -0.1561    0.0835 N   0  0  0  0  0  0  0  0  0  0  0  0
   -2.7326   -0.5599   -0.6664 C   0  0  0  0  0  0  0  0  0  0  0  0
    0.7329    0.8615    0.5245 H   0  0  0  0  0  0  0  0  0  0  0  0
   -0.6332    1.2598    1.8305 H   0  0  0  0  0  0  0  0  0  0  0  0
   -0.2040    2.5770    0.6502 H   0  0  0  0  0  0  0  0  0  0  0  0
   -3.0523   -1.5767   -0.5258 H   0  0  0  0  0  0  0  0  0  0  0  0
   -3.2136    0.0510   -1.4227 H   0  0  0  0  0  0  0  0  0  0  0  0
    2.6494    0.9765   -0.6903 C   0  0  0  0  0  0  0  0  0  0  0  0
    1.8109    0.1614    0.2602 C   0  0  0  0  0  0  0  0  0  0  0  0
    1.3378   -1.1657   -0.2989 C   0  0  0  0  0  0  0  0  0  0  0  0
    0.4989   -1.8717    0.5778 O   0  0  0  0  0  0  0  0  0  0  0  0
    2.9036    1.9382   -0.2504 H   0  0  0  0  0  0  0  0  0  0  0  0
    3.5799    0.4576   -0.9288 H   0  0  0  0  0  0  0  0  0  0  0  0
    2.1152    1.1496   -1.6228 H   0  0  0  0  0  0  0  0  0  0  0  0
    2.2772    0.0363    1.2360 H   0  0  0  0  0  0  0  0  0  0  0  0
    0.8432   -1.0048   -1.2698 H   0  0  0  0  0  0  0  0  0  0  0  0
    2.2004   -1.8237   -0.4694 H   0  0  0  0  0  0  0  0  0  0  0  0
   -0.3361   -1.3816    0.6673 H   0  0  0  0  0  0  0  0  0  0  0  0
  1  2  1  0
  1  6  1  0
  1  7  1  0
  2  3  1  0
  3  4  2  3
  4  8  1  0
  4  9  1  0
  5 11  1  0
 10 11  1  0
 10 14  1  0
 10 15  1  0
 10 16  1  0
 11 12  1  0
 11 17  1  0
 12 13  1  0
 12 18  1  0
 12 19  1  0
 13 20  1  0
M  RAD  1   1   2
M  END
>  <reaction>  (15) 
rmg_rxn_15710

>  <mol_properties>  (15) 
{"0": {"label": "*3", "atom_type": "Cs"}, "1": {"label": "*4", "atom_type": "O2s"}, "4": {"label": "*2", "atom_type": "H0"}, "10": {"label": "*1", "atom_type": "Cs"}, "11": {"label": "*0", "atom_type": "Cs"}}

>  <type>  (15) 
unop_11

>  <geom_source>  (15) 
Heuristics

$$$$

     RDKit          3D

 20 18  0  0  0  0  0  0  0  0999 V2000
   -1.0013    0.9267   -0.1501 C   0  0  0  0  0  0  0  0  0  0  0  0
   -1.0014    0.9847   -1.5629 O   0  0  0  0  0  0  0  0  0  0  0  0
   -1.0014   -0.2892   -2.0787 N   0  0  0  0  0  0  0  0  0  0  0  0
   -1.0014   -0.2892   -3.3423 C   0  0  0  0  0  0  0  0  0  0  0  0
    0.0692    0.3146    0.2941 H   0  0  0  0  0  0  0  0  0  0  0  0
   -1.8935    0.4165    0.2201 H   0  0  0  0  0  0  0  0  0  0  0  0
   -1.0014    1.9616    0.1877 H   0  0  0  0  0  0  0  0  0  0  0  0
   -1.0014   -1.2563   -3.8271 H   0  0  0  0  0  0  0  0  0  0  0  0
   -1.0014    0.6273   -3.9285 H   0  0  0  0  0  0  0  0  0  0  0  0
    0.8785   -1.7928    0.8660 C   0  0  0  0  0  0  0  0  0  0  0  0
    1.1417   -0.2987    0.7389 C   0  0  0  0  0  3  0  0  0  0  0  0
    0.6359    0.5036    1.9287 C   0  0  0  0  0  0  0  0  0  0  0  0
    1.2409    0.1311    3.1524 O   0  0  0  0  0  0  0  0  0  0  0  0
    1.2805   -2.3393    0.0116 H   0  0  0  0  0  0  0  0  0  0  0  0
    1.3350   -2.1917    1.7723 H   0  0  0  0  0  0  0  0  0  0  0  0
   -0.1939   -1.9942    0.9194 H   0  0  0  0  0  0  0  0  0  0  0  0
    2.2160   -0.1166    0.6196 H   0  0  0  0  0  0  0  0  0  0  0  0
    0.7726    1.5760    1.7408 H   0  0  0  0  0  0  0  0  0  0  0  0
   -0.4335    0.3301    2.0675 H   0  0  0  0  0  0  0  0  0  0  0  0
    2.1825    0.2987    3.0874 H   0  0  0  0  0  0  0  0  0  0  0  0
  1  2  1  0
  1  5  1  0
  1  6  1  0
  1  7  1  0
  2  3  1  0
  3  4  2  3
  4  8  1  0
  4  9  1  0
 10 11  1  0
 10 14  1  0
 10 15  1  0
 10 16  1  0
 11 12  1  0
 11 17  1  0
 12 13  1  0
 12 18  1  0
 12 19  1  0
 13 20  1  0
M  RAD  1  11   2
M  END
>  <reaction>  (16) 
rmg_rxn_15710

>  <mol_properties>  (16) 
{"0": {"label": "*3", "atom_type": "Cs"}, "1": {"label": "*4", "atom_type": "O2s"}, "4": {"label": "*2", "atom_type": "H0"}, "10": {"label": "*1", "atom_type": "Cs"}, "11": {"label": "*0", "atom_type": "Cs"}}

>  <type>  (16) 
unop_12

>  <geom_source>  (16) 
Heuristics

$$$$

     RDKit          3D

 20 18  0  0  0  0  0  0  0  0999 V2000
   -1.1354    0.7119   -0.1182 C   0  0  0  0  0  0  0  0  0  0  0  0
   -1.1354    0.7699   -1.5311 O   0  0  0  0  0  0  0  0  0  0  0  0
   -1.1354   -0.5040   -2.0469 N   0  0  0  0  0  0  0  0  0  0  0  0
   -1.1354   -0.5040   -3.3105 C   0  0  0  0  0  0  0  0  0  0  0  0
   -0.0648    0.0998    0.3259 H   0  0  0  0  0  0  0  0  0  0  0  0
   -2.0275    0.2017    0.2519 H   0  0  0  0  0  0  0  0  0  0  0  0
   -1.1354    1.7468    0.2196 H   0  0  0  0  0  0  0  0  0  0  0  0
   -1.1354   -1.4711   -3.7953 H   0  0  0  0  0  0  0  0  0  0  0  0
   -1.1354    0.4125   -3.8966 H   0  0  0  0  0  0  0  0  0  0  0  0
    0.6138   -1.7439    1.5763 C   0  0  0  0  0  0  0  0  0  0  0  0
    1.0076   -0.5135    0.7708 C   0  0  0  0  0  3  0  0  0  0  0  0
    0.9366    0.7776    1.5728 C   0  0  0  0  0  0  0  0  0  0  0  0
    1.7985    0.7870    2.6950 O   0  0  0  0  0  0  0  0  0  0  0  0
    0.7054   -2.6530    0.9802 H   0  0  0  0  0  0  0  0  0  0  0  0
    1.2457   -1.8488    2.4587 H   0  0  0  0  0  0  0  0  0  0  0  0
   -0.4212   -1.6687    1.9175 H   0  0  0  0  0  0  0  0  0  0  0  0
    2.0247   -0.6320    0.3793 H   0  0  0  0  0  0  0  0  0  0  0  0
    1.1435    1.6345    0.9194 H   0  0  0  0  0  0  0  0  0  0  0  0
   -0.0695    0.9103    1.9767 H   0  0  0  0  0  0  0  0  0  0  0  0
    2.7014    0.7057    2.3834 H   0  0  0  0  0  0  0  0  0  0  0  0
  1  2  1  0
  1  5  1  0
  1  6  1  0
  1  7  1  0
  2  3  1  0
  3  4  2  3
  4  8  1  0
  4  9  1  0
 10 11  1  0
 10 14  1  0
 10 15  1  0
 10 16  1  0
 11 12  1  0
 11 17  1  0
 12 13  1  0
 12 18  1  0
 12 19  1  0
 13 20  1  0
M  RAD  1  11   2
M  END
>  <reaction>  (17) 
rmg_rxn_15710

>  <mol_properties>  (17) 
{"0": {"label": "*3", "atom_type": "Cs"}, "1": {"label": "*4", "atom_type": "O2s"}, "4": {"label": "*2", "atom_type": "H0"}, "10": {"label": "*1", "atom_type": "Cs"}, "11": {"label": "*0", "atom_type": "Cs"}}

>  <type>  (17) 
unop_13

>  <geom_source>  (17) 
Heuristics

$$$$

     RDKit          3D

 20 18  0  0  0  0  0  0  0  0999 V2000
   -0.3993   -1.5249   -0.7969 C   0  0  0  0  0  3  0  0  0  0  0  0
   -1.3803   -1.1472    0.1074 O   0  0  0  0  0  0  0  0  0  0  0  0
   -1.7980    0.1550   -0.0847 N   0  0  0  0  0  0  0  0  0  0  0  0
   -2.7335    0.5606    0.6629 C   0  0  0  0  0  0  0  0  0  0  0  0
    0.7329   -0.8624   -0.5227 H   0  0  0  0  0  0  0  0  0  0  0  0
   -0.6325   -1.2663   -1.8276 H   0  0  0  0  0  0  0  0  0  0  0  0
   -0.2026   -2.5791   -0.6426 H   0  0  0  0  0  0  0  0  0  0  0  0
   -3.0532    1.5770    0.5192 H   0  0  0  0  0  0  0  0  0  0  0  0
   -3.2154   -0.0483    1.4202 H   0  0  0  0  0  0  0  0  0  0  0  0
    2.6528   -0.9743    0.6870 C   0  0  0  0  0  0  0  0  0  0  0  0
    1.8104   -0.1605   -0.2611 C   0  0  0  0  0  0  0  0  0  0  0  0
    1.3368    1.1658    0.2995 C   0  0  0  0  0  0  0  0  0  0  0  0
    0.4973    1.8723   -0.5762 O   0  0  0  0  0  0  0  0  0  0  0  0
    2.1224   -1.1467    1.6218 H   0  0  0  0  0  0  0  0  0  0  0  0
    2.9055   -1.9364    0.2470 H   0  0  0  0  0  0  0  0  0  0  0  0
    3.5842   -0.4550    0.9212 H   0  0  0  0  0  0  0  0  0  0  0  0
    2.2740   -0.0343   -1.2381 H   0  0  0  0  0  0  0  0  0  0  0  0
    0.8425    1.0036    1.2704 H   0  0  0  0  0  0  0  0  0  0  0  0
    2.1991    1.8241    0.4706 H   0  0  0  0  0  0  0  0  0  0  0  0
   -0.3372    1.3814   -0.6666 H   0  0  0  0  0  0  0  0  0  0  0  0
  1  2  1  0
  1  6  1  0
  1  7  1  0
  2  3  1  0
  3  4  2  3
  4  8  1  0
  4  9  1  0
  5 11  1  0
 10 11  1  0
 10 14  1  0
 10 15  1  0
 10 16  1  0
 11 12  1  0
 11 17  1  0
 12 13  1  0
 12 18  1  0
 12 19  1  0
 13 20  1  0
M  RAD  1   1   2
M  END
>  <reaction>  (18) 
rmg_rxn_15710

>  <mol_properties>  (18) 
{"0": {"label": "*3", "atom_type": "Cs"}, "1": {"label": "*4", "atom_type": "O2s"}, "4": {"label": "*2", "atom_type": "H0"}, "10": {"label": "*1", "atom_type": "Cs"}, "11": {"label": "*0", "atom_type": "Cs"}}

>  <type>  (18) 
unop_14

>  <geom_source>  (18) 
Heuristics

$$$$

     RDKit          3D

 20 18  0  0  0  0  0  0  0  0999 V2000
   -1.4375    1.2100    0.1869 C   0  0  0  0  0  0  0  0  0  0  0  0
   -1.4375    1.2679   -1.2260 O   0  0  0  0  0  0  0  0  0  0  0  0
   -1.4375   -0.0060   -1.7417 N   0  0  0  0  0  0  0  0  0  0  0  0
   -1.4375   -0.0060   -3.0053 C   0  0  0  0  0  0  0  0  0  0  0  0
   -0.3669    0.5978    0.6310 H   0  0  0  0  0  0  0  0  0  0  0  0
   -2.3296    0.6998    0.5570 H   0  0  0  0  0  0  0  0  0  0  0  0
   -1.4375    2.2448    0.5247 H   0  0  0  0  0  0  0  0  0  0  0  0
   -1.4375   -0.9731   -3.4902 H   0  0  0  0  0  0  0  0  0  0  0  0
   -1.4375    0.9105   -3.5915 H   0  0  0  0  0  0  0  0  0  0  0  0
    1.8278    0.9874    1.3053 C   0  0  0  0  0  0  0  0  0  0  0  0
    0.7056   -0.0155    1.0759 C   0  0  0  0  0  3  0  0  0  0  0  0
    1.1984   -1.4491    0.9460 C   0  0  0  0  0  0  0  0  0  0  0  0
    1.8722   -1.9156    2.0995 O   0  0  0  0  0  0  0  0  0  0  0  0
    1.4364    1.9988    1.4239 H   0  0  0  0  0  0  0  0  0  0  0  0
    2.3978    0.7344    2.1998 H   0  0  0  0  0  0  0  0  0  0  0  0
    2.5215    0.9924    0.4614 H   0  0  0  0  0  0  0  0  0  0  0  0
   -0.0177    0.0376    1.8979 H   0  0  0  0  0  0  0  0  0  0  0  0
    0.3598   -2.1105    0.6944 H   0  0  0  0  0  0  0  0  0  0  0  0
    1.9259   -1.5208    0.1344 H   0  0  0  0  0  0  0  0  0  0  0  0
    1.2577   -1.9012    2.8351 H   0  0  0  0  0  0  0  0  0  0  0  0
  1  2  1  0
  1  5  1  0
  1  6  1  0
  1  7  1  0
  2  3  1  0
  3  4  2  3
  4  8  1  0
  4  9  1  0
 10 11  1  0
 10 14  1  0
 10 15  1  0
 10 16  1  0
 11 12  1  0
 11 17  1  0
 12 13  1  0
 12 18  1  0
 12 19  1  0
 13 20  1  0
M  RAD  1  11   2
M  END
>  <reaction>  (19) 
rmg_rxn_15710

>  <mol_properties>  (19) 
{"0": {"label": "*3", "atom_type": "Cs"}, "1": {"label": "*4", "atom_type": "O2s"}, "4": {"label": "*2", "atom_type": "H0"}, "10": {"label": "*1", "atom_type": "Cs"}, "11": {"label": "*0", "atom_type": "Cs"}}

>  <type>  (19) 
unop_15

>  <geom_source>  (19) 
Heuristics

$$$$

     RDKit          3D

 20 18  0  0  0  0  0  0  0  0999 V2000
   -0.3997    1.5249    0.7958 C   0  0  0  0  0  3  0  0  0  0  0  0
   -1.3813    1.1470   -0.1078 O   0  0  0  0  0  0  0  0  0  0  0  0
   -1.7984   -0.1554    0.0846 N   0  0  0  0  0  0  0  0  0  0  0  0
   -2.7354   -0.5607   -0.6613 C   0  0  0  0  0  0  0  0  0  0  0  0
    0.7324    0.8622    0.5216 H   0  0  0  0  0  0  0  0  0  0  0  0
   -0.6325    1.2667    1.8267 H   0  0  0  0  0  0  0  0  0  0  0  0
   -0.2029    2.5790    0.6411 H   0  0  0  0  0  0  0  0  0  0  0  0
   -3.0546   -1.5772   -0.5175 H   0  0  0  0  0  0  0  0  0  0  0  0
   -3.2190    0.0486   -1.4172 H   0  0  0  0  0  0  0  0  0  0  0  0
    2.6536    0.9751   -0.6859 C   0  0  0  0  0  0  0  0  0  0  0  0
    1.8106    0.1608    0.2613 C   0  0  0  0  0  0  0  0  0  0  0  0
    1.3387   -1.1660   -0.2995 C   0  0  0  0  0  0  0  0  0  0  0  0
    0.4980   -1.8725    0.5751 O   0  0  0  0  0  0  0  0  0  0  0  0
    3.5860    0.4568   -0.9182 H   0  0  0  0  0  0  0  0  0  0  0  0
    2.1246    1.1462   -1.6217 H   0  0  0  0  0  0  0  0  0  0  0  0
    2.9045    1.9378   -0.2461 H   0  0  0  0  0  0  0  0  0  0  0  0
    2.2730    0.0353    1.2389 H   0  0  0  0  0  0  0  0  0  0  0  0
    0.8461   -1.0046   -1.2714 H   0  0  0  0  0  0  0  0  0  0  0  0
    2.2016   -1.8239   -0.4686 H   0  0  0  0  0  0  0  0  0  0  0  0
   -0.3364   -1.3814    0.6649 H   0  0  0  0  0  0  0  0  0  0  0  0
  1  2  1  0
  1  6  1  0
  1  7  1  0
  2  3  1  0
  3  4  2  3
  4  8  1  0
  4  9  1  0
  5 11  1  0
 10 11  1  0
 10 14  1  0
 10 15  1  0
 10 16  1  0
 11 12  1  0
 11 17  1  0
 12 13  1  0
 12 18  1  0
 12 19  1  0
 13 20  1  0
M  RAD  1   1   2
M  END
>  <reaction>  (20) 
rmg_rxn_15710

>  <mol_properties>  (20) 
{"0": {"label": "*3", "atom_type": "Cs"}, "1": {"label": "*4", "atom_type": "O2s"}, "4": {"label": "*2", "atom_type": "H0"}, "10": {"label": "*1", "atom_type": "Cs"}, "11": {"label": "*0", "atom_type": "Cs"}}

>  <type>  (20) 
unop_16

>  <geom_source>  (20) 
Heuristics

$$$$

     RDKit          3D

 20 18  0  0  0  0  0  0  0  0999 V2000
   -1.0630    1.3115    0.0602 C   0  0  0  0  0  0  0  0  0  0  0  0
   -1.0630    1.3694   -1.3526 O   0  0  0  0  0  0  0  0  0  0  0  0
   -1.0630    0.0955   -1.8684 N   0  0  0  0  0  0  0  0  0  0  0  0
   -1.0630    0.0955   -3.1320 C   0  0  0  0  0  0  0  0  0  0  0  0
    0.0076    0.6993    0.5044 H   0  0  0  0  0  0  0  0  0  0  0  0
   -1.9551    0.8013    0.4304 H   0  0  0  0  0  0  0  0  0  0  0  0
   -1.0630    2.3464    0.3981 H   0  0  0  0  0  0  0  0  0  0  0  0
   -1.0630   -0.8716   -3.6168 H   0  0  0  0  0  0  0  0  0  0  0  0
   -1.0630    1.0120   -3.7181 H   0  0  0  0  0  0  0  0  0  0  0  0
    1.5503   -0.9509   -0.0614 C   0  0  0  0  0  0  0  0  0  0  0  0
    1.0800    0.0860    0.9493 C   0  0  0  0  0  3  0  0  0  0  0  0
    0.3520   -0.5218    2.1391 C   0  0  0  0  0  0  0  0  0  0  0  0
    1.1520   -1.4194    2.8852 O   0  0  0  0  0  0  0  0  0  0  0  0
    2.0935   -0.4836   -0.8840 H   0  0  0  0  0  0  0  0  0  0  0  0
    2.2071   -1.6825    0.4101 H   0  0  0  0  0  0  0  0  0  0  0  0
    0.7011   -1.4927   -0.4843 H   0  0  0  0  0  0  0  0  0  0  0  0
    1.9349    0.6664    1.3155 H   0  0  0  0  0  0  0  0  0  0  0  0
   -0.0388    0.2752    2.7841 H   0  0  0  0  0  0  0  0  0  0  0  0
   -0.5009   -1.1099    1.7931 H   0  0  0  0  0  0  0  0  0  0  0  0
    1.9005   -0.9356    3.2381 H   0  0  0  0  0  0  0  0  0  0  0  0
  1  2  1  0
  1  5  1  0
  1  6  1  0
  1  7  1  0
  2  3  1  0
  3  4  2  3
  4  8  1  0
  4  9  1  0
 10 11  1  0
 10 14  1  0
 10 15  1  0
 10 16  1  0
 11 12  1  0
 11 17  1  0
 12 13  1  0
 12 18  1  0
 12 19  1  0
 13 20  1  0
M  RAD  1  11   2
M  END
>  <reaction>  (21) 
rmg_rxn_15710

>  <mol_properties>  (21) 
{"0": {"label": "*3", "atom_type": "Cs"}, "1": {"label": "*4", "atom_type": "O2s"}, "4": {"label": "*2", "atom_type": "H0"}, "10": {"label": "*1", "atom_type": "Cs"}, "11": {"label": "*0", "atom_type": "Cs"}}

>  <type>  (21) 
unop_17

>  <geom_source>  (21) 
Heuristics

$$$$

     RDKit          3D

 20 18  0  0  0  0  0  0  0  0999 V2000
   -1.4285    1.2258    0.1987 C   0  0  0  0  0  0  0  0  0  0  0  0
   -1.4286    1.2837   -1.2142 O   0  0  0  0  0  0  0  0  0  0  0  0
   -1.4286    0.0098   -1.7299 N   0  0  0  0  0  0  0  0  0  0  0  0
   -1.4286    0.0098   -2.9935 C   0  0  0  0  0  0  0  0  0  0  0  0
   -0.3579    0.6136    0.6428 H   0  0  0  0  0  0  0  0  0  0  0  0
   -2.3207    0.7156    0.5688 H   0  0  0  0  0  0  0  0  0  0  0  0
   -1.4286    2.2607    0.5365 H   0  0  0  0  0  0  0  0  0  0  0  0
   -1.4286   -0.9573   -3.4784 H   0  0  0  0  0  0  0  0  0  0  0  0
   -1.4286    0.9263   -3.5797 H   0  0  0  0  0  0  0  0  0  0  0  0
    1.9674    0.7395    0.6386 C   0  0  0  0  0  0  0  0  0  0  0  0
    0.7145    0.0003    1.0877 C   0  0  0  0  0  3  0  0  0  0  0  0
    0.9447   -1.4856    1.3206 C   0  0  0  0  0  0  0  0  0  0  0  0
    1.9037   -1.7521    2.3263 O   0  0  0  0  0  0  0  0  0  0  0  0
    1.7734    1.8054    0.5108 H   0  0  0  0  0  0  0  0  0  0  0  0
    2.7693    0.6231    1.3682 H   0  0  0  0  0  0  0  0  0  0  0  0
    2.3281    0.3469   -0.3149 H   0  0  0  0  0  0  0  0  0  0  0  0
    0.3263    0.4477    2.0101 H   0  0  0  0  0  0  0  0  0  0  0  0
   -0.0074   -1.9784    1.5542 H   0  0  0  0  0  0  0  0  0  0  0  0
    1.3379   -1.9484    0.4127 H   0  0  0  0  0  0  0  0  0  0  0  0
    1.5826   -1.3901    3.1538 H   0  0  0  0  0  0  0  0  0  0  0  0
  1  2  1  0
  1  5  1  0
  1  6  1  0
  1  7  1  0
  2  3  1  0
  3  4  2  3
  4  8  1  0
  4  9  1  0
 10 11  1  0
 10 14  1  0
 10 15  1  0
 10 16  1  0
 11 12  1  0
 11 17  1  0
 12 13  1  0
 12 18  1  0
 12 19  1  0
 13 20  1  0
M  RAD  1  11   2
M  END
>  <reaction>  (22) 
rmg_rxn_15710

>  <mol_properties>  (22) 
{"0": {"label": "*3", "atom_type": "Cs"}, "1": {"label": "*4", "atom_type": "O2s"}, "4": {"label": "*2", "atom_type": "H0"}, "10": {"label": "*1", "atom_type": "Cs"}, "11": {"label": "*0", "atom_type": "Cs"}}

>  <type>  (22) 
unop_18

>  <geom_source>  (22) 
Heuristics

$$$$

     RDKit          3D

 20 18  0  0  0  0  0  0  0  0999 V2000
   -1.3618    0.6162    0.0389 C   0  0  0  0  0  0  0  0  0  0  0  0
   -1.3618    0.6741   -1.3740 O   0  0  0  0  0  0  0  0  0  0  0  0
   -1.3618   -0.5998   -1.8897 N   0  0  0  0  0  0  0  0  0  0  0  0
   -1.3618   -0.5998   -3.1534 C   0  0  0  0  0  0  0  0  0  0  0  0
   -0.2912    0.0040    0.4830 H   0  0  0  0  0  0  0  0  0  0  0  0
   -2.2539    0.1060    0.4090 H   0  0  0  0  0  0  0  0  0  0  0  0
   -1.3618    1.6511    0.3767 H   0  0  0  0  0  0  0  0  0  0  0  0
   -1.3618   -1.5669   -3.6382 H   0  0  0  0  0  0  0  0  0  0  0  0
   -1.3618    0.3167   -3.7395 H   0  0  0  0  0  0  0  0  0  0  0  0
    0.4774   -1.3121    2.2438 C   0  0  0  0  0  0  0  0  0  0  0  0
    0.7812   -0.6093    0.9279 C   0  0  0  0  0  3  0  0  0  0  0  0
    1.3406    0.7938    1.1114 C   0  0  0  0  0  0  0  0  0  0  0  0
    2.5608    0.8202    1.8274 O   0  0  0  0  0  0  0  0  0  0  0  0
    0.1075   -2.3245    2.0754 H   0  0  0  0  0  0  0  0  0  0  0  0
    1.3705   -1.3736    2.8663 H   0  0  0  0  0  0  0  0  0  0  0  0
   -0.2823   -0.7664    2.8081 H   0  0  0  0  0  0  0  0  0  0  0  0
    1.4946   -1.2015    0.3432 H   0  0  0  0  0  0  0  0  0  0  0  0
    1.4551    1.2804    0.1346 H   0  0  0  0  0  0  0  0  0  0  0  0
    0.6451    1.3983    1.6980 H   0  0  0  0  0  0  0  0  0  0  0  0
    3.2142    0.3261    1.3296 H   0  0  0  0  0  0  0  0  0  0  0  0
  1  2  1  0
  1  5  1  0
  1  6  1  0
  1  7  1  0
  2  3  1  0
  3  4  2  3
  4  8  1  0
  4  9  1  0
 10 11  1  0
 10 14  1  0
 10 15  1  0
 10 16  1  0
 11 12  1  0
 11 17  1  0
 12 13  1  0
 12 18  1  0
 12 19  1  0
 13 20  1  0
M  RAD  1  11   2
M  END
>  <reaction>  (23) 
rmg_rxn_15710

>  <mol_properties>  (23) 
{"0": {"label": "*3", "atom_type": "Cs"}, "1": {"label": "*4", "atom_type": "O2s"}, "4": {"label": "*2", "atom_type": "H0"}, "10": {"label": "*1", "atom_type": "Cs"}, "11": {"label": "*0", "atom_type": "Cs"}}

>  <type>  (23) 
unop_19

>  <geom_source>  (23) 
Heuristics

$$$$

     RDKit          3D

 20 18  0  0  0  0  0  0  0  0999 V2000
   -1.2263    1.3489    0.1799 C   0  0  0  0  0  0  0  0  0  0  0  0
   -1.2263    1.4068   -1.2330 O   0  0  0  0  0  0  0  0  0  0  0  0
   -1.2263    0.1329   -1.7487 N   0  0  0  0  0  0  0  0  0  0  0  0
   -1.2263    0.1329   -3.0123 C   0  0  0  0  0  0  0  0  0  0  0  0
   -0.1557    0.7367    0.6240 H   0  0  0  0  0  0  0  0  0  0  0  0
   -2.1184    0.8387    0.5500 H   0  0  0  0  0  0  0  0  0  0  0  0
   -1.2263    2.3838    0.5177 H   0  0  0  0  0  0  0  0  0  0  0  0
   -1.2263   -0.8342   -3.4972 H   0  0  0  0  0  0  0  0  0  0  0  0
   -1.2263    1.0494   -3.5985 H   0  0  0  0  0  0  0  0  0  0  0  0
    1.7932   -0.3151   -0.0962 C   0  0  0  0  0  0  0  0  0  0  0  0
    0.9168    0.1234    1.0689 C   0  0  0  0  0  3  0  0  0  0  0  0
    0.4700   -1.0318    1.9526 C   0  0  0  0  0  0  0  0  0  0  0  0
    1.5472   -1.7277    2.5504 O   0  0  0  0  0  0  0  0  0  0  0  0
    2.1194    0.5402   -0.6896 H   0  0  0  0  0  0  0  0  0  0  0  0
    2.6791   -0.8411    0.2610 H   0  0  0  0  0  0  0  0  0  0  0  0
    1.2489   -0.9942   -0.7564 H   0  0  0  0  0  0  0  0  0  0  0  0
    1.4520    0.8549    1.6855 H   0  0  0  0  0  0  0  0  0  0  0  0
   -0.2273   -0.6681    2.7178 H   0  0  0  0  0  0  0  0  0  0  0  0
   -0.0610   -1.7752    1.3537 H   0  0  0  0  0  0  0  0  0  0  0  0
    2.0250   -1.1179    3.1150 H   0  0  0  0  0  0  0  0  0  0  0  0
  1  2  1  0
  1  5  1  0
  1  6  1  0
  1  7  1  0
  2  3  1  0
  3  4  2  3
  4  8  1  0
  4  9  1  0
 10 11  1  0
 10 14  1  0
 10 15  1  0
 10 16  1  0
 11 12  1  0
 11 17  1  0
 12 13  1  0
 12 18  1  0
 12 19  1  0
 13 20  1  0
M  RAD  1  11   2
M  END
>  <reaction>  (24) 
rmg_rxn_15710

>  <mol_properties>  (24) 
{"0": {"label": "*3", "atom_type": "Cs"}, "1": {"label": "*4", "atom_type": "O2s"}, "4": {"label": "*2", "atom_type": "H0"}, "10": {"label": "*1", "atom_type": "Cs"}, "11": {"label": "*0", "atom_type": "Cs"}}

>  <type>  (24) 
unop_20

>  <geom_source>  (24) 
Heuristics

$$$$

     RDKit          3D

 20 18  0  0  0  0  0  0  0  0999 V2000
   -0.3977    1.5295    0.7877 C   0  0  0  0  0  3  0  0  0  0  0  0
   -1.3799    1.1473   -0.1134 O   0  0  0  0  0  0  0  0  0  0  0  0
   -1.8005   -0.1526    0.0884 N   0  0  0  0  0  0  0  0  0  0  0  0
   -2.7396   -0.5603   -0.6536 C   0  0  0  0  0  0  0  0  0  0  0  0
    0.7334    0.8631    0.5187 H   0  0  0  0  0  0  0  0  0  0  0  0
   -0.6313    1.2792    1.8204 H   0  0  0  0  0  0  0  0  0  0  0  0
   -0.1989    2.5821    0.6256 H   0  0  0  0  0  0  0  0  0  0  0  0
   -3.0611   -1.5751   -0.5029 H   0  0  0  0  0  0  0  0  0  0  0  0
   -3.2227    0.0454   -1.4127 H   0  0  0  0  0  0  0  0  0  0  0  0
    2.6616    0.9707   -0.6784 C   0  0  0  0  0  0  0  0  0  0  0  0
    1.8105    0.1583    0.2634 C   0  0  0  0  0  0  0  0  0  0  0  0
    1.3371   -1.1662   -0.3013 C   0  0  0  0  0  0  0  0  0  0  0  0
    0.4944   -1.8735    0.5707 O   0  0  0  0  0  0  0  0  0  0  0  0
    3.5940    0.4500   -0.9051 H   0  0  0  0  0  0  0  0  0  0  0  0
    2.1387    1.1436   -1.6173 H   0  0  0  0  0  0  0  0  0  0  0  0
    2.9122    1.9325   -0.2366 H   0  0  0  0  0  0  0  0  0  0  0  0
    2.2674    0.0300    1.2432 H   0  0  0  0  0  0  0  0  0  0  0  0
    0.8457   -1.0015   -1.2733 H   0  0  0  0  0  0  0  0  0  0  0  0
    2.1990   -1.8252   -0.4713 H   0  0  0  0  0  0  0  0  0  0  0  0
   -0.3387   -1.3804    0.6624 H   0  0  0  0  0  0  0  0  0  0  0  0
  1  2  1  0
  1  6  1  0
  1  7  1  0
  2  3  1  0
  3  4  2  3
  4  8  1  0
  4  9  1  0
  5 11  1  0
 10 11  1  0
 10 14  1  0
 10 15  1  0
 10 16  1  0
 11 12  1  0
 11 17  1  0
 12 13  1  0
 12 18  1  0
 12 19  1  0
 13 20  1  0
M  RAD  1   1   2
M  END
>  <reaction>  (25) 
rmg_rxn_15710

>  <mol_properties>  (25) 
{"0": {"label": "*3", "atom_type": "Cs"}, "1": {"label": "*4", "atom_type": "O2s"}, "4": {"label": "*2", "atom_type": "H0"}, "10": {"label": "*1", "atom_type": "Cs"}, "11": {"label": "*0", "atom_type": "Cs"}}

>  <type>  (25) 
unop_21

>  <geom_source>  (25) 
Heuristics

$$$$

     RDKit          3D

 20 18  0  0  0  0  0  0  0  0999 V2000
   -1.7835   -1.8758    1.0536 O   0  0  0  0  0  0  0  0  0  0  0  0
    1.7910    0.6152   -1.0546 O   0  0  0  0  0  0  0  0  0  0  0  0
    2.7283    0.9782   -0.1012 N   0  0  0  0  0  0  0  0  0  0  0  0
   -0.8287    0.1441    0.2088 C   0  0  0  0  0  0  0  0  0  0  0  0
   -2.1101   -0.6344    0.4952 C   0  0  0  0  0  0  0  0  0  0  0  0
   -1.1314    1.5037   -0.4121 C   0  0  0  0  0  0  0  0  0  0  0  0
    1.2023   -0.6795   -1.1167 C   0  0  0  0  0  3  0  0  0  0  0  0
    3.1330    0.2059    0.8597 C   0  0  0  0  0  0  0  0  0  0  0  0
   -0.2649    0.2924    1.1554 H   0  0  0  0  0  0  0  0  0  0  0  0
   -0.0749   -0.5502   -0.6249 H   0  0  0  0  0  0  0  0  0  0  0  0
   -2.7456   -0.0598    1.2063 H   0  0  0  0  0  0  0  0  0  0  0  0
   -2.6706   -0.7887   -0.4540 H   0  0  0  0  0  0  0  0  0  0  0  0
   -1.7491    2.1158    0.2791 H   0  0  0  0  0  0  0  0  0  0  0  0
   -0.1794    2.0394   -0.6093 H   0  0  0  0  0  0  0  0  0  0  0  0
   -1.6718    1.3750   -1.3739 H   0  0  0  0  0  0  0  0  0  0  0  0
    0.4078   -0.6854   -1.8908 H   0  0  0  0  0  0  0  0  0  0  0  0
    1.9749   -1.4303   -1.3849 H   0  0  0  0  0  0  0  0  0  0  0  0
    2.7482   -0.7974    0.9831 H   0  0  0  0  0  0  0  0  0  0  0  0
    3.8703    0.5702    1.5617 H   0  0  0  0  0  0  0  0  0  0  0  0
   -2.6459   -2.3382    1.2194 H   0  0  0  0  0  0  0  0  0  0  0  0
  1  5  1  0
  1 20  1  0
  2  7  1  0
  2  3  1  0
  3  8  2  3
  4  6  1  0
  4  5  1  0
  4  9  1  0
  4 10  1  0
  5 11  1  0
  5 12  1  0
  6 13  1  0
  6 14  1  0
  6 15  1  0
  7 16  1  0
  7 17  1  0
  8 18  1  0
  8 19  1  0
M  RAD  1   7   2
M  END
>  <reaction>  (26) 
rmg_rxn_15710

>  <mol_properties>  (26) 
{"0": {"label": "*3", "atom_type": "Cs"}, "1": {"label": "*4", "atom_type": "O2s"}, "4": {"label": "*2", "atom_type": "H0"}, "10": {"label": "*1", "atom_type": "Cs"}, "11": {"label": "*0", "atom_type": "Cs"}}

>  <type>  (26) 
unop_22

>  <geom_source>  (26) 
AutoTST

$$$$

     RDKit          3D

 20 18  0  0  0  0  0  0  0  0999 V2000
   -1.3680    1.2884    0.2196 C   0  0  0  0  0  0  0  0  0  0  0  0
   -1.3680    1.3463   -1.1933 O   0  0  0  0  0  0  0  0  0  0  0  0
   -1.3680    0.0724   -1.7090 N   0  0  0  0  0  0  0  0  0  0  0  0
   -1.3680    0.0724   -2.9727 C   0  0  0  0  0  0  0  0  0  0  0  0
   -0.2974    0.6762    0.6637 H   0  0  0  0  0  0  0  0  0  0  0  0
   -2.2601    0.7782    0.5897 H   0  0  0  0  0  0  0  0  0  0  0  0
   -1.3680    2.3233    0.5574 H   0  0  0  0  0  0  0  0  0  0  0  0
   -1.3680   -0.8946   -3.4575 H   0  0  0  0  0  0  0  0  0  0  0  0
   -1.3680    0.9889   -3.5588 H   0  0  0  0  0  0  0  0  0  0  0  0
    1.9380    0.2746    0.1491 C   0  0  0  0  0  0  0  0  0  0  0  0
    0.7750    0.0630    1.1086 C   0  0  0  0  0  3  0  0  0  0  0  0
    0.7015   -1.3531    1.6604 C   0  0  0  0  0  0  0  0  0  0  0  0
    1.8514   -1.7273    2.3953 O   0  0  0  0  0  0  0  0  0  0  0  0
    1.9780    1.3065   -0.2026 H   0  0  0  0  0  0  0  0  0  0  0  0
    2.8872    0.0410    0.6321 H   0  0  0  0  0  0  0  0  0  0  0  0
    1.8427   -0.3747   -0.7244 H   0  0  0  0  0  0  0  0  0  0  0  0
    0.8480    0.7664    1.9461 H   0  0  0  0  0  0  0  0  0  0  0  0
   -0.2024   -1.4688    2.2717 H   0  0  0  0  0  0  0  0  0  0  0  0
    0.6344   -2.0699    0.8390 H   0  0  0  0  0  0  0  0  0  0  0  0
    1.9318   -1.1415    3.1498 H   0  0  0  0  0  0  0  0  0  0  0  0
  1  2  1  0
  1  5  1  0
  1  6  1  0
  1  7  1  0
  2  3  1  0
  3  4  2  3
  4  8  1  0
  4  9  1  0
 10 11  1  0
 10 14  1  0
 10 15  1  0
 10 16  1  0
 11 12  1  0
 11 17  1  0
 12 13  1  0
 12 18  1  0
 12 19  1  0
 13 20  1  0
M  RAD  1  11   2
M  END
>  <reaction>  (27) 
rmg_rxn_15710

>  <mol_properties>  (27) 
{"0": {"label": "*3", "atom_type": "Cs"}, "1": {"label": "*4", "atom_type": "O2s"}, "4": {"label": "*2", "atom_type": "H0"}, "10": {"label": "*1", "atom_type": "Cs"}, "11": {"label": "*0", "atom_type": "Cs"}}

>  <type>  (27) 
unop_23

>  <geom_source>  (27) 
gaussian_log

$$$$
