
     RDKit          3D

 10  9  0  0  0  0  0  0  0  0999 V2000
    2.0403   -0.0578    0.0121 C   0  0  0  0  0  0  0  0  0  0  0  0
    0.5945   -0.0168    0.1898 C   0  0  0  0  0  0  0  0  0  0  0  0
   -0.5945    0.0169    0.3360 C   0  0  0  0  0  0  0  0  0  0  0  0
   -2.0403    0.0578    0.5137 C   0  0  0  0  0  0  0  0  0  0  0  0
    2.4762    0.9349    0.1366 H   0  0  0  0  0  0  0  0  0  0  0  0
    2.3000   -0.4176   -0.9850 H   0  0  0  0  0  0  0  0  0  0  0  0
    2.5036   -0.7236    0.7422 H   0  0  0  0  0  0  0  0  0  0  0  0
   -2.3765    1.0716    0.7378 H   0  0  0  0  0  0  0  0  0  0  0  0
   -2.3500   -0.5897    1.3358 H   0  0  0  0  0  0  0  0  0  0  0  0
   -2.5533   -0.2757   -0.3900 H   0  0  0  0  0  0  0  0  0  0  0  0
  1  2  1  0
  1  5  1  0
  1  6  1  0
  1  7  1  0
  2  3  3  0
  3  4  1  0
  4  8  1  0
  4  9  1  0
  4 10  1  0
M  END
>  <reaction>  (1) 
rmg_rxn_388

>  <mol_properties>  (1) 
{"3": {"label": "donator", "atom_type": "Cs"}, "9": {"label": "d_hydrogen", "atom_type": "H0"}}

>  <type>  (1) 
r1h

$$$$

     RDKit          3D

  8  7  0  0  0  0  0  0  0  0999 V2000
   -0.7873    0.0891   -0.0873 C   0  0  0  0  0  0  0  0  0  0  0  0
    0.7223   -0.0637   -0.0109 C   0  0  0  0  0  0  0  0  0  0  0  0
    1.2867   -0.8404   -0.9706 O   0  0  0  0  0  1  0  0  0  0  0  0
   -1.2724   -0.8840   -0.0044 H   0  0  0  0  0  0  0  0  0  0  0  0
   -1.1517    0.7274    0.7201 H   0  0  0  0  0  0  0  0  0  0  0  0
   -1.0763    0.5365   -1.0389 H   0  0  0  0  0  0  0  0  0  0  0  0
    1.2329    0.9169   -0.0453 H   0  0  0  0  0  0  0  0  0  0  0  0
    1.0411   -0.4722    0.9662 H   0  0  0  0  0  0  0  0  0  0  0  0
  1  2  1  0
  1  4  1  0
  1  5  1  0
  1  6  1  0
  2  3  1  0
  2  7  1  0
  2  8  1  0
M  RAD  1   3   2
M  END
>  <reaction>  (2) 
rmg_rxn_388

>  <mol_properties>  (2) 
{"2": {"label": "acceptor", "atom_type": "O2s"}}

>  <type>  (2) 
r2

$$$$

     RDKit          3D

  9  8  0  0  0  0  0  0  0  0999 V2000
   -0.9895    0.3048    0.1041 C   0  0  0  0  0  0  0  0  0  0  0  0
    0.3761   -0.3562    0.0721 C   0  0  0  0  0  0  0  0  0  0  0  0
    0.3441   -1.6564   -0.4834 O   0  0  0  0  0  0  0  0  0  0  0  0
   -1.6997   -0.3114    0.6572 H   0  0  0  0  0  0  0  0  0  0  0  0
   -0.9320    1.2848    0.5822 H   0  0  0  0  0  0  0  0  0  0  0  0
   -1.3774    0.4507   -0.9077 H   0  0  0  0  0  0  0  0  0  0  0  0
    0.7581   -0.4813    1.0862 H   0  0  0  0  0  0  0  0  0  0  0  0
    1.0900    0.2787   -0.4681 H   0  0  0  0  0  0  0  0  0  0  0  0
    0.0089   -1.5959   -1.3792 H   0  0  0  0  0  0  0  0  0  0  0  0
  1  2  1  0
  1  4  1  0
  1  5  1  0
  1  6  1  0
  2  3  1  0
  2  7  1  0
  2  8  1  0
  3  9  1  0
M  END
>  <reaction>  (3) 
rmg_rxn_388

>  <mol_properties>  (3) 
{"2": {"label": "acceptor", "atom_type": "O2s"}, "8": {"label": "a_hydrogen", "atom_type": "H0"}}

>  <type>  (3) 
r2h

$$$$

     RDKit          3D

 18 16  0  0  0  0  0  0  0  0999 V2000
   -1.1394   -1.9605    0.5103 C   0  0  0  0  0  0  0  0  0  0  0  0
   -1.5413   -0.5322    0.8351 C   0  0  0  0  0  0  0  0  0  0  0  0
   -0.9135   -0.0123    1.9570 O   0  0  0  0  0  1  0  0  0  0  0  0
   -1.3155   -2.6114    1.3677 H   0  0  0  0  0  0  0  0  0  0  0  0
   -1.7106   -2.3400   -0.3400 H   0  0  0  0  0  0  0  0  0  0  0  0
   -0.0791   -2.0054    0.2536 H   0  0  0  0  0  0  0  0  0  0  0  0
   -1.3741    0.1207   -0.0362 H   0  0  0  0  0  0  0  0  0  0  0  0
   -2.6183   -0.4682    1.0474 H   0  0  0  0  0  0  0  0  0  0  0  0
    0.8780    0.6815   -2.9447 C   0  0  0  0  0  0  0  0  0  0  0  0
    1.0701    0.6782   -1.5029 C   0  0  0  0  0  0  0  0  0  0  0  0
    1.2461    0.6789   -0.3113 C   0  0  0  0  0  0  0  0  0  0  0  0
    1.3788    0.6467    1.1068 C   0  0  0  0  0  0  0  0  0  0  0  0
    1.8120    0.4483   -3.4590 H   0  0  0  0  0  0  0  0  0  0  0  0
    0.5321    1.6565   -3.2908 H   0  0  0  0  0  0  0  0  0  0  0  0
    0.1386   -0.0666   -3.2367 H   0  0  0  0  0  0  0  0  0  0  0  0
    1.5720    1.6178    1.5596 H   0  0  0  0  0  0  0  0  0  0  0  0
    2.0614   -0.1184    1.4733 H   0  0  0  0  0  0  0  0  0  0  0  0
    0.2850    0.3225    1.5917 H   0  0  0  0  0  0  0  0  0  0  0  0
  1  2  1  0
  1  4  1  0
  1  5  1  0
  1  6  1  0
  2  3  1  0
  2  7  1  0
  2  8  1  0
  9 10  1  0
  9 13  1  0
  9 14  1  0
  9 15  1  0
 10 11  3  0
 11 12  1  0
 12 16  1  0
 12 17  1  0
 12 18  1  0
M  RAD  1   3   2
M  END
>  <reaction>  (4) 
rmg_rxn_388

>  <mol_properties>  (4) 
{"1": {"label": "*4", "atom_type": "Cs"}, "2": {"label": "*3", "atom_type": "O2s"}, "10": {"label": "*0", "atom_type": "Ct"}, "11": {"label": "*1", "atom_type": "Cs"}, "17": {"label": "*2", "atom_type": "H0"}}

>  <type>  (4) 
ts

$$$$

     RDKit          3D

 18 16  0  0  0  0  0  0  0  0999 V2000
    0.2517   -1.3694    2.4823 C   0  0  0  0  0  0  0  0  0  0  0  0
   -1.2081   -1.2371    2.0892 C   0  0  0  0  0  0  0  0  0  0  0  0
   -1.4634   -0.0898    1.3028 O   0  0  0  0  0  0  0  0  0  0  0  0
    0.5861   -0.4788    3.0160 H   0  0  0  0  0  0  0  0  0  0  0  0
    0.3999   -2.2383    3.1267 H   0  0  0  0  0  0  0  0  0  0  0  0
    0.8843   -1.4981    1.5998 H   0  0  0  0  0  0  0  0  0  0  0  0
   -1.5429   -2.1448    1.5709 H   0  0  0  0  0  0  0  0  0  0  0  0
   -1.8292   -1.1254    2.9790 H   0  0  0  0  0  0  0  0  0  0  0  0
    0.6770    0.7462   -3.6877 C   0  0  0  0  0  0  0  0  0  0  0  0
    0.6770    0.7462   -2.2305 C   0  0  0  0  0  3  0  0  0  0  0  0
    0.6770    0.7462   -1.0320 C   0  0  0  0  0  0  0  0  0  0  0  0
    0.6770    0.7462    0.4253 C   0  0  0  0  0  0  0  0  0  0  0  0
    0.8260    1.7548   -4.0771 H   0  0  0  0  0  0  0  0  0  0  0  0
   -0.2710    0.3710   -4.0771 H   0  0  0  0  0  0  0  0  0  0  0  0
    1.4759    0.1129   -4.0771 H   0  0  0  0  0  0  0  0  0  0  0  0
    0.8306    1.7541    0.8146 H   0  0  0  0  0  0  0  0  0  0  0  0
    1.4730    0.1093    0.8146 H   0  0  0  0  0  0  0  0  0  0  0  0
   -0.4626    0.3011    0.8925 H   0  0  0  0  0  0  0  0  0  0  0  0
  1  2  1  0
  1  4  1  0
  1  5  1  0
  1  6  1  0
  2  3  1  0
  2  7  1  0
  2  8  1  0
  3 18  1  0
  9 10  1  0
  9 13  1  0
  9 14  1  0
  9 15  1  0
 10 11  2  0
 11 12  2  0
 12 16  1  0
 12 17  1  0
M  RAD  1  10   2
M  END
>  <reaction>  (5) 
rmg_rxn_388

>  <mol_properties>  (5) 
{"1": {"label": "*4", "atom_type": "Cs"}, "2": {"label": "*3", "atom_type": "O2s"}, "10": {"label": "*0", "atom_type": "Ct"}, "11": {"label": "*1", "atom_type": "Cs"}, "17": {"label": "*2", "atom_type": "H0"}}

>  <type>  (5) 
unop_1

>  <geom_source>  (5) 
Heuristics

$$$$

     RDKit          3D

 18 16  0  0  0  0  0  0  0  0999 V2000
   -0.6365   -1.8602    0.4294 C   0  0  0  0  0  0  0  0  0  0  0  0
   -1.6980   -0.9682    1.0462 C   0  0  0  0  0  0  0  0  0  0  0  0
   -1.1658   -0.0403    1.9715 O   0  0  0  0  0  0  0  0  0  0  0  0
   -0.0866   -2.3934    1.2061 H   0  0  0  0  0  0  0  0  0  0  0  0
   -1.0909   -2.5925   -0.2412 H   0  0  0  0  0  0  0  0  0  0  0  0
    0.0773   -1.2727   -0.1544 H   0  0  0  0  0  0  0  0  0  0  0  0
   -2.2604   -0.4509    0.2584 H   0  0  0  0  0  0  0  0  0  0  0  0
   -2.4120   -1.5681    1.6122 H   0  0  0  0  0  0  0  0  0  0  0  0
    0.9745    0.7957   -3.0190 C   0  0  0  0  0  0  0  0  0  0  0  0
    0.9745    0.7957   -1.5618 C   0  0  0  0  0  3  0  0  0  0  0  0
    0.9745    0.7957   -0.3633 C   0  0  0  0  0  0  0  0  0  0  0  0
    0.9745    0.7957    1.0940 C   0  0  0  0  0  0  0  0  0  0  0  0
    1.1236    1.8042   -3.4084 H   0  0  0  0  0  0  0  0  0  0  0  0
    0.0266    0.4205   -3.4084 H   0  0  0  0  0  0  0  0  0  0  0  0
    1.7734    0.1623   -3.4084 H   0  0  0  0  0  0  0  0  0  0  0  0
    1.1281    1.8035    1.4833 H   0  0  0  0  0  0  0  0  0  0  0  0
    1.7706    0.1587    1.4833 H   0  0  0  0  0  0  0  0  0  0  0  0
   -0.1650    0.3506    1.5612 H   0  0  0  0  0  0  0  0  0  0  0  0
  1  2  1  0
  1  4  1  0
  1  5  1  0
  1  6  1  0
  2  3  1  0
  2  7  1  0
  2  8  1  0
  3 18  1  0
  9 10  1  0
  9 13  1  0
  9 14  1  0
  9 15  1  0
 10 11  2  0
 11 12  2  0
 12 16  1  0
 12 17  1  0
M  RAD  1  10   2
M  END
>  <reaction>  (6) 
rmg_rxn_388

>  <mol_properties>  (6) 
{"1": {"label": "*4", "atom_type": "Cs"}, "2": {"label": "*3", "atom_type": "O2s"}, "10": {"label": "*0", "atom_type": "Ct"}, "11": {"label": "*1", "atom_type": "Cs"}, "17": {"label": "*2", "atom_type": "H0"}}

>  <type>  (6) 
unop_2

>  <geom_source>  (6) 
Heuristics

$$$$

     RDKit          3D

 18 16  0  0  0  0  0  0  0  0999 V2000
    0.0267   -0.4107    3.0828 C   0  0  0  0  0  0  0  0  0  0  0  0
   -1.1804   -0.9792    2.3599 C   0  0  0  0  0  0  0  0  0  0  0  0
   -1.4203   -0.3529    1.1148 O   0  0  0  0  0  0  0  0  0  0  0  0
   -0.0872    0.6640    3.2305 H   0  0  0  0  0  0  0  0  0  0  0  0
    0.1504   -0.8855    4.0583 H   0  0  0  0  0  0  0  0  0  0  0  0
    0.9423   -0.5832    2.5106 H   0  0  0  0  0  0  0  0  0  0  0  0
   -1.0681   -2.0636    2.2331 H   0  0  0  0  0  0  0  0  0  0  0  0
   -2.0841   -0.8146    2.9484 H   0  0  0  0  0  0  0  0  0  0  0  0
    0.7201    0.4831   -3.8757 C   0  0  0  0  0  0  0  0  0  0  0  0
    0.7201    0.4831   -2.4184 C   0  0  0  0  0  3  0  0  0  0  0  0
    0.7201    0.4831   -1.2199 C   0  0  0  0  0  0  0  0  0  0  0  0
    0.7201    0.4831    0.2373 C   0  0  0  0  0  0  0  0  0  0  0  0
    0.8691    1.4917   -4.2650 H   0  0  0  0  0  0  0  0  0  0  0  0
   -0.2279    0.1079   -4.2650 H   0  0  0  0  0  0  0  0  0  0  0  0
    1.5190   -0.1503   -4.2650 H   0  0  0  0  0  0  0  0  0  0  0  0
    0.8737    1.4910    0.6267 H   0  0  0  0  0  0  0  0  0  0  0  0
    1.5161   -0.1539    0.6267 H   0  0  0  0  0  0  0  0  0  0  0  0
   -0.4195    0.0380    0.7045 H   0  0  0  0  0  0  0  0  0  0  0  0
  1  2  1  0
  1  4  1  0
  1  5  1  0
  1  6  1  0
  2  3  1  0
  2  7  1  0
  2  8  1  0
  3 18  1  0
  9 10  1  0
  9 13  1  0
  9 14  1  0
  9 15  1  0
 10 11  2  0
 11 12  2  0
 12 16  1  0
 12 17  1  0
M  RAD  1  10   2
M  END
>  <reaction>  (7) 
rmg_rxn_388

>  <mol_properties>  (7) 
{"1": {"label": "*4", "atom_type": "Cs"}, "2": {"label": "*3", "atom_type": "O2s"}, "10": {"label": "*0", "atom_type": "Ct"}, "11": {"label": "*1", "atom_type": "Cs"}, "17": {"label": "*2", "atom_type": "H0"}}

>  <type>  (7) 
unop_3

>  <geom_source>  (7) 
Heuristics

$$$$

     RDKit          3D

 18 16  0  0  0  0  0  0  0  0999 V2000
   -2.4371   -0.2997    0.1917 C   0  0  0  0  0  0  0  0  0  0  0  0
   -1.7910    0.2109    1.4663 C   0  0  0  0  0  0  0  0  0  0  0  0
   -0.7554   -0.6316    1.9329 O   0  0  0  0  0  0  0  0  0  0  0  0
   -2.8249   -1.3088    0.3374 H   0  0  0  0  0  0  0  0  0  0  0  0
   -3.2612    0.3503   -0.1096 H   0  0  0  0  0  0  0  0  0  0  0  0
   -1.7158   -0.3247   -0.6296 H   0  0  0  0  0  0  0  0  0  0  0  0
   -1.4216    1.2338    1.3184 H   0  0  0  0  0  0  0  0  0  0  0  0
   -2.5247    0.2459    2.2729 H   0  0  0  0  0  0  0  0  0  0  0  0
    1.3849    0.2044   -3.0576 C   0  0  0  0  0  0  0  0  0  0  0  0
    1.3849    0.2044   -1.6003 C   0  0  0  0  0  3  0  0  0  0  0  0
    1.3849    0.2044   -0.4018 C   0  0  0  0  0  0  0  0  0  0  0  0
    1.3849    0.2044    1.0554 C   0  0  0  0  0  0  0  0  0  0  0  0
    1.5340    1.2129   -3.4469 H   0  0  0  0  0  0  0  0  0  0  0  0
    0.4370   -0.1708   -3.4469 H   0  0  0  0  0  0  0  0  0  0  0  0
    2.1839   -0.4290   -3.4469 H   0  0  0  0  0  0  0  0  0  0  0  0
    1.5386    1.2122    1.4448 H   0  0  0  0  0  0  0  0  0  0  0  0
    2.1810   -0.4326    1.4447 H   0  0  0  0  0  0  0  0  0  0  0  0
    0.2454   -0.2407    1.5226 H   0  0  0  0  0  0  0  0  0  0  0  0
  1  2  1  0
  1  4  1  0
  1  5  1  0
  1  6  1  0
  2  3  1  0
  2  7  1  0
  2  8  1  0
  3 18  1  0
  9 10  1  0
  9 13  1  0
  9 14  1  0
  9 15  1  0
 10 11  2  0
 11 12  2  0
 12 16  1  0
 12 17  1  0
M  RAD  1  10   2
M  END
>  <reaction>  (8) 
rmg_rxn_388

>  <mol_properties>  (8) 
{"1": {"label": "*4", "atom_type": "Cs"}, "2": {"label": "*3", "atom_type": "O2s"}, "10": {"label": "*0", "atom_type": "Ct"}, "11": {"label": "*1", "atom_type": "Cs"}, "17": {"label": "*2", "atom_type": "H0"}}

>  <type>  (8) 
unop_4

>  <geom_source>  (8) 
Heuristics

$$$$

     RDKit          3D

 18 16  0  0  0  0  0  0  0  0999 V2000
   -0.9149    0.7383    3.0611 C   0  0  0  0  0  0  0  0  0  0  0  0
   -1.1640   -0.6504    2.5022 C   0  0  0  0  0  0  0  0  0  0  0  0
   -1.2196   -0.6721    1.0893 O   0  0  0  0  0  0  0  0  0  0  0  0
   -1.6815    1.4329    2.7149 H   0  0  0  0  0  0  0  0  0  0  0  0
   -0.9265    0.7221    4.1528 H   0  0  0  0  0  0  0  0  0  0  0  0
    0.0602    1.1183    2.7445 H   0  0  0  0  0  0  0  0  0  0  0  0
   -0.4010   -1.3478    2.8709 H   0  0  0  0  0  0  0  0  0  0  0  0
   -2.1323   -1.0237    2.8383 H   0  0  0  0  0  0  0  0  0  0  0  0
    0.9208    0.1639   -3.9012 C   0  0  0  0  0  0  0  0  0  0  0  0
    0.9208    0.1639   -2.4440 C   0  0  0  0  0  3  0  0  0  0  0  0
    0.9208    0.1639   -1.2455 C   0  0  0  0  0  0  0  0  0  0  0  0
    0.9208    0.1639    0.2118 C   0  0  0  0  0  0  0  0  0  0  0  0
    1.0699    1.1725   -4.2906 H   0  0  0  0  0  0  0  0  0  0  0  0
   -0.0272   -0.2113   -4.2906 H   0  0  0  0  0  0  0  0  0  0  0  0
    1.7197   -0.4694   -4.2906 H   0  0  0  0  0  0  0  0  0  0  0  0
    1.0744    1.1718    0.6011 H   0  0  0  0  0  0  0  0  0  0  0  0
    1.7168   -0.4730    0.6011 H   0  0  0  0  0  0  0  0  0  0  0  0
   -0.2188   -0.2812    0.6790 H   0  0  0  0  0  0  0  0  0  0  0  0
  1  2  1  0
  1  4  1  0
  1  5  1  0
  1  6  1  0
  2  3  1  0
  2  7  1  0
  2  8  1  0
  3 18  1  0
  9 10  1  0
  9 13  1  0
  9 14  1  0
  9 15  1  0
 10 11  2  0
 11 12  2  0
 12 16  1  0
 12 17  1  0
M  RAD  1  10   2
M  END
>  <reaction>  (9) 
rmg_rxn_388

>  <mol_properties>  (9) 
{"1": {"label": "*4", "atom_type": "Cs"}, "2": {"label": "*3", "atom_type": "O2s"}, "10": {"label": "*0", "atom_type": "Ct"}, "11": {"label": "*1", "atom_type": "Cs"}, "17": {"label": "*2", "atom_type": "H0"}}

>  <type>  (9) 
unop_5

>  <geom_source>  (9) 
Heuristics

$$$$

     RDKit          3D

 18 16  0  0  0  0  0  0  0  0999 V2000
   -2.6484    0.3981    0.7652 C   0  0  0  0  0  0  0  0  0  0  0  0
   -1.6237    0.2960    1.8798 C   0  0  0  0  0  0  0  0  0  0  0  0
   -0.7456   -0.8010    1.7199 O   0  0  0  0  0  0  0  0  0  0  0  0
   -3.2260   -0.5243    0.6912 H   0  0  0  0  0  0  0  0  0  0  0  0
   -3.3361    1.2262    0.9488 H   0  0  0  0  0  0  0  0  0  0  0  0
   -2.1625    0.5767   -0.1978 H   0  0  0  0  0  0  0  0  0  0  0  0
   -1.0606    1.2345    1.9618 H   0  0  0  0  0  0  0  0  0  0  0  0
   -2.1223    0.1338    2.8364 H   0  0  0  0  0  0  0  0  0  0  0  0
    1.3948    0.0350   -3.2706 C   0  0  0  0  0  0  0  0  0  0  0  0
    1.3948    0.0350   -1.8133 C   0  0  0  0  0  3  0  0  0  0  0  0
    1.3948    0.0350   -0.6148 C   0  0  0  0  0  0  0  0  0  0  0  0
    1.3948    0.0350    0.8424 C   0  0  0  0  0  0  0  0  0  0  0  0
    1.5439    1.0435   -3.6599 H   0  0  0  0  0  0  0  0  0  0  0  0
    0.4468   -0.3402   -3.6599 H   0  0  0  0  0  0  0  0  0  0  0  0
    2.1937   -0.5984   -3.6599 H   0  0  0  0  0  0  0  0  0  0  0  0
    1.5484    1.0429    1.2318 H   0  0  0  0  0  0  0  0  0  0  0  0
    2.1908   -0.6020    1.2317 H   0  0  0  0  0  0  0  0  0  0  0  0
    0.2552   -0.4101    1.3096 H   0  0  0  0  0  0  0  0  0  0  0  0
  1  2  1  0
  1  4  1  0
  1  5  1  0
  1  6  1  0
  2  3  1  0
  2  7  1  0
  2  8  1  0
  3 18  1  0
  9 10  1  0
  9 13  1  0
  9 14  1  0
  9 15  1  0
 10 11  2  0
 11 12  2  0
 12 16  1  0
 12 17  1  0
M  RAD  1  10   2
M  END
>  <reaction>  (10) 
rmg_rxn_388

>  <mol_properties>  (10) 
{"1": {"label": "*4", "atom_type": "Cs"}, "2": {"label": "*3", "atom_type": "O2s"}, "10": {"label": "*0", "atom_type": "Ct"}, "11": {"label": "*1", "atom_type": "Cs"}, "17": {"label": "*2", "atom_type": "H0"}}

>  <type>  (10) 
unop_6

>  <geom_source>  (10) 
Heuristics

$$$$

     RDKit          3D

 18 16  0  0  0  0  0  0  0  0999 V2000
   -2.5265    0.8742    1.5367 C   0  0  0  0  0  0  0  0  0  0  0  0
   -1.4082    0.1450    2.2581 C   0  0  0  0  0  0  0  0  0  0  0  0
   -0.8183   -0.8717    1.4717 O   0  0  0  0  0  0  0  0  0  0  0  0
   -3.2948    0.1709    1.2126 H   0  0  0  0  0  0  0  0  0  0  0  0
   -2.9873    1.6168    2.1912 H   0  0  0  0  0  0  0  0  0  0  0  0
   -2.1470    1.3978    0.6550 H   0  0  0  0  0  0  0  0  0  0  0  0
   -0.6493    0.8609    2.5990 H   0  0  0  0  0  0  0  0  0  0  0  0
   -1.7971   -0.3596    3.1437 H   0  0  0  0  0  0  0  0  0  0  0  0
    1.3221   -0.0357   -3.5188 C   0  0  0  0  0  0  0  0  0  0  0  0
    1.3221   -0.0357   -2.0616 C   0  0  0  0  0  3  0  0  0  0  0  0
    1.3221   -0.0357   -0.8631 C   0  0  0  0  0  0  0  0  0  0  0  0
    1.3221   -0.0357    0.5942 C   0  0  0  0  0  0  0  0  0  0  0  0
    1.4712    0.9729   -3.9082 H   0  0  0  0  0  0  0  0  0  0  0  0
    0.3741   -0.4109   -3.9081 H   0  0  0  0  0  0  0  0  0  0  0  0
    2.1210   -0.6690   -3.9081 H   0  0  0  0  0  0  0  0  0  0  0  0
    1.4757    0.9722    0.9835 H   0  0  0  0  0  0  0  0  0  0  0  0
    2.1181   -0.6726    0.9835 H   0  0  0  0  0  0  0  0  0  0  0  0
    0.1825   -0.4808    1.0614 H   0  0  0  0  0  0  0  0  0  0  0  0
  1  2  1  0
  1  4  1  0
  1  5  1  0
  1  6  1  0
  2  3  1  0
  2  7  1  0
  2  8  1  0
  3 18  1  0
  9 10  1  0
  9 13  1  0
  9 14  1  0
  9 15  1  0
 10 11  2  0
 11 12  2  0
 12 16  1  0
 12 17  1  0
M  RAD  1  10   2
M  END
>  <reaction>  (11) 
rmg_rxn_388

>  <mol_properties>  (11) 
{"1": {"label": "*4", "atom_type": "Cs"}, "2": {"label": "*3", "atom_type": "O2s"}, "10": {"label": "*0", "atom_type": "Ct"}, "11": {"label": "*1", "atom_type": "Cs"}, "17": {"label": "*2", "atom_type": "H0"}}

>  <type>  (11) 
unop_7

>  <geom_source>  (11) 
Heuristics

$$$$

     RDKit          3D

 18 16  0  0  0  0  0  0  0  0999 V2000
    0.1200   -1.8551    1.7041 C   0  0  0  0  0  0  0  0  0  0  0  0
   -1.3143   -1.3597    1.7121 C   0  0  0  0  0  0  0  0  0  0  0  0
   -1.4122    0.0421    1.5522 O   0  0  0  0  0  0  0  0  0  0  0  0
    0.7008   -1.3573    2.4818 H   0  0  0  0  0  0  0  0  0  0  0  0
    0.1564   -2.9326    1.8777 H   0  0  0  0  0  0  0  0  0  0  0  0
    0.5968   -1.6573    0.7403 H   0  0  0  0  0  0  0  0  0  0  0  0
   -1.8973   -1.8795    0.9410 H   0  0  0  0  0  0  0  0  0  0  0  0
   -1.7829   -1.5774    2.6729 H   0  0  0  0  0  0  0  0  0  0  0  0
    0.7282    0.8781   -3.4383 C   0  0  0  0  0  0  0  0  0  0  0  0
    0.7282    0.8781   -1.9811 C   0  0  0  0  0  3  0  0  0  0  0  0
    0.7282    0.8781   -0.7826 C   0  0  0  0  0  0  0  0  0  0  0  0
    0.7282    0.8781    0.6747 C   0  0  0  0  0  0  0  0  0  0  0  0
    0.8772    1.8866   -3.8277 H   0  0  0  0  0  0  0  0  0  0  0  0
   -0.2198    0.5029   -3.8276 H   0  0  0  0  0  0  0  0  0  0  0  0
    1.5271    0.2447   -3.8276 H   0  0  0  0  0  0  0  0  0  0  0  0
    0.8818    1.8860    1.0640 H   0  0  0  0  0  0  0  0  0  0  0  0
    1.5242    0.2411    1.0640 H   0  0  0  0  0  0  0  0  0  0  0  0
   -0.4114    0.4330    1.1419 H   0  0  0  0  0  0  0  0  0  0  0  0
  1  2  1  0
  1  4  1  0
  1  5  1  0
  1  6  1  0
  2  3  1  0
  2  7  1  0
  2  8  1  0
  3 18  1  0
  9 10  1  0
  9 13  1  0
  9 14  1  0
  9 15  1  0
 10 11  2  0
 11 12  2  0
 12 16  1  0
 12 17  1  0
M  RAD  1  10   2
M  END
>  <reaction>  (12) 
rmg_rxn_388

>  <mol_properties>  (12) 
{"1": {"label": "*4", "atom_type": "Cs"}, "2": {"label": "*3", "atom_type": "O2s"}, "10": {"label": "*0", "atom_type": "Ct"}, "11": {"label": "*1", "atom_type": "Cs"}, "17": {"label": "*2", "atom_type": "H0"}}

>  <type>  (12) 
unop_8

>  <geom_source>  (12) 
Heuristics

$$$$

     RDKit          3D

 18 16  0  0  0  0  0  0  0  0999 V2000
   -1.9182   -1.0392   -0.0484 C   0  0  0  0  0  0  0  0  0  0  0  0
   -1.8708   -0.0861    1.1316 C   0  0  0  0  0  0  0  0  0  0  0  0
   -0.8507   -0.4076    2.0568 O   0  0  0  0  0  0  0  0  0  0  0  0
   -2.0469   -2.0665    0.2949 H   0  0  0  0  0  0  0  0  0  0  0  0
   -2.7466   -0.7875   -0.7138 H   0  0  0  0  0  0  0  0  0  0  0  0
   -0.9950   -0.9856   -0.6317 H   0  0  0  0  0  0  0  0  0  0  0  0
   -1.7618    0.9471    0.7779 H   0  0  0  0  0  0  0  0  0  0  0  0
   -2.8033   -0.1378    1.6954 H   0  0  0  0  0  0  0  0  0  0  0  0
    1.2896    0.4284   -2.9337 C   0  0  0  0  0  0  0  0  0  0  0  0
    1.2896    0.4284   -1.4764 C   0  0  0  0  0  3  0  0  0  0  0  0
    1.2896    0.4284   -0.2779 C   0  0  0  0  0  0  0  0  0  0  0  0
    1.2896    0.4284    1.1793 C   0  0  0  0  0  0  0  0  0  0  0  0
    1.4387    1.4369   -3.3230 H   0  0  0  0  0  0  0  0  0  0  0  0
    0.3417    0.0532   -3.3230 H   0  0  0  0  0  0  0  0  0  0  0  0
    2.0886   -0.2050   -3.3230 H   0  0  0  0  0  0  0  0  0  0  0  0
    1.4433    1.4362    1.5687 H   0  0  0  0  0  0  0  0  0  0  0  0
    2.0857   -0.2086    1.5686 H   0  0  0  0  0  0  0  0  0  0  0  0
    0.1501   -0.0167    1.6465 H   0  0  0  0  0  0  0  0  0  0  0  0
  1  2  1  0
  1  4  1  0
  1  5  1  0
  1  6  1  0
  2  3  1  0
  2  7  1  0
  2  8  1  0
  3 18  1  0
  9 10  1  0
  9 13  1  0
  9 14  1  0
  9 15  1  0
 10 11  2  0
 11 12  2  0
 12 16  1  0
 12 17  1  0
M  RAD  1  10   2
M  END
>  <reaction>  (13) 
rmg_rxn_388

>  <mol_properties>  (13) 
{"1": {"label": "*4", "atom_type": "Cs"}, "2": {"label": "*3", "atom_type": "O2s"}, "10": {"label": "*0", "atom_type": "Ct"}, "11": {"label": "*1", "atom_type": "Cs"}, "17": {"label": "*2", "atom_type": "H0"}}

>  <type>  (13) 
unop_9

>  <geom_source>  (13) 
Heuristics

$$$$

     RDKit          3D

 18 16  0  0  0  0  0  0  0  0999 V2000
   -0.1925   -1.9707    0.9833 C   0  0  0  0  0  0  0  0  0  0  0  0
   -1.4959   -1.2727    1.3249 C   0  0  0  0  0  0  0  0  0  0  0  0
   -1.3055    0.0487    1.7915 O   0  0  0  0  0  0  0  0  0  0  0  0
    0.4737   -1.9807    1.8470 H   0  0  0  0  0  0  0  0  0  0  0  0
   -0.3771   -3.0013    0.6734 H   0  0  0  0  0  0  0  0  0  0  0  0
    0.3194   -1.4629    0.1612 H   0  0  0  0  0  0  0  0  0  0  0  0
   -2.1687   -1.2845    0.4579 H   0  0  0  0  0  0  0  0  0  0  0  0
   -2.0036   -1.7981    2.1350 H   0  0  0  0  0  0  0  0  0  0  0  0
    0.8348    0.8847   -3.1990 C   0  0  0  0  0  0  0  0  0  0  0  0
    0.8348    0.8847   -1.7417 C   0  0  0  0  0  3  0  0  0  0  0  0
    0.8348    0.8847   -0.5432 C   0  0  0  0  0  0  0  0  0  0  0  0
    0.8348    0.8847    0.9140 C   0  0  0  0  0  0  0  0  0  0  0  0
    0.9839    1.8933   -3.5883 H   0  0  0  0  0  0  0  0  0  0  0  0
   -0.1131    0.5095   -3.5883 H   0  0  0  0  0  0  0  0  0  0  0  0
    1.6337    0.2514   -3.5883 H   0  0  0  0  0  0  0  0  0  0  0  0
    0.9884    1.8926    1.3034 H   0  0  0  0  0  0  0  0  0  0  0  0
    1.6309    0.2478    1.3033 H   0  0  0  0  0  0  0  0  0  0  0  0
   -0.3048    0.4396    1.3812 H   0  0  0  0  0  0  0  0  0  0  0  0
  1  2  1  0
  1  4  1  0
  1  5  1  0
  1  6  1  0
  2  3  1  0
  2  7  1  0
  2  8  1  0
  3 18  1  0
  9 10  1  0
  9 13  1  0
  9 14  1  0
  9 15  1  0
 10 11  2  0
 11 12  2  0
 12 16  1  0
 12 17  1  0
M  RAD  1  10   2
M  END
>  <reaction>  (14) 
rmg_rxn_388

>  <mol_properties>  (14) 
{"1": {"label": "*4", "atom_type": "Cs"}, "2": {"label": "*3", "atom_type": "O2s"}, "10": {"label": "*0", "atom_type": "Ct"}, "11": {"label": "*1", "atom_type": "Cs"}, "17": {"label": "*2", "atom_type": "H0"}}

>  <type>  (14) 
unop_10

>  <geom_source>  (14) 
Heuristics

$$$$

     RDKit          3D

 18 16  0  0  0  0  0  0  0  0999 V2000
   -2.0122    1.0721    2.3571 C   0  0  0  0  0  0  0  0  0  0  0  0
   -1.2184   -0.2144    2.4896 C   0  0  0  0  0  0  0  0  0  0  0  0
   -0.9703   -0.8375    1.2445 O   0  0  0  0  0  0  0  0  0  0  0  0
   -2.9581    0.8869    1.8463 H   0  0  0  0  0  0  0  0  0  0  0  0
   -2.2242    1.4970    3.3404 H   0  0  0  0  0  0  0  0  0  0  0  0
   -1.4543    1.8188    1.7855 H   0  0  0  0  0  0  0  0  0  0  0  0
   -0.2778   -0.0242    3.0222 H   0  0  0  0  0  0  0  0  0  0  0  0
   -1.7791   -0.9446    3.0748 H   0  0  0  0  0  0  0  0  0  0  0  0
    1.1701   -0.0015   -3.7460 C   0  0  0  0  0  0  0  0  0  0  0  0
    1.1701   -0.0015   -2.2888 C   0  0  0  0  0  3  0  0  0  0  0  0
    1.1701   -0.0015   -1.0903 C   0  0  0  0  0  0  0  0  0  0  0  0
    1.1701   -0.0015    0.3670 C   0  0  0  0  0  0  0  0  0  0  0  0
    1.3192    1.0071   -4.1354 H   0  0  0  0  0  0  0  0  0  0  0  0
    0.2221   -0.3767   -4.1354 H   0  0  0  0  0  0  0  0  0  0  0  0
    1.9690   -0.6349   -4.1354 H   0  0  0  0  0  0  0  0  0  0  0  0
    1.3237    1.0064    0.7563 H   0  0  0  0  0  0  0  0  0  0  0  0
    1.9661   -0.6385    0.7563 H   0  0  0  0  0  0  0  0  0  0  0  0
    0.0305   -0.4466    0.8342 H   0  0  0  0  0  0  0  0  0  0  0  0
  1  2  1  0
  1  4  1  0
  1  5  1  0
  1  6  1  0
  2  3  1  0
  2  7  1  0
  2  8  1  0
  3 18  1  0
  9 10  1  0
  9 13  1  0
  9 14  1  0
  9 15  1  0
 10 11  2  0
 11 12  2  0
 12 16  1  0
 12 17  1  0
M  RAD  1  10   2
M  END
>  <reaction>  (15) 
rmg_rxn_388

>  <mol_properties>  (15) 
{"1": {"label": "*4", "atom_type": "Cs"}, "2": {"label": "*3", "atom_type": "O2s"}, "10": {"label": "*0", "atom_type": "Ct"}, "11": {"label": "*1", "atom_type": "Cs"}, "17": {"label": "*2", "atom_type": "H0"}}

>  <type>  (15) 
unop_11

>  <geom_source>  (15) 
Heuristics

$$$$

     RDKit          3D

 18 16  0  0  0  0  0  0  0  0999 V2000
   -1.2379   -1.5792    0.0651 C   0  0  0  0  0  0  0  0  0  0  0  0
   -1.8406   -0.5232    0.9731 C   0  0  0  0  0  0  0  0  0  0  0  0
   -1.0047   -0.1967    2.0662 O   0  0  0  0  0  0  0  0  0  0  0  0
   -1.0065   -2.4828    0.6307 H   0  0  0  0  0  0  0  0  0  0  0  0
   -1.9314   -1.8384   -0.7376 H   0  0  0  0  0  0  0  0  0  0  0  0
   -0.3150   -1.2178   -0.3965 H   0  0  0  0  0  0  0  0  0  0  0  0
   -2.0895    0.3751    0.3937 H   0  0  0  0  0  0  0  0  0  0  0  0
   -2.7682   -0.8904    1.4143 H   0  0  0  0  0  0  0  0  0  0  0  0
    1.1356    0.6393   -2.9243 C   0  0  0  0  0  0  0  0  0  0  0  0
    1.1356    0.6393   -1.4670 C   0  0  0  0  0  3  0  0  0  0  0  0
    1.1356    0.6393   -0.2685 C   0  0  0  0  0  0  0  0  0  0  0  0
    1.1356    0.6393    1.1887 C   0  0  0  0  0  0  0  0  0  0  0  0
    1.2847    1.6479   -3.3136 H   0  0  0  0  0  0  0  0  0  0  0  0
    0.1877    0.2641   -3.3136 H   0  0  0  0  0  0  0  0  0  0  0  0
    1.9345    0.0059   -3.3136 H   0  0  0  0  0  0  0  0  0  0  0  0
    1.2893    1.6472    1.5781 H   0  0  0  0  0  0  0  0  0  0  0  0
    1.9317    0.0023    1.5780 H   0  0  0  0  0  0  0  0  0  0  0  0
   -0.0039    0.1942    1.6559 H   0  0  0  0  0  0  0  0  0  0  0  0
  1  2  1  0
  1  4  1  0
  1  5  1  0
  1  6  1  0
  2  3  1  0
  2  7  1  0
  2  8  1  0
  3 18  1  0
  9 10  1  0
  9 13  1  0
  9 14  1  0
  9 15  1  0
 10 11  2  0
 11 12  2  0
 12 16  1  0
 12 17  1  0
M  RAD  1  10   2
M  END
>  <reaction>  (16) 
rmg_rxn_388

>  <mol_properties>  (16) 
{"1": {"label": "*4", "atom_type": "Cs"}, "2": {"label": "*3", "atom_type": "O2s"}, "10": {"label": "*0", "atom_type": "Ct"}, "11": {"label": "*1", "atom_type": "Cs"}, "17": {"label": "*2", "atom_type": "H0"}}

>  <type>  (16) 
unop_12

>  <geom_source>  (16) 
Heuristics

$$$$

     RDKit          3D

 18 16  0  0  0  0  0  0  0  0999 V2000
    1.2461   -0.1579   -1.1074 O   0  0  0  0  0  0  0  0  0  0  0  0
    1.8092   -0.3914    0.1505 C   0  0  0  0  0  0  0  0  0  0  0  0
    3.0920    0.4124    0.2950 C   0  0  0  0  0  0  0  0  0  0  0  0
   -2.9871    0.9606    1.3068 C   0  0  0  0  0  0  0  0  0  0  0  0
   -0.9313   -1.0065   -1.6888 C   0  0  0  0  0  0  0  0  0  0  0  0
   -2.2591    0.2640    0.2460 C   0  0  0  0  0  3  0  0  0  0  0  0
   -1.6593   -0.3099   -0.6281 C   0  0  0  0  0  0  0  0  0  0  0  0
    1.0918   -0.0868    0.9431 H   0  0  0  0  0  0  0  0  0  0  0  0
    2.0374   -1.4736    0.2624 H   0  0  0  0  0  0  0  0  0  0  0  0
    3.8201    0.1105   -0.4875 H   0  0  0  0  0  0  0  0  0  0  0  0
    3.5396    0.2271    1.2942 H   0  0  0  0  0  0  0  0  0  0  0  0
    2.8748    1.4968    0.1930 H   0  0  0  0  0  0  0  0  0  0  0  0
   -2.2703    1.3178    2.0745 H   0  0  0  0  0  0  0  0  0  0  0  0
   -3.7140    0.2653    1.7749 H   0  0  0  0  0  0  0  0  0  0  0  0
   -3.5295    1.8272    0.8758 H   0  0  0  0  0  0  0  0  0  0  0  0
   -1.2205   -2.0775   -1.6944 H   0  0  0  0  0  0  0  0  0  0  0  0
   -1.1805   -0.5510   -2.6693 H   0  0  0  0  0  0  0  0  0  0  0  0
    0.2405   -0.8271   -1.1409 H   0  0  0  0  0  0  0  0  0  0  0  0
  1  2  1  0
  1 18  1  0
  2  3  1  0
  2  8  1  0
  2  9  1  0
  3 10  1  0
  3 11  1  0
  3 12  1  0
  4  6  1  0
  4 13  1  0
  4 14  1  0
  4 15  1  0
  5  7  2  0
  5 16  1  0
  5 17  1  0
  6  7  2  0
M  RAD  1   6   2
M  END
>  <reaction>  (17) 
rmg_rxn_388

>  <mol_properties>  (17) 
{"1": {"label": "*4", "atom_type": "Cs"}, "2": {"label": "*3", "atom_type": "O2s"}, "10": {"label": "*0", "atom_type": "Ct"}, "11": {"label": "*1", "atom_type": "Cs"}, "17": {"label": "*2", "atom_type": "H0"}}

>  <type>  (17) 
unop_13

>  <geom_source>  (17) 
AutoTST

$$$$

     RDKit          3D

 18 16  0  0  0  0  0  0  0  0999 V2000
   -0.6365   -1.8602    0.4294 C   0  0  0  0  0  0  0  0  0  0  0  0
   -1.6980   -0.9682    1.0462 C   0  0  0  0  0  0  0  0  0  0  0  0
   -1.1658   -0.0403    1.9715 O   0  0  0  0  0  0  0  0  0  0  0  0
   -0.0866   -2.3934    1.2061 H   0  0  0  0  0  0  0  0  0  0  0  0
   -1.0909   -2.5925   -0.2412 H   0  0  0  0  0  0  0  0  0  0  0  0
    0.0772   -1.2727   -0.1544 H   0  0  0  0  0  0  0  0  0  0  0  0
   -2.2604   -0.4509    0.2584 H   0  0  0  0  0  0  0  0  0  0  0  0
   -2.4120   -1.5680    1.6122 H   0  0  0  0  0  0  0  0  0  0  0  0
    0.9745    0.7957   -3.0190 C   0  0  0  0  0  0  0  0  0  0  0  0
    0.9745    0.7957   -1.5618 C   0  0  0  0  0  3  0  0  0  0  0  0
    0.9745    0.7957   -0.3633 C   0  0  0  0  0  0  0  0  0  0  0  0
    0.9745    0.7957    1.0940 C   0  0  0  0  0  0  0  0  0  0  0  0
    1.1236    1.8042   -3.4084 H   0  0  0  0  0  0  0  0  0  0  0  0
    0.0266    0.4205   -3.4084 H   0  0  0  0  0  0  0  0  0  0  0  0
    1.7734    0.1623   -3.4084 H   0  0  0  0  0  0  0  0  0  0  0  0
    1.1281    1.8035    1.4833 H   0  0  0  0  0  0  0  0  0  0  0  0
    1.7706    0.1587    1.4833 H   0  0  0  0  0  0  0  0  0  0  0  0
   -0.1651    0.3506    1.5612 H   0  0  0  0  0  0  0  0  0  0  0  0
  1  2  1  0
  1  4  1  0
  1  5  1  0
  1  6  1  0
  2  3  1  0
  2  7  1  0
  2  8  1  0
  3 18  1  0
  9 10  1  0
  9 13  1  0
  9 14  1  0
  9 15  1  0
 10 11  2  0
 11 12  2  0
 12 16  1  0
 12 17  1  0
M  RAD  1  10   2
M  END
>  <reaction>  (18) 
rmg_rxn_388

>  <mol_properties>  (18) 
{"1": {"label": "*4", "atom_type": "Cs"}, "2": {"label": "*3", "atom_type": "O2s"}, "10": {"label": "*0", "atom_type": "Ct"}, "11": {"label": "*1", "atom_type": "Cs"}, "17": {"label": "*2", "atom_type": "H0"}}

>  <type>  (18) 
unop_14

>  <geom_source>  (18) 
gaussian_log

$$$$
