
     RDKit          3D

  6  5  0  0  0  0  0  0  0  0999 V2000
    1.2314    0.0428    0.5088 O   0  0  0  0  0  0  0  0  0  0  0  0
    0.2987    0.2341   -0.4915 N   0  0  0  0  0  0  0  0  0  0  0  0
   -0.8599   -0.1122   -0.1290 C   0  0  0  0  0  0  0  0  0  0  0  0
    2.0507    0.3401    0.1082 H   0  0  0  0  0  0  0  0  0  0  0  0
   -1.0700   -0.5112    0.8610 H   0  0  0  0  0  0  0  0  0  0  0  0
   -1.6509    0.0064   -0.8574 H   0  0  0  0  0  0  0  0  0  0  0  0
  1  2  1  0
  1  4  1  0
  2  3  2  3
  3  5  1  0
  3  6  1  0
M  END
>  <reaction>  (1) 
rmg_rxn_15379

>  <mol_properties>  (1) 
{"2": {"label": "donator", "atom_type": "Cd"}, "4": {"label": "d_hydrogen", "atom_type": "H0"}}

>  <type>  (1) 
r1h

$$$$

     RDKit          3D

  2  1  0  0  0  0  0  0  0  0999 V2000
    0.0000    0.0000    0.4855 O   0  0  0  0  0  1  0  0  0  0  0  0
    0.0000    0.0000   -0.4855 H   0  0  0  0  0  0  0  0  0  0  0  0
  1  2  1  0
M  RAD  1   1   2
M  END
>  <reaction>  (2) 
rmg_rxn_15379

>  <mol_properties>  (2) 
{"0": {"label": "acceptor", "atom_type": "O2s"}}

>  <type>  (2) 
r2

$$$$

     RDKit          3D

  3  2  0  0  0  0  0  0  0  0999 V2000
   -0.0003    0.3867    0.0000 O   0  0  0  0  0  0  0  0  0  0  0  0
   -0.7617   -0.1940    0.0000 H   0  0  0  0  0  0  0  0  0  0  0  0
    0.7620   -0.1927    0.0000 H   0  0  0  0  0  0  0  0  0  0  0  0
  1  2  1  0
  1  3  1  0
M  END
>  <reaction>  (3) 
rmg_rxn_15379

>  <mol_properties>  (3) 
{"0": {"label": "acceptor", "atom_type": "O2s"}, "2": {"label": "a_hydrogen", "atom_type": "H0"}}

>  <type>  (3) 
r2h

$$$$

     RDKit          3D

  8  6  0  0  0  0  0  0  0  0999 V2000
   -1.8870   -0.2615   -0.0850 O   0  0  0  0  0  1  0  0  0  0  0  0
   -2.1578   -0.0909    0.8290 H   0  0  0  0  0  0  0  0  0  0  0  0
    0.7824   -1.0441    0.0199 O   0  0  0  0  0  0  0  0  0  0  0  0
    1.1097    0.2564    0.0639 N   0  0  0  0  0  0  0  0  0  0  0  0
    0.2204    1.1300   -0.0313 C   0  0  0  0  0  0  0  0  0  0  0  0
   -0.2003   -1.0962   -0.0387 H   0  0  0  0  0  0  0  0  0  0  0  0
   -0.8905    0.7690   -0.2051 H   0  0  0  0  0  0  0  0  0  0  0  0
    0.4496    2.1860    0.0411 H   0  0  0  0  0  0  0  0  0  0  0  0
  1  2  1  0
  3  4  1  0
  3  6  1  0
  4  5  2  3
  5  7  1  0
  5  8  1  0
M  RAD  1   1   2
M  END
>  <reaction>  (4) 
rmg_rxn_15379

>  <mol_properties>  (4) 
{"0": {"label": "*3", "atom_type": "O2s"}, "1": {"label": "*4", "atom_type": "H0"}, "3": {"label": "*0", "atom_type": "N3d"}, "4": {"label": "*1", "atom_type": "Cd"}, "6": {"label": "*2", "atom_type": "H0"}}

>  <type>  (4) 
ts

$$$$

     RDKit          3D

  8  6  0  0  0  0  0  0  0  0999 V2000
   -1.7959   -0.1830   -0.0493 O   0  0  0  0  0  0  0  0  0  0  0  0
   -2.2998   -0.0503    0.7548 H   0  0  0  0  0  0  0  0  0  0  0  0
    0.8296   -1.0302    0.0027 O   0  0  0  0  0  0  0  0  0  0  0  0
    1.1043    0.2733    0.0168 N   0  0  0  0  0  0  0  0  0  0  0  0
    0.2477    1.1608   -0.0108 C   0  0  0  0  0  3  0  0  0  0  0  0
   -0.1557   -1.1617   -0.0572 H   0  0  0  0  0  0  0  0  0  0  0  0
   -0.9820    0.6332   -0.0613 H   0  0  0  0  0  0  0  0  0  0  0  0
    0.4783    2.2067   -0.0019 H   0  0  0  0  0  0  0  0  0  0  0  0
  1  2  1  0
  1  7  1  0
  3  4  1  0
  3  6  1  0
  4  5  2  3
  5  8  1  0
M  RAD  1   5   2
M  END
>  <reaction>  (5) 
rmg_rxn_15379

>  <mol_properties>  (5) 
{"0": {"label": "*3", "atom_type": "O2s"}, "1": {"label": "*4", "atom_type": "H0"}, "3": {"label": "*0", "atom_type": "N3d"}, "4": {"label": "*1", "atom_type": "Cd"}, "6": {"label": "*2", "atom_type": "H0"}}

>  <type>  (5) 
unop_1

>  <geom_source>  (5) 
crest_best.xyz

$$$$

     RDKit          3D

  8  6  0  0  0  0  0  0  0  0999 V2000
    0.0130    2.0261   -0.4233 O   0  0  0  0  0  0  0  0  0  0  0  0
   -0.7864    2.5012   -0.1948 H   0  0  0  0  0  0  0  0  0  0  0  0
    0.0130   -1.1452   -0.8539 O   0  0  0  0  0  0  0  0  0  0  0  0
    0.0130   -1.1452    0.5271 N   0  0  0  0  0  0  0  0  0  0  0  0
    0.0130    0.0256    0.9991 C   0  0  0  0  0  3  0  0  0  0  0  0
    0.0130   -2.0783   -1.0759 H   0  0  0  0  0  0  0  0  0  0  0  0
    0.0130    1.0896    0.2426 H   0  0  0  0  0  0  0  0  0  0  0  0
    0.0130    0.1130    2.0774 H   0  0  0  0  0  0  0  0  0  0  0  0
  1  2  1  0
  1  7  1  0
  3  4  1  0
  3  6  1  0
  4  5  2  3
  5  8  1  0
M  RAD  1   5   2
M  END
>  <reaction>  (6) 
rmg_rxn_15379

>  <mol_properties>  (6) 
{"0": {"label": "*3", "atom_type": "O2s"}, "1": {"label": "*4", "atom_type": "H0"}, "3": {"label": "*0", "atom_type": "N3d"}, "4": {"label": "*1", "atom_type": "Cd"}, "6": {"label": "*2", "atom_type": "H0"}}

>  <type>  (6) 
unop_2

>  <geom_source>  (6) 
Heuristics

$$$$

     RDKit          3D

  8  6  0  0  0  0  0  0  0  0999 V2000
    0.0075    2.0380   -0.4066 O   0  0  0  0  0  0  0  0  0  0  0  0
   -0.4540    1.7824   -1.2057 H   0  0  0  0  0  0  0  0  0  0  0  0
    0.0075   -1.1333   -0.8372 O   0  0  0  0  0  0  0  0  0  0  0  0
    0.0075   -1.1333    0.5438 N   0  0  0  0  0  0  0  0  0  0  0  0
    0.0075    0.0375    1.0158 C   0  0  0  0  0  3  0  0  0  0  0  0
    0.0075   -2.0664   -1.0592 H   0  0  0  0  0  0  0  0  0  0  0  0
    0.0075    1.1015    0.2593 H   0  0  0  0  0  0  0  0  0  0  0  0
    0.0075    0.1249    2.0941 H   0  0  0  0  0  0  0  0  0  0  0  0
  1  2  1  0
  1  7  1  0
  3  4  1  0
  3  6  1  0
  4  5  2  3
  5  8  1  0
M  RAD  1   5   2
M  END
>  <reaction>  (7) 
rmg_rxn_15379

>  <mol_properties>  (7) 
{"0": {"label": "*3", "atom_type": "O2s"}, "1": {"label": "*4", "atom_type": "H0"}, "3": {"label": "*0", "atom_type": "N3d"}, "4": {"label": "*1", "atom_type": "Cd"}, "6": {"label": "*2", "atom_type": "H0"}}

>  <type>  (7) 
unop_3

>  <geom_source>  (7) 
Heuristics

$$$$

     RDKit          3D

  8  6  0  0  0  0  0  0  0  0999 V2000
    0.0075    2.0229   -0.4277 O   0  0  0  0  0  0  0  0  0  0  0  0
   -0.4540    2.6938    0.0761 H   0  0  0  0  0  0  0  0  0  0  0  0
    0.0075   -1.1484   -0.8583 O   0  0  0  0  0  0  0  0  0  0  0  0
    0.0075   -1.1484    0.5226 N   0  0  0  0  0  0  0  0  0  0  0  0
    0.0075    0.0224    0.9946 C   0  0  0  0  0  3  0  0  0  0  0  0
    0.0075   -2.0815   -1.0803 H   0  0  0  0  0  0  0  0  0  0  0  0
    0.0075    1.0864    0.2381 H   0  0  0  0  0  0  0  0  0  0  0  0
    0.0075    0.1099    2.0729 H   0  0  0  0  0  0  0  0  0  0  0  0
  1  2  1  0
  1  7  1  0
  3  4  1  0
  3  6  1  0
  4  5  2  3
  5  8  1  0
M  RAD  1   5   2
M  END
>  <reaction>  (8) 
rmg_rxn_15379

>  <mol_properties>  (8) 
{"0": {"label": "*3", "atom_type": "O2s"}, "1": {"label": "*4", "atom_type": "H0"}, "3": {"label": "*0", "atom_type": "N3d"}, "4": {"label": "*1", "atom_type": "Cd"}, "6": {"label": "*2", "atom_type": "H0"}}

>  <type>  (8) 
unop_4

>  <geom_source>  (8) 
Heuristics

$$$$

     RDKit          3D

  8  6  0  0  0  0  0  0  0  0999 V2000
   -0.0130    2.0348   -0.4110 O   0  0  0  0  0  0  0  0  0  0  0  0
    0.7864    1.9750   -0.9348 H   0  0  0  0  0  0  0  0  0  0  0  0
   -0.0130   -1.1365   -0.8416 O   0  0  0  0  0  0  0  0  0  0  0  0
   -0.0130   -1.1365    0.5393 N   0  0  0  0  0  0  0  0  0  0  0  0
   -0.0130    0.0343    1.0113 C   0  0  0  0  0  3  0  0  0  0  0  0
   -0.0130   -2.0696   -1.0636 H   0  0  0  0  0  0  0  0  0  0  0  0
   -0.0130    1.0983    0.2548 H   0  0  0  0  0  0  0  0  0  0  0  0
   -0.0130    0.1217    2.0896 H   0  0  0  0  0  0  0  0  0  0  0  0
  1  2  1  0
  1  7  1  0
  3  4  1  0
  3  6  1  0
  4  5  2  3
  5  8  1  0
M  RAD  1   5   2
M  END
>  <reaction>  (9) 
rmg_rxn_15379

>  <mol_properties>  (9) 
{"0": {"label": "*3", "atom_type": "O2s"}, "1": {"label": "*4", "atom_type": "H0"}, "3": {"label": "*0", "atom_type": "N3d"}, "4": {"label": "*1", "atom_type": "Cd"}, "6": {"label": "*2", "atom_type": "H0"}}

>  <type>  (9) 
unop_5

>  <geom_source>  (9) 
Heuristics

$$$$

     RDKit          3D

  8  6  0  0  0  0  0  0  0  0999 V2000
    0.0000    2.0218   -0.4294 O   0  0  0  0  0  0  0  0  0  0  0  0
    0.0000    2.7643    0.1753 H   0  0  0  0  0  0  0  0  0  0  0  0
   -0.0000   -1.1495   -0.8600 O   0  0  0  0  0  0  0  0  0  0  0  0
   -0.0000   -1.1495    0.5210 N   0  0  0  0  0  0  0  0  0  0  0  0
   -0.0000    0.0213    0.9930 C   0  0  0  0  0  3  0  0  0  0  0  0
   -0.0000   -2.0827   -1.0820 H   0  0  0  0  0  0  0  0  0  0  0  0
    0.0000    1.0853    0.2365 H   0  0  0  0  0  0  0  0  0  0  0  0
   -0.0000    0.1087    2.0713 H   0  0  0  0  0  0  0  0  0  0  0  0
  1  2  1  0
  1  7  1  0
  3  4  1  0
  3  6  1  0
  4  5  2  3
  5  8  1  0
M  RAD  1   5   2
M  END
>  <reaction>  (10) 
rmg_rxn_15379

>  <mol_properties>  (10) 
{"0": {"label": "*3", "atom_type": "O2s"}, "1": {"label": "*4", "atom_type": "H0"}, "3": {"label": "*0", "atom_type": "N3d"}, "4": {"label": "*1", "atom_type": "Cd"}, "6": {"label": "*2", "atom_type": "H0"}}

>  <type>  (10) 
unop_6

>  <geom_source>  (10) 
Heuristics

$$$$

     RDKit          3D

  8  6  0  0  0  0  0  0  0  0999 V2000
   -0.0150    2.0305   -0.4172 O   0  0  0  0  0  0  0  0  0  0  0  0
    0.9081    2.2381   -0.5648 H   0  0  0  0  0  0  0  0  0  0  0  0
   -0.0150   -1.1408   -0.8477 O   0  0  0  0  0  0  0  0  0  0  0  0
   -0.0150   -1.1408    0.5332 N   0  0  0  0  0  0  0  0  0  0  0  0
   -0.0150    0.0300    1.0052 C   0  0  0  0  0  3  0  0  0  0  0  0
   -0.0150   -2.0740   -1.0698 H   0  0  0  0  0  0  0  0  0  0  0  0
   -0.0150    1.0939    0.2487 H   0  0  0  0  0  0  0  0  0  0  0  0
   -0.0150    0.1174    2.0835 H   0  0  0  0  0  0  0  0  0  0  0  0
  1  2  1  0
  1  7  1  0
  3  4  1  0
  3  6  1  0
  4  5  2  3
  5  8  1  0
M  RAD  1   5   2
M  END
>  <reaction>  (11) 
rmg_rxn_15379

>  <mol_properties>  (11) 
{"0": {"label": "*3", "atom_type": "O2s"}, "1": {"label": "*4", "atom_type": "H0"}, "3": {"label": "*0", "atom_type": "N3d"}, "4": {"label": "*1", "atom_type": "Cd"}, "6": {"label": "*2", "atom_type": "H0"}}

>  <type>  (11) 
unop_7

>  <geom_source>  (11) 
Heuristics

$$$$

     RDKit          3D

  8  6  0  0  0  0  0  0  0  0999 V2000
   -1.7960   -0.1831    0.0493 O   0  0  0  0  0  0  0  0  0  0  0  0
   -2.3005   -0.0499   -0.7543 H   0  0  0  0  0  0  0  0  0  0  0  0
    0.8297   -1.0302   -0.0027 O   0  0  0  0  0  0  0  0  0  0  0  0
    1.1043    0.2733   -0.0167 N   0  0  0  0  0  0  0  0  0  0  0  0
    0.2476    1.1608    0.0107 C   0  0  0  0  0  3  0  0  0  0  0  0
   -0.1556   -1.1618    0.0570 H   0  0  0  0  0  0  0  0  0  0  0  0
   -0.9820    0.6331    0.0612 H   0  0  0  0  0  0  0  0  0  0  0  0
    0.4783    2.2067    0.0021 H   0  0  0  0  0  0  0  0  0  0  0  0
  1  2  1  0
  1  7  1  0
  3  4  1  0
  3  6  1  0
  4  5  2  3
  5  8  1  0
M  RAD  1   5   2
M  END
>  <reaction>  (12) 
rmg_rxn_15379

>  <mol_properties>  (12) 
{"0": {"label": "*3", "atom_type": "O2s"}, "1": {"label": "*4", "atom_type": "H0"}, "3": {"label": "*0", "atom_type": "N3d"}, "4": {"label": "*1", "atom_type": "Cd"}, "6": {"label": "*2", "atom_type": "H0"}}

>  <type>  (12) 
unop_8

>  <geom_source>  (12) 
Heuristics

$$$$

     RDKit          3D

  8  6  0  0  0  0  0  0  0  0999 V2000
   -0.0130    2.0261   -0.4233 O   0  0  0  0  0  0  0  0  0  0  0  0
    0.7864    2.5012   -0.1948 H   0  0  0  0  0  0  0  0  0  0  0  0
   -0.0130   -1.1452   -0.8539 O   0  0  0  0  0  0  0  0  0  0  0  0
   -0.0130   -1.1452    0.5271 N   0  0  0  0  0  0  0  0  0  0  0  0
   -0.0130    0.0256    0.9991 C   0  0  0  0  0  3  0  0  0  0  0  0
   -0.0130   -2.0783   -1.0759 H   0  0  0  0  0  0  0  0  0  0  0  0
   -0.0130    1.0896    0.2426 H   0  0  0  0  0  0  0  0  0  0  0  0
   -0.0130    0.1130    2.0774 H   0  0  0  0  0  0  0  0  0  0  0  0
  1  2  1  0
  1  7  1  0
  3  4  1  0
  3  6  1  0
  4  5  2  3
  5  8  1  0
M  RAD  1   5   2
M  END
>  <reaction>  (13) 
rmg_rxn_15379

>  <mol_properties>  (13) 
{"0": {"label": "*3", "atom_type": "O2s"}, "1": {"label": "*4", "atom_type": "H0"}, "3": {"label": "*0", "atom_type": "N3d"}, "4": {"label": "*1", "atom_type": "Cd"}, "6": {"label": "*2", "atom_type": "H0"}}

>  <type>  (13) 
unop_9

>  <geom_source>  (13) 
Heuristics

$$$$

     RDKit          3D

  8  6  0  0  0  0  0  0  0  0999 V2000
    0.0150    2.0305   -0.4172 O   0  0  0  0  0  0  0  0  0  0  0  0
   -0.9081    2.2381   -0.5648 H   0  0  0  0  0  0  0  0  0  0  0  0
    0.0150   -1.1408   -0.8477 O   0  0  0  0  0  0  0  0  0  0  0  0
    0.0150   -1.1408    0.5332 N   0  0  0  0  0  0  0  0  0  0  0  0
    0.0150    0.0300    1.0052 C   0  0  0  0  0  3  0  0  0  0  0  0
    0.0150   -2.0740   -1.0698 H   0  0  0  0  0  0  0  0  0  0  0  0
    0.0150    1.0939    0.2487 H   0  0  0  0  0  0  0  0  0  0  0  0
    0.0150    0.1174    2.0835 H   0  0  0  0  0  0  0  0  0  0  0  0
  1  2  1  0
  1  7  1  0
  3  4  1  0
  3  6  1  0
  4  5  2  3
  5  8  1  0
M  RAD  1   5   2
M  END
>  <reaction>  (14) 
rmg_rxn_15379

>  <mol_properties>  (14) 
{"0": {"label": "*3", "atom_type": "O2s"}, "1": {"label": "*4", "atom_type": "H0"}, "3": {"label": "*0", "atom_type": "N3d"}, "4": {"label": "*1", "atom_type": "Cd"}, "6": {"label": "*2", "atom_type": "H0"}}

>  <type>  (14) 
unop_10

>  <geom_source>  (14) 
Heuristics

$$$$

     RDKit          3D

  8  6  0  0  0  0  0  0  0  0999 V2000
   -1.7959   -0.1830   -0.0493 O   0  0  0  0  0  0  0  0  0  0  0  0
   -2.2998   -0.0503    0.7548 H   0  0  0  0  0  0  0  0  0  0  0  0
    0.8296   -1.0302    0.0027 O   0  0  0  0  0  0  0  0  0  0  0  0
    1.1043    0.2733    0.0168 N   0  0  0  0  0  0  0  0  0  0  0  0
    0.2477    1.1608   -0.0108 C   0  0  0  0  0  3  0  0  0  0  0  0
   -0.1557   -1.1617   -0.0572 H   0  0  0  0  0  0  0  0  0  0  0  0
   -0.9820    0.6332   -0.0613 H   0  0  0  0  0  0  0  0  0  0  0  0
    0.4783    2.2067   -0.0019 H   0  0  0  0  0  0  0  0  0  0  0  0
  1  2  1  0
  1  7  1  0
  3  4  1  0
  3  6  1  0
  4  5  2  3
  5  8  1  0
M  RAD  1   5   2
M  END
>  <reaction>  (15) 
rmg_rxn_15379

>  <mol_properties>  (15) 
{"0": {"label": "*3", "atom_type": "O2s"}, "1": {"label": "*4", "atom_type": "H0"}, "3": {"label": "*0", "atom_type": "N3d"}, "4": {"label": "*1", "atom_type": "Cd"}, "6": {"label": "*2", "atom_type": "H0"}}

>  <type>  (15) 
unop_11

>  <geom_source>  (15) 
Heuristics

$$$$

     RDKit          3D

  8  6  0  0  0  0  0  0  0  0999 V2000
   -0.0075    2.0380   -0.4066 O   0  0  0  0  0  0  0  0  0  0  0  0
    0.4540    1.7824   -1.2057 H   0  0  0  0  0  0  0  0  0  0  0  0
   -0.0075   -1.1333   -0.8372 O   0  0  0  0  0  0  0  0  0  0  0  0
   -0.0075   -1.1333    0.5438 N   0  0  0  0  0  0  0  0  0  0  0  0
   -0.0075    0.0375    1.0158 C   0  0  0  0  0  3  0  0  0  0  0  0
   -0.0075   -2.0664   -1.0592 H   0  0  0  0  0  0  0  0  0  0  0  0
   -0.0075    1.1015    0.2593 H   0  0  0  0  0  0  0  0  0  0  0  0
   -0.0075    0.1249    2.0941 H   0  0  0  0  0  0  0  0  0  0  0  0
  1  2  1  0
  1  7  1  0
  3  4  1  0
  3  6  1  0
  4  5  2  3
  5  8  1  0
M  RAD  1   5   2
M  END
>  <reaction>  (16) 
rmg_rxn_15379

>  <mol_properties>  (16) 
{"0": {"label": "*3", "atom_type": "O2s"}, "1": {"label": "*4", "atom_type": "H0"}, "3": {"label": "*0", "atom_type": "N3d"}, "4": {"label": "*1", "atom_type": "Cd"}, "6": {"label": "*2", "atom_type": "H0"}}

>  <type>  (16) 
unop_12

>  <geom_source>  (16) 
Heuristics

$$$$

     RDKit          3D

  8  6  0  0  0  0  0  0  0  0999 V2000
    0.0130    2.0348   -0.4110 O   0  0  0  0  0  0  0  0  0  0  0  0
   -0.7864    1.9750   -0.9348 H   0  0  0  0  0  0  0  0  0  0  0  0
    0.0130   -1.1365   -0.8416 O   0  0  0  0  0  0  0  0  0  0  0  0
    0.0130   -1.1365    0.5393 N   0  0  0  0  0  0  0  0  0  0  0  0
    0.0130    0.0343    1.0113 C   0  0  0  0  0  3  0  0  0  0  0  0
    0.0130   -2.0696   -1.0636 H   0  0  0  0  0  0  0  0  0  0  0  0
    0.0130    1.0983    0.2548 H   0  0  0  0  0  0  0  0  0  0  0  0
    0.0130    0.1217    2.0896 H   0  0  0  0  0  0  0  0  0  0  0  0
  1  2  1  0
  1  7  1  0
  3  4  1  0
  3  6  1  0
  4  5  2  3
  5  8  1  0
M  RAD  1   5   2
M  END
>  <reaction>  (17) 
rmg_rxn_15379

>  <mol_properties>  (17) 
{"0": {"label": "*3", "atom_type": "O2s"}, "1": {"label": "*4", "atom_type": "H0"}, "3": {"label": "*0", "atom_type": "N3d"}, "4": {"label": "*1", "atom_type": "Cd"}, "6": {"label": "*2", "atom_type": "H0"}}

>  <type>  (17) 
unop_13

>  <geom_source>  (17) 
Heuristics

$$$$

     RDKit          3D

  8  6  0  0  0  0  0  0  0  0999 V2000
   -0.0075    2.0229   -0.4277 O   0  0  0  0  0  0  0  0  0  0  0  0
    0.4540    2.6938    0.0761 H   0  0  0  0  0  0  0  0  0  0  0  0
   -0.0075   -1.1484   -0.8583 O   0  0  0  0  0  0  0  0  0  0  0  0
   -0.0075   -1.1484    0.5226 N   0  0  0  0  0  0  0  0  0  0  0  0
   -0.0075    0.0224    0.9946 C   0  0  0  0  0  3  0  0  0  0  0  0
   -0.0075   -2.0815   -1.0803 H   0  0  0  0  0  0  0  0  0  0  0  0
   -0.0075    1.0864    0.2381 H   0  0  0  0  0  0  0  0  0  0  0  0
   -0.0075    0.1099    2.0729 H   0  0  0  0  0  0  0  0  0  0  0  0
  1  2  1  0
  1  7  1  0
  3  4  1  0
  3  6  1  0
  4  5  2  3
  5  8  1  0
M  RAD  1   5   2
M  END
>  <reaction>  (18) 
rmg_rxn_15379

>  <mol_properties>  (18) 
{"0": {"label": "*3", "atom_type": "O2s"}, "1": {"label": "*4", "atom_type": "H0"}, "3": {"label": "*0", "atom_type": "N3d"}, "4": {"label": "*1", "atom_type": "Cd"}, "6": {"label": "*2", "atom_type": "H0"}}

>  <type>  (18) 
unop_14

>  <geom_source>  (18) 
Heuristics

$$$$

     RDKit          3D

  8  6  0  0  0  0  0  0  0  0999 V2000
    0.0000    2.0391   -0.4049 O   0  0  0  0  0  0  0  0  0  0  0  0
    0.0000    1.7119   -1.3049 H   0  0  0  0  0  0  0  0  0  0  0  0
   -0.0000   -1.1321   -0.8355 O   0  0  0  0  0  0  0  0  0  0  0  0
   -0.0000   -1.1321    0.5454 N   0  0  0  0  0  0  0  0  0  0  0  0
   -0.0000    0.0386    1.0174 C   0  0  0  0  0  3  0  0  0  0  0  0
   -0.0000   -2.0653   -1.0575 H   0  0  0  0  0  0  0  0  0  0  0  0
    0.0000    1.1026    0.2609 H   0  0  0  0  0  0  0  0  0  0  0  0
   -0.0000    0.1261    2.0957 H   0  0  0  0  0  0  0  0  0  0  0  0
  1  2  1  0
  1  7  1  0
  3  4  1  0
  3  6  1  0
  4  5  2  3
  5  8  1  0
M  RAD  1   5   2
M  END
>  <reaction>  (19) 
rmg_rxn_15379

>  <mol_properties>  (19) 
{"0": {"label": "*3", "atom_type": "O2s"}, "1": {"label": "*4", "atom_type": "H0"}, "3": {"label": "*0", "atom_type": "N3d"}, "4": {"label": "*1", "atom_type": "Cd"}, "6": {"label": "*2", "atom_type": "H0"}}

>  <type>  (19) 
unop_15

>  <geom_source>  (19) 
Heuristics

$$$$

     RDKit          3D

  8  6  0  0  0  0  0  0  0  0999 V2000
   -1.7359   -0.5868   -0.1772 O   0  0  0  0  0  0  0  0  0  0  0  0
    2.0031   -0.3460   -0.1386 O   0  0  0  0  0  0  0  0  0  0  0  0
   -1.0997    0.6304   -0.1323 N   0  0  0  0  0  0  0  0  0  0  0  0
   -0.0123    0.7654    0.5493 C   0  0  0  0  0  3  0  0  0  0  0  0
   -2.5888   -0.6927   -0.7119 H   0  0  0  0  0  0  0  0  0  0  0  0
    0.4882    1.7233    0.5846 H   0  0  0  0  0  0  0  0  0  0  0  0
    1.9938   -1.2913   -0.4333 H   0  0  0  0  0  0  0  0  0  0  0  0
    0.9516   -0.2024    0.4595 H   0  0  0  0  0  0  0  0  0  0  0  0
  1  3  1  0
  1  5  1  0
  2  7  1  0
  2  8  1  0
  3  4  2  3
  4  6  1  0
M  RAD  1   4   2
M  END
>  <reaction>  (20) 
rmg_rxn_15379

>  <mol_properties>  (20) 
{"0": {"label": "*3", "atom_type": "O2s"}, "1": {"label": "*4", "atom_type": "H0"}, "3": {"label": "*0", "atom_type": "N3d"}, "4": {"label": "*1", "atom_type": "Cd"}, "6": {"label": "*2", "atom_type": "H0"}}

>  <type>  (20) 
unop_16

>  <geom_source>  (20) 
AutoTST

$$$$

     RDKit          3D

  8  6  0  0  0  0  0  0  0  0999 V2000
    0.0130    2.0348   -0.4111 O   0  0  0  0  0  0  0  0  0  0  0  0
   -0.7864    1.9750   -0.9348 H   0  0  0  0  0  0  0  0  0  0  0  0
    0.0130   -1.1365   -0.8416 O   0  0  0  0  0  0  0  0  0  0  0  0
    0.0130   -1.1365    0.5393 N   0  0  0  0  0  0  0  0  0  0  0  0
    0.0130    0.0343    1.0113 C   0  0  0  0  0  3  0  0  0  0  0  0
    0.0130   -2.0696   -1.0636 H   0  0  0  0  0  0  0  0  0  0  0  0
    0.0130    1.0983    0.2548 H   0  0  0  0  0  0  0  0  0  0  0  0
    0.0130    0.1217    2.0896 H   0  0  0  0  0  0  0  0  0  0  0  0
  1  2  1  0
  1  7  1  0
  3  4  1  0
  3  6  1  0
  4  5  2  3
  5  8  1  0
M  RAD  1   5   2
M  END
>  <reaction>  (21) 
rmg_rxn_15379

>  <mol_properties>  (21) 
{"0": {"label": "*3", "atom_type": "O2s"}, "1": {"label": "*4", "atom_type": "H0"}, "3": {"label": "*0", "atom_type": "N3d"}, "4": {"label": "*1", "atom_type": "Cd"}, "6": {"label": "*2", "atom_type": "H0"}}

>  <type>  (21) 
unop_17

>  <geom_source>  (21) 
gaussian_log

$$$$
