
     RDKit          3D

 15 14  0  0  0  0  0  0  0  0999 V2000
   -2.0554    0.0723   -0.4910 C   0  0  0  0  0  0  0  0  0  0  0  0
   -0.7461   -0.6266   -0.8178 C   0  0  0  0  0  0  0  0  0  0  0  0
    0.3249    0.2591   -1.9782 S   0  0  0  0  0  0  0  0  0  0  0  0
   -0.7172    0.3642   -3.4551 C   0  0  0  0  0  0  0  0  0  0  0  0
   -1.1375   -0.9737   -4.0409 C   0  0  0  0  0  0  0  0  0  0  0  0
   -2.7005    0.1427   -1.3684 H   0  0  0  0  0  0  0  0  0  0  0  0
   -2.6016   -0.4848    0.2733 H   0  0  0  0  0  0  0  0  0  0  0  0
   -1.8758    1.0825   -0.1213 H   0  0  0  0  0  0  0  0  0  0  0  0
   -0.1320   -0.7246    0.0789 H   0  0  0  0  0  0  0  0  0  0  0  0
   -0.9254   -1.6374   -1.1879 H   0  0  0  0  0  0  0  0  0  0  0  0
   -1.5873    0.9874   -3.2422 H   0  0  0  0  0  0  0  0  0  0  0  0
   -0.1021    0.9161   -4.1678 H   0  0  0  0  0  0  0  0  0  0  0  0
   -1.7876   -1.5224   -3.3574 H   0  0  0  0  0  0  0  0  0  0  0  0
   -0.2676   -1.5962   -4.2534 H   0  0  0  0  0  0  0  0  0  0  0  0
   -1.6916   -0.8229   -4.9700 H   0  0  0  0  0  0  0  0  0  0  0  0
  1  2  1  0
  1  6  1  0
  1  7  1  0
  1  8  1  0
  2  3  1  0
  2  9  1  0
  2 10  1  0
  3  4  1  0
  4  5  1  0
  4 11  1  0
  4 12  1  0
  5 13  1  0
  5 14  1  0
  5 15  1  0
M  END
>  <reaction>  (1) 
rmg_rxn_63

>  <mol_properties>  (1) 
{"1": {"label": "donator", "atom_type": "Cs"}, "8": {"label": "d_hydrogen", "atom_type": "H0"}}

>  <type>  (1) 
r1h

$$$$

     RDKit          3D

 13 12  0  0  0  0  0  0  0  0999 V2000
    1.9060    0.2628    0.3980 C   0  0  0  0  0  0  0  0  0  0  0  0
    0.6330   -0.4250    0.0685 C   0  0  0  0  0  3  0  0  0  0  0  0
   -0.2610   -0.9325    1.1416 C   0  0  0  0  0  0  0  0  0  0  0  0
   -1.4364   -1.7546    0.6268 C   0  0  0  0  0  0  0  0  0  0  0  0
    2.4899   -0.3070    1.1292 H   0  0  0  0  0  0  0  0  0  0  0  0
    1.7297    1.2496    0.8515 H   0  0  0  0  0  0  0  0  0  0  0  0
    2.5269    0.4197   -0.4845 H   0  0  0  0  0  0  0  0  0  0  0  0
    0.2597   -0.3936   -0.9489 H   0  0  0  0  0  0  0  0  0  0  0  0
   -0.6439   -0.0868    1.7356 H   0  0  0  0  0  0  0  0  0  0  0  0
    0.3260   -1.5277    1.8536 H   0  0  0  0  0  0  0  0  0  0  0  0
   -1.0872   -2.6320    0.0792 H   0  0  0  0  0  0  0  0  0  0  0  0
   -2.0701   -2.0976    1.4459 H   0  0  0  0  0  0  0  0  0  0  0  0
   -2.0561   -1.1637   -0.0512 H   0  0  0  0  0  0  0  0  0  0  0  0
  1  2  1  0
  1  5  1  0
  1  6  1  0
  1  7  1  0
  2  3  1  0
  2  8  1  0
  3  4  1  0
  3  9  1  0
  3 10  1  0
  4 11  1  0
  4 12  1  0
  4 13  1  0
M  RAD  1   2   2
M  END
>  <reaction>  (2) 
rmg_rxn_63

>  <mol_properties>  (2) 
{"1": {"label": "acceptor", "atom_type": "Cs"}}

>  <type>  (2) 
r2

$$$$

     RDKit          3D

 14 13  0  0  0  0  0  0  0  0999 V2000
    1.8106   -0.5953    0.5577 C   0  0  0  0  0  0  0  0  0  0  0  0
    0.5197    0.2064    0.6554 C   0  0  0  0  0  0  0  0  0  0  0  0
   -0.5206   -0.2080   -0.3788 C   0  0  0  0  0  0  0  0  0  0  0  0
   -1.8114    0.5937   -0.2812 C   0  0  0  0  0  0  0  0  0  0  0  0
    2.2725   -0.4752   -0.4251 H   0  0  0  0  0  0  0  0  0  0  0  0
    1.6214   -1.6612    0.7052 H   0  0  0  0  0  0  0  0  0  0  0  0
    2.5364   -0.2784    1.3084 H   0  0  0  0  0  0  0  0  0  0  0  0
    0.0930    0.0950    1.6574 H   0  0  0  0  0  0  0  0  0  0  0  0
    0.7393    1.2723    0.5354 H   0  0  0  0  0  0  0  0  0  0  0  0
   -0.7402   -1.2739   -0.2588 H   0  0  0  0  0  0  0  0  0  0  0  0
   -0.0938   -0.0965   -1.3808 H   0  0  0  0  0  0  0  0  0  0  0  0
   -1.6222    1.6596   -0.4287 H   0  0  0  0  0  0  0  0  0  0  0  0
   -2.2734    0.4736    0.7017 H   0  0  0  0  0  0  0  0  0  0  0  0
   -2.5373    0.2768   -1.0318 H   0  0  0  0  0  0  0  0  0  0  0  0
  1  2  1  0
  1  5  1  0
  1  6  1  0
  1  7  1  0
  2  3  1  0
  2  8  1  0
  2  9  1  0
  3  4  1  0
  3 10  1  0
  3 11  1  0
  4 12  1  0
  4 13  1  0
  4 14  1  0
M  END
>  <reaction>  (3) 
rmg_rxn_63

>  <mol_properties>  (3) 
{"1": {"label": "acceptor", "atom_type": "Cs"}, "13": {"label": "a_hydrogen", "atom_type": "H0"}}

>  <type>  (3) 
r2h

$$$$

     RDKit          3D

 28 26  0  0  0  0  0  0  0  0999 V2000
   -0.8937   -3.1343    0.3534 C   0  0  0  0  0  0  0  0  0  0  0  0
   -1.5571   -1.7855    0.2655 C   0  0  0  0  0  0  0  0  0  0  0  0
   -1.9778   -1.1628    1.5723 C   0  0  0  0  0  0  0  0  0  0  0  0
   -2.5855    0.2250    1.4166 C   0  0  0  0  0  0  0  0  0  0  0  0
   -1.5751   -3.8850    0.7683 H   0  0  0  0  0  0  0  0  0  0  0  0
   -0.0162   -3.0928    1.0035 H   0  0  0  0  0  0  0  0  0  0  0  0
   -0.5707   -3.4876   -0.6274 H   0  0  0  0  0  0  0  0  0  0  0  0
   -2.3340   -1.7313   -0.5006 H   0  0  0  0  0  0  0  0  0  0  0  0
   -1.1119   -1.1127    2.2407 H   0  0  0  0  0  0  0  0  0  0  0  0
   -2.6996   -1.8281    2.0647 H   0  0  0  0  0  0  0  0  0  0  0  0
   -3.4383    0.2052    0.7337 H   0  0  0  0  0  0  0  0  0  0  0  0
   -2.9319    0.6142    2.3750 H   0  0  0  0  0  0  0  0  0  0  0  0
   -1.8486    0.9263    1.0210 H   0  0  0  0  0  0  0  0  0  0  0  0
   -0.2784    0.7350   -1.7074 C   0  0  0  0  0  0  0  0  0  0  0  0
    0.3875   -0.2465   -0.7807 C   0  0  0  0  0  3  0  0  0  0  0  0
    1.2222    0.4011    0.6517 S   0  0  0  0  0  0  0  0  0  0  0  0
    2.4711    1.5012   -0.0791 C   0  0  0  0  0  0  0  0  0  0  0  0
    3.4786    0.8007   -0.9739 C   0  0  0  0  0  0  0  0  0  0  0  0
    0.4523    1.3356   -2.2586 H   0  0  0  0  0  0  0  0  0  0  0  0
   -0.8873    0.2074   -2.4456 H   0  0  0  0  0  0  0  0  0  0  0  0
   -0.9238    1.4200   -1.1552 H   0  0  0  0  0  0  0  0  0  0  0  0
   -0.6122   -0.9856   -0.2361 H   0  0  0  0  0  0  0  0  0  0  0  0
    0.9643   -1.0166   -1.2925 H   0  0  0  0  0  0  0  0  0  0  0  0
    1.9648    2.3066   -0.6137 H   0  0  0  0  0  0  0  0  0  0  0  0
    2.9652    1.9512    0.7837 H   0  0  0  0  0  0  0  0  0  0  0  0
    2.9912    0.3553   -1.8430 H   0  0  0  0  0  0  0  0  0  0  0  0
    3.9937    0.0064   -0.4326 H   0  0  0  0  0  0  0  0  0  0  0  0
    4.2235    1.5117   -1.3388 H   0  0  0  0  0  0  0  0  0  0  0  0
  1  2  1  0
  1  5  1  0
  1  6  1  0
  1  7  1  0
  2  3  1  0
  2  8  1  0
  2 22  1  0
  3  4  1  0
  3  9  1  0
  3 10  1  0
  4 11  1  0
  4 12  1  0
  4 13  1  0
 14 15  1  0
 14 19  1  0
 14 20  1  0
 14 21  1  0
 15 16  1  0
 15 23  1  0
 16 17  1  0
 17 18  1  0
 17 24  1  0
 17 25  1  0
 18 26  1  0
 18 27  1  0
 18 28  1  0
M  RAD  1  15   2
M  END
>  <reaction>  (4) 
rmg_rxn_63

>  <mol_properties>  (4) 
{"1": {"label": "*1", "atom_type": "Cs"}, "2": {"label": "*0", "atom_type": "Cs"}, "14": {"label": "*3", "atom_type": "Cs"}, "15": {"label": "*4", "atom_type": "S2s"}, "21": {"label": "*2", "atom_type": "H0"}}

>  <type>  (4) 
ts

$$$$

     RDKit          3D

 28 26  0  0  0  0  0  0  0  0999 V2000
   -3.2962   -1.2072   -0.1522 C   0  0  0  0  0  0  0  0  0  0  0  0
   -1.8474   -1.1833    0.3156 C   0  0  0  0  0  3  0  0  0  0  0  0
   -1.4737   -2.3928    1.1647 C   0  0  0  0  0  0  0  0  0  0  0  0
   -0.0249   -2.3689    1.6325 C   0  0  0  0  0  0  0  0  0  0  0  0
   -3.9819   -1.2239    0.6983 H   0  0  0  0  0  0  0  0  0  0  0  0
   -3.4979   -2.0953   -0.7560 H   0  0  0  0  0  0  0  0  0  0  0  0
   -3.5362   -0.3312   -0.7570 H   0  0  0  0  0  0  0  0  0  0  0  0
   -1.6622   -0.2706    0.8911 H   0  0  0  0  0  0  0  0  0  0  0  0
   -1.6588   -3.3056    0.5891 H   0  0  0  0  0  0  0  0  0  0  0  0
   -2.1392   -2.4406    2.0327 H   0  0  0  0  0  0  0  0  0  0  0  0
    0.1768   -1.4809    2.2362 H   0  0  0  0  0  0  0  0  0  0  0  0
    0.2151   -3.2449    2.2372 H   0  0  0  0  0  0  0  0  0  0  0  0
    0.6608   -2.3522    0.7820 H   0  0  0  0  0  0  0  0  0  0  0  0
    0.3431   -0.0682   -2.1207 C   0  0  0  0  0  0  0  0  0  0  0  0
    0.3431   -0.0682   -0.6010 C   0  0  0  0  0  0  0  0  0  0  0  0
    0.3431    1.5729    0.1639 S   0  0  0  0  0  0  0  0  0  0  0  0
    1.8837    2.2868   -0.4647 C   0  0  0  0  0  0  0  0  0  0  0  0
    3.1446    1.5279   -0.0855 C   0  0  0  0  0  0  0  0  0  0  0  0
    1.2661    0.3553   -2.5202 H   0  0  0  0  0  0  0  0  0  0  0  0
    0.2605   -1.0894   -2.4994 H   0  0  0  0  0  0  0  0  0  0  0  0
   -0.4926    0.5142   -2.5102 H   0  0  0  0  0  0  0  0  0  0  0  0
   -0.7504   -0.6249   -0.1435 H   0  0  0  0  0  0  0  0  0  0  0  0
    1.1793   -0.6509   -0.2110 H   0  0  0  0  0  0  0  0  0  0  0  0
    1.8125    2.4090   -1.5468 H   0  0  0  0  0  0  0  0  0  0  0  0
    1.8988    3.2900   -0.0354 H   0  0  0  0  0  0  0  0  0  0  0  0
    3.1658    0.5361   -0.5402 H   0  0  0  0  0  0  0  0  0  0  0  0
    3.2153    1.4059    0.9959 H   0  0  0  0  0  0  0  0  0  0  0  0
    4.0294    2.0663   -0.4324 H   0  0  0  0  0  0  0  0  0  0  0  0
  1  2  1  0
  1  5  1  0
  1  6  1  0
  1  7  1  0
  2  3  1  0
  2  8  1  0
  3  4  1  0
  3  9  1  0
  3 10  1  0
  4 11  1  0
  4 12  1  0
  4 13  1  0
 14 15  1  0
 14 19  1  0
 14 20  1  0
 14 21  1  0
 15 16  1  0
 15 22  1  0
 15 23  1  0
 16 17  1  0
 17 18  1  0
 17 24  1  0
 17 25  1  0
 18 26  1  0
 18 27  1  0
 18 28  1  0
M  RAD  1   2   2
M  END
>  <reaction>  (5) 
rmg_rxn_63

>  <mol_properties>  (5) 
{"1": {"label": "*1", "atom_type": "Cs"}, "2": {"label": "*0", "atom_type": "Cs"}, "14": {"label": "*3", "atom_type": "Cs"}, "15": {"label": "*4", "atom_type": "S2s"}, "21": {"label": "*2", "atom_type": "H0"}}

>  <type>  (5) 
unop_1

>  <geom_source>  (5) 
Heuristics

$$$$

     RDKit          3D

 28 26  0  0  0  0  0  0  0  0999 V2000
   -2.8182   -0.4076    1.2958 C   0  0  0  0  0  0  0  0  0  0  0  0
   -1.6790   -1.2102    0.6820 C   0  0  0  0  0  3  0  0  0  0  0  0
   -2.1572   -2.2617   -0.3125 C   0  0  0  0  0  0  0  0  0  0  0  0
   -1.0180   -3.0642   -0.9264 C   0  0  0  0  0  0  0  0  0  0  0  0
   -3.5126   -1.0599    1.8307 H   0  0  0  0  0  0  0  0  0  0  0  0
   -3.3866    0.1178    0.5248 H   0  0  0  0  0  0  0  0  0  0  0  0
   -2.4481    0.3367    2.0028 H   0  0  0  0  0  0  0  0  0  0  0  0
   -1.1066   -1.7015    1.4754 H   0  0  0  0  0  0  0  0  0  0  0  0
   -2.7296   -1.7704   -1.1060 H   0  0  0  0  0  0  0  0  0  0  0  0
   -2.8546   -2.9395    0.1903 H   0  0  0  0  0  0  0  0  0  0  0  0
   -0.4496   -3.5897   -0.1553 H   0  0  0  0  0  0  0  0  0  0  0  0
   -1.3881   -3.8085   -1.6333 H   0  0  0  0  0  0  0  0  0  0  0  0
   -0.3236   -2.4120   -1.4612 H   0  0  0  0  0  0  0  0  0  0  0  0
    0.5115   -0.0951   -1.7544 C   0  0  0  0  0  0  0  0  0  0  0  0
    0.5115   -0.0951   -0.2346 C   0  0  0  0  0  0  0  0  0  0  0  0
    0.5115    1.5460    0.5303 S   0  0  0  0  0  0  0  0  0  0  0  0
    2.0520    2.2599   -0.0983 C   0  0  0  0  0  0  0  0  0  0  0  0
    3.3130    1.5011    0.2809 C   0  0  0  0  0  0  0  0  0  0  0  0
    1.4345    0.3285   -2.1538 H   0  0  0  0  0  0  0  0  0  0  0  0
    0.4289   -1.1163   -2.1330 H   0  0  0  0  0  0  0  0  0  0  0  0
   -0.3243    0.4874   -2.1438 H   0  0  0  0  0  0  0  0  0  0  0  0
   -0.5820   -0.6517    0.2229 H   0  0  0  0  0  0  0  0  0  0  0  0
    1.3477   -0.6777    0.1554 H   0  0  0  0  0  0  0  0  0  0  0  0
    1.9809    2.3821   -1.1804 H   0  0  0  0  0  0  0  0  0  0  0  0
    2.0671    3.2631    0.3309 H   0  0  0  0  0  0  0  0  0  0  0  0
    3.3342    0.5092   -0.1738 H   0  0  0  0  0  0  0  0  0  0  0  0
    3.3836    1.3790    1.3623 H   0  0  0  0  0  0  0  0  0  0  0  0
    4.1977    2.0395   -0.0661 H   0  0  0  0  0  0  0  0  0  0  0  0
  1  2  1  0
  1  5  1  0
  1  6  1  0
  1  7  1  0
  2  3  1  0
  2  8  1  0
  3  4  1  0
  3  9  1  0
  3 10  1  0
  4 11  1  0
  4 12  1  0
  4 13  1  0
 14 15  1  0
 14 19  1  0
 14 20  1  0
 14 21  1  0
 15 16  1  0
 15 22  1  0
 15 23  1  0
 16 17  1  0
 17 18  1  0
 17 24  1  0
 17 25  1  0
 18 26  1  0
 18 27  1  0
 18 28  1  0
M  RAD  1   2   2
M  END
>  <reaction>  (6) 
rmg_rxn_63

>  <mol_properties>  (6) 
{"1": {"label": "*1", "atom_type": "Cs"}, "2": {"label": "*0", "atom_type": "Cs"}, "14": {"label": "*3", "atom_type": "Cs"}, "15": {"label": "*4", "atom_type": "S2s"}, "21": {"label": "*2", "atom_type": "H0"}}

>  <type>  (6) 
unop_2

>  <geom_source>  (6) 
Heuristics

$$$$

     RDKit          3D

 28 26  0  0  0  0  0  0  0  0999 V2000
   -2.9326   -1.9997   -0.5578 C   0  0  0  0  0  0  0  0  0  0  0  0
   -1.8308   -1.2927    0.2199 C   0  0  0  0  0  3  0  0  0  0  0  0
   -1.5322   -1.9488    1.5630 C   0  0  0  0  0  0  0  0  0  0  0  0
   -0.4304   -1.2418    2.3407 C   0  0  0  0  0  0  0  0  0  0  0  0
   -3.8674   -2.0082    0.0079 H   0  0  0  0  0  0  0  0  0  0  0  0
   -2.6621   -3.0382   -0.7633 H   0  0  0  0  0  0  0  0  0  0  0  0
   -3.1256   -1.5099   -1.5136 H   0  0  0  0  0  0  0  0  0  0  0  0
   -2.1113   -0.2476    0.3862 H   0  0  0  0  0  0  0  0  0  0  0  0
   -1.2518   -2.9940    1.3967 H   0  0  0  0  0  0  0  0  0  0  0  0
   -2.4482   -1.9715    2.1622 H   0  0  0  0  0  0  0  0  0  0  0  0
   -0.7010   -0.2034    2.5462 H   0  0  0  0  0  0  0  0  0  0  0  0
   -0.2375   -1.7316    3.2965 H   0  0  0  0  0  0  0  0  0  0  0  0
    0.5043   -1.2334    1.7750 H   0  0  0  0  0  0  0  0  0  0  0  0
    0.3596   -0.1776   -2.2164 C   0  0  0  0  0  0  0  0  0  0  0  0
    0.3596   -0.1776   -0.6967 C   0  0  0  0  0  0  0  0  0  0  0  0
    0.3596    1.4635    0.0682 S   0  0  0  0  0  0  0  0  0  0  0  0
    1.9002    2.1774   -0.5604 C   0  0  0  0  0  0  0  0  0  0  0  0
    3.1611    1.4185   -0.1812 C   0  0  0  0  0  0  0  0  0  0  0  0
    1.2827    0.2459   -2.6158 H   0  0  0  0  0  0  0  0  0  0  0  0
    0.2771   -1.1988   -2.5951 H   0  0  0  0  0  0  0  0  0  0  0  0
   -0.4761    0.4048   -2.6058 H   0  0  0  0  0  0  0  0  0  0  0  0
   -0.7338   -0.7343   -0.2391 H   0  0  0  0  0  0  0  0  0  0  0  0
    1.1958   -0.7603   -0.3066 H   0  0  0  0  0  0  0  0  0  0  0  0
    1.8291    2.2996   -1.6424 H   0  0  0  0  0  0  0  0  0  0  0  0
    1.9153    3.1806   -0.1311 H   0  0  0  0  0  0  0  0  0  0  0  0
    3.1824    0.4267   -0.6359 H   0  0  0  0  0  0  0  0  0  0  0  0
    3.2318    1.2965    0.9002 H   0  0  0  0  0  0  0  0  0  0  0  0
    4.0459    1.9569   -0.5281 H   0  0  0  0  0  0  0  0  0  0  0  0
  1  2  1  0
  1  5  1  0
  1  6  1  0
  1  7  1  0
  2  3  1  0
  2  8  1  0
  3  4  1  0
  3  9  1  0
  3 10  1  0
  4 11  1  0
  4 12  1  0
  4 13  1  0
 14 15  1  0
 14 19  1  0
 14 20  1  0
 14 21  1  0
 15 16  1  0
 15 22  1  0
 15 23  1  0
 16 17  1  0
 17 18  1  0
 17 24  1  0
 17 25  1  0
 18 26  1  0
 18 27  1  0
 18 28  1  0
M  RAD  1   2   2
M  END
>  <reaction>  (7) 
rmg_rxn_63

>  <mol_properties>  (7) 
{"1": {"label": "*1", "atom_type": "Cs"}, "2": {"label": "*0", "atom_type": "Cs"}, "14": {"label": "*3", "atom_type": "Cs"}, "15": {"label": "*4", "atom_type": "S2s"}, "21": {"label": "*2", "atom_type": "H0"}}

>  <type>  (7) 
unop_3

>  <geom_source>  (7) 
Heuristics

$$$$

     RDKit          3D

 28 26  0  0  0  0  0  0  0  0999 V2000
   -1.0109   -1.0771    1.9224 C   0  0  0  0  0  0  0  0  0  0  0  0
   -1.5345   -1.5770    0.5828 C   0  0  0  0  0  3  0  0  0  0  0  0
   -2.7412   -0.7916    0.0823 C   0  0  0  0  0  0  0  0  0  0  0  0
   -3.2648   -1.2915   -1.2573 C   0  0  0  0  0  0  0  0  0  0  0  0
   -1.7805   -1.1484    2.6947 H   0  0  0  0  0  0  0  0  0  0  0  0
   -0.7052   -0.0302    1.8570 H   0  0  0  0  0  0  0  0  0  0  0  0
   -0.1485   -1.6562    2.2565 H   0  0  0  0  0  0  0  0  0  0  0  0
   -1.8048   -2.6347    0.6656 H   0  0  0  0  0  0  0  0  0  0  0  0
   -2.4709    0.2661   -0.0006 H   0  0  0  0  0  0  0  0  0  0  0  0
   -3.5383   -0.8439    0.8309 H   0  0  0  0  0  0  0  0  0  0  0  0
   -3.5705   -2.3384   -1.1920 H   0  0  0  0  0  0  0  0  0  0  0  0
   -4.1272   -0.7124   -1.5914 H   0  0  0  0  0  0  0  0  0  0  0  0
   -2.4952   -1.2202   -2.0296 H   0  0  0  0  0  0  0  0  0  0  0  0
    0.6559   -0.4620   -1.8535 C   0  0  0  0  0  0  0  0  0  0  0  0
    0.6559   -0.4620   -0.3338 C   0  0  0  0  0  0  0  0  0  0  0  0
    0.6559    1.1791    0.4311 S   0  0  0  0  0  0  0  0  0  0  0  0
    2.1965    1.8930   -0.1975 C   0  0  0  0  0  0  0  0  0  0  0  0
    3.4574    1.1342    0.1817 C   0  0  0  0  0  0  0  0  0  0  0  0
    1.5790   -0.0384   -2.2530 H   0  0  0  0  0  0  0  0  0  0  0  0
    0.5734   -1.4831   -2.2322 H   0  0  0  0  0  0  0  0  0  0  0  0
   -0.1798    0.1205   -2.2429 H   0  0  0  0  0  0  0  0  0  0  0  0
   -0.4375   -1.0186    0.1237 H   0  0  0  0  0  0  0  0  0  0  0  0
    1.4921   -1.0446    0.0562 H   0  0  0  0  0  0  0  0  0  0  0  0
    2.1254    2.0153   -1.2796 H   0  0  0  0  0  0  0  0  0  0  0  0
    2.2116    2.8962    0.2318 H   0  0  0  0  0  0  0  0  0  0  0  0
    3.4787    0.1423   -0.2730 H   0  0  0  0  0  0  0  0  0  0  0  0
    3.5281    1.0122    1.2631 H   0  0  0  0  0  0  0  0  0  0  0  0
    4.3422    1.6726   -0.1652 H   0  0  0  0  0  0  0  0  0  0  0  0
  1  2  1  0
  1  5  1  0
  1  6  1  0
  1  7  1  0
  2  3  1  0
  2  8  1  0
  3  4  1  0
  3  9  1  0
  3 10  1  0
  4 11  1  0
  4 12  1  0
  4 13  1  0
 14 15  1  0
 14 19  1  0
 14 20  1  0
 14 21  1  0
 15 16  1  0
 15 22  1  0
 15 23  1  0
 16 17  1  0
 17 18  1  0
 17 24  1  0
 17 25  1  0
 18 26  1  0
 18 27  1  0
 18 28  1  0
M  RAD  1   2   2
M  END
>  <reaction>  (8) 
rmg_rxn_63

>  <mol_properties>  (8) 
{"1": {"label": "*1", "atom_type": "Cs"}, "2": {"label": "*0", "atom_type": "Cs"}, "14": {"label": "*3", "atom_type": "Cs"}, "15": {"label": "*4", "atom_type": "S2s"}, "21": {"label": "*2", "atom_type": "H0"}}

>  <type>  (8) 
unop_4

>  <geom_source>  (8) 
Heuristics

$$$$

     RDKit          3D

 28 26  0  0  0  0  0  0  0  0999 V2000
   -1.9190   -2.8237   -0.3933 C   0  0  0  0  0  0  0  0  0  0  0  0
   -1.7782   -1.4224    0.1857 C   0  0  0  0  0  3  0  0  0  0  0  0
   -1.7462   -1.4061    1.7096 C   0  0  0  0  0  0  0  0  0  0  0  0
   -1.6055   -0.0048    2.2886 C   0  0  0  0  0  0  0  0  0  0  0  0
   -2.8413   -3.2982   -0.0498 H   0  0  0  0  0  0  0  0  0  0  0  0
   -1.0860   -3.4600   -0.0850 H   0  0  0  0  0  0  0  0  0  0  0  0
   -1.9392   -2.8060   -1.4841 H   0  0  0  0  0  0  0  0  0  0  0  0
   -2.6064   -0.7964   -0.1620 H   0  0  0  0  0  0  0  0  0  0  0  0
   -0.9181   -2.0321    2.0573 H   0  0  0  0  0  0  0  0  0  0  0  0
   -2.6604   -1.8715    2.0921 H   0  0  0  0  0  0  0  0  0  0  0  0
   -2.4384    0.6315    1.9802 H   0  0  0  0  0  0  0  0  0  0  0  0
   -1.5853   -0.0225    3.3794 H   0  0  0  0  0  0  0  0  0  0  0  0
   -0.6832    0.4697    1.9451 H   0  0  0  0  0  0  0  0  0  0  0  0
    0.4122   -0.3073   -2.2506 C   0  0  0  0  0  0  0  0  0  0  0  0
    0.4122   -0.3073   -0.7309 C   0  0  0  0  0  0  0  0  0  0  0  0
    0.4122    1.3338    0.0340 S   0  0  0  0  0  0  0  0  0  0  0  0
    1.9528    2.0477   -0.5946 C   0  0  0  0  0  0  0  0  0  0  0  0
    3.2137    1.2888   -0.2154 C   0  0  0  0  0  0  0  0  0  0  0  0
    1.3353    0.1163   -2.6500 H   0  0  0  0  0  0  0  0  0  0  0  0
    0.3297   -1.3285   -2.6293 H   0  0  0  0  0  0  0  0  0  0  0  0
   -0.4235    0.2751   -2.6400 H   0  0  0  0  0  0  0  0  0  0  0  0
   -0.6812   -0.8639   -0.2733 H   0  0  0  0  0  0  0  0  0  0  0  0
    1.2484   -0.8900   -0.3408 H   0  0  0  0  0  0  0  0  0  0  0  0
    1.8817    2.1699   -1.6766 H   0  0  0  0  0  0  0  0  0  0  0  0
    1.9679    3.0509   -0.1653 H   0  0  0  0  0  0  0  0  0  0  0  0
    3.2350    0.2970   -0.6701 H   0  0  0  0  0  0  0  0  0  0  0  0
    3.2844    1.1668    0.8660 H   0  0  0  0  0  0  0  0  0  0  0  0
    4.0985    1.8272   -0.5623 H   0  0  0  0  0  0  0  0  0  0  0  0
  1  2  1  0
  1  5  1  0
  1  6  1  0
  1  7  1  0
  2  3  1  0
  2  8  1  0
  3  4  1  0
  3  9  1  0
  3 10  1  0
  4 11  1  0
  4 12  1  0
  4 13  1  0
 14 15  1  0
 14 19  1  0
 14 20  1  0
 14 21  1  0
 15 16  1  0
 15 22  1  0
 15 23  1  0
 16 17  1  0
 17 18  1  0
 17 24  1  0
 17 25  1  0
 18 26  1  0
 18 27  1  0
 18 28  1  0
M  RAD  1   2   2
M  END
>  <reaction>  (9) 
rmg_rxn_63

>  <mol_properties>  (9) 
{"1": {"label": "*1", "atom_type": "Cs"}, "2": {"label": "*0", "atom_type": "Cs"}, "14": {"label": "*3", "atom_type": "Cs"}, "15": {"label": "*4", "atom_type": "S2s"}, "21": {"label": "*2", "atom_type": "H0"}}

>  <type>  (9) 
unop_5

>  <geom_source>  (9) 
Heuristics

$$$$

     RDKit          3D

 28 26  0  0  0  0  0  0  0  0999 V2000
   -0.6076   -1.7195    1.6308 C   0  0  0  0  0  0  0  0  0  0  0  0
   -1.5631   -1.6325    0.4484 C   0  0  0  0  0  3  0  0  0  0  0  0
   -2.6331   -0.5609    0.6227 C   0  0  0  0  0  0  0  0  0  0  0  0
   -3.5886   -0.4738   -0.5596 C   0  0  0  0  0  0  0  0  0  0  0  0
   -1.1457   -1.9532    2.5525 H   0  0  0  0  0  0  0  0  0  0  0  0
   -0.0871   -0.7712    1.7841 H   0  0  0  0  0  0  0  0  0  0  0  0
    0.1468   -2.4934    1.4798 H   0  0  0  0  0  0  0  0  0  0  0  0
   -2.0484   -2.6020    0.2962 H   0  0  0  0  0  0  0  0  0  0  0  0
   -2.1477    0.4086    0.7749 H   0  0  0  0  0  0  0  0  0  0  0  0
   -3.1985   -0.7647    1.5378 H   0  0  0  0  0  0  0  0  0  0  0  0
   -4.1091   -1.4222   -0.7129 H   0  0  0  0  0  0  0  0  0  0  0  0
   -4.3430    0.3000   -0.4086 H   0  0  0  0  0  0  0  0  0  0  0  0
   -3.0504   -0.2402   -1.4814 H   0  0  0  0  0  0  0  0  0  0  0  0
    0.6274   -0.5174   -1.9879 C   0  0  0  0  0  0  0  0  0  0  0  0
    0.6274   -0.5174   -0.4681 C   0  0  0  0  0  0  0  0  0  0  0  0
    0.6274    1.1237    0.2967 S   0  0  0  0  0  0  0  0  0  0  0  0
    2.1679    1.8376   -0.3318 C   0  0  0  0  0  0  0  0  0  0  0  0
    3.4289    1.0788    0.0474 C   0  0  0  0  0  0  0  0  0  0  0  0
    1.5504   -0.0938   -2.3873 H   0  0  0  0  0  0  0  0  0  0  0  0
    0.5448   -1.5386   -2.3665 H   0  0  0  0  0  0  0  0  0  0  0  0
   -0.2084    0.0651   -2.3773 H   0  0  0  0  0  0  0  0  0  0  0  0
   -0.4661   -1.0740   -0.0106 H   0  0  0  0  0  0  0  0  0  0  0  0
    1.4635   -1.1001   -0.0781 H   0  0  0  0  0  0  0  0  0  0  0  0
    2.0968    1.9598   -1.4139 H   0  0  0  0  0  0  0  0  0  0  0  0
    2.1830    2.8408    0.0974 H   0  0  0  0  0  0  0  0  0  0  0  0
    3.4501    0.0869   -0.4073 H   0  0  0  0  0  0  0  0  0  0  0  0
    3.4995    0.9567    1.1288 H   0  0  0  0  0  0  0  0  0  0  0  0
    4.3136    1.6172   -0.2996 H   0  0  0  0  0  0  0  0  0  0  0  0
  1  2  1  0
  1  5  1  0
  1  6  1  0
  1  7  1  0
  2  3  1  0
  2  8  1  0
  3  4  1  0
  3  9  1  0
  3 10  1  0
  4 11  1  0
  4 12  1  0
  4 13  1  0
 14 15  1  0
 14 19  1  0
 14 20  1  0
 14 21  1  0
 15 16  1  0
 15 22  1  0
 15 23  1  0
 16 17  1  0
 17 18  1  0
 17 24  1  0
 17 25  1  0
 18 26  1  0
 18 27  1  0
 18 28  1  0
M  RAD  1   2   2
M  END
>  <reaction>  (10) 
rmg_rxn_63

>  <mol_properties>  (10) 
{"1": {"label": "*1", "atom_type": "Cs"}, "2": {"label": "*0", "atom_type": "Cs"}, "14": {"label": "*3", "atom_type": "Cs"}, "15": {"label": "*4", "atom_type": "S2s"}, "21": {"label": "*2", "atom_type": "H0"}}

>  <type>  (10) 
unop_6

>  <geom_source>  (10) 
Heuristics

$$$$

     RDKit          3D

 28 26  0  0  0  0  0  0  0  0999 V2000
   -0.5242   -2.3364    1.0843 C   0  0  0  0  0  0  0  0  0  0  0  0
   -1.6256   -1.6190    0.3156 C   0  0  0  0  0  3  0  0  0  0  0  0
   -2.3837   -0.6052    1.1647 C   0  0  0  0  0  0  0  0  0  0  0  0
   -3.4851    0.1122    0.3960 C   0  0  0  0  0  0  0  0  0  0  0  0
   -0.9336   -2.8793    1.9395 H   0  0  0  0  0  0  0  0  0  0  0  0
    0.2127   -1.6260    1.4667 H   0  0  0  0  0  0  0  0  0  0  0  0
    0.0014   -3.0551    0.4535 H   0  0  0  0  0  0  0  0  0  0  0  0
   -2.3333   -2.3530   -0.0831 H   0  0  0  0  0  0  0  0  0  0  0  0
   -1.6760    0.1289    1.5633 H   0  0  0  0  0  0  0  0  0  0  0  0
   -2.8139   -1.1152    2.0327 H   0  0  0  0  0  0  0  0  0  0  0  0
   -4.2220   -0.5981    0.0136 H   0  0  0  0  0  0  0  0  0  0  0  0
   -4.0107    0.8309    1.0267 H   0  0  0  0  0  0  0  0  0  0  0  0
   -3.0757    0.6551   -0.4592 H   0  0  0  0  0  0  0  0  0  0  0  0
    0.5649   -0.5039   -2.1207 C   0  0  0  0  0  0  0  0  0  0  0  0
    0.5649   -0.5039   -0.6010 C   0  0  0  0  0  0  0  0  0  0  0  0
    0.5649    1.1372    0.1639 S   0  0  0  0  0  0  0  0  0  0  0  0
    2.1055    1.8511   -0.4647 C   0  0  0  0  0  0  0  0  0  0  0  0
    3.3664    1.0923   -0.0855 C   0  0  0  0  0  0  0  0  0  0  0  0
    1.4879   -0.0803   -2.5202 H   0  0  0  0  0  0  0  0  0  0  0  0
    0.4823   -1.5251   -2.4994 H   0  0  0  0  0  0  0  0  0  0  0  0
   -0.2708    0.0786   -2.5102 H   0  0  0  0  0  0  0  0  0  0  0  0
   -0.5286   -1.0605   -0.1435 H   0  0  0  0  0  0  0  0  0  0  0  0
    1.4011   -1.0865   -0.2110 H   0  0  0  0  0  0  0  0  0  0  0  0
    2.0343    1.9733   -1.5468 H   0  0  0  0  0  0  0  0  0  0  0  0
    2.1205    2.8543   -0.0354 H   0  0  0  0  0  0  0  0  0  0  0  0
    3.3876    0.1004   -0.5402 H   0  0  0  0  0  0  0  0  0  0  0  0
    3.4371    0.9702    0.9959 H   0  0  0  0  0  0  0  0  0  0  0  0
    4.2511    1.6307   -0.4324 H   0  0  0  0  0  0  0  0  0  0  0  0
  1  2  1  0
  1  5  1  0
  1  6  1  0
  1  7  1  0
  2  3  1  0
  2  8  1  0
  3  4  1  0
  3  9  1  0
  3 10  1  0
  4 11  1  0
  4 12  1  0
  4 13  1  0
 14 15  1  0
 14 19  1  0
 14 20  1  0
 14 21  1  0
 15 16  1  0
 15 22  1  0
 15 23  1  0
 16 17  1  0
 17 18  1  0
 17 24  1  0
 17 25  1  0
 18 26  1  0
 18 27  1  0
 18 28  1  0
M  RAD  1   2   2
M  END
>  <reaction>  (11) 
rmg_rxn_63

>  <mol_properties>  (11) 
{"1": {"label": "*1", "atom_type": "Cs"}, "2": {"label": "*0", "atom_type": "Cs"}, "14": {"label": "*3", "atom_type": "Cs"}, "15": {"label": "*4", "atom_type": "S2s"}, "21": {"label": "*2", "atom_type": "H0"}}

>  <type>  (11) 
unop_7

>  <geom_source>  (11) 
Heuristics

$$$$

     RDKit          3D

 28 26  0  0  0  0  0  0  0  0999 V2000
   -3.2981   -0.7571    0.3924 C   0  0  0  0  0  0  0  0  0  0  0  0
   -1.8215   -1.1248    0.4484 C   0  0  0  0  0  3  0  0  0  0  0  0
   -1.5846   -2.6205    0.6227 C   0  0  0  0  0  0  0  0  0  0  0  0
   -0.1080   -2.9882    0.6788 C   0  0  0  0  0  0  0  0  0  0  0  0
   -3.8111   -1.0565    1.3095 H   0  0  0  0  0  0  0  0  0  0  0  0
   -3.7948   -1.2580   -0.4420 H   0  0  0  0  0  0  0  0  0  0  0  0
   -3.4385    0.3178    0.2674 H   0  0  0  0  0  0  0  0  0  0  0  0
   -1.3402   -0.5875    1.2719 H   0  0  0  0  0  0  0  0  0  0  0  0
   -2.0660   -3.1578   -0.2008 H   0  0  0  0  0  0  0  0  0  0  0  0
   -2.0821   -2.9578    1.5378 H   0  0  0  0  0  0  0  0  0  0  0  0
    0.3887   -2.4873    1.5131 H   0  0  0  0  0  0  0  0  0  0  0  0
    0.0324   -4.0631    0.8038 H   0  0  0  0  0  0  0  0  0  0  0  0
    0.4049   -2.6888   -0.2383 H   0  0  0  0  0  0  0  0  0  0  0  0
    0.3689   -0.0098   -1.9879 C   0  0  0  0  0  0  0  0  0  0  0  0
    0.3689   -0.0098   -0.4681 C   0  0  0  0  0  0  0  0  0  0  0  0
    0.3689    1.6313    0.2967 S   0  0  0  0  0  0  0  0  0  0  0  0
    1.9095    2.3453   -0.3318 C   0  0  0  0  0  0  0  0  0  0  0  0
    3.1704    1.5864    0.0474 C   0  0  0  0  0  0  0  0  0  0  0  0
    1.2920    0.4138   -2.3873 H   0  0  0  0  0  0  0  0  0  0  0  0
    0.2864   -1.0309   -2.3665 H   0  0  0  0  0  0  0  0  0  0  0  0
   -0.4668    0.5727   -2.3773 H   0  0  0  0  0  0  0  0  0  0  0  0
   -0.7245   -0.5664   -0.0106 H   0  0  0  0  0  0  0  0  0  0  0  0
    1.2051   -0.5924   -0.0781 H   0  0  0  0  0  0  0  0  0  0  0  0
    1.8384    2.4675   -1.4139 H   0  0  0  0  0  0  0  0  0  0  0  0
    1.9246    3.3484    0.0974 H   0  0  0  0  0  0  0  0  0  0  0  0
    3.1917    0.5946   -0.4073 H   0  0  0  0  0  0  0  0  0  0  0  0
    3.2411    1.4644    1.1288 H   0  0  0  0  0  0  0  0  0  0  0  0
    4.0552    2.1248   -0.2996 H   0  0  0  0  0  0  0  0  0  0  0  0
  1  2  1  0
  1  5  1  0
  1  6  1  0
  1  7  1  0
  2  3  1  0
  2  8  1  0
  3  4  1  0
  3  9  1  0
  3 10  1  0
  4 11  1  0
  4 12  1  0
  4 13  1  0
 14 15  1  0
 14 19  1  0
 14 20  1  0
 14 21  1  0
 15 16  1  0
 15 22  1  0
 15 23  1  0
 16 17  1  0
 17 18  1  0
 17 24  1  0
 17 25  1  0
 18 26  1  0
 18 27  1  0
 18 28  1  0
M  RAD  1   2   2
M  END
>  <reaction>  (12) 
rmg_rxn_63

>  <mol_properties>  (12) 
{"1": {"label": "*1", "atom_type": "Cs"}, "2": {"label": "*0", "atom_type": "Cs"}, "14": {"label": "*3", "atom_type": "Cs"}, "15": {"label": "*4", "atom_type": "S2s"}, "21": {"label": "*2", "atom_type": "H0"}}

>  <type>  (12) 
unop_8

>  <geom_source>  (12) 
Heuristics

$$$$

     RDKit          3D

 28 26  0  0  0  0  0  0  0  0999 V2000
   -1.6411   -0.5728    1.9109 C   0  0  0  0  0  0  0  0  0  0  0  0
   -1.5482   -1.4670    0.6820 C   0  0  0  0  0  3  0  0  0  0  0  0
   -2.6799   -1.2350   -0.3125 C   0  0  0  0  0  0  0  0  0  0  0  0
   -2.5870   -2.1292   -1.5415 C   0  0  0  0  0  0  0  0  0  0  0  0
   -2.5774   -0.7419    2.4481 H   0  0  0  0  0  0  0  0  0  0  0  0
   -1.6077    0.4826    1.6304 H   0  0  0  0  0  0  0  0  0  0  0  0
   -0.8200   -0.7596    2.6049 H   0  0  0  0  0  0  0  0  0  0  0  0
   -1.5524   -2.5174    0.9908 H   0  0  0  0  0  0  0  0  0  0  0  0
   -2.6757   -0.1846   -0.6213 H   0  0  0  0  0  0  0  0  0  0  0  0
   -3.6382   -1.4001    0.1903 H   0  0  0  0  0  0  0  0  0  0  0  0
   -2.6204   -3.1846   -1.2610 H   0  0  0  0  0  0  0  0  0  0  0  0
   -3.4081   -1.9424   -2.2355 H   0  0  0  0  0  0  0  0  0  0  0  0
   -1.6507   -1.9601   -2.0787 H   0  0  0  0  0  0  0  0  0  0  0  0
    0.6422   -0.3520   -1.7544 C   0  0  0  0  0  0  0  0  0  0  0  0
    0.6422   -0.3520   -0.2346 C   0  0  0  0  0  0  0  0  0  0  0  0
    0.6422    1.2891    0.5303 S   0  0  0  0  0  0  0  0  0  0  0  0
    2.1828    2.0031   -0.0983 C   0  0  0  0  0  0  0  0  0  0  0  0
    3.4437    1.2442    0.2809 C   0  0  0  0  0  0  0  0  0  0  0  0
    1.5653    0.0716   -2.1538 H   0  0  0  0  0  0  0  0  0  0  0  0
    0.5597   -1.3731   -2.1330 H   0  0  0  0  0  0  0  0  0  0  0  0
   -0.1935    0.2305   -2.1438 H   0  0  0  0  0  0  0  0  0  0  0  0
   -0.4512   -0.9086    0.2229 H   0  0  0  0  0  0  0  0  0  0  0  0
    1.4784   -0.9346    0.1554 H   0  0  0  0  0  0  0  0  0  0  0  0
    2.1117    2.1253   -1.1804 H   0  0  0  0  0  0  0  0  0  0  0  0
    2.1979    3.0062    0.3309 H   0  0  0  0  0  0  0  0  0  0  0  0
    3.4650    0.2524   -0.1738 H   0  0  0  0  0  0  0  0  0  0  0  0
    3.5144    1.1222    1.3623 H   0  0  0  0  0  0  0  0  0  0  0  0
    4.3285    1.7826   -0.0661 H   0  0  0  0  0  0  0  0  0  0  0  0
  1  2  1  0
  1  5  1  0
  1  6  1  0
  1  7  1  0
  2  3  1  0
  2  8  1  0
  3  4  1  0
  3  9  1  0
  3 10  1  0
  4 11  1  0
  4 12  1  0
  4 13  1  0
 14 15  1  0
 14 19  1  0
 14 20  1  0
 14 21  1  0
 15 16  1  0
 15 22  1  0
 15 23  1  0
 16 17  1  0
 17 18  1  0
 17 24  1  0
 17 25  1  0
 18 26  1  0
 18 27  1  0
 18 28  1  0
M  RAD  1   2   2
M  END
>  <reaction>  (13) 
rmg_rxn_63

>  <mol_properties>  (13) 
{"1": {"label": "*1", "atom_type": "Cs"}, "2": {"label": "*0", "atom_type": "Cs"}, "14": {"label": "*3", "atom_type": "Cs"}, "15": {"label": "*4", "atom_type": "S2s"}, "21": {"label": "*2", "atom_type": "H0"}}

>  <type>  (13) 
unop_9

>  <geom_source>  (13) 
Heuristics

$$$$

     RDKit          3D

 28 26  0  0  0  0  0  0  0  0999 V2000
   -3.1269   -0.5363    0.8865 C   0  0  0  0  0  0  0  0  0  0  0  0
   -1.7599   -1.1344    0.5828 C   0  0  0  0  0  3  0  0  0  0  0  0
   -1.8348   -2.5722    0.0823 C   0  0  0  0  0  0  0  0  0  0  0  0
   -0.4678   -3.1703   -0.2215 C   0  0  0  0  0  0  0  0  0  0  0  0
   -3.6452   -1.1148    1.6549 H   0  0  0  0  0  0  0  0  0  0  0  0
   -3.7587   -0.5312   -0.0049 H   0  0  0  0  0  0  0  0  0  0  0  0
   -3.0439    0.4919    1.2424 H   0  0  0  0  0  0  0  0  0  0  0  0
   -1.1359   -1.0999    1.4817 H   0  0  0  0  0  0  0  0  0  0  0  0
   -2.4587   -2.6066   -0.8167 H   0  0  0  0  0  0  0  0  0  0  0  0
   -2.3461   -3.1860    0.8309 H   0  0  0  0  0  0  0  0  0  0  0  0
    0.1640   -3.1754    0.6699 H   0  0  0  0  0  0  0  0  0  0  0  0
   -0.5507   -4.1985   -0.5774 H   0  0  0  0  0  0  0  0  0  0  0  0
    0.0506   -2.5917   -0.9899 H   0  0  0  0  0  0  0  0  0  0  0  0
    0.4306   -0.0193   -1.8535 C   0  0  0  0  0  0  0  0  0  0  0  0
    0.4306   -0.0193   -0.3338 C   0  0  0  0  0  0  0  0  0  0  0  0
    0.4306    1.6218    0.4311 S   0  0  0  0  0  0  0  0  0  0  0  0
    1.9712    2.3357   -0.1975 C   0  0  0  0  0  0  0  0  0  0  0  0
    3.2321    1.5769    0.1817 C   0  0  0  0  0  0  0  0  0  0  0  0
    1.3536    0.4043   -2.2530 H   0  0  0  0  0  0  0  0  0  0  0  0
    0.3480   -1.0405   -2.2322 H   0  0  0  0  0  0  0  0  0  0  0  0
   -0.4052    0.5632   -2.2429 H   0  0  0  0  0  0  0  0  0  0  0  0
   -0.6629   -0.5759    0.1237 H   0  0  0  0  0  0  0  0  0  0  0  0
    1.2668   -0.6019    0.0562 H   0  0  0  0  0  0  0  0  0  0  0  0
    1.9000    2.4579   -1.2796 H   0  0  0  0  0  0  0  0  0  0  0  0
    1.9862    3.3389    0.2318 H   0  0  0  0  0  0  0  0  0  0  0  0
    3.2533    0.5850   -0.2730 H   0  0  0  0  0  0  0  0  0  0  0  0
    3.3027    1.4548    1.2631 H   0  0  0  0  0  0  0  0  0  0  0  0
    4.1168    2.1153   -0.1652 H   0  0  0  0  0  0  0  0  0  0  0  0
  1  2  1  0
  1  5  1  0
  1  6  1  0
  1  7  1  0
  2  3  1  0
  2  8  1  0
  3  4  1  0
  3  9  1  0
  3 10  1  0
  4 11  1  0
  4 12  1  0
  4 13  1  0
 14 15  1  0
 14 19  1  0
 14 20  1  0
 14 21  1  0
 15 16  1  0
 15 22  1  0
 15 23  1  0
 16 17  1  0
 17 18  1  0
 17 24  1  0
 17 25  1  0
 18 26  1  0
 18 27  1  0
 18 28  1  0
M  RAD  1   2   2
M  END
>  <reaction>  (14) 
rmg_rxn_63

>  <mol_properties>  (14) 
{"1": {"label": "*1", "atom_type": "Cs"}, "2": {"label": "*0", "atom_type": "Cs"}, "14": {"label": "*3", "atom_type": "Cs"}, "15": {"label": "*4", "atom_type": "S2s"}, "21": {"label": "*2", "atom_type": "H0"}}

>  <type>  (14) 
unop_10

>  <geom_source>  (14) 
Heuristics

$$$$

     RDKit          3D

 28 26  0  0  0  0  0  0  0  0999 V2000
   -0.8912   -2.8215    0.3556 C   0  0  0  0  0  0  0  0  0  0  0  0
   -1.7043   -1.5412    0.2199 C   0  0  0  0  0  3  0  0  0  0  0  0
   -2.0591   -0.9137    1.5630 C   0  0  0  0  0  0  0  0  0  0  0  0
   -2.8722    0.3665    1.4273 C   0  0  0  0  0  0  0  0  0  0  0  0
   -1.4403   -3.5754    0.9247 H   0  0  0  0  0  0  0  0  0  0  0  0
    0.0496   -2.6340    0.8785 H   0  0  0  0  0  0  0  0  0  0  0  0
   -0.6515   -3.2488   -0.6194 H   0  0  0  0  0  0  0  0  0  0  0  0
   -2.6260   -1.7484   -0.3334 H   0  0  0  0  0  0  0  0  0  0  0  0
   -1.1374   -0.7066    2.1163 H   0  0  0  0  0  0  0  0  0  0  0  0
   -2.6165   -1.6410    2.1622 H   0  0  0  0  0  0  0  0  0  0  0  0
   -3.8131    0.1790    0.9044 H   0  0  0  0  0  0  0  0  0  0  0  0
   -3.1120    0.7938    2.4023 H   0  0  0  0  0  0  0  0  0  0  0  0
   -2.3231    1.1204    0.8582 H   0  0  0  0  0  0  0  0  0  0  0  0
    0.4861   -0.4262   -2.2164 C   0  0  0  0  0  0  0  0  0  0  0  0
    0.4861   -0.4262   -0.6967 C   0  0  0  0  0  0  0  0  0  0  0  0
    0.4861    1.2149    0.0682 S   0  0  0  0  0  0  0  0  0  0  0  0
    2.0267    1.9288   -0.5604 C   0  0  0  0  0  0  0  0  0  0  0  0
    3.2877    1.1700   -0.1812 C   0  0  0  0  0  0  0  0  0  0  0  0
    1.4092   -0.0026   -2.6158 H   0  0  0  0  0  0  0  0  0  0  0  0
    0.4036   -1.4473   -2.5951 H   0  0  0  0  0  0  0  0  0  0  0  0
   -0.3496    0.1563   -2.6058 H   0  0  0  0  0  0  0  0  0  0  0  0
   -0.6073   -0.9828   -0.2391 H   0  0  0  0  0  0  0  0  0  0  0  0
    1.3223   -1.0088   -0.3066 H   0  0  0  0  0  0  0  0  0  0  0  0
    1.9556    2.0511   -1.6424 H   0  0  0  0  0  0  0  0  0  0  0  0
    2.0418    2.9320   -0.1311 H   0  0  0  0  0  0  0  0  0  0  0  0
    3.3089    0.1781   -0.6359 H   0  0  0  0  0  0  0  0  0  0  0  0
    3.3583    1.0480    0.9002 H   0  0  0  0  0  0  0  0  0  0  0  0
    4.1724    1.7084   -0.5281 H   0  0  0  0  0  0  0  0  0  0  0  0
  1  2  1  0
  1  5  1  0
  1  6  1  0
  1  7  1  0
  2  3  1  0
  2  8  1  0
  3  4  1  0
  3  9  1  0
  3 10  1  0
  4 11  1  0
  4 12  1  0
  4 13  1  0
 14 15  1  0
 14 19  1  0
 14 20  1  0
 14 21  1  0
 15 16  1  0
 15 22  1  0
 15 23  1  0
 16 17  1  0
 17 18  1  0
 17 24  1  0
 17 25  1  0
 18 26  1  0
 18 27  1  0
 18 28  1  0
M  RAD  1   2   2
M  END
>  <reaction>  (15) 
rmg_rxn_63

>  <mol_properties>  (15) 
{"1": {"label": "*1", "atom_type": "Cs"}, "2": {"label": "*0", "atom_type": "Cs"}, "14": {"label": "*3", "atom_type": "Cs"}, "15": {"label": "*4", "atom_type": "S2s"}, "21": {"label": "*2", "atom_type": "H0"}}

>  <type>  (15) 
unop_11

>  <geom_source>  (15) 
Heuristics

$$$$

     RDKit          3D

 28 26  0  0  0  0  0  0  0  0999 V2000
   -2.3136   -0.3653    1.6545 C   0  0  0  0  0  0  0  0  0  0  0  0
   -1.6012   -1.3323    0.7185 C   0  0  0  0  0  3  0  0  0  0  0  0
   -2.4662   -1.7726   -0.4568 C   0  0  0  0  0  0  0  0  0  0  0  0
   -1.7538   -2.7396   -1.3928 C   0  0  0  0  0  0  0  0  0  0  0  0
   -3.2146   -0.8190    2.0740 H   0  0  0  0  0  0  0  0  0  0  0  0
   -2.6166    0.5408    1.1244 H   0  0  0  0  0  0  0  0  0  0  0  0
   -1.6724   -0.0669    2.4855 H   0  0  0  0  0  0  0  0  0  0  0  0
   -1.2806   -2.2166    1.2786 H   0  0  0  0  0  0  0  0  0  0  0  0
   -2.7867   -0.8882   -1.0169 H   0  0  0  0  0  0  0  0  0  0  0  0
   -3.3804   -2.2380   -0.0743 H   0  0  0  0  0  0  0  0  0  0  0  0
   -1.4507   -3.6457   -0.8628 H   0  0  0  0  0  0  0  0  0  0  0  0
   -2.3949   -3.0380   -2.2238 H   0  0  0  0  0  0  0  0  0  0  0  0
   -0.8527   -2.2859   -1.8124 H   0  0  0  0  0  0  0  0  0  0  0  0
    0.5893   -0.2172   -1.7178 C   0  0  0  0  0  0  0  0  0  0  0  0
    0.5893   -0.2172   -0.1981 C   0  0  0  0  0  0  0  0  0  0  0  0
    0.5893    1.4239    0.5668 S   0  0  0  0  0  0  0  0  0  0  0  0
    2.1299    2.1378   -0.0618 C   0  0  0  0  0  0  0  0  0  0  0  0
    3.3908    1.3790    0.3174 C   0  0  0  0  0  0  0  0  0  0  0  0
    1.5123    0.2064   -2.1173 H   0  0  0  0  0  0  0  0  0  0  0  0
    0.5067   -1.2384   -2.0965 H   0  0  0  0  0  0  0  0  0  0  0  0
   -0.2464    0.3653   -2.1072 H   0  0  0  0  0  0  0  0  0  0  0  0
   -0.5042   -0.7738    0.2594 H   0  0  0  0  0  0  0  0  0  0  0  0
    1.4255   -0.7998    0.1919 H   0  0  0  0  0  0  0  0  0  0  0  0
    2.0587    2.2600   -1.1439 H   0  0  0  0  0  0  0  0  0  0  0  0
    2.1450    3.1410    0.3675 H   0  0  0  0  0  0  0  0  0  0  0  0
    3.4120    0.3871   -0.1373 H   0  0  0  0  0  0  0  0  0  0  0  0
    3.4615    1.2569    1.3988 H   0  0  0  0  0  0  0  0  0  0  0  0
    4.2755    1.9174   -0.0295 H   0  0  0  0  0  0  0  0  0  0  0  0
  1  2  1  0
  1  5  1  0
  1  6  1  0
  1  7  1  0
  2  3  1  0
  2  8  1  0
  3  4  1  0
  3  9  1  0
  3 10  1  0
  4 11  1  0
  4 12  1  0
  4 13  1  0
 14 15  1  0
 14 19  1  0
 14 20  1  0
 14 21  1  0
 15 16  1  0
 15 22  1  0
 15 23  1  0
 16 17  1  0
 17 18  1  0
 17 24  1  0
 17 25  1  0
 18 26  1  0
 18 27  1  0
 18 28  1  0
M  RAD  1   2   2
M  END
>  <reaction>  (16) 
rmg_rxn_63

>  <mol_properties>  (16) 
{"1": {"label": "*1", "atom_type": "Cs"}, "2": {"label": "*0", "atom_type": "Cs"}, "14": {"label": "*3", "atom_type": "Cs"}, "15": {"label": "*4", "atom_type": "S2s"}, "21": {"label": "*2", "atom_type": "H0"}}

>  <type>  (16) 
unop_12

>  <geom_source>  (16) 
Heuristics

$$$$

     RDKit          3D

 28 26  0  0  0  0  0  0  0  0999 V2000
    1.8159   -0.9324    0.6185 S   0  0  0  0  0  0  0  0  0  0  0  0
   -2.5270    0.1857   -0.4139 C   0  0  0  0  0  0  0  0  0  0  0  0
   -1.0179    0.0167   -0.6126 C   0  0  0  0  0  0  0  0  0  0  0  0
    2.6959    0.3870   -0.2791 C   0  0  0  0  0  0  0  0  0  0  0  0
   -3.0119   -0.6068    0.7958 C   0  0  0  0  0  0  0  0  0  0  0  0
   -0.5266    0.8161   -1.8148 C   0  0  0  0  0  0  0  0  0  0  0  0
    3.8199   -0.2110   -1.1114 C   0  0  0  0  0  0  0  0  0  0  0  0
   -0.4940   -0.5558    2.0563 C   0  0  0  0  0  0  0  0  0  0  0  0
    0.6258    0.2164    1.3799 C   0  0  0  0  0  3  0  0  0  0  0  0
   -2.7654    1.2604   -0.2584 H   0  0  0  0  0  0  0  0  0  0  0  0
   -3.0674   -0.1694   -1.3184 H   0  0  0  0  0  0  0  0  0  0  0  0
   -0.7772   -1.0573   -0.7707 H   0  0  0  0  0  0  0  0  0  0  0  0
   -0.3939    0.4276    0.4426 H   0  0  0  0  0  0  0  0  0  0  0  0
    1.9866    0.9187   -0.9491 H   0  0  0  0  0  0  0  0  0  0  0  0
    3.1233    1.1114    0.4469 H   0  0  0  0  0  0  0  0  0  0  0  0
   -2.8061   -1.6895    0.6557 H   0  0  0  0  0  0  0  0  0  0  0  0
   -4.1067   -0.4666    0.9173 H   0  0  0  0  0  0  0  0  0  0  0  0
   -2.5041   -0.2528    1.7182 H   0  0  0  0  0  0  0  0  0  0  0  0
   -0.7312    1.8976   -1.6665 H   0  0  0  0  0  0  0  0  0  0  0  0
   -1.0306    0.4691   -2.7420 H   0  0  0  0  0  0  0  0  0  0  0  0
    0.5684    0.6748   -1.9298 H   0  0  0  0  0  0  0  0  0  0  0  0
    4.3518    0.5976   -1.6558 H   0  0  0  0  0  0  0  0  0  0  0  0
    4.5447   -0.7365   -0.4540 H   0  0  0  0  0  0  0  0  0  0  0  0
    3.4075   -0.9293   -1.8514 H   0  0  0  0  0  0  0  0  0  0  0  0
   -1.2150    0.1585    2.5051 H   0  0  0  0  0  0  0  0  0  0  0  0
   -0.0827   -1.2062    2.8573 H   0  0  0  0  0  0  0  0  0  0  0  0
   -1.0276   -1.1801    1.3093 H   0  0  0  0  0  0  0  0  0  0  0  0
    1.1454    0.8559    2.1249 H   0  0  0  0  0  0  0  0  0  0  0  0
  1  9  1  0
  1  4  1  0
  2  5  1  0
  2  3  1  0
  2 10  1  0
  2 11  1  0
  3  6  1  0
  3 12  1  0
  3 13  1  0
  4  7  1  0
  4 14  1  0
  4 15  1  0
  5 16  1  0
  5 17  1  0
  5 18  1  0
  6 19  1  0
  6 20  1  0
  6 21  1  0
  7 22  1  0
  7 23  1  0
  7 24  1  0
  8  9  1  0
  8 25  1  0
  8 26  1  0
  8 27  1  0
  9 28  1  0
M  RAD  1   9   2
M  END
>  <reaction>  (17) 
rmg_rxn_63

>  <mol_properties>  (17) 
{"1": {"label": "*1", "atom_type": "Cs"}, "2": {"label": "*0", "atom_type": "Cs"}, "14": {"label": "*3", "atom_type": "Cs"}, "15": {"label": "*4", "atom_type": "S2s"}, "21": {"label": "*2", "atom_type": "H0"}}

>  <type>  (17) 
unop_13

>  <geom_source>  (17) 
AutoTST

$$$$

     RDKit          3D

 28 26  0  0  0  0  0  0  0  0999 V2000
   -2.8182   -0.4076    1.2958 C   0  0  0  0  0  0  0  0  0  0  0  0
   -1.6790   -1.2102    0.6820 C   0  0  0  0  0  3  0  0  0  0  0  0
   -2.1572   -2.2617   -0.3125 C   0  0  0  0  0  0  0  0  0  0  0  0
   -1.0180   -3.0642   -0.9264 C   0  0  0  0  0  0  0  0  0  0  0  0
   -3.5126   -1.0599    1.8307 H   0  0  0  0  0  0  0  0  0  0  0  0
   -3.3866    0.1178    0.5248 H   0  0  0  0  0  0  0  0  0  0  0  0
   -2.4481    0.3367    2.0028 H   0  0  0  0  0  0  0  0  0  0  0  0
   -1.1066   -1.7015    1.4754 H   0  0  0  0  0  0  0  0  0  0  0  0
   -2.7296   -1.7704   -1.1060 H   0  0  0  0  0  0  0  0  0  0  0  0
   -2.8546   -2.9395    0.1903 H   0  0  0  0  0  0  0  0  0  0  0  0
   -0.4496   -3.5897   -0.1553 H   0  0  0  0  0  0  0  0  0  0  0  0
   -1.3881   -3.8085   -1.6333 H   0  0  0  0  0  0  0  0  0  0  0  0
   -0.3236   -2.4120   -1.4612 H   0  0  0  0  0  0  0  0  0  0  0  0
    0.5115   -0.0951   -1.7544 C   0  0  0  0  0  0  0  0  0  0  0  0
    0.5115   -0.0951   -0.2346 C   0  0  0  0  0  0  0  0  0  0  0  0
    0.5115    1.5460    0.5303 S   0  0  0  0  0  0  0  0  0  0  0  0
    2.0520    2.2599   -0.0983 C   0  0  0  0  0  0  0  0  0  0  0  0
    3.3130    1.5011    0.2809 C   0  0  0  0  0  0  0  0  0  0  0  0
    1.4345    0.3285   -2.1538 H   0  0  0  0  0  0  0  0  0  0  0  0
    0.4289   -1.1163   -2.1330 H   0  0  0  0  0  0  0  0  0  0  0  0
   -0.3243    0.4874   -2.1438 H   0  0  0  0  0  0  0  0  0  0  0  0
   -0.5820   -0.6517    0.2229 H   0  0  0  0  0  0  0  0  0  0  0  0
    1.3477   -0.6777    0.1554 H   0  0  0  0  0  0  0  0  0  0  0  0
    1.9809    2.3821   -1.1804 H   0  0  0  0  0  0  0  0  0  0  0  0
    2.0671    3.2631    0.3310 H   0  0  0  0  0  0  0  0  0  0  0  0
    3.3342    0.5092   -0.1738 H   0  0  0  0  0  0  0  0  0  0  0  0
    3.3836    1.3790    1.3623 H   0  0  0  0  0  0  0  0  0  0  0  0
    4.1977    2.0395   -0.0660 H   0  0  0  0  0  0  0  0  0  0  0  0
  1  2  1  0
  1  5  1  0
  1  6  1  0
  1  7  1  0
  2  3  1  0
  2  8  1  0
  3  4  1  0
  3  9  1  0
  3 10  1  0
  4 11  1  0
  4 12  1  0
  4 13  1  0
 14 15  1  0
 14 19  1  0
 14 20  1  0
 14 21  1  0
 15 16  1  0
 15 22  1  0
 15 23  1  0
 16 17  1  0
 17 18  1  0
 17 24  1  0
 17 25  1  0
 18 26  1  0
 18 27  1  0
 18 28  1  0
M  RAD  1   2   2
M  END
>  <reaction>  (18) 
rmg_rxn_63

>  <mol_properties>  (18) 
{"1": {"label": "*1", "atom_type": "Cs"}, "2": {"label": "*0", "atom_type": "Cs"}, "14": {"label": "*3", "atom_type": "Cs"}, "15": {"label": "*4", "atom_type": "S2s"}, "21": {"label": "*2", "atom_type": "H0"}}

>  <type>  (18) 
unop_14

>  <geom_source>  (18) 
gaussian_log

$$$$
