
     RDKit          3D

 14 13  0  0  0  0  0  0  0  0999 V2000
    1.8106   -0.5953    0.5577 C   0  0  0  0  0  0  0  0  0  0  0  0
    0.5197    0.2064    0.6554 C   0  0  0  0  0  0  0  0  0  0  0  0
   -0.5206   -0.2080   -0.3788 C   0  0  0  0  0  0  0  0  0  0  0  0
   -1.8114    0.5937   -0.2812 C   0  0  0  0  0  0  0  0  0  0  0  0
    2.2725   -0.4752   -0.4251 H   0  0  0  0  0  0  0  0  0  0  0  0
    1.6214   -1.6612    0.7052 H   0  0  0  0  0  0  0  0  0  0  0  0
    2.5364   -0.2784    1.3084 H   0  0  0  0  0  0  0  0  0  0  0  0
    0.0930    0.0950    1.6574 H   0  0  0  0  0  0  0  0  0  0  0  0
    0.7393    1.2723    0.5354 H   0  0  0  0  0  0  0  0  0  0  0  0
   -0.7402   -1.2739   -0.2588 H   0  0  0  0  0  0  0  0  0  0  0  0
   -0.0938   -0.0965   -1.3808 H   0  0  0  0  0  0  0  0  0  0  0  0
   -1.6222    1.6596   -0.4287 H   0  0  0  0  0  0  0  0  0  0  0  0
   -2.2734    0.4736    0.7017 H   0  0  0  0  0  0  0  0  0  0  0  0
   -2.5373    0.2768   -1.0318 H   0  0  0  0  0  0  0  0  0  0  0  0
  1  2  1  0
  1  5  1  0
  1  6  1  0
  1  7  1  0
  2  3  1  0
  2  8  1  0
  2  9  1  0
  3  4  1  0
  3 10  1  0
  3 11  1  0
  4 12  1  0
  4 13  1  0
  4 14  1  0
M  END
>  <reaction>  (1) 
rmg_rxn_27

>  <mol_properties>  (1) 
{"2": {"label": "donator", "atom_type": "Cs"}, "10": {"label": "d_hydrogen", "atom_type": "H0"}}

>  <type>  (1) 
r1h

$$$$

     RDKit          3D

 14 13  0  0  0  0  0  0  0  0999 V2000
    2.5796   -0.5432    0.2329 C   0  0  0  0  0  3  0  0  0  0  0  0
    1.2594    0.0982    0.3029 C   0  0  0  0  0  0  0  0  0  0  0  0
   -0.0483   -1.0244    0.9576 S   0  0  0  0  0  0  0  0  0  0  0  0
   -0.0049   -2.3732   -0.2491 C   0  0  0  0  0  0  0  0  0  0  0  0
   -0.3891   -1.9781   -1.6653 C   0  0  0  0  0  0  0  0  0  0  0  0
    2.9359   -0.9798   -0.6903 H   0  0  0  0  0  0  0  0  0  0  0  0
    3.1327   -0.7454    1.1400 H   0  0  0  0  0  0  0  0  0  0  0  0
    0.9347    0.4858   -0.6621 H   0  0  0  0  0  0  0  0  0  0  0  0
    1.2442    0.9220    1.0193 H   0  0  0  0  0  0  0  0  0  0  0  0
    0.9819   -2.8380   -0.2257 H   0  0  0  0  0  0  0  0  0  0  0  0
   -0.7110   -3.1037    0.1493 H   0  0  0  0  0  0  0  0  0  0  0  0
    0.3274   -1.2737   -2.0913 H   0  0  0  0  0  0  0  0  0  0  0  0
   -0.4075   -2.8581   -2.3121 H   0  0  0  0  0  0  0  0  0  0  0  0
   -1.3749   -1.5123   -1.6865 H   0  0  0  0  0  0  0  0  0  0  0  0
  1  2  1  0
  1  6  1  0
  1  7  1  0
  2  3  1  0
  2  8  1  0
  2  9  1  0
  3  4  1  0
  4  5  1  0
  4 10  1  0
  4 11  1  0
  5 12  1  0
  5 13  1  0
  5 14  1  0
M  RAD  1   1   2
M  END
>  <reaction>  (2) 
rmg_rxn_27

>  <mol_properties>  (2) 
{"0": {"label": "acceptor", "atom_type": "Cs"}}

>  <type>  (2) 
r2

$$$$

     RDKit          3D

 15 14  0  0  0  0  0  0  0  0999 V2000
   -2.0554    0.0723   -0.4910 C   0  0  0  0  0  0  0  0  0  0  0  0
   -0.7461   -0.6266   -0.8178 C   0  0  0  0  0  0  0  0  0  0  0  0
    0.3249    0.2591   -1.9782 S   0  0  0  0  0  0  0  0  0  0  0  0
   -0.7172    0.3642   -3.4551 C   0  0  0  0  0  0  0  0  0  0  0  0
   -1.1375   -0.9737   -4.0409 C   0  0  0  0  0  0  0  0  0  0  0  0
   -2.7005    0.1427   -1.3684 H   0  0  0  0  0  0  0  0  0  0  0  0
   -2.6016   -0.4848    0.2733 H   0  0  0  0  0  0  0  0  0  0  0  0
   -1.8758    1.0825   -0.1213 H   0  0  0  0  0  0  0  0  0  0  0  0
   -0.1320   -0.7246    0.0789 H   0  0  0  0  0  0  0  0  0  0  0  0
   -0.9254   -1.6374   -1.1879 H   0  0  0  0  0  0  0  0  0  0  0  0
   -1.5873    0.9874   -3.2422 H   0  0  0  0  0  0  0  0  0  0  0  0
   -0.1021    0.9161   -4.1678 H   0  0  0  0  0  0  0  0  0  0  0  0
   -1.7876   -1.5224   -3.3574 H   0  0  0  0  0  0  0  0  0  0  0  0
   -0.2676   -1.5962   -4.2534 H   0  0  0  0  0  0  0  0  0  0  0  0
   -1.6916   -0.8229   -4.9700 H   0  0  0  0  0  0  0  0  0  0  0  0
  1  2  1  0
  1  6  1  0
  1  7  1  0
  1  8  1  0
  2  3  1  0
  2  9  1  0
  2 10  1  0
  3  4  1  0
  4  5  1  0
  4 11  1  0
  4 12  1  0
  5 13  1  0
  5 14  1  0
  5 15  1  0
M  END
>  <reaction>  (3) 
rmg_rxn_27

>  <mol_properties>  (3) 
{"0": {"label": "acceptor", "atom_type": "Cs"}, "14": {"label": "a_hydrogen", "atom_type": "H0"}}

>  <type>  (3) 
r2h

$$$$

     RDKit          3D

 28 26  0  0  0  0  0  0  0  0999 V2000
   -0.0233    1.4420   -0.6084 C   0  0  0  0  0  3  0  0  0  0  0  0
    0.8804    0.3958   -1.1962 C   0  0  0  0  0  0  0  0  0  0  0  0
    1.4514   -0.8951   -0.0533 S   0  0  0  0  0  0  0  0  0  0  0  0
    2.1752    0.0799    1.2876 C   0  0  0  0  0  0  0  0  0  0  0  0
    3.3277    0.9802    0.8748 C   0  0  0  0  0  0  0  0  0  0  0  0
    0.4142    2.0341    0.1932 H   0  0  0  0  0  0  0  0  0  0  0  0
   -0.4952    2.0774   -1.3564 H   0  0  0  0  0  0  0  0  0  0  0  0
    1.7553    0.8537   -1.6684 H   0  0  0  0  0  0  0  0  0  0  0  0
    0.3626   -0.1621   -1.9793 H   0  0  0  0  0  0  0  0  0  0  0  0
    1.3871    0.6520    1.7805 H   0  0  0  0  0  0  0  0  0  0  0  0
    2.5135   -0.6712    2.0035 H   0  0  0  0  0  0  0  0  0  0  0  0
    2.9981    1.7547    0.1801 H   0  0  0  0  0  0  0  0  0  0  0  0
    3.7495    1.4805    1.7493 H   0  0  0  0  0  0  0  0  0  0  0  0
    4.1176    0.4050    0.3906 H   0  0  0  0  0  0  0  0  0  0  0  0
   -2.8683   -0.6233   -1.6549 C   0  0  0  0  0  0  0  0  0  0  0  0
   -2.4467   -0.9669   -0.2320 C   0  0  0  0  0  0  0  0  0  0  0  0
   -2.1159    0.2473    0.6007 C   0  0  0  0  0  0  0  0  0  0  0  0
   -1.6675   -0.0238    2.0137 C   0  0  0  0  0  0  0  0  0  0  0  0
   -2.0777   -0.0806   -2.1781 H   0  0  0  0  0  0  0  0  0  0  0  0
   -3.7583    0.0104   -1.6579 H   0  0  0  0  0  0  0  0  0  0  0  0
   -3.0949   -1.5214   -2.2313 H   0  0  0  0  0  0  0  0  0  0  0  0
   -3.2498   -1.5324    0.2586 H   0  0  0  0  0  0  0  0  0  0  0  0
   -1.5765   -1.6304   -0.2475 H   0  0  0  0  0  0  0  0  0  0  0  0
   -2.8872    1.0193    0.5392 H   0  0  0  0  0  0  0  0  0  0  0  0
   -1.1018    0.8267    0.0044 H   0  0  0  0  0  0  0  0  0  0  0  0
   -0.8252   -0.7191    2.0205 H   0  0  0  0  0  0  0  0  0  0  0  0
   -2.4732   -0.4699    2.6066 H   0  0  0  0  0  0  0  0  0  0  0  0
   -1.3586    0.8943    2.5182 H   0  0  0  0  0  0  0  0  0  0  0  0
  1  2  1  0
  1  6  1  0
  1  7  1  0
  2  3  1  0
  2  8  1  0
  2  9  1  0
  3  4  1  0
  4  5  1  0
  4 10  1  0
  4 11  1  0
  5 12  1  0
  5 13  1  0
  5 14  1  0
 15 16  1  0
 15 19  1  0
 15 20  1  0
 15 21  1  0
 16 17  1  0
 16 22  1  0
 16 23  1  0
 17 18  1  0
 17 24  1  0
 17 25  1  0
 18 26  1  0
 18 27  1  0
 18 28  1  0
M  RAD  1   1   2
M  END
>  <reaction>  (4) 
rmg_rxn_27

>  <mol_properties>  (4) 
{"0": {"label": "*3", "atom_type": "Cs"}, "1": {"label": "*4", "atom_type": "Cs"}, "15": {"label": "*0", "atom_type": "Cs"}, "16": {"label": "*1", "atom_type": "Cs"}, "24": {"label": "*2", "atom_type": "H0"}}

>  <type>  (4) 
ts

$$$$

     RDKit          3D

 28 26  0  0  0  0  0  0  0  0999 V2000
    0.6368    0.2251    0.9505 C   0  0  0  0  0  0  0  0  0  0  0  0
    0.2183    1.4717    0.1886 C   0  0  0  0  0  0  0  0  0  0  0  0
    0.0955    1.2661   -1.6061 S   0  0  0  0  0  0  0  0  0  0  0  0
    1.7856    0.7944   -2.0525 C   0  0  0  0  0  0  0  0  0  0  0  0
    2.8508    1.8231   -1.7109 C   0  0  0  0  0  0  0  0  0  0  0  0
    1.6555   -0.0741    0.6980 H   0  0  0  0  0  0  0  0  0  0  0  0
    0.6071    0.4111    2.0264 H   0  0  0  0  0  0  0  0  0  0  0  0
    0.8822    2.3079    0.4139 H   0  0  0  0  0  0  0  0  0  0  0  0
   -0.7862    1.7796    0.4837 H   0  0  0  0  0  0  0  0  0  0  0  0
    2.0219   -0.1740   -1.6084 H   0  0  0  0  0  0  0  0  0  0  0  0
    1.7356    0.6413   -3.1319 H   0  0  0  0  0  0  0  0  0  0  0  0
    2.9432    1.9592   -0.6321 H   0  0  0  0  0  0  0  0  0  0  0  0
    3.8244    1.4985   -2.0848 H   0  0  0  0  0  0  0  0  0  0  0  0
    2.6143    2.7907   -2.1549 H   0  0  0  0  0  0  0  0  0  0  0  0
   -1.4592   -2.4848   -0.2898 C   0  0  0  0  0  0  0  0  0  0  0  0
   -1.4592   -2.4848    1.2329 C   0  0  0  0  0  0  0  0  0  0  0  0
   -1.4592   -1.0824    1.8303 C   0  0  0  0  0  3  0  0  0  0  0  0
   -1.4592   -1.0824    3.3530 C   0  0  0  0  0  0  0  0  0  0  0  0
   -0.5777   -1.9715   -0.6811 H   0  0  0  0  0  0  0  0  0  0  0  0
   -2.3407   -1.9715   -0.6811 H   0  0  0  0  0  0  0  0  0  0  0  0
   -1.4592   -3.4999   -0.6901 H   0  0  0  0  0  0  0  0  0  0  0  0
   -2.3342   -3.0307    1.6003 H   0  0  0  0  0  0  0  0  0  0  0  0
   -0.5842   -3.0307    1.6003 H   0  0  0  0  0  0  0  0  0  0  0  0
   -2.3342   -0.5366    1.4630 H   0  0  0  0  0  0  0  0  0  0  0  0
   -0.4092   -0.4274    1.3895 H   0  0  0  0  0  0  0  0  0  0  0  0
   -0.5777   -1.5958    3.7444 H   0  0  0  0  0  0  0  0  0  0  0  0
   -2.3407   -1.5958    3.7444 H   0  0  0  0  0  0  0  0  0  0  0  0
   -1.4592   -0.0673    3.7534 H   0  0  0  0  0  0  0  0  0  0  0  0
  1  2  1  0
  1  6  1  0
  1  7  1  0
  1 25  1  0
  2  3  1  0
  2  8  1  0
  2  9  1  0
  3  4  1  0
  4  5  1  0
  4 10  1  0
  4 11  1  0
  5 12  1  0
  5 13  1  0
  5 14  1  0
 15 16  1  0
 15 19  1  0
 15 20  1  0
 15 21  1  0
 16 17  1  0
 16 22  1  0
 16 23  1  0
 17 18  1  0
 17 24  1  0
 18 26  1  0
 18 27  1  0
 18 28  1  0
M  RAD  1  17   2
M  END
>  <reaction>  (5) 
rmg_rxn_27

>  <mol_properties>  (5) 
{"0": {"label": "*3", "atom_type": "Cs"}, "1": {"label": "*4", "atom_type": "Cs"}, "15": {"label": "*0", "atom_type": "Cs"}, "16": {"label": "*1", "atom_type": "Cs"}, "24": {"label": "*2", "atom_type": "H0"}}

>  <type>  (5) 
unop_1

>  <geom_source>  (5) 
Heuristics

$$$$

     RDKit          3D

 28 26  0  0  0  0  0  0  0  0999 V2000
   -0.0962    1.5426    0.3494 C   0  0  0  0  0  0  0  0  0  0  0  0
    0.2992    1.0638   -1.0377 C   0  0  0  0  0  0  0  0  0  0  0  0
    1.0828   -0.5676   -1.0892 S   0  0  0  0  0  0  0  0  0  0  0  0
    2.5562   -0.3156   -0.0675 C   0  0  0  0  0  0  0  0  0  0  0  0
    3.5161    0.7471   -0.5762 C   0  0  0  0  0  0  0  0  0  0  0  0
    0.7791    1.7043    0.9807 H   0  0  0  0  0  0  0  0  0  0  0  0
   -0.6326    2.4918    0.2838 H   0  0  0  0  0  0  0  0  0  0  0  0
    0.9435    1.7922   -1.5328 H   0  0  0  0  0  0  0  0  0  0  0  0
   -0.5847    0.9470   -1.6670 H   0  0  0  0  0  0  0  0  0  0  0  0
    2.2543   -0.1087    0.9606 H   0  0  0  0  0  0  0  0  0  0  0  0
    3.0387   -1.2944   -0.0624 H   0  0  0  0  0  0  0  0  0  0  0  0
    3.0635    1.7398   -0.5497 H   0  0  0  0  0  0  0  0  0  0  0  0
    4.4116    0.7786    0.0483 H   0  0  0  0  0  0  0  0  0  0  0  0
    3.8174    0.5400   -1.6036 H   0  0  0  0  0  0  0  0  0  0  0  0
   -2.1922   -1.1674   -0.8908 C   0  0  0  0  0  0  0  0  0  0  0  0
   -2.1922   -1.1674    0.6319 C   0  0  0  0  0  0  0  0  0  0  0  0
   -2.1922    0.2350    1.2293 C   0  0  0  0  0  3  0  0  0  0  0  0
   -2.1922    0.2350    2.7520 C   0  0  0  0  0  0  0  0  0  0  0  0
   -1.3107   -0.6540   -1.2822 H   0  0  0  0  0  0  0  0  0  0  0  0
   -3.0738   -0.6540   -1.2822 H   0  0  0  0  0  0  0  0  0  0  0  0
   -2.1922   -2.1825   -1.2912 H   0  0  0  0  0  0  0  0  0  0  0  0
   -3.0673   -1.7132    0.9992 H   0  0  0  0  0  0  0  0  0  0  0  0
   -1.3172   -1.7132    0.9992 H   0  0  0  0  0  0  0  0  0  0  0  0
   -3.0673    0.7809    0.8620 H   0  0  0  0  0  0  0  0  0  0  0  0
   -1.1422    0.8901    0.7885 H   0  0  0  0  0  0  0  0  0  0  0  0
   -1.3107   -0.2783    3.1433 H   0  0  0  0  0  0  0  0  0  0  0  0
   -3.0738   -0.2783    3.1433 H   0  0  0  0  0  0  0  0  0  0  0  0
   -2.1922    1.2501    3.1523 H   0  0  0  0  0  0  0  0  0  0  0  0
  1  2  1  0
  1  6  1  0
  1  7  1  0
  1 25  1  0
  2  3  1  0
  2  8  1  0
  2  9  1  0
  3  4  1  0
  4  5  1  0
  4 10  1  0
  4 11  1  0
  5 12  1  0
  5 13  1  0
  5 14  1  0
 15 16  1  0
 15 19  1  0
 15 20  1  0
 15 21  1  0
 16 17  1  0
 16 22  1  0
 16 23  1  0
 17 18  1  0
 17 24  1  0
 18 26  1  0
 18 27  1  0
 18 28  1  0
M  RAD  1  17   2
M  END
>  <reaction>  (6) 
rmg_rxn_27

>  <mol_properties>  (6) 
{"0": {"label": "*3", "atom_type": "Cs"}, "1": {"label": "*4", "atom_type": "Cs"}, "15": {"label": "*0", "atom_type": "Cs"}, "16": {"label": "*1", "atom_type": "Cs"}, "24": {"label": "*2", "atom_type": "H0"}}

>  <type>  (6) 
unop_2

>  <geom_source>  (6) 
Heuristics

$$$$

     RDKit          3D

 28 26  0  0  0  0  0  0  0  0999 V2000
    0.9308   -0.1619    0.6806 C   0  0  0  0  0  0  0  0  0  0  0  0
    0.6456    1.3286    0.5989 C   0  0  0  0  0  0  0  0  0  0  0  0
   -0.1895    1.8658   -0.9151 S   0  0  0  0  0  0  0  0  0  0  0  0
    0.9944    1.3811   -2.1964 C   0  0  0  0  0  0  0  0  0  0  0  0
    2.3618    2.0354   -2.0876 C   0  0  0  0  0  0  0  0  0  0  0  0
    1.6462   -0.4740   -0.0821 H   0  0  0  0  0  0  0  0  0  0  0  0
    1.3589   -0.4127    1.6536 H   0  0  0  0  0  0  0  0  0  0  0  0
    1.5598    1.9087    0.7349 H   0  0  0  0  0  0  0  0  0  0  0  0
   -0.0389    1.6300    1.3935 H   0  0  0  0  0  0  0  0  0  0  0  0
    1.0829    0.2937   -2.2168 H   0  0  0  0  0  0  0  0  0  0  0  0
    0.5045    1.6741   -3.1264 H   0  0  0  0  0  0  0  0  0  0  0  0
    2.8839    1.7213   -1.1822 H   0  0  0  0  0  0  0  0  0  0  0  0
    2.9850    1.7542   -2.9394 H   0  0  0  0  0  0  0  0  0  0  0  0
    2.2730    3.1221   -2.0671 H   0  0  0  0  0  0  0  0  0  0  0  0
   -1.1652   -2.8718   -0.5596 C   0  0  0  0  0  0  0  0  0  0  0  0
   -1.1652   -2.8718    0.9631 C   0  0  0  0  0  0  0  0  0  0  0  0
   -1.1652   -1.4694    1.5604 C   0  0  0  0  0  3  0  0  0  0  0  0
   -1.1652   -1.4694    3.0831 C   0  0  0  0  0  0  0  0  0  0  0  0
   -0.2837   -2.3585   -0.9510 H   0  0  0  0  0  0  0  0  0  0  0  0
   -2.0468   -2.3585   -0.9510 H   0  0  0  0  0  0  0  0  0  0  0  0
   -1.1652   -3.8869   -0.9600 H   0  0  0  0  0  0  0  0  0  0  0  0
   -2.0403   -3.4177    1.3304 H   0  0  0  0  0  0  0  0  0  0  0  0
   -0.2902   -3.4177    1.3304 H   0  0  0  0  0  0  0  0  0  0  0  0
   -2.0403   -0.9236    1.1931 H   0  0  0  0  0  0  0  0  0  0  0  0
   -0.1152   -0.8144    1.1197 H   0  0  0  0  0  0  0  0  0  0  0  0
   -0.2837   -1.9828    3.4745 H   0  0  0  0  0  0  0  0  0  0  0  0
   -2.0468   -1.9828    3.4745 H   0  0  0  0  0  0  0  0  0  0  0  0
   -1.1652   -0.4543    3.4835 H   0  0  0  0  0  0  0  0  0  0  0  0
  1  2  1  0
  1  6  1  0
  1  7  1  0
  1 25  1  0
  2  3  1  0
  2  8  1  0
  2  9  1  0
  3  4  1  0
  4  5  1  0
  4 10  1  0
  4 11  1  0
  5 12  1  0
  5 13  1  0
  5 14  1  0
 15 16  1  0
 15 19  1  0
 15 20  1  0
 15 21  1  0
 16 17  1  0
 16 22  1  0
 16 23  1  0
 17 18  1  0
 17 24  1  0
 18 26  1  0
 18 27  1  0
 18 28  1  0
M  RAD  1  17   2
M  END
>  <reaction>  (7) 
rmg_rxn_27

>  <mol_properties>  (7) 
{"0": {"label": "*3", "atom_type": "Cs"}, "1": {"label": "*4", "atom_type": "Cs"}, "15": {"label": "*0", "atom_type": "Cs"}, "16": {"label": "*1", "atom_type": "Cs"}, "24": {"label": "*2", "atom_type": "H0"}}

>  <type>  (7) 
unop_3

>  <geom_source>  (7) 
Heuristics

$$$$

     RDKit          3D

 28 26  0  0  0  0  0  0  0  0999 V2000
    0.2233    1.2439   -1.3156 C   0  0  0  0  0  0  0  0  0  0  0  0
    1.5093    0.5385   -0.9179 C   0  0  0  0  0  0  0  0  0  0  0  0
    1.3726   -0.5437    0.5273 S   0  0  0  0  0  0  0  0  0  0  0  0
    0.8635    0.6133    1.8236 C   0  0  0  0  0  0  0  0  0  0  0  0
    1.8446    1.7406    2.0995 C   0  0  0  0  0  0  0  0  0  0  0  0
   -0.0990    1.9495   -0.5481 H   0  0  0  0  0  0  0  0  0  0  0  0
    0.3712    1.8088   -2.2387 H   0  0  0  0  0  0  0  0  0  0  0  0
    2.3151    1.2569   -0.7588 H   0  0  0  0  0  0  0  0  0  0  0  0
    1.8383   -0.1319   -1.7136 H   0  0  0  0  0  0  0  0  0  0  0  0
   -0.1273    1.0069    1.5906 H   0  0  0  0  0  0  0  0  0  0  0  0
    0.7511   -0.0188    2.7059 H   0  0  0  0  0  0  0  0  0  0  0  0
    1.9387    2.4074    1.2407 H   0  0  0  0  0  0  0  0  0  0  0  0
    1.5028    2.3417    2.9450 H   0  0  0  0  0  0  0  0  0  0  0  0
    2.8347    1.3469    2.3321 H   0  0  0  0  0  0  0  0  0  0  0  0
   -1.8727   -1.4661   -2.5559 C   0  0  0  0  0  0  0  0  0  0  0  0
   -1.8727   -1.4661   -1.0332 C   0  0  0  0  0  0  0  0  0  0  0  0
   -1.8727   -0.0637   -0.4358 C   0  0  0  0  0  3  0  0  0  0  0  0
   -1.8727   -0.0637    1.0869 C   0  0  0  0  0  0  0  0  0  0  0  0
   -0.9912   -0.9527   -2.9472 H   0  0  0  0  0  0  0  0  0  0  0  0
   -2.7542   -0.9527   -2.9472 H   0  0  0  0  0  0  0  0  0  0  0  0
   -1.8727   -2.4812   -2.9562 H   0  0  0  0  0  0  0  0  0  0  0  0
   -2.7477   -2.0120   -0.6659 H   0  0  0  0  0  0  0  0  0  0  0  0
   -0.9977   -2.0120   -0.6659 H   0  0  0  0  0  0  0  0  0  0  0  0
   -2.7477    0.4822   -0.8031 H   0  0  0  0  0  0  0  0  0  0  0  0
   -0.8227    0.5914   -0.8766 H   0  0  0  0  0  0  0  0  0  0  0  0
   -0.9912   -0.5770    1.4783 H   0  0  0  0  0  0  0  0  0  0  0  0
   -2.7542   -0.5770    1.4783 H   0  0  0  0  0  0  0  0  0  0  0  0
   -1.8727    0.9514    1.4873 H   0  0  0  0  0  0  0  0  0  0  0  0
  1  2  1  0
  1  6  1  0
  1  7  1  0
  1 25  1  0
  2  3  1  0
  2  8  1  0
  2  9  1  0
  3  4  1  0
  4  5  1  0
  4 10  1  0
  4 11  1  0
  5 12  1  0
  5 13  1  0
  5 14  1  0
 15 16  1  0
 15 19  1  0
 15 20  1  0
 15 21  1  0
 16 17  1  0
 16 22  1  0
 16 23  1  0
 17 18  1  0
 17 24  1  0
 18 26  1  0
 18 27  1  0
 18 28  1  0
M  RAD  1  17   2
M  END
>  <reaction>  (8) 
rmg_rxn_27

>  <mol_properties>  (8) 
{"0": {"label": "*3", "atom_type": "Cs"}, "1": {"label": "*4", "atom_type": "Cs"}, "15": {"label": "*0", "atom_type": "Cs"}, "16": {"label": "*1", "atom_type": "Cs"}, "24": {"label": "*2", "atom_type": "H0"}}

>  <type>  (8) 
unop_4

>  <geom_source>  (8) 
Heuristics

$$$$

     RDKit          3D

 28 26  0  0  0  0  0  0  0  0999 V2000
    1.3049   -0.4122    0.0328 C   0  0  0  0  0  0  0  0  0  0  0  0
    1.3457    0.9953    0.6045 C   0  0  0  0  0  0  0  0  0  0  0  0
   -0.1452    1.9814    0.3164 S   0  0  0  0  0  0  0  0  0  0  0  0
   -0.2210    2.0391   -1.4917 C   0  0  0  0  0  0  0  0  0  0  0  0
    0.9780    2.6869   -2.1642 C   0  0  0  0  0  0  0  0  0  0  0  0
    1.2628   -0.3994   -1.0576 H   0  0  0  0  0  0  0  0  0  0  0  0
    2.2032   -0.9635    0.3195 H   0  0  0  0  0  0  0  0  0  0  0  0
    2.2177    1.5398    0.2385 H   0  0  0  0  0  0  0  0  0  0  0  0
    1.4291    0.9629    1.6920 H   0  0  0  0  0  0  0  0  0  0  0  0
   -0.3903    1.0336   -1.8805 H   0  0  0  0  0  0  0  0  0  0  0  0
   -1.1276    2.6115   -1.6951 H   0  0  0  0  0  0  0  0  0  0  0  0
    1.8876    2.1052   -2.0054 H   0  0  0  0  0  0  0  0  0  0  0  0
    0.8166    2.7548   -3.2423 H   0  0  0  0  0  0  0  0  0  0  0  0
    1.1469    3.6916   -1.7752 H   0  0  0  0  0  0  0  0  0  0  0  0
   -0.7911   -3.1222   -1.2074 C   0  0  0  0  0  0  0  0  0  0  0  0
   -0.7911   -3.1222    0.3153 C   0  0  0  0  0  0  0  0  0  0  0  0
   -0.7911   -1.7198    0.9127 C   0  0  0  0  0  3  0  0  0  0  0  0
   -0.7911   -1.7198    2.4354 C   0  0  0  0  0  0  0  0  0  0  0  0
    0.0904   -2.6088   -1.5988 H   0  0  0  0  0  0  0  0  0  0  0  0
   -1.6726   -2.6088   -1.5988 H   0  0  0  0  0  0  0  0  0  0  0  0
   -0.7911   -4.1373   -1.6078 H   0  0  0  0  0  0  0  0  0  0  0  0
   -1.6661   -3.6681    0.6826 H   0  0  0  0  0  0  0  0  0  0  0  0
    0.0840   -3.6681    0.6826 H   0  0  0  0  0  0  0  0  0  0  0  0
   -1.6661   -1.1739    0.5454 H   0  0  0  0  0  0  0  0  0  0  0  0
    0.2590   -1.0648    0.4719 H   0  0  0  0  0  0  0  0  0  0  0  0
    0.0904   -2.2332    2.8267 H   0  0  0  0  0  0  0  0  0  0  0  0
   -1.6726   -2.2332    2.8267 H   0  0  0  0  0  0  0  0  0  0  0  0
   -0.7911   -0.7047    2.8357 H   0  0  0  0  0  0  0  0  0  0  0  0
  1  2  1  0
  1  6  1  0
  1  7  1  0
  1 25  1  0
  2  3  1  0
  2  8  1  0
  2  9  1  0
  3  4  1  0
  4  5  1  0
  4 10  1  0
  4 11  1  0
  5 12  1  0
  5 13  1  0
  5 14  1  0
 15 16  1  0
 15 19  1  0
 15 20  1  0
 15 21  1  0
 16 17  1  0
 16 22  1  0
 16 23  1  0
 17 18  1  0
 17 24  1  0
 18 26  1  0
 18 27  1  0
 18 28  1  0
M  RAD  1  17   2
M  END
>  <reaction>  (9) 
rmg_rxn_27

>  <mol_properties>  (9) 
{"0": {"label": "*3", "atom_type": "Cs"}, "1": {"label": "*4", "atom_type": "Cs"}, "15": {"label": "*0", "atom_type": "Cs"}, "16": {"label": "*1", "atom_type": "Cs"}, "24": {"label": "*2", "atom_type": "H0"}}

>  <type>  (9) 
unop_5

>  <geom_source>  (9) 
Heuristics

$$$$

     RDKit          3D

 28 26  0  0  0  0  0  0  0  0999 V2000
    0.5398    0.7640   -1.5195 C   0  0  0  0  0  0  0  0  0  0  0  0
    1.7307    0.5640   -0.5969 C   0  0  0  0  0  0  0  0  0  0  0  0
    1.3282   -0.1001    1.0387 S   0  0  0  0  0  0  0  0  0  0  0  0
    0.2233    1.1702    1.7049 C   0  0  0  0  0  0  0  0  0  0  0  0
    0.8394    2.5535    1.8341 C   0  0  0  0  0  0  0  0  0  0  0  0
   -0.1375    1.5295   -1.1372 H   0  0  0  0  0  0  0  0  0  0  0  0
    0.8759    1.0876   -2.5070 H   0  0  0  0  0  0  0  0  0  0  0  0
    2.2964    1.4903   -0.4838 H   0  0  0  0  0  0  0  0  0  0  0  0
    2.4171   -0.1743   -1.0148 H   0  0  0  0  0  0  0  0  0  0  0  0
   -0.6911    1.2045    1.1104 H   0  0  0  0  0  0  0  0  0  0  0  0
   -0.0545    0.7834    2.6867 H   0  0  0  0  0  0  0  0  0  0  0  0
    1.0862    2.9735    0.8576 H   0  0  0  0  0  0  0  0  0  0  0  0
    0.1375    3.2371    2.3168 H   0  0  0  0  0  0  0  0  0  0  0  0
    1.7533    2.5188    2.4281 H   0  0  0  0  0  0  0  0  0  0  0  0
   -1.5563   -1.9460   -2.7597 C   0  0  0  0  0  0  0  0  0  0  0  0
   -1.5563   -1.9460   -1.2370 C   0  0  0  0  0  0  0  0  0  0  0  0
   -1.5563   -0.5436   -0.6397 C   0  0  0  0  0  3  0  0  0  0  0  0
   -1.5563   -0.5436    0.8830 C   0  0  0  0  0  0  0  0  0  0  0  0
   -0.6747   -1.4326   -3.1511 H   0  0  0  0  0  0  0  0  0  0  0  0
   -2.4378   -1.4326   -3.1511 H   0  0  0  0  0  0  0  0  0  0  0  0
   -1.5563   -2.9611   -3.1601 H   0  0  0  0  0  0  0  0  0  0  0  0
   -2.4313   -2.4919   -0.8697 H   0  0  0  0  0  0  0  0  0  0  0  0
   -0.6812   -2.4919   -0.8697 H   0  0  0  0  0  0  0  0  0  0  0  0
   -2.4313    0.0023   -1.0070 H   0  0  0  0  0  0  0  0  0  0  0  0
   -0.5062    0.1115   -1.0804 H   0  0  0  0  0  0  0  0  0  0  0  0
   -0.6747   -1.0570    1.2744 H   0  0  0  0  0  0  0  0  0  0  0  0
   -2.4378   -1.0570    1.2744 H   0  0  0  0  0  0  0  0  0  0  0  0
   -1.5563    0.4715    1.2834 H   0  0  0  0  0  0  0  0  0  0  0  0
  1  2  1  0
  1  6  1  0
  1  7  1  0
  1 25  1  0
  2  3  1  0
  2  8  1  0
  2  9  1  0
  3  4  1  0
  4  5  1  0
  4 10  1  0
  4 11  1  0
  5 12  1  0
  5 13  1  0
  5 14  1  0
 15 16  1  0
 15 19  1  0
 15 20  1  0
 15 21  1  0
 16 17  1  0
 16 22  1  0
 16 23  1  0
 17 18  1  0
 17 24  1  0
 18 26  1  0
 18 27  1  0
 18 28  1  0
M  RAD  1  17   2
M  END
>  <reaction>  (10) 
rmg_rxn_27

>  <mol_properties>  (10) 
{"0": {"label": "*3", "atom_type": "Cs"}, "1": {"label": "*4", "atom_type": "Cs"}, "15": {"label": "*0", "atom_type": "Cs"}, "16": {"label": "*1", "atom_type": "Cs"}, "24": {"label": "*2", "atom_type": "H0"}}

>  <type>  (10) 
unop_6

>  <geom_source>  (10) 
Heuristics

$$$$

     RDKit          3D

 28 26  0  0  0  0  0  0  0  0999 V2000
    0.9256    0.2220   -1.4178 C   0  0  0  0  0  0  0  0  0  0  0  0
    1.8187    0.6535   -0.2663 C   0  0  0  0  0  0  0  0  0  0  0  0
    1.0487    0.5736    1.3704 S   0  0  0  0  0  0  0  0  0  0  0  0
   -0.3444    1.7165    1.1929 C   0  0  0  0  0  0  0  0  0  0  0  0
    0.0387    3.1488    0.8594 C   0  0  0  0  0  0  0  0  0  0  0  0
    0.0807    0.9010   -1.5441 H   0  0  0  0  0  0  0  0  0  0  0  0
    1.4884    0.2216   -2.3539 H   0  0  0  0  0  0  0  0  0  0  0  0
    2.2132    1.6571   -0.4336 H   0  0  0  0  0  0  0  0  0  0  0  0
    2.6791   -0.0122   -0.1809 H   0  0  0  0  0  0  0  0  0  0  0  0
   -1.0483    1.3201    0.4592 H   0  0  0  0  0  0  0  0  0  0  0  0
   -0.8424    1.6710    2.1628 H   0  0  0  0  0  0  0  0  0  0  0  0
    0.5018    3.2192   -0.1263 H   0  0  0  0  0  0  0  0  0  0  0  0
   -0.8484    3.7859    0.8508 H   0  0  0  0  0  0  0  0  0  0  0  0
    0.7423    3.5445    1.5927 H   0  0  0  0  0  0  0  0  0  0  0  0
   -1.1704   -2.4880   -2.6580 C   0  0  0  0  0  0  0  0  0  0  0  0
   -1.1704   -2.4880   -1.1353 C   0  0  0  0  0  0  0  0  0  0  0  0
   -1.1704   -1.0856   -0.5379 C   0  0  0  0  0  3  0  0  0  0  0  0
   -1.1704   -1.0856    0.9848 C   0  0  0  0  0  0  0  0  0  0  0  0
   -0.2889   -1.9746   -3.0494 H   0  0  0  0  0  0  0  0  0  0  0  0
   -2.0519   -1.9746   -3.0494 H   0  0  0  0  0  0  0  0  0  0  0  0
   -1.1704   -3.5031   -3.0584 H   0  0  0  0  0  0  0  0  0  0  0  0
   -2.0454   -3.0339   -0.7680 H   0  0  0  0  0  0  0  0  0  0  0  0
   -0.2953   -3.0339   -0.7680 H   0  0  0  0  0  0  0  0  0  0  0  0
   -2.0454   -0.5397   -0.9052 H   0  0  0  0  0  0  0  0  0  0  0  0
   -0.1203   -0.4306   -0.9787 H   0  0  0  0  0  0  0  0  0  0  0  0
   -0.2889   -1.5990    1.3761 H   0  0  0  0  0  0  0  0  0  0  0  0
   -2.0519   -1.5990    1.3761 H   0  0  0  0  0  0  0  0  0  0  0  0
   -1.1704   -0.0705    1.3851 H   0  0  0  0  0  0  0  0  0  0  0  0
  1  2  1  0
  1  6  1  0
  1  7  1  0
  1 25  1  0
  2  3  1  0
  2  8  1  0
  2  9  1  0
  3  4  1  0
  4  5  1  0
  4 10  1  0
  4 11  1  0
  5 12  1  0
  5 13  1  0
  5 14  1  0
 15 16  1  0
 15 19  1  0
 15 20  1  0
 15 21  1  0
 16 17  1  0
 16 22  1  0
 16 23  1  0
 17 18  1  0
 17 24  1  0
 18 26  1  0
 18 27  1  0
 18 28  1  0
M  RAD  1  17   2
M  END
>  <reaction>  (11) 
rmg_rxn_27

>  <mol_properties>  (11) 
{"0": {"label": "*3", "atom_type": "Cs"}, "1": {"label": "*4", "atom_type": "Cs"}, "15": {"label": "*0", "atom_type": "Cs"}, "16": {"label": "*1", "atom_type": "Cs"}, "24": {"label": "*2", "atom_type": "H0"}}

>  <type>  (11) 
unop_7

>  <geom_source>  (11) 
Heuristics

$$$$

     RDKit          3D

 28 26  0  0  0  0  0  0  0  0999 V2000
    0.3780    0.6897    1.0108 C   0  0  0  0  0  0  0  0  0  0  0  0
    0.0544    1.4308   -0.2759 C   0  0  0  0  0  0  0  0  0  0  0  0
    0.4628    0.5371   -1.7967 S   0  0  0  0  0  0  0  0  0  0  0  0
    2.2516    0.3080   -1.6360 C   0  0  0  0  0  0  0  0  0  0  0  0
    3.0580    1.5930   -1.5465 C   0  0  0  0  0  0  0  0  0  0  0  0
    1.4532    0.5445    1.1286 H   0  0  0  0  0  0  0  0  0  0  0  0
    0.0278    1.2595    1.8744 H   0  0  0  0  0  0  0  0  0  0  0  0
    0.5321    2.4118   -0.2916 H   0  0  0  0  0  0  0  0  0  0  0  0
   -1.0201    1.6031   -0.3568 H   0  0  0  0  0  0  0  0  0  0  0  0
    2.4595   -0.3430   -0.7853 H   0  0  0  0  0  0  0  0  0  0  0  0
    2.5231   -0.2508   -2.5331 H   0  0  0  0  0  0  0  0  0  0  0  0
    2.8290    2.1455   -0.6337 H   0  0  0  0  0  0  0  0  0  0  0  0
    4.1270    1.3692   -1.5344 H   0  0  0  0  0  0  0  0  0  0  0  0
    2.8498    2.2434   -2.3968 H   0  0  0  0  0  0  0  0  0  0  0  0
   -1.7180   -2.0203   -0.2294 C   0  0  0  0  0  0  0  0  0  0  0  0
   -1.7180   -2.0203    1.2933 C   0  0  0  0  0  0  0  0  0  0  0  0
   -1.7180   -0.6179    1.8907 C   0  0  0  0  0  3  0  0  0  0  0  0
   -1.7180   -0.6179    3.4134 C   0  0  0  0  0  0  0  0  0  0  0  0
   -0.8365   -1.5069   -0.6208 H   0  0  0  0  0  0  0  0  0  0  0  0
   -2.5996   -1.5069   -0.6208 H   0  0  0  0  0  0  0  0  0  0  0  0
   -1.7180   -3.0354   -0.6298 H   0  0  0  0  0  0  0  0  0  0  0  0
   -2.5931   -2.5662    1.6606 H   0  0  0  0  0  0  0  0  0  0  0  0
   -0.8430   -2.5662    1.6606 H   0  0  0  0  0  0  0  0  0  0  0  0
   -2.5931   -0.0720    1.5234 H   0  0  0  0  0  0  0  0  0  0  0  0
   -0.6680    0.0372    1.4499 H   0  0  0  0  0  0  0  0  0  0  0  0
   -0.8365   -1.1313    3.8047 H   0  0  0  0  0  0  0  0  0  0  0  0
   -2.5996   -1.1313    3.8047 H   0  0  0  0  0  0  0  0  0  0  0  0
   -1.7180    0.3972    3.8137 H   0  0  0  0  0  0  0  0  0  0  0  0
  1  2  1  0
  1  6  1  0
  1  7  1  0
  1 25  1  0
  2  3  1  0
  2  8  1  0
  2  9  1  0
  3  4  1  0
  4  5  1  0
  4 10  1  0
  4 11  1  0
  5 12  1  0
  5 13  1  0
  5 14  1  0
 15 16  1  0
 15 19  1  0
 15 20  1  0
 15 21  1  0
 16 17  1  0
 16 22  1  0
 16 23  1  0
 17 18  1  0
 17 24  1  0
 18 26  1  0
 18 27  1  0
 18 28  1  0
M  RAD  1  17   2
M  END
>  <reaction>  (12) 
rmg_rxn_27

>  <mol_properties>  (12) 
{"0": {"label": "*3", "atom_type": "Cs"}, "1": {"label": "*4", "atom_type": "Cs"}, "15": {"label": "*0", "atom_type": "Cs"}, "16": {"label": "*1", "atom_type": "Cs"}, "24": {"label": "*2", "atom_type": "H0"}}

>  <type>  (12) 
unop_8

>  <geom_source>  (12) 
Heuristics

$$$$

     RDKit          3D

 28 26  0  0  0  0  0  0  0  0999 V2000
   -0.0127    1.5764   -0.8845 C   0  0  0  0  0  0  0  0  0  0  0  0
    1.1399    0.6270   -1.1669 C   0  0  0  0  0  0  0  0  0  0  0  0
    1.2989   -0.7507   -0.0029 S   0  0  0  0  0  0  0  0  0  0  0  0
    1.5620    0.1070    1.5698 C   0  0  0  0  0  0  0  0  0  0  0  0
    2.7997    0.9873    1.6218 C   0  0  0  0  0  0  0  0  0  0  0  0
    0.1287    2.1068    0.0587 H   0  0  0  0  0  0  0  0  0  0  0  0
   -0.0873    2.3270   -1.6745 H   0  0  0  0  0  0  0  0  0  0  0  0
    2.0862    1.1677   -1.2214 H   0  0  0  0  0  0  0  0  0  0  0  0
    1.0023    0.1366   -2.1320 H   0  0  0  0  0  0  0  0  0  0  0  0
    0.6673    0.6764    1.8271 H   0  0  0  0  0  0  0  0  0  0  0  0
    1.6391   -0.7028    2.2971 H   0  0  0  0  0  0  0  0  0  0  0  0
    2.7221    1.8270    0.9291 H   0  0  0  0  0  0  0  0  0  0  0  0
    2.9285    1.4007    2.6246 H   0  0  0  0  0  0  0  0  0  0  0  0
    3.6935    0.4180    1.3645 H   0  0  0  0  0  0  0  0  0  0  0  0
   -2.1087   -1.1336   -2.1247 C   0  0  0  0  0  0  0  0  0  0  0  0
   -2.1087   -1.1336   -0.6021 C   0  0  0  0  0  0  0  0  0  0  0  0
   -2.1087    0.2688   -0.0047 C   0  0  0  0  0  3  0  0  0  0  0  0
   -2.1087    0.2688    1.5180 C   0  0  0  0  0  0  0  0  0  0  0  0
   -1.2272   -0.6202   -2.5161 H   0  0  0  0  0  0  0  0  0  0  0  0
   -2.9902   -0.6202   -2.5161 H   0  0  0  0  0  0  0  0  0  0  0  0
   -2.1087   -2.1487   -2.5251 H   0  0  0  0  0  0  0  0  0  0  0  0
   -2.9837   -1.6795   -0.2347 H   0  0  0  0  0  0  0  0  0  0  0  0
   -1.2337   -1.6795   -0.2347 H   0  0  0  0  0  0  0  0  0  0  0  0
   -2.9837    0.8147   -0.3720 H   0  0  0  0  0  0  0  0  0  0  0  0
   -1.0587    0.9238   -0.4455 H   0  0  0  0  0  0  0  0  0  0  0  0
   -1.2272   -0.2446    1.9094 H   0  0  0  0  0  0  0  0  0  0  0  0
   -2.9902   -0.2446    1.9094 H   0  0  0  0  0  0  0  0  0  0  0  0
   -2.1087    1.2839    1.9184 H   0  0  0  0  0  0  0  0  0  0  0  0
  1  2  1  0
  1  6  1  0
  1  7  1  0
  1 25  1  0
  2  3  1  0
  2  8  1  0
  2  9  1  0
  3  4  1  0
  4  5  1  0
  4 10  1  0
  4 11  1  0
  5 12  1  0
  5 13  1  0
  5 14  1  0
 15 16  1  0
 15 19  1  0
 15 20  1  0
 15 21  1  0
 16 17  1  0
 16 22  1  0
 16 23  1  0
 17 18  1  0
 17 24  1  0
 18 26  1  0
 18 27  1  0
 18 28  1  0
M  RAD  1  17   2
M  END
>  <reaction>  (13) 
rmg_rxn_27

>  <mol_properties>  (13) 
{"0": {"label": "*3", "atom_type": "Cs"}, "1": {"label": "*4", "atom_type": "Cs"}, "15": {"label": "*0", "atom_type": "Cs"}, "16": {"label": "*1", "atom_type": "Cs"}, "24": {"label": "*2", "atom_type": "H0"}}

>  <type>  (13) 
unop_9

>  <geom_source>  (13) 
Heuristics

$$$$

     RDKit          3D

 28 26  0  0  0  0  0  0  0  0999 V2000
    0.1107    1.1687    0.8174 C   0  0  0  0  0  0  0  0  0  0  0  0
    0.0851    1.2782   -0.6981 C   0  0  0  0  0  0  0  0  0  0  0  0
    0.8243   -0.1204   -1.5788 S   0  0  0  0  0  0  0  0  0  0  0  0
    2.5311   -0.0923   -0.9753 C   0  0  0  0  0  0  0  0  0  0  0  0
    3.2975    1.1851   -1.2761 C   0  0  0  0  0  0  0  0  0  0  0  0
    1.1318    1.1876    1.2021 H   0  0  0  0  0  0  0  0  0  0  0  0
   -0.4242    2.0082    1.2669 H   0  0  0  0  0  0  0  0  0  0  0  0
    0.5546    2.2057   -1.0301 H   0  0  0  0  0  0  0  0  0  0  0  0
   -0.9436    1.2991   -1.0616 H   0  0  0  0  0  0  0  0  0  0  0  0
    2.5421   -0.3112    0.0938 H   0  0  0  0  0  0  0  0  0  0  0  0
    2.9970   -0.9432   -1.4751 H   0  0  0  0  0  0  0  0  0  0  0  0
    2.8695    2.0407   -0.7511 H   0  0  0  0  0  0  0  0  0  0  0  0
    4.3363    1.0885   -0.9527 H   0  0  0  0  0  0  0  0  0  0  0  0
    3.2861    1.4036   -2.3445 H   0  0  0  0  0  0  0  0  0  0  0  0
   -1.9853   -1.5413   -0.4228 C   0  0  0  0  0  0  0  0  0  0  0  0
   -1.9853   -1.5413    1.0999 C   0  0  0  0  0  0  0  0  0  0  0  0
   -1.9853   -0.1389    1.6973 C   0  0  0  0  0  3  0  0  0  0  0  0
   -1.9853   -0.1389    3.2200 C   0  0  0  0  0  0  0  0  0  0  0  0
   -1.1038   -1.0280   -0.8142 H   0  0  0  0  0  0  0  0  0  0  0  0
   -2.8668   -1.0280   -0.8142 H   0  0  0  0  0  0  0  0  0  0  0  0
   -1.9853   -2.5564   -0.8232 H   0  0  0  0  0  0  0  0  0  0  0  0
   -2.8603   -2.0872    1.4672 H   0  0  0  0  0  0  0  0  0  0  0  0
   -1.1102   -2.0872    1.4672 H   0  0  0  0  0  0  0  0  0  0  0  0
   -2.8603    0.4070    1.3300 H   0  0  0  0  0  0  0  0  0  0  0  0
   -0.9352    0.5161    1.2565 H   0  0  0  0  0  0  0  0  0  0  0  0
   -1.1038   -0.6523    3.6113 H   0  0  0  0  0  0  0  0  0  0  0  0
   -2.8668   -0.6523    3.6113 H   0  0  0  0  0  0  0  0  0  0  0  0
   -1.9853    0.8762    3.6203 H   0  0  0  0  0  0  0  0  0  0  0  0
  1  2  1  0
  1  6  1  0
  1  7  1  0
  1 25  1  0
  2  3  1  0
  2  8  1  0
  2  9  1  0
  3  4  1  0
  4  5  1  0
  4 10  1  0
  4 11  1  0
  5 12  1  0
  5 13  1  0
  5 14  1  0
 15 16  1  0
 15 19  1  0
 15 20  1  0
 15 21  1  0
 16 17  1  0
 16 22  1  0
 16 23  1  0
 17 18  1  0
 17 24  1  0
 18 26  1  0
 18 27  1  0
 18 28  1  0
M  RAD  1  17   2
M  END
>  <reaction>  (14) 
rmg_rxn_27

>  <mol_properties>  (14) 
{"0": {"label": "*3", "atom_type": "Cs"}, "1": {"label": "*4", "atom_type": "Cs"}, "15": {"label": "*0", "atom_type": "Cs"}, "16": {"label": "*1", "atom_type": "Cs"}, "24": {"label": "*2", "atom_type": "H0"}}

>  <type>  (14) 
unop_10

>  <geom_source>  (14) 
Heuristics

$$$$

     RDKit          3D

 28 26  0  0  0  0  0  0  0  0999 V2000
    1.2903   -0.2527   -0.8932 C   0  0  0  0  0  0  0  0  0  0  0  0
    1.7624    0.7673    0.1298 C   0  0  0  0  0  0  0  0  0  0  0  0
    0.4785    1.3752    1.2524 S   0  0  0  0  0  0  0  0  0  0  0  0
   -0.7018    2.1332    0.1075 C   0  0  0  0  0  0  0  0  0  0  0  0
   -0.1449    3.2759   -0.7254 C   0  0  0  0  0  0  0  0  0  0  0  0
    0.5800    0.1859   -1.5960 H   0  0  0  0  0  0  0  0  0  0  0  0
    2.1367   -0.6267   -1.4734 H   0  0  0  0  0  0  0  0  0  0  0  0
    2.2483    1.6135   -0.3587 H   0  0  0  0  0  0  0  0  0  0  0  0
    2.5020    0.3230    0.7979 H   0  0  0  0  0  0  0  0  0  0  0  0
   -1.1363    1.3614   -0.5301 H   0  0  0  0  0  0  0  0  0  0  0  0
   -1.5016    2.4903    0.7583 H   0  0  0  0  0  0  0  0  0  0  0  0
    0.6290    2.9292   -1.4124 H   0  0  0  0  0  0  0  0  0  0  0  0
   -0.9374    3.7280   -1.3259 H   0  0  0  0  0  0  0  0  0  0  0  0
    0.2893    4.0468   -0.0879 H   0  0  0  0  0  0  0  0  0  0  0  0
   -0.8057   -2.9626   -2.1334 C   0  0  0  0  0  0  0  0  0  0  0  0
   -0.8057   -2.9626   -0.6107 C   0  0  0  0  0  0  0  0  0  0  0  0
   -0.8057   -1.5602   -0.0134 C   0  0  0  0  0  3  0  0  0  0  0  0
   -0.8057   -1.5602    1.5093 C   0  0  0  0  0  0  0  0  0  0  0  0
    0.0758   -2.4493   -2.5248 H   0  0  0  0  0  0  0  0  0  0  0  0
   -1.6872   -2.4493   -2.5248 H   0  0  0  0  0  0  0  0  0  0  0  0
   -0.8057   -3.9777   -2.5338 H   0  0  0  0  0  0  0  0  0  0  0  0
   -1.6808   -3.5085   -0.2434 H   0  0  0  0  0  0  0  0  0  0  0  0
    0.0693   -3.5085   -0.2434 H   0  0  0  0  0  0  0  0  0  0  0  0
   -1.6808   -1.0144   -0.3807 H   0  0  0  0  0  0  0  0  0  0  0  0
    0.2443   -0.9052   -0.4541 H   0  0  0  0  0  0  0  0  0  0  0  0
    0.0758   -2.0736    1.9007 H   0  0  0  0  0  0  0  0  0  0  0  0
   -1.6872   -2.0736    1.9007 H   0  0  0  0  0  0  0  0  0  0  0  0
   -0.8057   -0.5451    1.9097 H   0  0  0  0  0  0  0  0  0  0  0  0
  1  2  1  0
  1  6  1  0
  1  7  1  0
  1 25  1  0
  2  3  1  0
  2  8  1  0
  2  9  1  0
  3  4  1  0
  4  5  1  0
  4 10  1  0
  4 11  1  0
  5 12  1  0
  5 13  1  0
  5 14  1  0
 15 16  1  0
 15 19  1  0
 15 20  1  0
 15 21  1  0
 16 17  1  0
 16 22  1  0
 16 23  1  0
 17 18  1  0
 17 24  1  0
 18 26  1  0
 18 27  1  0
 18 28  1  0
M  RAD  1  17   2
M  END
>  <reaction>  (15) 
rmg_rxn_27

>  <mol_properties>  (15) 
{"0": {"label": "*3", "atom_type": "Cs"}, "1": {"label": "*4", "atom_type": "Cs"}, "15": {"label": "*0", "atom_type": "Cs"}, "16": {"label": "*1", "atom_type": "Cs"}, "24": {"label": "*2", "atom_type": "H0"}}

>  <type>  (15) 
unop_11

>  <geom_source>  (15) 
Heuristics

$$$$

     RDKit          3D

 28 26  0  0  0  0  0  0  0  0999 V2000
   -0.1413    1.6918   -0.2855 C   0  0  0  0  0  0  0  0  0  0  0  0
    0.6854    0.8254   -1.2212 C   0  0  0  0  0  0  0  0  0  0  0  0
    1.2118   -0.7624   -0.5283 S   0  0  0  0  0  0  0  0  0  0  0  0
    2.2065   -0.2469    0.8941 C   0  0  0  0  0  0  0  0  0  0  0  0
    3.4164    0.6081    0.5554 C   0  0  0  0  0  0  0  0  0  0  0  0
    0.4420    2.0166    0.5778 H   0  0  0  0  0  0  0  0  0  0  0  0
   -0.4850    2.5891   -0.8049 H   0  0  0  0  0  0  0  0  0  0  0  0
    1.5578    1.3691   -1.5875 H   0  0  0  0  0  0  0  0  0  0  0  0
    0.0994    0.5443   -2.0979 H   0  0  0  0  0  0  0  0  0  0  0  0
    1.5667    0.2538    1.6225 H   0  0  0  0  0  0  0  0  0  0  0  0
    2.5201   -1.1892    1.3464 H   0  0  0  0  0  0  0  0  0  0  0  0
    3.1201    1.5725    0.1392 H   0  0  0  0  0  0  0  0  0  0  0  0
    4.0039    0.8060    1.4546 H   0  0  0  0  0  0  0  0  0  0  0  0
    4.0555    0.1074   -0.1728 H   0  0  0  0  0  0  0  0  0  0  0  0
   -2.2373   -1.0182   -1.5257 C   0  0  0  0  0  0  0  0  0  0  0  0
   -2.2373   -1.0182   -0.0030 C   0  0  0  0  0  0  0  0  0  0  0  0
   -2.2373    0.3842    0.5943 C   0  0  0  0  0  3  0  0  0  0  0  0
   -2.2373    0.3842    2.1170 C   0  0  0  0  0  0  0  0  0  0  0  0
   -1.3558   -0.5048   -1.9171 H   0  0  0  0  0  0  0  0  0  0  0  0
   -3.1188   -0.5048   -1.9171 H   0  0  0  0  0  0  0  0  0  0  0  0
   -2.2373   -2.0333   -1.9261 H   0  0  0  0  0  0  0  0  0  0  0  0
   -3.1123   -1.5641    0.3643 H   0  0  0  0  0  0  0  0  0  0  0  0
   -1.3623   -1.5641    0.3643 H   0  0  0  0  0  0  0  0  0  0  0  0
   -3.1123    0.9301    0.2270 H   0  0  0  0  0  0  0  0  0  0  0  0
   -1.1872    1.0393    0.1536 H   0  0  0  0  0  0  0  0  0  0  0  0
   -1.3558   -0.1291    2.5084 H   0  0  0  0  0  0  0  0  0  0  0  0
   -3.1188   -0.1291    2.5084 H   0  0  0  0  0  0  0  0  0  0  0  0
   -2.2373    1.3993    2.5174 H   0  0  0  0  0  0  0  0  0  0  0  0
  1  2  1  0
  1  6  1  0
  1  7  1  0
  1 25  1  0
  2  3  1  0
  2  8  1  0
  2  9  1  0
  3  4  1  0
  4  5  1  0
  4 10  1  0
  4 11  1  0
  5 12  1  0
  5 13  1  0
  5 14  1  0
 15 16  1  0
 15 19  1  0
 15 20  1  0
 15 21  1  0
 16 17  1  0
 16 22  1  0
 16 23  1  0
 17 18  1  0
 17 24  1  0
 18 26  1  0
 18 27  1  0
 18 28  1  0
M  RAD  1  17   2
M  END
>  <reaction>  (16) 
rmg_rxn_27

>  <mol_properties>  (16) 
{"0": {"label": "*3", "atom_type": "Cs"}, "1": {"label": "*4", "atom_type": "Cs"}, "15": {"label": "*0", "atom_type": "Cs"}, "16": {"label": "*1", "atom_type": "Cs"}, "24": {"label": "*2", "atom_type": "H0"}}

>  <type>  (16) 
unop_12

>  <geom_source>  (16) 
Heuristics

$$$$

     RDKit          3D

 28 26  0  0  0  0  0  0  0  0999 V2000
    2.0433    0.8350   -0.9950 S   0  0  0  0  0  0  0  0  0  0  0  0
   -2.1082    0.7129    0.3782 C   0  0  0  0  0  0  0  0  0  0  0  0
    3.6422    1.1027   -0.1502 C   0  0  0  0  0  0  0  0  0  0  0  0
    1.8551   -0.9125   -0.5016 C   0  0  0  0  0  0  0  0  0  0  0  0
   -3.3180    0.6512    1.3090 C   0  0  0  0  0  0  0  0  0  0  0  0
    3.4239    1.5297    1.2954 C   0  0  0  0  0  0  0  0  0  0  0  0
    0.5461   -1.4615   -1.0453 C   0  0  0  0  0  0  0  0  0  0  0  0
   -2.7936   -1.0720   -1.3174 C   0  0  0  0  0  0  0  0  0  0  0  0
   -1.7861   -0.6455   -0.2541 C   0  0  0  0  0  3  0  0  0  0  0  0
   -2.2832    1.4715   -0.4149 H   0  0  0  0  0  0  0  0  0  0  0  0
   -1.2244    1.0381    0.9669 H   0  0  0  0  0  0  0  0  0  0  0  0
    4.2740    0.1899   -0.1878 H   0  0  0  0  0  0  0  0  0  0  0  0
    4.1829    1.9127   -0.6834 H   0  0  0  0  0  0  0  0  0  0  0  0
    1.8489   -0.9966    0.6048 H   0  0  0  0  0  0  0  0  0  0  0  0
    2.6982   -1.5100   -0.9092 H   0  0  0  0  0  0  0  0  0  0  0  0
    2.9172    0.7256    1.8678 H   0  0  0  0  0  0  0  0  0  0  0  0
    2.8049    2.4511    1.3324 H   0  0  0  0  0  0  0  0  0  0  0  0
    4.4042    1.7394    1.7728 H   0  0  0  0  0  0  0  0  0  0  0  0
    0.5379   -1.4041   -2.1545 H   0  0  0  0  0  0  0  0  0  0  0  0
    0.4303   -2.5229   -0.7404 H   0  0  0  0  0  0  0  0  0  0  0  0
   -0.4518   -0.7765   -0.5712 H   0  0  0  0  0  0  0  0  0  0  0  0
   -4.2417    0.4259    0.7364 H   0  0  0  0  0  0  0  0  0  0  0  0
   -3.4497    1.6339    1.8087 H   0  0  0  0  0  0  0  0  0  0  0  0
   -3.1680   -0.1251    2.0892 H   0  0  0  0  0  0  0  0  0  0  0  0
   -3.7795   -1.2907   -0.8574 H   0  0  0  0  0  0  0  0  0  0  0  0
   -2.4259   -1.9920   -1.8171 H   0  0  0  0  0  0  0  0  0  0  0  0
   -2.9072   -0.2759   -2.0830 H   0  0  0  0  0  0  0  0  0  0  0  0
   -1.6717   -1.4342    0.5209 H   0  0  0  0  0  0  0  0  0  0  0  0
  1  3  1  0
  1  4  1  0
  2  5  1  0
  2  9  1  0
  2 10  1  0
  2 11  1  0
  3  6  1  0
  3 12  1  0
  3 13  1  0
  4  7  1  0
  4 14  1  0
  4 15  1  0
  5 22  1  0
  5 23  1  0
  5 24  1  0
  6 16  1  0
  6 17  1  0
  6 18  1  0
  7 19  1  0
  7 20  1  0
  7 21  1  0
  8  9  1  0
  8 25  1  0
  8 26  1  0
  8 27  1  0
  9 28  1  0
M  RAD  1   9   2
M  END
>  <reaction>  (17) 
rmg_rxn_27

>  <mol_properties>  (17) 
{"0": {"label": "*3", "atom_type": "Cs"}, "1": {"label": "*4", "atom_type": "Cs"}, "15": {"label": "*0", "atom_type": "Cs"}, "16": {"label": "*1", "atom_type": "Cs"}, "24": {"label": "*2", "atom_type": "H0"}}

>  <type>  (17) 
unop_13

>  <geom_source>  (17) 
AutoTST

$$$$

     RDKit          3D

 28 26  0  0  0  0  0  0  0  0999 V2000
   -0.0962    1.5426    0.3494 C   0  0  0  0  0  0  0  0  0  0  0  0
    0.2992    1.0638   -1.0376 C   0  0  0  0  0  0  0  0  0  0  0  0
    1.0828   -0.5676   -1.0892 S   0  0  0  0  0  0  0  0  0  0  0  0
    2.5562   -0.3156   -0.0675 C   0  0  0  0  0  0  0  0  0  0  0  0
    3.5161    0.7471   -0.5762 C   0  0  0  0  0  0  0  0  0  0  0  0
    0.7791    1.7043    0.9807 H   0  0  0  0  0  0  0  0  0  0  0  0
   -0.6326    2.4918    0.2838 H   0  0  0  0  0  0  0  0  0  0  0  0
    0.9435    1.7922   -1.5328 H   0  0  0  0  0  0  0  0  0  0  0  0
   -0.5847    0.9470   -1.6670 H   0  0  0  0  0  0  0  0  0  0  0  0
    2.2543   -0.1087    0.9606 H   0  0  0  0  0  0  0  0  0  0  0  0
    3.0387   -1.2944   -0.0624 H   0  0  0  0  0  0  0  0  0  0  0  0
    3.0635    1.7398   -0.5497 H   0  0  0  0  0  0  0  0  0  0  0  0
    4.4116    0.7786    0.0483 H   0  0  0  0  0  0  0  0  0  0  0  0
    3.8174    0.5400   -1.6036 H   0  0  0  0  0  0  0  0  0  0  0  0
   -2.1923   -1.1674   -0.8908 C   0  0  0  0  0  0  0  0  0  0  0  0
   -2.1923   -1.1674    0.6319 C   0  0  0  0  0  0  0  0  0  0  0  0
   -2.1923    0.2350    1.2293 C   0  0  0  0  0  3  0  0  0  0  0  0
   -2.1923    0.2350    2.7520 C   0  0  0  0  0  0  0  0  0  0  0  0
   -1.3107   -0.6540   -1.2822 H   0  0  0  0  0  0  0  0  0  0  0  0
   -3.0738   -0.6540   -1.2822 H   0  0  0  0  0  0  0  0  0  0  0  0
   -2.1923   -2.1825   -1.2912 H   0  0  0  0  0  0  0  0  0  0  0  0
   -3.0673   -1.7132    0.9992 H   0  0  0  0  0  0  0  0  0  0  0  0
   -1.3172   -1.7132    0.9992 H   0  0  0  0  0  0  0  0  0  0  0  0
   -3.0673    0.7809    0.8620 H   0  0  0  0  0  0  0  0  0  0  0  0
   -1.1422    0.8901    0.7885 H   0  0  0  0  0  0  0  0  0  0  0  0
   -1.3107   -0.2783    3.1433 H   0  0  0  0  0  0  0  0  0  0  0  0
   -3.0738   -0.2783    3.1433 H   0  0  0  0  0  0  0  0  0  0  0  0
   -2.1923    1.2501    3.1523 H   0  0  0  0  0  0  0  0  0  0  0  0
  1  2  1  0
  1  6  1  0
  1  7  1  0
  1 25  1  0
  2  3  1  0
  2  8  1  0
  2  9  1  0
  3  4  1  0
  4  5  1  0
  4 10  1  0
  4 11  1  0
  5 12  1  0
  5 13  1  0
  5 14  1  0
 15 16  1  0
 15 19  1  0
 15 20  1  0
 15 21  1  0
 16 17  1  0
 16 22  1  0
 16 23  1  0
 17 18  1  0
 17 24  1  0
 18 26  1  0
 18 27  1  0
 18 28  1  0
M  RAD  1  17   2
M  END
>  <reaction>  (18) 
rmg_rxn_27

>  <mol_properties>  (18) 
{"0": {"label": "*3", "atom_type": "Cs"}, "1": {"label": "*4", "atom_type": "Cs"}, "15": {"label": "*0", "atom_type": "Cs"}, "16": {"label": "*1", "atom_type": "Cs"}, "24": {"label": "*2", "atom_type": "H0"}}

>  <type>  (18) 
unop_14

>  <geom_source>  (18) 
gaussian_log

$$$$
