
     RDKit          3D

 15 14  0  0  0  0  0  0  0  0999 V2000
   -2.0554    0.0723   -0.4910 C   0  0  0  0  0  0  0  0  0  0  0  0
   -0.7461   -0.6266   -0.8178 C   0  0  0  0  0  0  0  0  0  0  0  0
    0.3249    0.2591   -1.9782 S   0  0  0  0  0  0  0  0  0  0  0  0
   -0.7172    0.3642   -3.4551 C   0  0  0  0  0  0  0  0  0  0  0  0
   -1.1375   -0.9737   -4.0409 C   0  0  0  0  0  0  0  0  0  0  0  0
   -2.7005    0.1427   -1.3684 H   0  0  0  0  0  0  0  0  0  0  0  0
   -2.6016   -0.4848    0.2733 H   0  0  0  0  0  0  0  0  0  0  0  0
   -1.8758    1.0825   -0.1213 H   0  0  0  0  0  0  0  0  0  0  0  0
   -0.1320   -0.7246    0.0789 H   0  0  0  0  0  0  0  0  0  0  0  0
   -0.9254   -1.6374   -1.1879 H   0  0  0  0  0  0  0  0  0  0  0  0
   -1.5873    0.9874   -3.2422 H   0  0  0  0  0  0  0  0  0  0  0  0
   -0.1021    0.9161   -4.1678 H   0  0  0  0  0  0  0  0  0  0  0  0
   -1.7876   -1.5224   -3.3574 H   0  0  0  0  0  0  0  0  0  0  0  0
   -0.2676   -1.5962   -4.2534 H   0  0  0  0  0  0  0  0  0  0  0  0
   -1.6916   -0.8229   -4.9700 H   0  0  0  0  0  0  0  0  0  0  0  0
  1  2  1  0
  1  6  1  0
  1  7  1  0
  1  8  1  0
  2  3  1  0
  2  9  1  0
  2 10  1  0
  3  4  1  0
  4  5  1  0
  4 11  1  0
  4 12  1  0
  5 13  1  0
  5 14  1  0
  5 15  1  0
M  END
>  <reaction>  (1) 
rmg_rxn_530

>  <mol_properties>  (1) 
{"1": {"label": "donator", "atom_type": "Cs"}, "8": {"label": "d_hydrogen", "atom_type": "H0"}}

>  <type>  (1) 
r1h

$$$$

     RDKit          3D

 11 10  0  0  0  0  0  0  0  0999 V2000
    2.2312    0.7411   -0.3115 C   0  0  0  0  0  3  0  0  0  0  0  0
    0.6426    1.1039   -0.7896 S   0  0  0  0  0  0  0  0  0  0  0  0
    0.9085    2.4168   -2.0061 C   0  0  0  0  0  0  0  0  0  0  0  0
    1.5570    1.9429   -3.2967 C   0  0  0  0  0  0  0  0  0  0  0  0
    2.3707   -0.0938    0.3575 H   0  0  0  0  0  0  0  0  0  0  0  0
    3.0432    1.4267   -0.5066 H   0  0  0  0  0  0  0  0  0  0  0  0
    1.4997    3.2005   -1.5289 H   0  0  0  0  0  0  0  0  0  0  0  0
   -0.0844    2.8269   -2.1951 H   0  0  0  0  0  0  0  0  0  0  0  0
    0.9451    1.1830   -3.7838 H   0  0  0  0  0  0  0  0  0  0  0  0
    1.6803    2.7812   -3.9857 H   0  0  0  0  0  0  0  0  0  0  0  0
    2.5399    1.5119   -3.1043 H   0  0  0  0  0  0  0  0  0  0  0  0
  1  2  1  0
  1  5  1  0
  1  6  1  0
  2  3  1  0
  3  4  1  0
  3  7  1  0
  3  8  1  0
  4  9  1  0
  4 10  1  0
  4 11  1  0
M  RAD  1   1   2
M  END
>  <reaction>  (2) 
rmg_rxn_530

>  <mol_properties>  (2) 
{"0": {"label": "acceptor", "atom_type": "Cs"}}

>  <type>  (2) 
r2

$$$$

     RDKit          3D

 12 11  0  0  0  0  0  0  0  0999 V2000
    1.8075    0.1979    0.4695 C   0  0  0  0  0  0  0  0  0  0  0  0
    1.0072   -0.8859   -0.7259 S   0  0  0  0  0  0  0  0  0  0  0  0
   -0.7258   -0.6904   -0.2447 C   0  0  0  0  0  0  0  0  0  0  0  0
   -1.0856   -1.2776    1.1108 C   0  0  0  0  0  0  0  0  0  0  0  0
    1.7126   -0.1777    1.4878 H   0  0  0  0  0  0  0  0  0  0  0  0
    1.4024    1.2089    0.4095 H   0  0  0  0  0  0  0  0  0  0  0  0
    2.8647    0.2298    0.2095 H   0  0  0  0  0  0  0  0  0  0  0  0
   -1.2866   -1.1892   -1.0369 H   0  0  0  0  0  0  0  0  0  0  0  0
   -0.9814    0.3707   -0.2917 H   0  0  0  0  0  0  0  0  0  0  0  0
   -0.5492   -0.7768    1.9180 H   0  0  0  0  0  0  0  0  0  0  0  0
   -0.8418   -2.3397    1.1503 H   0  0  0  0  0  0  0  0  0  0  0  0
   -2.1545   -1.1604    1.3035 H   0  0  0  0  0  0  0  0  0  0  0  0
  1  2  1  0
  1  5  1  0
  1  6  1  0
  1  7  1  0
  2  3  1  0
  3  4  1  0
  3  8  1  0
  3  9  1  0
  4 10  1  0
  4 11  1  0
  4 12  1  0
M  END
>  <reaction>  (3) 
rmg_rxn_530

>  <mol_properties>  (3) 
{"0": {"label": "acceptor", "atom_type": "Cs"}, "11": {"label": "a_hydrogen", "atom_type": "H0"}}

>  <type>  (3) 
r2h

$$$$

     RDKit          3D

 26 24  0  0  0  0  0  0  0  0999 V2000
    0.7697   -1.5210    0.8346 C   0  0  0  0  0  3  0  0  0  0  0  0
   -0.3947   -2.6568    0.1690 S   0  0  0  0  0  0  0  0  0  0  0  0
   -1.6970   -1.5380   -0.4096 C   0  0  0  0  0  0  0  0  0  0  0  0
   -2.4835   -0.8568    0.6977 C   0  0  0  0  0  0  0  0  0  0  0  0
    1.5926   -2.0642    1.2943 H   0  0  0  0  0  0  0  0  0  0  0  0
    0.3514   -0.7772    1.5104 H   0  0  0  0  0  0  0  0  0  0  0  0
   -2.3517   -2.1706   -1.0109 H   0  0  0  0  0  0  0  0  0  0  0  0
   -1.2399   -0.8109   -1.0823 H   0  0  0  0  0  0  0  0  0  0  0  0
   -1.8444   -0.2156    1.3067 H   0  0  0  0  0  0  0  0  0  0  0  0
   -3.2668   -0.2269    0.2693 H   0  0  0  0  0  0  0  0  0  0  0  0
   -2.9520   -1.5899    1.3551 H   0  0  0  0  0  0  0  0  0  0  0  0
    2.6691   -1.5408   -1.8265 C   0  0  0  0  0  0  0  0  0  0  0  0
    2.0739   -0.3073   -1.1939 C   0  0  0  0  0  0  0  0  0  0  0  0
    1.0211    0.5922   -2.3004 S   0  0  0  0  0  0  0  0  0  0  0  0
    0.7850    2.1407   -1.3968 C   0  0  0  0  0  0  0  0  0  0  0  0
   -0.0419    2.0233   -0.1269 C   0  0  0  0  0  0  0  0  0  0  0  0
    3.3178   -1.2948   -2.6710 H   0  0  0  0  0  0  0  0  0  0  0  0
    3.2617   -2.0869   -1.0902 H   0  0  0  0  0  0  0  0  0  0  0  0
    1.8833   -2.2113   -2.1810 H   0  0  0  0  0  0  0  0  0  0  0  0
    1.3671   -0.8100   -0.1708 H   0  0  0  0  0  0  0  0  0  0  0  0
    2.8090    0.3465   -0.7209 H   0  0  0  0  0  0  0  0  0  0  0  0
    1.7684    2.5655   -1.1847 H   0  0  0  0  0  0  0  0  0  0  0  0
    0.2967    2.8038   -2.1125 H   0  0  0  0  0  0  0  0  0  0  0  0
    0.4462    1.3747    0.6007 H   0  0  0  0  0  0  0  0  0  0  0  0
   -1.0287    1.6104   -0.3393 H   0  0  0  0  0  0  0  0  0  0  0  0
   -0.1719    3.0057    0.3324 H   0  0  0  0  0  0  0  0  0  0  0  0
  1  2  1  0
  1  5  1  0
  1  6  1  0
  2  3  1  0
  3  4  1  0
  3  7  1  0
  3  8  1  0
  4  9  1  0
  4 10  1  0
  4 11  1  0
 12 13  1  0
 12 17  1  0
 12 18  1  0
 12 19  1  0
 13 14  1  0
 13 20  1  0
 13 21  1  0
 14 15  1  0
 15 16  1  0
 15 22  1  0
 15 23  1  0
 16 24  1  0
 16 25  1  0
 16 26  1  0
M  RAD  1   1   2
M  END
>  <reaction>  (4) 
rmg_rxn_530

>  <mol_properties>  (4) 
{"0": {"label": "*3", "atom_type": "Cs"}, "1": {"label": "*4", "atom_type": "S2s"}, "12": {"label": "*1", "atom_type": "Cs"}, "13": {"label": "*0", "atom_type": "S2s"}, "19": {"label": "*2", "atom_type": "H0"}}

>  <type>  (4) 
ts

$$$$

     RDKit          3D

 26 24  0  0  0  0  0  0  0  0999 V2000
   -1.5572   -0.4805    0.3206 C   0  0  0  0  0  0  0  0  0  0  0  0
   -1.1695   -1.9188    1.3333 S   0  0  0  0  0  0  0  0  0  0  0  0
   -1.3597   -3.2439    0.1163 C   0  0  0  0  0  0  0  0  0  0  0  0
   -2.7845   -3.4789   -0.3593 C   0  0  0  0  0  0  0  0  0  0  0  0
   -1.3811    0.3985    0.9391 H   0  0  0  0  0  0  0  0  0  0  0  0
   -2.5986   -0.4759    0.0008 H   0  0  0  0  0  0  0  0  0  0  0  0
   -0.9743   -4.1327    0.6187 H   0  0  0  0  0  0  0  0  0  0  0  0
   -0.6947   -3.0394   -0.7260 H   0  0  0  0  0  0  0  0  0  0  0  0
   -3.1796   -2.6070   -0.8827 H   0  0  0  0  0  0  0  0  0  0  0  0
   -2.8190   -4.3225   -1.0524 H   0  0  0  0  0  0  0  0  0  0  0  0
   -3.4433   -3.6958    0.4821 H   0  0  0  0  0  0  0  0  0  0  0  0
    0.6292    0.6325   -2.1140 C   0  0  0  0  0  0  0  0  0  0  0  0
    0.6292    0.6325   -0.5943 C   0  0  0  0  0  3  0  0  0  0  0  0
    0.6292    2.2736    0.1706 S   0  0  0  0  0  0  0  0  0  0  0  0
    2.1698    2.9875   -0.4580 C   0  0  0  0  0  0  0  0  0  0  0  0
    3.4307    2.2287   -0.0788 C   0  0  0  0  0  0  0  0  0  0  0  0
    1.5523    1.0561   -2.5134 H   0  0  0  0  0  0  0  0  0  0  0  0
    0.5467   -0.3887   -2.4927 H   0  0  0  0  0  0  0  0  0  0  0  0
   -0.2065    1.2150   -2.5034 H   0  0  0  0  0  0  0  0  0  0  0  0
   -0.4642    0.0759   -0.1367 H   0  0  0  0  0  0  0  0  0  0  0  0
    1.4654    0.0499   -0.2042 H   0  0  0  0  0  0  0  0  0  0  0  0
    2.0987    3.1097   -1.5400 H   0  0  0  0  0  0  0  0  0  0  0  0
    2.1849    3.9907   -0.0287 H   0  0  0  0  0  0  0  0  0  0  0  0
    3.4520    1.2368   -0.5334 H   0  0  0  0  0  0  0  0  0  0  0  0
    3.5014    2.1066    1.0026 H   0  0  0  0  0  0  0  0  0  0  0  0
    4.3155    2.7671   -0.4257 H   0  0  0  0  0  0  0  0  0  0  0  0
  1  2  1  0
  1  5  1  0
  1  6  1  0
  1 20  1  0
  2  3  1  0
  3  4  1  0
  3  7  1  0
  3  8  1  0
  4  9  1  0
  4 10  1  0
  4 11  1  0
 12 13  1  0
 12 17  1  0
 12 18  1  0
 12 19  1  0
 13 14  1  0
 13 21  1  0
 14 15  1  0
 15 16  1  0
 15 22  1  0
 15 23  1  0
 16 24  1  0
 16 25  1  0
 16 26  1  0
M  RAD  1  13   2
M  END
>  <reaction>  (5) 
rmg_rxn_530

>  <mol_properties>  (5) 
{"0": {"label": "*3", "atom_type": "Cs"}, "1": {"label": "*4", "atom_type": "S2s"}, "12": {"label": "*1", "atom_type": "Cs"}, "13": {"label": "*0", "atom_type": "S2s"}, "19": {"label": "*2", "atom_type": "H0"}}

>  <type>  (5) 
unop_1

>  <geom_source>  (5) 
Heuristics

$$$$

     RDKit          3D

 26 24  0  0  0  0  0  0  0  0999 V2000
   -1.1197   -1.0629    1.0480 C   0  0  0  0  0  0  0  0  0  0  0  0
   -1.7275   -2.3166   -0.0935 S   0  0  0  0  0  0  0  0  0  0  0  0
   -2.4187   -1.2715   -1.3986 C   0  0  0  0  0  0  0  0  0  0  0  0
   -3.6543   -0.4802   -1.0002 C   0  0  0  0  0  0  0  0  0  0  0  0
   -0.5915   -1.5881    1.8427 H   0  0  0  0  0  0  0  0  0  0  0  0
   -1.9317   -0.4885    1.4928 H   0  0  0  0  0  0  0  0  0  0  0  0
   -2.6551   -1.9655   -2.2069 H   0  0  0  0  0  0  0  0  0  0  0  0
   -1.6316   -0.6092   -1.7661 H   0  0  0  0  0  0  0  0  0  0  0  0
   -3.4320    0.2342   -0.2062 H   0  0  0  0  0  0  0  0  0  0  0  0
   -4.0349    0.0847   -1.8542 H   0  0  0  0  0  0  0  0  0  0  0  0
   -4.4430   -1.1449   -0.6463 H   0  0  0  0  0  0  0  0  0  0  0  0
    1.0667    0.0501   -1.3866 C   0  0  0  0  0  0  0  0  0  0  0  0
    1.0667    0.0501    0.1332 C   0  0  0  0  0  3  0  0  0  0  0  0
    1.0667    1.6912    0.8980 S   0  0  0  0  0  0  0  0  0  0  0  0
    2.6073    2.4052    0.2695 C   0  0  0  0  0  0  0  0  0  0  0  0
    3.8682    1.6463    0.6487 C   0  0  0  0  0  0  0  0  0  0  0  0
    1.9897    0.4737   -1.7860 H   0  0  0  0  0  0  0  0  0  0  0  0
    0.9841   -0.9710   -1.7652 H   0  0  0  0  0  0  0  0  0  0  0  0
    0.2310    0.6326   -1.7760 H   0  0  0  0  0  0  0  0  0  0  0  0
   -0.0268   -0.5065    0.5907 H   0  0  0  0  0  0  0  0  0  0  0  0
    1.9029   -0.5325    0.5232 H   0  0  0  0  0  0  0  0  0  0  0  0
    2.5361    2.5274   -0.8126 H   0  0  0  0  0  0  0  0  0  0  0  0
    2.6224    3.4083    0.6987 H   0  0  0  0  0  0  0  0  0  0  0  0
    3.8894    0.6545    0.1940 H   0  0  0  0  0  0  0  0  0  0  0  0
    3.9389    1.5243    1.7301 H   0  0  0  0  0  0  0  0  0  0  0  0
    4.7529    2.1847    0.3017 H   0  0  0  0  0  0  0  0  0  0  0  0
  1  2  1  0
  1  5  1  0
  1  6  1  0
  1 20  1  0
  2  3  1  0
  3  4  1  0
  3  7  1  0
  3  8  1  0
  4  9  1  0
  4 10  1  0
  4 11  1  0
 12 13  1  0
 12 17  1  0
 12 18  1  0
 12 19  1  0
 13 14  1  0
 13 21  1  0
 14 15  1  0
 15 16  1  0
 15 22  1  0
 15 23  1  0
 16 24  1  0
 16 25  1  0
 16 26  1  0
M  RAD  1  13   2
M  END
>  <reaction>  (6) 
rmg_rxn_530

>  <mol_properties>  (6) 
{"0": {"label": "*3", "atom_type": "Cs"}, "1": {"label": "*4", "atom_type": "S2s"}, "12": {"label": "*1", "atom_type": "Cs"}, "13": {"label": "*0", "atom_type": "S2s"}, "19": {"label": "*2", "atom_type": "H0"}}

>  <type>  (6) 
unop_2

>  <geom_source>  (6) 
Heuristics

$$$$

     RDKit          3D

 26 24  0  0  0  0  0  0  0  0999 V2000
   -1.7047   -0.6071    0.0087 C   0  0  0  0  0  0  0  0  0  0  0  0
   -1.4047   -1.3987    1.5986 S   0  0  0  0  0  0  0  0  0  0  0  0
   -0.7857   -3.0100    1.0567 C   0  0  0  0  0  0  0  0  0  0  0  0
   -1.8146   -3.8956    0.3721 C   0  0  0  0  0  0  0  0  0  0  0  0
   -1.9980    0.4208    0.2175 H   0  0  0  0  0  0  0  0  0  0  0  0
   -2.5099   -1.0917   -0.5425 H   0  0  0  0  0  0  0  0  0  0  0  0
   -0.4229   -3.4839    1.9703 H   0  0  0  0  0  0  0  0  0  0  0  0
    0.0825   -2.8497    0.4134 H   0  0  0  0  0  0  0  0  0  0  0  0
   -2.1740   -3.4469   -0.5550 H   0  0  0  0  0  0  0  0  0  0  0  0
   -1.3749   -4.8635    0.1206 H   0  0  0  0  0  0  0  0  0  0  0  0
   -2.6740   -4.0649    1.0216 H   0  0  0  0  0  0  0  0  0  0  0  0
    0.4817    0.5059   -2.4260 C   0  0  0  0  0  0  0  0  0  0  0  0
    0.4817    0.5059   -0.9062 C   0  0  0  0  0  3  0  0  0  0  0  0
    0.4817    2.1470   -0.1413 S   0  0  0  0  0  0  0  0  0  0  0  0
    2.0223    2.8609   -0.7699 C   0  0  0  0  0  0  0  0  0  0  0  0
    3.2832    2.1021   -0.3907 C   0  0  0  0  0  0  0  0  0  0  0  0
    1.4047    0.9295   -2.8254 H   0  0  0  0  0  0  0  0  0  0  0  0
    0.3991   -0.5153   -2.8046 H   0  0  0  0  0  0  0  0  0  0  0  0
   -0.3540    1.0884   -2.8154 H   0  0  0  0  0  0  0  0  0  0  0  0
   -0.6118   -0.0507   -0.4487 H   0  0  0  0  0  0  0  0  0  0  0  0
    1.3179   -0.0767   -0.5162 H   0  0  0  0  0  0  0  0  0  0  0  0
    1.9511    2.9831   -1.8520 H   0  0  0  0  0  0  0  0  0  0  0  0
    2.0374    3.8641   -0.3407 H   0  0  0  0  0  0  0  0  0  0  0  0
    3.3044    1.1102   -0.8454 H   0  0  0  0  0  0  0  0  0  0  0  0
    3.3539    1.9800    0.6907 H   0  0  0  0  0  0  0  0  0  0  0  0
    4.1679    2.6405   -0.7377 H   0  0  0  0  0  0  0  0  0  0  0  0
  1  2  1  0
  1  5  1  0
  1  6  1  0
  1 20  1  0
  2  3  1  0
  3  4  1  0
  3  7  1  0
  3  8  1  0
  4  9  1  0
  4 10  1  0
  4 11  1  0
 12 13  1  0
 12 17  1  0
 12 18  1  0
 12 19  1  0
 13 14  1  0
 13 21  1  0
 14 15  1  0
 15 16  1  0
 15 22  1  0
 15 23  1  0
 16 24  1  0
 16 25  1  0
 16 26  1  0
M  RAD  1  13   2
M  END
>  <reaction>  (7) 
rmg_rxn_530

>  <mol_properties>  (7) 
{"0": {"label": "*3", "atom_type": "Cs"}, "1": {"label": "*4", "atom_type": "S2s"}, "12": {"label": "*1", "atom_type": "Cs"}, "13": {"label": "*0", "atom_type": "S2s"}, "19": {"label": "*2", "atom_type": "H0"}}

>  <type>  (7) 
unop_3

>  <geom_source>  (7) 
Heuristics

$$$$

     RDKit          3D

 26 24  0  0  0  0  0  0  0  0999 V2000
   -1.2110   -1.9545    0.5769 C   0  0  0  0  0  0  0  0  0  0  0  0
   -2.6700   -1.0616    0.0125 S   0  0  0  0  0  0  0  0  0  0  0  0
   -1.9635    0.5774   -0.2833 C   0  0  0  0  0  0  0  0  0  0  0  0
   -1.5164    1.3187    0.9666 C   0  0  0  0  0  0  0  0  0  0  0  0
   -1.5050   -2.9961    0.6985 H   0  0  0  0  0  0  0  0  0  0  0  0
   -0.8507   -1.5823    1.5353 H   0  0  0  0  0  0  0  0  0  0  0  0
   -2.7574    1.1290   -0.7897 H   0  0  0  0  0  0  0  0  0  0  0  0
   -1.1403    0.4772   -0.9944 H   0  0  0  0  0  0  0  0  0  0  0  0
   -0.7080    0.7917    1.4756 H   0  0  0  0  0  0  0  0  0  0  0  0
   -1.1482    2.3137    0.7064 H   0  0  0  0  0  0  0  0  0  0  0  0
   -2.3433    1.4289    1.6687 H   0  0  0  0  0  0  0  0  0  0  0  0
    0.9754   -0.8415   -1.8577 C   0  0  0  0  0  0  0  0  0  0  0  0
    0.9754   -0.8415   -0.3380 C   0  0  0  0  0  3  0  0  0  0  0  0
    0.9754    0.7996    0.4269 S   0  0  0  0  0  0  0  0  0  0  0  0
    2.5160    1.5135   -0.2017 C   0  0  0  0  0  0  0  0  0  0  0  0
    3.7769    0.7547    0.1775 C   0  0  0  0  0  0  0  0  0  0  0  0
    1.8984   -0.4179   -2.2571 H   0  0  0  0  0  0  0  0  0  0  0  0
    0.8929   -1.8627   -2.2364 H   0  0  0  0  0  0  0  0  0  0  0  0
    0.1397   -0.2590   -2.2471 H   0  0  0  0  0  0  0  0  0  0  0  0
   -0.1180   -1.3981    0.1196 H   0  0  0  0  0  0  0  0  0  0  0  0
    1.8116   -1.4241    0.0520 H   0  0  0  0  0  0  0  0  0  0  0  0
    2.4449    1.6357   -1.2837 H   0  0  0  0  0  0  0  0  0  0  0  0
    2.5311    2.5167    0.2276 H   0  0  0  0  0  0  0  0  0  0  0  0
    3.7981   -0.2372   -0.2772 H   0  0  0  0  0  0  0  0  0  0  0  0
    3.8476    0.6326    1.2589 H   0  0  0  0  0  0  0  0  0  0  0  0
    4.6617    1.2931   -0.1694 H   0  0  0  0  0  0  0  0  0  0  0  0
  1  2  1  0
  1  5  1  0
  1  6  1  0
  1 20  1  0
  2  3  1  0
  3  4  1  0
  3  7  1  0
  3  8  1  0
  4  9  1  0
  4 10  1  0
  4 11  1  0
 12 13  1  0
 12 17  1  0
 12 18  1  0
 12 19  1  0
 13 14  1  0
 13 21  1  0
 14 15  1  0
 15 16  1  0
 15 22  1  0
 15 23  1  0
 16 24  1  0
 16 25  1  0
 16 26  1  0
M  RAD  1  13   2
M  END
>  <reaction>  (8) 
rmg_rxn_530

>  <mol_properties>  (8) 
{"0": {"label": "*3", "atom_type": "Cs"}, "1": {"label": "*4", "atom_type": "S2s"}, "12": {"label": "*1", "atom_type": "Cs"}, "13": {"label": "*0", "atom_type": "S2s"}, "19": {"label": "*2", "atom_type": "H0"}}

>  <type>  (8) 
unop_4

>  <geom_source>  (8) 
Heuristics

$$$$

     RDKit          3D

 26 24  0  0  0  0  0  0  0  0999 V2000
   -1.8505   -0.9708   -0.2523 C   0  0  0  0  0  0  0  0  0  0  0  0
   -1.8621   -0.9767    1.5489 S   0  0  0  0  0  0  0  0  0  0  0  0
   -0.3169   -1.8542    1.8890 C   0  0  0  0  0  0  0  0  0  0  0  0
   -0.3138   -3.3234    1.4978 C   0  0  0  0  0  0  0  0  0  0  0  0
   -2.7049   -0.3759   -0.5721 H   0  0  0  0  0  0  0  0  0  0  0  0
   -1.9537   -1.9743   -0.6639 H   0  0  0  0  0  0  0  0  0  0  0  0
   -0.1734   -1.7464    2.9654 H   0  0  0  0  0  0  0  0  0  0  0  0
    0.5010   -1.3180    1.4023 H   0  0  0  0  0  0  0  0  0  0  0  0
   -0.4357   -3.4502    0.4211 H   0  0  0  0  0  0  0  0  0  0  0  0
    0.6336   -3.7890    1.7789 H   0  0  0  0  0  0  0  0  0  0  0  0
   -1.1230   -3.8589    1.9954 H   0  0  0  0  0  0  0  0  0  0  0  0
    0.3359    0.1422   -2.6869 C   0  0  0  0  0  0  0  0  0  0  0  0
    0.3359    0.1422   -1.1671 C   0  0  0  0  0  3  0  0  0  0  0  0
    0.3359    1.7833   -0.4023 S   0  0  0  0  0  0  0  0  0  0  0  0
    1.8765    2.4972   -1.0308 C   0  0  0  0  0  0  0  0  0  0  0  0
    3.1374    1.7384   -0.6516 C   0  0  0  0  0  0  0  0  0  0  0  0
    1.2590    0.5658   -3.0863 H   0  0  0  0  0  0  0  0  0  0  0  0
    0.2534   -0.8790   -3.0655 H   0  0  0  0  0  0  0  0  0  0  0  0
   -0.4998    0.7247   -3.0763 H   0  0  0  0  0  0  0  0  0  0  0  0
   -0.7575   -0.4144   -0.7096 H   0  0  0  0  0  0  0  0  0  0  0  0
    1.1721   -0.4404   -0.7771 H   0  0  0  0  0  0  0  0  0  0  0  0
    1.8054    2.6194   -2.1129 H   0  0  0  0  0  0  0  0  0  0  0  0
    1.8916    3.5004   -0.6016 H   0  0  0  0  0  0  0  0  0  0  0  0
    3.1587    0.7465   -1.1063 H   0  0  0  0  0  0  0  0  0  0  0  0
    3.2081    1.6163    0.4298 H   0  0  0  0  0  0  0  0  0  0  0  0
    4.0222    2.2768   -0.9986 H   0  0  0  0  0  0  0  0  0  0  0  0
  1  2  1  0
  1  5  1  0
  1  6  1  0
  1 20  1  0
  2  3  1  0
  3  4  1  0
  3  7  1  0
  3  8  1  0
  4  9  1  0
  4 10  1  0
  4 11  1  0
 12 13  1  0
 12 17  1  0
 12 18  1  0
 12 19  1  0
 13 14  1  0
 13 21  1  0
 14 15  1  0
 15 16  1  0
 15 22  1  0
 15 23  1  0
 16 24  1  0
 16 25  1  0
 16 26  1  0
M  RAD  1  13   2
M  END
>  <reaction>  (9) 
rmg_rxn_530

>  <mol_properties>  (9) 
{"0": {"label": "*3", "atom_type": "Cs"}, "1": {"label": "*4", "atom_type": "S2s"}, "12": {"label": "*1", "atom_type": "Cs"}, "13": {"label": "*0", "atom_type": "S2s"}, "19": {"label": "*2", "atom_type": "H0"}}

>  <type>  (9) 
unop_5

>  <geom_source>  (9) 
Heuristics

$$$$

     RDKit          3D

 26 24  0  0  0  0  0  0  0  0999 V2000
   -1.3619   -2.0053    0.2425 C   0  0  0  0  0  0  0  0  0  0  0  0
   -2.6611   -0.7780    0.4667 S   0  0  0  0  0  0  0  0  0  0  0  0
   -1.6865    0.7460    0.4473 C   0  0  0  0  0  0  0  0  0  0  0  0
   -0.7664    0.9346    1.6429 C   0  0  0  0  0  0  0  0  0  0  0  0
   -1.8536   -2.9722    0.1448 H   0  0  0  0  0  0  0  0  0  0  0  0
   -0.6868   -2.0449    1.0967 H   0  0  0  0  0  0  0  0  0  0  0  0
   -2.4296    1.5443    0.4089 H   0  0  0  0  0  0  0  0  0  0  0  0
   -1.1249    0.7869   -0.4888 H   0  0  0  0  0  0  0  0  0  0  0  0
   -0.0032    0.1563    1.6861 H   0  0  0  0  0  0  0  0  0  0  0  0
   -0.2524    1.8964    1.5783 H   0  0  0  0  0  0  0  0  0  0  0  0
   -1.3314    0.9067    2.5751 H   0  0  0  0  0  0  0  0  0  0  0  0
    0.8245   -0.8923   -2.1921 C   0  0  0  0  0  0  0  0  0  0  0  0
    0.8245   -0.8923   -0.6724 C   0  0  0  0  0  3  0  0  0  0  0  0
    0.8245    0.7488    0.0925 S   0  0  0  0  0  0  0  0  0  0  0  0
    2.3651    1.4627   -0.5361 C   0  0  0  0  0  0  0  0  0  0  0  0
    3.6260    0.7039   -0.1569 C   0  0  0  0  0  0  0  0  0  0  0  0
    1.7475   -0.4687   -2.5915 H   0  0  0  0  0  0  0  0  0  0  0  0
    0.7420   -1.9135   -2.5708 H   0  0  0  0  0  0  0  0  0  0  0  0
   -0.0112   -0.3098   -2.5815 H   0  0  0  0  0  0  0  0  0  0  0  0
   -0.2689   -1.4489   -0.2148 H   0  0  0  0  0  0  0  0  0  0  0  0
    1.6607   -1.4749   -0.2823 H   0  0  0  0  0  0  0  0  0  0  0  0
    2.2940    1.5849   -1.6181 H   0  0  0  0  0  0  0  0  0  0  0  0
    2.3802    2.4659   -0.1068 H   0  0  0  0  0  0  0  0  0  0  0  0
    3.6472   -0.2880   -0.6116 H   0  0  0  0  0  0  0  0  0  0  0  0
    3.6967    0.5818    0.9245 H   0  0  0  0  0  0  0  0  0  0  0  0
    4.5108    1.2423   -0.5038 H   0  0  0  0  0  0  0  0  0  0  0  0
  1  2  1  0
  1  5  1  0
  1  6  1  0
  1 20  1  0
  2  3  1  0
  3  4  1  0
  3  7  1  0
  3  8  1  0
  4  9  1  0
  4 10  1  0
  4 11  1  0
 12 13  1  0
 12 17  1  0
 12 18  1  0
 12 19  1  0
 13 14  1  0
 13 21  1  0
 14 15  1  0
 15 16  1  0
 15 22  1  0
 15 23  1  0
 16 24  1  0
 16 25  1  0
 16 26  1  0
M  RAD  1  13   2
M  END
>  <reaction>  (10) 
rmg_rxn_530

>  <mol_properties>  (10) 
{"0": {"label": "*3", "atom_type": "Cs"}, "1": {"label": "*4", "atom_type": "S2s"}, "12": {"label": "*1", "atom_type": "Cs"}, "13": {"label": "*0", "atom_type": "S2s"}, "19": {"label": "*2", "atom_type": "H0"}}

>  <type>  (10) 
unop_6

>  <geom_source>  (10) 
Heuristics

$$$$

     RDKit          3D

 26 24  0  0  0  0  0  0  0  0999 V2000
   -1.5684   -1.8698   -0.0821 C   0  0  0  0  0  0  0  0  0  0  0  0
   -2.5033   -0.7101    0.9306 S   0  0  0  0  0  0  0  0  0  0  0  0
   -1.2360    0.5371    1.2645 C   0  0  0  0  0  0  0  0  0  0  0  0
   -0.0984    0.0724    2.1597 C   0  0  0  0  0  0  0  0  0  0  0  0
   -2.2706   -2.6291   -0.4234 H   0  0  0  0  0  0  0  0  0  0  0  0
   -0.7771   -2.3596    0.4843 H   0  0  0  0  0  0  0  0  0  0  0  0
   -1.7793    1.3586    1.7345 H   0  0  0  0  0  0  0  0  0  0  0  0
   -0.8560    0.9097    0.3105 H   0  0  0  0  0  0  0  0  0  0  0  0
    0.4694   -0.7360    1.6967 H   0  0  0  0  0  0  0  0  0  0  0  0
    0.5951    0.8948    2.3500 H   0  0  0  0  0  0  0  0  0  0  0  0
   -0.4795   -0.2866    3.1163 H   0  0  0  0  0  0  0  0  0  0  0  0
    0.6180   -0.7568   -2.5167 C   0  0  0  0  0  0  0  0  0  0  0  0
    0.6180   -0.7568   -0.9970 C   0  0  0  0  0  3  0  0  0  0  0  0
    0.6180    0.8843   -0.2321 S   0  0  0  0  0  0  0  0  0  0  0  0
    2.1586    1.5982   -0.8607 C   0  0  0  0  0  0  0  0  0  0  0  0
    3.4195    0.8394   -0.4815 C   0  0  0  0  0  0  0  0  0  0  0  0
    1.5411   -0.3332   -2.9161 H   0  0  0  0  0  0  0  0  0  0  0  0
    0.5355   -1.7780   -2.8954 H   0  0  0  0  0  0  0  0  0  0  0  0
   -0.2177   -0.1743   -2.9061 H   0  0  0  0  0  0  0  0  0  0  0  0
   -0.4754   -1.3134   -0.5394 H   0  0  0  0  0  0  0  0  0  0  0  0
    1.4542   -1.3394   -0.6070 H   0  0  0  0  0  0  0  0  0  0  0  0
    2.0875    1.7204   -1.9427 H   0  0  0  0  0  0  0  0  0  0  0  0
    2.1737    2.6014   -0.4314 H   0  0  0  0  0  0  0  0  0  0  0  0
    3.4407   -0.1525   -0.9362 H   0  0  0  0  0  0  0  0  0  0  0  0
    3.4902    0.7173    0.5999 H   0  0  0  0  0  0  0  0  0  0  0  0
    4.3043    1.3778   -0.8284 H   0  0  0  0  0  0  0  0  0  0  0  0
  1  2  1  0
  1  5  1  0
  1  6  1  0
  1 20  1  0
  2  3  1  0
  3  4  1  0
  3  7  1  0
  3  8  1  0
  4  9  1  0
  4 10  1  0
  4 11  1  0
 12 13  1  0
 12 17  1  0
 12 18  1  0
 12 19  1  0
 13 14  1  0
 13 21  1  0
 14 15  1  0
 15 16  1  0
 15 22  1  0
 15 23  1  0
 16 24  1  0
 16 25  1  0
 16 26  1  0
M  RAD  1  13   2
M  END
>  <reaction>  (11) 
rmg_rxn_530

>  <mol_properties>  (11) 
{"0": {"label": "*3", "atom_type": "Cs"}, "1": {"label": "*4", "atom_type": "S2s"}, "12": {"label": "*1", "atom_type": "Cs"}, "13": {"label": "*0", "atom_type": "S2s"}, "19": {"label": "*2", "atom_type": "H0"}}

>  <type>  (11) 
unop_7

>  <geom_source>  (11) 
Heuristics

$$$$

     RDKit          3D

 26 24  0  0  0  0  0  0  0  0999 V2000
   -1.4053   -0.5200    0.6420 C   0  0  0  0  0  0  0  0  0  0  0  0
   -1.1774   -2.2927    0.8662 S   0  0  0  0  0  0  0  0  0  0  0  0
   -1.8548   -2.9151   -0.6917 C   0  0  0  0  0  0  0  0  0  0  0  0
   -3.3556   -2.7362   -0.8559 C   0  0  0  0  0  0  0  0  0  0  0  0
   -0.9397   -0.0307    1.4964 H   0  0  0  0  0  0  0  0  0  0  0  0
   -2.4590   -0.2444    0.6170 H   0  0  0  0  0  0  0  0  0  0  0  0
   -1.5946   -3.9749   -0.6979 H   0  0  0  0  0  0  0  0  0  0  0  0
   -1.3124   -2.4480   -1.5170 H   0  0  0  0  0  0  0  0  0  0  0  0
   -3.6325   -1.6811   -0.8725 H   0  0  0  0  0  0  0  0  0  0  0  0
   -3.6899   -3.1791   -1.7969 H   0  0  0  0  0  0  0  0  0  0  0  0
   -3.8949   -3.2147   -0.0379 H   0  0  0  0  0  0  0  0  0  0  0  0
    0.7811    0.5930   -1.7926 C   0  0  0  0  0  0  0  0  0  0  0  0
    0.7811    0.5930   -0.2729 C   0  0  0  0  0  3  0  0  0  0  0  0
    0.7811    2.2341    0.4920 S   0  0  0  0  0  0  0  0  0  0  0  0
    2.3217    2.9480   -0.1366 C   0  0  0  0  0  0  0  0  0  0  0  0
    3.5826    2.1891    0.2426 C   0  0  0  0  0  0  0  0  0  0  0  0
    1.7041    1.0166   -2.1920 H   0  0  0  0  0  0  0  0  0  0  0  0
    0.6986   -0.4282   -2.1713 H   0  0  0  0  0  0  0  0  0  0  0  0
   -0.0546    1.1755   -2.1820 H   0  0  0  0  0  0  0  0  0  0  0  0
   -0.3123    0.0364    0.1847 H   0  0  0  0  0  0  0  0  0  0  0  0
    1.6173    0.0103    0.1171 H   0  0  0  0  0  0  0  0  0  0  0  0
    2.2505    3.0702   -1.2186 H   0  0  0  0  0  0  0  0  0  0  0  0
    2.3368    3.9512    0.2927 H   0  0  0  0  0  0  0  0  0  0  0  0
    3.6038    1.1973   -0.2121 H   0  0  0  0  0  0  0  0  0  0  0  0
    3.6533    2.0671    1.3240 H   0  0  0  0  0  0  0  0  0  0  0  0
    4.4674    2.7275   -0.1043 H   0  0  0  0  0  0  0  0  0  0  0  0
  1  2  1  0
  1  5  1  0
  1  6  1  0
  1 20  1  0
  2  3  1  0
  3  4  1  0
  3  7  1  0
  3  8  1  0
  4  9  1  0
  4 10  1  0
  4 11  1  0
 12 13  1  0
 12 17  1  0
 12 18  1  0
 12 19  1  0
 13 14  1  0
 13 21  1  0
 14 15  1  0
 15 16  1  0
 15 22  1  0
 15 23  1  0
 16 24  1  0
 16 25  1  0
 16 26  1  0
M  RAD  1  13   2
M  END
>  <reaction>  (12) 
rmg_rxn_530

>  <mol_properties>  (12) 
{"0": {"label": "*3", "atom_type": "Cs"}, "1": {"label": "*4", "atom_type": "S2s"}, "12": {"label": "*1", "atom_type": "Cs"}, "13": {"label": "*0", "atom_type": "S2s"}, "19": {"label": "*2", "atom_type": "H0"}}

>  <type>  (12) 
unop_8

>  <geom_source>  (12) 
Heuristics

$$$$

     RDKit          3D

 26 24  0  0  0  0  0  0  0  0999 V2000
   -1.1161   -1.7564    0.8522 C   0  0  0  0  0  0  0  0  0  0  0  0
   -2.4875   -1.5101   -0.2894 S   0  0  0  0  0  0  0  0  0  0  0  0
   -2.1625    0.1823   -0.8402 C   0  0  0  0  0  0  0  0  0  0  0  0
   -2.3498    1.2509    0.2250 C   0  0  0  0  0  0  0  0  0  0  0  0
   -1.1599   -2.7941    1.1799 H   0  0  0  0  0  0  0  0  0  0  0  0
   -1.1942   -1.1130    1.7279 H   0  0  0  0  0  0  0  0  0  0  0  0
   -2.8604    0.3394   -1.6642 H   0  0  0  0  0  0  0  0  0  0  0  0
   -1.1556    0.2226   -1.2620 H   0  0  0  0  0  0  0  0  0  0  0  0
   -1.6458    1.1217    1.0483 H   0  0  0  0  0  0  0  0  0  0  0  0
   -2.1816    2.2433   -0.1994 H   0  0  0  0  0  0  0  0  0  0  0  0
   -3.3597    1.2170    0.6348 H   0  0  0  0  0  0  0  0  0  0  0  0
    1.0703   -0.6433   -1.5825 C   0  0  0  0  0  0  0  0  0  0  0  0
    1.0703   -0.6433   -0.0627 C   0  0  0  0  0  3  0  0  0  0  0  0
    1.0703    0.9977    0.7022 S   0  0  0  0  0  0  0  0  0  0  0  0
    2.6109    1.7117    0.0736 C   0  0  0  0  0  0  0  0  0  0  0  0
    3.8718    0.9528    0.4528 C   0  0  0  0  0  0  0  0  0  0  0  0
    1.9933   -0.2198   -1.9819 H   0  0  0  0  0  0  0  0  0  0  0  0
    0.9877   -1.6645   -1.9611 H   0  0  0  0  0  0  0  0  0  0  0  0
    0.2346   -0.0609   -1.9719 H   0  0  0  0  0  0  0  0  0  0  0  0
   -0.0232   -1.2000    0.3948 H   0  0  0  0  0  0  0  0  0  0  0  0
    1.9065   -1.2260    0.3273 H   0  0  0  0  0  0  0  0  0  0  0  0
    2.5397    1.8339   -1.0085 H   0  0  0  0  0  0  0  0  0  0  0  0
    2.6259    2.7148    0.5028 H   0  0  0  0  0  0  0  0  0  0  0  0
    3.8930   -0.0390   -0.0019 H   0  0  0  0  0  0  0  0  0  0  0  0
    3.9425    0.8308    1.5342 H   0  0  0  0  0  0  0  0  0  0  0  0
    4.7565    1.4912    0.1059 H   0  0  0  0  0  0  0  0  0  0  0  0
  1  2  1  0
  1  5  1  0
  1  6  1  0
  1 20  1  0
  2  3  1  0
  3  4  1  0
  3  7  1  0
  3  8  1  0
  4  9  1  0
  4 10  1  0
  4 11  1  0
 12 13  1  0
 12 17  1  0
 12 18  1  0
 12 19  1  0
 13 14  1  0
 13 21  1  0
 14 15  1  0
 15 16  1  0
 15 22  1  0
 15 23  1  0
 16 24  1  0
 16 25  1  0
 16 26  1  0
M  RAD  1  13   2
M  END
>  <reaction>  (13) 
rmg_rxn_530

>  <mol_properties>  (13) 
{"0": {"label": "*3", "atom_type": "Cs"}, "1": {"label": "*4", "atom_type": "S2s"}, "12": {"label": "*1", "atom_type": "Cs"}, "13": {"label": "*0", "atom_type": "S2s"}, "19": {"label": "*2", "atom_type": "H0"}}

>  <type>  (13) 
unop_9

>  <geom_source>  (13) 
Heuristics

$$$$

     RDKit          3D

 26 24  0  0  0  0  0  0  0  0999 V2000
   -1.2448   -0.7252    0.9087 C   0  0  0  0  0  0  0  0  0  0  0  0
   -1.3813   -2.4303    0.3444 S   0  0  0  0  0  0  0  0  0  0  0  0
   -2.2414   -2.1923   -1.2294 C   0  0  0  0  0  0  0  0  0  0  0  0
   -3.6779   -1.7090   -1.1090 C   0  0  0  0  0  0  0  0  0  0  0  0
   -0.6503   -0.7407    1.8212 H   0  0  0  0  0  0  0  0  0  0  0  0
   -2.2182   -0.2922    1.1369 H   0  0  0  0  0  0  0  0  0  0  0  0
   -2.2080   -3.1719   -1.7091 H   0  0  0  0  0  0  0  0  0  0  0  0
   -1.6507   -1.5131   -1.8484 H   0  0  0  0  0  0  0  0  0  0  0  0
   -3.7295   -0.7208   -0.6497 H   0  0  0  0  0  0  0  0  0  0  0  0
   -4.1382   -1.6372   -2.0971 H   0  0  0  0  0  0  0  0  0  0  0  0
   -4.2684   -2.3957   -0.5017 H   0  0  0  0  0  0  0  0  0  0  0  0
    0.9416    0.3878   -1.5259 C   0  0  0  0  0  0  0  0  0  0  0  0
    0.9416    0.3878   -0.0062 C   0  0  0  0  0  3  0  0  0  0  0  0
    0.9416    2.0289    0.7587 S   0  0  0  0  0  0  0  0  0  0  0  0
    2.4822    2.7428    0.1301 C   0  0  0  0  0  0  0  0  0  0  0  0
    3.7431    1.9840    0.5093 C   0  0  0  0  0  0  0  0  0  0  0  0
    1.8646    0.8114   -1.9253 H   0  0  0  0  0  0  0  0  0  0  0  0
    0.8590   -0.6333   -1.9046 H   0  0  0  0  0  0  0  0  0  0  0  0
    0.1059    0.9703   -1.9153 H   0  0  0  0  0  0  0  0  0  0  0  0
   -0.1519   -0.1688    0.4514 H   0  0  0  0  0  0  0  0  0  0  0  0
    1.7778   -0.1948    0.3839 H   0  0  0  0  0  0  0  0  0  0  0  0
    2.4110    2.8651   -0.9519 H   0  0  0  0  0  0  0  0  0  0  0  0
    2.4972    3.7460    0.5594 H   0  0  0  0  0  0  0  0  0  0  0  0
    3.7643    0.9922    0.0547 H   0  0  0  0  0  0  0  0  0  0  0  0
    3.8137    1.8620    1.5907 H   0  0  0  0  0  0  0  0  0  0  0  0
    4.6278    2.5224    0.1624 H   0  0  0  0  0  0  0  0  0  0  0  0
  1  2  1  0
  1  5  1  0
  1  6  1  0
  1 20  1  0
  2  3  1  0
  3  4  1  0
  3  7  1  0
  3  8  1  0
  4  9  1  0
  4 10  1  0
  4 11  1  0
 12 13  1  0
 12 17  1  0
 12 18  1  0
 12 19  1  0
 13 14  1  0
 13 21  1  0
 14 15  1  0
 15 16  1  0
 15 22  1  0
 15 23  1  0
 16 24  1  0
 16 25  1  0
 16 26  1  0
M  RAD  1  13   2
M  END
>  <reaction>  (14) 
rmg_rxn_530

>  <mol_properties>  (14) 
{"0": {"label": "*3", "atom_type": "Cs"}, "1": {"label": "*4", "atom_type": "S2s"}, "12": {"label": "*1", "atom_type": "Cs"}, "13": {"label": "*0", "atom_type": "S2s"}, "19": {"label": "*2", "atom_type": "H0"}}

>  <type>  (14) 
unop_10

>  <geom_source>  (14) 
Heuristics

$$$$

     RDKit          3D

 26 24  0  0  0  0  0  0  0  0999 V2000
   -1.7858   -1.5087   -0.2941 C   0  0  0  0  0  0  0  0  0  0  0  0
   -2.2494   -0.8004    1.2958 S   0  0  0  0  0  0  0  0  0  0  0  0
   -0.6286   -0.2937    1.9199 C   0  0  0  0  0  0  0  0  0  0  0  0
    0.3120   -1.4370    2.2658 C   0  0  0  0  0  0  0  0  0  0  0  0
   -2.7111   -1.7678   -0.8068 H   0  0  0  0  0  0  0  0  0  0  0  0
   -1.1889   -2.4129   -0.1791 H   0  0  0  0  0  0  0  0  0  0  0  0
   -0.8519    0.2982    2.8091 H   0  0  0  0  0  0  0  0  0  0  0  0
   -0.1725    0.3819    1.1926 H   0  0  0  0  0  0  0  0  0  0  0  0
    0.5629   -2.0283    1.3840 H   0  0  0  0  0  0  0  0  0  0  0  0
    1.2460   -1.0485    2.6783 H   0  0  0  0  0  0  0  0  0  0  0  0
   -0.1405   -2.1022    3.0018 H   0  0  0  0  0  0  0  0  0  0  0  0
    0.4006   -0.3957   -2.7287 C   0  0  0  0  0  0  0  0  0  0  0  0
    0.4006   -0.3957   -1.2090 C   0  0  0  0  0  3  0  0  0  0  0  0
    0.4006    1.2454   -0.4441 S   0  0  0  0  0  0  0  0  0  0  0  0
    1.9412    1.9593   -1.0727 C   0  0  0  0  0  0  0  0  0  0  0  0
    3.2021    1.2004   -0.6935 C   0  0  0  0  0  0  0  0  0  0  0  0
    1.3236    0.0278   -3.1281 H   0  0  0  0  0  0  0  0  0  0  0  0
    0.3181   -1.4169   -3.1074 H   0  0  0  0  0  0  0  0  0  0  0  0
   -0.4351    0.1867   -3.1181 H   0  0  0  0  0  0  0  0  0  0  0  0
   -0.6928   -0.9524   -0.7514 H   0  0  0  0  0  0  0  0  0  0  0  0
    1.2368   -0.9784   -0.8189 H   0  0  0  0  0  0  0  0  0  0  0  0
    1.8700    2.0815   -2.1547 H   0  0  0  0  0  0  0  0  0  0  0  0
    1.9563    2.9624   -0.6434 H   0  0  0  0  0  0  0  0  0  0  0  0
    3.2233    0.2086   -1.1481 H   0  0  0  0  0  0  0  0  0  0  0  0
    3.2728    1.0784    0.3879 H   0  0  0  0  0  0  0  0  0  0  0  0
    4.0869    1.7388   -1.0404 H   0  0  0  0  0  0  0  0  0  0  0  0
  1  2  1  0
  1  5  1  0
  1  6  1  0
  1 20  1  0
  2  3  1  0
  3  4  1  0
  3  7  1  0
  3  8  1  0
  4  9  1  0
  4 10  1  0
  4 11  1  0
 12 13  1  0
 12 17  1  0
 12 18  1  0
 12 19  1  0
 13 14  1  0
 13 21  1  0
 14 15  1  0
 15 16  1  0
 15 22  1  0
 15 23  1  0
 16 24  1  0
 16 25  1  0
 16 26  1  0
M  RAD  1  13   2
M  END
>  <reaction>  (15) 
rmg_rxn_530

>  <mol_properties>  (15) 
{"0": {"label": "*3", "atom_type": "Cs"}, "1": {"label": "*4", "atom_type": "S2s"}, "12": {"label": "*1", "atom_type": "Cs"}, "13": {"label": "*0", "atom_type": "S2s"}, "19": {"label": "*2", "atom_type": "H0"}}

>  <type>  (15) 
unop_11

>  <geom_source>  (15) 
Heuristics

$$$$

     RDKit          3D

 26 24  0  0  0  0  0  0  0  0999 V2000
   -1.0773   -1.4414    1.0229 C   0  0  0  0  0  0  0  0  0  0  0  0
   -2.1371   -1.9809   -0.3299 S   0  0  0  0  0  0  0  0  0  0  0  0
   -2.3489   -0.4247   -1.2279 C   0  0  0  0  0  0  0  0  0  0  0  0
   -3.1623    0.6320   -0.4977 C   0  0  0  0  0  0  0  0  0  0  0  0
   -0.8054   -2.3329    1.5865 H   0  0  0  0  0  0  0  0  0  0  0  0
   -1.5901   -0.7516    1.6923 H   0  0  0  0  0  0  0  0  0  0  0  0
   -2.8438   -0.7115   -2.1573 H   0  0  0  0  0  0  0  0  0  0  0  0
   -1.3616   -0.0420   -1.4966 H   0  0  0  0  0  0  0  0  0  0  0  0
   -2.6722    0.9463    0.4249 H   0  0  0  0  0  0  0  0  0  0  0  0
   -3.2832    1.5184   -1.1247 H   0  0  0  0  0  0  0  0  0  0  0  0
   -4.1520    0.2518   -0.2425 H   0  0  0  0  0  0  0  0  0  0  0  0
    1.1091   -0.3284   -1.4117 C   0  0  0  0  0  0  0  0  0  0  0  0
    1.1091   -0.3284    0.1080 C   0  0  0  0  0  3  0  0  0  0  0  0
    1.1091    1.3127    0.8729 S   0  0  0  0  0  0  0  0  0  0  0  0
    2.6497    2.0266    0.2443 C   0  0  0  0  0  0  0  0  0  0  0  0
    3.9106    1.2677    0.6235 C   0  0  0  0  0  0  0  0  0  0  0  0
    2.0321    0.0952   -1.8111 H   0  0  0  0  0  0  0  0  0  0  0  0
    1.0265   -1.3496   -1.7904 H   0  0  0  0  0  0  0  0  0  0  0  0
    0.2734    0.2541   -1.8011 H   0  0  0  0  0  0  0  0  0  0  0  0
    0.0157   -0.8850    0.5656 H   0  0  0  0  0  0  0  0  0  0  0  0
    1.9453   -0.9111    0.4981 H   0  0  0  0  0  0  0  0  0  0  0  0
    2.5785    2.1488   -0.8377 H   0  0  0  0  0  0  0  0  0  0  0  0
    2.6648    3.0298    0.6736 H   0  0  0  0  0  0  0  0  0  0  0  0
    3.9318    0.2759    0.1689 H   0  0  0  0  0  0  0  0  0  0  0  0
    3.9813    1.1457    1.7049 H   0  0  0  0  0  0  0  0  0  0  0  0
    4.7954    1.8061    0.2766 H   0  0  0  0  0  0  0  0  0  0  0  0
  1  2  1  0
  1  5  1  0
  1  6  1  0
  1 20  1  0
  2  3  1  0
  3  4  1  0
  3  7  1  0
  3  8  1  0
  4  9  1  0
  4 10  1  0
  4 11  1  0
 12 13  1  0
 12 17  1  0
 12 18  1  0
 12 19  1  0
 13 14  1  0
 13 21  1  0
 14 15  1  0
 15 16  1  0
 15 22  1  0
 15 23  1  0
 16 24  1  0
 16 25  1  0
 16 26  1  0
M  RAD  1  13   2
M  END
>  <reaction>  (16) 
rmg_rxn_530

>  <mol_properties>  (16) 
{"0": {"label": "*3", "atom_type": "Cs"}, "1": {"label": "*4", "atom_type": "S2s"}, "12": {"label": "*1", "atom_type": "Cs"}, "13": {"label": "*0", "atom_type": "S2s"}, "19": {"label": "*2", "atom_type": "H0"}}

>  <type>  (16) 
unop_12

>  <geom_source>  (16) 
Heuristics

$$$$

     RDKit          3D

 26 24  0  0  0  0  0  0  0  0999 V2000
    2.8129   -0.9734   -0.8388 S   0  0  0  0  0  0  0  0  0  0  0  0
   -1.7855   -0.2181    0.9037 S   0  0  0  0  0  0  0  0  0  0  0  0
    4.0760   -0.3041    0.3011 C   0  0  0  0  0  0  0  0  0  0  0  0
   -3.4986   -0.6818    0.4740 C   0  0  0  0  0  0  0  0  0  0  0  0
    4.5668    1.0570   -0.1750 C   0  0  0  0  0  0  0  0  0  0  0  0
   -4.3861   -0.5799    1.7050 C   0  0  0  0  0  0  0  0  0  0  0  0
   -1.2490    0.8013   -1.6170 C   0  0  0  0  0  0  0  0  0  0  0  0
    1.3881   -0.1612   -0.0437 C   0  0  0  0  0  0  0  0  0  0  0  0
   -1.1028   -0.4562   -0.7743 C   0  0  0  0  0  3  0  0  0  0  0  0
    3.6816   -0.2273    1.3366 H   0  0  0  0  0  0  0  0  0  0  0  0
    4.9349   -1.0075    0.3156 H   0  0  0  0  0  0  0  0  0  0  0  0
   -3.5196   -1.7262    0.0964 H   0  0  0  0  0  0  0  0  0  0  0  0
   -3.8900   -0.0028   -0.3120 H   0  0  0  0  0  0  0  0  0  0  0  0
    3.7393    1.7959   -0.1647 H   0  0  0  0  0  0  0  0  0  0  0  0
    4.9739    0.9775   -1.2053 H   0  0  0  0  0  0  0  0  0  0  0  0
    5.3716    1.4182    0.4993 H   0  0  0  0  0  0  0  0  0  0  0  0
   -5.4261   -0.8644    1.4398 H   0  0  0  0  0  0  0  0  0  0  0  0
   -4.3873    0.4619    2.0902 H   0  0  0  0  0  0  0  0  0  0  0  0
   -4.0192   -1.2645    2.4989 H   0  0  0  0  0  0  0  0  0  0  0  0
   -2.3198    1.0305   -1.7946 H   0  0  0  0  0  0  0  0  0  0  0  0
   -0.7491    0.6463   -2.5956 H   0  0  0  0  0  0  0  0  0  0  0  0
   -0.7673    1.6594   -1.1032 H   0  0  0  0  0  0  0  0  0  0  0  0
    1.2883   -0.5062    1.0064 H   0  0  0  0  0  0  0  0  0  0  0  0
    1.5058    0.9412   -0.0680 H   0  0  0  0  0  0  0  0  0  0  0  0
    0.3080   -0.4784   -0.6903 H   0  0  0  0  0  0  0  0  0  0  0  0
   -1.5469   -1.3371   -1.2846 H   0  0  0  0  0  0  0  0  0  0  0  0
  1  8  1  0
  1  3  1  0
  2  9  1  0
  2  4  1  0
  3  5  1  0
  3 10  1  0
  3 11  1  0
  4  6  1  0
  4 12  1  0
  4 13  1  0
  5 14  1  0
  5 15  1  0
  5 16  1  0
  6 17  1  0
  6 18  1  0
  6 19  1  0
  7  9  1  0
  7 20  1  0
  7 21  1  0
  7 22  1  0
  8 23  1  0
  8 24  1  0
  8 25  1  0
  9 26  1  0
M  RAD  1   9   2
M  END
>  <reaction>  (17) 
rmg_rxn_530

>  <mol_properties>  (17) 
{"0": {"label": "*3", "atom_type": "Cs"}, "1": {"label": "*4", "atom_type": "S2s"}, "12": {"label": "*1", "atom_type": "Cs"}, "13": {"label": "*0", "atom_type": "S2s"}, "19": {"label": "*2", "atom_type": "H0"}}

>  <type>  (17) 
unop_13

>  <geom_source>  (17) 
AutoTST

$$$$

     RDKit          3D

 26 24  0  0  0  0  0  0  0  0999 V2000
   -1.1197   -1.0629    1.0480 C   0  0  0  0  0  0  0  0  0  0  0  0
   -1.7275   -2.3166   -0.0935 S   0  0  0  0  0  0  0  0  0  0  0  0
   -2.4187   -1.2715   -1.3986 C   0  0  0  0  0  0  0  0  0  0  0  0
   -3.6543   -0.4802   -1.0002 C   0  0  0  0  0  0  0  0  0  0  0  0
   -0.5915   -1.5881    1.8427 H   0  0  0  0  0  0  0  0  0  0  0  0
   -1.9317   -0.4885    1.4928 H   0  0  0  0  0  0  0  0  0  0  0  0
   -2.6551   -1.9655   -2.2069 H   0  0  0  0  0  0  0  0  0  0  0  0
   -1.6316   -0.6092   -1.7661 H   0  0  0  0  0  0  0  0  0  0  0  0
   -3.4320    0.2342   -0.2062 H   0  0  0  0  0  0  0  0  0  0  0  0
   -4.0349    0.0847   -1.8542 H   0  0  0  0  0  0  0  0  0  0  0  0
   -4.4430   -1.1449   -0.6463 H   0  0  0  0  0  0  0  0  0  0  0  0
    1.0667    0.0501   -1.3866 C   0  0  0  0  0  0  0  0  0  0  0  0
    1.0667    0.0501    0.1331 C   0  0  0  0  0  3  0  0  0  0  0  0
    1.0667    1.6912    0.8980 S   0  0  0  0  0  0  0  0  0  0  0  0
    2.6073    2.4052    0.2695 C   0  0  0  0  0  0  0  0  0  0  0  0
    3.8682    1.6463    0.6487 C   0  0  0  0  0  0  0  0  0  0  0  0
    1.9897    0.4737   -1.7860 H   0  0  0  0  0  0  0  0  0  0  0  0
    0.9841   -0.9710   -1.7652 H   0  0  0  0  0  0  0  0  0  0  0  0
    0.2310    0.6326   -1.7760 H   0  0  0  0  0  0  0  0  0  0  0  0
   -0.0267   -0.5065    0.5907 H   0  0  0  0  0  0  0  0  0  0  0  0
    1.9029   -0.5325    0.5232 H   0  0  0  0  0  0  0  0  0  0  0  0
    2.5361    2.5274   -0.8126 H   0  0  0  0  0  0  0  0  0  0  0  0
    2.6224    3.4083    0.6987 H   0  0  0  0  0  0  0  0  0  0  0  0
    3.8894    0.6545    0.1940 H   0  0  0  0  0  0  0  0  0  0  0  0
    3.9389    1.5243    1.7301 H   0  0  0  0  0  0  0  0  0  0  0  0
    4.7530    2.1847    0.3017 H   0  0  0  0  0  0  0  0  0  0  0  0
  1  2  1  0
  1  5  1  0
  1  6  1  0
  1 20  1  0
  2  3  1  0
  3  4  1  0
  3  7  1  0
  3  8  1  0
  4  9  1  0
  4 10  1  0
  4 11  1  0
 12 13  1  0
 12 17  1  0
 12 18  1  0
 12 19  1  0
 13 14  1  0
 13 21  1  0
 14 15  1  0
 15 16  1  0
 15 22  1  0
 15 23  1  0
 16 24  1  0
 16 25  1  0
 16 26  1  0
M  RAD  1  13   2
M  END
>  <reaction>  (18) 
rmg_rxn_530

>  <mol_properties>  (18) 
{"0": {"label": "*3", "atom_type": "Cs"}, "1": {"label": "*4", "atom_type": "S2s"}, "12": {"label": "*1", "atom_type": "Cs"}, "13": {"label": "*0", "atom_type": "S2s"}, "19": {"label": "*2", "atom_type": "H0"}}

>  <type>  (18) 
unop_14

>  <geom_source>  (18) 
gaussian_log

$$$$
