
     RDKit          3D

  5  4  0  0  0  0  0  0  0  0999 V2000
   -0.4583    0.0384    0.1517 N   0  0  0  0  0  0  0  0  0  0  0  0
    0.7454   -0.3487    0.5322 N   0  0  0  0  0  0  0  0  0  0  0  0
    0.7566   -1.0388    1.5193 O   0  0  0  0  0  0  0  0  0  0  0  0
   -1.2688   -0.2521    0.6850 H   0  0  0  0  0  0  0  0  0  0  0  0
   -0.5137    0.6154   -0.6670 H   0  0  0  0  0  0  0  0  0  0  0  0
  1  2  1  0
  1  4  1  0
  1  5  1  0
  2  3  2  0
M  END
>  <reaction>  (1) 
rmg_rxn_1480

>  <mol_properties>  (1) 
{"0": {"label": "donator", "atom_type": "N3s"}, "3": {"label": "d_hydrogen", "atom_type": "H0"}}

>  <type>  (1) 
r1h

$$$$

     RDKit          3D

 13 13  0  0  0  0  0  0  0  0999 V2000
   -1.1371    0.3608    0.3110 C   0  0  0  0  0  3  0  0  0  0  0  0
   -0.0045    1.3224    0.2943 C   0  0  0  0  0  0  0  0  0  0  0  0
    1.2245    0.6965    0.6137 O   0  0  0  0  0  0  0  0  0  0  0  0
    1.3926   -0.4921   -0.0955 C   0  0  0  0  0  0  0  0  0  0  0  0
    0.4387   -1.4537    0.2351 O   0  0  0  0  0  0  0  0  0  0  0  0
   -0.8659   -1.0349   -0.1206 C   0  0  0  0  0  0  0  0  0  0  0  0
   -2.1544    0.7285    0.3341 H   0  0  0  0  0  0  0  0  0  0  0  0
   -0.1488    2.1272    1.0165 H   0  0  0  0  0  0  0  0  0  0  0  0
    0.0825    1.7949   -0.7036 H   0  0  0  0  0  0  0  0  0  0  0  0
    1.3549   -0.2872   -1.1815 H   0  0  0  0  0  0  0  0  0  0  0  0
    2.3646   -0.8956    0.1787 H   0  0  0  0  0  0  0  0  0  0  0  0
   -1.5620   -1.7401    0.3358 H   0  0  0  0  0  0  0  0  0  0  0  0
   -0.9852   -1.1268   -1.2179 H   0  0  0  0  0  0  0  0  0  0  0  0
  1  2  1  0
  1  6  1  0
  1  7  1  0
  2  3  1  0
  2  8  1  0
  2  9  1  0
  3  4  1  0
  4  5  1  0
  4 10  1  0
  4 11  1  0
  5  6  1  0
  6 12  1  0
  6 13  1  0
M  RAD  1   1   2
M  END
>  <reaction>  (2) 
rmg_rxn_1480

>  <mol_properties>  (2) 
{"0": {"label": "acceptor", "atom_type": "Cs"}}

>  <type>  (2) 
r2

$$$$

     RDKit          3D

 14 14  0  0  0  0  0  0  0  0999 V2000
   -1.1778    0.2241    0.1818 C   0  0  0  0  0  0  0  0  0  0  0  0
   -0.5633   -1.1636    0.0678 C   0  0  0  0  0  0  0  0  0  0  0  0
    0.6943   -1.1996    0.7146 O   0  0  0  0  0  0  0  0  0  0  0  0
    1.5547   -0.2288    0.2011 C   0  0  0  0  0  0  0  0  0  0  0  0
    1.0729    1.0696    0.3698 O   0  0  0  0  0  0  0  0  0  0  0  0
   -0.1607    1.2493   -0.2989 C   0  0  0  0  0  0  0  0  0  0  0  0
   -2.0927    0.2866   -0.4117 H   0  0  0  0  0  0  0  0  0  0  0  0
   -1.4303    0.4248    1.2248 H   0  0  0  0  0  0  0  0  0  0  0  0
   -1.1822   -1.9235    0.5431 H   0  0  0  0  0  0  0  0  0  0  0  0
   -0.4389   -1.4347   -0.9919 H   0  0  0  0  0  0  0  0  0  0  0  0
    1.7250   -0.4207   -0.8742 H   0  0  0  0  0  0  0  0  0  0  0  0
    2.4896   -0.3010    0.7524 H   0  0  0  0  0  0  0  0  0  0  0  0
   -0.0080    1.1481   -1.3844 H   0  0  0  0  0  0  0  0  0  0  0  0
   -0.4826    2.2695   -0.0942 H   0  0  0  0  0  0  0  0  0  0  0  0
  1  2  1  0
  1  6  1  0
  1  7  1  0
  1  8  1  0
  2  3  1  0
  2  9  1  0
  2 10  1  0
  3  4  1  0
  4  5  1  0
  4 11  1  0
  4 12  1  0
  5  6  1  0
  6 13  1  0
  6 14  1  0
M  END
>  <reaction>  (3) 
rmg_rxn_1480

>  <mol_properties>  (3) 
{"0": {"label": "a_hydrogen", "atom_type": "H0"}, "1": {"label": "acceptor", "atom_type": "Cs"}}

>  <type>  (3) 
r2h

$$$$

     RDKit          3D

 18 17  0  0  0  0  0  0  0  0999 V2000
   -1.5786    0.6934   -0.5897 N   0  0  0  0  0  0  0  0  0  0  0  0
   -2.6407   -0.0115   -0.4143 N   0  0  0  0  0  0  0  0  0  0  0  0
   -2.8711   -0.4545    0.6839 O   0  0  0  0  0  0  0  0  0  0  0  0
   -0.6928    0.5053    0.2684 H   0  0  0  0  0  0  0  0  0  0  0  0
   -1.3281    0.8004   -1.5657 H   0  0  0  0  0  0  0  0  0  0  0  0
    0.3038    0.1348    1.1184 C   0  0  0  0  0  3  0  0  0  0  0  0
    0.7022   -1.2390    0.6513 C   0  0  0  0  0  0  0  0  0  0  0  0
    1.2577   -1.1845   -0.6492 O   0  0  0  0  0  0  0  0  0  0  0  0
    2.2955   -0.2551   -0.7220 C   0  0  0  0  0  0  0  0  0  0  0  0
    1.8688    1.0494   -0.4582 O   0  0  0  0  0  0  0  0  0  0  0  0
    1.3667    1.1689    0.8586 C   0  0  0  0  0  0  0  0  0  0  0  0
   -0.1451    0.1690    2.1080 H   0  0  0  0  0  0  0  0  0  0  0  0
    1.4396   -1.6702    1.3498 H   0  0  0  0  0  0  0  0  0  0  0  0
   -0.1525   -1.9126    0.6077 H   0  0  0  0  0  0  0  0  0  0  0  0
    2.6732   -0.2706   -1.7416 H   0  0  0  0  0  0  0  0  0  0  0  0
    3.0937   -0.5325   -0.0111 H   0  0  0  0  0  0  0  0  0  0  0  0
    0.9844    2.1839    0.9638 H   0  0  0  0  0  0  0  0  0  0  0  0
    2.1909    1.0431    1.5819 H   0  0  0  0  0  0  0  0  0  0  0  0
  1  2  1  0
  1  4  1  0
  1  5  1  0
  2  3  2  0
  6  7  1  0
  6 11  1  0
  6 12  1  0
  7  8  1  0
  7 13  1  0
  7 14  1  0
  8  9  1  0
  9 10  1  0
  9 15  1  0
  9 16  1  0
 10 11  1  0
 11 17  1  0
 11 18  1  0
M  RAD  1   6   2
M  END
>  <reaction>  (4) 
rmg_rxn_1480

>  <mol_properties>  (4) 
{"0": {"label": "*1", "atom_type": "N3s"}, "1": {"label": "*0", "atom_type": "N3d"}, "3": {"label": "*2", "atom_type": "H0"}, "5": {"label": "*3", "atom_type": "Cs"}, "6": {"label": "*4", "atom_type": "Cs"}}

>  <type>  (4) 
ts

$$$$

     RDKit          3D

 18 17  0  0  0  0  0  0  0  0999 V2000
    1.5055    0.5504   -0.5106 N   0  0  0  0  0  0  0  0  0  0  0  0
    2.6903    0.1713   -0.6019 N   0  0  0  0  0  0  0  0  0  0  0  0
    3.3706   -0.2747    0.2899 O   0  0  0  0  0  0  0  0  0  0  0  0
    0.6909    0.3451    0.3916 H   0  0  0  0  0  0  0  0  0  0  0  0
    1.0738    0.8402   -1.3825 H   0  0  0  0  0  0  0  0  0  0  0  0
   -0.3090    0.0918    1.1907 C   0  0  0  0  0  3  0  0  0  0  0  0
   -1.3417    1.1532    0.8642 C   0  0  0  0  0  0  0  0  0  0  0  0
   -1.7322    1.0502   -0.4980 O   0  0  0  0  0  0  0  0  0  0  0  0
   -2.2061   -0.2309   -0.7865 C   0  0  0  0  0  0  0  0  0  0  0  0
   -1.2517   -1.2285   -0.5902 O   0  0  0  0  0  0  0  0  0  0  0  0
   -0.8235   -1.2694    0.7634 C   0  0  0  0  0  0  0  0  0  0  0  0
    0.0328    0.1204    2.2204 H   0  0  0  0  0  0  0  0  0  0  0  0
   -2.2343    1.0392    1.5061 H   0  0  0  0  0  0  0  0  0  0  0  0
   -0.9471    2.1631    0.9893 H   0  0  0  0  0  0  0  0  0  0  0  0
   -2.4668   -0.2432   -1.8469 H   0  0  0  0  0  0  0  0  0  0  0  0
   -3.1060   -0.4444   -0.1716 H   0  0  0  0  0  0  0  0  0  0  0  0
   -0.0463   -2.0343    0.8108 H   0  0  0  0  0  0  0  0  0  0  0  0
   -1.6694   -1.5835    1.4020 H   0  0  0  0  0  0  0  0  0  0  0  0
  1  2  1  0
  1  4  1  0
  1  5  1  0
  2  3  2  0
  6  7  1  0
  6 11  1  0
  6 12  1  0
  7  8  1  0
  7 13  1  0
  7 14  1  0
  8  9  1  0
  9 10  1  0
  9 15  1  0
  9 16  1  0
 10 11  1  0
 11 17  1  0
 11 18  1  0
M  RAD  1   6   2
M  END
>  <reaction>  (5) 
rmg_rxn_1480

>  <mol_properties>  (5) 
{"0": {"label": "*1", "atom_type": "N3s"}, "1": {"label": "*0", "atom_type": "N3d"}, "3": {"label": "*2", "atom_type": "H0"}, "5": {"label": "*3", "atom_type": "Cs"}, "6": {"label": "*4", "atom_type": "Cs"}}

>  <type>  (5) 
unop_1

>  <geom_source>  (5) 
crest_best.xyz

$$$$

     RDKit          3D

 18 17  0  0  0  0  0  0  0  0999 V2000
   -0.0330   -1.9205    0.7684 N   0  0  0  0  0  0  0  0  0  0  0  0
   -0.0330   -3.1233    0.2237 N   0  0  0  0  0  0  0  0  0  0  0  0
   -0.0330   -3.1233   -0.9808 O   0  0  0  0  0  0  0  0  0  0  0  0
   -0.0330   -0.9379    0.0532 H   0  0  0  0  0  0  0  0  0  0  0  0
   -0.0330   -1.8742    1.7705 H   0  0  0  0  0  0  0  0  0  0  0  0
   -0.0330    0.1219   -0.7182 C   0  0  0  0  0  3  0  0  0  0  0  0
   -1.2680    0.9717   -0.4548 C   0  0  0  0  0  0  0  0  0  0  0  0
   -0.9117    2.3363   -0.3431 O   0  0  0  0  0  0  0  0  0  0  0  0
    0.0479    2.5283    0.6513 C   0  0  0  0  0  0  0  0  0  0  0  0
    1.2356    1.8402    0.4017 O   0  0  0  0  0  0  0  0  0  0  0  0
    1.0154    0.4443    0.3371 C   0  0  0  0  0  0  0  0  0  0  0  0
    0.3642    0.3557   -1.7078 H   0  0  0  0  0  0  0  0  0  0  0  0
   -1.9910    0.9019   -1.2663 H   0  0  0  0  0  0  0  0  0  0  0  0
   -1.7600    0.6436    0.4736 H   0  0  0  0  0  0  0  0  0  0  0  0
   -0.3641    2.2082    1.6260 H   0  0  0  0  0  0  0  0  0  0  0  0
    0.2865    3.5893    0.6699 H   0  0  0  0  0  0  0  0  0  0  0  0
    0.6840    0.0790    1.3213 H   0  0  0  0  0  0  0  0  0  0  0  0
    1.9766   -0.0146    0.1097 H   0  0  0  0  0  0  0  0  0  0  0  0
  1  2  1  0
  1  4  1  0
  1  5  1  0
  2  3  2  0
  6  7  1  0
  6 11  1  0
  6 12  1  0
  7  8  1  0
  7 13  1  0
  7 14  1  0
  8  9  1  0
  9 10  1  0
  9 15  1  0
  9 16  1  0
 10 11  1  0
 11 17  1  0
 11 18  1  0
M  RAD  1   6   2
M  END
>  <reaction>  (6) 
rmg_rxn_1480

>  <mol_properties>  (6) 
{"0": {"label": "*1", "atom_type": "N3s"}, "1": {"label": "*0", "atom_type": "N3d"}, "3": {"label": "*2", "atom_type": "H0"}, "5": {"label": "*3", "atom_type": "Cs"}, "6": {"label": "*4", "atom_type": "Cs"}}

>  <type>  (6) 
unop_2

>  <geom_source>  (6) 
Heuristics

$$$$

     RDKit          3D

 18 17  0  0  0  0  0  0  0  0999 V2000
    0.7102   -1.6309    1.5905 N   0  0  0  0  0  0  0  0  0  0  0  0
    0.7102   -2.8337    1.0457 N   0  0  0  0  0  0  0  0  0  0  0  0
    0.7102   -2.8337   -0.1588 O   0  0  0  0  0  0  0  0  0  0  0  0
    0.7102   -0.6482    0.8753 H   0  0  0  0  0  0  0  0  0  0  0  0
    0.7102   -1.5845    2.5926 H   0  0  0  0  0  0  0  0  0  0  0  0
    0.7102    0.4116    0.1039 C   0  0  0  0  0  3  0  0  0  0  0  0
   -0.0028    0.1150   -1.2077 C   0  0  0  0  0  0  0  0  0  0  0  0
   -0.4991    1.3102   -1.7792 O   0  0  0  0  0  0  0  0  0  0  0  0
   -1.3420    1.9820   -0.8934 C   0  0  0  0  0  0  0  0  0  0  0  0
   -0.7019    2.3578    0.2879 O   0  0  0  0  0  0  0  0  0  0  0  0
   -0.2185    1.2290    0.9904 C   0  0  0  0  0  0  0  0  0  0  0  0
    1.6173    0.9847   -0.0975 H   0  0  0  0  0  0  0  0  0  0  0  0
    0.6658   -0.3301   -1.9432 H   0  0  0  0  0  0  0  0  0  0  0  0
   -0.8365   -0.5825   -1.0339 H   0  0  0  0  0  0  0  0  0  0  0  0
   -2.2092    1.3398   -0.6531 H   0  0  0  0  0  0  0  0  0  0  0  0
   -1.6701    2.8937   -1.3877 H   0  0  0  0  0  0  0  0  0  0  0  0
   -1.0674    0.6098    1.3188 H   0  0  0  0  0  0  0  0  0  0  0  0
    0.2910    1.6056    1.8763 H   0  0  0  0  0  0  0  0  0  0  0  0
  1  2  1  0
  1  4  1  0
  1  5  1  0
  2  3  2  0
  6  7  1  0
  6 11  1  0
  6 12  1  0
  7  8  1  0
  7 13  1  0
  7 14  1  0
  8  9  1  0
  9 10  1  0
  9 15  1  0
  9 16  1  0
 10 11  1  0
 11 17  1  0
 11 18  1  0
M  RAD  1   6   2
M  END
>  <reaction>  (7) 
rmg_rxn_1480

>  <mol_properties>  (7) 
{"0": {"label": "*1", "atom_type": "N3s"}, "1": {"label": "*0", "atom_type": "N3d"}, "3": {"label": "*2", "atom_type": "H0"}, "5": {"label": "*3", "atom_type": "Cs"}, "6": {"label": "*4", "atom_type": "Cs"}}

>  <type>  (7) 
unop_3

>  <geom_source>  (7) 
Heuristics

$$$$

     RDKit          3D

 18 17  0  0  0  0  0  0  0  0999 V2000
   -0.4408   -1.9075    1.0163 N   0  0  0  0  0  0  0  0  0  0  0  0
   -0.4408   -3.1103    0.4716 N   0  0  0  0  0  0  0  0  0  0  0  0
   -0.4408   -3.1103   -0.7329 O   0  0  0  0  0  0  0  0  0  0  0  0
   -0.4408   -0.9248    0.3011 H   0  0  0  0  0  0  0  0  0  0  0  0
   -0.4408   -1.8611    2.0184 H   0  0  0  0  0  0  0  0  0  0  0  0
   -0.4408    0.1350   -0.4703 C   0  0  0  0  0  3  0  0  0  0  0  0
   -1.1538    1.2919    0.2151 C   0  0  0  0  0  0  0  0  0  0  0  0
   -0.5382    2.5197   -0.1242 O   0  0  0  0  0  0  0  0  0  0  0  0
    0.8196    2.5097    0.1963 C   0  0  0  0  0  0  0  0  0  0  0  0
    1.5321    1.5218   -0.4839 O   0  0  0  0  0  0  0  0  0  0  0  0
    1.0477    0.2308   -0.1675 C   0  0  0  0  0  0  0  0  0  0  0  0
   -0.5968    0.2002   -1.5488 H   0  0  0  0  0  0  0  0  0  0  0  0
   -2.1958    1.3681   -0.0928 H   0  0  0  0  0  0  0  0  0  0  0  0
   -1.1268    1.1572    1.3073 H   0  0  0  0  0  0  0  0  0  0  0  0
    0.9388    2.3644    1.2857 H   0  0  0  0  0  0  0  0  0  0  0  0
    1.2302    3.4706   -0.1058 H   0  0  0  0  0  0  0  0  0  0  0  0
    1.2296    0.0214    0.8978 H   0  0  0  0  0  0  0  0  0  0  0  0
    1.6297   -0.4758   -0.7575 H   0  0  0  0  0  0  0  0  0  0  0  0
  1  2  1  0
  1  4  1  0
  1  5  1  0
  2  3  2  0
  6  7  1  0
  6 11  1  0
  6 12  1  0
  7  8  1  0
  7 13  1  0
  7 14  1  0
  8  9  1  0
  9 10  1  0
  9 15  1  0
  9 16  1  0
 10 11  1  0
 11 17  1  0
 11 18  1  0
M  RAD  1   6   2
M  END
>  <reaction>  (8) 
rmg_rxn_1480

>  <mol_properties>  (8) 
{"0": {"label": "*1", "atom_type": "N3s"}, "1": {"label": "*0", "atom_type": "N3d"}, "3": {"label": "*2", "atom_type": "H0"}, "5": {"label": "*3", "atom_type": "Cs"}, "6": {"label": "*4", "atom_type": "Cs"}}

>  <type>  (8) 
unop_4

>  <geom_source>  (8) 
Heuristics

$$$$

     RDKit          3D

 18 17  0  0  0  0  0  0  0  0999 V2000
   -0.1697   -1.7633    1.8971 N   0  0  0  0  0  0  0  0  0  0  0  0
   -0.1697   -2.9662    1.3523 N   0  0  0  0  0  0  0  0  0  0  0  0
   -0.1697   -2.9662    0.1478 O   0  0  0  0  0  0  0  0  0  0  0  0
   -0.1697   -0.7807    1.1819 H   0  0  0  0  0  0  0  0  0  0  0  0
   -0.1697   -1.7170    2.8992 H   0  0  0  0  0  0  0  0  0  0  0  0
   -0.1697    0.2791    0.4105 C   0  0  0  0  0  3  0  0  0  0  0  0
    1.0652    0.2897   -0.4791 C   0  0  0  0  0  0  0  0  0  0  0  0
    1.3843    1.6136   -0.8623 O   0  0  0  0  0  0  0  0  0  0  0  0
    0.3058    2.2297   -1.4978 C   0  0  0  0  0  0  0  0  0  0  0  0
   -0.8227    2.3268   -0.6833 O   0  0  0  0  0  0  0  0  0  0  0  0
   -1.2816    1.0481   -0.2888 C   0  0  0  0  0  0  0  0  0  0  0  0
    0.0636    0.7624    1.3612 H   0  0  0  0  0  0  0  0  0  0  0  0
    1.9401   -0.1077    0.0337 H   0  0  0  0  0  0  0  0  0  0  0  0
    0.8871   -0.3198   -1.3783 H   0  0  0  0  0  0  0  0  0  0  0  0
    0.0498    1.6675   -2.4147 H   0  0  0  0  0  0  0  0  0  0  0  0
    0.6131    3.2429   -1.7470 H   0  0  0  0  0  0  0  0  0  0  0  0
   -1.6249    0.4919   -1.1746 H   0  0  0  0  0  0  0  0  0  0  0  0
   -2.1379    1.2101    0.3644 H   0  0  0  0  0  0  0  0  0  0  0  0
  1  2  1  0
  1  4  1  0
  1  5  1  0
  2  3  2  0
  6  7  1  0
  6 11  1  0
  6 12  1  0
  7  8  1  0
  7 13  1  0
  7 14  1  0
  8  9  1  0
  9 10  1  0
  9 15  1  0
  9 16  1  0
 10 11  1  0
 11 17  1  0
 11 18  1  0
M  RAD  1   6   2
M  END
>  <reaction>  (9) 
rmg_rxn_1480

>  <mol_properties>  (9) 
{"0": {"label": "*1", "atom_type": "N3s"}, "1": {"label": "*0", "atom_type": "N3d"}, "3": {"label": "*2", "atom_type": "H0"}, "5": {"label": "*3", "atom_type": "Cs"}, "6": {"label": "*4", "atom_type": "Cs"}}

>  <type>  (9) 
unop_5

>  <geom_source>  (9) 
Heuristics

$$$$

     RDKit          3D

 18 17  0  0  0  0  0  0  0  0999 V2000
   -0.4481   -1.8875    1.5129 N   0  0  0  0  0  0  0  0  0  0  0  0
   -0.4481   -3.0903    0.9681 N   0  0  0  0  0  0  0  0  0  0  0  0
   -0.4481   -3.0903   -0.2364 O   0  0  0  0  0  0  0  0  0  0  0  0
   -0.4481   -0.9048    0.7977 H   0  0  0  0  0  0  0  0  0  0  0  0
   -0.4481   -1.8411    2.5150 H   0  0  0  0  0  0  0  0  0  0  0  0
   -0.4481    0.1550    0.0263 C   0  0  0  0  0  3  0  0  0  0  0  0
   -0.4481    1.4243    0.8661 C   0  0  0  0  0  0  0  0  0  0  0  0
   -0.2996    2.5620    0.0384 O   0  0  0  0  0  0  0  0  0  0  0  0
    0.8575    2.4758   -0.7363 C   0  0  0  0  0  0  0  0  0  0  0  0
    0.8582    1.3746   -1.5929 O   0  0  0  0  0  0  0  0  0  0  0  0
    0.7830    0.1617   -0.8686 C   0  0  0  0  0  0  0  0  0  0  0  0
   -1.3469    0.1294   -0.5930 H   0  0  0  0  0  0  0  0  0  0  0  0
   -1.3827    1.5526    1.4105 H   0  0  0  0  0  0  0  0  0  0  0  0
    0.3743    1.3924    1.5971 H   0  0  0  0  0  0  0  0  0  0  0  0
    1.7406    2.4258   -0.0731 H   0  0  0  0  0  0  0  0  0  0  0  0
    0.8986    3.3683   -1.3567 H   0  0  0  0  0  0  0  0  0  0  0  0
    1.6921    0.0410   -0.2596 H   0  0  0  0  0  0  0  0  0  0  0  0
    0.7566   -0.6414   -1.6038 H   0  0  0  0  0  0  0  0  0  0  0  0
  1  2  1  0
  1  4  1  0
  1  5  1  0
  2  3  2  0
  6  7  1  0
  6 11  1  0
  6 12  1  0
  7  8  1  0
  7 13  1  0
  7 14  1  0
  8  9  1  0
  9 10  1  0
  9 15  1  0
  9 16  1  0
 10 11  1  0
 11 17  1  0
 11 18  1  0
M  RAD  1   6   2
M  END
>  <reaction>  (10) 
rmg_rxn_1480

>  <mol_properties>  (10) 
{"0": {"label": "*1", "atom_type": "N3s"}, "1": {"label": "*0", "atom_type": "N3d"}, "3": {"label": "*2", "atom_type": "H0"}, "5": {"label": "*3", "atom_type": "Cs"}, "6": {"label": "*4", "atom_type": "Cs"}}

>  <type>  (10) 
unop_6

>  <geom_source>  (10) 
Heuristics

$$$$

     RDKit          3D

 18 17  0  0  0  0  0  0  0  0999 V2000
   -1.5057    0.5514   -0.5107 N   0  0  0  0  0  0  0  0  0  0  0  0
   -2.6902    0.1715   -0.6019 N   0  0  0  0  0  0  0  0  0  0  0  0
   -3.3700   -0.2752    0.2900 O   0  0  0  0  0  0  0  0  0  0  0  0
   -0.6910    0.3462    0.3912 H   0  0  0  0  0  0  0  0  0  0  0  0
   -1.0745    0.8414   -1.3828 H   0  0  0  0  0  0  0  0  0  0  0  0
    0.3088    0.0925    1.1903 C   0  0  0  0  0  3  0  0  0  0  0  0
    0.8225   -1.2692    0.7636 C   0  0  0  0  0  0  0  0  0  0  0  0
    1.2512   -1.2288   -0.5898 O   0  0  0  0  0  0  0  0  0  0  0  0
    2.2062   -0.2318   -0.7862 C   0  0  0  0  0  0  0  0  0  0  0  0
    1.7330    1.0497   -0.4982 O   0  0  0  0  0  0  0  0  0  0  0  0
    1.3421    1.1533    0.8638 C   0  0  0  0  0  0  0  0  0  0  0  0
   -0.0331    0.1216    2.2199 H   0  0  0  0  0  0  0  0  0  0  0  0
    1.6681   -1.5837    1.4025 H   0  0  0  0  0  0  0  0  0  0  0  0
    0.0449   -2.0336    0.8109 H   0  0  0  0  0  0  0  0  0  0  0  0
    2.4673   -0.2445   -1.8465 H   0  0  0  0  0  0  0  0  0  0  0  0
    3.1058   -0.4457   -0.1709 H   0  0  0  0  0  0  0  0  0  0  0  0
    0.9480    2.1636    0.9886 H   0  0  0  0  0  0  0  0  0  0  0  0
    2.2345    1.0391    1.5061 H   0  0  0  0  0  0  0  0  0  0  0  0
  1  2  1  0
  1  4  1  0
  1  5  1  0
  2  3  2  0
  6  7  1  0
  6 11  1  0
  6 12  1  0
  7  8  1  0
  7 13  1  0
  7 14  1  0
  8  9  1  0
  9 10  1  0
  9 15  1  0
  9 16  1  0
 10 11  1  0
 11 17  1  0
 11 18  1  0
M  RAD  1   6   2
M  END
>  <reaction>  (11) 
rmg_rxn_1480

>  <mol_properties>  (11) 
{"0": {"label": "*1", "atom_type": "N3s"}, "1": {"label": "*0", "atom_type": "N3d"}, "3": {"label": "*2", "atom_type": "H0"}, "5": {"label": "*3", "atom_type": "Cs"}, "6": {"label": "*4", "atom_type": "Cs"}}

>  <type>  (11) 
unop_7

>  <geom_source>  (11) 
Heuristics

$$$$

     RDKit          3D

 18 17  0  0  0  0  0  0  0  0999 V2000
   -0.2115   -1.8828    1.7271 N   0  0  0  0  0  0  0  0  0  0  0  0
   -0.2115   -3.0856    1.1824 N   0  0  0  0  0  0  0  0  0  0  0  0
   -0.2115   -3.0856   -0.0221 O   0  0  0  0  0  0  0  0  0  0  0  0
   -0.2115   -0.9001    1.0119 H   0  0  0  0  0  0  0  0  0  0  0  0
   -0.2115   -1.8364    2.7292 H   0  0  0  0  0  0  0  0  0  0  0  0
   -0.2115    0.1597    0.2405 C   0  0  0  0  0  3  0  0  0  0  0  0
    1.2145    0.5899   -0.0726 C   0  0  0  0  0  0  0  0  0  0  0  0
    1.2854    1.9962   -0.2093 O   0  0  0  0  0  0  0  0  0  0  0  0
    0.3999    2.4544   -1.1852 C   0  0  0  0  0  0  0  0  0  0  0  0
   -0.9324    2.1637   -0.8909 O   0  0  0  0  0  0  0  0  0  0  0  0
   -1.1439    0.7680   -0.7973 C   0  0  0  0  0  0  0  0  0  0  0  0
   -0.4894    0.5190    1.2332 H   0  0  0  0  0  0  0  0  0  0  0  0
    1.9063    0.3170    0.7231 H   0  0  0  0  0  0  0  0  0  0  0  0
    1.5559    0.1128   -1.0041 H   0  0  0  0  0  0  0  0  0  0  0  0
    0.6662    2.0086   -2.1612 H   0  0  0  0  0  0  0  0  0  0  0  0
    0.4937    3.5374   -1.2242 H   0  0  0  0  0  0  0  0  0  0  0  0
   -0.9684    0.3035   -1.7798 H   0  0  0  0  0  0  0  0  0  0  0  0
   -2.1918    0.6265   -0.5362 H   0  0  0  0  0  0  0  0  0  0  0  0
  1  2  1  0
  1  4  1  0
  1  5  1  0
  2  3  2  0
  6  7  1  0
  6 11  1  0
  6 12  1  0
  7  8  1  0
  7 13  1  0
  7 14  1  0
  8  9  1  0
  9 10  1  0
  9 15  1  0
  9 16  1  0
 10 11  1  0
 11 17  1  0
 11 18  1  0
M  RAD  1   6   2
M  END
>  <reaction>  (12) 
rmg_rxn_1480

>  <mol_properties>  (12) 
{"0": {"label": "*1", "atom_type": "N3s"}, "1": {"label": "*0", "atom_type": "N3d"}, "3": {"label": "*2", "atom_type": "H0"}, "5": {"label": "*3", "atom_type": "Cs"}, "6": {"label": "*4", "atom_type": "Cs"}}

>  <type>  (12) 
unop_8

>  <geom_source>  (12) 
Heuristics

$$$$

     RDKit          3D

 18 17  0  0  0  0  0  0  0  0999 V2000
    1.5049    0.5484   -0.5095 N   0  0  0  0  0  0  0  0  0  0  0  0
    2.6900    0.1712   -0.6018 N   0  0  0  0  0  0  0  0  0  0  0  0
    3.3718   -0.2738    0.2893 O   0  0  0  0  0  0  0  0  0  0  0  0
    0.6908    0.3427    0.3930 H   0  0  0  0  0  0  0  0  0  0  0  0
    1.0721    0.8375   -1.3811 H   0  0  0  0  0  0  0  0  0  0  0  0
   -0.3097    0.0896    1.1915 C   0  0  0  0  0  3  0  0  0  0  0  0
   -1.3407    1.1527    0.8653 C   0  0  0  0  0  0  0  0  0  0  0  0
   -1.7300    1.0516   -0.4974 O   0  0  0  0  0  0  0  0  0  0  0  0
   -2.2055   -0.2285   -0.7879 C   0  0  0  0  0  0  0  0  0  0  0  0
   -1.2528   -1.2276   -0.5912 O   0  0  0  0  0  0  0  0  0  0  0  0
   -0.8260   -1.2704    0.7628 C   0  0  0  0  0  0  0  0  0  0  0  0
    0.0316    0.1169    2.2213 H   0  0  0  0  0  0  0  0  0  0  0  0
   -2.2340    1.0392    1.5063 H   0  0  0  0  0  0  0  0  0  0  0  0
   -0.9447    2.1620    0.9920 H   0  0  0  0  0  0  0  0  0  0  0  0
   -2.4652   -0.2394   -1.8486 H   0  0  0  0  0  0  0  0  0  0  0  0
   -3.1061   -0.4411   -0.1739 H   0  0  0  0  0  0  0  0  0  0  0  0
   -0.0500   -2.0366    0.8104 H   0  0  0  0  0  0  0  0  0  0  0  0
   -1.6729   -1.5837    1.4004 H   0  0  0  0  0  0  0  0  0  0  0  0
  1  2  1  0
  1  4  1  0
  1  5  1  0
  2  3  2  0
  6  7  1  0
  6 11  1  0
  6 12  1  0
  7  8  1  0
  7 13  1  0
  7 14  1  0
  8  9  1  0
  9 10  1  0
  9 15  1  0
  9 16  1  0
 10 11  1  0
 11 17  1  0
 11 18  1  0
M  RAD  1   6   2
M  END
>  <reaction>  (13) 
rmg_rxn_1480

>  <mol_properties>  (13) 
{"0": {"label": "*1", "atom_type": "N3s"}, "1": {"label": "*0", "atom_type": "N3d"}, "3": {"label": "*2", "atom_type": "H0"}, "5": {"label": "*3", "atom_type": "Cs"}, "6": {"label": "*4", "atom_type": "Cs"}}

>  <type>  (13) 
unop_9

>  <geom_source>  (13) 
Heuristics

$$$$

     RDKit          3D

 18 17  0  0  0  0  0  0  0  0999 V2000
   -0.1408   -1.9403    1.6474 N   0  0  0  0  0  0  0  0  0  0  0  0
   -0.1408   -3.1431    1.1027 N   0  0  0  0  0  0  0  0  0  0  0  0
   -0.1408   -3.1431   -0.1018 O   0  0  0  0  0  0  0  0  0  0  0  0
   -0.1408   -0.9577    0.9322 H   0  0  0  0  0  0  0  0  0  0  0  0
   -0.1408   -1.8940    2.6495 H   0  0  0  0  0  0  0  0  0  0  0  0
   -0.1408    0.1021    0.1609 C   0  0  0  0  0  3  0  0  0  0  0  0
    1.0941    0.9519    0.4242 C   0  0  0  0  0  0  0  0  0  0  0  0
    0.7955    2.3230    0.2445 O   0  0  0  0  0  0  0  0  0  0  0  0
    0.2847    2.5662   -1.0308 C   0  0  0  0  0  0  0  0  0  0  0  0
   -0.9027    1.8781   -1.2818 O   0  0  0  0  0  0  0  0  0  0  0  0
   -0.7117    0.4789   -1.1989 C   0  0  0  0  0  0  0  0  0  0  0  0
   -0.8866    0.2962    0.9341 H   0  0  0  0  0  0  0  0  0  0  0  0
    1.4547    0.8409    1.4459 H   0  0  0  0  0  0  0  0  0  0  0  0
    1.9052    0.6602   -0.2605 H   0  0  0  0  0  0  0  0  0  0  0  0
    1.0392    2.2851   -1.7883 H   0  0  0  0  0  0  0  0  0  0  0  0
    0.0620    3.6290   -1.0928 H   0  0  0  0  0  0  0  0  0  0  0  0
   -0.0276    0.1538   -1.9978 H   0  0  0  0  0  0  0  0  0  0  0  0
   -1.6832    0.0188   -1.3744 H   0  0  0  0  0  0  0  0  0  0  0  0
  1  2  1  0
  1  4  1  0
  1  5  1  0
  2  3  2  0
  6  7  1  0
  6 11  1  0
  6 12  1  0
  7  8  1  0
  7 13  1  0
  7 14  1  0
  8  9  1  0
  9 10  1  0
  9 15  1  0
  9 16  1  0
 10 11  1  0
 11 17  1  0
 11 18  1  0
M  RAD  1   6   2
M  END
>  <reaction>  (14) 
rmg_rxn_1480

>  <mol_properties>  (14) 
{"0": {"label": "*1", "atom_type": "N3s"}, "1": {"label": "*0", "atom_type": "N3d"}, "3": {"label": "*2", "atom_type": "H0"}, "5": {"label": "*3", "atom_type": "Cs"}, "6": {"label": "*4", "atom_type": "Cs"}}

>  <type>  (14) 
unop_10

>  <geom_source>  (14) 
Heuristics

$$$$

     RDKit          3D

 18 17  0  0  0  0  0  0  0  0999 V2000
    0.4094   -1.8631    0.8532 N   0  0  0  0  0  0  0  0  0  0  0  0
    0.4094   -3.0659    0.3084 N   0  0  0  0  0  0  0  0  0  0  0  0
    0.4094   -3.0659   -0.8961 O   0  0  0  0  0  0  0  0  0  0  0  0
    0.4094   -0.8804    0.1380 H   0  0  0  0  0  0  0  0  0  0  0  0
    0.4094   -1.8167    1.8553 H   0  0  0  0  0  0  0  0  0  0  0  0
    0.4094    0.1794   -0.6334 C   0  0  0  0  0  3  0  0  0  0  0  0
   -1.0166    0.6096   -0.9465 C   0  0  0  0  0  0  0  0  0  0  0  0
   -1.1532    2.0093   -0.7935 O   0  0  0  0  0  0  0  0  0  0  0  0
   -0.7785    2.4167    0.4871 C   0  0  0  0  0  0  0  0  0  0  0  0
    0.5536    2.1260    0.7828 O   0  0  0  0  0  0  0  0  0  0  0  0
    0.7982    0.7336    0.7297 C   0  0  0  0  0  0  0  0  0  0  0  0
    1.0840    0.5782   -1.3934 H   0  0  0  0  0  0  0  0  0  0  0  0
   -1.2959    0.3777   -1.9734 H   0  0  0  0  0  0  0  0  0  0  0  0
   -1.7212    0.0964   -0.2741 H   0  0  0  0  0  0  0  0  0  0  0  0
   -1.4346    1.9321    1.2334 H   0  0  0  0  0  0  0  0  0  0  0  0
   -0.8905    3.4979    0.5283 H   0  0  0  0  0  0  0  0  0  0  0  0
    0.2214    0.2292    1.5201 H   0  0  0  0  0  0  0  0  0  0  0  0
    1.8578    0.5933    0.9394 H   0  0  0  0  0  0  0  0  0  0  0  0
  1  2  1  0
  1  4  1  0
  1  5  1  0
  2  3  2  0
  6  7  1  0
  6 11  1  0
  6 12  1  0
  7  8  1  0
  7 13  1  0
  7 14  1  0
  8  9  1  0
  9 10  1  0
  9 15  1  0
  9 16  1  0
 10 11  1  0
 11 17  1  0
 11 18  1  0
M  RAD  1   6   2
M  END
>  <reaction>  (15) 
rmg_rxn_1480

>  <mol_properties>  (15) 
{"0": {"label": "*1", "atom_type": "N3s"}, "1": {"label": "*0", "atom_type": "N3d"}, "3": {"label": "*2", "atom_type": "H0"}, "5": {"label": "*3", "atom_type": "Cs"}, "6": {"label": "*4", "atom_type": "Cs"}}

>  <type>  (15) 
unop_11

>  <geom_source>  (15) 
Heuristics

$$$$

     RDKit          3D

 18 17  0  0  0  0  0  0  0  0999 V2000
    1.5055    0.5504   -0.5106 N   0  0  0  0  0  0  0  0  0  0  0  0
    2.6903    0.1713   -0.6019 N   0  0  0  0  0  0  0  0  0  0  0  0
    3.3706   -0.2747    0.2899 O   0  0  0  0  0  0  0  0  0  0  0  0
    0.6909    0.3451    0.3916 H   0  0  0  0  0  0  0  0  0  0  0  0
    1.0738    0.8402   -1.3825 H   0  0  0  0  0  0  0  0  0  0  0  0
   -0.3090    0.0918    1.1907 C   0  0  0  0  0  3  0  0  0  0  0  0
   -1.3417    1.1532    0.8642 C   0  0  0  0  0  0  0  0  0  0  0  0
   -1.7322    1.0502   -0.4980 O   0  0  0  0  0  0  0  0  0  0  0  0
   -2.2061   -0.2309   -0.7865 C   0  0  0  0  0  0  0  0  0  0  0  0
   -1.2517   -1.2285   -0.5902 O   0  0  0  0  0  0  0  0  0  0  0  0
   -0.8235   -1.2694    0.7634 C   0  0  0  0  0  0  0  0  0  0  0  0
    0.0328    0.1204    2.2204 H   0  0  0  0  0  0  0  0  0  0  0  0
   -2.2343    1.0392    1.5061 H   0  0  0  0  0  0  0  0  0  0  0  0
   -0.9471    2.1631    0.9893 H   0  0  0  0  0  0  0  0  0  0  0  0
   -2.4668   -0.2432   -1.8469 H   0  0  0  0  0  0  0  0  0  0  0  0
   -3.1060   -0.4444   -0.1716 H   0  0  0  0  0  0  0  0  0  0  0  0
   -0.0463   -2.0343    0.8108 H   0  0  0  0  0  0  0  0  0  0  0  0
   -1.6694   -1.5835    1.4020 H   0  0  0  0  0  0  0  0  0  0  0  0
  1  2  1  0
  1  4  1  0
  1  5  1  0
  2  3  2  0
  6  7  1  0
  6 11  1  0
  6 12  1  0
  7  8  1  0
  7 13  1  0
  7 14  1  0
  8  9  1  0
  9 10  1  0
  9 15  1  0
  9 16  1  0
 10 11  1  0
 11 17  1  0
 11 18  1  0
M  RAD  1   6   2
M  END
>  <reaction>  (16) 
rmg_rxn_1480

>  <mol_properties>  (16) 
{"0": {"label": "*1", "atom_type": "N3s"}, "1": {"label": "*0", "atom_type": "N3d"}, "3": {"label": "*2", "atom_type": "H0"}, "5": {"label": "*3", "atom_type": "Cs"}, "6": {"label": "*4", "atom_type": "Cs"}}

>  <type>  (16) 
unop_12

>  <geom_source>  (16) 
Heuristics

$$$$

     RDKit          3D

 18 17  0  0  0  0  0  0  0  0999 V2000
    0.0763   -1.6406    2.0202 N   0  0  0  0  0  0  0  0  0  0  0  0
    0.0763   -2.8434    1.4755 N   0  0  0  0  0  0  0  0  0  0  0  0
    0.0763   -2.8434    0.2710 O   0  0  0  0  0  0  0  0  0  0  0  0
    0.0763   -0.6579    1.3050 H   0  0  0  0  0  0  0  0  0  0  0  0
    0.0763   -1.5942    3.0223 H   0  0  0  0  0  0  0  0  0  0  0  0
    0.0763    0.4019    0.5336 C   0  0  0  0  0  3  0  0  0  0  0  0
    0.7893    0.1053   -0.7780 C   0  0  0  0  0  0  0  0  0  0  0  0
    1.0248    1.3038   -1.4919 O   0  0  0  0  0  0  0  0  0  0  0  0
   -0.1630    2.0005   -1.7157 C   0  0  0  0  0  0  0  0  0  0  0  0
   -0.8043    2.3764   -0.5351 O   0  0  0  0  0  0  0  0  0  0  0  0
   -1.1557    1.2459    0.2395 C   0  0  0  0  0  0  0  0  0  0  0  0
    0.7464    0.9556    1.1940 H   0  0  0  0  0  0  0  0  0  0  0  0
    1.7608   -0.3600   -0.6173 H   0  0  0  0  0  0  0  0  0  0  0  0
    0.1796   -0.5744   -1.3929 H   0  0  0  0  0  0  0  0  0  0  0  0
   -0.8457    1.3774   -2.3222 H   0  0  0  0  0  0  0  0  0  0  0  0
    0.0930    2.9131   -2.2494 H   0  0  0  0  0  0  0  0  0  0  0  0
   -1.9022    0.6464   -0.3038 H   0  0  0  0  0  0  0  0  0  0  0  0
   -1.6189    1.6219    1.1507 H   0  0  0  0  0  0  0  0  0  0  0  0
  1  2  1  0
  1  4  1  0
  1  5  1  0
  2  3  2  0
  6  7  1  0
  6 11  1  0
  6 12  1  0
  7  8  1  0
  7 13  1  0
  7 14  1  0
  8  9  1  0
  9 10  1  0
  9 15  1  0
  9 16  1  0
 10 11  1  0
 11 17  1  0
 11 18  1  0
M  RAD  1   6   2
M  END
>  <reaction>  (17) 
rmg_rxn_1480

>  <mol_properties>  (17) 
{"0": {"label": "*1", "atom_type": "N3s"}, "1": {"label": "*0", "atom_type": "N3d"}, "3": {"label": "*2", "atom_type": "H0"}, "5": {"label": "*3", "atom_type": "Cs"}, "6": {"label": "*4", "atom_type": "Cs"}}

>  <type>  (17) 
unop_13

>  <geom_source>  (17) 
Heuristics

$$$$

     RDKit          3D

 18 17  0  0  0  0  0  0  0  0999 V2000
    0.6936   -1.7470    1.1700 N   0  0  0  0  0  0  0  0  0  0  0  0
    0.6936   -2.9498    0.6253 N   0  0  0  0  0  0  0  0  0  0  0  0
    0.6936   -2.9498   -0.5792 O   0  0  0  0  0  0  0  0  0  0  0  0
    0.6936   -0.7643    0.4548 H   0  0  0  0  0  0  0  0  0  0  0  0
    0.6936   -1.7006    2.1721 H   0  0  0  0  0  0  0  0  0  0  0  0
    0.6936    0.2955   -0.3166 C   0  0  0  0  0  3  0  0  0  0  0  0
   -0.5414    0.3061   -1.2062 C   0  0  0  0  0  0  0  0  0  0  0  0
   -1.0341    1.6246   -1.3483 O   0  0  0  0  0  0  0  0  0  0  0  0
   -1.3083    2.1983   -0.1065 C   0  0  0  0  0  0  0  0  0  0  0  0
   -0.1806    2.2955    0.7091 O   0  0  0  0  0  0  0  0  0  0  0  0
    0.3662    1.0195    0.9816 C   0  0  0  0  0  0  0  0  0  0  0  0
    1.5109    0.8116   -0.8239 H   0  0  0  0  0  0  0  0  0  0  0  0
   -0.3237   -0.0572   -2.2096 H   0  0  0  0  0  0  0  0  0  0  0  0
   -1.3246   -0.3335   -0.7711 H   0  0  0  0  0  0  0  0  0  0  0  0
   -2.0846    1.6039    0.4093 H   0  0  0  0  0  0  0  0  0  0  0  0
   -1.6636    3.2101   -0.2891 H   0  0  0  0  0  0  0  0  0  0  0  0
   -0.3531    0.4301    1.5706 H   0  0  0  0  0  0  0  0  0  0  0  0
    1.2534    1.1825    1.5920 H   0  0  0  0  0  0  0  0  0  0  0  0
  1  2  1  0
  1  4  1  0
  1  5  1  0
  2  3  2  0
  6  7  1  0
  6 11  1  0
  6 12  1  0
  7  8  1  0
  7 13  1  0
  7 14  1  0
  8  9  1  0
  9 10  1  0
  9 15  1  0
  9 16  1  0
 10 11  1  0
 11 17  1  0
 11 18  1  0
M  RAD  1   6   2
M  END
>  <reaction>  (18) 
rmg_rxn_1480

>  <mol_properties>  (18) 
{"0": {"label": "*1", "atom_type": "N3s"}, "1": {"label": "*0", "atom_type": "N3d"}, "3": {"label": "*2", "atom_type": "H0"}, "5": {"label": "*3", "atom_type": "Cs"}, "6": {"label": "*4", "atom_type": "Cs"}}

>  <type>  (18) 
unop_14

>  <geom_source>  (18) 
Heuristics

$$$$

     RDKit          3D

 18 17  0  0  0  0  0  0  0  0999 V2000
   -0.1676   -1.9223    1.6743 N   0  0  0  0  0  0  0  0  0  0  0  0
   -0.1676   -3.1251    1.1295 N   0  0  0  0  0  0  0  0  0  0  0  0
   -0.1676   -3.1251   -0.0750 O   0  0  0  0  0  0  0  0  0  0  0  0
   -0.1676   -0.9397    0.9591 H   0  0  0  0  0  0  0  0  0  0  0  0
   -0.1676   -1.8759    2.6764 H   0  0  0  0  0  0  0  0  0  0  0  0
   -0.1676    0.1201    0.1877 C   0  0  0  0  0  3  0  0  0  0  0  0
    0.5454    1.2771    0.8730 C   0  0  0  0  0  0  0  0  0  0  0  0
    0.1315    2.5097    0.3157 O   0  0  0  0  0  0  0  0  0  0  0  0
    0.3446    2.5381   -1.0628 C   0  0  0  0  0  0  0  0  0  0  0  0
   -0.3670    1.5501   -1.7440 O   0  0  0  0  0  0  0  0  0  0  0  0
    0.0154    0.2567   -1.3171 C   0  0  0  0  0  0  0  0  0  0  0  0
   -1.2317    0.1556    0.4287 H   0  0  0  0  0  0  0  0  0  0  0  0
    0.3186    1.3223    1.9373 H   0  0  0  0  0  0  0  0  0  0  0  0
    1.6349    1.1696    0.7577 H   0  0  0  0  0  0  0  0  0  0  0  0
    1.4243    2.4220   -1.2700 H   0  0  0  0  0  0  0  0  0  0  0  0
   -0.0102    3.5003   -1.4252 H   0  0  0  0  0  0  0  0  0  0  0  0
    1.0676    0.0774   -1.5865 H   0  0  0  0  0  0  0  0  0  0  0  0
   -0.6025   -0.4508   -1.8684 H   0  0  0  0  0  0  0  0  0  0  0  0
  1  2  1  0
  1  4  1  0
  1  5  1  0
  2  3  2  0
  6  7  1  0
  6 11  1  0
  6 12  1  0
  7  8  1  0
  7 13  1  0
  7 14  1  0
  8  9  1  0
  9 10  1  0
  9 15  1  0
  9 16  1  0
 10 11  1  0
 11 17  1  0
 11 18  1  0
M  RAD  1   6   2
M  END
>  <reaction>  (19) 
rmg_rxn_1480

>  <mol_properties>  (19) 
{"0": {"label": "*1", "atom_type": "N3s"}, "1": {"label": "*0", "atom_type": "N3d"}, "3": {"label": "*2", "atom_type": "H0"}, "5": {"label": "*3", "atom_type": "Cs"}, "6": {"label": "*4", "atom_type": "Cs"}}

>  <type>  (19) 
unop_15

>  <geom_source>  (19) 
Heuristics

$$$$

     RDKit          3D

 18 17  0  0  0  0  0  0  0  0999 V2000
    0.4481   -1.5848    1.9287 N   0  0  0  0  0  0  0  0  0  0  0  0
    0.4481   -2.7876    1.3839 N   0  0  0  0  0  0  0  0  0  0  0  0
    0.4481   -2.7876    0.1794 O   0  0  0  0  0  0  0  0  0  0  0  0
    0.4481   -0.6022    1.2135 H   0  0  0  0  0  0  0  0  0  0  0  0
    0.4481   -1.5385    2.9308 H   0  0  0  0  0  0  0  0  0  0  0  0
    0.4481    0.4576    0.4421 C   0  0  0  0  0  3  0  0  0  0  0  0
    0.4481    0.0487   -1.0240 C   0  0  0  0  0  0  0  0  0  0  0  0
    0.2996    1.1860   -1.8521 O   0  0  0  0  0  0  0  0  0  0  0  0
   -0.8575    1.8966   -1.5320 C   0  0  0  0  0  0  0  0  0  0  0  0
   -0.8582    2.3733   -0.2208 O   0  0  0  0  0  0  0  0  0  0  0  0
   -0.7830    1.3112    0.7107 C   0  0  0  0  0  0  0  0  0  0  0  0
    1.3469    1.0390    0.6568 H   0  0  0  0  0  0  0  0  0  0  0  0
    1.3827   -0.4300   -1.3133 H   0  0  0  0  0  0  0  0  0  0  0  0
   -0.3743   -0.6568   -1.2183 H   0  0  0  0  0  0  0  0  0  0  0  0
   -1.7407    1.2502   -1.6882 H   0  0  0  0  0  0  0  0  0  0  0  0
   -0.8986    2.7613   -2.1905 H   0  0  0  0  0  0  0  0  0  0  0  0
   -1.6921    0.6946    0.6385 H   0  0  0  0  0  0  0  0  0  0  0  0
   -0.7566    1.7640    1.7009 H   0  0  0  0  0  0  0  0  0  0  0  0
  1  2  1  0
  1  4  1  0
  1  5  1  0
  2  3  2  0
  6  7  1  0
  6 11  1  0
  6 12  1  0
  7  8  1  0
  7 13  1  0
  7 14  1  0
  8  9  1  0
  9 10  1  0
  9 15  1  0
  9 16  1  0
 10 11  1  0
 11 17  1  0
 11 18  1  0
M  RAD  1   6   2
M  END
>  <reaction>  (20) 
rmg_rxn_1480

>  <mol_properties>  (20) 
{"0": {"label": "*1", "atom_type": "N3s"}, "1": {"label": "*0", "atom_type": "N3d"}, "3": {"label": "*2", "atom_type": "H0"}, "5": {"label": "*3", "atom_type": "Cs"}, "6": {"label": "*4", "atom_type": "Cs"}}

>  <type>  (20) 
unop_16

>  <geom_source>  (20) 
Heuristics

$$$$

     RDKit          3D

 18 17  0  0  0  0  0  0  0  0999 V2000
    0.7102   -1.6309    1.5905 N   0  0  0  0  0  0  0  0  0  0  0  0
    0.7102   -2.8337    1.0457 N   0  0  0  0  0  0  0  0  0  0  0  0
    0.7102   -2.8337   -0.1588 O   0  0  0  0  0  0  0  0  0  0  0  0
    0.7102   -0.6482    0.8753 H   0  0  0  0  0  0  0  0  0  0  0  0
    0.7102   -1.5845    2.5926 H   0  0  0  0  0  0  0  0  0  0  0  0
    0.7102    0.4116    0.1039 C   0  0  0  0  0  3  0  0  0  0  0  0
   -0.0028    0.1150   -1.2077 C   0  0  0  0  0  0  0  0  0  0  0  0
   -0.4991    1.3102   -1.7792 O   0  0  0  0  0  0  0  0  0  0  0  0
   -1.3420    1.9820   -0.8934 C   0  0  0  0  0  0  0  0  0  0  0  0
   -0.7019    2.3578    0.2879 O   0  0  0  0  0  0  0  0  0  0  0  0
   -0.2185    1.2290    0.9904 C   0  0  0  0  0  0  0  0  0  0  0  0
    1.6173    0.9847   -0.0975 H   0  0  0  0  0  0  0  0  0  0  0  0
    0.6659   -0.3301   -1.9432 H   0  0  0  0  0  0  0  0  0  0  0  0
   -0.8365   -0.5825   -1.0339 H   0  0  0  0  0  0  0  0  0  0  0  0
   -2.2092    1.3398   -0.6531 H   0  0  0  0  0  0  0  0  0  0  0  0
   -1.6701    2.8937   -1.3877 H   0  0  0  0  0  0  0  0  0  0  0  0
   -1.0674    0.6098    1.3188 H   0  0  0  0  0  0  0  0  0  0  0  0
    0.2910    1.6056    1.8763 H   0  0  0  0  0  0  0  0  0  0  0  0
  1  2  1  0
  1  4  1  0
  1  5  1  0
  2  3  2  0
  6  7  1  0
  6 11  1  0
  6 12  1  0
  7  8  1  0
  7 13  1  0
  7 14  1  0
  8  9  1  0
  9 10  1  0
  9 15  1  0
  9 16  1  0
 10 11  1  0
 11 17  1  0
 11 18  1  0
M  RAD  1   6   2
M  END
>  <reaction>  (21) 
rmg_rxn_1480

>  <mol_properties>  (21) 
{"0": {"label": "*1", "atom_type": "N3s"}, "1": {"label": "*0", "atom_type": "N3d"}, "3": {"label": "*2", "atom_type": "H0"}, "5": {"label": "*3", "atom_type": "Cs"}, "6": {"label": "*4", "atom_type": "Cs"}}

>  <type>  (21) 
unop_17

>  <geom_source>  (21) 
gaussian_log

$$$$
