
     RDKit          3D

  9  8  0  0  0  0  0  0  0  0999 V2000
   -1.5470   -0.0755   -0.1976 C   0  0  0  0  0  0  0  0  0  0  0  0
   -0.2885    0.4507    0.1749 O   0  0  0  0  0  0  0  0  0  0  0  0
   -0.1502    1.7216   -0.3294 N   0  0  0  0  0  0  0  0  0  0  0  0
    0.9626    2.2353   -0.0219 C   0  0  0  0  0  0  0  0  0  0  0  0
   -1.6392   -0.1356   -1.2844 H   0  0  0  0  0  0  0  0  0  0  0  0
   -2.3597    0.5337    0.2044 H   0  0  0  0  0  0  0  0  0  0  0  0
   -1.5879   -1.0750    0.2318 H   0  0  0  0  0  0  0  0  0  0  0  0
    1.1497    3.2381   -0.3820 H   0  0  0  0  0  0  0  0  0  0  0  0
    1.7060    1.7101    0.5739 H   0  0  0  0  0  0  0  0  0  0  0  0
  1  2  1  0
  1  5  1  0
  1  6  1  0
  1  7  1  0
  2  3  1  0
  3  4  2  3
  4  8  1  0
  4  9  1  0
M  END
>  <reaction>  (1) 
rmg_rxn_15595

>  <mol_properties>  (1) 
{"0": {"label": "donator", "atom_type": "Cs"}, "4": {"label": "d_hydrogen", "atom_type": "H0"}}

>  <type>  (1) 
r1h

$$$$

     RDKit          3D

  1  0  0  0  0  0  0  0  0  0999 V2000
    0.0000    0.0000    0.0000 H   0  0  0  0  0 15  0  0  0  0  0  0
M  END
>  <reaction>  (2) 
rmg_rxn_15595

>  <mol_properties>  (2) 
{"0": {"label": "acceptor", "atom_type": "H0"}}

>  <type>  (2) 
r2

$$$$

     RDKit          3D

  2  1  0  0  0  0  0  0  0  0999 V2000
    0.0000    0.0000    0.3721 H   0  0  0  0  0  0  0  0  0  0  0  0
    0.0000    0.0000   -0.3721 H   0  0  0  0  0  0  0  0  0  0  0  0
  1  2  1  0
M  END
>  <reaction>  (3) 
rmg_rxn_15595

>  <mol_properties>  (3) 
{"0": {"label": "acceptor", "atom_type": "H0"}, "1": {"label": "a_hydrogen", "atom_type": "H0"}}

>  <type>  (3) 
r2h

$$$$

     RDKit          3D

 10  8  0  0  0  0  0  0  0  0999 V2000
    2.1878    1.1594   -1.7707 H   0  0  0  0  0 15  0  0  0  0  0  0
    1.6411    0.0635    0.1606 C   0  0  0  0  0  0  0  0  0  0  0  0
    0.3909   -0.4994    0.0001 O   0  0  0  0  0  0  0  0  0  0  0  0
   -0.5961    0.4607    0.1272 N   0  0  0  0  0  0  0  0  0  0  0  0
   -1.7395   -0.0175   -0.1154 C   0  0  0  0  0  0  0  0  0  0  0  0
    1.9733    0.6892   -0.9212 H   0  0  0  0  0  0  0  0  0  0  0  0
    2.3689   -0.7364    0.2673 H   0  0  0  0  0  0  0  0  0  0  0  0
    1.6793    0.8208    0.9425 H   0  0  0  0  0  0  0  0  0  0  0  0
   -2.5747    0.6644   -0.0275 H   0  0  0  0  0  0  0  0  0  0  0  0
   -1.8947   -1.0559   -0.3985 H   0  0  0  0  0  0  0  0  0  0  0  0
  2  3  1  0
  2  6  1  0
  2  7  1  0
  2  8  1  0
  3  4  1  0
  4  5  2  3
  5  9  1  0
  5 10  1  0
M  END
>  <reaction>  (4) 
rmg_rxn_15595

>  <mol_properties>  (4) 
{"0": {"label": "*1", "atom_type": "H0"}, "1": {"label": "*3", "atom_type": "Cs"}, "2": {"label": "*4", "atom_type": "O2s"}, "5": {"label": "*2", "atom_type": "H0"}}

>  <type>  (4) 
ts

$$$$

     RDKit          3D

 10  8  0  0  0  0  0  0  0  0999 V2000
    2.3087    1.1311   -1.7678 H   0  0  0  0  0 15  0  0  0  0  0  0
    1.6486    0.0824    0.1506 C   0  0  0  0  0  0  0  0  0  0  0  0
    0.4118   -0.4827   -0.0649 O   0  0  0  0  0  0  0  0  0  0  0  0
   -0.6269    0.3994    0.1605 N   0  0  0  0  0  0  0  0  0  0  0  0
   -1.7837   -0.0384   -0.0928 C   0  0  0  0  0  0  0  0  0  0  0  0
    2.0577    0.6941   -0.9660 H   0  0  0  0  0  0  0  0  0  0  0  0
    2.3674   -0.7100    0.3271 H   0  0  0  0  0  0  0  0  0  0  0  0
    1.6461    0.8709    0.8988 H   0  0  0  0  0  0  0  0  0  0  0  0
   -2.6002    0.6373    0.0876 H   0  0  0  0  0  0  0  0  0  0  0  0
   -1.9930   -1.0352   -0.4688 H   0  0  0  0  0  0  0  0  0  0  0  0
  2  3  1  0
  2  6  1  0
  2  7  1  0
  2  8  1  0
  3  4  1  0
  4  5  2  3
  5  9  1  0
  5 10  1  0
M  END
>  <reaction>  (5) 
rmg_rxn_15595

>  <mol_properties>  (5) 
{"0": {"label": "*1", "atom_type": "H0"}, "1": {"label": "*3", "atom_type": "Cs"}, "2": {"label": "*4", "atom_type": "O2s"}, "5": {"label": "*2", "atom_type": "H0"}}

>  <type>  (5) 
unop_1

>  <geom_source>  (5) 
crest_best.xyz

$$$$

     RDKit          3D

 10  8  0  0  0  0  0  0  0  0999 V2000
    2.3087    1.1311   -1.7678 H   0  0  0  0  0 15  0  0  0  0  0  0
    1.6486    0.0824    0.1506 C   0  0  0  0  0  0  0  0  0  0  0  0
    0.4118   -0.4827   -0.0649 O   0  0  0  0  0  0  0  0  0  0  0  0
   -0.6269    0.3994    0.1605 N   0  0  0  0  0  0  0  0  0  0  0  0
   -1.7837   -0.0384   -0.0928 C   0  0  0  0  0  0  0  0  0  0  0  0
    2.0577    0.6941   -0.9660 H   0  0  0  0  0  0  0  0  0  0  0  0
    2.3674   -0.7100    0.3271 H   0  0  0  0  0  0  0  0  0  0  0  0
    1.6461    0.8709    0.8988 H   0  0  0  0  0  0  0  0  0  0  0  0
   -2.6002    0.6373    0.0876 H   0  0  0  0  0  0  0  0  0  0  0  0
   -1.9930   -1.0352   -0.4688 H   0  0  0  0  0  0  0  0  0  0  0  0
  2  3  1  0
  2  6  1  0
  2  7  1  0
  2  8  1  0
  3  4  1  0
  4  5  2  3
  5  9  1  0
  5 10  1  0
M  END
>  <reaction>  (6) 
rmg_rxn_15595

>  <mol_properties>  (6) 
{"0": {"label": "*1", "atom_type": "H0"}, "1": {"label": "*3", "atom_type": "Cs"}, "2": {"label": "*4", "atom_type": "O2s"}, "5": {"label": "*2", "atom_type": "H0"}}

>  <type>  (6) 
unop_2

>  <geom_source>  (6) 
Heuristics

$$$$

     RDKit          3D

 10  8  0  0  0  0  0  0  0  0999 V2000
    1.7667   -0.4577    2.3041 H   0  0  0  0  0 15  0  0  0  0  0  0
   -0.0332    0.5716    1.5574 C   0  0  0  0  0  0  0  0  0  0  0  0
   -0.0332    0.6295    0.1445 O   0  0  0  0  0  0  0  0  0  0  0  0
   -0.0332   -0.6444   -0.3712 N   0  0  0  0  0  0  0  0  0  0  0  0
   -0.0332   -0.6444   -1.6349 C   0  0  0  0  0  0  0  0  0  0  0  0
    1.0374   -0.0406    2.0015 H   0  0  0  0  0  0  0  0  0  0  0  0
   -0.9253    0.0614    1.9275 H   0  0  0  0  0  0  0  0  0  0  0  0
   -0.0332    1.6065    1.8952 H   0  0  0  0  0  0  0  0  0  0  0  0
   -0.0332   -1.6115   -2.1197 H   0  0  0  0  0  0  0  0  0  0  0  0
   -0.0332    0.2721   -2.2210 H   0  0  0  0  0  0  0  0  0  0  0  0
  2  3  1  0
  2  6  1  0
  2  7  1  0
  2  8  1  0
  3  4  1  0
  4  5  2  3
  5  9  1  0
  5 10  1  0
M  END
>  <reaction>  (7) 
rmg_rxn_15595

>  <mol_properties>  (7) 
{"0": {"label": "*1", "atom_type": "H0"}, "1": {"label": "*3", "atom_type": "Cs"}, "2": {"label": "*4", "atom_type": "O2s"}, "5": {"label": "*2", "atom_type": "H0"}}

>  <type>  (7) 
unop_3

>  <geom_source>  (7) 
Heuristics

$$$$

     RDKit          3D

 10  8  0  0  0  0  0  0  0  0999 V2000
    0.1361   -0.2538    0.4569 O   0  0  0  0  0  0  0  0  0  0  0  0
   -0.8679   -0.0999   -0.4709 N   0  0  0  0  0  0  0  0  0  0  0  0
    1.4816   -0.3873    0.0344 C   0  0  0  0  0  0  0  0  0  0  0  0
   -2.0975    0.0214   -0.0931 C   0  0  0  0  0  0  0  0  0  0  0  0
   -2.3555    0.0037    0.9584 H   0  0  0  0  0  0  0  0  0  0  0  0
   -2.8778    0.1418   -0.8319 H   0  0  0  0  0  0  0  0  0  0  0  0
    1.5951   -1.3107   -0.5713 H   0  0  0  0  0  0  0  0  0  0  0  0
    2.1426   -0.4489    0.9232 H   0  0  0  0  0  0  0  0  0  0  0  0
    1.1622    1.7528   -0.2378 H   0  0  0  0  0 15  0  0  0  0  0  0
    1.6811    0.5809   -0.1680 H   0  0  0  0  0  0  0  0  0  0  0  0
  1  3  1  0
  1  2  1  0
  2  4  2  3
  3  7  1  0
  3  8  1  0
  3 10  1  0
  4  5  1  0
  4  6  1  0
M  END
>  <reaction>  (8) 
rmg_rxn_15595

>  <mol_properties>  (8) 
{"0": {"label": "*1", "atom_type": "H0"}, "1": {"label": "*3", "atom_type": "Cs"}, "2": {"label": "*4", "atom_type": "O2s"}, "5": {"label": "*2", "atom_type": "H0"}}

>  <type>  (8) 
unop_4

>  <geom_source>  (8) 
AutoTST

$$$$

     RDKit          3D

 10  8  0  0  0  0  0  0  0  0999 V2000
    2.3087    1.1311   -1.7678 H   0  0  0  0  0 15  0  0  0  0  0  0
    1.6485    0.0824    0.1506 C   0  0  0  0  0  0  0  0  0  0  0  0
    0.4118   -0.4827   -0.0649 O   0  0  0  0  0  0  0  0  0  0  0  0
   -0.6269    0.3993    0.1605 N   0  0  0  0  0  0  0  0  0  0  0  0
   -1.7837   -0.0384   -0.0928 C   0  0  0  0  0  0  0  0  0  0  0  0
    2.0577    0.6941   -0.9660 H   0  0  0  0  0  0  0  0  0  0  0  0
    2.3674   -0.7100    0.3271 H   0  0  0  0  0  0  0  0  0  0  0  0
    1.6461    0.8709    0.8988 H   0  0  0  0  0  0  0  0  0  0  0  0
   -2.6002    0.6373    0.0876 H   0  0  0  0  0  0  0  0  0  0  0  0
   -1.9930   -1.0352   -0.4688 H   0  0  0  0  0  0  0  0  0  0  0  0
  2  3  1  0
  2  6  1  0
  2  7  1  0
  2  8  1  0
  3  4  1  0
  4  5  2  3
  5  9  1  0
  5 10  1  0
M  END
>  <reaction>  (9) 
rmg_rxn_15595

>  <mol_properties>  (9) 
{"0": {"label": "*1", "atom_type": "H0"}, "1": {"label": "*3", "atom_type": "Cs"}, "2": {"label": "*4", "atom_type": "O2s"}, "5": {"label": "*2", "atom_type": "H0"}}

>  <type>  (9) 
unop_5

>  <geom_source>  (9) 
gaussian_log

$$$$
