
     RDKit          3D

  8  7  0  0  0  0  0  0  0  0999 V2000
    0.9548    0.1194   -0.0790 C   0  0  0  0  0  0  0  0  0  0  0  0
   -0.4838   -0.2649    0.0193 C   0  0  0  0  0  0  0  0  0  0  0  0
   -0.8933   -1.1081    0.8664 N   0  0  0  0  0  0  0  0  0  0  0  0
    1.3360   -0.0983   -1.0800 H   0  0  0  0  0  0  0  0  0  0  0  0
    1.0698    1.1948    0.0786 H   0  0  0  0  0  0  0  0  0  0  0  0
    1.5426   -0.4219    0.6602 H   0  0  0  0  0  0  0  0  0  0  0  0
   -1.1575    0.2324   -0.6905 H   0  0  0  0  0  0  0  0  0  0  0  0
   -1.8989   -1.2455    0.7886 H   0  0  0  0  0  0  0  0  0  0  0  0
  1  2  1  0
  1  4  1  0
  1  5  1  0
  1  6  1  0
  2  3  2  3
  2  7  1  0
  3  8  1  0
M  END
>  <reaction>  (1) 
rmg_rxn_16547

>  <mol_properties>  (1) 
{"1": {"label": "donator", "atom_type": "Cd"}, "6": {"label": "d_hydrogen", "atom_type": "H0"}}

>  <type>  (1) 
r1h

$$$$

     RDKit          3D

 17 16  0  0  0  0  0  0  0  0999 V2000
    2.3128   -0.1525    1.1776 C   0  0  0  0  0  3  0  0  0  0  0  0
    1.7469    0.7266    0.1254 C   0  0  0  0  0  0  0  0  0  0  0  0
    1.6374    2.1830    0.5408 C   0  0  0  0  0  0  0  0  0  0  0  0
    2.9244    2.6874    0.7877 O   0  0  0  0  0  0  0  0  0  0  0  0
    2.9227    4.0197    1.2361 C   0  0  0  0  0  0  0  0  0  0  0  0
    4.3491    4.4603    1.4693 C   0  0  0  0  0  0  0  0  0  0  0  0
    2.1394   -1.2196    1.1556 H   0  0  0  0  0  0  0  0  0  0  0  0
    3.0314    0.2400    1.8837 H   0  0  0  0  0  0  0  0  0  0  0  0
    0.7555    0.3746   -0.1763 H   0  0  0  0  0  0  0  0  0  0  0  0
    2.3677    0.6841   -0.7826 H   0  0  0  0  0  0  0  0  0  0  0  0
    1.0170    2.2718    1.4450 H   0  0  0  0  0  0  0  0  0  0  0  0
    1.1498    2.7653   -0.2545 H   0  0  0  0  0  0  0  0  0  0  0  0
    2.4378    4.6655    0.4892 H   0  0  0  0  0  0  0  0  0  0  0  0
    2.3377    4.1014    2.1639 H   0  0  0  0  0  0  0  0  0  0  0  0
    4.9260    4.3921    0.5464 H   0  0  0  0  0  0  0  0  0  0  0  0
    4.3728    5.4939    1.8180 H   0  0  0  0  0  0  0  0  0  0  0  0
    4.8260    3.8299    2.2206 H   0  0  0  0  0  0  0  0  0  0  0  0
  1  2  1  0
  1  7  1  0
  1  8  1  0
  2  3  1  0
  2  9  1  0
  2 10  1  0
  3  4  1  0
  3 11  1  0
  3 12  1  0
  4  5  1  0
  5  6  1  0
  5 13  1  0
  5 14  1  0
  6 15  1  0
  6 16  1  0
  6 17  1  0
M  RAD  1   1   2
M  END
>  <reaction>  (2) 
rmg_rxn_16547

>  <mol_properties>  (2) 
{"0": {"label": "acceptor", "atom_type": "Cs"}}

>  <type>  (2) 
r2

$$$$

     RDKit          3D

 18 17  0  0  0  0  0  0  0  0999 V2000
    2.2026   -0.7213   -0.2612 C   0  0  0  0  0  0  0  0  0  0  0  0
    1.5384    0.2638    0.6915 C   0  0  0  0  0  0  0  0  0  0  0  0
    2.2584    1.5946    0.7694 C   0  0  0  0  0  0  0  0  0  0  0  0
    2.2212    2.2185   -0.4893 O   0  0  0  0  0  0  0  0  0  0  0  0
    2.8988    3.4488   -0.5204 C   0  0  0  0  0  0  0  0  0  0  0  0
    2.7981    4.0296   -1.9118 C   0  0  0  0  0  0  0  0  0  0  0  0
    3.2294   -0.9309    0.0486 H   0  0  0  0  0  0  0  0  0  0  0  0
    2.2338   -0.3181   -1.2734 H   0  0  0  0  0  0  0  0  0  0  0  0
    1.6610   -1.6680   -0.2875 H   0  0  0  0  0  0  0  0  0  0  0  0
    1.4990   -0.1566    1.7002 H   0  0  0  0  0  0  0  0  0  0  0  0
    0.5055    0.4455    0.3835 H   0  0  0  0  0  0  0  0  0  0  0  0
    3.3038    1.4410    1.0808 H   0  0  0  0  0  0  0  0  0  0  0  0
    1.7844    2.2410    1.5226 H   0  0  0  0  0  0  0  0  0  0  0  0
    2.4596    4.1376    0.2164 H   0  0  0  0  0  0  0  0  0  0  0  0
    3.9524    3.3035   -0.2397 H   0  0  0  0  0  0  0  0  0  0  0  0
    1.7543    4.1869   -2.1856 H   0  0  0  0  0  0  0  0  0  0  0  0
    3.2472    3.3545   -2.6411 H   0  0  0  0  0  0  0  0  0  0  0  0
    3.3178    4.9878   -1.9600 H   0  0  0  0  0  0  0  0  0  0  0  0
  1  2  1  0
  1  7  1  0
  1  8  1  0
  1  9  1  0
  2  3  1  0
  2 10  1  0
  2 11  1  0
  3  4  1  0
  3 12  1  0
  3 13  1  0
  4  5  1  0
  5  6  1  0
  5 14  1  0
  5 15  1  0
  6 16  1  0
  6 17  1  0
  6 18  1  0
M  END
>  <reaction>  (3) 
rmg_rxn_16547

>  <mol_properties>  (3) 
{"0": {"label": "a_hydrogen", "atom_type": "H0"}, "1": {"label": "acceptor", "atom_type": "Cs"}}

>  <type>  (3) 
r2h

$$$$

     RDKit          3D

 25 23  0  0  0  0  0  0  0  0999 V2000
   -3.0616   -0.7988    0.7162 C   0  0  0  0  0  0  0  0  0  0  0  0
   -1.8313   -0.5871   -0.0980 C   0  0  0  0  0  0  0  0  0  0  0  0
   -1.2894   -1.4374   -0.8342 N   0  0  0  0  0  0  0  0  0  0  0  0
   -3.8323   -0.0860    0.4144 H   0  0  0  0  0  0  0  0  0  0  0  0
   -3.4368   -1.8157    0.5953 H   0  0  0  0  0  0  0  0  0  0  0  0
   -2.8467   -0.6104    1.7705 H   0  0  0  0  0  0  0  0  0  0  0  0
   -1.3628    0.6358   -0.0421 H   0  0  0  0  0  0  0  0  0  0  0  0
   -0.4507   -1.0625   -1.2808 H   0  0  0  0  0  0  0  0  0  0  0  0
   -0.9668    1.9844   -0.0983 C   0  0  0  0  0  3  0  0  0  0  0  0
    0.4453    2.1320    0.4001 C   0  0  0  0  0  0  0  0  0  0  0  0
    1.4956    1.4822   -0.4933 C   0  0  0  0  0  0  0  0  0  0  0  0
    1.4001    0.0804   -0.6040 O   0  0  0  0  0  0  0  0  0  0  0  0
    1.7227   -0.6225    0.5778 C   0  0  0  0  0  0  0  0  0  0  0  0
    1.9621   -2.0762    0.2408 C   0  0  0  0  0  0  0  0  0  0  0  0
   -1.7209    2.4648    0.5228 H   0  0  0  0  0  0  0  0  0  0  0  0
   -1.1037    2.2170   -1.1541 H   0  0  0  0  0  0  0  0  0  0  0  0
    0.5327    1.7482    1.4210 H   0  0  0  0  0  0  0  0  0  0  0  0
    0.7054    3.1971    0.4661 H   0  0  0  0  0  0  0  0  0  0  0  0
    2.4980    1.7509   -0.1317 H   0  0  0  0  0  0  0  0  0  0  0  0
    1.3957    1.8639   -1.5119 H   0  0  0  0  0  0  0  0  0  0  0  0
    2.6217   -0.1808    1.0301 H   0  0  0  0  0  0  0  0  0  0  0  0
    0.9084   -0.5359    1.3085 H   0  0  0  0  0  0  0  0  0  0  0  0
    2.7634   -2.1714   -0.4928 H   0  0  0  0  0  0  0  0  0  0  0  0
    2.2475   -2.6234    1.1409 H   0  0  0  0  0  0  0  0  0  0  0  0
    1.0592   -2.5348   -0.1632 H   0  0  0  0  0  0  0  0  0  0  0  0
  1  2  1  0
  1  4  1  0
  1  5  1  0
  1  6  1  0
  2  3  2  3
  2  7  1  0
  3  8  1  0
  9 10  1  0
  9 15  1  0
  9 16  1  0
 10 11  1  0
 10 17  1  0
 10 18  1  0
 11 12  1  0
 11 19  1  0
 11 20  1  0
 12 13  1  0
 13 14  1  0
 13 21  1  0
 13 22  1  0
 14 23  1  0
 14 24  1  0
 14 25  1  0
M  RAD  1   9   2
M  END
>  <reaction>  (4) 
rmg_rxn_16547

>  <mol_properties>  (4) 
{"1": {"label": "*1", "atom_type": "Cd"}, "2": {"label": "*0", "atom_type": "N3d"}, "6": {"label": "*2", "atom_type": "H0"}, "8": {"label": "*3", "atom_type": "Cs"}, "9": {"label": "*4", "atom_type": "Cs"}}

>  <type>  (4) 
ts

$$$$

     RDKit          3D

 25 23  0  0  0  0  0  0  0  0999 V2000
   -3.2248   -0.7105    0.4663 C   0  0  0  0  0  0  0  0  0  0  0  0
   -1.8676   -0.5597   -0.1070 C   0  0  0  0  0  3  0  0  0  0  0  0
   -1.2639   -1.4372   -0.7443 N   0  0  0  0  0  0  0  0  0  0  0  0
   -3.8860    0.0268    0.0130 H   0  0  0  0  0  0  0  0  0  0  0  0
   -3.6248   -1.7105    0.2960 H   0  0  0  0  0  0  0  0  0  0  0  0
   -3.1893   -0.5108    1.5366 H   0  0  0  0  0  0  0  0  0  0  0  0
   -1.3923    0.7070    0.0163 H   0  0  0  0  0  0  0  0  0  0  0  0
   -0.3319   -1.2121   -1.0836 H   0  0  0  0  0  0  0  0  0  0  0  0
   -1.0422    1.9552    0.0656 C   0  0  0  0  0  0  0  0  0  0  0  0
    0.4142    2.0907    0.4477 C   0  0  0  0  0  0  0  0  0  0  0  0
    1.3594    1.4041   -0.5454 C   0  0  0  0  0  0  0  0  0  0  0  0
    1.3282   -0.0054   -0.5243 O   0  0  0  0  0  0  0  0  0  0  0  0
    1.9628   -0.6005    0.5891 C   0  0  0  0  0  0  0  0  0  0  0  0
    2.0949   -2.0950    0.3383 C   0  0  0  0  0  0  0  0  0  0  0  0
   -1.6988    2.4134    0.7994 H   0  0  0  0  0  0  0  0  0  0  0  0
   -1.2427    2.3557   -0.9239 H   0  0  0  0  0  0  0  0  0  0  0  0
    0.5770    1.6833    1.4483 H   0  0  0  0  0  0  0  0  0  0  0  0
    0.6960    3.1504    0.4806 H   0  0  0  0  0  0  0  0  0  0  0  0
    2.3905    1.7473   -0.3646 H   0  0  0  0  0  0  0  0  0  0  0  0
    1.0759    1.6763   -1.5662 H   0  0  0  0  0  0  0  0  0  0  0  0
    2.9579   -0.1486    0.7271 H   0  0  0  0  0  0  0  0  0  0  0  0
    1.3800   -0.4285    1.5056 H   0  0  0  0  0  0  0  0  0  0  0  0
    2.6401   -2.2689   -0.5855 H   0  0  0  0  0  0  0  0  0  0  0  0
    2.6305   -2.5594    1.1617 H   0  0  0  0  0  0  0  0  0  0  0  0
    1.1115   -2.5491    0.2533 H   0  0  0  0  0  0  0  0  0  0  0  0
  1  2  1  0
  1  4  1  0
  1  5  1  0
  1  6  1  0
  2  3  2  3
  3  8  1  0
  7  9  1  0
  9 10  1  0
  9 15  1  0
  9 16  1  0
 10 11  1  0
 10 17  1  0
 10 18  1  0
 11 12  1  0
 11 19  1  0
 11 20  1  0
 12 13  1  0
 13 14  1  0
 13 21  1  0
 13 22  1  0
 14 23  1  0
 14 24  1  0
 14 25  1  0
M  RAD  1   2   2
M  END
>  <reaction>  (5) 
rmg_rxn_16547

>  <mol_properties>  (5) 
{"1": {"label": "*1", "atom_type": "Cd"}, "2": {"label": "*0", "atom_type": "N3d"}, "6": {"label": "*2", "atom_type": "H0"}, "8": {"label": "*3", "atom_type": "Cs"}, "9": {"label": "*4", "atom_type": "Cs"}}

>  <type>  (5) 
unop_1

>  <geom_source>  (5) 
crest_best.xyz

$$$$

     RDKit          3D

 25 23  0  0  0  0  0  0  0  0999 V2000
   -0.2673    2.6749   -3.3721 C   0  0  0  0  0  0  0  0  0  0  0  0
   -0.2673    2.6749   -1.8798 C   0  0  0  0  0  3  0  0  0  0  0  0
   -0.2673    3.7476   -1.2121 N   0  0  0  0  0  0  0  0  0  0  0  0
    0.6110    2.1450   -3.7495 H   0  0  0  0  0  0  0  0  0  0  0  0
   -1.1455    2.1450   -3.7495 H   0  0  0  0  0  0  0  0  0  0  0  0
   -0.2673    3.6956   -3.7507 H   0  0  0  0  0  0  0  0  0  0  0  0
   -0.2673    1.4873   -1.3102 H   0  0  0  0  0  0  0  0  0  0  0  0
   -0.2673    3.5558   -0.2124 H   0  0  0  0  0  0  0  0  0  0  0  0
   -0.2673    0.3069   -0.7440 C   0  0  0  0  0  0  0  0  0  0  0  0
    0.9632    0.1199    0.1335 C   0  0  0  0  0  0  0  0  0  0  0  0
    0.6638   -0.5976    1.4339 C   0  0  0  0  0  0  0  0  0  0  0  0
    0.2105   -1.8981    1.1545 O   0  0  0  0  0  0  0  0  0  0  0  0
   -0.1267   -2.6289    2.3060 C   0  0  0  0  0  0  0  0  0  0  0  0
   -0.5997   -4.0037    1.8939 C   0  0  0  0  0  0  0  0  0  0  0  0
   -0.7040   -0.6566   -1.0069 H   0  0  0  0  0  0  0  0  0  0  0  0
   -1.0309    0.8913   -0.2249 H   0  0  0  0  0  0  0  0  0  0  0  0
    1.4017    1.0912    0.3787 H   0  0  0  0  0  0  0  0  0  0  0  0
    1.7272   -0.4452   -0.4068 H   0  0  0  0  0  0  0  0  0  0  0  0
   -0.1032   -0.0471    2.0013 H   0  0  0  0  0  0  0  0  0  0  0  0
    1.5660   -0.6416    2.0615 H   0  0  0  0  0  0  0  0  0  0  0  0
    0.7467   -2.7060    2.9705 H   0  0  0  0  0  0  0  0  0  0  0  0
   -0.9140   -2.1032    2.8662 H   0  0  0  0  0  0  0  0  0  0  0  0
    0.1851   -4.5308    1.3504 H   0  0  0  0  0  0  0  0  0  0  0  0
   -0.8672   -4.5909    2.7738 H   0  0  0  0  0  0  0  0  0  0  0  0
   -1.4750   -3.9288    1.2477 H   0  0  0  0  0  0  0  0  0  0  0  0
  1  2  1  0
  1  4  1  0
  1  5  1  0
  1  6  1  0
  2  3  2  3
  3  8  1  0
  7  9  1  0
  9 10  1  0
  9 15  1  0
  9 16  1  0
 10 11  1  0
 10 17  1  0
 10 18  1  0
 11 12  1  0
 11 19  1  0
 11 20  1  0
 12 13  1  0
 13 14  1  0
 13 21  1  0
 13 22  1  0
 14 23  1  0
 14 24  1  0
 14 25  1  0
M  RAD  1   2   2
M  END
>  <reaction>  (6) 
rmg_rxn_16547

>  <mol_properties>  (6) 
{"1": {"label": "*1", "atom_type": "Cd"}, "2": {"label": "*0", "atom_type": "N3d"}, "6": {"label": "*2", "atom_type": "H0"}, "8": {"label": "*3", "atom_type": "Cs"}, "9": {"label": "*4", "atom_type": "Cs"}}

>  <type>  (6) 
unop_2

>  <geom_source>  (6) 
Heuristics

$$$$

     RDKit          3D

 25 23  0  0  0  0  0  0  0  0999 V2000
   -0.1222    3.1773   -2.4125 C   0  0  0  0  0  0  0  0  0  0  0  0
   -0.1222    3.1773   -0.9202 C   0  0  0  0  0  3  0  0  0  0  0  0
   -0.1222    4.2499   -0.2525 N   0  0  0  0  0  0  0  0  0  0  0  0
    0.7561    2.6473   -2.7899 H   0  0  0  0  0  0  0  0  0  0  0  0
   -1.0005    2.6473   -2.7899 H   0  0  0  0  0  0  0  0  0  0  0  0
   -0.1222    4.1979   -2.7911 H   0  0  0  0  0  0  0  0  0  0  0  0
   -0.1222    1.9897   -0.3506 H   0  0  0  0  0  0  0  0  0  0  0  0
   -0.1222    4.0581    0.7472 H   0  0  0  0  0  0  0  0  0  0  0  0
   -0.1222    0.8092    0.2155 C   0  0  0  0  0  0  0  0  0  0  0  0
    0.5882   -0.2171   -0.6569 C   0  0  0  0  0  0  0  0  0  0  0  0
    1.0083   -1.4575    0.1048 C   0  0  0  0  0  0  0  0  0  0  0  0
   -0.1347   -2.1156    0.5898 O   0  0  0  0  0  0  0  0  0  0  0  0
    0.1621   -3.2638    1.3429 C   0  0  0  0  0  0  0  0  0  0  0  0
   -1.1302   -3.8897    1.8138 C   0  0  0  0  0  0  0  0  0  0  0  0
   -1.0258    0.3848    0.6530 H   0  0  0  0  0  0  0  0  0  0  0  0
    0.5236    1.1394    1.0331 H   0  0  0  0  0  0  0  0  0  0  0  0
    1.4845    0.2236   -1.1023 H   0  0  0  0  0  0  0  0  0  0  0  0
   -0.0599   -0.5201   -1.4833 H   0  0  0  0  0  0  0  0  0  0  0  0
    1.6660   -1.1809    0.9441 H   0  0  0  0  0  0  0  0  0  0  0  0
    1.5798   -2.1317   -0.5499 H   0  0  0  0  0  0  0  0  0  0  0  0
    0.7337   -3.9768    0.7303 H   0  0  0  0  0  0  0  0  0  0  0  0
    0.7947   -2.9954    2.2018 H   0  0  0  0  0  0  0  0  0  0  0  0
   -1.7521   -4.1688    0.9625 H   0  0  0  0  0  0  0  0  0  0  0  0
   -0.9242   -4.7855    2.4016 H   0  0  0  0  0  0  0  0  0  0  0  0
   -1.6904   -3.1890    2.4340 H   0  0  0  0  0  0  0  0  0  0  0  0
  1  2  1  0
  1  4  1  0
  1  5  1  0
  1  6  1  0
  2  3  2  3
  3  8  1  0
  7  9  1  0
  9 10  1  0
  9 15  1  0
  9 16  1  0
 10 11  1  0
 10 17  1  0
 10 18  1  0
 11 12  1  0
 11 19  1  0
 11 20  1  0
 12 13  1  0
 13 14  1  0
 13 21  1  0
 13 22  1  0
 14 23  1  0
 14 24  1  0
 14 25  1  0
M  RAD  1   2   2
M  END
>  <reaction>  (7) 
rmg_rxn_16547

>  <mol_properties>  (7) 
{"1": {"label": "*1", "atom_type": "Cd"}, "2": {"label": "*0", "atom_type": "N3d"}, "6": {"label": "*2", "atom_type": "H0"}, "8": {"label": "*3", "atom_type": "Cs"}, "9": {"label": "*4", "atom_type": "Cs"}}

>  <type>  (7) 
unop_3

>  <geom_source>  (7) 
Heuristics

$$$$

     RDKit          3D

 25 23  0  0  0  0  0  0  0  0999 V2000
   -0.1592    2.7495   -3.3134 C   0  0  0  0  0  0  0  0  0  0  0  0
   -0.1592    2.7495   -1.8211 C   0  0  0  0  0  3  0  0  0  0  0  0
   -0.1592    3.8221   -1.1534 N   0  0  0  0  0  0  0  0  0  0  0  0
    0.7190    2.2195   -3.6908 H   0  0  0  0  0  0  0  0  0  0  0  0
   -1.0375    2.2195   -3.6908 H   0  0  0  0  0  0  0  0  0  0  0  0
   -0.1592    3.7701   -3.6920 H   0  0  0  0  0  0  0  0  0  0  0  0
   -0.1592    1.5619   -1.2515 H   0  0  0  0  0  0  0  0  0  0  0  0
   -0.1592    3.6303   -0.1537 H   0  0  0  0  0  0  0  0  0  0  0  0
   -0.1592    0.3814   -0.6853 C   0  0  0  0  0  0  0  0  0  0  0  0
    0.5512    0.4193    0.6612 C   0  0  0  0  0  0  0  0  0  0  0  0
    0.0232   -0.6074    1.6422 C   0  0  0  0  0  0  0  0  0  0  0  0
    0.2595   -1.8978    1.1380 O   0  0  0  0  0  0  0  0  0  0  0  0
   -0.2313   -2.9182    1.9696 C   0  0  0  0  0  0  0  0  0  0  0  0
    0.0732   -4.2562    1.3367 C   0  0  0  0  0  0  0  0  0  0  0  0
   -0.0434   -0.5951   -1.1556 H   0  0  0  0  0  0  0  0  0  0  0  0
   -1.2287    0.5725   -0.5671 H   0  0  0  0  0  0  0  0  0  0  0  0
    0.4414    1.4073    1.1169 H   0  0  0  0  0  0  0  0  0  0  0  0
    1.6226    0.2506    0.5251 H   0  0  0  0  0  0  0  0  0  0  0  0
   -1.0568   -0.4587    1.8002 H   0  0  0  0  0  0  0  0  0  0  0  0
    0.5157   -0.4902    2.6187 H   0  0  0  0  0  0  0  0  0  0  0  0
    0.2343   -2.8484    2.9639 H   0  0  0  0  0  0  0  0  0  0  0  0
   -1.3155   -2.7975    2.1108 H   0  0  0  0  0  0  0  0  0  0  0  0
    1.1489   -4.3826    1.2089 H   0  0  0  0  0  0  0  0  0  0  0  0
   -0.2990   -5.0658    1.9664 H   0  0  0  0  0  0  0  0  0  0  0  0
   -0.4009   -4.3325    0.3575 H   0  0  0  0  0  0  0  0  0  0  0  0
  1  2  1  0
  1  4  1  0
  1  5  1  0
  1  6  1  0
  2  3  2  3
  3  8  1  0
  7  9  1  0
  9 10  1  0
  9 15  1  0
  9 16  1  0
 10 11  1  0
 10 17  1  0
 10 18  1  0
 11 12  1  0
 11 19  1  0
 11 20  1  0
 12 13  1  0
 13 14  1  0
 13 21  1  0
 13 22  1  0
 14 23  1  0
 14 24  1  0
 14 25  1  0
M  RAD  1   2   2
M  END
>  <reaction>  (8) 
rmg_rxn_16547

>  <mol_properties>  (8) 
{"1": {"label": "*1", "atom_type": "Cd"}, "2": {"label": "*0", "atom_type": "N3d"}, "6": {"label": "*2", "atom_type": "H0"}, "8": {"label": "*3", "atom_type": "Cs"}, "9": {"label": "*4", "atom_type": "Cs"}}

>  <type>  (8) 
unop_4

>  <geom_source>  (8) 
Heuristics

$$$$

     RDKit          3D

 25 23  0  0  0  0  0  0  0  0999 V2000
    1.1863    2.1883   -3.1930 C   0  0  0  0  0  0  0  0  0  0  0  0
    1.1863    2.1883   -1.7007 C   0  0  0  0  0  3  0  0  0  0  0  0
    1.1863    3.2609   -1.0330 N   0  0  0  0  0  0  0  0  0  0  0  0
    2.0646    1.6583   -3.5704 H   0  0  0  0  0  0  0  0  0  0  0  0
    0.3080    1.6583   -3.5704 H   0  0  0  0  0  0  0  0  0  0  0  0
    1.1863    3.2089   -3.5716 H   0  0  0  0  0  0  0  0  0  0  0  0
    1.1863    1.0007   -1.1311 H   0  0  0  0  0  0  0  0  0  0  0  0
    1.1863    3.0691   -0.0333 H   0  0  0  0  0  0  0  0  0  0  0  0
    1.1863   -0.1798   -0.5650 C   0  0  0  0  0  0  0  0  0  0  0  0
   -0.0442   -0.9812   -0.9685 C   0  0  0  0  0  0  0  0  0  0  0  0
   -0.5177   -1.9304    0.1132 C   0  0  0  0  0  0  0  0  0  0  0  0
   -0.9141   -1.1911    1.2407 O   0  0  0  0  0  0  0  0  0  0  0  0
   -1.3371   -1.9950    2.3123 C   0  0  0  0  0  0  0  0  0  0  0  0
   -1.7373   -1.1047    3.4658 C   0  0  0  0  0  0  0  0  0  0  0  0
    0.9810    0.4241    0.3189 H   0  0  0  0  0  0  0  0  0  0  0  0
    2.0236   -0.8423   -0.3319 H   0  0  0  0  0  0  0  0  0  0  0  0
    0.1683   -1.5714   -1.8642 H   0  0  0  0  0  0  0  0  0  0  0  0
   -0.8655   -0.3058   -1.2216 H   0  0  0  0  0  0  0  0  0  0  0  0
    0.2916   -2.6259    0.3866 H   0  0  0  0  0  0  0  0  0  0  0  0
   -1.3595   -2.5363   -0.2530 H   0  0  0  0  0  0  0  0  0  0  0  0
   -2.1847   -2.6224    1.9989 H   0  0  0  0  0  0  0  0  0  0  0  0
   -0.5261   -2.6741    2.6142 H   0  0  0  0  0  0  0  0  0  0  0  0
   -2.5507   -0.4405    3.1716 H   0  0  0  0  0  0  0  0  0  0  0  0
   -2.0707   -1.7083    4.3114 H   0  0  0  0  0  0  0  0  0  0  0  0
   -0.8933   -0.4935    3.7875 H   0  0  0  0  0  0  0  0  0  0  0  0
  1  2  1  0
  1  4  1  0
  1  5  1  0
  1  6  1  0
  2  3  2  3
  3  8  1  0
  7  9  1  0
  9 10  1  0
  9 15  1  0
  9 16  1  0
 10 11  1  0
 10 17  1  0
 10 18  1  0
 11 12  1  0
 11 19  1  0
 11 20  1  0
 12 13  1  0
 13 14  1  0
 13 21  1  0
 13 22  1  0
 14 23  1  0
 14 24  1  0
 14 25  1  0
M  RAD  1   2   2
M  END
>  <reaction>  (9) 
rmg_rxn_16547

>  <mol_properties>  (9) 
{"1": {"label": "*1", "atom_type": "Cd"}, "2": {"label": "*0", "atom_type": "N3d"}, "6": {"label": "*2", "atom_type": "H0"}, "8": {"label": "*3", "atom_type": "Cs"}, "9": {"label": "*4", "atom_type": "Cs"}}

>  <type>  (9) 
unop_5

>  <geom_source>  (9) 
Heuristics

$$$$

     RDKit          3D

 25 23  0  0  0  0  0  0  0  0999 V2000
   -0.5621    2.6265   -3.3171 C   0  0  0  0  0  0  0  0  0  0  0  0
   -0.5621    2.6265   -1.8247 C   0  0  0  0  0  3  0  0  0  0  0  0
   -0.5621    3.6991   -1.1571 N   0  0  0  0  0  0  0  0  0  0  0  0
    0.3162    2.0965   -3.6945 H   0  0  0  0  0  0  0  0  0  0  0  0
   -1.4404    2.0965   -3.6945 H   0  0  0  0  0  0  0  0  0  0  0  0
   -0.5621    3.6471   -3.6957 H   0  0  0  0  0  0  0  0  0  0  0  0
   -0.5621    1.4389   -1.2552 H   0  0  0  0  0  0  0  0  0  0  0  0
   -0.5621    3.5073   -0.1574 H   0  0  0  0  0  0  0  0  0  0  0  0
   -0.5621    0.2584   -0.6890 C   0  0  0  0  0  0  0  0  0  0  0  0
   -0.5621    0.3786    0.8291 C   0  0  0  0  0  0  0  0  0  0  0  0
   -0.5696   -0.9631    1.5327 C   0  0  0  0  0  0  0  0  0  0  0  0
    0.6098   -1.6600    1.2192 O   0  0  0  0  0  0  0  0  0  0  0  0
    0.6734   -2.9363    1.8026 C   0  0  0  0  0  0  0  0  0  0  0  0
    1.9734   -3.5947    1.4025 C   0  0  0  0  0  0  0  0  0  0  0  0
    0.3179   -0.2849   -1.0333 H   0  0  0  0  0  0  0  0  0  0  0  0
   -1.4469   -0.2803   -1.0372 H   0  0  0  0  0  0  0  0  0  0  0  0
   -1.4408    0.9378    1.1623 H   0  0  0  0  0  0  0  0  0  0  0  0
    0.3152    0.9398    1.1611 H   0  0  0  0  0  0  0  0  0  0  0  0
   -1.4468   -1.5502    1.2177 H   0  0  0  0  0  0  0  0  0  0  0  0
   -0.6441   -0.8224    2.6211 H   0  0  0  0  0  0  0  0  0  0  0  0
    0.6062   -2.8521    2.8975 H   0  0  0  0  0  0  0  0  0  0  0  0
   -0.1825   -3.5427    1.4716 H   0  0  0  0  0  0  0  0  0  0  0  0
    2.8228   -3.0012    1.7424 H   0  0  0  0  0  0  0  0  0  0  0  0
    2.0455   -4.5893    1.8454 H   0  0  0  0  0  0  0  0  0  0  0  0
    2.0342   -3.6928    0.3180 H   0  0  0  0  0  0  0  0  0  0  0  0
  1  2  1  0
  1  4  1  0
  1  5  1  0
  1  6  1  0
  2  3  2  3
  3  8  1  0
  7  9  1  0
  9 10  1  0
  9 15  1  0
  9 16  1  0
 10 11  1  0
 10 17  1  0
 10 18  1  0
 11 12  1  0
 11 19  1  0
 11 20  1  0
 12 13  1  0
 13 14  1  0
 13 21  1  0
 13 22  1  0
 14 23  1  0
 14 24  1  0
 14 25  1  0
M  RAD  1   2   2
M  END
>  <reaction>  (10) 
rmg_rxn_16547

>  <mol_properties>  (10) 
{"1": {"label": "*1", "atom_type": "Cd"}, "2": {"label": "*0", "atom_type": "N3d"}, "6": {"label": "*2", "atom_type": "H0"}, "8": {"label": "*3", "atom_type": "Cs"}, "9": {"label": "*4", "atom_type": "Cs"}}

>  <type>  (10) 
unop_6

>  <geom_source>  (10) 
Heuristics

$$$$

     RDKit          3D

 25 23  0  0  0  0  0  0  0  0999 V2000
    0.7729    1.7973   -3.6715 C   0  0  0  0  0  0  0  0  0  0  0  0
    0.7729    1.7973   -2.1792 C   0  0  0  0  0  3  0  0  0  0  0  0
    0.7729    2.8699   -1.5115 N   0  0  0  0  0  0  0  0  0  0  0  0
    1.6512    1.2673   -4.0489 H   0  0  0  0  0  0  0  0  0  0  0  0
   -0.1053    1.2673   -4.0489 H   0  0  0  0  0  0  0  0  0  0  0  0
    0.7729    2.8179   -4.0501 H   0  0  0  0  0  0  0  0  0  0  0  0
    0.7729    0.6096   -1.6096 H   0  0  0  0  0  0  0  0  0  0  0  0
    0.7729    2.6781   -0.5118 H   0  0  0  0  0  0  0  0  0  0  0  0
    0.7729   -0.5708   -1.0435 C   0  0  0  0  0  0  0  0  0  0  0  0
   -0.6479   -1.0650   -0.8065 C   0  0  0  0  0  0  0  0  0  0  0  0
   -0.8139   -1.7900    0.5135 C   0  0  0  0  0  0  0  0  0  0  0  0
   -0.5532   -0.9001    1.5695 O   0  0  0  0  0  0  0  0  0  0  0  0
   -0.6492   -1.4980    2.8371 C   0  0  0  0  0  0  0  0  0  0  0  0
   -0.3510   -0.4594    3.8936 C   0  0  0  0  0  0  0  0  0  0  0  0
    1.0758    0.1239   -0.2601 H   0  0  0  0  0  0  0  0  0  0  0  0
    1.4801   -1.4041   -1.0452 H   0  0  0  0  0  0  0  0  0  0  0  0
   -0.9466   -1.7492   -1.6056 H   0  0  0  0  0  0  0  0  0  0  0  0
   -1.3466   -0.2248   -0.8313 H   0  0  0  0  0  0  0  0  0  0  0  0
   -0.1215   -2.6452    0.5646 H   0  0  0  0  0  0  0  0  0  0  0  0
   -1.8346   -2.1898    0.6032 H   0  0  0  0  0  0  0  0  0  0  0  0
   -1.6577   -1.9136    2.9805 H   0  0  0  0  0  0  0  0  0  0  0  0
    0.0596   -2.3359    2.9108 H   0  0  0  0  0  0  0  0  0  0  0  0
   -1.0618    0.3652    3.8302 H   0  0  0  0  0  0  0  0  0  0  0  0
   -0.4203   -0.9017    4.8887 H   0  0  0  0  0  0  0  0  0  0  0  0
    0.6544   -0.0580    3.7617 H   0  0  0  0  0  0  0  0  0  0  0  0
  1  2  1  0
  1  4  1  0
  1  5  1  0
  1  6  1  0
  2  3  2  3
  3  8  1  0
  7  9  1  0
  9 10  1  0
  9 15  1  0
  9 16  1  0
 10 11  1  0
 10 17  1  0
 10 18  1  0
 11 12  1  0
 11 19  1  0
 11 20  1  0
 12 13  1  0
 13 14  1  0
 13 21  1  0
 13 22  1  0
 14 23  1  0
 14 24  1  0
 14 25  1  0
M  RAD  1   2   2
M  END
>  <reaction>  (11) 
rmg_rxn_16547

>  <mol_properties>  (11) 
{"1": {"label": "*1", "atom_type": "Cd"}, "2": {"label": "*0", "atom_type": "N3d"}, "6": {"label": "*2", "atom_type": "H0"}, "8": {"label": "*3", "atom_type": "Cs"}, "9": {"label": "*4", "atom_type": "Cs"}}

>  <type>  (11) 
unop_7

>  <geom_source>  (11) 
Heuristics

$$$$

     RDKit          3D

 25 23  0  0  0  0  0  0  0  0999 V2000
    0.0591    1.6906   -3.8737 C   0  0  0  0  0  0  0  0  0  0  0  0
    0.0591    1.6906   -2.3814 C   0  0  0  0  0  3  0  0  0  0  0  0
    0.0591    2.7633   -1.7137 N   0  0  0  0  0  0  0  0  0  0  0  0
    0.9374    1.1606   -4.2511 H   0  0  0  0  0  0  0  0  0  0  0  0
   -0.8192    1.1606   -4.2511 H   0  0  0  0  0  0  0  0  0  0  0  0
    0.0591    2.7112   -4.2523 H   0  0  0  0  0  0  0  0  0  0  0  0
    0.0591    0.5030   -1.8118 H   0  0  0  0  0  0  0  0  0  0  0  0
    0.0591    2.5714   -0.7140 H   0  0  0  0  0  0  0  0  0  0  0  0
    0.0591   -0.6775   -1.2457 C   0  0  0  0  0  0  0  0  0  0  0  0
   -1.1714   -0.8645   -0.3681 C   0  0  0  0  0  0  0  0  0  0  0  0
   -0.8748   -1.5950    0.9256 C   0  0  0  0  0  0  0  0  0  0  0  0
    0.0154   -0.8303    1.6987 O   0  0  0  0  0  0  0  0  0  0  0  0
    0.3761   -1.4496    2.9070 C   0  0  0  0  0  0  0  0  0  0  0  0
    1.3305   -0.5479    3.6550 C   0  0  0  0  0  0  0  0  0  0  0  0
    0.8217   -0.0999   -0.7233 H   0  0  0  0  0  0  0  0  0  0  0  0
    0.4951   -1.6424   -1.5161 H   0  0  0  0  0  0  0  0  0  0  0  0
   -1.9352   -1.4318   -0.9070 H   0  0  0  0  0  0  0  0  0  0  0  0
   -1.6104    0.1067   -0.1255 H   0  0  0  0  0  0  0  0  0  0  0  0
   -0.4325   -2.5807    0.7102 H   0  0  0  0  0  0  0  0  0  0  0  0
   -1.8045   -1.7695    1.4868 H   0  0  0  0  0  0  0  0  0  0  0  0
   -0.5222   -1.6445    3.5114 H   0  0  0  0  0  0  0  0  0  0  0  0
    0.8464   -2.4229    2.7033 H   0  0  0  0  0  0  0  0  0  0  0  0
    0.8602    0.4123    3.8695 H   0  0  0  0  0  0  0  0  0  0  0  0
    1.6247   -1.0090    4.5992 H   0  0  0  0  0  0  0  0  0  0  0  0
    2.2283   -0.3667    3.0630 H   0  0  0  0  0  0  0  0  0  0  0  0
  1  2  1  0
  1  4  1  0
  1  5  1  0
  1  6  1  0
  2  3  2  3
  3  8  1  0
  7  9  1  0
  9 10  1  0
  9 15  1  0
  9 16  1  0
 10 11  1  0
 10 17  1  0
 10 18  1  0
 11 12  1  0
 11 19  1  0
 11 20  1  0
 12 13  1  0
 13 14  1  0
 13 21  1  0
 13 22  1  0
 14 23  1  0
 14 24  1  0
 14 25  1  0
M  RAD  1   2   2
M  END
>  <reaction>  (12) 
rmg_rxn_16547

>  <mol_properties>  (12) 
{"1": {"label": "*1", "atom_type": "Cd"}, "2": {"label": "*0", "atom_type": "N3d"}, "6": {"label": "*2", "atom_type": "H0"}, "8": {"label": "*3", "atom_type": "Cs"}, "9": {"label": "*4", "atom_type": "Cs"}}

>  <type>  (12) 
unop_8

>  <geom_source>  (12) 
Heuristics

$$$$

     RDKit          3D

 25 23  0  0  0  0  0  0  0  0999 V2000
   -0.5166    2.7725   -3.1745 C   0  0  0  0  0  0  0  0  0  0  0  0
   -0.5166    2.7725   -1.6822 C   0  0  0  0  0  3  0  0  0  0  0  0
   -0.5166    3.8451   -1.0145 N   0  0  0  0  0  0  0  0  0  0  0  0
    0.3616    2.2425   -3.5519 H   0  0  0  0  0  0  0  0  0  0  0  0
   -1.3949    2.2425   -3.5519 H   0  0  0  0  0  0  0  0  0  0  0  0
   -0.5166    3.7931   -3.5531 H   0  0  0  0  0  0  0  0  0  0  0  0
   -0.5166    1.5849   -1.1126 H   0  0  0  0  0  0  0  0  0  0  0  0
   -0.5166    3.6533   -0.0148 H   0  0  0  0  0  0  0  0  0  0  0  0
   -0.5166    0.4044   -0.5465 C   0  0  0  0  0  0  0  0  0  0  0  0
    0.9042   -0.0898   -0.3094 C   0  0  0  0  0  0  0  0  0  0  0  0
    1.0736   -0.8017    1.0171 C   0  0  0  0  0  0  0  0  0  0  0  0
    0.2752   -1.9581    1.0303 O   0  0  0  0  0  0  0  0  0  0  0  0
    0.3421   -2.6664    2.2417 C   0  0  0  0  0  0  0  0  0  0  0  0
   -0.5489   -3.8833    2.1487 C   0  0  0  0  0  0  0  0  0  0  0  0
   -1.2207   -0.4276   -0.5412 H   0  0  0  0  0  0  0  0  0  0  0  0
   -0.8203    1.1064    0.2342 H   0  0  0  0  0  0  0  0  0  0  0  0
    1.6036    0.7506   -0.3317 H   0  0  0  0  0  0  0  0  0  0  0  0
    1.2028   -0.7716   -1.1099 H   0  0  0  0  0  0  0  0  0  0  0  0
    0.7813   -0.1350    1.8439 H   0  0  0  0  0  0  0  0  0  0  0  0
    2.1283   -1.0723    1.1727 H   0  0  0  0  0  0  0  0  0  0  0  0
    1.3813   -2.9653    2.4445 H   0  0  0  0  0  0  0  0  0  0  0  0
    0.0237   -2.0192    3.0722 H   0  0  0  0  0  0  0  0  0  0  0  0
   -0.2254   -4.5324    1.3342 H   0  0  0  0  0  0  0  0  0  0  0  0
   -0.5124   -4.4506    3.0800 H   0  0  0  0  0  0  0  0  0  0  0  0
   -1.5820   -3.5873    1.9631 H   0  0  0  0  0  0  0  0  0  0  0  0
  1  2  1  0
  1  4  1  0
  1  5  1  0
  1  6  1  0
  2  3  2  3
  3  8  1  0
  7  9  1  0
  9 10  1  0
  9 15  1  0
  9 16  1  0
 10 11  1  0
 10 17  1  0
 10 18  1  0
 11 12  1  0
 11 19  1  0
 11 20  1  0
 12 13  1  0
 13 14  1  0
 13 21  1  0
 13 22  1  0
 14 23  1  0
 14 24  1  0
 14 25  1  0
M  RAD  1   2   2
M  END
>  <reaction>  (13) 
rmg_rxn_16547

>  <mol_properties>  (13) 
{"1": {"label": "*1", "atom_type": "Cd"}, "2": {"label": "*0", "atom_type": "N3d"}, "6": {"label": "*2", "atom_type": "H0"}, "8": {"label": "*3", "atom_type": "Cs"}, "9": {"label": "*4", "atom_type": "Cs"}}

>  <type>  (13) 
unop_9

>  <geom_source>  (13) 
Heuristics

$$$$

     RDKit          3D

 25 23  0  0  0  0  0  0  0  0999 V2000
   -3.2248   -0.7105    0.4663 C   0  0  0  0  0  0  0  0  0  0  0  0
   -1.8676   -0.5597   -0.1070 C   0  0  0  0  0  3  0  0  0  0  0  0
   -1.2639   -1.4372   -0.7443 N   0  0  0  0  0  0  0  0  0  0  0  0
   -3.8860    0.0268    0.0130 H   0  0  0  0  0  0  0  0  0  0  0  0
   -3.6248   -1.7105    0.2960 H   0  0  0  0  0  0  0  0  0  0  0  0
   -3.1893   -0.5108    1.5366 H   0  0  0  0  0  0  0  0  0  0  0  0
   -1.3923    0.7070    0.0163 H   0  0  0  0  0  0  0  0  0  0  0  0
   -0.3319   -1.2121   -1.0836 H   0  0  0  0  0  0  0  0  0  0  0  0
   -1.0422    1.9552    0.0656 C   0  0  0  0  0  0  0  0  0  0  0  0
    0.4142    2.0907    0.4477 C   0  0  0  0  0  0  0  0  0  0  0  0
    1.3594    1.4041   -0.5454 C   0  0  0  0  0  0  0  0  0  0  0  0
    1.3282   -0.0054   -0.5243 O   0  0  0  0  0  0  0  0  0  0  0  0
    1.9628   -0.6005    0.5891 C   0  0  0  0  0  0  0  0  0  0  0  0
    2.0949   -2.0950    0.3383 C   0  0  0  0  0  0  0  0  0  0  0  0
   -1.6988    2.4134    0.7994 H   0  0  0  0  0  0  0  0  0  0  0  0
   -1.2427    2.3557   -0.9239 H   0  0  0  0  0  0  0  0  0  0  0  0
    0.5770    1.6833    1.4483 H   0  0  0  0  0  0  0  0  0  0  0  0
    0.6960    3.1504    0.4806 H   0  0  0  0  0  0  0  0  0  0  0  0
    2.3905    1.7473   -0.3646 H   0  0  0  0  0  0  0  0  0  0  0  0
    1.0759    1.6763   -1.5662 H   0  0  0  0  0  0  0  0  0  0  0  0
    2.9579   -0.1486    0.7271 H   0  0  0  0  0  0  0  0  0  0  0  0
    1.3800   -0.4285    1.5056 H   0  0  0  0  0  0  0  0  0  0  0  0
    2.6401   -2.2689   -0.5855 H   0  0  0  0  0  0  0  0  0  0  0  0
    2.6305   -2.5594    1.1617 H   0  0  0  0  0  0  0  0  0  0  0  0
    1.1115   -2.5491    0.2533 H   0  0  0  0  0  0  0  0  0  0  0  0
  1  2  1  0
  1  4  1  0
  1  5  1  0
  1  6  1  0
  2  3  2  3
  3  8  1  0
  7  9  1  0
  9 10  1  0
  9 15  1  0
  9 16  1  0
 10 11  1  0
 10 17  1  0
 10 18  1  0
 11 12  1  0
 11 19  1  0
 11 20  1  0
 12 13  1  0
 13 14  1  0
 13 21  1  0
 13 22  1  0
 14 23  1  0
 14 24  1  0
 14 25  1  0
M  RAD  1   2   2
M  END
>  <reaction>  (14) 
rmg_rxn_16547

>  <mol_properties>  (14) 
{"1": {"label": "*1", "atom_type": "Cd"}, "2": {"label": "*0", "atom_type": "N3d"}, "6": {"label": "*2", "atom_type": "H0"}, "8": {"label": "*3", "atom_type": "Cs"}, "9": {"label": "*4", "atom_type": "Cs"}}

>  <type>  (14) 
unop_10

>  <geom_source>  (14) 
Heuristics

$$$$

     RDKit          3D

 25 23  0  0  0  0  0  0  0  0999 V2000
    1.1105    2.7000   -2.6558 C   0  0  0  0  0  0  0  0  0  0  0  0
    1.1105    2.7000   -1.1634 C   0  0  0  0  0  3  0  0  0  0  0  0
    1.1105    3.7726   -0.4957 N   0  0  0  0  0  0  0  0  0  0  0  0
    1.9888    2.1700   -3.0332 H   0  0  0  0  0  0  0  0  0  0  0  0
    0.2323    2.1700   -3.0332 H   0  0  0  0  0  0  0  0  0  0  0  0
    1.1105    3.7206   -3.0343 H   0  0  0  0  0  0  0  0  0  0  0  0
    1.1105    1.5123   -0.5938 H   0  0  0  0  0  0  0  0  0  0  0  0
    1.1105    3.5808    0.5039 H   0  0  0  0  0  0  0  0  0  0  0  0
    1.1105    0.3319   -0.0277 C   0  0  0  0  0  0  0  0  0  0  0  0
    0.4001   -0.6944   -0.9002 C   0  0  0  0  0  0  0  0  0  0  0  0
   -0.0068   -1.9412   -0.1417 C   0  0  0  0  0  0  0  0  0  0  0  0
   -0.9375   -1.5977    0.8537 O   0  0  0  0  0  0  0  0  0  0  0  0
   -1.3462   -2.6919    1.6343 C   0  0  0  0  0  0  0  0  0  0  0  0
   -2.3396   -2.2139    2.6678 C   0  0  0  0  0  0  0  0  0  0  0  0
    0.4669    0.6547    0.7906 H   0  0  0  0  0  0  0  0  0  0  0  0
    2.0205   -0.0893    0.4069 H   0  0  0  0  0  0  0  0  0  0  0  0
    1.0488   -0.9999   -1.7258 H   0  0  0  0  0  0  0  0  0  0  0  0
   -0.4942   -0.2525   -1.3469 H   0  0  0  0  0  0  0  0  0  0  0  0
    0.8779   -2.4096    0.3180 H   0  0  0  0  0  0  0  0  0  0  0  0
   -0.4473   -2.6786   -0.8287 H   0  0  0  0  0  0  0  0  0  0  0  0
   -1.7995   -3.4620    0.9926 H   0  0  0  0  0  0  0  0  0  0  0  0
   -0.4737   -3.1504    2.1228 H   0  0  0  0  0  0  0  0  0  0  0  0
   -3.2113   -1.7716    2.1841 H   0  0  0  0  0  0  0  0  0  0  0  0
   -2.6723   -3.0485    3.2868 H   0  0  0  0  0  0  0  0  0  0  0  0
   -1.8863   -1.4616    3.3143 H   0  0  0  0  0  0  0  0  0  0  0  0
  1  2  1  0
  1  4  1  0
  1  5  1  0
  1  6  1  0
  2  3  2  3
  3  8  1  0
  7  9  1  0
  9 10  1  0
  9 15  1  0
  9 16  1  0
 10 11  1  0
 10 17  1  0
 10 18  1  0
 11 12  1  0
 11 19  1  0
 11 20  1  0
 12 13  1  0
 13 14  1  0
 13 21  1  0
 13 22  1  0
 14 23  1  0
 14 24  1  0
 14 25  1  0
M  RAD  1   2   2
M  END
>  <reaction>  (15) 
rmg_rxn_16547

>  <mol_properties>  (15) 
{"1": {"label": "*1", "atom_type": "Cd"}, "2": {"label": "*0", "atom_type": "N3d"}, "6": {"label": "*2", "atom_type": "H0"}, "8": {"label": "*3", "atom_type": "Cs"}, "9": {"label": "*4", "atom_type": "Cs"}}

>  <type>  (15) 
unop_11

>  <geom_source>  (15) 
Heuristics

$$$$

     RDKit          3D

 25 23  0  0  0  0  0  0  0  0999 V2000
   -0.5239    2.9976   -2.7806 C   0  0  0  0  0  0  0  0  0  0  0  0
   -0.5239    2.9976   -1.2882 C   0  0  0  0  0  3  0  0  0  0  0  0
   -0.5239    4.0703   -0.6205 N   0  0  0  0  0  0  0  0  0  0  0  0
    0.3543    2.4676   -3.1580 H   0  0  0  0  0  0  0  0  0  0  0  0
   -1.4022    2.4676   -3.1580 H   0  0  0  0  0  0  0  0  0  0  0  0
   -0.5239    4.0182   -3.1592 H   0  0  0  0  0  0  0  0  0  0  0  0
   -0.5239    1.8100   -0.7186 H   0  0  0  0  0  0  0  0  0  0  0  0
   -0.5239    3.8785    0.3791 H   0  0  0  0  0  0  0  0  0  0  0  0
   -0.5239    0.6296   -0.1525 C   0  0  0  0  0  0  0  0  0  0  0  0
    0.7066   -0.1719   -0.5560 C   0  0  0  0  0  0  0  0  0  0  0  0
    1.1889   -1.1103    0.5311 C   0  0  0  0  0  0  0  0  0  0  0  0
    0.1955   -2.0691    0.7933 O   0  0  0  0  0  0  0  0  0  0  0  0
    0.5435   -2.9646    1.8182 C   0  0  0  0  0  0  0  0  0  0  0  0
   -0.5881   -3.9460    2.0179 C   0  0  0  0  0  0  0  0  0  0  0  0
   -1.3555   -0.0336    0.0857 H   0  0  0  0  0  0  0  0  0  0  0  0
   -0.3186    1.2410    0.7298 H   0  0  0  0  0  0  0  0  0  0  0  0
    1.5295    0.5030   -0.8071 H   0  0  0  0  0  0  0  0  0  0  0  0
    0.4941   -0.7596   -1.4529 H   0  0  0  0  0  0  0  0  0  0  0  0
    1.4133   -0.5427    1.4482 H   0  0  0  0  0  0  0  0  0  0  0  0
    2.1185   -1.6089    0.2196 H   0  0  0  0  0  0  0  0  0  0  0  0
    1.4704   -3.4952    1.5541 H   0  0  0  0  0  0  0  0  0  0  0  0
    0.7412   -2.4113    2.7481 H   0  0  0  0  0  0  0  0  0  0  0  0
   -0.7757   -4.5048    1.1003 H   0  0  0  0  0  0  0  0  0  0  0  0
   -0.3397   -4.6534    2.8105 H   0  0  0  0  0  0  0  0  0  0  0  0
   -1.5037   -3.4222    2.2949 H   0  0  0  0  0  0  0  0  0  0  0  0
  1  2  1  0
  1  4  1  0
  1  5  1  0
  1  6  1  0
  2  3  2  3
  3  8  1  0
  7  9  1  0
  9 10  1  0
  9 15  1  0
  9 16  1  0
 10 11  1  0
 10 17  1  0
 10 18  1  0
 11 12  1  0
 11 19  1  0
 11 20  1  0
 12 13  1  0
 13 14  1  0
 13 21  1  0
 13 22  1  0
 14 23  1  0
 14 24  1  0
 14 25  1  0
M  RAD  1   2   2
M  END
>  <reaction>  (16) 
rmg_rxn_16547

>  <mol_properties>  (16) 
{"1": {"label": "*1", "atom_type": "Cd"}, "2": {"label": "*0", "atom_type": "N3d"}, "6": {"label": "*2", "atom_type": "H0"}, "8": {"label": "*3", "atom_type": "Cs"}, "9": {"label": "*4", "atom_type": "Cs"}}

>  <type>  (16) 
unop_12

>  <geom_source>  (16) 
Heuristics

$$$$

     RDKit          3D

 25 23  0  0  0  0  0  0  0  0999 V2000
   -0.5966    2.0080   -3.6913 C   0  0  0  0  0  0  0  0  0  0  0  0
   -0.5966    2.0080   -2.1989 C   0  0  0  0  0  3  0  0  0  0  0  0
   -0.5966    3.0806   -1.5313 N   0  0  0  0  0  0  0  0  0  0  0  0
    0.2817    1.4780   -4.0687 H   0  0  0  0  0  0  0  0  0  0  0  0
   -1.4748    1.4780   -4.0687 H   0  0  0  0  0  0  0  0  0  0  0  0
   -0.5966    3.0286   -4.0699 H   0  0  0  0  0  0  0  0  0  0  0  0
   -0.5966    0.8203   -1.6294 H   0  0  0  0  0  0  0  0  0  0  0  0
   -0.5966    2.8888   -0.5316 H   0  0  0  0  0  0  0  0  0  0  0  0
   -0.5966   -0.3601   -1.0632 C   0  0  0  0  0  0  0  0  0  0  0  0
   -1.3070   -0.3222    0.2833 C   0  0  0  0  0  0  0  0  0  0  0  0
   -0.7891   -1.3588    1.2592 C   0  0  0  0  0  0  0  0  0  0  0  0
    0.5604   -1.0933    1.5480 O   0  0  0  0  0  0  0  0  0  0  0  0
    1.1367   -2.0298    2.4223 C   0  0  0  0  0  0  0  0  0  0  0  0
    2.5801   -1.6529    2.6633 C   0  0  0  0  0  0  0  0  0  0  0  0
    0.4708   -0.1757   -0.9419 H   0  0  0  0  0  0  0  0  0  0  0  0
   -0.7167   -1.3362   -1.5398 H   0  0  0  0  0  0  0  0  0  0  0  0
   -2.3786   -0.4934    0.1483 H   0  0  0  0  0  0  0  0  0  0  0  0
   -1.1988    0.6663    0.7370 H   0  0  0  0  0  0  0  0  0  0  0  0
   -0.8886   -2.3674    0.8275 H   0  0  0  0  0  0  0  0  0  0  0  0
   -1.3817   -1.3399    2.1857 H   0  0  0  0  0  0  0  0  0  0  0  0
    0.5807   -2.0487    3.3714 H   0  0  0  0  0  0  0  0  0  0  0  0
    1.0700   -3.0383    1.9881 H   0  0  0  0  0  0  0  0  0  0  0  0
    2.6466   -0.6588    3.1066 H   0  0  0  0  0  0  0  0  0  0  0  0
    3.0493   -2.3674    3.3416 H   0  0  0  0  0  0  0  0  0  0  0  0
    3.1359   -1.6491    1.7250 H   0  0  0  0  0  0  0  0  0  0  0  0
  1  2  1  0
  1  4  1  0
  1  5  1  0
  1  6  1  0
  2  3  2  3
  3  8  1  0
  7  9  1  0
  9 10  1  0
  9 15  1  0
  9 16  1  0
 10 11  1  0
 10 17  1  0
 10 18  1  0
 11 12  1  0
 11 19  1  0
 11 20  1  0
 12 13  1  0
 13 14  1  0
 13 21  1  0
 13 22  1  0
 14 23  1  0
 14 24  1  0
 14 25  1  0
M  RAD  1   2   2
M  END
>  <reaction>  (17) 
rmg_rxn_16547

>  <mol_properties>  (17) 
{"1": {"label": "*1", "atom_type": "Cd"}, "2": {"label": "*0", "atom_type": "N3d"}, "6": {"label": "*2", "atom_type": "H0"}, "8": {"label": "*3", "atom_type": "Cs"}, "9": {"label": "*4", "atom_type": "Cs"}}

>  <type>  (17) 
unop_13

>  <geom_source>  (17) 
Heuristics

$$$$

     RDKit          3D

 25 23  0  0  0  0  0  0  0  0999 V2000
    0.5621    3.0967   -2.3367 C   0  0  0  0  0  0  0  0  0  0  0  0
    0.5621    3.0967   -0.8444 C   0  0  0  0  0  3  0  0  0  0  0  0
    0.5621    4.1693   -0.1767 N   0  0  0  0  0  0  0  0  0  0  0  0
    1.4404    2.5667   -2.7141 H   0  0  0  0  0  0  0  0  0  0  0  0
   -0.3162    2.5667   -2.7141 H   0  0  0  0  0  0  0  0  0  0  0  0
    0.5621    4.1173   -2.7153 H   0  0  0  0  0  0  0  0  0  0  0  0
    0.5621    1.9090   -0.2748 H   0  0  0  0  0  0  0  0  0  0  0  0
    0.5621    3.9775    0.8230 H   0  0  0  0  0  0  0  0  0  0  0  0
    0.5621    0.7286    0.2913 C   0  0  0  0  0  0  0  0  0  0  0  0
    0.5621   -0.3801   -0.7528 C   0  0  0  0  0  0  0  0  0  0  0  0
    0.5696   -1.7687   -0.1470 C   0  0  0  0  0  0  0  0  0  0  0  0
   -0.6098   -1.9604    0.5928 O   0  0  0  0  0  0  0  0  0  0  0  0
   -0.6734   -3.2144    1.2229 C   0  0  0  0  0  0  0  0  0  0  0  0
   -1.9734   -3.3145    1.9868 C   0  0  0  0  0  0  0  0  0  0  0  0
   -0.3179    0.6569    0.9305 H   0  0  0  0  0  0  0  0  0  0  0  0
    1.4469    0.6629    0.9294 H   0  0  0  0  0  0  0  0  0  0  0  0
    1.4408   -0.2898   -1.3975 H   0  0  0  0  0  0  0  0  0  0  0  0
   -0.3152   -0.2877   -1.3983 H   0  0  0  0  0  0  0  0  0  0  0  0
    1.4468   -1.8905    0.5081 H   0  0  0  0  0  0  0  0  0  0  0  0
    0.6441   -2.5293   -0.9379 H   0  0  0  0  0  0  0  0  0  0  0  0
   -0.6062   -4.0155    0.4718 H   0  0  0  0  0  0  0  0  0  0  0  0
    0.1826   -3.3358    1.9030 H   0  0  0  0  0  0  0  0  0  0  0  0
   -2.8228   -3.2080    1.3112 H   0  0  0  0  0  0  0  0  0  0  0  0
   -2.0455   -4.2825    2.4851 H   0  0  0  0  0  0  0  0  0  0  0  0
   -2.0342   -2.5302    2.7421 H   0  0  0  0  0  0  0  0  0  0  0  0
  1  2  1  0
  1  4  1  0
  1  5  1  0
  1  6  1  0
  2  3  2  3
  3  8  1  0
  7  9  1  0
  9 10  1  0
  9 15  1  0
  9 16  1  0
 10 11  1  0
 10 17  1  0
 10 18  1  0
 11 12  1  0
 11 19  1  0
 11 20  1  0
 12 13  1  0
 13 14  1  0
 13 21  1  0
 13 22  1  0
 14 23  1  0
 14 24  1  0
 14 25  1  0
M  RAD  1   2   2
M  END
>  <reaction>  (18) 
rmg_rxn_16547

>  <mol_properties>  (18) 
{"1": {"label": "*1", "atom_type": "Cd"}, "2": {"label": "*0", "atom_type": "N3d"}, "6": {"label": "*2", "atom_type": "H0"}, "8": {"label": "*3", "atom_type": "Cs"}, "9": {"label": "*4", "atom_type": "Cs"}}

>  <type>  (18) 
unop_14

>  <geom_source>  (18) 
Heuristics

$$$$

     RDKit          3D

 25 23  0  0  0  0  0  0  0  0999 V2000
    2.4555   -0.6986    0.3143 O   0  0  0  0  0  0  0  0  0  0  0  0
   -4.6099   -0.7729    0.2727 N   0  0  0  0  0  0  0  0  0  0  0  0
    0.0432   -0.6706    0.1772 C   0  0  0  0  0  0  0  0  0  0  0  0
    1.3625   -0.9438   -0.5511 C   0  0  0  0  0  0  0  0  0  0  0  0
    2.9796    0.5950    0.0973 C   0  0  0  0  0  0  0  0  0  0  0  0
   -1.1565   -1.0053   -0.7023 C   0  0  0  0  0  3  0  0  0  0  0  0
    4.0527    0.8801    1.1364 C   0  0  0  0  0  0  0  0  0  0  0  0
   -3.4556    1.2683   -0.2788 C   0  0  0  0  0  0  0  0  0  0  0  0
   -3.4930   -0.1877    0.0446 C   0  0  0  0  0  0  0  0  0  0  0  0
   -0.0137    0.4001    0.4667 H   0  0  0  0  0  0  0  0  0  0  0  0
   -0.0043   -1.2855    1.1016 H   0  0  0  0  0  0  0  0  0  0  0  0
    1.4085   -0.3631   -1.5040 H   0  0  0  0  0  0  0  0  0  0  0  0
    1.3937   -2.0171   -0.8365 H   0  0  0  0  0  0  0  0  0  0  0  0
    3.4442    0.6590   -0.9126 H   0  0  0  0  0  0  0  0  0  0  0  0
    2.1879    1.3726    0.1916 H   0  0  0  0  0  0  0  0  0  0  0  0
   -1.1431   -2.0801   -0.9826 H   0  0  0  0  0  0  0  0  0  0  0  0
   -1.1458   -0.3841   -1.6232 H   0  0  0  0  0  0  0  0  0  0  0  0
   -2.3114   -0.7455   -0.0094 H   0  0  0  0  0  0  0  0  0  0  0  0
    3.6152    0.8342    2.1563 H   0  0  0  0  0  0  0  0  0  0  0  0
    4.8689    0.1311    1.0557 H   0  0  0  0  0  0  0  0  0  0  0  0
    4.4760    1.8934    0.9713 H   0  0  0  0  0  0  0  0  0  0  0  0
   -4.0400    1.4651   -1.2020 H   0  0  0  0  0  0  0  0  0  0  0  0
   -3.8829    1.8530    0.5627 H   0  0  0  0  0  0  0  0  0  0  0  0
   -2.4034    1.5801   -0.4410 H   0  0  0  0  0  0  0  0  0  0  0  0
   -4.6284   -1.7778    0.4952 H   0  0  0  0  0  0  0  0  0  0  0  0
  1  5  1  0
  1  4  1  0
  2  9  2  3
  2 25  1  0
  3  6  1  0
  3  4  1  0
  3 10  1  0
  3 11  1  0
  4 12  1  0
  4 13  1  0
  5  7  1  0
  5 14  1  0
  5 15  1  0
  6 16  1  0
  6 17  1  0
  7 19  1  0
  7 20  1  0
  7 21  1  0
  8  9  1  0
  8 22  1  0
  8 23  1  0
  8 24  1  0
  9 18  1  0
M  RAD  1   6   2
M  END
>  <reaction>  (19) 
rmg_rxn_16547

>  <mol_properties>  (19) 
{"1": {"label": "*1", "atom_type": "Cd"}, "2": {"label": "*0", "atom_type": "N3d"}, "6": {"label": "*2", "atom_type": "H0"}, "8": {"label": "*3", "atom_type": "Cs"}, "9": {"label": "*4", "atom_type": "Cs"}}

>  <type>  (19) 
unop_15

>  <geom_source>  (19) 
AutoTST

$$$$

     RDKit          3D

 25 23  0  0  0  0  0  0  0  0999 V2000
   -0.1222    3.1773   -2.4125 C   0  0  0  0  0  0  0  0  0  0  0  0
   -0.1222    3.1773   -0.9202 C   0  0  0  0  0  3  0  0  0  0  0  0
   -0.1222    4.2499   -0.2525 N   0  0  0  0  0  0  0  0  0  0  0  0
    0.7561    2.6473   -2.7899 H   0  0  0  0  0  0  0  0  0  0  0  0
   -1.0005    2.6473   -2.7899 H   0  0  0  0  0  0  0  0  0  0  0  0
   -0.1222    4.1979   -2.7911 H   0  0  0  0  0  0  0  0  0  0  0  0
   -0.1222    1.9897   -0.3506 H   0  0  0  0  0  0  0  0  0  0  0  0
   -0.1222    4.0581    0.7472 H   0  0  0  0  0  0  0  0  0  0  0  0
   -0.1222    0.8092    0.2155 C   0  0  0  0  0  0  0  0  0  0  0  0
    0.5882   -0.2171   -0.6569 C   0  0  0  0  0  0  0  0  0  0  0  0
    1.0083   -1.4575    0.1048 C   0  0  0  0  0  0  0  0  0  0  0  0
   -0.1348   -2.1156    0.5898 O   0  0  0  0  0  0  0  0  0  0  0  0
    0.1621   -3.2638    1.3429 C   0  0  0  0  0  0  0  0  0  0  0  0
   -1.1302   -3.8897    1.8138 C   0  0  0  0  0  0  0  0  0  0  0  0
   -1.0258    0.3848    0.6530 H   0  0  0  0  0  0  0  0  0  0  0  0
    0.5236    1.1394    1.0331 H   0  0  0  0  0  0  0  0  0  0  0  0
    1.4845    0.2236   -1.1023 H   0  0  0  0  0  0  0  0  0  0  0  0
   -0.0599   -0.5201   -1.4833 H   0  0  0  0  0  0  0  0  0  0  0  0
    1.6660   -1.1809    0.9441 H   0  0  0  0  0  0  0  0  0  0  0  0
    1.5798   -2.1317   -0.5499 H   0  0  0  0  0  0  0  0  0  0  0  0
    0.7337   -3.9768    0.7303 H   0  0  0  0  0  0  0  0  0  0  0  0
    0.7947   -2.9954    2.2018 H   0  0  0  0  0  0  0  0  0  0  0  0
   -1.7521   -4.1688    0.9625 H   0  0  0  0  0  0  0  0  0  0  0  0
   -0.9242   -4.7855    2.4016 H   0  0  0  0  0  0  0  0  0  0  0  0
   -1.6904   -3.1890    2.4340 H   0  0  0  0  0  0  0  0  0  0  0  0
  1  2  1  0
  1  4  1  0
  1  5  1  0
  1  6  1  0
  2  3  2  3
  3  8  1  0
  7  9  1  0
  9 10  1  0
  9 15  1  0
  9 16  1  0
 10 11  1  0
 10 17  1  0
 10 18  1  0
 11 12  1  0
 11 19  1  0
 11 20  1  0
 12 13  1  0
 13 14  1  0
 13 21  1  0
 13 22  1  0
 14 23  1  0
 14 24  1  0
 14 25  1  0
M  RAD  1   2   2
M  END
>  <reaction>  (20) 
rmg_rxn_16547

>  <mol_properties>  (20) 
{"1": {"label": "*1", "atom_type": "Cd"}, "2": {"label": "*0", "atom_type": "N3d"}, "6": {"label": "*2", "atom_type": "H0"}, "8": {"label": "*3", "atom_type": "Cs"}, "9": {"label": "*4", "atom_type": "Cs"}}

>  <type>  (20) 
unop_16

>  <geom_source>  (20) 
gaussian_log

$$$$
