
     RDKit          3D

 12 11  0  0  0  0  0  0  0  0999 V2000
   -1.4643   -0.2505   -0.5284 C   0  0  0  0  0  0  0  0  0  0  0  0
   -0.3946    0.4302    0.3143 C   0  0  0  0  0  0  0  0  0  0  0  0
   -0.5959    0.2382    1.8102 C   0  0  0  0  0  0  0  0  0  0  0  0
   -0.5633   -1.1190    2.2092 O   0  0  0  0  0  0  0  0  0  0  0  0
   -2.4511    0.1644   -0.3109 H   0  0  0  0  0  0  0  0  0  0  0  0
   -1.5019   -1.3198   -0.3181 H   0  0  0  0  0  0  0  0  0  0  0  0
   -1.2720   -0.1182   -1.5941 H   0  0  0  0  0  0  0  0  0  0  0  0
    0.5965    0.0515    0.0385 H   0  0  0  0  0  0  0  0  0  0  0  0
   -0.3776    1.5047    0.1078 H   0  0  0  0  0  0  0  0  0  0  0  0
   -1.5821    0.6048    2.1034 H   0  0  0  0  0  0  0  0  0  0  0  0
    0.1495    0.8220    2.3649 H   0  0  0  0  0  0  0  0  0  0  0  0
    0.3017   -1.4750    1.9997 H   0  0  0  0  0  0  0  0  0  0  0  0
  1  2  1  0
  1  5  1  0
  1  6  1  0
  1  7  1  0
  2  3  1  0
  2  8  1  0
  2  9  1  0
  3  4  1  0
  3 10  1  0
  3 11  1  0
  4 12  1  0
M  END
>  <reaction>  (1) 
rmg_rxn_15485

>  <mol_properties>  (1) 
{"2": {"label": "donator", "atom_type": "Cs"}, "9": {"label": "d_hydrogen", "atom_type": "H0"}}

>  <type>  (1) 
r1h

$$$$

     RDKit          3D

  5  4  0  0  0  0  0  0  0  0999 V2000
    0.8934    0.3742    0.4948 O   0  0  0  0  0  0  0  0  0  0  0  0
    0.1582   -0.1610   -0.5904 N   0  0  0  0  0  0  0  0  0  0  0  0
   -1.0297   -0.3739   -0.4689 C   0  0  0  0  0  3  0  0  0  0  0  0
    1.7804    0.4382    0.1306 H   0  0  0  0  0  0  0  0  0  0  0  0
   -1.8023   -0.2775    0.2859 H   0  0  0  0  0  0  0  0  0  0  0  0
  1  2  1  0
  1  4  1  0
  2  3  2  3
  3  5  1  0
M  RAD  1   3   2
M  END
>  <reaction>  (2) 
rmg_rxn_15485

>  <mol_properties>  (2) 
{"2": {"label": "acceptor", "atom_type": "Cd"}}

>  <type>  (2) 
r2

$$$$

     RDKit          3D

  6  5  0  0  0  0  0  0  0  0999 V2000
    1.2314    0.0428    0.5088 O   0  0  0  0  0  0  0  0  0  0  0  0
    0.2987    0.2341   -0.4915 N   0  0  0  0  0  0  0  0  0  0  0  0
   -0.8599   -0.1122   -0.1290 C   0  0  0  0  0  0  0  0  0  0  0  0
    2.0507    0.3401    0.1082 H   0  0  0  0  0  0  0  0  0  0  0  0
   -1.0700   -0.5112    0.8610 H   0  0  0  0  0  0  0  0  0  0  0  0
   -1.6509    0.0064   -0.8574 H   0  0  0  0  0  0  0  0  0  0  0  0
  1  2  1  0
  1  4  1  0
  2  3  2  3
  3  5  1  0
  3  6  1  0
M  END
>  <reaction>  (3) 
rmg_rxn_15485

>  <mol_properties>  (3) 
{"2": {"label": "acceptor", "atom_type": "Cd"}, "5": {"label": "a_hydrogen", "atom_type": "H0"}}

>  <type>  (3) 
r2h

$$$$

     RDKit          3D

 17 15  0  0  0  0  0  0  0  0999 V2000
    1.5430    2.6765   -0.9424 O   0  0  0  0  0  0  0  0  0  0  0  0
    0.7321    1.7084   -0.3363 N   0  0  0  0  0  0  0  0  0  0  0  0
    1.3263    0.6872    0.0517 C   0  0  0  0  0  3  0  0  0  0  0  0
    0.9180    3.3649   -1.1821 H   0  0  0  0  0  0  0  0  0  0  0  0
    2.3906    0.4656   -0.0241 H   0  0  0  0  0  0  0  0  0  0  0  0
   -0.7416   -2.4933   -0.6042 C   0  0  0  0  0  0  0  0  0  0  0  0
   -0.9943   -2.0388    0.8279 C   0  0  0  0  0  0  0  0  0  0  0  0
   -0.8385   -0.5528    1.0178 C   0  0  0  0  0  0  0  0  0  0  0  0
   -1.7233    0.1660    0.2315 O   0  0  0  0  0  0  0  0  0  0  0  0
    0.2796   -2.2584   -0.9129 H   0  0  0  0  0  0  0  0  0  0  0  0
   -1.4224   -1.9928   -1.2922 H   0  0  0  0  0  0  0  0  0  0  0  0
   -0.8841   -3.5701   -0.7025 H   0  0  0  0  0  0  0  0  0  0  0  0
   -2.0087   -2.3182    1.1335 H   0  0  0  0  0  0  0  0  0  0  0  0
   -0.3106   -2.5426    1.5162 H   0  0  0  0  0  0  0  0  0  0  0  0
    0.3015   -0.2148    0.6533 H   0  0  0  0  0  0  0  0  0  0  0  0
   -0.8594   -0.2457    2.0713 H   0  0  0  0  0  0  0  0  0  0  0  0
   -1.3525    1.0447    0.0826 H   0  0  0  0  0  0  0  0  0  0  0  0
  1  2  1  0
  1  4  1  0
  2  3  2  3
  3  5  1  0
  6  7  1  0
  6 10  1  0
  6 11  1  0
  6 12  1  0
  7  8  1  0
  7 13  1  0
  7 14  1  0
  8  9  1  0
  8 15  1  0
  8 16  1  0
  9 17  1  0
M  RAD  1   3   2
M  END
>  <reaction>  (4) 
rmg_rxn_15485

>  <mol_properties>  (4) 
{"1": {"label": "*4", "atom_type": "N3d"}, "2": {"label": "*3", "atom_type": "Cd"}, "6": {"label": "*0", "atom_type": "Cs"}, "7": {"label": "*1", "atom_type": "Cs"}, "14": {"label": "*2", "atom_type": "H0"}}

>  <type>  (4) 
ts

$$$$

     RDKit          3D

 17 15  0  0  0  0  0  0  0  0999 V2000
    3.1695   -0.1235   -0.2182 O   0  0  0  0  0  0  0  0  0  0  0  0
    1.7634    0.0258   -0.2580 N   0  0  0  0  0  0  0  0  0  0  0  0
    1.1566    0.3091    0.7862 C   0  0  0  0  0  0  0  0  0  0  0  0
    3.4143   -0.3363   -1.1289 H   0  0  0  0  0  0  0  0  0  0  0  0
    1.5598    0.4713    1.7790 H   0  0  0  0  0  0  0  0  0  0  0  0
   -1.4740   -1.9779    0.1738 C   0  0  0  0  0  0  0  0  0  0  0  0
   -1.7663   -0.6526   -0.5179 C   0  0  0  0  0  0  0  0  0  0  0  0
   -1.4395    0.5274    0.3690 C   0  0  0  0  0  3  0  0  0  0  0  0
   -1.6509    1.7806   -0.1852 O   0  0  0  0  0  0  0  0  0  0  0  0
   -0.4164   -2.0523    0.4135 H   0  0  0  0  0  0  0  0  0  0  0  0
   -1.7407   -2.8088   -0.4740 H   0  0  0  0  0  0  0  0  0  0  0  0
   -2.0448   -2.0628    1.0954 H   0  0  0  0  0  0  0  0  0  0  0  0
   -1.1755   -0.5833   -1.4365 H   0  0  0  0  0  0  0  0  0  0  0  0
   -2.8262   -0.6132   -0.7992 H   0  0  0  0  0  0  0  0  0  0  0  0
   -0.1242    0.4172    0.6325 H   0  0  0  0  0  0  0  0  0  0  0  0
   -1.9287    0.5049    1.3418 H   0  0  0  0  0  0  0  0  0  0  0  0
   -1.3456    1.7780   -1.1004 H   0  0  0  0  0  0  0  0  0  0  0  0
  1  2  1  0
  1  4  1  0
  2  3  2  3
  3  5  1  0
  3 15  1  0
  6  7  1  0
  6 10  1  0
  6 11  1  0
  6 12  1  0
  7  8  1  0
  7 13  1  0
  7 14  1  0
  8  9  1  0
  8 16  1  0
  9 17  1  0
M  RAD  1   8   2
M  END
>  <reaction>  (5) 
rmg_rxn_15485

>  <mol_properties>  (5) 
{"1": {"label": "*4", "atom_type": "N3d"}, "2": {"label": "*3", "atom_type": "Cd"}, "6": {"label": "*0", "atom_type": "Cs"}, "7": {"label": "*1", "atom_type": "Cs"}, "14": {"label": "*2", "atom_type": "H0"}}

>  <type>  (5) 
unop_1

>  <geom_source>  (5) 
crest_best.xyz

$$$$

     RDKit          3D

 17 15  0  0  0  0  0  0  0  0999 V2000
    1.8939    2.6514   -0.2068 O   0  0  0  0  0  0  0  0  0  0  0  0
    1.0521    1.6198   -0.5734 N   0  0  0  0  0  0  0  0  0  0  0  0
    1.3005    0.5588    0.0638 C   0  0  0  0  0  0  0  0  0  0  0  0
    1.6020    3.3819   -0.7556 H   0  0  0  0  0  0  0  0  0  0  0  0
    2.0907    0.4932    0.8086 H   0  0  0  0  0  0  0  0  0  0  0  0
   -0.7564   -2.1839   -1.1834 C   0  0  0  0  0  0  0  0  0  0  0  0
   -0.7564   -2.1839    0.3390 C   0  0  0  0  0  0  0  0  0  0  0  0
   -0.7564   -0.7860    0.9398 C   0  0  0  0  0  3  0  0  0  0  0  0
   -1.8902   -0.0212    0.5766 O   0  0  0  0  0  0  0  0  0  0  0  0
    0.1428   -1.6996   -1.5709 H   0  0  0  0  0  0  0  0  0  0  0  0
   -1.6180   -1.6398   -1.5716 H   0  0  0  0  0  0  0  0  0  0  0  0
   -0.7872   -3.2001   -1.5790 H   0  0  0  0  0  0  0  0  0  0  0  0
   -1.6297   -2.7306    0.7134 H   0  0  0  0  0  0  0  0  0  0  0  0
    0.1210   -2.7174    0.7170 H   0  0  0  0  0  0  0  0  0  0  0  0
    0.2769   -0.1104    0.4997 H   0  0  0  0  0  0  0  0  0  0  0  0
   -0.6664   -0.8491    2.0315 H   0  0  0  0  0  0  0  0  0  0  0  0
   -2.6727   -0.4640    0.9093 H   0  0  0  0  0  0  0  0  0  0  0  0
  1  2  1  0
  1  4  1  0
  2  3  2  3
  3  5  1  0
  3 15  1  0
  6  7  1  0
  6 10  1  0
  6 11  1  0
  6 12  1  0
  7  8  1  0
  7 13  1  0
  7 14  1  0
  8  9  1  0
  8 16  1  0
  9 17  1  0
M  RAD  1   8   2
M  END
>  <reaction>  (6) 
rmg_rxn_15485

>  <mol_properties>  (6) 
{"1": {"label": "*4", "atom_type": "N3d"}, "2": {"label": "*3", "atom_type": "Cd"}, "6": {"label": "*0", "atom_type": "Cs"}, "7": {"label": "*1", "atom_type": "Cs"}, "14": {"label": "*2", "atom_type": "H0"}}

>  <type>  (6) 
unop_2

>  <geom_source>  (6) 
Heuristics

$$$$

     RDKit          3D

 17 15  0  0  0  0  0  0  0  0999 V2000
    3.1682    0.1140    0.2180 O   0  0  0  0  0  0  0  0  0  0  0  0
    1.7598   -0.0123    0.2539 N   0  0  0  0  0  0  0  0  0  0  0  0
    1.1574   -0.3501   -0.7765 C   0  0  0  0  0  0  0  0  0  0  0  0
    3.4085    0.3803    1.1156 H   0  0  0  0  0  0  0  0  0  0  0  0
    1.5666   -0.5791   -1.7536 H   0  0  0  0  0  0  0  0  0  0  0  0
   -1.4503    1.9839   -0.1869 C   0  0  0  0  0  0  0  0  0  0  0  0
   -1.7542    0.6662    0.5143 C   0  0  0  0  0  0  0  0  0  0  0  0
   -1.4432   -0.5227   -0.3662 C   0  0  0  0  0  3  0  0  0  0  0  0
   -1.6758   -1.7698    0.1935 O   0  0  0  0  0  0  0  0  0  0  0  0
   -0.3932    2.0444   -0.4324 H   0  0  0  0  0  0  0  0  0  0  0  0
   -1.7039    2.8215    0.4575 H   0  0  0  0  0  0  0  0  0  0  0  0
   -2.0250    2.0700   -1.1059 H   0  0  0  0  0  0  0  0  0  0  0  0
   -1.1608    0.5966    1.4311 H   0  0  0  0  0  0  0  0  0  0  0  0
   -2.8135    0.6399    0.7996 H   0  0  0  0  0  0  0  0  0  0  0  0
   -0.1255   -0.4351   -0.6265 H   0  0  0  0  0  0  0  0  0  0  0  0
   -1.9290   -0.4973   -1.3405 H   0  0  0  0  0  0  0  0  0  0  0  0
   -1.3784   -1.7659    1.1112 H   0  0  0  0  0  0  0  0  0  0  0  0
  1  2  1  0
  1  4  1  0
  2  3  2  3
  3  5  1  0
  3 15  1  0
  6  7  1  0
  6 10  1  0
  6 11  1  0
  6 12  1  0
  7  8  1  0
  7 13  1  0
  7 14  1  0
  8  9  1  0
  8 16  1  0
  9 17  1  0
M  RAD  1   8   2
M  END
>  <reaction>  (7) 
rmg_rxn_15485

>  <mol_properties>  (7) 
{"1": {"label": "*4", "atom_type": "N3d"}, "2": {"label": "*3", "atom_type": "Cd"}, "6": {"label": "*0", "atom_type": "Cs"}, "7": {"label": "*1", "atom_type": "Cs"}, "14": {"label": "*2", "atom_type": "H0"}}

>  <type>  (7) 
unop_3

>  <geom_source>  (7) 
Heuristics

$$$$

     RDKit          3D

 17 15  0  0  0  0  0  0  0  0999 V2000
    3.1696    0.1186    0.2176 O   0  0  0  0  0  0  0  0  0  0  0  0
    1.7630   -0.0267    0.2582 N   0  0  0  0  0  0  0  0  0  0  0  0
    1.1556   -0.3188   -0.7831 C   0  0  0  0  0  0  0  0  0  0  0  0
    3.4141    0.3407    1.1260 H   0  0  0  0  0  0  0  0  0  0  0  0
    1.5583   -0.4921   -1.7742 H   0  0  0  0  0  0  0  0  0  0  0  0
   -1.4590    1.9807   -0.1755 C   0  0  0  0  0  0  0  0  0  0  0  0
   -1.7662    0.6581    0.5149 C   0  0  0  0  0  0  0  0  0  0  0  0
   -1.4420   -0.5250   -0.3687 C   0  0  0  0  0  3  0  0  0  0  0  0
   -1.6611   -1.7762    0.1871 O   0  0  0  0  0  0  0  0  0  0  0  0
   -2.0242    2.0702   -1.1002 H   0  0  0  0  0  0  0  0  0  0  0  0
   -0.3996    2.0460   -0.4096 H   0  0  0  0  0  0  0  0  0  0  0  0
   -1.7219    2.8141    0.4707 H   0  0  0  0  0  0  0  0  0  0  0  0
   -1.1827    0.5851    1.4379 H   0  0  0  0  0  0  0  0  0  0  0  0
   -2.8285    0.6269    0.7886 H   0  0  0  0  0  0  0  0  0  0  0  0
   -0.1256   -0.4215   -0.6292 H   0  0  0  0  0  0  0  0  0  0  0  0
   -1.9280   -0.5020   -1.3430 H   0  0  0  0  0  0  0  0  0  0  0  0
   -1.3594   -1.7734    1.1034 H   0  0  0  0  0  0  0  0  0  0  0  0
  1  2  1  0
  1  4  1  0
  2  3  2  3
  3  5  1  0
  3 15  1  0
  6  7  1  0
  6 10  1  0
  6 11  1  0
  6 12  1  0
  7  8  1  0
  7 13  1  0
  7 14  1  0
  8  9  1  0
  8 16  1  0
  9 17  1  0
M  RAD  1   8   2
M  END
>  <reaction>  (8) 
rmg_rxn_15485

>  <mol_properties>  (8) 
{"1": {"label": "*4", "atom_type": "N3d"}, "2": {"label": "*3", "atom_type": "Cd"}, "6": {"label": "*0", "atom_type": "Cs"}, "7": {"label": "*1", "atom_type": "Cs"}, "14": {"label": "*2", "atom_type": "H0"}}

>  <type>  (8) 
unop_4

>  <geom_source>  (8) 
Heuristics

$$$$

     RDKit          3D

 17 15  0  0  0  0  0  0  0  0999 V2000
    2.3279    1.6681   -1.3128 O   0  0  0  0  0  0  0  0  0  0  0  0
    1.5262    0.6752   -0.7849 N   0  0  0  0  0  0  0  0  0  0  0  0
    1.1085    0.9697    0.3694 C   0  0  0  0  0  0  0  0  0  0  0  0
    2.5713    1.3225   -2.1738 H   0  0  0  0  0  0  0  0  0  0  0  0
    1.3657    1.9030    0.8659 H   0  0  0  0  0  0  0  0  0  0  0  0
   -0.9483   -1.7730   -0.8778 C   0  0  0  0  0  0  0  0  0  0  0  0
   -0.9483   -1.7730    0.6447 C   0  0  0  0  0  0  0  0  0  0  0  0
   -0.9483   -0.3751    1.2454 C   0  0  0  0  0  3  0  0  0  0  0  0
   -2.0821    0.3897    0.8823 O   0  0  0  0  0  0  0  0  0  0  0  0
   -0.0491   -1.2887   -1.2653 H   0  0  0  0  0  0  0  0  0  0  0  0
   -1.8099   -1.2289   -1.2660 H   0  0  0  0  0  0  0  0  0  0  0  0
   -0.9791   -2.7892   -1.2734 H   0  0  0  0  0  0  0  0  0  0  0  0
   -1.8216   -2.3197    1.0190 H   0  0  0  0  0  0  0  0  0  0  0  0
   -0.0709   -2.3065    1.0226 H   0  0  0  0  0  0  0  0  0  0  0  0
    0.0850    0.3006    0.8053 H   0  0  0  0  0  0  0  0  0  0  0  0
   -0.8583   -0.4382    2.3371 H   0  0  0  0  0  0  0  0  0  0  0  0
   -2.8646   -0.0531    1.2149 H   0  0  0  0  0  0  0  0  0  0  0  0
  1  2  1  0
  1  4  1  0
  2  3  2  3
  3  5  1  0
  3 15  1  0
  6  7  1  0
  6 10  1  0
  6 11  1  0
  6 12  1  0
  7  8  1  0
  7 13  1  0
  7 14  1  0
  8  9  1  0
  8 16  1  0
  9 17  1  0
M  RAD  1   8   2
M  END
>  <reaction>  (9) 
rmg_rxn_15485

>  <mol_properties>  (9) 
{"1": {"label": "*4", "atom_type": "N3d"}, "2": {"label": "*3", "atom_type": "Cd"}, "6": {"label": "*0", "atom_type": "Cs"}, "7": {"label": "*1", "atom_type": "Cs"}, "14": {"label": "*2", "atom_type": "H0"}}

>  <type>  (9) 
unop_5

>  <geom_source>  (9) 
Heuristics

$$$$

     RDKit          3D

 17 15  0  0  0  0  0  0  0  0999 V2000
    3.1705    0.1252    0.2182 O   0  0  0  0  0  0  0  0  0  0  0  0
    1.7640   -0.0205    0.2574 N   0  0  0  0  0  0  0  0  0  0  0  0
    1.1579   -0.3093   -0.7857 C   0  0  0  0  0  0  0  0  0  0  0  0
    3.4147    0.3442    1.1275 H   0  0  0  0  0  0  0  0  0  0  0  0
    1.5625   -0.4802   -1.7765 H   0  0  0  0  0  0  0  0  0  0  0  0
   -1.4822    1.9765   -0.1749 C   0  0  0  0  0  0  0  0  0  0  0  0
   -1.7668    0.6504    0.5185 C   0  0  0  0  0  0  0  0  0  0  0  0
   -1.4380   -0.5287   -0.3687 C   0  0  0  0  0  3  0  0  0  0  0  0
   -1.6468   -1.7824    0.1855 O   0  0  0  0  0  0  0  0  0  0  0  0
   -2.0568    2.0588   -1.0944 H   0  0  0  0  0  0  0  0  0  0  0  0
   -0.4258    2.0549   -0.4186 H   0  0  0  0  0  0  0  0  0  0  0  0
   -1.7497    2.8067    0.4736 H   0  0  0  0  0  0  0  0  0  0  0  0
   -1.1728    0.5841    1.4353 H   0  0  0  0  0  0  0  0  0  0  0  0
   -2.8256    0.6068    0.8033 H   0  0  0  0  0  0  0  0  0  0  0  0
   -0.1230   -0.4164   -0.6326 H   0  0  0  0  0  0  0  0  0  0  0  0
   -1.9276   -0.5070   -1.3412 H   0  0  0  0  0  0  0  0  0  0  0  0
   -1.3410   -1.7794    1.1005 H   0  0  0  0  0  0  0  0  0  0  0  0
  1  2  1  0
  1  4  1  0
  2  3  2  3
  3  5  1  0
  3 15  1  0
  6  7  1  0
  6 10  1  0
  6 11  1  0
  6 12  1  0
  7  8  1  0
  7 13  1  0
  7 14  1  0
  8  9  1  0
  8 16  1  0
  9 17  1  0
M  RAD  1   8   2
M  END
>  <reaction>  (10) 
rmg_rxn_15485

>  <mol_properties>  (10) 
{"1": {"label": "*4", "atom_type": "N3d"}, "2": {"label": "*3", "atom_type": "Cd"}, "6": {"label": "*0", "atom_type": "Cs"}, "7": {"label": "*1", "atom_type": "Cs"}, "14": {"label": "*2", "atom_type": "H0"}}

>  <type>  (10) 
unop_6

>  <geom_source>  (10) 
Heuristics

$$$$

     RDKit          3D

 17 15  0  0  0  0  0  0  0  0999 V2000
    2.2493    2.4871    0.0770 O   0  0  0  0  0  0  0  0  0  0  0  0
    1.0700    1.8136   -0.1733 N   0  0  0  0  0  0  0  0  0  0  0  0
    1.2115    0.5628   -0.0783 C   0  0  0  0  0  0  0  0  0  0  0  0
    2.0048    3.4088   -0.0266 H   0  0  0  0  0  0  0  0  0  0  0  0
    2.1622    0.0973    0.1727 H   0  0  0  0  0  0  0  0  0  0  0  0
   -0.8454   -2.1800   -1.3255 C   0  0  0  0  0  0  0  0  0  0  0  0
   -0.8454   -2.1800    0.1970 C   0  0  0  0  0  0  0  0  0  0  0  0
   -0.8454   -0.7820    0.7977 C   0  0  0  0  0  3  0  0  0  0  0  0
   -1.9792   -0.0173    0.4346 O   0  0  0  0  0  0  0  0  0  0  0  0
    0.0538   -1.6956   -1.7130 H   0  0  0  0  0  0  0  0  0  0  0  0
   -1.7069   -1.6358   -1.7137 H   0  0  0  0  0  0  0  0  0  0  0  0
   -0.8762   -3.1962   -1.7211 H   0  0  0  0  0  0  0  0  0  0  0  0
   -1.7187   -2.7266    0.5713 H   0  0  0  0  0  0  0  0  0  0  0  0
    0.0320   -2.7134    0.5750 H   0  0  0  0  0  0  0  0  0  0  0  0
    0.1880   -0.1064    0.3576 H   0  0  0  0  0  0  0  0  0  0  0  0
   -0.7554   -0.8451    1.8895 H   0  0  0  0  0  0  0  0  0  0  0  0
   -2.7617   -0.4600    0.7672 H   0  0  0  0  0  0  0  0  0  0  0  0
  1  2  1  0
  1  4  1  0
  2  3  2  3
  3  5  1  0
  3 15  1  0
  6  7  1  0
  6 10  1  0
  6 11  1  0
  6 12  1  0
  7  8  1  0
  7 13  1  0
  7 14  1  0
  8  9  1  0
  8 16  1  0
  9 17  1  0
M  RAD  1   8   2
M  END
>  <reaction>  (11) 
rmg_rxn_15485

>  <mol_properties>  (11) 
{"1": {"label": "*4", "atom_type": "N3d"}, "2": {"label": "*3", "atom_type": "Cd"}, "6": {"label": "*0", "atom_type": "Cs"}, "7": {"label": "*1", "atom_type": "Cs"}, "14": {"label": "*2", "atom_type": "H0"}}

>  <type>  (11) 
unop_7

>  <geom_source>  (11) 
Heuristics

$$$$

     RDKit          3D

 17 15  0  0  0  0  0  0  0  0999 V2000
    2.9571    1.5355    0.2553 O   0  0  0  0  0  0  0  0  0  0  0  0
    2.0076    0.5468    0.0883 N   0  0  0  0  0  0  0  0  0  0  0  0
    0.8683    1.0253   -0.1694 C   0  0  0  0  0  0  0  0  0  0  0  0
    3.7592    1.0438    0.4421 H   0  0  0  0  0  0  0  0  0  0  0  0
    0.6846    2.0950   -0.2452 H   0  0  0  0  0  0  0  0  0  0  0  0
   -1.1886   -1.7174   -1.4166 C   0  0  0  0  0  0  0  0  0  0  0  0
   -1.1886   -1.7174    0.1059 C   0  0  0  0  0  0  0  0  0  0  0  0
   -1.1886   -0.3195    0.7066 C   0  0  0  0  0  3  0  0  0  0  0  0
   -2.3224    0.4453    0.3434 O   0  0  0  0  0  0  0  0  0  0  0  0
   -0.2894   -1.2331   -1.8041 H   0  0  0  0  0  0  0  0  0  0  0  0
   -2.0502   -1.1733   -1.8048 H   0  0  0  0  0  0  0  0  0  0  0  0
   -1.2194   -2.7336   -1.8122 H   0  0  0  0  0  0  0  0  0  0  0  0
   -2.0619   -2.2641    0.4802 H   0  0  0  0  0  0  0  0  0  0  0  0
   -0.3112   -2.2509    0.4838 H   0  0  0  0  0  0  0  0  0  0  0  0
   -0.1553    0.3562    0.2665 H   0  0  0  0  0  0  0  0  0  0  0  0
   -1.0986   -0.3826    1.7983 H   0  0  0  0  0  0  0  0  0  0  0  0
   -3.1049    0.0025    0.6761 H   0  0  0  0  0  0  0  0  0  0  0  0
  1  2  1  0
  1  4  1  0
  2  3  2  3
  3  5  1  0
  3 15  1  0
  6  7  1  0
  6 10  1  0
  6 11  1  0
  6 12  1  0
  7  8  1  0
  7 13  1  0
  7 14  1  0
  8  9  1  0
  8 16  1  0
  9 17  1  0
M  RAD  1   8   2
M  END
>  <reaction>  (12) 
rmg_rxn_15485

>  <mol_properties>  (12) 
{"1": {"label": "*4", "atom_type": "N3d"}, "2": {"label": "*3", "atom_type": "Cd"}, "6": {"label": "*0", "atom_type": "Cs"}, "7": {"label": "*1", "atom_type": "Cs"}, "14": {"label": "*2", "atom_type": "H0"}}

>  <type>  (12) 
unop_8

>  <geom_source>  (12) 
Heuristics

$$$$

     RDKit          3D

 17 15  0  0  0  0  0  0  0  0999 V2000
    3.1691    0.1170    0.2175 O   0  0  0  0  0  0  0  0  0  0  0  0
    1.7616   -0.0196    0.2565 N   0  0  0  0  0  0  0  0  0  0  0  0
    1.1567   -0.3337   -0.7799 C   0  0  0  0  0  0  0  0  0  0  0  0
    3.4119    0.3601    1.1210 H   0  0  0  0  0  0  0  0  0  0  0  0
    1.5627   -0.5335   -1.7646 H   0  0  0  0  0  0  0  0  0  0  0  0
   -1.4562    1.9821   -0.1811 C   0  0  0  0  0  0  0  0  0  0  0  0
   -1.7604    0.6617    0.5148 C   0  0  0  0  0  0  0  0  0  0  0  0
   -1.4424   -0.5241   -0.3675 C   0  0  0  0  0  3  0  0  0  0  0  0
   -1.6676   -1.7735    0.1901 O   0  0  0  0  0  0  0  0  0  0  0  0
   -0.3978    2.0464   -0.4202 H   0  0  0  0  0  0  0  0  0  0  0  0
   -1.7160    2.8174    0.4639 H   0  0  0  0  0  0  0  0  0  0  0  0
   -2.0256    2.0690   -1.1033 H   0  0  0  0  0  0  0  0  0  0  0  0
   -1.1715    0.5908    1.4344 H   0  0  0  0  0  0  0  0  0  0  0  0
   -2.8210    0.6321    0.7948 H   0  0  0  0  0  0  0  0  0  0  0  0
   -0.1254   -0.4279   -0.6279 H   0  0  0  0  0  0  0  0  0  0  0  0
   -1.9285   -0.5000   -1.3417 H   0  0  0  0  0  0  0  0  0  0  0  0
   -1.3667   -1.7705    1.1068 H   0  0  0  0  0  0  0  0  0  0  0  0
  1  2  1  0
  1  4  1  0
  2  3  2  3
  3  5  1  0
  3 15  1  0
  6  7  1  0
  6 10  1  0
  6 11  1  0
  6 12  1  0
  7  8  1  0
  7 13  1  0
  7 14  1  0
  8  9  1  0
  8 16  1  0
  9 17  1  0
M  RAD  1   8   2
M  END
>  <reaction>  (13) 
rmg_rxn_15485

>  <mol_properties>  (13) 
{"1": {"label": "*4", "atom_type": "N3d"}, "2": {"label": "*3", "atom_type": "Cd"}, "6": {"label": "*0", "atom_type": "Cs"}, "7": {"label": "*1", "atom_type": "Cs"}, "14": {"label": "*2", "atom_type": "H0"}}

>  <type>  (13) 
unop_9

>  <geom_source>  (13) 
Heuristics

$$$$

     RDKit          3D

 17 15  0  0  0  0  0  0  0  0999 V2000
    2.3829    2.3964   -0.2025 O   0  0  0  0  0  0  0  0  0  0  0  0
    1.2658    1.7752    0.3202 N   0  0  0  0  0  0  0  0  0  0  0  0
    1.1432    0.5917   -0.1017 C   0  0  0  0  0  0  0  0  0  0  0  0
    2.3560    3.2703    0.1921 H   0  0  0  0  0  0  0  0  0  0  0  0
    1.8494    0.1399   -0.7950 H   0  0  0  0  0  0  0  0  0  0  0  0
   -0.9137   -2.1510   -1.3489 C   0  0  0  0  0  0  0  0  0  0  0  0
   -0.9137   -2.1510    0.1736 C   0  0  0  0  0  0  0  0  0  0  0  0
   -0.9137   -0.7531    0.7743 C   0  0  0  0  0  3  0  0  0  0  0  0
   -2.0475    0.0117    0.4112 O   0  0  0  0  0  0  0  0  0  0  0  0
   -0.0144   -1.6667   -1.7363 H   0  0  0  0  0  0  0  0  0  0  0  0
   -1.7752   -1.6069   -1.7370 H   0  0  0  0  0  0  0  0  0  0  0  0
   -0.9445   -3.1672   -1.7444 H   0  0  0  0  0  0  0  0  0  0  0  0
   -1.7870   -2.6977    0.5480 H   0  0  0  0  0  0  0  0  0  0  0  0
   -0.0363   -2.6845    0.5516 H   0  0  0  0  0  0  0  0  0  0  0  0
    0.1197   -0.0774    0.3342 H   0  0  0  0  0  0  0  0  0  0  0  0
   -0.8237   -0.8162    1.8661 H   0  0  0  0  0  0  0  0  0  0  0  0
   -2.8300   -0.4311    0.7438 H   0  0  0  0  0  0  0  0  0  0  0  0
  1  2  1  0
  1  4  1  0
  2  3  2  3
  3  5  1  0
  3 15  1  0
  6  7  1  0
  6 10  1  0
  6 11  1  0
  6 12  1  0
  7  8  1  0
  7 13  1  0
  7 14  1  0
  8  9  1  0
  8 16  1  0
  9 17  1  0
M  RAD  1   8   2
M  END
>  <reaction>  (14) 
rmg_rxn_15485

>  <mol_properties>  (14) 
{"1": {"label": "*4", "atom_type": "N3d"}, "2": {"label": "*3", "atom_type": "Cd"}, "6": {"label": "*0", "atom_type": "Cs"}, "7": {"label": "*1", "atom_type": "Cs"}, "14": {"label": "*2", "atom_type": "H0"}}

>  <type>  (14) 
unop_10

>  <geom_source>  (14) 
Heuristics

$$$$

     RDKit          3D

 17 15  0  0  0  0  0  0  0  0999 V2000
    3.1661   -0.1252   -0.2209 O   0  0  0  0  0  0  0  0  0  0  0  0
    1.7596    0.0220   -0.2554 N   0  0  0  0  0  0  0  0  0  0  0  0
    1.1565    0.3072    0.7903 C   0  0  0  0  0  0  0  0  0  0  0  0
    3.4073   -0.3412   -1.1318 H   0  0  0  0  0  0  0  0  0  0  0  0
    1.5635    0.4732    1.7809 H   0  0  0  0  0  0  0  0  0  0  0  0
   -1.4808   -1.9765    0.1745 C   0  0  0  0  0  0  0  0  0  0  0  0
   -1.7610   -0.6502   -0.5206 C   0  0  0  0  0  0  0  0  0  0  0  0
   -1.4384    0.5288    0.3689 C   0  0  0  0  0  3  0  0  0  0  0  0
   -1.6436    1.7826   -0.1861 O   0  0  0  0  0  0  0  0  0  0  0  0
   -2.0640   -2.0604    1.0884 H   0  0  0  0  0  0  0  0  0  0  0  0
   -0.4266   -2.0532    0.4283 H   0  0  0  0  0  0  0  0  0  0  0  0
   -1.7405   -2.8067   -0.4771 H   0  0  0  0  0  0  0  0  0  0  0  0
   -1.1606   -0.5835   -1.4331 H   0  0  0  0  0  0  0  0  0  0  0  0
   -2.8179   -0.6069   -0.8126 H   0  0  0  0  0  0  0  0  0  0  0  0
   -0.1245    0.4161    0.6386 H   0  0  0  0  0  0  0  0  0  0  0  0
   -1.9337    0.5068    1.3386 H   0  0  0  0  0  0  0  0  0  0  0  0
   -1.3328    1.7796   -1.0994 H   0  0  0  0  0  0  0  0  0  0  0  0
  1  2  1  0
  1  4  1  0
  2  3  2  3
  3  5  1  0
  3 15  1  0
  6  7  1  0
  6 10  1  0
  6 11  1  0
  6 12  1  0
  7  8  1  0
  7 13  1  0
  7 14  1  0
  8  9  1  0
  8 16  1  0
  9 17  1  0
M  RAD  1   8   2
M  END
>  <reaction>  (15) 
rmg_rxn_15485

>  <mol_properties>  (15) 
{"1": {"label": "*4", "atom_type": "N3d"}, "2": {"label": "*3", "atom_type": "Cd"}, "6": {"label": "*0", "atom_type": "Cs"}, "7": {"label": "*1", "atom_type": "Cs"}, "14": {"label": "*2", "atom_type": "H0"}}

>  <type>  (15) 
unop_11

>  <geom_source>  (15) 
Heuristics

$$$$

     RDKit          3D

 17 15  0  0  0  0  0  0  0  0999 V2000
    2.6463    2.0039    0.5001 O   0  0  0  0  0  0  0  0  0  0  0  0
    2.0041    0.7859    0.3952 N   0  0  0  0  0  0  0  0  0  0  0  0
    0.9438    0.8684   -0.2849 C   0  0  0  0  0  0  0  0  0  0  0  0
    3.4197    1.8022    1.0304 H   0  0  0  0  0  0  0  0  0  0  0  0
    0.6002    1.8022   -0.7248 H   0  0  0  0  0  0  0  0  0  0  0  0
   -1.1130   -1.8744   -1.5321 C   0  0  0  0  0  0  0  0  0  0  0  0
   -1.1130   -1.8744   -0.0096 C   0  0  0  0  0  0  0  0  0  0  0  0
   -1.1130   -0.4764    0.5911 C   0  0  0  0  0  3  0  0  0  0  0  0
   -2.2468    0.2883    0.2280 O   0  0  0  0  0  0  0  0  0  0  0  0
   -0.2138   -1.3900   -1.9196 H   0  0  0  0  0  0  0  0  0  0  0  0
   -1.9746   -1.3303   -1.9203 H   0  0  0  0  0  0  0  0  0  0  0  0
   -1.1438   -2.8906   -1.9277 H   0  0  0  0  0  0  0  0  0  0  0  0
   -1.9863   -2.4210    0.3647 H   0  0  0  0  0  0  0  0  0  0  0  0
   -0.2356   -2.4078    0.3684 H   0  0  0  0  0  0  0  0  0  0  0  0
   -0.0797    0.1992    0.1510 H   0  0  0  0  0  0  0  0  0  0  0  0
   -1.0230   -0.5396    1.6828 H   0  0  0  0  0  0  0  0  0  0  0  0
   -3.0293   -0.1544    0.5606 H   0  0  0  0  0  0  0  0  0  0  0  0
  1  2  1  0
  1  4  1  0
  2  3  2  3
  3  5  1  0
  3 15  1  0
  6  7  1  0
  6 10  1  0
  6 11  1  0
  6 12  1  0
  7  8  1  0
  7 13  1  0
  7 14  1  0
  8  9  1  0
  8 16  1  0
  9 17  1  0
M  RAD  1   8   2
M  END
>  <reaction>  (16) 
rmg_rxn_15485

>  <mol_properties>  (16) 
{"1": {"label": "*4", "atom_type": "N3d"}, "2": {"label": "*3", "atom_type": "Cd"}, "6": {"label": "*0", "atom_type": "Cs"}, "7": {"label": "*1", "atom_type": "Cs"}, "14": {"label": "*2", "atom_type": "H0"}}

>  <type>  (16) 
unop_12

>  <geom_source>  (16) 
Heuristics

$$$$

     RDKit          3D

 17 15  0  0  0  0  0  0  0  0999 V2000
    3.1684    0.1203    0.2182 O   0  0  0  0  0  0  0  0  0  0  0  0
    1.7617   -0.0242    0.2572 N   0  0  0  0  0  0  0  0  0  0  0  0
    1.1563   -0.3208   -0.7841 C   0  0  0  0  0  0  0  0  0  0  0  0
    3.4120    0.3456    1.1261 H   0  0  0  0  0  0  0  0  0  0  0  0
    1.5613   -0.4986   -1.7735 H   0  0  0  0  0  0  0  0  0  0  0  0
   -1.4645    1.9802   -0.1773 C   0  0  0  0  0  0  0  0  0  0  0  0
   -1.7615    0.6573    0.5170 C   0  0  0  0  0  0  0  0  0  0  0  0
   -1.4411   -0.5256   -0.3683 C   0  0  0  0  0  3  0  0  0  0  0  0
   -1.6595   -1.7769    0.1875 O   0  0  0  0  0  0  0  0  0  0  0  0
   -1.7247    2.8134    0.4702 H   0  0  0  0  0  0  0  0  0  0  0  0
   -2.0376    2.0669   -1.0973 H   0  0  0  0  0  0  0  0  0  0  0  0
   -0.4072    2.0487   -0.4203 H   0  0  0  0  0  0  0  0  0  0  0  0
   -1.1696    0.5870    1.4348 H   0  0  0  0  0  0  0  0  0  0  0  0
   -2.8212    0.6230    0.8000 H   0  0  0  0  0  0  0  0  0  0  0  0
   -0.1252   -0.4230   -0.6314 H   0  0  0  0  0  0  0  0  0  0  0  0
   -1.9299   -0.5017   -1.3412 H   0  0  0  0  0  0  0  0  0  0  0  0
   -1.3551   -1.7745    1.1030 H   0  0  0  0  0  0  0  0  0  0  0  0
  1  2  1  0
  1  4  1  0
  2  3  2  3
  3  5  1  0
  3 15  1  0
  6  7  1  0
  6 10  1  0
  6 11  1  0
  6 12  1  0
  7  8  1  0
  7 13  1  0
  7 14  1  0
  8  9  1  0
  8 16  1  0
  9 17  1  0
M  RAD  1   8   2
M  END
>  <reaction>  (17) 
rmg_rxn_15485

>  <mol_properties>  (17) 
{"1": {"label": "*4", "atom_type": "N3d"}, "2": {"label": "*3", "atom_type": "Cd"}, "6": {"label": "*0", "atom_type": "Cs"}, "7": {"label": "*1", "atom_type": "Cs"}, "14": {"label": "*2", "atom_type": "H0"}}

>  <type>  (17) 
unop_13

>  <geom_source>  (17) 
Heuristics

$$$$

     RDKit          3D

 17 15  0  0  0  0  0  0  0  0999 V2000
    2.2796    2.4169    0.3389 O   0  0  0  0  0  0  0  0  0  0  0  0
    1.8729    1.1208    0.5878 N   0  0  0  0  0  0  0  0  0  0  0  0
    1.0564    0.7072   -0.2815 C   0  0  0  0  0  0  0  0  0  0  0  0
    2.8850    2.6019    1.0596 H   0  0  0  0  0  0  0  0  0  0  0  0
    0.7290    1.3210   -1.1179 H   0  0  0  0  0  0  0  0  0  0  0  0
   -1.0005   -2.0356   -1.5287 C   0  0  0  0  0  0  0  0  0  0  0  0
   -1.0005   -2.0356   -0.0062 C   0  0  0  0  0  0  0  0  0  0  0  0
   -1.0005   -0.6376    0.5945 C   0  0  0  0  0  3  0  0  0  0  0  0
   -2.1343    0.1271    0.2314 O   0  0  0  0  0  0  0  0  0  0  0  0
   -0.1012   -1.5512   -1.9161 H   0  0  0  0  0  0  0  0  0  0  0  0
   -1.8620   -1.4915   -1.9168 H   0  0  0  0  0  0  0  0  0  0  0  0
   -1.0312   -3.0518   -1.9243 H   0  0  0  0  0  0  0  0  0  0  0  0
   -1.8738   -2.5822    0.3682 H   0  0  0  0  0  0  0  0  0  0  0  0
   -0.1230   -2.5690    0.3718 H   0  0  0  0  0  0  0  0  0  0  0  0
    0.0329    0.0380    0.1544 H   0  0  0  0  0  0  0  0  0  0  0  0
   -0.9104   -0.7008    1.6863 H   0  0  0  0  0  0  0  0  0  0  0  0
   -2.9167   -0.3156    0.5640 H   0  0  0  0  0  0  0  0  0  0  0  0
  1  2  1  0
  1  4  1  0
  2  3  2  3
  3  5  1  0
  3 15  1  0
  6  7  1  0
  6 10  1  0
  6 11  1  0
  6 12  1  0
  7  8  1  0
  7 13  1  0
  7 14  1  0
  8  9  1  0
  8 16  1  0
  9 17  1  0
M  RAD  1   8   2
M  END
>  <reaction>  (18) 
rmg_rxn_15485

>  <mol_properties>  (18) 
{"1": {"label": "*4", "atom_type": "N3d"}, "2": {"label": "*3", "atom_type": "Cd"}, "6": {"label": "*0", "atom_type": "Cs"}, "7": {"label": "*1", "atom_type": "Cs"}, "14": {"label": "*2", "atom_type": "H0"}}

>  <type>  (18) 
unop_14

>  <geom_source>  (18) 
Heuristics

$$$$

     RDKit          3D

 17 15  0  0  0  0  0  0  0  0999 V2000
    3.1670   -0.1148   -0.2179 O   0  0  0  0  0  0  0  0  0  0  0  0
    1.7597    0.0231   -0.2563 N   0  0  0  0  0  0  0  0  0  0  0  0
    1.1555    0.3385    0.7802 C   0  0  0  0  0  0  0  0  0  0  0  0
    3.4090   -0.3591   -1.1213 H   0  0  0  0  0  0  0  0  0  0  0  0
    1.5627    0.5383    1.7645 H   0  0  0  0  0  0  0  0  0  0  0  0
   -1.4471   -1.9840    0.1822 C   0  0  0  0  0  0  0  0  0  0  0  0
   -1.7559   -0.6652   -0.5147 C   0  0  0  0  0  0  0  0  0  0  0  0
   -1.4439    0.5224    0.3673 C   0  0  0  0  0  3  0  0  0  0  0  0
   -1.6739    1.7706   -0.1909 O   0  0  0  0  0  0  0  0  0  0  0  0
   -1.7034   -2.8208   -0.4623 H   0  0  0  0  0  0  0  0  0  0  0  0
   -2.0166   -2.0723    1.1042 H   0  0  0  0  0  0  0  0  0  0  0  0
   -0.3886   -2.0441    0.4219 H   0  0  0  0  0  0  0  0  0  0  0  0
   -1.1659   -0.5923   -1.4335 H   0  0  0  0  0  0  0  0  0  0  0  0
   -2.8162   -0.6402   -0.7962 H   0  0  0  0  0  0  0  0  0  0  0  0
   -0.1267    0.4311    0.6287 H   0  0  0  0  0  0  0  0  0  0  0  0
   -1.9307    0.4967    1.3412 H   0  0  0  0  0  0  0  0  0  0  0  0
   -1.3734    1.7686   -1.1076 H   0  0  0  0  0  0  0  0  0  0  0  0
  1  2  1  0
  1  4  1  0
  2  3  2  3
  3  5  1  0
  3 15  1  0
  6  7  1  0
  6 10  1  0
  6 11  1  0
  6 12  1  0
  7  8  1  0
  7 13  1  0
  7 14  1  0
  8  9  1  0
  8 16  1  0
  9 17  1  0
M  RAD  1   8   2
M  END
>  <reaction>  (19) 
rmg_rxn_15485

>  <mol_properties>  (19) 
{"1": {"label": "*4", "atom_type": "N3d"}, "2": {"label": "*3", "atom_type": "Cd"}, "6": {"label": "*0", "atom_type": "Cs"}, "7": {"label": "*1", "atom_type": "Cs"}, "14": {"label": "*2", "atom_type": "H0"}}

>  <type>  (19) 
unop_15

>  <geom_source>  (19) 
Heuristics

$$$$

     RDKit          3D

 17 15  0  0  0  0  0  0  0  0999 V2000
    1.7588    2.5435   -0.7555 O   0  0  0  0  0  0  0  0  0  0  0  0
    1.1464    1.3073   -0.8184 N   0  0  0  0  0  0  0  0  0  0  0  0
    1.3157    0.6423    0.2412 C   0  0  0  0  0  0  0  0  0  0  0  0
    1.5555    2.9355   -1.6070 H   0  0  0  0  0  0  0  0  0  0  0  0
    1.8820    1.0230    1.0885 H   0  0  0  0  0  0  0  0  0  0  0  0
   -0.7412   -2.1004   -1.0060 C   0  0  0  0  0  0  0  0  0  0  0  0
   -0.7412   -2.1004    0.5164 C   0  0  0  0  0  0  0  0  0  0  0  0
   -0.7412   -0.7025    1.1172 C   0  0  0  0  0  3  0  0  0  0  0  0
   -1.8750    0.0623    0.7540 O   0  0  0  0  0  0  0  0  0  0  0  0
    0.1581   -1.6161   -1.3935 H   0  0  0  0  0  0  0  0  0  0  0  0
   -1.6027   -1.5563   -1.3942 H   0  0  0  0  0  0  0  0  0  0  0  0
   -0.7720   -3.1166   -1.4016 H   0  0  0  0  0  0  0  0  0  0  0  0
   -1.6145   -2.6471    0.8908 H   0  0  0  0  0  0  0  0  0  0  0  0
    0.1362   -2.6339    0.8944 H   0  0  0  0  0  0  0  0  0  0  0  0
    0.2922   -0.0268    0.6771 H   0  0  0  0  0  0  0  0  0  0  0  0
   -0.6512   -0.7656    2.2089 H   0  0  0  0  0  0  0  0  0  0  0  0
   -2.6575   -0.3805    1.0866 H   0  0  0  0  0  0  0  0  0  0  0  0
  1  2  1  0
  1  4  1  0
  2  3  2  3
  3  5  1  0
  3 15  1  0
  6  7  1  0
  6 10  1  0
  6 11  1  0
  6 12  1  0
  7  8  1  0
  7 13  1  0
  7 14  1  0
  8  9  1  0
  8 16  1  0
  9 17  1  0
M  RAD  1   8   2
M  END
>  <reaction>  (20) 
rmg_rxn_15485

>  <mol_properties>  (20) 
{"1": {"label": "*4", "atom_type": "N3d"}, "2": {"label": "*3", "atom_type": "Cd"}, "6": {"label": "*0", "atom_type": "Cs"}, "7": {"label": "*1", "atom_type": "Cs"}, "14": {"label": "*2", "atom_type": "H0"}}

>  <type>  (20) 
unop_16

>  <geom_source>  (20) 
Heuristics

$$$$

     RDKit          3D

 17 15  0  0  0  0  0  0  0  0999 V2000
    3.1695   -0.1235   -0.2182 O   0  0  0  0  0  0  0  0  0  0  0  0
    1.7634    0.0258   -0.2580 N   0  0  0  0  0  0  0  0  0  0  0  0
    1.1566    0.3091    0.7862 C   0  0  0  0  0  0  0  0  0  0  0  0
    3.4143   -0.3363   -1.1289 H   0  0  0  0  0  0  0  0  0  0  0  0
    1.5598    0.4713    1.7790 H   0  0  0  0  0  0  0  0  0  0  0  0
   -1.4740   -1.9779    0.1738 C   0  0  0  0  0  0  0  0  0  0  0  0
   -1.7663   -0.6526   -0.5179 C   0  0  0  0  0  0  0  0  0  0  0  0
   -1.4395    0.5274    0.3690 C   0  0  0  0  0  3  0  0  0  0  0  0
   -1.6509    1.7806   -0.1852 O   0  0  0  0  0  0  0  0  0  0  0  0
   -0.4164   -2.0523    0.4135 H   0  0  0  0  0  0  0  0  0  0  0  0
   -1.7407   -2.8088   -0.4740 H   0  0  0  0  0  0  0  0  0  0  0  0
   -2.0448   -2.0628    1.0954 H   0  0  0  0  0  0  0  0  0  0  0  0
   -1.1755   -0.5833   -1.4365 H   0  0  0  0  0  0  0  0  0  0  0  0
   -2.8262   -0.6132   -0.7992 H   0  0  0  0  0  0  0  0  0  0  0  0
   -0.1242    0.4172    0.6325 H   0  0  0  0  0  0  0  0  0  0  0  0
   -1.9287    0.5049    1.3418 H   0  0  0  0  0  0  0  0  0  0  0  0
   -1.3456    1.7780   -1.1004 H   0  0  0  0  0  0  0  0  0  0  0  0
  1  2  1  0
  1  4  1  0
  2  3  2  3
  3  5  1  0
  3 15  1  0
  6  7  1  0
  6 10  1  0
  6 11  1  0
  6 12  1  0
  7  8  1  0
  7 13  1  0
  7 14  1  0
  8  9  1  0
  8 16  1  0
  9 17  1  0
M  RAD  1   8   2
M  END
>  <reaction>  (21) 
rmg_rxn_15485

>  <mol_properties>  (21) 
{"1": {"label": "*4", "atom_type": "N3d"}, "2": {"label": "*3", "atom_type": "Cd"}, "6": {"label": "*0", "atom_type": "Cs"}, "7": {"label": "*1", "atom_type": "Cs"}, "14": {"label": "*2", "atom_type": "H0"}}

>  <type>  (21) 
unop_17

>  <geom_source>  (21) 
Heuristics

$$$$

     RDKit          3D

 17 15  0  0  0  0  0  0  0  0999 V2000
    3.0298    1.2414   -0.3198 O   0  0  0  0  0  0  0  0  0  0  0  0
    1.9025    0.4465   -0.2525 N   0  0  0  0  0  0  0  0  0  0  0  0
    0.8701    1.1147    0.0320 C   0  0  0  0  0  0  0  0  0  0  0  0
    3.7268    0.6200   -0.5390 H   0  0  0  0  0  0  0  0  0  0  0  0
    0.8945    2.1894    0.1993 H   0  0  0  0  0  0  0  0  0  0  0  0
   -1.1868   -1.6280   -1.2152 C   0  0  0  0  0  0  0  0  0  0  0  0
   -1.1868   -1.6280    0.3073 C   0  0  0  0  0  0  0  0  0  0  0  0
   -1.1868   -0.2301    0.9080 C   0  0  0  0  0  3  0  0  0  0  0  0
   -2.3206    0.5347    0.5448 O   0  0  0  0  0  0  0  0  0  0  0  0
   -0.2876   -1.1437   -1.6027 H   0  0  0  0  0  0  0  0  0  0  0  0
   -2.0483   -1.0839   -1.6034 H   0  0  0  0  0  0  0  0  0  0  0  0
   -1.2176   -2.6442   -1.6108 H   0  0  0  0  0  0  0  0  0  0  0  0
   -2.0601   -2.1747    0.6816 H   0  0  0  0  0  0  0  0  0  0  0  0
   -0.3094   -2.1615    0.6852 H   0  0  0  0  0  0  0  0  0  0  0  0
   -0.1534    0.4456    0.4679 H   0  0  0  0  0  0  0  0  0  0  0  0
   -1.0968   -0.2932    1.9997 H   0  0  0  0  0  0  0  0  0  0  0  0
   -3.1031    0.0919    0.8775 H   0  0  0  0  0  0  0  0  0  0  0  0
  1  2  1  0
  1  4  1  0
  2  3  2  3
  3  5  1  0
  3 15  1  0
  6  7  1  0
  6 10  1  0
  6 11  1  0
  6 12  1  0
  7  8  1  0
  7 13  1  0
  7 14  1  0
  8  9  1  0
  8 16  1  0
  9 17  1  0
M  RAD  1   8   2
M  END
>  <reaction>  (22) 
rmg_rxn_15485

>  <mol_properties>  (22) 
{"1": {"label": "*4", "atom_type": "N3d"}, "2": {"label": "*3", "atom_type": "Cd"}, "6": {"label": "*0", "atom_type": "Cs"}, "7": {"label": "*1", "atom_type": "Cs"}, "14": {"label": "*2", "atom_type": "H0"}}

>  <type>  (22) 
unop_18

>  <geom_source>  (22) 
Heuristics

$$$$

     RDKit          3D

 17 15  0  0  0  0  0  0  0  0999 V2000
    1.9217    2.1650   -1.2095 O   0  0  0  0  0  0  0  0  0  0  0  0
    1.3191    0.9654   -0.8857 N   0  0  0  0  0  0  0  0  0  0  0  0
    1.2446    0.7965    0.3630 C   0  0  0  0  0  0  0  0  0  0  0  0
    1.9138    2.1656   -2.1687 H   0  0  0  0  0  0  0  0  0  0  0  0
    1.6193    1.5268    1.0772 H   0  0  0  0  0  0  0  0  0  0  0  0
   -0.8123   -1.9462   -0.8841 C   0  0  0  0  0  0  0  0  0  0  0  0
   -0.8123   -1.9462    0.6383 C   0  0  0  0  0  0  0  0  0  0  0  0
   -0.8123   -0.5483    1.2390 C   0  0  0  0  0  3  0  0  0  0  0  0
   -1.9461    0.2165    0.8759 O   0  0  0  0  0  0  0  0  0  0  0  0
    0.0870   -1.4619   -1.2716 H   0  0  0  0  0  0  0  0  0  0  0  0
   -1.6738   -1.4021   -1.2723 H   0  0  0  0  0  0  0  0  0  0  0  0
   -0.8430   -2.9624   -1.2797 H   0  0  0  0  0  0  0  0  0  0  0  0
   -1.6856   -2.4929    1.0127 H   0  0  0  0  0  0  0  0  0  0  0  0
    0.0652   -2.4797    1.0163 H   0  0  0  0  0  0  0  0  0  0  0  0
    0.2211    0.1273    0.7989 H   0  0  0  0  0  0  0  0  0  0  0  0
   -0.7223   -0.6114    2.3308 H   0  0  0  0  0  0  0  0  0  0  0  0
   -2.7285   -0.2263    1.2085 H   0  0  0  0  0  0  0  0  0  0  0  0
  1  2  1  0
  1  4  1  0
  2  3  2  3
  3  5  1  0
  3 15  1  0
  6  7  1  0
  6 10  1  0
  6 11  1  0
  6 12  1  0
  7  8  1  0
  7 13  1  0
  7 14  1  0
  8  9  1  0
  8 16  1  0
  9 17  1  0
M  RAD  1   8   2
M  END
>  <reaction>  (23) 
rmg_rxn_15485

>  <mol_properties>  (23) 
{"1": {"label": "*4", "atom_type": "N3d"}, "2": {"label": "*3", "atom_type": "Cd"}, "6": {"label": "*0", "atom_type": "Cs"}, "7": {"label": "*1", "atom_type": "Cs"}, "14": {"label": "*2", "atom_type": "H0"}}

>  <type>  (23) 
unop_19

>  <geom_source>  (23) 
Heuristics

$$$$

     RDKit          3D

 17 15  0  0  0  0  0  0  0  0999 V2000
    2.1267    2.5616   -0.0964 O   0  0  0  0  0  0  0  0  0  0  0  0
    1.6142    1.4827    0.5967 N   0  0  0  0  0  0  0  0  0  0  0  0
    1.1409    0.6057   -0.1781 C   0  0  0  0  0  0  0  0  0  0  0  0
    2.4467    3.1402    0.5985 H   0  0  0  0  0  0  0  0  0  0  0  0
    1.1491    0.7133   -1.2607 H   0  0  0  0  0  0  0  0  0  0  0  0
   -0.9160   -2.1371   -1.4253 C   0  0  0  0  0  0  0  0  0  0  0  0
   -0.9160   -2.1371    0.0972 C   0  0  0  0  0  0  0  0  0  0  0  0
   -0.9160   -0.7391    0.6979 C   0  0  0  0  0  3  0  0  0  0  0  0
   -2.0498    0.0256    0.3347 O   0  0  0  0  0  0  0  0  0  0  0  0
   -0.0167   -1.6527   -1.8128 H   0  0  0  0  0  0  0  0  0  0  0  0
   -1.7775   -1.5929   -1.8135 H   0  0  0  0  0  0  0  0  0  0  0  0
   -0.9467   -3.1533   -1.8209 H   0  0  0  0  0  0  0  0  0  0  0  0
   -1.7893   -2.6837    0.4715 H   0  0  0  0  0  0  0  0  0  0  0  0
   -0.0386   -2.6705    0.4751 H   0  0  0  0  0  0  0  0  0  0  0  0
    0.1174   -0.0635    0.2578 H   0  0  0  0  0  0  0  0  0  0  0  0
   -0.8260   -0.8022    1.7896 H   0  0  0  0  0  0  0  0  0  0  0  0
   -2.8322   -0.4171    0.6674 H   0  0  0  0  0  0  0  0  0  0  0  0
  1  2  1  0
  1  4  1  0
  2  3  2  3
  3  5  1  0
  3 15  1  0
  6  7  1  0
  6 10  1  0
  6 11  1  0
  6 12  1  0
  7  8  1  0
  7 13  1  0
  7 14  1  0
  8  9  1  0
  8 16  1  0
  9 17  1  0
M  RAD  1   8   2
M  END
>  <reaction>  (24) 
rmg_rxn_15485

>  <mol_properties>  (24) 
{"1": {"label": "*4", "atom_type": "N3d"}, "2": {"label": "*3", "atom_type": "Cd"}, "6": {"label": "*0", "atom_type": "Cs"}, "7": {"label": "*1", "atom_type": "Cs"}, "14": {"label": "*2", "atom_type": "H0"}}

>  <type>  (24) 
unop_20

>  <geom_source>  (24) 
Heuristics

$$$$

     RDKit          3D

 17 15  0  0  0  0  0  0  0  0999 V2000
    2.7830    1.2910   -0.9602 O   0  0  0  0  0  0  0  0  0  0  0  0
    1.7297    0.4933   -0.5585 N   0  0  0  0  0  0  0  0  0  0  0  0
    0.9614    1.0942    0.2427 C   0  0  0  0  0  0  0  0  0  0  0  0
    3.2778    0.7230   -1.5540 H   0  0  0  0  0  0  0  0  0  0  0  0
    1.1329    2.1199    0.5622 H   0  0  0  0  0  0  0  0  0  0  0  0
   -1.0955   -1.6486   -1.0044 C   0  0  0  0  0  0  0  0  0  0  0  0
   -1.0955   -1.6486    0.5180 C   0  0  0  0  0  0  0  0  0  0  0  0
   -1.0955   -0.2506    1.1187 C   0  0  0  0  0  3  0  0  0  0  0  0
   -2.2293    0.5141    0.7556 O   0  0  0  0  0  0  0  0  0  0  0  0
   -0.1962   -1.1642   -1.3919 H   0  0  0  0  0  0  0  0  0  0  0  0
   -1.9570   -1.1045   -1.3926 H   0  0  0  0  0  0  0  0  0  0  0  0
   -1.1263   -2.6648   -1.4000 H   0  0  0  0  0  0  0  0  0  0  0  0
   -1.9688   -2.1952    0.8924 H   0  0  0  0  0  0  0  0  0  0  0  0
   -0.2181   -2.1821    0.8960 H   0  0  0  0  0  0  0  0  0  0  0  0
   -0.0621    0.4250    0.6786 H   0  0  0  0  0  0  0  0  0  0  0  0
   -1.0055   -0.3138    2.2105 H   0  0  0  0  0  0  0  0  0  0  0  0
   -3.0118    0.0714    1.0882 H   0  0  0  0  0  0  0  0  0  0  0  0
  1  2  1  0
  1  4  1  0
  2  3  2  3
  3  5  1  0
  3 15  1  0
  6  7  1  0
  6 10  1  0
  6 11  1  0
  6 12  1  0
  7  8  1  0
  7 13  1  0
  7 14  1  0
  8  9  1  0
  8 16  1  0
  9 17  1  0
M  RAD  1   8   2
M  END
>  <reaction>  (25) 
rmg_rxn_15485

>  <mol_properties>  (25) 
{"1": {"label": "*4", "atom_type": "N3d"}, "2": {"label": "*3", "atom_type": "Cd"}, "6": {"label": "*0", "atom_type": "Cs"}, "7": {"label": "*1", "atom_type": "Cs"}, "14": {"label": "*2", "atom_type": "H0"}}

>  <type>  (25) 
unop_21

>  <geom_source>  (25) 
Heuristics

$$$$

     RDKit          3D

 17 15  0  0  0  0  0  0  0  0999 V2000
    3.1701    0.1155    0.2168 O   0  0  0  0  0  0  0  0  0  0  0  0
    1.7621   -0.0166    0.2561 N   0  0  0  0  0  0  0  0  0  0  0  0
    1.1573   -0.3421   -0.7769 C   0  0  0  0  0  0  0  0  0  0  0  0
    3.4127    0.3696    1.1173 H   0  0  0  0  0  0  0  0  0  0  0  0
    1.5636   -0.5558   -1.7586 H   0  0  0  0  0  0  0  0  0  0  0  0
   -1.4529    1.9832   -0.1838 C   0  0  0  0  0  0  0  0  0  0  0  0
   -1.7592    0.6642    0.5138 C   0  0  0  0  0  0  0  0  0  0  0  0
   -1.4429   -0.5232   -0.3668 C   0  0  0  0  0  3  0  0  0  0  0  0
   -1.6731   -1.7715    0.1914 O   0  0  0  0  0  0  0  0  0  0  0  0
   -0.3944    2.0456   -0.4228 H   0  0  0  0  0  0  0  0  0  0  0  0
   -1.7117    2.8198    0.4600 H   0  0  0  0  0  0  0  0  0  0  0  0
   -2.0220    2.0696   -1.1063 H   0  0  0  0  0  0  0  0  0  0  0  0
   -1.1706    0.5937    1.4336 H   0  0  0  0  0  0  0  0  0  0  0  0
   -2.8200    0.6366    0.7936 H   0  0  0  0  0  0  0  0  0  0  0  0
   -0.1252   -0.4313   -0.6251 H   0  0  0  0  0  0  0  0  0  0  0  0
   -1.9269   -0.4985   -1.3421 H   0  0  0  0  0  0  0  0  0  0  0  0
   -1.3761   -1.7680    1.1093 H   0  0  0  0  0  0  0  0  0  0  0  0
  1  2  1  0
  1  4  1  0
  2  3  2  3
  3  5  1  0
  3 15  1  0
  6  7  1  0
  6 10  1  0
  6 11  1  0
  6 12  1  0
  7  8  1  0
  7 13  1  0
  7 14  1  0
  8  9  1  0
  8 16  1  0
  9 17  1  0
M  RAD  1   8   2
M  END
>  <reaction>  (26) 
rmg_rxn_15485

>  <mol_properties>  (26) 
{"1": {"label": "*4", "atom_type": "N3d"}, "2": {"label": "*3", "atom_type": "Cd"}, "6": {"label": "*0", "atom_type": "Cs"}, "7": {"label": "*1", "atom_type": "Cs"}, "14": {"label": "*2", "atom_type": "H0"}}

>  <type>  (26) 
unop_22

>  <geom_source>  (26) 
Heuristics

$$$$

     RDKit          3D

 17 15  0  0  0  0  0  0  0  0999 V2000
   -0.9086   -1.5703   -1.0428 O   0  0  0  0  0  0  0  0  0  0  0  0
    2.7969   -0.0509    0.9437 O   0  0  0  0  0  0  0  0  0  0  0  0
    2.7702    0.6004   -0.2667 N   0  0  0  0  0  0  0  0  0  0  0  0
   -1.1653   -0.0100    0.7874 C   0  0  0  0  0  0  0  0  0  0  0  0
   -1.8954    1.0564   -0.0221 C   0  0  0  0  0  0  0  0  0  0  0  0
   -0.2086   -0.8128   -0.0932 C   0  0  0  0  0  3  0  0  0  0  0  0
    1.8491    0.3332   -1.1316 C   0  0  0  0  0  0  0  0  0  0  0  0
   -1.9032   -0.6906    1.2647 H   0  0  0  0  0  0  0  0  0  0  0  0
   -0.5800    0.4877    1.5900 H   0  0  0  0  0  0  0  0  0  0  0  0
   -2.5493    1.6503    0.6507 H   0  0  0  0  0  0  0  0  0  0  0  0
   -1.1648    1.7409   -0.5039 H   0  0  0  0  0  0  0  0  0  0  0  0
   -2.5281    0.5851   -0.8039 H   0  0  0  0  0  0  0  0  0  0  0  0
    0.4439   -1.4658    0.5293 H   0  0  0  0  0  0  0  0  0  0  0  0
    1.8357    0.8503   -2.0812 H   0  0  0  0  0  0  0  0  0  0  0  0
    0.9737   -0.5174   -0.8800 H   0  0  0  0  0  0  0  0  0  0  0  0
   -1.2872   -2.3493   -0.5577 H   0  0  0  0  0  0  0  0  0  0  0  0
    3.5212    0.1627    1.6175 H   0  0  0  0  0  0  0  0  0  0  0  0
  1  6  1  0
  1 16  1  0
  2  3  1  0
  2 17  1  0
  3  7  2  3
  4  5  1  0
  4  6  1  0
  4  8  1  0
  4  9  1  0
  5 10  1  0
  5 11  1  0
  5 12  1  0
  6 13  1  0
  7 14  1  0
  7 15  1  0
M  RAD  1   6   2
M  END
>  <reaction>  (27) 
rmg_rxn_15485

>  <mol_properties>  (27) 
{"1": {"label": "*4", "atom_type": "N3d"}, "2": {"label": "*3", "atom_type": "Cd"}, "6": {"label": "*0", "atom_type": "Cs"}, "7": {"label": "*1", "atom_type": "Cs"}, "14": {"label": "*2", "atom_type": "H0"}}

>  <type>  (27) 
unop_23

>  <geom_source>  (27) 
AutoTST

$$$$

     RDKit          3D

 17 15  0  0  0  0  0  0  0  0999 V2000
    2.3279    1.6681   -1.3128 O   0  0  0  0  0  0  0  0  0  0  0  0
    1.5263    0.6752   -0.7849 N   0  0  0  0  0  0  0  0  0  0  0  0
    1.1085    0.9697    0.3694 C   0  0  0  0  0  0  0  0  0  0  0  0
    2.5713    1.3225   -2.1738 H   0  0  0  0  0  0  0  0  0  0  0  0
    1.3657    1.9030    0.8659 H   0  0  0  0  0  0  0  0  0  0  0  0
   -0.9483   -1.7730   -0.8778 C   0  0  0  0  0  0  0  0  0  0  0  0
   -0.9483   -1.7730    0.6447 C   0  0  0  0  0  0  0  0  0  0  0  0
   -0.9483   -0.3750    1.2454 C   0  0  0  0  0  3  0  0  0  0  0  0
   -2.0821    0.3897    0.8822 O   0  0  0  0  0  0  0  0  0  0  0  0
   -0.0491   -1.2887   -1.2653 H   0  0  0  0  0  0  0  0  0  0  0  0
   -1.8098   -1.2289   -1.2660 H   0  0  0  0  0  0  0  0  0  0  0  0
   -0.9791   -2.7892   -1.2734 H   0  0  0  0  0  0  0  0  0  0  0  0
   -1.8216   -2.3197    1.0190 H   0  0  0  0  0  0  0  0  0  0  0  0
   -0.0709   -2.3065    1.0227 H   0  0  0  0  0  0  0  0  0  0  0  0
    0.0851    0.3006    0.8053 H   0  0  0  0  0  0  0  0  0  0  0  0
   -0.8583   -0.4382    2.3371 H   0  0  0  0  0  0  0  0  0  0  0  0
   -2.8646   -0.0530    1.2149 H   0  0  0  0  0  0  0  0  0  0  0  0
  1  2  1  0
  1  4  1  0
  2  3  2  3
  3  5  1  0
  3 15  1  0
  6  7  1  0
  6 10  1  0
  6 11  1  0
  6 12  1  0
  7  8  1  0
  7 13  1  0
  7 14  1  0
  8  9  1  0
  8 16  1  0
  9 17  1  0
M  RAD  1   8   2
M  END
>  <reaction>  (28) 
rmg_rxn_15485

>  <mol_properties>  (28) 
{"1": {"label": "*4", "atom_type": "N3d"}, "2": {"label": "*3", "atom_type": "Cd"}, "6": {"label": "*0", "atom_type": "Cs"}, "7": {"label": "*1", "atom_type": "Cs"}, "14": {"label": "*2", "atom_type": "H0"}}

>  <type>  (28) 
unop_24

>  <geom_source>  (28) 
gaussian_log

$$$$
