
     RDKit          3D

  9  8  0  0  0  0  0  0  0  0999 V2000
   -1.0314    0.2323   -0.1227 C   0  0  0  0  0  0  0  0  0  0  0  0
    0.3094   -0.4511    0.0063 C   0  0  0  0  0  0  0  0  0  0  0  0
    0.3197   -1.7698    0.6841 N   0  0  0  0  0  0  0  0  0  0  0  0
   -0.7498   -2.1455    1.0557 O   0  0  0  0  0  0  0  0  0  0  0  0
   -1.4744    0.4198    0.8552 H   0  0  0  0  0  0  0  0  0  0  0  0
   -0.9073    1.1865   -0.6350 H   0  0  0  0  0  0  0  0  0  0  0  0
   -1.7319   -0.3778   -0.6927 H   0  0  0  0  0  0  0  0  0  0  0  0
    1.0375    0.1401    0.5713 H   0  0  0  0  0  0  0  0  0  0  0  0
    0.7826   -0.6494   -0.9609 H   0  0  0  0  0  0  0  0  0  0  0  0
  1  2  1  0
  1  5  1  0
  1  6  1  0
  1  7  1  0
  2  3  1  0
  2  8  1  0
  2  9  1  0
  3  4  2  0
M  END
>  <reaction>  (1) 
rmg_rxn_1486

>  <mol_properties>  (1) 
{"1": {"label": "donator", "atom_type": "Cs"}, "7": {"label": "d_hydrogen", "atom_type": "H0"}}

>  <type>  (1) 
r1h

$$$$

     RDKit          3D

  4  3  0  0  0  0  0  0  0  0999 V2000
   -0.8019    0.4189    0.0192 N   0  0  0  0  0  0  0  0  0  0  0  0
    0.3609    0.8266    0.0061 N   0  0  0  0  0  0  0  0  0  0  0  0
    0.8339    1.9183    0.0142 O   0  0  0  0  0  1  0  0  0  0  0  0
   -0.7779   -0.6002    0.0040 H   0  0  0  0  0  0  0  0  0  0  0  0
  1  2  2  3
  1  4  1  0
  2  3  1  0
M  RAD  1   3   2
M  END
>  <reaction>  (2) 
rmg_rxn_1486

>  <mol_properties>  (2) 
{"0": {"label": "acceptor", "atom_type": "N3s"}}

>  <type>  (2) 
r2

$$$$

     RDKit          3D

  5  4  0  0  0  0  0  0  0  0999 V2000
   -0.4583    0.0384    0.1517 N   0  0  0  0  0  0  0  0  0  0  0  0
    0.7454   -0.3487    0.5322 N   0  0  0  0  0  0  0  0  0  0  0  0
    0.7566   -1.0388    1.5193 O   0  0  0  0  0  0  0  0  0  0  0  0
   -1.2688   -0.2521    0.6850 H   0  0  0  0  0  0  0  0  0  0  0  0
   -0.5137    0.6154   -0.6670 H   0  0  0  0  0  0  0  0  0  0  0  0
  1  2  1  0
  1  4  1  0
  1  5  1  0
  2  3  2  0
M  END
>  <reaction>  (3) 
rmg_rxn_1486

>  <mol_properties>  (3) 
{"0": {"label": "acceptor", "atom_type": "N3s"}, "4": {"label": "a_hydrogen", "atom_type": "H0"}}

>  <type>  (3) 
r2h

$$$$

     RDKit          3D

 13 11  0  0  0  0  0  0  0  0999 V2000
    1.1408   -1.1006    0.2454 N   0  0  0  0  0  0  0  0  0  0  0  0
    0.7155   -0.7703    1.3822 N   0  0  0  0  0  0  0  0  0  0  0  0
    1.2997   -0.9114    2.4320 O   0  0  0  0  0  1  0  0  0  0  0  0
    2.0627   -1.5358    0.2371 H   0  0  0  0  0  0  0  0  0  0  0  0
   -1.3402    0.7621   -1.7259 C   0  0  0  0  0  0  0  0  0  0  0  0
   -1.1502   -0.2320   -0.6083 C   0  0  0  0  0  0  0  0  0  0  0  0
   -1.1934    0.2549    0.6797 N   0  0  0  0  0  0  0  0  0  0  0  0
   -1.1822    1.3932    1.0008 O   0  0  0  0  0  0  0  0  0  0  0  0
   -0.5908    1.5524   -1.6711 H   0  0  0  0  0  0  0  0  0  0  0  0
   -1.2317    0.2513   -2.6819 H   0  0  0  0  0  0  0  0  0  0  0  0
   -2.3269    1.2293   -1.6931 H   0  0  0  0  0  0  0  0  0  0  0  0
    0.0666   -0.7046   -0.5112 H   0  0  0  0  0  0  0  0  0  0  0  0
   -1.6963   -1.1723   -0.6528 H   0  0  0  0  0  0  0  0  0  0  0  0
  1  2  2  3
  1  4  1  0
  2  3  1  0
  5  6  1  0
  5  9  1  0
  5 10  1  0
  5 11  1  0
  6  7  1  0
  6 12  1  0
  6 13  1  0
  7  8  2  0
M  RAD  1   3   2
M  END
>  <reaction>  (4) 
rmg_rxn_1486

>  <mol_properties>  (4) 
{"0": {"label": "*3", "atom_type": "N3d"}, "1": {"label": "*4", "atom_type": "N3d"}, "5": {"label": "*1", "atom_type": "Cs"}, "6": {"label": "*0", "atom_type": "N3d"}, "11": {"label": "*2", "atom_type": "H0"}}

>  <type>  (4) 
ts

$$$$

     RDKit          3D

 13 11  0  0  0  0  0  0  0  0999 V2000
    1.1211    0.6998    0.2270 N   0  0  0  0  0  0  0  0  0  0  0  0
    2.0323   -0.1590   -0.0010 N   0  0  0  0  0  0  0  0  0  0  0  0
    3.1813    0.1812   -0.2439 O   0  0  0  0  0  0  0  0  0  0  0  0
    1.3118    1.7054    0.2013 H   0  0  0  0  0  0  0  0  0  0  0  0
   -0.8244   -1.6093   -0.2890 C   0  0  0  0  0  0  0  0  0  0  0  0
   -1.0894   -0.4352    0.6397 C   0  0  0  0  0  0  0  0  0  0  0  0
   -2.0312    0.4233    0.3980 N   0  0  0  0  0  0  0  0  0  0  0  0
   -2.6080    0.7838   -0.6155 O   0  0  0  0  0  1  0  0  0  0  0  0
    0.2168   -1.9151   -0.2120 H   0  0  0  0  0  0  0  0  0  0  0  0
   -1.4618   -2.4490   -0.0173 H   0  0  0  0  0  0  0  0  0  0  0  0
   -1.0444   -1.3224   -1.3148 H   0  0  0  0  0  0  0  0  0  0  0  0
    0.0313    0.2478    0.4315 H   0  0  0  0  0  0  0  0  0  0  0  0
   -0.9433   -0.6196    1.7021 H   0  0  0  0  0  0  0  0  0  0  0  0
  1  2  1  0
  1  4  1  0
  1 12  1  0
  2  3  2  0
  5  6  1  0
  5  9  1  0
  5 10  1  0
  5 11  1  0
  6  7  2  3
  6 13  1  0
  7  8  1  0
M  RAD  1   8   2
M  END
>  <reaction>  (5) 
rmg_rxn_1486

>  <mol_properties>  (5) 
{"0": {"label": "*3", "atom_type": "N3d"}, "1": {"label": "*4", "atom_type": "N3d"}, "5": {"label": "*1", "atom_type": "Cs"}, "6": {"label": "*0", "atom_type": "N3d"}, "11": {"label": "*2", "atom_type": "H0"}}

>  <type>  (5) 
unop_1

>  <geom_source>  (5) 
crest_best.xyz

$$$$

     RDKit          3D

 13 11  0  0  0  0  0  0  0  0999 V2000
    0.8601   -1.2902    0.3173 N   0  0  0  0  0  0  0  0  0  0  0  0
    1.6517   -0.5722    1.0928 N   0  0  0  0  0  0  0  0  0  0  0  0
    1.9730   -1.1188    2.1169 O   0  0  0  0  0  0  0  0  0  0  0  0
    0.5792   -2.2177    0.6113 H   0  0  0  0  0  0  0  0  0  0  0  0
   -1.1432   -0.1236   -2.1755 C   0  0  0  0  0  0  0  0  0  0  0  0
   -1.1432   -0.1236   -0.6650 C   0  0  0  0  0  0  0  0  0  0  0  0
   -1.1432    1.2024   -0.0014 N   0  0  0  0  0  0  0  0  0  0  0  0
   -1.1432    2.1319   -0.7491 O   0  0  0  0  0  1  0  0  0  0  0  0
   -0.2631    0.3838   -2.5699 H   0  0  0  0  0  0  0  0  0  0  0  0
   -1.1432   -1.1508   -2.5407 H   0  0  0  0  0  0  0  0  0  0  0  0
   -2.0233    0.3838   -2.5699 H   0  0  0  0  0  0  0  0  0  0  0  0
   -0.0977   -0.7324   -0.1524 H   0  0  0  0  0  0  0  0  0  0  0  0
   -2.0144   -0.6309   -0.2378 H   0  0  0  0  0  0  0  0  0  0  0  0
  1  2  1  0
  1  4  1  0
  1 12  1  0
  2  3  2  0
  5  6  1  0
  5  9  1  0
  5 10  1  0
  5 11  1  0
  6  7  2  3
  6 13  1  0
  7  8  1  0
M  RAD  1   8   2
M  END
>  <reaction>  (6) 
rmg_rxn_1486

>  <mol_properties>  (6) 
{"0": {"label": "*3", "atom_type": "N3d"}, "1": {"label": "*4", "atom_type": "N3d"}, "5": {"label": "*1", "atom_type": "Cs"}, "6": {"label": "*0", "atom_type": "N3d"}, "11": {"label": "*2", "atom_type": "H0"}}

>  <type>  (6) 
unop_2

>  <geom_source>  (6) 
Heuristics

$$$$

     RDKit          3D

 13 11  0  0  0  0  0  0  0  0999 V2000
    0.6598   -1.1458    0.7969 N   0  0  0  0  0  0  0  0  0  0  0  0
    1.7764   -1.1154    0.0928 N   0  0  0  0  0  0  0  0  0  0  0  0
    2.7711   -1.3564    0.7280 O   0  0  0  0  0  0  0  0  0  0  0  0
    0.6980   -1.3599    1.7861 H   0  0  0  0  0  0  0  0  0  0  0  0
   -1.3435    0.0207   -1.6958 C   0  0  0  0  0  0  0  0  0  0  0  0
   -1.3435    0.0207   -0.1853 C   0  0  0  0  0  0  0  0  0  0  0  0
   -1.3435    1.3467    0.4783 N   0  0  0  0  0  0  0  0  0  0  0  0
   -1.3435    2.2762   -0.2694 O   0  0  0  0  0  1  0  0  0  0  0  0
   -0.4634    0.5281   -2.0903 H   0  0  0  0  0  0  0  0  0  0  0  0
   -1.3435   -1.0064   -2.0611 H   0  0  0  0  0  0  0  0  0  0  0  0
   -2.2236    0.5281   -2.0903 H   0  0  0  0  0  0  0  0  0  0  0  0
   -0.2981   -0.5881    0.3273 H   0  0  0  0  0  0  0  0  0  0  0  0
   -2.2147   -0.4866    0.2418 H   0  0  0  0  0  0  0  0  0  0  0  0
  1  2  1  0
  1  4  1  0
  1 12  1  0
  2  3  2  0
  5  6  1  0
  5  9  1  0
  5 10  1  0
  5 11  1  0
  6  7  2  3
  6 13  1  0
  7  8  1  0
M  RAD  1   8   2
M  END
>  <reaction>  (7) 
rmg_rxn_1486

>  <mol_properties>  (7) 
{"0": {"label": "*3", "atom_type": "N3d"}, "1": {"label": "*4", "atom_type": "N3d"}, "5": {"label": "*1", "atom_type": "Cs"}, "6": {"label": "*0", "atom_type": "N3d"}, "11": {"label": "*2", "atom_type": "H0"}}

>  <type>  (7) 
unop_3

>  <geom_source>  (7) 
Heuristics

$$$$

     RDKit          3D

 13 11  0  0  0  0  0  0  0  0999 V2000
    0.9475   -1.1574    0.2534 N   0  0  0  0  0  0  0  0  0  0  0  0
    1.3773   -0.7269    1.4254 N   0  0  0  0  0  0  0  0  0  0  0  0
    1.7884   -1.5943    2.1531 O   0  0  0  0  0  0  0  0  0  0  0  0
    0.9850   -2.1466    0.0396 H   0  0  0  0  0  0  0  0  0  0  0  0
   -1.0557    0.0092   -2.2393 C   0  0  0  0  0  0  0  0  0  0  0  0
   -1.0557    0.0092   -0.7288 C   0  0  0  0  0  0  0  0  0  0  0  0
   -1.0557    1.3352   -0.0652 N   0  0  0  0  0  0  0  0  0  0  0  0
   -1.0557    2.2647   -0.8129 O   0  0  0  0  0  1  0  0  0  0  0  0
   -0.1756    0.5166   -2.6338 H   0  0  0  0  0  0  0  0  0  0  0  0
   -1.0557   -1.0179   -2.6046 H   0  0  0  0  0  0  0  0  0  0  0  0
   -1.9359    0.5166   -2.6338 H   0  0  0  0  0  0  0  0  0  0  0  0
   -0.0103   -0.5996   -0.2162 H   0  0  0  0  0  0  0  0  0  0  0  0
   -1.9269   -0.4981   -0.3016 H   0  0  0  0  0  0  0  0  0  0  0  0
  1  2  1  0
  1  4  1  0
  1 12  1  0
  2  3  2  0
  5  6  1  0
  5  9  1  0
  5 10  1  0
  5 11  1  0
  6  7  2  3
  6 13  1  0
  7  8  1  0
M  RAD  1   8   2
M  END
>  <reaction>  (8) 
rmg_rxn_1486

>  <mol_properties>  (8) 
{"0": {"label": "*3", "atom_type": "N3d"}, "1": {"label": "*4", "atom_type": "N3d"}, "5": {"label": "*1", "atom_type": "Cs"}, "6": {"label": "*0", "atom_type": "N3d"}, "11": {"label": "*2", "atom_type": "H0"}}

>  <type>  (8) 
unop_4

>  <geom_source>  (8) 
Heuristics

$$$$

     RDKit          3D

 13 11  0  0  0  0  0  0  0  0999 V2000
    1.0102   -0.7100    0.6460 N   0  0  0  0  0  0  0  0  0  0  0  0
    1.1730   -1.9837    0.3384 N   0  0  0  0  0  0  0  0  0  0  0  0
    1.6616   -2.6484    1.2161 O   0  0  0  0  0  0  0  0  0  0  0  0
    1.2916   -0.3764    1.5600 H   0  0  0  0  0  0  0  0  0  0  0  0
   -0.9931    0.4566   -1.8467 C   0  0  0  0  0  0  0  0  0  0  0  0
   -0.9931    0.4566   -0.3362 C   0  0  0  0  0  0  0  0  0  0  0  0
   -0.9931    1.7825    0.3274 N   0  0  0  0  0  0  0  0  0  0  0  0
   -0.9931    2.7121   -0.4203 O   0  0  0  0  0  1  0  0  0  0  0  0
   -0.1129    0.9639   -2.2412 H   0  0  0  0  0  0  0  0  0  0  0  0
   -0.9931   -0.5706   -2.2120 H   0  0  0  0  0  0  0  0  0  0  0  0
   -1.8732    0.9639   -2.2412 H   0  0  0  0  0  0  0  0  0  0  0  0
    0.0524   -0.1522    0.1764 H   0  0  0  0  0  0  0  0  0  0  0  0
   -1.8643   -0.0508    0.0910 H   0  0  0  0  0  0  0  0  0  0  0  0
  1  2  1  0
  1  4  1  0
  1 12  1  0
  2  3  2  0
  5  6  1  0
  5  9  1  0
  5 10  1  0
  5 11  1  0
  6  7  2  3
  6 13  1  0
  7  8  1  0
M  RAD  1   8   2
M  END
>  <reaction>  (9) 
rmg_rxn_1486

>  <mol_properties>  (9) 
{"0": {"label": "*3", "atom_type": "N3d"}, "1": {"label": "*4", "atom_type": "N3d"}, "5": {"label": "*1", "atom_type": "Cs"}, "6": {"label": "*0", "atom_type": "N3d"}, "11": {"label": "*2", "atom_type": "H0"}}

>  <type>  (9) 
unop_5

>  <geom_source>  (9) 
Heuristics

$$$$

     RDKit          3D

 13 11  0  0  0  0  0  0  0  0999 V2000
    0.9546   -1.0712    0.2625 N   0  0  0  0  0  0  0  0  0  0  0  0
    1.0352   -1.1181    1.5797 N   0  0  0  0  0  0  0  0  0  0  0  0
    2.0114   -1.6865    1.9978 O   0  0  0  0  0  0  0  0  0  0  0  0
    1.6833   -1.4955   -0.2985 H   0  0  0  0  0  0  0  0  0  0  0  0
   -1.0486    0.0954   -2.2302 C   0  0  0  0  0  0  0  0  0  0  0  0
   -1.0486    0.0954   -0.7197 C   0  0  0  0  0  0  0  0  0  0  0  0
   -1.0486    1.4214   -0.0561 N   0  0  0  0  0  0  0  0  0  0  0  0
   -1.0486    2.3509   -0.8038 O   0  0  0  0  0  1  0  0  0  0  0  0
   -0.1685    0.6028   -2.6247 H   0  0  0  0  0  0  0  0  0  0  0  0
   -1.0486   -0.9317   -2.5955 H   0  0  0  0  0  0  0  0  0  0  0  0
   -1.9288    0.6028   -2.6247 H   0  0  0  0  0  0  0  0  0  0  0  0
   -0.0032   -0.5134   -0.2071 H   0  0  0  0  0  0  0  0  0  0  0  0
   -1.9198   -0.4119   -0.2925 H   0  0  0  0  0  0  0  0  0  0  0  0
  1  2  1  0
  1  4  1  0
  1 12  1  0
  2  3  2  0
  5  6  1  0
  5  9  1  0
  5 10  1  0
  5 11  1  0
  6  7  2  3
  6 13  1  0
  7  8  1  0
M  RAD  1   8   2
M  END
>  <reaction>  (10) 
rmg_rxn_1486

>  <mol_properties>  (10) 
{"0": {"label": "*3", "atom_type": "N3d"}, "1": {"label": "*4", "atom_type": "N3d"}, "5": {"label": "*1", "atom_type": "Cs"}, "6": {"label": "*0", "atom_type": "N3d"}, "11": {"label": "*2", "atom_type": "H0"}}

>  <type>  (10) 
unop_6

>  <geom_source>  (10) 
Heuristics

$$$$

     RDKit          3D

 13 11  0  0  0  0  0  0  0  0999 V2000
    1.1211    0.6997    0.2276 N   0  0  0  0  0  0  0  0  0  0  0  0
    2.0322   -0.1590   -0.0013 N   0  0  0  0  0  0  0  0  0  0  0  0
    3.1812    0.1813   -0.2440 O   0  0  0  0  0  0  0  0  0  0  0  0
    1.3119    1.7052    0.2028 H   0  0  0  0  0  0  0  0  0  0  0  0
   -0.8243   -1.6093   -0.2890 C   0  0  0  0  0  0  0  0  0  0  0  0
   -1.0896   -0.4353    0.6398 C   0  0  0  0  0  0  0  0  0  0  0  0
   -2.0313    0.4232    0.3979 N   0  0  0  0  0  0  0  0  0  0  0  0
   -2.6078    0.7840   -0.6158 O   0  0  0  0  0  1  0  0  0  0  0  0
   -1.4621   -2.4488   -0.0178 H   0  0  0  0  0  0  0  0  0  0  0  0
   -1.0436   -1.3221   -1.3148 H   0  0  0  0  0  0  0  0  0  0  0  0
    0.2168   -1.9152   -0.2114 H   0  0  0  0  0  0  0  0  0  0  0  0
    0.0313    0.2476    0.4323 H   0  0  0  0  0  0  0  0  0  0  0  0
   -0.9439   -0.6200    1.7022 H   0  0  0  0  0  0  0  0  0  0  0  0
  1  2  1  0
  1  4  1  0
  1 12  1  0
  2  3  2  0
  5  6  1  0
  5  9  1  0
  5 10  1  0
  5 11  1  0
  6  7  2  3
  6 13  1  0
  7  8  1  0
M  RAD  1   8   2
M  END
>  <reaction>  (11) 
rmg_rxn_1486

>  <mol_properties>  (11) 
{"0": {"label": "*3", "atom_type": "N3d"}, "1": {"label": "*4", "atom_type": "N3d"}, "5": {"label": "*1", "atom_type": "Cs"}, "6": {"label": "*0", "atom_type": "N3d"}, "11": {"label": "*2", "atom_type": "H0"}}

>  <type>  (11) 
unop_7

>  <geom_source>  (11) 
Heuristics

$$$$

     RDKit          3D

 13 11  0  0  0  0  0  0  0  0999 V2000
    1.0936   -0.7539    0.4647 N   0  0  0  0  0  0  0  0  0  0  0  0
    0.9788   -2.0484    0.6987 N   0  0  0  0  0  0  0  0  0  0  0  0
    1.4356   -2.4049    1.7546 O   0  0  0  0  0  0  0  0  0  0  0  0
    1.5384   -0.1589    1.1530 H   0  0  0  0  0  0  0  0  0  0  0  0
   -0.9097    0.4126   -2.0280 C   0  0  0  0  0  0  0  0  0  0  0  0
   -0.9097    0.4126   -0.5176 C   0  0  0  0  0  0  0  0  0  0  0  0
   -0.9097    1.7386    0.1460 N   0  0  0  0  0  0  0  0  0  0  0  0
   -0.9097    2.6681   -0.6017 O   0  0  0  0  0  1  0  0  0  0  0  0
   -0.0296    0.9200   -2.4225 H   0  0  0  0  0  0  0  0  0  0  0  0
   -0.9097   -0.6145   -2.3933 H   0  0  0  0  0  0  0  0  0  0  0  0
   -1.7899    0.9200   -2.4225 H   0  0  0  0  0  0  0  0  0  0  0  0
    0.1357   -0.1962   -0.0050 H   0  0  0  0  0  0  0  0  0  0  0  0
   -1.7809   -0.0947   -0.0904 H   0  0  0  0  0  0  0  0  0  0  0  0
  1  2  1  0
  1  4  1  0
  1 12  1  0
  2  3  2  0
  5  6  1  0
  5  9  1  0
  5 10  1  0
  5 11  1  0
  6  7  2  3
  6 13  1  0
  7  8  1  0
M  RAD  1   8   2
M  END
>  <reaction>  (12) 
rmg_rxn_1486

>  <mol_properties>  (12) 
{"0": {"label": "*3", "atom_type": "N3d"}, "1": {"label": "*4", "atom_type": "N3d"}, "5": {"label": "*1", "atom_type": "Cs"}, "6": {"label": "*0", "atom_type": "N3d"}, "11": {"label": "*2", "atom_type": "H0"}}

>  <type>  (12) 
unop_8

>  <geom_source>  (12) 
Heuristics

$$$$

     RDKit          3D

 13 11  0  0  0  0  0  0  0  0999 V2000
    1.1211    0.6997    0.2276 N   0  0  0  0  0  0  0  0  0  0  0  0
    2.0322   -0.1589   -0.0013 N   0  0  0  0  0  0  0  0  0  0  0  0
    3.1812    0.1812   -0.2440 O   0  0  0  0  0  0  0  0  0  0  0  0
    1.3119    1.7052    0.2025 H   0  0  0  0  0  0  0  0  0  0  0  0
   -0.8243   -1.6093   -0.2890 C   0  0  0  0  0  0  0  0  0  0  0  0
   -1.0895   -0.4353    0.6398 C   0  0  0  0  0  0  0  0  0  0  0  0
   -2.0313    0.4232    0.3980 N   0  0  0  0  0  0  0  0  0  0  0  0
   -2.6077    0.7839   -0.6158 O   0  0  0  0  0  1  0  0  0  0  0  0
   -1.0435   -1.3221   -1.3149 H   0  0  0  0  0  0  0  0  0  0  0  0
    0.2168   -1.9153   -0.2113 H   0  0  0  0  0  0  0  0  0  0  0  0
   -1.4621   -2.4487   -0.0178 H   0  0  0  0  0  0  0  0  0  0  0  0
    0.0313    0.2477    0.4321 H   0  0  0  0  0  0  0  0  0  0  0  0
   -0.9437   -0.6198    1.7022 H   0  0  0  0  0  0  0  0  0  0  0  0
  1  2  1  0
  1  4  1  0
  1 12  1  0
  2  3  2  0
  5  6  1  0
  5  9  1  0
  5 10  1  0
  5 11  1  0
  6  7  2  3
  6 13  1  0
  7  8  1  0
M  RAD  1   8   2
M  END
>  <reaction>  (13) 
rmg_rxn_1486

>  <mol_properties>  (13) 
{"0": {"label": "*3", "atom_type": "N3d"}, "1": {"label": "*4", "atom_type": "N3d"}, "5": {"label": "*1", "atom_type": "Cs"}, "6": {"label": "*0", "atom_type": "N3d"}, "11": {"label": "*2", "atom_type": "H0"}}

>  <type>  (13) 
unop_9

>  <geom_source>  (13) 
Heuristics

$$$$

     RDKit          3D

 13 11  0  0  0  0  0  0  0  0999 V2000
    1.0985   -0.8808    0.3173 N   0  0  0  0  0  0  0  0  0  0  0  0
    0.8647   -1.9236    1.0928 N   0  0  0  0  0  0  0  0  0  0  0  0
    1.4987   -1.9333    2.1169 O   0  0  0  0  0  0  0  0  0  0  0  0
    1.7665   -0.1787    0.6113 H   0  0  0  0  0  0  0  0  0  0  0  0
   -0.9048    0.2857   -2.1755 C   0  0  0  0  0  0  0  0  0  0  0  0
   -0.9048    0.2857   -0.6650 C   0  0  0  0  0  0  0  0  0  0  0  0
   -0.9048    1.6117   -0.0014 N   0  0  0  0  0  0  0  0  0  0  0  0
   -0.9048    2.5412   -0.7491 O   0  0  0  0  0  1  0  0  0  0  0  0
   -0.0247    0.7931   -2.5699 H   0  0  0  0  0  0  0  0  0  0  0  0
   -0.9048   -0.7414   -2.5407 H   0  0  0  0  0  0  0  0  0  0  0  0
   -1.7850    0.7931   -2.5699 H   0  0  0  0  0  0  0  0  0  0  0  0
    0.1406   -0.3231   -0.1524 H   0  0  0  0  0  0  0  0  0  0  0  0
   -1.7760   -0.2216   -0.2378 H   0  0  0  0  0  0  0  0  0  0  0  0
  1  2  1  0
  1  4  1  0
  1 12  1  0
  2  3  2  0
  5  6  1  0
  5  9  1  0
  5 10  1  0
  5 11  1  0
  6  7  2  3
  6 13  1  0
  7  8  1  0
M  RAD  1   8   2
M  END
>  <reaction>  (14) 
rmg_rxn_1486

>  <mol_properties>  (14) 
{"0": {"label": "*3", "atom_type": "N3d"}, "1": {"label": "*4", "atom_type": "N3d"}, "5": {"label": "*1", "atom_type": "Cs"}, "6": {"label": "*0", "atom_type": "N3d"}, "11": {"label": "*2", "atom_type": "H0"}}

>  <type>  (14) 
unop_10

>  <geom_source>  (14) 
Heuristics

$$$$

     RDKit          3D

 13 11  0  0  0  0  0  0  0  0999 V2000
    0.7473   -1.3485    0.4647 N   0  0  0  0  0  0  0  0  0  0  0  0
    1.8165   -0.6099    0.6987 N   0  0  0  0  0  0  0  0  0  0  0  0
    2.3520   -0.8312    1.7546 O   0  0  0  0  0  0  0  0  0  0  0  0
    0.4493   -2.0291    1.1530 H   0  0  0  0  0  0  0  0  0  0  0  0
   -1.2560   -0.1820   -2.0280 C   0  0  0  0  0  0  0  0  0  0  0  0
   -1.2560   -0.1820   -0.5176 C   0  0  0  0  0  0  0  0  0  0  0  0
   -1.2560    1.1440    0.1460 N   0  0  0  0  0  0  0  0  0  0  0  0
   -1.2560    2.0735   -0.6017 O   0  0  0  0  0  1  0  0  0  0  0  0
   -0.3758    0.3254   -2.4225 H   0  0  0  0  0  0  0  0  0  0  0  0
   -1.2560   -1.2091   -2.3933 H   0  0  0  0  0  0  0  0  0  0  0  0
   -2.1361    0.3254   -2.4225 H   0  0  0  0  0  0  0  0  0  0  0  0
   -0.2105   -0.7908   -0.0050 H   0  0  0  0  0  0  0  0  0  0  0  0
   -2.1272   -0.6893   -0.0904 H   0  0  0  0  0  0  0  0  0  0  0  0
  1  2  1  0
  1  4  1  0
  1 12  1  0
  2  3  2  0
  5  6  1  0
  5  9  1  0
  5 10  1  0
  5 11  1  0
  6  7  2  3
  6 13  1  0
  7  8  1  0
M  RAD  1   8   2
M  END
>  <reaction>  (15) 
rmg_rxn_1486

>  <mol_properties>  (15) 
{"0": {"label": "*3", "atom_type": "N3d"}, "1": {"label": "*4", "atom_type": "N3d"}, "5": {"label": "*1", "atom_type": "Cs"}, "6": {"label": "*0", "atom_type": "N3d"}, "11": {"label": "*2", "atom_type": "H0"}}

>  <type>  (15) 
unop_11

>  <geom_source>  (15) 
Heuristics

$$$$

     RDKit          3D

 13 11  0  0  0  0  0  0  0  0999 V2000
    1.1211    0.6998    0.2270 N   0  0  0  0  0  0  0  0  0  0  0  0
    2.0323   -0.1590   -0.0010 N   0  0  0  0  0  0  0  0  0  0  0  0
    3.1813    0.1812   -0.2439 O   0  0  0  0  0  0  0  0  0  0  0  0
    1.3118    1.7054    0.2013 H   0  0  0  0  0  0  0  0  0  0  0  0
   -0.8244   -1.6093   -0.2890 C   0  0  0  0  0  0  0  0  0  0  0  0
   -1.0894   -0.4352    0.6397 C   0  0  0  0  0  0  0  0  0  0  0  0
   -2.0312    0.4233    0.3980 N   0  0  0  0  0  0  0  0  0  0  0  0
   -2.6080    0.7838   -0.6155 O   0  0  0  0  0  1  0  0  0  0  0  0
    0.2168   -1.9151   -0.2120 H   0  0  0  0  0  0  0  0  0  0  0  0
   -1.4618   -2.4490   -0.0173 H   0  0  0  0  0  0  0  0  0  0  0  0
   -1.0444   -1.3224   -1.3148 H   0  0  0  0  0  0  0  0  0  0  0  0
    0.0313    0.2478    0.4315 H   0  0  0  0  0  0  0  0  0  0  0  0
   -0.9433   -0.6196    1.7021 H   0  0  0  0  0  0  0  0  0  0  0  0
  1  2  1  0
  1  4  1  0
  1 12  1  0
  2  3  2  0
  5  6  1  0
  5  9  1  0
  5 10  1  0
  5 11  1  0
  6  7  2  3
  6 13  1  0
  7  8  1  0
M  RAD  1   8   2
M  END
>  <reaction>  (16) 
rmg_rxn_1486

>  <mol_properties>  (16) 
{"0": {"label": "*3", "atom_type": "N3d"}, "1": {"label": "*4", "atom_type": "N3d"}, "5": {"label": "*1", "atom_type": "Cs"}, "6": {"label": "*0", "atom_type": "N3d"}, "11": {"label": "*2", "atom_type": "H0"}}

>  <type>  (16) 
unop_12

>  <geom_source>  (16) 
Heuristics

$$$$

     RDKit          3D

 13 11  0  0  0  0  0  0  0  0999 V2000
    0.8741   -0.7779    0.7969 N   0  0  0  0  0  0  0  0  0  0  0  0
    1.3987   -1.7640    0.0928 N   0  0  0  0  0  0  0  0  0  0  0  0
    2.0992   -2.5102    0.7280 O   0  0  0  0  0  0  0  0  0  0  0  0
    1.0792   -0.7054    1.7861 H   0  0  0  0  0  0  0  0  0  0  0  0
   -1.1292    0.3887   -1.6958 C   0  0  0  0  0  0  0  0  0  0  0  0
   -1.1292    0.3887   -0.1853 C   0  0  0  0  0  0  0  0  0  0  0  0
   -1.1292    1.7147    0.4783 N   0  0  0  0  0  0  0  0  0  0  0  0
   -1.1292    2.6442   -0.2694 O   0  0  0  0  0  1  0  0  0  0  0  0
   -0.2491    0.8961   -2.0903 H   0  0  0  0  0  0  0  0  0  0  0  0
   -1.1292   -0.6384   -2.0611 H   0  0  0  0  0  0  0  0  0  0  0  0
   -2.0093    0.8961   -2.0903 H   0  0  0  0  0  0  0  0  0  0  0  0
   -0.0838   -0.2201    0.3273 H   0  0  0  0  0  0  0  0  0  0  0  0
   -2.0004   -0.1186    0.2418 H   0  0  0  0  0  0  0  0  0  0  0  0
  1  2  1  0
  1  4  1  0
  1 12  1  0
  2  3  2  0
  5  6  1  0
  5  9  1  0
  5 10  1  0
  5 11  1  0
  6  7  2  3
  6 13  1  0
  7  8  1  0
M  RAD  1   8   2
M  END
>  <reaction>  (17) 
rmg_rxn_1486

>  <mol_properties>  (17) 
{"0": {"label": "*3", "atom_type": "N3d"}, "1": {"label": "*4", "atom_type": "N3d"}, "5": {"label": "*1", "atom_type": "Cs"}, "6": {"label": "*0", "atom_type": "N3d"}, "11": {"label": "*2", "atom_type": "H0"}}

>  <type>  (17) 
unop_13

>  <geom_source>  (17) 
Heuristics

$$$$

     RDKit          3D

 13 11  0  0  0  0  0  0  0  0999 V2000
    0.6680   -1.2977    0.6460 N   0  0  0  0  0  0  0  0  0  0  0  0
    1.8561   -0.8107    0.3384 N   0  0  0  0  0  0  0  0  0  0  0  0
    2.6753   -0.9076    1.2161 O   0  0  0  0  0  0  0  0  0  0  0  0
    0.5167   -1.7071    1.5600 H   0  0  0  0  0  0  0  0  0  0  0  0
   -1.3353   -0.1312   -1.8467 C   0  0  0  0  0  0  0  0  0  0  0  0
   -1.3353   -0.1312   -0.3362 C   0  0  0  0  0  0  0  0  0  0  0  0
   -1.3353    1.1948    0.3274 N   0  0  0  0  0  0  0  0  0  0  0  0
   -1.3353    2.1243   -0.4203 O   0  0  0  0  0  1  0  0  0  0  0  0
   -0.4552    0.3762   -2.2412 H   0  0  0  0  0  0  0  0  0  0  0  0
   -1.3353   -1.1583   -2.2120 H   0  0  0  0  0  0  0  0  0  0  0  0
   -2.2154    0.3762   -2.2412 H   0  0  0  0  0  0  0  0  0  0  0  0
   -0.2899   -0.7400    0.1764 H   0  0  0  0  0  0  0  0  0  0  0  0
   -2.2065   -0.6385    0.0910 H   0  0  0  0  0  0  0  0  0  0  0  0
  1  2  1  0
  1  4  1  0
  1 12  1  0
  2  3  2  0
  5  6  1  0
  5  9  1  0
  5 10  1  0
  5 11  1  0
  6  7  2  3
  6 13  1  0
  7  8  1  0
M  RAD  1   8   2
M  END
>  <reaction>  (18) 
rmg_rxn_1486

>  <mol_properties>  (18) 
{"0": {"label": "*3", "atom_type": "N3d"}, "1": {"label": "*4", "atom_type": "N3d"}, "5": {"label": "*1", "atom_type": "Cs"}, "6": {"label": "*0", "atom_type": "N3d"}, "11": {"label": "*2", "atom_type": "H0"}}

>  <type>  (18) 
unop_14

>  <geom_source>  (18) 
Heuristics

$$$$

     RDKit          3D

 13 11  0  0  0  0  0  0  0  0999 V2000
    1.0261   -1.0224    0.2534 N   0  0  0  0  0  0  0  0  0  0  0  0
    0.8639   -1.6086    1.4254 N   0  0  0  0  0  0  0  0  0  0  0  0
    1.8211   -1.5381    2.1531 O   0  0  0  0  0  0  0  0  0  0  0  0
    1.9050   -0.5668    0.0396 H   0  0  0  0  0  0  0  0  0  0  0  0
   -0.9772    0.1441   -2.2393 C   0  0  0  0  0  0  0  0  0  0  0  0
   -0.9772    0.1441   -0.7288 C   0  0  0  0  0  0  0  0  0  0  0  0
   -0.9772    1.4701   -0.0652 N   0  0  0  0  0  0  0  0  0  0  0  0
   -0.9772    2.3996   -0.8129 O   0  0  0  0  0  1  0  0  0  0  0  0
   -0.0970    0.6515   -2.6338 H   0  0  0  0  0  0  0  0  0  0  0  0
   -0.9772   -0.8830   -2.6046 H   0  0  0  0  0  0  0  0  0  0  0  0
   -1.8573    0.6515   -2.6338 H   0  0  0  0  0  0  0  0  0  0  0  0
    0.0683   -0.4647   -0.2162 H   0  0  0  0  0  0  0  0  0  0  0  0
   -1.8484   -0.3632   -0.3016 H   0  0  0  0  0  0  0  0  0  0  0  0
  1  2  1  0
  1  4  1  0
  1 12  1  0
  2  3  2  0
  5  6  1  0
  5  9  1  0
  5 10  1  0
  5 11  1  0
  6  7  2  3
  6 13  1  0
  7  8  1  0
M  RAD  1   8   2
M  END
>  <reaction>  (19) 
rmg_rxn_1486

>  <mol_properties>  (19) 
{"0": {"label": "*3", "atom_type": "N3d"}, "1": {"label": "*4", "atom_type": "N3d"}, "5": {"label": "*1", "atom_type": "Cs"}, "6": {"label": "*0", "atom_type": "N3d"}, "11": {"label": "*2", "atom_type": "H0"}}

>  <type>  (19) 
unop_15

>  <geom_source>  (19) 
Heuristics

$$$$

     RDKit          3D

 13 11  0  0  0  0  0  0  0  0999 V2000
    0.7372   -0.9446    0.8563 N   0  0  0  0  0  0  0  0  0  0  0  0
    1.6110   -1.4534    0.0071 N   0  0  0  0  0  0  0  0  0  0  0  0
    2.5497   -2.0000    0.5278 O   0  0  0  0  0  0  0  0  0  0  0  0
    0.8958   -1.0369    1.8523 H   0  0  0  0  0  0  0  0  0  0  0  0
   -1.2660    0.2220   -1.6364 C   0  0  0  0  0  0  0  0  0  0  0  0
   -1.2660    0.2220   -0.1260 C   0  0  0  0  0  0  0  0  0  0  0  0
   -1.2660    1.5480    0.5376 N   0  0  0  0  0  0  0  0  0  0  0  0
   -1.2660    2.4775   -0.2101 O   0  0  0  0  0  1  0  0  0  0  0  0
   -0.3859    0.7294   -2.0309 H   0  0  0  0  0  0  0  0  0  0  0  0
   -1.2660   -0.8051   -2.0017 H   0  0  0  0  0  0  0  0  0  0  0  0
   -2.1462    0.7294   -2.0309 H   0  0  0  0  0  0  0  0  0  0  0  0
   -0.2206   -0.3868    0.3866 H   0  0  0  0  0  0  0  0  0  0  0  0
   -2.1372   -0.2853    0.3012 H   0  0  0  0  0  0  0  0  0  0  0  0
  1  2  1  0
  1  4  1  0
  1 12  1  0
  2  3  2  0
  5  6  1  0
  5  9  1  0
  5 10  1  0
  5 11  1  0
  6  7  2  3
  6 13  1  0
  7  8  1  0
M  RAD  1   8   2
M  END
>  <reaction>  (20) 
rmg_rxn_1486

>  <mol_properties>  (20) 
{"0": {"label": "*3", "atom_type": "N3d"}, "1": {"label": "*4", "atom_type": "N3d"}, "5": {"label": "*1", "atom_type": "Cs"}, "6": {"label": "*0", "atom_type": "N3d"}, "11": {"label": "*2", "atom_type": "H0"}}

>  <type>  (20) 
unop_16

>  <geom_source>  (20) 
Heuristics

$$$$

     RDKit          3D

 13 11  0  0  0  0  0  0  0  0999 V2000
    0.6598   -1.1458    0.7969 N   0  0  0  0  0  0  0  0  0  0  0  0
    1.7764   -1.1154    0.0928 N   0  0  0  0  0  0  0  0  0  0  0  0
    2.7711   -1.3564    0.7280 O   0  0  0  0  0  0  0  0  0  0  0  0
    0.6980   -1.3599    1.7861 H   0  0  0  0  0  0  0  0  0  0  0  0
   -1.3435    0.0207   -1.6958 C   0  0  0  0  0  0  0  0  0  0  0  0
   -1.3435    0.0207   -0.1853 C   0  0  0  0  0  0  0  0  0  0  0  0
   -1.3435    1.3467    0.4783 N   0  0  0  0  0  0  0  0  0  0  0  0
   -1.3435    2.2762   -0.2694 O   0  0  0  0  0  1  0  0  0  0  0  0
   -0.4634    0.5281   -2.0903 H   0  0  0  0  0  0  0  0  0  0  0  0
   -1.3435   -1.0064   -2.0611 H   0  0  0  0  0  0  0  0  0  0  0  0
   -2.2236    0.5281   -2.0903 H   0  0  0  0  0  0  0  0  0  0  0  0
   -0.2981   -0.5880    0.3273 H   0  0  0  0  0  0  0  0  0  0  0  0
   -2.2147   -0.4866    0.2418 H   0  0  0  0  0  0  0  0  0  0  0  0
  1  2  1  0
  1  4  1  0
  1 12  1  0
  2  3  2  0
  5  6  1  0
  5  9  1  0
  5 10  1  0
  5 11  1  0
  6  7  2  3
  6 13  1  0
  7  8  1  0
M  RAD  1   8   2
M  END
>  <reaction>  (21) 
rmg_rxn_1486

>  <mol_properties>  (21) 
{"0": {"label": "*3", "atom_type": "N3d"}, "1": {"label": "*4", "atom_type": "N3d"}, "5": {"label": "*1", "atom_type": "Cs"}, "6": {"label": "*0", "atom_type": "N3d"}, "11": {"label": "*2", "atom_type": "H0"}}

>  <type>  (21) 
unop_17

>  <geom_source>  (21) 
gaussian_log

$$$$
