
     RDKit          3D

  3  2  0  0  0  0  0  0  0  0999 V2000
   -0.0007    0.6157    0.0000 S   0  0  0  0  0  0  0  0  0  0  0  0
   -0.9686   -0.3090    0.0000 H   0  0  0  0  0  0  0  0  0  0  0  0
    0.9693   -0.3067    0.0000 H   0  0  0  0  0  0  0  0  0  0  0  0
  1  2  1  0
  1  3  1  0
M  END
>  <reaction>  (1) 
rmg_rxn_182

>  <mol_properties>  (1) 
{"0": {"label": "donator", "atom_type": "S2s"}, "1": {"label": "d_hydrogen", "atom_type": "H0"}}

>  <type>  (1) 
r1h

$$$$

     RDKit          3D

  8  7  0  0  0  0  0  0  0  0999 V2000
   -1.0336    0.3440   -0.0356 C   0  0  0  0  0  3  0  0  0  0  0  0
    0.1991   -0.4326   -0.0698 C   0  0  0  0  0  0  0  0  0  0  0  0
    0.9631   -0.0368    1.2269 N   0  0  0  0  0  0  0  0  0  0  0  0
    0.8138   -0.8074    2.1160 O   0  0  0  0  0  0  0  0  0  0  0  0
   -1.0668    1.3490   -0.4321 H   0  0  0  0  0  0  0  0  0  0  0  0
   -1.8598    0.0102    0.5774 H   0  0  0  0  0  0  0  0  0  0  0  0
    0.0447   -1.5108   -0.0264 H   0  0  0  0  0  0  0  0  0  0  0  0
    0.8639   -0.1518   -0.8851 H   0  0  0  0  0  0  0  0  0  0  0  0
  1  2  1  0
  1  5  1  0
  1  6  1  0
  2  3  1  0
  2  7  1  0
  2  8  1  0
  3  4  2  0
M  RAD  1   1   2
M  END
>  <reaction>  (2) 
rmg_rxn_182

>  <mol_properties>  (2) 
{"0": {"label": "acceptor", "atom_type": "Cs"}}

>  <type>  (2) 
r2

$$$$

     RDKit          3D

  9  8  0  0  0  0  0  0  0  0999 V2000
   -1.0314    0.2323   -0.1227 C   0  0  0  0  0  0  0  0  0  0  0  0
    0.3094   -0.4511    0.0063 C   0  0  0  0  0  0  0  0  0  0  0  0
    0.3197   -1.7698    0.6841 N   0  0  0  0  0  0  0  0  0  0  0  0
   -0.7498   -2.1455    1.0557 O   0  0  0  0  0  0  0  0  0  0  0  0
   -1.4744    0.4198    0.8552 H   0  0  0  0  0  0  0  0  0  0  0  0
   -0.9073    1.1865   -0.6350 H   0  0  0  0  0  0  0  0  0  0  0  0
   -1.7319   -0.3778   -0.6927 H   0  0  0  0  0  0  0  0  0  0  0  0
    1.0375    0.1401    0.5713 H   0  0  0  0  0  0  0  0  0  0  0  0
    0.7826   -0.6494   -0.9609 H   0  0  0  0  0  0  0  0  0  0  0  0
  1  2  1  0
  1  5  1  0
  1  6  1  0
  1  7  1  0
  2  3  1  0
  2  8  1  0
  2  9  1  0
  3  4  2  0
M  END
>  <reaction>  (3) 
rmg_rxn_182

>  <mol_properties>  (3) 
{"0": {"label": "a_hydrogen", "atom_type": "H0"}, "1": {"label": "acceptor", "atom_type": "Cs"}}

>  <type>  (3) 
r2h

$$$$

     RDKit          3D

 11  9  0  0  0  0  0  0  0  0999 V2000
   -0.4024   -2.6578   -0.0192 S   0  0  0  0  0  0  0  0  0  0  0  0
   -0.2585   -1.2318    0.2815 H   0  0  0  0  0  0  0  0  0  0  0  0
    0.9271   -2.8189   -0.0463 H   0  0  0  0  0  0  0  0  0  0  0  0
   -0.0223    0.2690    0.5386 C   0  0  0  0  0  3  0  0  0  0  0  0
   -0.1437    0.8587   -0.8165 C   0  0  0  0  0  0  0  0  0  0  0  0
    0.0332    2.3522   -0.9146 N   0  0  0  0  0  0  0  0  0  0  0  0
    0.2572    2.9031    0.1139 O   0  0  0  0  0  0  0  0  0  0  0  0
    0.9645    0.2349    0.9870 H   0  0  0  0  0  0  0  0  0  0  0  0
   -0.8281    0.4471    1.2423 H   0  0  0  0  0  0  0  0  0  0  0  0
    0.5950    0.4661   -1.5209 H   0  0  0  0  0  0  0  0  0  0  0  0
   -1.1221    0.6847   -1.2728 H   0  0  0  0  0  0  0  0  0  0  0  0
  1  2  1  0
  1  3  1  0
  4  5  1  0
  4  8  1  0
  4  9  1  0
  5  6  1  0
  5 10  1  0
  5 11  1  0
  6  7  2  0
M  RAD  1   4   2
M  END
>  <reaction>  (4) 
rmg_rxn_182

>  <mol_properties>  (4) 
{"0": {"label": "*1", "atom_type": "S2s"}, "1": {"label": "*2", "atom_type": "H0"}, "2": {"label": "*0", "atom_type": "H0"}, "3": {"label": "*3", "atom_type": "Cs"}, "4": {"label": "*4", "atom_type": "Cs"}}

>  <type>  (4) 
ts

$$$$

     RDKit          3D

 11  9  0  0  0  0  0  0  0  0999 V2000
    0.3396   -2.5279   -0.7362 S   0  0  0  0  0  1  0  0  0  0  0  0
    0.3396   -0.9234   -0.6591 H   0  0  0  0  0  0  0  0  0  0  0  0
    0.3396   -2.5279   -2.0748 H   0  0  0  0  0  0  0  0  0  0  0  0
    0.3396    0.3833   -0.5963 C   0  0  0  0  0  0  0  0  0  0  0  0
   -0.8929    0.8547    0.1387 C   0  0  0  0  0  0  0  0  0  0  0  0
   -0.7176    2.0035    1.0596 N   0  0  0  0  0  0  0  0  0  0  0  0
    0.3950    2.4303    1.1150 O   0  0  0  0  0  0  0  0  0  0  0  0
    0.7554    1.1759   -1.2180 H   0  0  0  0  0  0  0  0  0  0  0  0
    1.1160    0.0651    0.0991 H   0  0  0  0  0  0  0  0  0  0  0  0
   -1.6942    1.1775   -0.5340 H   0  0  0  0  0  0  0  0  0  0  0  0
   -1.3373    0.0779    0.7697 H   0  0  0  0  0  0  0  0  0  0  0  0
  1  3  1  0
  2  4  1  0
  4  5  1  0
  4  8  1  0
  4  9  1  0
  5  6  1  0
  5 10  1  0
  5 11  1  0
  6  7  2  0
M  RAD  1   1   2
M  END
>  <reaction>  (5) 
rmg_rxn_182

>  <mol_properties>  (5) 
{"0": {"label": "*1", "atom_type": "S2s"}, "1": {"label": "*2", "atom_type": "H0"}, "2": {"label": "*0", "atom_type": "H0"}, "3": {"label": "*3", "atom_type": "Cs"}, "4": {"label": "*4", "atom_type": "Cs"}}

>  <type>  (5) 
unop_1

>  <geom_source>  (5) 
Heuristics

$$$$

     RDKit          3D

 11  9  0  0  0  0  0  0  0  0999 V2000
    0.4473   -2.6748    0.2909 S   0  0  0  0  0  1  0  0  0  0  0  0
    0.4473   -1.0703    0.3679 H   0  0  0  0  0  0  0  0  0  0  0  0
    0.4473   -2.6748   -1.0478 H   0  0  0  0  0  0  0  0  0  0  0  0
    0.4473    0.2364    0.4307 C   0  0  0  0  0  0  0  0  0  0  0  0
   -0.2643    0.8011   -0.7761 C   0  0  0  0  0  0  0  0  0  0  0  0
   -0.7241    2.2072   -0.6776 N   0  0  0  0  0  0  0  0  0  0  0  0
   -0.4750    2.7396    0.3605 O   0  0  0  0  0  0  0  0  0  0  0  0
    1.3470    0.8067    0.6608 H   0  0  0  0  0  0  0  0  0  0  0  0
   -0.1933    0.2574    1.3121 H   0  0  0  0  0  0  0  0  0  0  0  0
    0.3532    0.7895   -1.6802 H   0  0  0  0  0  0  0  0  0  0  0  0
   -1.1716    0.2458   -1.0356 H   0  0  0  0  0  0  0  0  0  0  0  0
  1  3  1  0
  2  4  1  0
  4  5  1  0
  4  8  1  0
  4  9  1  0
  5  6  1  0
  5 10  1  0
  5 11  1  0
  6  7  2  0
M  RAD  1   1   2
M  END
>  <reaction>  (6) 
rmg_rxn_182

>  <mol_properties>  (6) 
{"0": {"label": "*1", "atom_type": "S2s"}, "1": {"label": "*2", "atom_type": "H0"}, "2": {"label": "*0", "atom_type": "H0"}, "3": {"label": "*3", "atom_type": "Cs"}, "4": {"label": "*4", "atom_type": "Cs"}}

>  <type>  (6) 
unop_2

>  <geom_source>  (6) 
Heuristics

$$$$

     RDKit          3D

 11  9  0  0  0  0  0  0  0  0999 V2000
    0.0525   -2.5870   -0.7579 S   0  0  0  0  0  1  0  0  0  0  0  0
    0.0525   -0.9826   -0.6808 H   0  0  0  0  0  0  0  0  0  0  0  0
    0.0525   -2.5870   -2.0965 H   0  0  0  0  0  0  0  0  0  0  0  0
    0.0525    0.3241   -0.6180 C   0  0  0  0  0  0  0  0  0  0  0  0
   -0.6591    0.7705    0.6373 C   0  0  0  0  0  0  0  0  0  0  0  0
   -0.2373    2.0704    1.2127 N   0  0  0  0  0  0  0  0  0  0  0  0
    0.6298    2.6232    0.6080 O   0  0  0  0  0  0  0  0  0  0  0  0
   -0.0849    1.0425   -1.4260 H   0  0  0  0  0  0  0  0  0  0  0  0
    1.1235    0.2173   -0.4476 H   0  0  0  0  0  0  0  0  0  0  0  0
   -1.7394    0.8829    0.4990 H   0  0  0  0  0  0  0  0  0  0  0  0
   -0.5433    0.0661    1.4675 H   0  0  0  0  0  0  0  0  0  0  0  0
  1  3  1  0
  2  4  1  0
  4  5  1  0
  4  8  1  0
  4  9  1  0
  5  6  1  0
  5 10  1  0
  5 11  1  0
  6  7  2  0
M  RAD  1   1   2
M  END
>  <reaction>  (7) 
rmg_rxn_182

>  <mol_properties>  (7) 
{"0": {"label": "*1", "atom_type": "S2s"}, "1": {"label": "*2", "atom_type": "H0"}, "2": {"label": "*0", "atom_type": "H0"}, "3": {"label": "*3", "atom_type": "Cs"}, "4": {"label": "*4", "atom_type": "Cs"}}

>  <type>  (7) 
unop_3

>  <geom_source>  (7) 
Heuristics

$$$$

     RDKit          3D

 11  9  0  0  0  0  0  0  0  0999 V2000
   -0.6702   -2.6010   -0.0840 S   0  0  0  0  0  1  0  0  0  0  0  0
   -0.6702   -0.9965   -0.0069 H   0  0  0  0  0  0  0  0  0  0  0  0
   -0.6702   -2.6010   -1.4226 H   0  0  0  0  0  0  0  0  0  0  0  0
   -0.6702    0.3102    0.0558 C   0  0  0  0  0  0  0  0  0  0  0  0
    0.5623    0.8499   -0.6306 C   0  0  0  0  0  0  0  0  0  0  0  0
    1.1253    2.1102   -0.0892 N   0  0  0  0  0  0  0  0  0  0  0  0
    0.5303    2.5604    0.8416 O   0  0  0  0  0  0  0  0  0  0  0  0
   -0.4753    0.0977    1.1068 H   0  0  0  0  0  0  0  0  0  0  0  0
   -1.4925    1.0239    0.0086 H   0  0  0  0  0  0  0  0  0  0  0  0
    1.4060    0.1526   -0.6038 H   0  0  0  0  0  0  0  0  0  0  0  0
    0.3991    1.0694   -1.6908 H   0  0  0  0  0  0  0  0  0  0  0  0
  1  3  1  0
  2  4  1  0
  4  5  1  0
  4  8  1  0
  4  9  1  0
  5  6  1  0
  5 10  1  0
  5 11  1  0
  6  7  2  0
M  RAD  1   1   2
M  END
>  <reaction>  (8) 
rmg_rxn_182

>  <mol_properties>  (8) 
{"0": {"label": "*1", "atom_type": "S2s"}, "1": {"label": "*2", "atom_type": "H0"}, "2": {"label": "*0", "atom_type": "H0"}, "3": {"label": "*3", "atom_type": "Cs"}, "4": {"label": "*4", "atom_type": "Cs"}}

>  <type>  (8) 
unop_4

>  <geom_source>  (8) 
Heuristics

$$$$

     RDKit          3D

 11  9  0  0  0  0  0  0  0  0999 V2000
   -0.0000   -2.6562   -0.6774 S   0  0  0  0  0  1  0  0  0  0  0  0
   -0.0000   -1.0518   -0.6003 H   0  0  0  0  0  0  0  0  0  0  0  0
   -0.0000   -2.6562   -2.0160 H   0  0  0  0  0  0  0  0  0  0  0  0
   -0.0000    0.2549   -0.5375 C   0  0  0  0  0  0  0  0  0  0  0  0
   -0.0000    0.6922    0.9083 C   0  0  0  0  0  0  0  0  0  0  0  0
    0.0000    2.1535    1.1596 N   0  0  0  0  0  0  0  0  0  0  0  0
   -0.0000    2.8268    0.1749 O   0  0  0  0  0  0  0  0  0  0  0  0
   -0.8801    0.6264   -1.0620 H   0  0  0  0  0  0  0  0  0  0  0  0
    0.8801    0.6264   -1.0620 H   0  0  0  0  0  0  0  0  0  0  0  0
   -0.8712    0.3302    1.4640 H   0  0  0  0  0  0  0  0  0  0  0  0
    0.8712    0.3302    1.4640 H   0  0  0  0  0  0  0  0  0  0  0  0
  1  3  1  0
  2  4  1  0
  4  5  1  0
  4  8  1  0
  4  9  1  0
  5  6  1  0
  5 10  1  0
  5 11  1  0
  6  7  2  0
M  RAD  1   1   2
M  END
>  <reaction>  (9) 
rmg_rxn_182

>  <mol_properties>  (9) 
{"0": {"label": "*1", "atom_type": "S2s"}, "1": {"label": "*2", "atom_type": "H0"}, "2": {"label": "*0", "atom_type": "H0"}, "3": {"label": "*3", "atom_type": "Cs"}, "4": {"label": "*4", "atom_type": "Cs"}}

>  <type>  (9) 
unop_5

>  <geom_source>  (9) 
Heuristics

$$$$

     RDKit          3D

 11  9  0  0  0  0  0  0  0  0999 V2000
   -0.6083   -2.5405   -0.4820 S   0  0  0  0  0  1  0  0  0  0  0  0
   -0.6083   -0.9360   -0.4049 H   0  0  0  0  0  0  0  0  0  0  0  0
   -0.6083   -2.5405   -1.8206 H   0  0  0  0  0  0  0  0  0  0  0  0
   -0.6083    0.3707   -0.3421 C   0  0  0  0  0  0  0  0  0  0  0  0
    0.8149    0.8762   -0.3178 C   0  0  0  0  0  0  0  0  0  0  0  0
    1.0951    2.0273    0.5738 N   0  0  0  0  0  0  0  0  0  0  0  0
    0.1488    2.4283    1.1794 O   0  0  0  0  0  0  0  0  0  0  0  0
   -0.9262    0.0395    0.6463 H   0  0  0  0  0  0  0  0  0  0  0  0
   -1.2978    1.1488   -0.6690 H   0  0  0  0  0  0  0  0  0  0  0  0
    1.5333    0.1147    0.0029 H   0  0  0  0  0  0  0  0  0  0  0  0
    1.1655    1.2128   -1.2990 H   0  0  0  0  0  0  0  0  0  0  0  0
  1  3  1  0
  2  4  1  0
  4  5  1  0
  4  8  1  0
  4  9  1  0
  5  6  1  0
  5 10  1  0
  5 11  1  0
  6  7  2  0
M  RAD  1   1   2
M  END
>  <reaction>  (10) 
rmg_rxn_182

>  <mol_properties>  (10) 
{"0": {"label": "*1", "atom_type": "S2s"}, "1": {"label": "*2", "atom_type": "H0"}, "2": {"label": "*0", "atom_type": "H0"}, "3": {"label": "*3", "atom_type": "Cs"}, "4": {"label": "*4", "atom_type": "Cs"}}

>  <type>  (10) 
unop_6

>  <geom_source>  (10) 
Heuristics

$$$$

     RDKit          3D

 11  9  0  0  0  0  0  0  0  0999 V2000
   -0.3396   -2.5279   -0.7362 S   0  0  0  0  0  1  0  0  0  0  0  0
   -0.3396   -0.9234   -0.6591 H   0  0  0  0  0  0  0  0  0  0  0  0
   -0.3396   -2.5279   -2.0748 H   0  0  0  0  0  0  0  0  0  0  0  0
   -0.3396    0.3833   -0.5963 C   0  0  0  0  0  0  0  0  0  0  0  0
    0.8929    0.8547    0.1387 C   0  0  0  0  0  0  0  0  0  0  0  0
    0.7176    2.0035    1.0596 N   0  0  0  0  0  0  0  0  0  0  0  0
   -0.3950    2.4303    1.1150 O   0  0  0  0  0  0  0  0  0  0  0  0
   -1.1160    0.0651    0.0991 H   0  0  0  0  0  0  0  0  0  0  0  0
   -0.7554    1.1759   -1.2180 H   0  0  0  0  0  0  0  0  0  0  0  0
    1.3373    0.0779    0.7697 H   0  0  0  0  0  0  0  0  0  0  0  0
    1.6942    1.1775   -0.5340 H   0  0  0  0  0  0  0  0  0  0  0  0
  1  3  1  0
  2  4  1  0
  4  5  1  0
  4  8  1  0
  4  9  1  0
  5  6  1  0
  5 10  1  0
  5 11  1  0
  6  7  2  0
M  RAD  1   1   2
M  END
>  <reaction>  (11) 
rmg_rxn_182

>  <mol_properties>  (11) 
{"0": {"label": "*1", "atom_type": "S2s"}, "1": {"label": "*2", "atom_type": "H0"}, "2": {"label": "*0", "atom_type": "H0"}, "3": {"label": "*3", "atom_type": "Cs"}, "4": {"label": "*4", "atom_type": "Cs"}}

>  <type>  (11) 
unop_7

>  <geom_source>  (11) 
Heuristics

$$$$

     RDKit          3D

 11  9  0  0  0  0  0  0  0  0999 V2000
    0.6083   -2.5405   -0.4820 S   0  0  0  0  0  1  0  0  0  0  0  0
    0.6083   -0.9360   -0.4049 H   0  0  0  0  0  0  0  0  0  0  0  0
    0.6083   -2.5405   -1.8206 H   0  0  0  0  0  0  0  0  0  0  0  0
    0.6083    0.3707   -0.3421 C   0  0  0  0  0  0  0  0  0  0  0  0
   -0.8149    0.8762   -0.3178 C   0  0  0  0  0  0  0  0  0  0  0  0
   -1.0951    2.0273    0.5738 N   0  0  0  0  0  0  0  0  0  0  0  0
   -0.1488    2.4283    1.1794 O   0  0  0  0  0  0  0  0  0  0  0  0
    1.2978    1.1488   -0.6690 H   0  0  0  0  0  0  0  0  0  0  0  0
    0.9262    0.0395    0.6463 H   0  0  0  0  0  0  0  0  0  0  0  0
   -1.1655    1.2128   -1.2990 H   0  0  0  0  0  0  0  0  0  0  0  0
   -1.5333    0.1147    0.0029 H   0  0  0  0  0  0  0  0  0  0  0  0
  1  3  1  0
  2  4  1  0
  4  5  1  0
  4  8  1  0
  4  9  1  0
  5  6  1  0
  5 10  1  0
  5 11  1  0
  6  7  2  0
M  RAD  1   1   2
M  END
>  <reaction>  (12) 
rmg_rxn_182

>  <mol_properties>  (12) 
{"0": {"label": "*1", "atom_type": "S2s"}, "1": {"label": "*2", "atom_type": "H0"}, "2": {"label": "*0", "atom_type": "H0"}, "3": {"label": "*3", "atom_type": "Cs"}, "4": {"label": "*4", "atom_type": "Cs"}}

>  <type>  (12) 
unop_8

>  <geom_source>  (12) 
Heuristics

$$$$

     RDKit          3D

 11  9  0  0  0  0  0  0  0  0999 V2000
   -0.4473   -2.6748    0.2909 S   0  0  0  0  0  1  0  0  0  0  0  0
   -0.4473   -1.0703    0.3679 H   0  0  0  0  0  0  0  0  0  0  0  0
   -0.4473   -2.6748   -1.0478 H   0  0  0  0  0  0  0  0  0  0  0  0
   -0.4473    0.2364    0.4307 C   0  0  0  0  0  0  0  0  0  0  0  0
    0.2643    0.8011   -0.7761 C   0  0  0  0  0  0  0  0  0  0  0  0
    0.7241    2.2072   -0.6776 N   0  0  0  0  0  0  0  0  0  0  0  0
    0.4750    2.7396    0.3605 O   0  0  0  0  0  0  0  0  0  0  0  0
    0.1933    0.2574    1.3121 H   0  0  0  0  0  0  0  0  0  0  0  0
   -1.3470    0.8067    0.6608 H   0  0  0  0  0  0  0  0  0  0  0  0
    1.1716    0.2458   -1.0356 H   0  0  0  0  0  0  0  0  0  0  0  0
   -0.3532    0.7895   -1.6802 H   0  0  0  0  0  0  0  0  0  0  0  0
  1  3  1  0
  2  4  1  0
  4  5  1  0
  4  8  1  0
  4  9  1  0
  5  6  1  0
  5 10  1  0
  5 11  1  0
  6  7  2  0
M  RAD  1   1   2
M  END
>  <reaction>  (13) 
rmg_rxn_182

>  <mol_properties>  (13) 
{"0": {"label": "*1", "atom_type": "S2s"}, "1": {"label": "*2", "atom_type": "H0"}, "2": {"label": "*0", "atom_type": "H0"}, "3": {"label": "*3", "atom_type": "Cs"}, "4": {"label": "*4", "atom_type": "Cs"}}

>  <type>  (13) 
unop_9

>  <geom_source>  (13) 
Heuristics

$$$$

     RDKit          3D

 11  9  0  0  0  0  0  0  0  0999 V2000
    0.6702   -2.6010   -0.0840 S   0  0  0  0  0  1  0  0  0  0  0  0
    0.6702   -0.9965   -0.0069 H   0  0  0  0  0  0  0  0  0  0  0  0
    0.6702   -2.6010   -1.4226 H   0  0  0  0  0  0  0  0  0  0  0  0
    0.6702    0.3102    0.0558 C   0  0  0  0  0  0  0  0  0  0  0  0
   -0.5623    0.8499   -0.6306 C   0  0  0  0  0  0  0  0  0  0  0  0
   -1.1253    2.1102   -0.0892 N   0  0  0  0  0  0  0  0  0  0  0  0
   -0.5303    2.5604    0.8416 O   0  0  0  0  0  0  0  0  0  0  0  0
    1.4925    1.0239    0.0086 H   0  0  0  0  0  0  0  0  0  0  0  0
    0.4753    0.0977    1.1068 H   0  0  0  0  0  0  0  0  0  0  0  0
   -0.3991    1.0694   -1.6908 H   0  0  0  0  0  0  0  0  0  0  0  0
   -1.4060    0.1526   -0.6038 H   0  0  0  0  0  0  0  0  0  0  0  0
  1  3  1  0
  2  4  1  0
  4  5  1  0
  4  8  1  0
  4  9  1  0
  5  6  1  0
  5 10  1  0
  5 11  1  0
  6  7  2  0
M  RAD  1   1   2
M  END
>  <reaction>  (14) 
rmg_rxn_182

>  <mol_properties>  (14) 
{"0": {"label": "*1", "atom_type": "S2s"}, "1": {"label": "*2", "atom_type": "H0"}, "2": {"label": "*0", "atom_type": "H0"}, "3": {"label": "*3", "atom_type": "Cs"}, "4": {"label": "*4", "atom_type": "Cs"}}

>  <type>  (14) 
unop_10

>  <geom_source>  (14) 
Heuristics

$$$$

     RDKit          3D

 11  9  0  0  0  0  0  0  0  0999 V2000
   -0.0525   -2.5870   -0.7579 S   0  0  0  0  0  1  0  0  0  0  0  0
   -0.0525   -0.9826   -0.6808 H   0  0  0  0  0  0  0  0  0  0  0  0
   -0.0525   -2.5870   -2.0965 H   0  0  0  0  0  0  0  0  0  0  0  0
   -0.0525    0.3241   -0.6180 C   0  0  0  0  0  0  0  0  0  0  0  0
    0.6591    0.7705    0.6373 C   0  0  0  0  0  0  0  0  0  0  0  0
    0.2373    2.0704    1.2127 N   0  0  0  0  0  0  0  0  0  0  0  0
   -0.6298    2.6232    0.6080 O   0  0  0  0  0  0  0  0  0  0  0  0
   -1.1235    0.2173   -0.4476 H   0  0  0  0  0  0  0  0  0  0  0  0
    0.0849    1.0425   -1.4260 H   0  0  0  0  0  0  0  0  0  0  0  0
    0.5433    0.0661    1.4675 H   0  0  0  0  0  0  0  0  0  0  0  0
    1.7394    0.8829    0.4990 H   0  0  0  0  0  0  0  0  0  0  0  0
  1  3  1  0
  2  4  1  0
  4  5  1  0
  4  8  1  0
  4  9  1  0
  5  6  1  0
  5 10  1  0
  5 11  1  0
  6  7  2  0
M  RAD  1   1   2
M  END
>  <reaction>  (15) 
rmg_rxn_182

>  <mol_properties>  (15) 
{"0": {"label": "*1", "atom_type": "S2s"}, "1": {"label": "*2", "atom_type": "H0"}, "2": {"label": "*0", "atom_type": "H0"}, "3": {"label": "*3", "atom_type": "Cs"}, "4": {"label": "*4", "atom_type": "Cs"}}

>  <type>  (15) 
unop_11

>  <geom_source>  (15) 
Heuristics

$$$$

     RDKit          3D

 11  9  0  0  0  0  0  0  0  0999 V2000
    0.0000   -2.7104    0.4489 S   0  0  0  0  0  1  0  0  0  0  0  0
    0.0000   -1.1059    0.5260 H   0  0  0  0  0  0  0  0  0  0  0  0
    0.0000   -2.7104   -0.8897 H   0  0  0  0  0  0  0  0  0  0  0  0
    0.0000    0.2008    0.5888 C   0  0  0  0  0  0  0  0  0  0  0  0
    0.0000    0.7747   -0.8085 C   0  0  0  0  0  0  0  0  0  0  0  0
   -0.0000    2.2533   -0.9186 N   0  0  0  0  0  0  0  0  0  0  0  0
    0.0000    2.8291    0.1262 O   0  0  0  0  0  0  0  0  0  0  0  0
    0.8801    0.5203    1.1464 H   0  0  0  0  0  0  0  0  0  0  0  0
   -0.8801    0.5203    1.1464 H   0  0  0  0  0  0  0  0  0  0  0  0
    0.8712    0.4676   -1.3963 H   0  0  0  0  0  0  0  0  0  0  0  0
   -0.8712    0.4676   -1.3963 H   0  0  0  0  0  0  0  0  0  0  0  0
  1  3  1  0
  2  4  1  0
  4  5  1  0
  4  8  1  0
  4  9  1  0
  5  6  1  0
  5 10  1  0
  5 11  1  0
  6  7  2  0
M  RAD  1   1   2
M  END
>  <reaction>  (16) 
rmg_rxn_182

>  <mol_properties>  (16) 
{"0": {"label": "*1", "atom_type": "S2s"}, "1": {"label": "*2", "atom_type": "H0"}, "2": {"label": "*0", "atom_type": "H0"}, "3": {"label": "*3", "atom_type": "Cs"}, "4": {"label": "*4", "atom_type": "Cs"}}

>  <type>  (16) 
unop_12

>  <geom_source>  (16) 
Heuristics

$$$$

     RDKit          3D

 11  9  0  0  0  0  0  0  0  0999 V2000
    0.4473   -2.6748    0.2909 S   0  0  0  0  0  1  0  0  0  0  0  0
    0.4473   -1.0703    0.3679 H   0  0  0  0  0  0  0  0  0  0  0  0
    0.4473   -2.6748   -1.0478 H   0  0  0  0  0  0  0  0  0  0  0  0
    0.4473    0.2364    0.4307 C   0  0  0  0  0  0  0  0  0  0  0  0
   -0.2643    0.8011   -0.7761 C   0  0  0  0  0  0  0  0  0  0  0  0
   -0.7241    2.2073   -0.6776 N   0  0  0  0  0  0  0  0  0  0  0  0
   -0.4750    2.7396    0.3605 O   0  0  0  0  0  0  0  0  0  0  0  0
    1.3470    0.8067    0.6608 H   0  0  0  0  0  0  0  0  0  0  0  0
   -0.1933    0.2574    1.3121 H   0  0  0  0  0  0  0  0  0  0  0  0
    0.3532    0.7895   -1.6802 H   0  0  0  0  0  0  0  0  0  0  0  0
   -1.1716    0.2458   -1.0356 H   0  0  0  0  0  0  0  0  0  0  0  0
  1  3  1  0
  2  4  1  0
  4  5  1  0
  4  8  1  0
  4  9  1  0
  5  6  1  0
  5 10  1  0
  5 11  1  0
  6  7  2  0
M  RAD  1   1   2
M  END
>  <reaction>  (17) 
rmg_rxn_182

>  <mol_properties>  (17) 
{"0": {"label": "*1", "atom_type": "S2s"}, "1": {"label": "*2", "atom_type": "H0"}, "2": {"label": "*0", "atom_type": "H0"}, "3": {"label": "*3", "atom_type": "Cs"}, "4": {"label": "*4", "atom_type": "Cs"}}

>  <type>  (17) 
unop_13

>  <geom_source>  (17) 
gaussian_log

$$$$
