
     RDKit          3D

 14 14  0  0  0  0  0  0  0  0999 V2000
   -1.1778    0.2241    0.1818 C   0  0  0  0  0  0  0  0  0  0  0  0
   -0.5633   -1.1636    0.0678 C   0  0  0  0  0  0  0  0  0  0  0  0
    0.6943   -1.1996    0.7146 O   0  0  0  0  0  0  0  0  0  0  0  0
    1.5547   -0.2288    0.2011 C   0  0  0  0  0  0  0  0  0  0  0  0
    1.0729    1.0696    0.3698 O   0  0  0  0  0  0  0  0  0  0  0  0
   -0.1607    1.2493   -0.2989 C   0  0  0  0  0  0  0  0  0  0  0  0
   -2.0927    0.2866   -0.4117 H   0  0  0  0  0  0  0  0  0  0  0  0
   -1.4303    0.4248    1.2248 H   0  0  0  0  0  0  0  0  0  0  0  0
   -1.1822   -1.9235    0.5431 H   0  0  0  0  0  0  0  0  0  0  0  0
   -0.4389   -1.4347   -0.9919 H   0  0  0  0  0  0  0  0  0  0  0  0
    1.7250   -0.4207   -0.8742 H   0  0  0  0  0  0  0  0  0  0  0  0
    2.4896   -0.3010    0.7524 H   0  0  0  0  0  0  0  0  0  0  0  0
   -0.0080    1.1481   -1.3844 H   0  0  0  0  0  0  0  0  0  0  0  0
   -0.4826    2.2695   -0.0942 H   0  0  0  0  0  0  0  0  0  0  0  0
  1  2  1  0
  1  6  1  0
  1  7  1  0
  1  8  1  0
  2  3  1  0
  2  9  1  0
  2 10  1  0
  3  4  1  0
  4  5  1  0
  4 11  1  0
  4 12  1  0
  5  6  1  0
  6 13  1  0
  6 14  1  0
M  END
>  <reaction>  (1) 
rmg_rxn_316

>  <mol_properties>  (1) 
{"1": {"label": "donator", "atom_type": "Cs"}, "8": {"label": "d_hydrogen", "atom_type": "H0"}}

>  <type>  (1) 
r1h

$$$$

     RDKit          3D

 11 10  0  0  0  0  0  0  0  0999 V2000
   -1.2230    0.3768   -0.0849 C   0  0  0  0  0  0  0  0  0  0  0  0
   -0.0734   -0.5533    0.2746 C   0  0  0  0  0  0  0  0  0  0  0  0
   -0.0853   -1.8426   -0.5372 C   0  0  0  0  0  0  0  0  0  0  0  0
    0.0319   -1.6944   -1.8815 O   0  0  0  0  0  1  0  0  0  0  0  0
   -2.1874   -0.0885    0.1341 H   0  0  0  0  0  0  0  0  0  0  0  0
   -1.1670    1.3099    0.4765 H   0  0  0  0  0  0  0  0  0  0  0  0
   -1.2014    0.6189   -1.1483 H   0  0  0  0  0  0  0  0  0  0  0  0
    0.8834   -0.0518    0.1071 H   0  0  0  0  0  0  0  0  0  0  0  0
   -0.1104   -0.8149    1.3362 H   0  0  0  0  0  0  0  0  0  0  0  0
    0.6767   -2.5604   -0.1861 H   0  0  0  0  0  0  0  0  0  0  0  0
   -1.0401   -2.3871   -0.3877 H   0  0  0  0  0  0  0  0  0  0  0  0
  1  2  1  0
  1  5  1  0
  1  6  1  0
  1  7  1  0
  2  3  1  0
  2  8  1  0
  2  9  1  0
  3  4  1  0
  3 10  1  0
  3 11  1  0
M  RAD  1   4   2
M  END
>  <reaction>  (2) 
rmg_rxn_316

>  <mol_properties>  (2) 
{"3": {"label": "acceptor", "atom_type": "O2s"}}

>  <type>  (2) 
r2

$$$$

     RDKit          3D

 12 11  0  0  0  0  0  0  0  0999 V2000
   -1.4643   -0.2505   -0.5284 C   0  0  0  0  0  0  0  0  0  0  0  0
   -0.3946    0.4302    0.3143 C   0  0  0  0  0  0  0  0  0  0  0  0
   -0.5959    0.2382    1.8102 C   0  0  0  0  0  0  0  0  0  0  0  0
   -0.5633   -1.1190    2.2092 O   0  0  0  0  0  0  0  0  0  0  0  0
   -2.4511    0.1644   -0.3109 H   0  0  0  0  0  0  0  0  0  0  0  0
   -1.5019   -1.3198   -0.3181 H   0  0  0  0  0  0  0  0  0  0  0  0
   -1.2720   -0.1182   -1.5941 H   0  0  0  0  0  0  0  0  0  0  0  0
    0.5965    0.0515    0.0385 H   0  0  0  0  0  0  0  0  0  0  0  0
   -0.3776    1.5047    0.1078 H   0  0  0  0  0  0  0  0  0  0  0  0
   -1.5821    0.6048    2.1034 H   0  0  0  0  0  0  0  0  0  0  0  0
    0.1495    0.8220    2.3649 H   0  0  0  0  0  0  0  0  0  0  0  0
    0.3017   -1.4750    1.9997 H   0  0  0  0  0  0  0  0  0  0  0  0
  1  2  1  0
  1  5  1  0
  1  6  1  0
  1  7  1  0
  2  3  1  0
  2  8  1  0
  2  9  1  0
  3  4  1  0
  3 10  1  0
  3 11  1  0
  4 12  1  0
M  END
>  <reaction>  (3) 
rmg_rxn_316

>  <mol_properties>  (3) 
{"3": {"label": "acceptor", "atom_type": "O2s"}, "11": {"label": "a_hydrogen", "atom_type": "H0"}}

>  <type>  (3) 
r2h

$$$$

     RDKit          3D

 25 24  0  0  0  0  0  0  0  0999 V2000
    2.4803   -2.1758    1.1195 C   0  0  0  0  0  0  0  0  0  0  0  0
    0.9709   -2.1929    0.9267 C   0  0  0  0  0  0  0  0  0  0  0  0
    0.2136   -1.5049    2.0557 C   0  0  0  0  0  0  0  0  0  0  0  0
    0.6079   -0.1872    2.2951 O   0  0  0  0  0  0  0  0  0  0  0  0
    2.7657   -2.7047    2.0322 H   0  0  0  0  0  0  0  0  0  0  0  0
    2.9910   -2.6537    0.2820 H   0  0  0  0  0  0  0  0  0  0  0  0
    2.8474   -1.1521    1.2049 H   0  0  0  0  0  0  0  0  0  0  0  0
    0.7016   -1.7089   -0.0159 H   0  0  0  0  0  0  0  0  0  0  0  0
    0.6092   -3.2231    0.8554 H   0  0  0  0  0  0  0  0  0  0  0  0
   -0.8677   -1.5628    1.8771 H   0  0  0  0  0  0  0  0  0  0  0  0
    0.4039   -2.0248    3.0058 H   0  0  0  0  0  0  0  0  0  0  0  0
    0.9162    1.3551   -0.5982 C   0  0  0  0  0  0  0  0  0  0  0  0
   -0.2482    1.0952    0.3251 C   0  0  0  0  0  3  0  0  0  0  0  0
   -1.1896    0.2372   -0.2316 O   0  0  0  0  0  0  0  0  0  0  0  0
   -1.6250    0.6746   -1.4979 C   0  0  0  0  0  0  0  0  0  0  0  0
   -0.5812    0.8028   -2.4041 O   0  0  0  0  0  0  0  0  0  0  0  0
    0.3672    1.7569   -1.9662 C   0  0  0  0  0  0  0  0  0  0  0  0
    1.5584    2.1372   -0.1913 H   0  0  0  0  0  0  0  0  0  0  0  0
    1.5089    0.4445   -0.7037 H   0  0  0  0  0  0  0  0  0  0  0  0
    0.1932    0.5096    1.3481 H   0  0  0  0  0  0  0  0  0  0  0  0
   -0.7138    2.0001    0.7376 H   0  0  0  0  0  0  0  0  0  0  0  0
   -2.1455    1.6404   -1.3822 H   0  0  0  0  0  0  0  0  0  0  0  0
   -2.3035   -0.0850   -1.8778 H   0  0  0  0  0  0  0  0  0  0  0  0
   -0.1044    2.7487   -1.9123 H   0  0  0  0  0  0  0  0  0  0  0  0
    1.1526    1.7891   -2.7197 H   0  0  0  0  0  0  0  0  0  0  0  0
  1  2  1  0
  1  5  1  0
  1  6  1  0
  1  7  1  0
  2  3  1  0
  2  8  1  0
  2  9  1  0
  3  4  1  0
  3 10  1  0
  3 11  1  0
  4 20  1  0
 12 13  1  0
 12 17  1  0
 12 18  1  0
 12 19  1  0
 13 14  1  0
 13 21  1  0
 14 15  1  0
 15 16  1  0
 15 22  1  0
 15 23  1  0
 16 17  1  0
 17 24  1  0
 17 25  1  0
M  RAD  1  13   2
M  END
>  <reaction>  (4) 
rmg_rxn_316

>  <mol_properties>  (4) 
{"2": {"label": "*0", "atom_type": "Cs"}, "3": {"label": "*1", "atom_type": "O2s"}, "12": {"label": "*3", "atom_type": "Cs"}, "13": {"label": "*4", "atom_type": "O2s"}, "19": {"label": "*2", "atom_type": "H0"}}

>  <type>  (4) 
ts

$$$$

     RDKit          3D

 25 24  0  0  0  0  0  0  0  0999 V2000
    0.8454   -0.3856    2.6379 C   0  0  0  0  0  0  0  0  0  0  0  0
    1.6254   -1.3844    1.7941 C   0  0  0  0  0  0  0  0  0  0  0  0
    0.7974   -2.5883    1.3698 C   0  0  0  0  0  0  0  0  0  0  0  0
   -0.3254   -2.2445    0.5802 O   0  0  0  0  0  0  0  0  0  0  0  0
    0.5035   -0.8471    3.5672 H   0  0  0  0  0  0  0  0  0  0  0  0
    1.4599    0.4774    2.8981 H   0  0  0  0  0  0  0  0  0  0  0  0
   -0.0352   -0.0294    2.1026 H   0  0  0  0  0  0  0  0  0  0  0  0
    2.0185   -0.8908    0.8977 H   0  0  0  0  0  0  0  0  0  0  0  0
    2.4966   -1.7478    2.3476 H   0  0  0  0  0  0  0  0  0  0  0  0
    1.4331   -3.3115    0.8435 H   0  0  0  0  0  0  0  0  0  0  0  0
    0.3916   -3.0905    2.2508 H   0  0  0  0  0  0  0  0  0  0  0  0
    0.0332    0.0060   -1.8608 C   0  0  0  0  0  0  0  0  0  0  0  0
    0.0332    0.0060   -0.3388 C   0  0  0  0  0  3  0  0  0  0  0  0
   -1.0151    0.8186    0.1533 O   0  0  0  0  0  0  0  0  0  0  0  0
   -0.9242    2.1182   -0.3460 C   0  0  0  0  0  0  0  0  0  0  0  0
   -1.0151    2.1744   -1.7371 O   0  0  0  0  0  0  0  0  0  0  0  0
    0.0332    1.4477   -2.3489 C   0  0  0  0  0  0  0  0  0  0  0  0
    0.9072   -0.5264   -2.2427 H   0  0  0  0  0  0  0  0  0  0  0  0
   -0.8634   -0.5001   -2.2239 H   0  0  0  0  0  0  0  0  0  0  0  0
   -0.1575   -1.1910    0.1500 H   0  0  0  0  0  0  0  0  0  0  0  0
    0.9968    0.3820    0.0379 H   0  0  0  0  0  0  0  0  0  0  0  0
    0.0312    2.5703   -0.0218 H   0  0  0  0  0  0  0  0  0  0  0  0
   -1.7652    2.6787    0.0560 H   0  0  0  0  0  0  0  0  0  0  0  0
    0.9968    1.9251   -2.1136 H   0  0  0  0  0  0  0  0  0  0  0  0
   -0.1257    1.5136   -3.4244 H   0  0  0  0  0  0  0  0  0  0  0  0
  1  2  1  0
  1  5  1  0
  1  6  1  0
  1  7  1  0
  2  3  1  0
  2  8  1  0
  2  9  1  0
  3  4  1  0
  3 10  1  0
  3 11  1  0
  4 20  1  0
 12 13  1  0
 12 17  1  0
 12 18  1  0
 12 19  1  0
 13 14  1  0
 13 21  1  0
 14 15  1  0
 15 16  1  0
 15 22  1  0
 15 23  1  0
 16 17  1  0
 17 24  1  0
 17 25  1  0
M  RAD  1  13   2
M  END
>  <reaction>  (5) 
rmg_rxn_316

>  <mol_properties>  (5) 
{"2": {"label": "*0", "atom_type": "Cs"}, "3": {"label": "*1", "atom_type": "O2s"}, "12": {"label": "*3", "atom_type": "Cs"}, "13": {"label": "*4", "atom_type": "O2s"}, "19": {"label": "*2", "atom_type": "H0"}}

>  <type>  (5) 
unop_1

>  <geom_source>  (5) 
Heuristics

$$$$

     RDKit          3D

 25 24  0  0  0  0  0  0  0  0999 V2000
    2.5162   -2.1668    0.8119 C   0  0  0  0  0  0  0  0  0  0  0  0
    1.4271   -2.3516   -0.2358 C   0  0  0  0  0  0  0  0  0  0  0  0
    0.0896   -2.7716    0.3557 C   0  0  0  0  0  0  0  0  0  0  0  0
   -0.4399   -1.8277    1.2673 O   0  0  0  0  0  0  0  0  0  0  0  0
    2.7109   -3.1042    1.3379 H   0  0  0  0  0  0  0  0  0  0  0  0
    3.4511   -1.8369    0.3567 H   0  0  0  0  0  0  0  0  0  0  0  0
    2.2182   -1.4268    1.5552 H   0  0  0  0  0  0  0  0  0  0  0  0
    1.2889   -1.4220   -0.8001 H   0  0  0  0  0  0  0  0  0  0  0  0
    1.7296   -3.1083   -0.9660 H   0  0  0  0  0  0  0  0  0  0  0  0
   -0.6272   -2.9749   -0.4499 H   0  0  0  0  0  0  0  0  0  0  0  0
    0.2086   -3.6944    0.9277 H   0  0  0  0  0  0  0  0  0  0  0  0
   -0.0813    0.4229   -1.1738 C   0  0  0  0  0  0  0  0  0  0  0  0
   -0.0813    0.4229    0.3483 C   0  0  0  0  0  3  0  0  0  0  0  0
   -1.1295    1.2355    0.8404 O   0  0  0  0  0  0  0  0  0  0  0  0
   -1.0386    2.5350    0.3410 C   0  0  0  0  0  0  0  0  0  0  0  0
   -1.1295    2.5912   -1.0500 O   0  0  0  0  0  0  0  0  0  0  0  0
   -0.0813    1.8645   -1.6619 C   0  0  0  0  0  0  0  0  0  0  0  0
    0.7927   -0.1096   -1.5556 H   0  0  0  0  0  0  0  0  0  0  0  0
   -0.9778   -0.0833   -1.5368 H   0  0  0  0  0  0  0  0  0  0  0  0
   -0.2720   -0.7742    0.8371 H   0  0  0  0  0  0  0  0  0  0  0  0
    0.8824    0.7988    0.7250 H   0  0  0  0  0  0  0  0  0  0  0  0
   -0.0833    2.9871    0.6653 H   0  0  0  0  0  0  0  0  0  0  0  0
   -1.8797    3.0955    0.7430 H   0  0  0  0  0  0  0  0  0  0  0  0
    0.8824    2.3419   -1.4266 H   0  0  0  0  0  0  0  0  0  0  0  0
   -0.2402    1.9304   -2.7373 H   0  0  0  0  0  0  0  0  0  0  0  0
  1  2  1  0
  1  5  1  0
  1  6  1  0
  1  7  1  0
  2  3  1  0
  2  8  1  0
  2  9  1  0
  3  4  1  0
  3 10  1  0
  3 11  1  0
  4 20  1  0
 12 13  1  0
 12 17  1  0
 12 18  1  0
 12 19  1  0
 13 14  1  0
 13 21  1  0
 14 15  1  0
 15 16  1  0
 15 22  1  0
 15 23  1  0
 16 17  1  0
 17 24  1  0
 17 25  1  0
M  RAD  1  13   2
M  END
>  <reaction>  (6) 
rmg_rxn_316

>  <mol_properties>  (6) 
{"2": {"label": "*0", "atom_type": "Cs"}, "3": {"label": "*1", "atom_type": "O2s"}, "12": {"label": "*3", "atom_type": "Cs"}, "13": {"label": "*4", "atom_type": "O2s"}, "19": {"label": "*2", "atom_type": "H0"}}

>  <type>  (6) 
unop_2

>  <geom_source>  (6) 
Heuristics

$$$$

     RDKit          3D

 25 24  0  0  0  0  0  0  0  0999 V2000
   -0.6083   -0.4762    2.7434 C   0  0  0  0  0  0  0  0  0  0  0  0
    0.7597   -1.0585    2.4157 C   0  0  0  0  0  0  0  0  0  0  0  0
    0.6859   -2.3890    1.6812 C   0  0  0  0  0  0  0  0  0  0  0  0
    0.0196   -2.3041    0.4358 O   0  0  0  0  0  0  0  0  0  0  0  0
   -1.1655   -1.1441    3.4043 H   0  0  0  0  0  0  0  0  0  0  0  0
   -0.5179    0.4901    3.2416 H   0  0  0  0  0  0  0  0  0  0  0  0
   -1.1992   -0.3397    1.8373 H   0  0  0  0  0  0  0  0  0  0  0  0
    1.3326   -0.3491    1.8073 H   0  0  0  0  0  0  0  0  0  0  0  0
    1.3369   -1.2073    3.3334 H   0  0  0  0  0  0  0  0  0  0  0  0
    1.6950   -2.8004    1.5524 H   0  0  0  0  0  0  0  0  0  0  0  0
    0.1127   -3.1084    2.2702 H   0  0  0  0  0  0  0  0  0  0  0  0
    0.3782   -0.0536   -2.0052 C   0  0  0  0  0  0  0  0  0  0  0  0
    0.3782   -0.0536   -0.4832 C   0  0  0  0  0  3  0  0  0  0  0  0
   -0.6701    0.7590    0.0089 O   0  0  0  0  0  0  0  0  0  0  0  0
   -0.5792    2.0586   -0.4904 C   0  0  0  0  0  0  0  0  0  0  0  0
   -0.6701    2.1148   -1.8814 O   0  0  0  0  0  0  0  0  0  0  0  0
    0.3782    1.3881   -2.4933 C   0  0  0  0  0  0  0  0  0  0  0  0
    1.2522   -0.5860   -2.3871 H   0  0  0  0  0  0  0  0  0  0  0  0
   -0.5184   -0.5597   -2.3682 H   0  0  0  0  0  0  0  0  0  0  0  0
    0.1875   -1.2506    0.0056 H   0  0  0  0  0  0  0  0  0  0  0  0
    1.3418    0.3224   -0.1065 H   0  0  0  0  0  0  0  0  0  0  0  0
    0.3762    2.5106   -0.1662 H   0  0  0  0  0  0  0  0  0  0  0  0
   -1.4202    2.6191   -0.0884 H   0  0  0  0  0  0  0  0  0  0  0  0
    1.3418    1.8655   -2.2580 H   0  0  0  0  0  0  0  0  0  0  0  0
    0.2193    1.4540   -3.5688 H   0  0  0  0  0  0  0  0  0  0  0  0
  1  2  1  0
  1  5  1  0
  1  6  1  0
  1  7  1  0
  2  3  1  0
  2  8  1  0
  2  9  1  0
  3  4  1  0
  3 10  1  0
  3 11  1  0
  4 20  1  0
 12 13  1  0
 12 17  1  0
 12 18  1  0
 12 19  1  0
 13 14  1  0
 13 21  1  0
 14 15  1  0
 15 16  1  0
 15 22  1  0
 15 23  1  0
 16 17  1  0
 17 24  1  0
 17 25  1  0
M  RAD  1  13   2
M  END
>  <reaction>  (7) 
rmg_rxn_316

>  <mol_properties>  (7) 
{"2": {"label": "*0", "atom_type": "Cs"}, "3": {"label": "*1", "atom_type": "O2s"}, "12": {"label": "*3", "atom_type": "Cs"}, "13": {"label": "*4", "atom_type": "O2s"}, "19": {"label": "*2", "atom_type": "H0"}}

>  <type>  (7) 
unop_3

>  <geom_source>  (7) 
Heuristics

$$$$

     RDKit          3D

 25 24  0  0  0  0  0  0  0  0999 V2000
    0.0432   -4.1812   -0.1099 C   0  0  0  0  0  0  0  0  0  0  0  0
   -0.7867   -2.9267   -0.3452 C   0  0  0  0  0  0  0  0  0  0  0  0
   -0.8914   -2.0364    0.8843 C   0  0  0  0  0  0  0  0  0  0  0  0
    0.3616   -1.5626    1.3400 O   0  0  0  0  0  0  0  0  0  0  0  0
   -0.4086   -4.8050    0.6648 H   0  0  0  0  0  0  0  0  0  0  0  0
    0.1222   -4.7795   -1.0187 H   0  0  0  0  0  0  0  0  0  0  0  0
    1.0506   -3.9242    0.2188 H   0  0  0  0  0  0  0  0  0  0  0  0
   -0.3591   -2.3441   -1.1694 H   0  0  0  0  0  0  0  0  0  0  0  0
   -1.8000   -3.1969   -0.6577 H   0  0  0  0  0  0  0  0  0  0  0  0
   -1.5707   -1.1988    0.6815 H   0  0  0  0  0  0  0  0  0  0  0  0
   -1.3106   -2.6021    1.7193 H   0  0  0  0  0  0  0  0  0  0  0  0
    0.7202    0.6879   -1.1010 C   0  0  0  0  0  0  0  0  0  0  0  0
    0.7202    0.6879    0.4210 C   0  0  0  0  0  3  0  0  0  0  0  0
   -0.3281    1.5005    0.9131 O   0  0  0  0  0  0  0  0  0  0  0  0
   -0.2372    2.8001    0.4138 C   0  0  0  0  0  0  0  0  0  0  0  0
   -0.3281    2.8563   -0.9773 O   0  0  0  0  0  0  0  0  0  0  0  0
    0.7202    2.1296   -1.5892 C   0  0  0  0  0  0  0  0  0  0  0  0
    1.5942    0.1555   -1.4829 H   0  0  0  0  0  0  0  0  0  0  0  0
   -0.1764    0.1818   -1.4641 H   0  0  0  0  0  0  0  0  0  0  0  0
    0.5295   -0.5091    0.9098 H   0  0  0  0  0  0  0  0  0  0  0  0
    1.6838    1.0639    0.7977 H   0  0  0  0  0  0  0  0  0  0  0  0
    0.7182    3.2521    0.7380 H   0  0  0  0  0  0  0  0  0  0  0  0
   -1.0782    3.3606    0.8158 H   0  0  0  0  0  0  0  0  0  0  0  0
    1.6838    2.6070   -1.3539 H   0  0  0  0  0  0  0  0  0  0  0  0
    0.5613    2.1955   -2.6646 H   0  0  0  0  0  0  0  0  0  0  0  0
  1  2  1  0
  1  5  1  0
  1  6  1  0
  1  7  1  0
  2  3  1  0
  2  8  1  0
  2  9  1  0
  3  4  1  0
  3 10  1  0
  3 11  1  0
  4 20  1  0
 12 13  1  0
 12 17  1  0
 12 18  1  0
 12 19  1  0
 13 14  1  0
 13 21  1  0
 14 15  1  0
 15 16  1  0
 15 22  1  0
 15 23  1  0
 16 17  1  0
 17 24  1  0
 17 25  1  0
M  RAD  1  13   2
M  END
>  <reaction>  (8) 
rmg_rxn_316

>  <mol_properties>  (8) 
{"2": {"label": "*0", "atom_type": "Cs"}, "3": {"label": "*1", "atom_type": "O2s"}, "12": {"label": "*3", "atom_type": "Cs"}, "13": {"label": "*4", "atom_type": "O2s"}, "19": {"label": "*2", "atom_type": "H0"}}

>  <type>  (8) 
unop_4

>  <geom_source>  (8) 
Heuristics

$$$$

     RDKit          3D

 25 24  0  0  0  0  0  0  0  0999 V2000
   -2.0399   -1.6836    2.1138 C   0  0  0  0  0  0  0  0  0  0  0  0
   -0.6429   -1.1877    2.4609 C   0  0  0  0  0  0  0  0  0  0  0  0
    0.4638   -2.0697    1.9019 C   0  0  0  0  0  0  0  0  0  0  0  0
    0.4499   -2.1568    0.4896 O   0  0  0  0  0  0  0  0  0  0  0  0
   -2.2152   -2.6755    2.5368 H   0  0  0  0  0  0  0  0  0  0  0  0
   -2.8063   -1.0123    2.5037 H   0  0  0  0  0  0  0  0  0  0  0  0
   -2.1681   -1.7579    1.0335 H   0  0  0  0  0  0  0  0  0  0  0  0
   -0.5048   -0.1663    2.0876 H   0  0  0  0  0  0  0  0  0  0  0  0
   -0.5200   -1.1336    3.5468 H   0  0  0  0  0  0  0  0  0  0  0  0
    1.4392   -1.7146    2.2575 H   0  0  0  0  0  0  0  0  0  0  0  0
    0.3393   -3.0945    2.2586 H   0  0  0  0  0  0  0  0  0  0  0  0
    0.8085    0.0937   -1.9514 C   0  0  0  0  0  0  0  0  0  0  0  0
    0.8085    0.0937   -0.4294 C   0  0  0  0  0  3  0  0  0  0  0  0
   -0.2398    0.9063    0.0627 O   0  0  0  0  0  0  0  0  0  0  0  0
   -0.1489    2.2059   -0.4366 C   0  0  0  0  0  0  0  0  0  0  0  0
   -0.2398    2.2621   -1.8276 O   0  0  0  0  0  0  0  0  0  0  0  0
    0.8085    1.5354   -2.4395 C   0  0  0  0  0  0  0  0  0  0  0  0
    1.6825   -0.4387   -2.3333 H   0  0  0  0  0  0  0  0  0  0  0  0
   -0.0881   -0.4124   -2.3144 H   0  0  0  0  0  0  0  0  0  0  0  0
    0.6178   -1.1033    0.0594 H   0  0  0  0  0  0  0  0  0  0  0  0
    1.7721    0.4697   -0.0526 H   0  0  0  0  0  0  0  0  0  0  0  0
    0.8064    2.6579   -0.1124 H   0  0  0  0  0  0  0  0  0  0  0  0
   -0.9899    2.7664   -0.0346 H   0  0  0  0  0  0  0  0  0  0  0  0
    1.7721    2.0128   -2.2042 H   0  0  0  0  0  0  0  0  0  0  0  0
    0.6495    1.6013   -3.5150 H   0  0  0  0  0  0  0  0  0  0  0  0
  1  2  1  0
  1  5  1  0
  1  6  1  0
  1  7  1  0
  2  3  1  0
  2  8  1  0
  2  9  1  0
  3  4  1  0
  3 10  1  0
  3 11  1  0
  4 20  1  0
 12 13  1  0
 12 17  1  0
 12 18  1  0
 12 19  1  0
 13 14  1  0
 13 21  1  0
 14 15  1  0
 15 16  1  0
 15 22  1  0
 15 23  1  0
 16 17  1  0
 17 24  1  0
 17 25  1  0
M  RAD  1  13   2
M  END
>  <reaction>  (9) 
rmg_rxn_316

>  <mol_properties>  (9) 
{"2": {"label": "*0", "atom_type": "Cs"}, "3": {"label": "*1", "atom_type": "O2s"}, "12": {"label": "*3", "atom_type": "Cs"}, "13": {"label": "*4", "atom_type": "O2s"}, "19": {"label": "*2", "atom_type": "H0"}}

>  <type>  (9) 
unop_5

>  <geom_source>  (9) 
Heuristics

$$$$

     RDKit          3D

 25 24  0  0  0  0  0  0  0  0999 V2000
   -0.8399   -4.1280    0.2366 C   0  0  0  0  0  0  0  0  0  0  0  0
   -1.4345   -2.7265    0.2509 C   0  0  0  0  0  0  0  0  0  0  0  0
   -0.8232   -1.8254    1.3138 C   0  0  0  0  0  0  0  0  0  0  0  0
    0.5680   -1.6280    1.1468 O   0  0  0  0  0  0  0  0  0  0  0  0
   -1.0194   -4.6348    1.1876 H   0  0  0  0  0  0  0  0  0  0  0  0
   -1.2790   -4.7359   -0.5557 H   0  0  0  0  0  0  0  0  0  0  0  0
    0.2387   -4.0905    0.0808 H   0  0  0  0  0  0  0  0  0  0  0  0
   -1.3056   -2.2551   -0.7303 H   0  0  0  0  0  0  0  0  0  0  0  0
   -2.5136   -2.7755    0.4251 H   0  0  0  0  0  0  0  0  0  0  0  0
   -1.3502   -0.8632    1.3352 H   0  0  0  0  0  0  0  0  0  0  0  0
   -0.9367   -2.2821    2.2995 H   0  0  0  0  0  0  0  0  0  0  0  0
    0.9266    0.6226   -1.2942 C   0  0  0  0  0  0  0  0  0  0  0  0
    0.9266    0.6226    0.2278 C   0  0  0  0  0  3  0  0  0  0  0  0
   -0.1217    1.4352    0.7199 O   0  0  0  0  0  0  0  0  0  0  0  0
   -0.0308    2.7348    0.2206 C   0  0  0  0  0  0  0  0  0  0  0  0
   -0.1217    2.7909   -1.1704 O   0  0  0  0  0  0  0  0  0  0  0  0
    0.9266    2.0642   -1.7823 C   0  0  0  0  0  0  0  0  0  0  0  0
    1.8006    0.0901   -1.6761 H   0  0  0  0  0  0  0  0  0  0  0  0
    0.0300    0.1164   -1.6572 H   0  0  0  0  0  0  0  0  0  0  0  0
    0.7358   -0.5744    0.7166 H   0  0  0  0  0  0  0  0  0  0  0  0
    1.8902    0.9986    0.6046 H   0  0  0  0  0  0  0  0  0  0  0  0
    0.9245    3.1868    0.5448 H   0  0  0  0  0  0  0  0  0  0  0  0
   -0.8719    3.2953    0.6226 H   0  0  0  0  0  0  0  0  0  0  0  0
    1.8902    2.5416   -1.5470 H   0  0  0  0  0  0  0  0  0  0  0  0
    0.7676    2.1302   -2.8578 H   0  0  0  0  0  0  0  0  0  0  0  0
  1  2  1  0
  1  5  1  0
  1  6  1  0
  1  7  1  0
  2  3  1  0
  2  8  1  0
  2  9  1  0
  3  4  1  0
  3 10  1  0
  3 11  1  0
  4 20  1  0
 12 13  1  0
 12 17  1  0
 12 18  1  0
 12 19  1  0
 13 14  1  0
 13 21  1  0
 14 15  1  0
 15 16  1  0
 15 22  1  0
 15 23  1  0
 16 17  1  0
 17 24  1  0
 17 25  1  0
M  RAD  1  13   2
M  END
>  <reaction>  (10) 
rmg_rxn_316

>  <mol_properties>  (10) 
{"2": {"label": "*0", "atom_type": "Cs"}, "3": {"label": "*1", "atom_type": "O2s"}, "12": {"label": "*3", "atom_type": "Cs"}, "13": {"label": "*4", "atom_type": "O2s"}, "19": {"label": "*2", "atom_type": "H0"}}

>  <type>  (10) 
unop_6

>  <geom_source>  (10) 
Heuristics

$$$$

     RDKit          3D

 25 24  0  0  0  0  0  0  0  0999 V2000
   -1.4834   -3.8421    0.7090 C   0  0  0  0  0  0  0  0  0  0  0  0
   -1.7114   -2.3712    1.0289 C   0  0  0  0  0  0  0  0  0  0  0  0
   -0.5188   -1.7118    1.7058 C   0  0  0  0  0  0  0  0  0  0  0  0
    0.6552   -1.7340    0.9162 O   0  0  0  0  0  0  0  0  0  0  0  0
   -1.3127   -4.4155    1.6230 H   0  0  0  0  0  0  0  0  0  0  0  0
   -2.3451   -4.2740    0.1980 H   0  0  0  0  0  0  0  0  0  0  0  0
   -0.6085   -3.9696    0.0709 H   0  0  0  0  0  0  0  0  0  0  0  0
   -1.9469   -1.8206    0.1107 H   0  0  0  0  0  0  0  0  0  0  0  0
   -2.5809   -2.2570    1.6832 H   0  0  0  0  0  0  0  0  0  0  0  0
   -0.7734   -0.6833    1.9908 H   0  0  0  0  0  0  0  0  0  0  0  0
   -0.2649   -2.2511    2.6211 H   0  0  0  0  0  0  0  0  0  0  0  0
    1.0138    0.5165   -1.5248 C   0  0  0  0  0  0  0  0  0  0  0  0
    1.0138    0.5165   -0.0028 C   0  0  0  0  0  3  0  0  0  0  0  0
   -0.0345    1.3291    0.4893 O   0  0  0  0  0  0  0  0  0  0  0  0
    0.0564    2.6287   -0.0100 C   0  0  0  0  0  0  0  0  0  0  0  0
   -0.0345    2.6849   -1.4011 O   0  0  0  0  0  0  0  0  0  0  0  0
    1.0138    1.9582   -2.0129 C   0  0  0  0  0  0  0  0  0  0  0  0
    1.8878   -0.0159   -1.9067 H   0  0  0  0  0  0  0  0  0  0  0  0
    0.1172    0.0103   -1.8878 H   0  0  0  0  0  0  0  0  0  0  0  0
    0.8230   -0.6805    0.4860 H   0  0  0  0  0  0  0  0  0  0  0  0
    1.9774    0.8925    0.3739 H   0  0  0  0  0  0  0  0  0  0  0  0
    1.0117    3.0807    0.3142 H   0  0  0  0  0  0  0  0  0  0  0  0
   -0.7847    3.1892    0.3920 H   0  0  0  0  0  0  0  0  0  0  0  0
    1.9774    2.4356   -1.7776 H   0  0  0  0  0  0  0  0  0  0  0  0
    0.8548    2.0241   -3.0884 H   0  0  0  0  0  0  0  0  0  0  0  0
  1  2  1  0
  1  5  1  0
  1  6  1  0
  1  7  1  0
  2  3  1  0
  2  8  1  0
  2  9  1  0
  3  4  1  0
  3 10  1  0
  3 11  1  0
  4 20  1  0
 12 13  1  0
 12 17  1  0
 12 18  1  0
 12 19  1  0
 13 14  1  0
 13 21  1  0
 14 15  1  0
 15 16  1  0
 15 22  1  0
 15 23  1  0
 16 17  1  0
 17 24  1  0
 17 25  1  0
M  RAD  1  13   2
M  END
>  <reaction>  (11) 
rmg_rxn_316

>  <mol_properties>  (11) 
{"2": {"label": "*0", "atom_type": "Cs"}, "3": {"label": "*1", "atom_type": "O2s"}, "12": {"label": "*3", "atom_type": "Cs"}, "13": {"label": "*4", "atom_type": "O2s"}, "19": {"label": "*2", "atom_type": "H0"}}

>  <type>  (11) 
unop_7

>  <geom_source>  (11) 
Heuristics

$$$$

     RDKit          3D

 25 24  0  0  0  0  0  0  0  0999 V2000
    1.8197   -0.7493    2.1529 C   0  0  0  0  0  0  0  0  0  0  0  0
    1.9163   -1.7518    1.0112 C   0  0  0  0  0  0  0  0  0  0  0  0
    0.7596   -2.7400    0.9800 C   0  0  0  0  0  0  0  0  0  0  0  0
   -0.5013   -2.1199    0.8131 O   0  0  0  0  0  0  0  0  0  0  0  0
    1.8446   -1.2587    3.1190 H   0  0  0  0  0  0  0  0  0  0  0  0
    2.6472   -0.0389    2.1266 H   0  0  0  0  0  0  0  0  0  0  0  0
    0.8860   -0.1886    2.0991 H   0  0  0  0  0  0  0  0  0  0  0  0
    1.9571   -1.2236    0.0515 H   0  0  0  0  0  0  0  0  0  0  0  0
    2.8483   -2.3203    1.0851 H   0  0  0  0  0  0  0  0  0  0  0  0
    0.9293   -3.4881    0.1954 H   0  0  0  0  0  0  0  0  0  0  0  0
    0.6990   -3.2726    1.9316 H   0  0  0  0  0  0  0  0  0  0  0  0
   -0.1427    0.1306   -1.6280 C   0  0  0  0  0  0  0  0  0  0  0  0
   -0.1427    0.1306   -0.1060 C   0  0  0  0  0  3  0  0  0  0  0  0
   -1.1910    0.9432    0.3861 O   0  0  0  0  0  0  0  0  0  0  0  0
   -1.1001    2.2428   -0.1132 C   0  0  0  0  0  0  0  0  0  0  0  0
   -1.1910    2.2990   -1.5042 O   0  0  0  0  0  0  0  0  0  0  0  0
   -0.1427    1.5723   -2.1161 C   0  0  0  0  0  0  0  0  0  0  0  0
    0.7313   -0.4018   -2.0099 H   0  0  0  0  0  0  0  0  0  0  0  0
   -1.0393   -0.3755   -1.9910 H   0  0  0  0  0  0  0  0  0  0  0  0
   -0.3334   -1.0664    0.3828 H   0  0  0  0  0  0  0  0  0  0  0  0
    0.8209    0.5066    0.2708 H   0  0  0  0  0  0  0  0  0  0  0  0
   -0.1447    2.6948    0.2110 H   0  0  0  0  0  0  0  0  0  0  0  0
   -1.9411    2.8033    0.2888 H   0  0  0  0  0  0  0  0  0  0  0  0
    0.8209    2.0497   -1.8808 H   0  0  0  0  0  0  0  0  0  0  0  0
   -0.3016    1.6382   -3.1916 H   0  0  0  0  0  0  0  0  0  0  0  0
  1  2  1  0
  1  5  1  0
  1  6  1  0
  1  7  1  0
  2  3  1  0
  2  8  1  0
  2  9  1  0
  3  4  1  0
  3 10  1  0
  3 11  1  0
  4 20  1  0
 12 13  1  0
 12 17  1  0
 12 18  1  0
 12 19  1  0
 13 14  1  0
 13 21  1  0
 14 15  1  0
 15 16  1  0
 15 22  1  0
 15 23  1  0
 16 17  1  0
 17 24  1  0
 17 25  1  0
M  RAD  1  13   2
M  END
>  <reaction>  (12) 
rmg_rxn_316

>  <mol_properties>  (12) 
{"2": {"label": "*0", "atom_type": "Cs"}, "3": {"label": "*1", "atom_type": "O2s"}, "12": {"label": "*3", "atom_type": "Cs"}, "13": {"label": "*4", "atom_type": "O2s"}, "19": {"label": "*2", "atom_type": "H0"}}

>  <type>  (12) 
unop_8

>  <geom_source>  (12) 
Heuristics

$$$$

     RDKit          3D

 25 24  0  0  0  0  0  0  0  0999 V2000
    1.1358   -3.8833   -0.1640 C   0  0  0  0  0  0  0  0  0  0  0  0
    0.0653   -2.9029   -0.6230 C   0  0  0  0  0  0  0  0  0  0  0  0
   -0.7324   -2.3033    0.5257 C   0  0  0  0  0  0  0  0  0  0  0  0
    0.0642   -1.5707    1.4373 O   0  0  0  0  0  0  0  0  0  0  0  0
    0.6861   -4.7334    0.3543 H   0  0  0  0  0  0  0  0  0  0  0  0
    1.7070   -4.2696   -1.0094 H   0  0  0  0  0  0  0  0  0  0  0  0
    1.8299   -3.4046    0.5273 H   0  0  0  0  0  0  0  0  0  0  0  0
    0.5238   -2.0902   -1.1983 H   0  0  0  0  0  0  0  0  0  0  0  0
   -0.6350   -3.3985   -1.3021 H   0  0  0  0  0  0  0  0  0  0  0  0
   -1.5423   -1.6773    0.1306 H   0  0  0  0  0  0  0  0  0  0  0  0
   -1.1926   -3.0994    1.1151 H   0  0  0  0  0  0  0  0  0  0  0  0
    0.4228    0.6799   -1.0038 C   0  0  0  0  0  0  0  0  0  0  0  0
    0.4228    0.6799    0.5183 C   0  0  0  0  0  3  0  0  0  0  0  0
   -0.6255    1.4925    1.0104 O   0  0  0  0  0  0  0  0  0  0  0  0
   -0.5346    2.7920    0.5110 C   0  0  0  0  0  0  0  0  0  0  0  0
   -0.6255    2.8482   -0.8800 O   0  0  0  0  0  0  0  0  0  0  0  0
    0.4228    2.1215   -1.4919 C   0  0  0  0  0  0  0  0  0  0  0  0
    1.2968    0.1474   -1.3856 H   0  0  0  0  0  0  0  0  0  0  0  0
   -0.4738    0.1737   -1.3668 H   0  0  0  0  0  0  0  0  0  0  0  0
    0.2321   -0.5172    1.0071 H   0  0  0  0  0  0  0  0  0  0  0  0
    1.3864    1.0558    0.8950 H   0  0  0  0  0  0  0  0  0  0  0  0
    0.4208    3.2441    0.8353 H   0  0  0  0  0  0  0  0  0  0  0  0
   -1.3756    3.3525    0.9130 H   0  0  0  0  0  0  0  0  0  0  0  0
    1.3864    2.5989   -1.2566 H   0  0  0  0  0  0  0  0  0  0  0  0
    0.2639    2.1874   -2.5673 H   0  0  0  0  0  0  0  0  0  0  0  0
  1  2  1  0
  1  5  1  0
  1  6  1  0
  1  7  1  0
  2  3  1  0
  2  8  1  0
  2  9  1  0
  3  4  1  0
  3 10  1  0
  3 11  1  0
  4 20  1  0
 12 13  1  0
 12 17  1  0
 12 18  1  0
 12 19  1  0
 13 14  1  0
 13 21  1  0
 14 15  1  0
 15 16  1  0
 15 22  1  0
 15 23  1  0
 16 17  1  0
 17 24  1  0
 17 25  1  0
M  RAD  1  13   2
M  END
>  <reaction>  (13) 
rmg_rxn_316

>  <mol_properties>  (13) 
{"2": {"label": "*0", "atom_type": "Cs"}, "3": {"label": "*1", "atom_type": "O2s"}, "12": {"label": "*3", "atom_type": "Cs"}, "13": {"label": "*4", "atom_type": "O2s"}, "19": {"label": "*2", "atom_type": "H0"}}

>  <type>  (13) 
unop_9

>  <geom_source>  (13) 
Heuristics

$$$$

     RDKit          3D

 25 24  0  0  0  0  0  0  0  0999 V2000
    2.3775   -1.3462    1.5063 C   0  0  0  0  0  0  0  0  0  0  0  0
    1.7992   -2.0664    0.2960 C   0  0  0  0  0  0  0  0  0  0  0  0
    0.5127   -2.8187    0.6027 C   0  0  0  0  0  0  0  0  0  0  0  0
   -0.5311   -1.9790    1.0585 O   0  0  0  0  0  0  0  0  0  0  0  0
    2.6359   -2.0579    2.2937 H   0  0  0  0  0  0  0  0  0  0  0  0
    3.2807   -0.7937    1.2436 H   0  0  0  0  0  0  0  0  0  0  0  0
    1.6550   -0.6427    1.9211 H   0  0  0  0  0  0  0  0  0  0  0  0
    1.6067   -1.3489   -0.5100 H   0  0  0  0  0  0  0  0  0  0  0  0
    2.5259   -2.7817   -0.1010 H   0  0  0  0  0  0  0  0  0  0  0  0
    0.1937   -3.3874   -0.2798 H   0  0  0  0  0  0  0  0  0  0  0  0
    0.6835   -3.5355    1.4090 H   0  0  0  0  0  0  0  0  0  0  0  0
   -0.1725    0.2715   -1.3826 C   0  0  0  0  0  0  0  0  0  0  0  0
   -0.1725    0.2715    0.1395 C   0  0  0  0  0  3  0  0  0  0  0  0
   -1.2208    1.0841    0.6316 O   0  0  0  0  0  0  0  0  0  0  0  0
   -1.1299    2.3837    0.1322 C   0  0  0  0  0  0  0  0  0  0  0  0
   -1.2208    2.4399   -1.2588 O   0  0  0  0  0  0  0  0  0  0  0  0
   -0.1725    1.7132   -1.8707 C   0  0  0  0  0  0  0  0  0  0  0  0
    0.7015   -0.2609   -1.7644 H   0  0  0  0  0  0  0  0  0  0  0  0
   -1.0691   -0.2346   -1.7456 H   0  0  0  0  0  0  0  0  0  0  0  0
   -0.3632   -0.9255    0.6283 H   0  0  0  0  0  0  0  0  0  0  0  0
    0.7911    0.6475    0.5162 H   0  0  0  0  0  0  0  0  0  0  0  0
   -0.1745    2.8358    0.4565 H   0  0  0  0  0  0  0  0  0  0  0  0
   -1.9709    2.9442    0.5342 H   0  0  0  0  0  0  0  0  0  0  0  0
    0.7911    2.1906   -1.6354 H   0  0  0  0  0  0  0  0  0  0  0  0
   -0.3314    1.7791   -2.9461 H   0  0  0  0  0  0  0  0  0  0  0  0
  1  2  1  0
  1  5  1  0
  1  6  1  0
  1  7  1  0
  2  3  1  0
  2  8  1  0
  2  9  1  0
  3  4  1  0
  3 10  1  0
  3 11  1  0
  4 20  1  0
 12 13  1  0
 12 17  1  0
 12 18  1  0
 12 19  1  0
 13 14  1  0
 13 21  1  0
 14 15  1  0
 15 16  1  0
 15 22  1  0
 15 23  1  0
 16 17  1  0
 17 24  1  0
 17 25  1  0
M  RAD  1  13   2
M  END
>  <reaction>  (14) 
rmg_rxn_316

>  <mol_properties>  (14) 
{"2": {"label": "*0", "atom_type": "Cs"}, "3": {"label": "*1", "atom_type": "O2s"}, "12": {"label": "*3", "atom_type": "Cs"}, "13": {"label": "*4", "atom_type": "O2s"}, "19": {"label": "*2", "atom_type": "H0"}}

>  <type>  (14) 
unop_10

>  <geom_source>  (14) 
Heuristics

$$$$

     RDKit          3D

 25 24  0  0  0  0  0  0  0  0999 V2000
   -2.0190   -3.1860    1.2645 C   0  0  0  0  0  0  0  0  0  0  0  0
   -1.5367   -1.8569    1.8290 C   0  0  0  0  0  0  0  0  0  0  0  0
   -0.0219   -1.7651    1.9388 C   0  0  0  0  0  0  0  0  0  0  0  0
    0.6378   -1.8915    0.6935 O   0  0  0  0  0  0  0  0  0  0  0  0
   -1.7226   -4.0131    1.9137 H   0  0  0  0  0  0  0  0  0  0  0  0
   -3.1058   -3.2053    1.1714 H   0  0  0  0  0  0  0  0  0  0  0  0
   -1.5883   -3.3686    0.2796 H   0  0  0  0  0  0  0  0  0  0  0  0
   -1.8974   -1.0317    1.2039 H   0  0  0  0  0  0  0  0  0  0  0  0
   -1.9613   -1.6925    2.8240 H   0  0  0  0  0  0  0  0  0  0  0  0
    0.2601   -0.8263    2.4320 H   0  0  0  0  0  0  0  0  0  0  0  0
    0.3572   -2.5840    2.5541 H   0  0  0  0  0  0  0  0  0  0  0  0
    0.9964    0.3591   -1.7476 C   0  0  0  0  0  0  0  0  0  0  0  0
    0.9964    0.3591   -0.2256 C   0  0  0  0  0  3  0  0  0  0  0  0
   -0.0519    1.1717    0.2665 O   0  0  0  0  0  0  0  0  0  0  0  0
    0.0390    2.4713   -0.2328 C   0  0  0  0  0  0  0  0  0  0  0  0
   -0.0519    2.5274   -1.6238 O   0  0  0  0  0  0  0  0  0  0  0  0
    0.9964    1.8007   -2.2357 C   0  0  0  0  0  0  0  0  0  0  0  0
    1.8704   -0.1734   -2.1295 H   0  0  0  0  0  0  0  0  0  0  0  0
    0.0998   -0.1471   -2.1106 H   0  0  0  0  0  0  0  0  0  0  0  0
    0.8057   -0.8379    0.2632 H   0  0  0  0  0  0  0  0  0  0  0  0
    1.9600    0.7351    0.1512 H   0  0  0  0  0  0  0  0  0  0  0  0
    0.9944    2.9233    0.0914 H   0  0  0  0  0  0  0  0  0  0  0  0
   -0.8020    3.0318    0.1692 H   0  0  0  0  0  0  0  0  0  0  0  0
    1.9600    2.2781   -2.0004 H   0  0  0  0  0  0  0  0  0  0  0  0
    0.8375    1.8667   -3.3112 H   0  0  0  0  0  0  0  0  0  0  0  0
  1  2  1  0
  1  5  1  0
  1  6  1  0
  1  7  1  0
  2  3  1  0
  2  8  1  0
  2  9  1  0
  3  4  1  0
  3 10  1  0
  3 11  1  0
  4 20  1  0
 12 13  1  0
 12 17  1  0
 12 18  1  0
 12 19  1  0
 13 14  1  0
 13 21  1  0
 14 15  1  0
 15 16  1  0
 15 22  1  0
 15 23  1  0
 16 17  1  0
 17 24  1  0
 17 25  1  0
M  RAD  1  13   2
M  END
>  <reaction>  (15) 
rmg_rxn_316

>  <mol_properties>  (15) 
{"2": {"label": "*0", "atom_type": "Cs"}, "3": {"label": "*1", "atom_type": "O2s"}, "12": {"label": "*3", "atom_type": "Cs"}, "13": {"label": "*4", "atom_type": "O2s"}, "19": {"label": "*2", "atom_type": "H0"}}

>  <type>  (15) 
unop_11

>  <geom_source>  (15) 
Heuristics

$$$$

     RDKit          3D

 25 24  0  0  0  0  0  0  0  0999 V2000
    2.0988   -3.1310    0.1842 C   0  0  0  0  0  0  0  0  0  0  0  0
    0.8560   -2.6593   -0.5581 C   0  0  0  0  0  0  0  0  0  0  0  0
   -0.3783   -2.5782    0.3279 C   0  0  0  0  0  0  0  0  0  0  0  0
   -0.2342   -1.6735    1.4063 O   0  0  0  0  0  0  0  0  0  0  0  0
    1.9553   -4.1398    0.5781 H   0  0  0  0  0  0  0  0  0  0  0  0
    2.9694   -3.1481   -0.4730 H   0  0  0  0  0  0  0  0  0  0  0  0
    2.3196   -2.4756    1.0272 H   0  0  0  0  0  0  0  0  0  0  0  0
    1.0375   -1.6745   -1.0040 H   0  0  0  0  0  0  0  0  0  0  0  0
    0.6342   -3.3337   -1.3907 H   0  0  0  0  0  0  0  0  0  0  0  0
   -1.2561   -2.3205   -0.2779 H   0  0  0  0  0  0  0  0  0  0  0  0
   -0.5720   -3.5503    0.7867 H   0  0  0  0  0  0  0  0  0  0  0  0
    0.1244    0.5770   -1.0347 C   0  0  0  0  0  0  0  0  0  0  0  0
    0.1244    0.5770    0.4873 C   0  0  0  0  0  3  0  0  0  0  0  0
   -0.9239    1.3897    0.9794 O   0  0  0  0  0  0  0  0  0  0  0  0
   -0.8330    2.6892    0.4801 C   0  0  0  0  0  0  0  0  0  0  0  0
   -0.9239    2.7454   -0.9109 O   0  0  0  0  0  0  0  0  0  0  0  0
    0.1244    2.0187   -1.5228 C   0  0  0  0  0  0  0  0  0  0  0  0
    0.9984    0.0446   -1.4166 H   0  0  0  0  0  0  0  0  0  0  0  0
   -0.7722    0.0709   -1.3977 H   0  0  0  0  0  0  0  0  0  0  0  0
   -0.0663   -0.6200    0.9761 H   0  0  0  0  0  0  0  0  0  0  0  0
    1.0880    0.9530    0.8641 H   0  0  0  0  0  0  0  0  0  0  0  0
    0.1224    3.1413    0.8043 H   0  0  0  0  0  0  0  0  0  0  0  0
   -1.6740    3.2497    0.8821 H   0  0  0  0  0  0  0  0  0  0  0  0
    1.0880    2.4961   -1.2875 H   0  0  0  0  0  0  0  0  0  0  0  0
   -0.0345    2.0846   -2.5983 H   0  0  0  0  0  0  0  0  0  0  0  0
  1  2  1  0
  1  5  1  0
  1  6  1  0
  1  7  1  0
  2  3  1  0
  2  8  1  0
  2  9  1  0
  3  4  1  0
  3 10  1  0
  3 11  1  0
  4 20  1  0
 12 13  1  0
 12 17  1  0
 12 18  1  0
 12 19  1  0
 13 14  1  0
 13 21  1  0
 14 15  1  0
 15 16  1  0
 15 22  1  0
 15 23  1  0
 16 17  1  0
 17 24  1  0
 17 25  1  0
M  RAD  1  13   2
M  END
>  <reaction>  (16) 
rmg_rxn_316

>  <mol_properties>  (16) 
{"2": {"label": "*0", "atom_type": "Cs"}, "3": {"label": "*1", "atom_type": "O2s"}, "12": {"label": "*3", "atom_type": "Cs"}, "13": {"label": "*4", "atom_type": "O2s"}, "19": {"label": "*2", "atom_type": "H0"}}

>  <type>  (16) 
unop_12

>  <geom_source>  (16) 
Heuristics

$$$$

     RDKit          3D

 25 24  0  0  0  0  0  0  0  0999 V2000
   -3.4024    0.8288    1.2075 O   0  0  0  0  0  0  0  0  0  0  0  0
   -1.4558    1.3125    0.0194 O   0  0  0  0  0  0  0  0  0  0  0  0
    1.0371   -0.1295    0.0141 O   0  0  0  0  0  0  0  0  0  0  0  0
    3.3610   -0.6656   -0.2783 C   0  0  0  0  0  0  0  0  0  0  0  0
   -1.9512   -0.9972    0.5570 C   0  0  0  0  0  0  0  0  0  0  0  0
   -3.3807   -0.5352    0.8376 C   0  0  0  0  0  0  0  0  0  0  0  0
    1.9949   -0.4865   -0.9411 C   0  0  0  0  0  0  0  0  0  0  0  0
    3.8927    0.6472    0.2930 C   0  0  0  0  0  0  0  0  0  0  0  0
   -2.8321    1.6065    0.1707 C   0  0  0  0  0  0  0  0  0  0  0  0
   -1.3121   -0.0203   -0.4255 C   0  0  0  0  0  3  0  0  0  0  0  0
    3.2838   -1.4186    0.5358 H   0  0  0  0  0  0  0  0  0  0  0  0
    4.0818   -1.0465   -1.0337 H   0  0  0  0  0  0  0  0  0  0  0  0
   -1.9527   -2.0228    0.1304 H   0  0  0  0  0  0  0  0  0  0  0  0
   -1.3662   -0.9988    1.5016 H   0  0  0  0  0  0  0  0  0  0  0  0
    1.6965   -1.4453   -1.4180 H   0  0  0  0  0  0  0  0  0  0  0  0
    2.0532    0.2969   -1.7284 H   0  0  0  0  0  0  0  0  0  0  0  0
   -3.7949   -1.1376    1.6733 H   0  0  0  0  0  0  0  0  0  0  0  0
   -4.0300   -0.7115   -0.0504 H   0  0  0  0  0  0  0  0  0  0  0  0
    3.2120    1.0321    1.0817 H   0  0  0  0  0  0  0  0  0  0  0  0
    4.8936    0.4773    0.7428 H   0  0  0  0  0  0  0  0  0  0  0  0
    3.9900    1.4072   -0.5114 H   0  0  0  0  0  0  0  0  0  0  0  0
   -3.3889    1.4892   -0.7898 H   0  0  0  0  0  0  0  0  0  0  0  0
   -2.9246    2.6750    0.4541 H   0  0  0  0  0  0  0  0  0  0  0  0
   -1.7183   -0.1482   -1.4546 H   0  0  0  0  0  0  0  0  0  0  0  0
    0.0135   -0.0088   -0.5879 H   0  0  0  0  0  0  0  0  0  0  0  0
  1  6  1  0
  1  9  1  0
  2 10  1  0
  2  9  1  0
  3  7  1  0
  3 25  1  0
  4  8  1  0
  4  7  1  0
  4 11  1  0
  4 12  1  0
  5 10  1  0
  5  6  1  0
  5 13  1  0
  5 14  1  0
  6 17  1  0
  6 18  1  0
  7 15  1  0
  7 16  1  0
  8 19  1  0
  8 20  1  0
  8 21  1  0
  9 22  1  0
  9 23  1  0
 10 24  1  0
M  RAD  1  10   2
M  END
>  <reaction>  (17) 
rmg_rxn_316

>  <mol_properties>  (17) 
{"2": {"label": "*0", "atom_type": "Cs"}, "3": {"label": "*1", "atom_type": "O2s"}, "12": {"label": "*3", "atom_type": "Cs"}, "13": {"label": "*4", "atom_type": "O2s"}, "19": {"label": "*2", "atom_type": "H0"}}

>  <type>  (17) 
unop_13

>  <geom_source>  (17) 
AutoTST

$$$$

     RDKit          3D

 25 24  0  0  0  0  0  0  0  0999 V2000
    2.5162   -2.1668    0.8119 C   0  0  0  0  0  0  0  0  0  0  0  0
    1.4271   -2.3516   -0.2358 C   0  0  0  0  0  0  0  0  0  0  0  0
    0.0896   -2.7716    0.3557 C   0  0  0  0  0  0  0  0  0  0  0  0
   -0.4399   -1.8277    1.2673 O   0  0  0  0  0  0  0  0  0  0  0  0
    2.7109   -3.1042    1.3379 H   0  0  0  0  0  0  0  0  0  0  0  0
    3.4511   -1.8369    0.3567 H   0  0  0  0  0  0  0  0  0  0  0  0
    2.2182   -1.4268    1.5552 H   0  0  0  0  0  0  0  0  0  0  0  0
    1.2889   -1.4220   -0.8001 H   0  0  0  0  0  0  0  0  0  0  0  0
    1.7296   -3.1083   -0.9660 H   0  0  0  0  0  0  0  0  0  0  0  0
   -0.6271   -2.9749   -0.4499 H   0  0  0  0  0  0  0  0  0  0  0  0
    0.2086   -3.6944    0.9277 H   0  0  0  0  0  0  0  0  0  0  0  0
   -0.0813    0.4229   -1.1738 C   0  0  0  0  0  0  0  0  0  0  0  0
   -0.0813    0.4229    0.3483 C   0  0  0  0  0  3  0  0  0  0  0  0
   -1.1296    1.2355    0.8404 O   0  0  0  0  0  0  0  0  0  0  0  0
   -1.0386    2.5350    0.3411 C   0  0  0  0  0  0  0  0  0  0  0  0
   -1.1296    2.5912   -1.0500 O   0  0  0  0  0  0  0  0  0  0  0  0
   -0.0813    1.8645   -1.6619 C   0  0  0  0  0  0  0  0  0  0  0  0
    0.7927   -0.1096   -1.5556 H   0  0  0  0  0  0  0  0  0  0  0  0
   -0.9778   -0.0833   -1.5368 H   0  0  0  0  0  0  0  0  0  0  0  0
   -0.2720   -0.7742    0.8371 H   0  0  0  0  0  0  0  0  0  0  0  0
    0.8824    0.7988    0.7250 H   0  0  0  0  0  0  0  0  0  0  0  0
   -0.0833    2.9871    0.6653 H   0  0  0  0  0  0  0  0  0  0  0  0
   -1.8797    3.0955    0.7430 H   0  0  0  0  0  0  0  0  0  0  0  0
    0.8824    2.3419   -1.4266 H   0  0  0  0  0  0  0  0  0  0  0  0
   -0.2402    1.9304   -2.7373 H   0  0  0  0  0  0  0  0  0  0  0  0
  1  2  1  0
  1  5  1  0
  1  6  1  0
  1  7  1  0
  2  3  1  0
  2  8  1  0
  2  9  1  0
  3  4  1  0
  3 10  1  0
  3 11  1  0
  4 20  1  0
 12 13  1  0
 12 17  1  0
 12 18  1  0
 12 19  1  0
 13 14  1  0
 13 21  1  0
 14 15  1  0
 15 16  1  0
 15 22  1  0
 15 23  1  0
 16 17  1  0
 17 24  1  0
 17 25  1  0
M  RAD  1  13   2
M  END
>  <reaction>  (18) 
rmg_rxn_316

>  <mol_properties>  (18) 
{"2": {"label": "*0", "atom_type": "Cs"}, "3": {"label": "*1", "atom_type": "O2s"}, "12": {"label": "*3", "atom_type": "Cs"}, "13": {"label": "*4", "atom_type": "O2s"}, "19": {"label": "*2", "atom_type": "H0"}}

>  <type>  (18) 
unop_14

>  <geom_source>  (18) 
gaussian_log

$$$$
