
     RDKit          3D

  9  8  0  0  0  0  0  0  0  0999 V2000
   -0.8818   -0.3578    0.1297 C   0  0  0  0  0  0  0  0  0  0  0  0
    0.6153   -0.3021   -0.1188 C   0  0  0  0  0  0  0  0  0  0  0  0
    1.5354   -1.7170    0.5545 S   0  0  0  0  0  0  0  0  0  0  0  0
   -1.1018   -0.3317    1.1984 H   0  0  0  0  0  0  0  0  0  0  0  0
   -1.3114   -1.2723   -0.2799 H   0  0  0  0  0  0  0  0  0  0  0  0
   -1.3767    0.4976   -0.3363 H   0  0  0  0  0  0  0  0  0  0  0  0
    1.0467    0.6194    0.2718 H   0  0  0  0  0  0  0  0  0  0  0  0
    0.8295   -0.3275   -1.1882 H   0  0  0  0  0  0  0  0  0  0  0  0
    1.2306   -1.5077    1.8423 H   0  0  0  0  0  0  0  0  0  0  0  0
  1  2  1  0
  1  4  1  0
  1  5  1  0
  1  6  1  0
  2  3  1  0
  2  7  1  0
  2  8  1  0
  3  9  1  0
M  END
>  <reaction>  (1) 
rmg_rxn_15685

>  <mol_properties>  (1) 
{"1": {"label": "donator", "atom_type": "Cs"}, "6": {"label": "d_hydrogen", "atom_type": "H0"}}

>  <type>  (1) 
r1h

$$$$

     RDKit          3D

  8  7  0  0  0  0  0  0  0  0999 V2000
    1.7077   -0.1964   -0.0607 C   0  0  0  0  0  3  0  0  0  0  0  0
    0.4209   -0.4565    0.2808 O   0  0  0  0  0  0  0  0  0  0  0  0
   -0.4607    0.4385   -0.2968 N   0  0  0  0  0  0  0  0  0  0  0  0
   -1.6584    0.1416   -0.0244 C   0  0  0  0  0  0  0  0  0  0  0  0
    2.4163   -0.7685    0.5170 H   0  0  0  0  0  0  0  0  0  0  0  0
    1.9214    0.7645   -0.5045 H   0  0  0  0  0  0  0  0  0  0  0  0
   -2.4185    0.7953   -0.4307 H   0  0  0  0  0  0  0  0  0  0  0  0
   -1.9286   -0.7185    0.5831 H   0  0  0  0  0  0  0  0  0  0  0  0
  1  2  1  0
  1  5  1  0
  1  6  1  0
  2  3  1  0
  3  4  2  3
  4  7  1  0
  4  8  1  0
M  RAD  1   1   2
M  END
>  <reaction>  (2) 
rmg_rxn_15685

>  <mol_properties>  (2) 
{"0": {"label": "acceptor", "atom_type": "Cs"}}

>  <type>  (2) 
r2

$$$$

     RDKit          3D

  9  8  0  0  0  0  0  0  0  0999 V2000
   -1.5470   -0.0755   -0.1976 C   0  0  0  0  0  0  0  0  0  0  0  0
   -0.2885    0.4507    0.1749 O   0  0  0  0  0  0  0  0  0  0  0  0
   -0.1502    1.7216   -0.3294 N   0  0  0  0  0  0  0  0  0  0  0  0
    0.9626    2.2353   -0.0219 C   0  0  0  0  0  0  0  0  0  0  0  0
   -1.6392   -0.1356   -1.2844 H   0  0  0  0  0  0  0  0  0  0  0  0
   -2.3597    0.5337    0.2044 H   0  0  0  0  0  0  0  0  0  0  0  0
   -1.5879   -1.0750    0.2318 H   0  0  0  0  0  0  0  0  0  0  0  0
    1.1497    3.2381   -0.3820 H   0  0  0  0  0  0  0  0  0  0  0  0
    1.7060    1.7101    0.5739 H   0  0  0  0  0  0  0  0  0  0  0  0
  1  2  1  0
  1  5  1  0
  1  6  1  0
  1  7  1  0
  2  3  1  0
  3  4  2  3
  4  8  1  0
  4  9  1  0
M  END
>  <reaction>  (3) 
rmg_rxn_15685

>  <mol_properties>  (3) 
{"0": {"label": "acceptor", "atom_type": "Cs"}, "8": {"label": "a_hydrogen", "atom_type": "H0"}}

>  <type>  (3) 
r2h

$$$$

     RDKit          3D

 17 15  0  0  0  0  0  0  0  0999 V2000
    0.8438   -1.2846    1.0133 C   0  0  0  0  0  3  0  0  0  0  0  0
    1.8129   -0.7116    0.2004 O   0  0  0  0  0  0  0  0  0  0  0  0
    1.6768    0.6590    0.1697 N   0  0  0  0  0  0  0  0  0  0  0  0
    2.5511    1.2009   -0.5648 C   0  0  0  0  0  0  0  0  0  0  0  0
    1.0396   -2.3513    1.0707 H   0  0  0  0  0  0  0  0  0  0  0  0
    0.7323   -0.7845    1.9750 H   0  0  0  0  0  0  0  0  0  0  0  0
    2.5162    2.2793   -0.6425 H   0  0  0  0  0  0  0  0  0  0  0  0
    3.3076    0.6278   -1.0957 H   0  0  0  0  0  0  0  0  0  0  0  0
   -1.0441   -0.6414   -1.7038 C   0  0  0  0  0  0  0  0  0  0  0  0
   -1.4660   -0.7552   -0.2606 C   0  0  0  0  0  0  0  0  0  0  0  0
   -2.1035    0.7113    0.5242 S   0  0  0  0  0  0  0  0  0  0  0  0
   -0.6085   -1.5826   -2.0475 H   0  0  0  0  0  0  0  0  0  0  0  0
   -0.2952    0.1425   -1.8279 H   0  0  0  0  0  0  0  0  0  0  0  0
   -1.8935   -0.4002   -2.3482 H   0  0  0  0  0  0  0  0  0  0  0  0
   -0.3761   -1.1021    0.4137 H   0  0  0  0  0  0  0  0  0  0  0  0
   -2.1647   -1.5688   -0.0691 H   0  0  0  0  0  0  0  0  0  0  0  0
   -0.9801    1.4366    0.4088 H   0  0  0  0  0  0  0  0  0  0  0  0
  1  2  1  0
  1  5  1  0
  1  6  1  0
  2  3  1  0
  3  4  2  3
  4  7  1  0
  4  8  1  0
  9 10  1  0
  9 12  1  0
  9 13  1  0
  9 14  1  0
 10 11  1  0
 10 15  1  0
 10 16  1  0
 11 17  1  0
M  RAD  1   1   2
M  END
>  <reaction>  (4) 
rmg_rxn_15685

>  <mol_properties>  (4) 
{"0": {"label": "*3", "atom_type": "Cs"}, "1": {"label": "*4", "atom_type": "O2s"}, "9": {"label": "*1", "atom_type": "Cs"}, "10": {"label": "*0", "atom_type": "S2s"}, "14": {"label": "*2", "atom_type": "H0"}}

>  <type>  (4) 
ts

$$$$

     RDKit          3D

 17 15  0  0  0  0  0  0  0  0999 V2000
    1.1502   -0.9213    1.0653 C   0  0  0  0  0  0  0  0  0  0  0  0
    1.9531   -0.7884   -0.0638 O   0  0  0  0  0  0  0  0  0  0  0  0
    2.2282    0.4202   -0.5955 N   0  0  0  0  0  0  0  0  0  0  0  0
    1.7127    1.4906   -0.1689 C   0  0  0  0  0  0  0  0  0  0  0  0
    1.2583   -1.9472    1.4006 H   0  0  0  0  0  0  0  0  0  0  0  0
    1.3664   -0.2006    1.8540 H   0  0  0  0  0  0  0  0  0  0  0  0
    2.0244    2.3894   -0.6714 H   0  0  0  0  0  0  0  0  0  0  0  0
    0.9894    1.5904    0.6368 H   0  0  0  0  0  0  0  0  0  0  0  0
   -1.4911   -1.5628   -0.8982 C   0  0  0  0  0  0  0  0  0  0  0  0
   -1.3910   -0.7189    0.3441 C   0  0  0  0  0  3  0  0  0  0  0  0
   -1.8725    0.9838    0.1475 S   0  0  0  0  0  0  0  0  0  0  0  0
   -0.8494   -1.1671   -1.6851 H   0  0  0  0  0  0  0  0  0  0  0  0
   -2.5150   -1.5948   -1.2743 H   0  0  0  0  0  0  0  0  0  0  0  0
   -1.1754   -2.5800   -0.6754 H   0  0  0  0  0  0  0  0  0  0  0  0
   -0.1162   -0.7731    0.7373 H   0  0  0  0  0  0  0  0  0  0  0  0
   -1.9506   -1.1142    1.1887 H   0  0  0  0  0  0  0  0  0  0  0  0
   -1.2080    1.1860   -0.9930 H   0  0  0  0  0  0  0  0  0  0  0  0
  1  2  1  0
  1  5  1  0
  1  6  1  0
  1 15  1  0
  2  3  1  0
  3  4  2  3
  4  7  1  0
  4  8  1  0
  9 10  1  0
  9 12  1  0
  9 13  1  0
  9 14  1  0
 10 11  1  0
 10 16  1  0
 11 17  1  0
M  RAD  1  10   2
M  END
>  <reaction>  (5) 
rmg_rxn_15685

>  <mol_properties>  (5) 
{"0": {"label": "*3", "atom_type": "Cs"}, "1": {"label": "*4", "atom_type": "O2s"}, "9": {"label": "*1", "atom_type": "Cs"}, "10": {"label": "*0", "atom_type": "S2s"}, "14": {"label": "*2", "atom_type": "H0"}}

>  <type>  (5) 
unop_1

>  <geom_source>  (5) 
crest_best.xyz

$$$$

     RDKit          3D

 17 15  0  0  0  0  0  0  0  0999 V2000
    0.5632   -1.4261   -0.1550 C   0  0  0  0  0  0  0  0  0  0  0  0
    1.3120   -0.5091    0.6182 O   0  0  0  0  0  0  0  0  0  0  0  0
    1.8014   -1.1385    1.7376 N   0  0  0  0  0  0  0  0  0  0  0  0
    2.4798   -0.3569    2.4627 C   0  0  0  0  0  0  0  0  0  0  0  0
    1.1875   -2.2591   -0.4862 H   0  0  0  0  0  0  0  0  0  0  0  0
   -0.2882   -1.8107    0.4110 H   0  0  0  0  0  0  0  0  0  0  0  0
    2.9014   -0.7770    3.3660 H   0  0  0  0  0  0  0  0  0  0  0  0
    2.6415    0.6880    2.2065 H   0  0  0  0  0  0  0  0  0  0  0  0
   -1.4595   -0.0682   -2.6215 C   0  0  0  0  0  0  0  0  0  0  0  0
   -1.4595   -0.0682   -1.1028 C   0  0  0  0  0  3  0  0  0  0  0  0
   -1.4595    1.5892   -0.3578 S   0  0  0  0  0  0  0  0  0  0  0  0
   -0.5529    0.3972   -3.0122 H   0  0  0  0  0  0  0  0  0  0  0  0
   -2.3155    0.4830   -3.0116 H   0  0  0  0  0  0  0  0  0  0  0  0
   -1.5026   -1.0916   -3.0017 H   0  0  0  0  0  0  0  0  0  0  0  0
   -0.4476   -0.7475   -0.6287 H   0  0  0  0  0  0  0  0  0  0  0  0
   -2.3671   -0.5352   -0.7177 H   0  0  0  0  0  0  0  0  0  0  0  0
   -0.2847    1.9908   -0.8613 H   0  0  0  0  0  0  0  0  0  0  0  0
  1  2  1  0
  1  5  1  0
  1  6  1  0
  1 15  1  0
  2  3  1  0
  3  4  2  3
  4  7  1  0
  4  8  1  0
  9 10  1  0
  9 12  1  0
  9 13  1  0
  9 14  1  0
 10 11  1  0
 10 16  1  0
 11 17  1  0
M  RAD  1  10   2
M  END
>  <reaction>  (6) 
rmg_rxn_15685

>  <mol_properties>  (6) 
{"0": {"label": "*3", "atom_type": "Cs"}, "1": {"label": "*4", "atom_type": "O2s"}, "9": {"label": "*1", "atom_type": "Cs"}, "10": {"label": "*0", "atom_type": "S2s"}, "14": {"label": "*2", "atom_type": "H0"}}

>  <type>  (6) 
unop_2

>  <geom_source>  (6) 
Heuristics

$$$$

     RDKit          3D

 17 15  0  0  0  0  0  0  0  0999 V2000
    1.4555    1.6693    0.4808 C   0  0  0  0  0  0  0  0  0  0  0  0
    2.2328    0.5158    0.2796 O   0  0  0  0  0  0  0  0  0  0  0  0
    1.4777   -0.5054   -0.2644 N   0  0  0  0  0  0  0  0  0  0  0  0
    2.0790   -1.5828   -0.5107 C   0  0  0  0  0  0  0  0  0  0  0  0
    2.0207    2.3585    1.0712 H   0  0  0  0  0  0  0  0  0  0  0  0
    1.0836    2.1019   -0.4440 H   0  0  0  0  0  0  0  0  0  0  0  0
    1.4903   -2.3782   -0.9336 H   0  0  0  0  0  0  0  0  0  0  0  0
    3.1346   -1.7480   -0.3219 H   0  0  0  0  0  0  0  0  0  0  0  0
   -1.5517   -0.9028    1.5266 C   0  0  0  0  0  0  0  0  0  0  0  0
   -2.1845    0.0988    0.6369 C   0  0  0  0  0  3  0  0  0  0  0  0
   -1.7027    0.2747   -1.0078 S   0  0  0  0  0  0  0  0  0  0  0  0
   -1.7112   -0.6253    2.5687 H   0  0  0  0  0  0  0  0  0  0  0  0
   -0.4811   -0.9708    1.3339 H   0  0  0  0  0  0  0  0  0  0  0  0
   -1.9775   -1.9047    1.3873 H   0  0  0  0  0  0  0  0  0  0  0  0
    0.6599    1.5362    1.2228 H   0  0  0  0  0  0  0  0  0  0  0  0
   -3.2025    0.3990    0.8147 H   0  0  0  0  0  0  0  0  0  0  0  0
   -0.4318   -0.1219   -0.8320 H   0  0  0  0  0  0  0  0  0  0  0  0
  1  2  1  0
  1  5  1  0
  1  6  1  0
  1 15  1  0
  2  3  1  0
  3  4  2  3
  4  7  1  0
  4  8  1  0
  9 10  1  0
  9 12  1  0
  9 13  1  0
  9 14  1  0
 10 11  1  0
 10 16  1  0
 11 17  1  0
M  RAD  1  10   2
M  END
>  <reaction>  (7) 
rmg_rxn_15685

>  <mol_properties>  (7) 
{"0": {"label": "*3", "atom_type": "Cs"}, "1": {"label": "*4", "atom_type": "O2s"}, "9": {"label": "*1", "atom_type": "Cs"}, "10": {"label": "*0", "atom_type": "S2s"}, "14": {"label": "*2", "atom_type": "H0"}}

>  <type>  (7) 
unop_3

>  <geom_source>  (7) 
Heuristics

$$$$

     RDKit          3D

 17 15  0  0  0  0  0  0  0  0999 V2000
    1.4460    1.6678   -0.4894 C   0  0  0  0  0  0  0  0  0  0  0  0
    2.2273    0.5172   -0.2858 O   0  0  0  0  0  0  0  0  0  0  0  0
    1.4787   -0.5018    0.2709 N   0  0  0  0  0  0  0  0  0  0  0  0
    2.0844   -1.5762    0.5199 C   0  0  0  0  0  0  0  0  0  0  0  0
    1.0779    2.1035    0.4356 H   0  0  0  0  0  0  0  0  0  0  0  0
    2.0103    2.3563   -1.0827 H   0  0  0  0  0  0  0  0  0  0  0  0
    1.5006   -2.3701    0.9524 H   0  0  0  0  0  0  0  0  0  0  0  0
    3.1389   -1.7403    0.3244 H   0  0  0  0  0  0  0  0  0  0  0  0
   -1.5466   -0.9196   -1.5180 C   0  0  0  0  0  0  0  0  0  0  0  0
   -2.1772    0.0943   -0.6408 C   0  0  0  0  0  3  0  0  0  0  0  0
   -1.7036    0.2803    1.0052 S   0  0  0  0  0  0  0  0  0  0  0  0
   -1.7009   -0.6520   -2.5635 H   0  0  0  0  0  0  0  0  0  0  0  0
   -1.9782   -1.9178   -1.3699 H   0  0  0  0  0  0  0  0  0  0  0  0
   -0.4771   -0.9914   -1.3208 H   0  0  0  0  0  0  0  0  0  0  0  0
    0.6439    1.5259   -1.2240 H   0  0  0  0  0  0  0  0  0  0  0  0
   -3.1922    0.3996   -0.8268 H   0  0  0  0  0  0  0  0  0  0  0  0
   -0.4333   -0.1219    0.8388 H   0  0  0  0  0  0  0  0  0  0  0  0
  1  2  1  0
  1  5  1  0
  1  6  1  0
  1 15  1  0
  2  3  1  0
  3  4  2  3
  4  7  1  0
  4  8  1  0
  9 10  1  0
  9 12  1  0
  9 13  1  0
  9 14  1  0
 10 11  1  0
 10 16  1  0
 11 17  1  0
M  RAD  1  10   2
M  END
>  <reaction>  (8) 
rmg_rxn_15685

>  <mol_properties>  (8) 
{"0": {"label": "*3", "atom_type": "Cs"}, "1": {"label": "*4", "atom_type": "O2s"}, "9": {"label": "*1", "atom_type": "Cs"}, "10": {"label": "*0", "atom_type": "S2s"}, "14": {"label": "*2", "atom_type": "H0"}}

>  <type>  (8) 
unop_4

>  <geom_source>  (8) 
Heuristics

$$$$

     RDKit          3D

 17 15  0  0  0  0  0  0  0  0999 V2000
    1.1569    0.8372   -1.1259 C   0  0  0  0  0  0  0  0  0  0  0  0
    1.9858    0.7497   -0.0113 O   0  0  0  0  0  0  0  0  0  0  0  0
    2.2270   -0.4292    0.5966 N   0  0  0  0  0  0  0  0  0  0  0  0
    1.6651   -1.5062    0.2527 C   0  0  0  0  0  0  0  0  0  0  0  0
    1.2883    1.8351   -1.5300 H   0  0  0  0  0  0  0  0  0  0  0  0
    1.3269    0.0603   -1.8715 H   0  0  0  0  0  0  0  0  0  0  0  0
    1.9549   -2.3801    0.8096 H   0  0  0  0  0  0  0  0  0  0  0  0
    0.9261   -1.6342   -0.5346 H   0  0  0  0  0  0  0  0  0  0  0  0
   -1.3548    1.5389    0.9809 C   0  0  0  0  0  0  0  0  0  0  0  0
   -1.3610    0.7583   -0.3059 C   0  0  0  0  0  3  0  0  0  0  0  0
   -1.9456   -0.9183   -0.1767 S   0  0  0  0  0  0  0  0  0  0  0  0
   -0.7150    1.0577    1.7203 H   0  0  0  0  0  0  0  0  0  0  0  0
   -2.3592    1.6225    1.3992 H   0  0  0  0  0  0  0  0  0  0  0  0
   -0.9743    2.5418    0.7979 H   0  0  0  0  0  0  0  0  0  0  0  0
   -0.1024    0.7515   -0.7521 H   0  0  0  0  0  0  0  0  0  0  0  0
   -1.9254    1.2337   -1.1046 H   0  0  0  0  0  0  0  0  0  0  0  0
   -1.2688   -1.2160    0.9354 H   0  0  0  0  0  0  0  0  0  0  0  0
  1  2  1  0
  1  5  1  0
  1  6  1  0
  1 15  1  0
  2  3  1  0
  3  4  2  3
  4  7  1  0
  4  8  1  0
  9 10  1  0
  9 12  1  0
  9 13  1  0
  9 14  1  0
 10 11  1  0
 10 16  1  0
 11 17  1  0
M  RAD  1  10   2
M  END
>  <reaction>  (9) 
rmg_rxn_15685

>  <mol_properties>  (9) 
{"0": {"label": "*3", "atom_type": "Cs"}, "1": {"label": "*4", "atom_type": "O2s"}, "9": {"label": "*1", "atom_type": "Cs"}, "10": {"label": "*0", "atom_type": "S2s"}, "14": {"label": "*2", "atom_type": "H0"}}

>  <type>  (9) 
unop_5

>  <geom_source>  (9) 
Heuristics

$$$$

     RDKit          3D

 17 15  0  0  0  0  0  0  0  0999 V2000
    0.2548   -1.1333    0.7909 C   0  0  0  0  0  0  0  0  0  0  0  0
    1.2856   -1.0057   -0.1687 O   0  0  0  0  0  0  0  0  0  0  0  0
    2.4941   -1.3201    0.4052 N   0  0  0  0  0  0  0  0  0  0  0  0
    3.4493   -1.2203   -0.4160 C   0  0  0  0  0  0  0  0  0  0  0  0
    0.1915   -2.1586    1.1623 H   0  0  0  0  0  0  0  0  0  0  0  0
    0.4143   -0.4509    1.6288 H   0  0  0  0  0  0  0  0  0  0  0  0
    4.4373   -1.4516   -0.0410 H   0  0  0  0  0  0  0  0  0  0  0  0
    3.3034   -0.9185   -1.4510 H   0  0  0  0  0  0  0  0  0  0  0  0
   -1.7679    0.2246   -1.6755 C   0  0  0  0  0  0  0  0  0  0  0  0
   -1.7679    0.2246   -0.1568 C   0  0  0  0  0  3  0  0  0  0  0  0
   -1.7679    1.8820    0.5881 S   0  0  0  0  0  0  0  0  0  0  0  0
   -0.8613    0.6900   -2.0663 H   0  0  0  0  0  0  0  0  0  0  0  0
   -2.6239    0.7758   -2.0656 H   0  0  0  0  0  0  0  0  0  0  0  0
   -1.8110   -0.7987   -2.0558 H   0  0  0  0  0  0  0  0  0  0  0  0
   -0.7560   -0.4547    0.3173 H   0  0  0  0  0  0  0  0  0  0  0  0
   -2.6755   -0.2424    0.2283 H   0  0  0  0  0  0  0  0  0  0  0  0
   -0.5931    2.2837    0.0846 H   0  0  0  0  0  0  0  0  0  0  0  0
  1  2  1  0
  1  5  1  0
  1  6  1  0
  1 15  1  0
  2  3  1  0
  3  4  2  3
  4  7  1  0
  4  8  1  0
  9 10  1  0
  9 12  1  0
  9 13  1  0
  9 14  1  0
 10 11  1  0
 10 16  1  0
 11 17  1  0
M  RAD  1  10   2
M  END
>  <reaction>  (10) 
rmg_rxn_15685

>  <mol_properties>  (10) 
{"0": {"label": "*3", "atom_type": "Cs"}, "1": {"label": "*4", "atom_type": "O2s"}, "9": {"label": "*1", "atom_type": "Cs"}, "10": {"label": "*0", "atom_type": "S2s"}, "14": {"label": "*2", "atom_type": "H0"}}

>  <type>  (10) 
unop_6

>  <geom_source>  (10) 
Heuristics

$$$$

     RDKit          3D

 17 15  0  0  0  0  0  0  0  0999 V2000
    1.1556   -0.8255    1.1327 C   0  0  0  0  0  0  0  0  0  0  0  0
    1.9916   -0.7463    0.0227 O   0  0  0  0  0  0  0  0  0  0  0  0
    2.2333    0.4273   -0.5949 N   0  0  0  0  0  0  0  0  0  0  0  0
    1.6659    1.5059   -0.2653 C   0  0  0  0  0  0  0  0  0  0  0  0
    1.2871   -1.8192    1.5473 H   0  0  0  0  0  0  0  0  0  0  0  0
    1.3185   -0.0411    1.8719 H   0  0  0  0  0  0  0  0  0  0  0  0
    1.9560    2.3749   -0.8295 H   0  0  0  0  0  0  0  0  0  0  0  0
    0.9207    1.6388    0.5154 H   0  0  0  0  0  0  0  0  0  0  0  0
   -1.3432   -1.5338   -0.9915 C   0  0  0  0  0  0  0  0  0  0  0  0
   -1.3587   -0.7615    0.3002 C   0  0  0  0  0  3  0  0  0  0  0  0
   -1.9568    0.9109    0.1805 S   0  0  0  0  0  0  0  0  0  0  0  0
   -0.7094   -1.0404   -1.7281 H   0  0  0  0  0  0  0  0  0  0  0  0
   -2.3466   -1.6270   -1.4102 H   0  0  0  0  0  0  0  0  0  0  0  0
   -0.9505   -2.5331   -0.8148 H   0  0  0  0  0  0  0  0  0  0  0  0
   -0.1017   -0.7470    0.7506 H   0  0  0  0  0  0  0  0  0  0  0  0
   -1.9210   -1.2468    1.0945 H   0  0  0  0  0  0  0  0  0  0  0  0
   -1.2836    1.2202   -0.9305 H   0  0  0  0  0  0  0  0  0  0  0  0
  1  2  1  0
  1  5  1  0
  1  6  1  0
  1 15  1  0
  2  3  1  0
  3  4  2  3
  4  7  1  0
  4  8  1  0
  9 10  1  0
  9 12  1  0
  9 13  1  0
  9 14  1  0
 10 11  1  0
 10 16  1  0
 11 17  1  0
M  RAD  1  10   2
M  END
>  <reaction>  (11) 
rmg_rxn_15685

>  <mol_properties>  (11) 
{"0": {"label": "*3", "atom_type": "Cs"}, "1": {"label": "*4", "atom_type": "O2s"}, "9": {"label": "*1", "atom_type": "Cs"}, "10": {"label": "*0", "atom_type": "S2s"}, "14": {"label": "*2", "atom_type": "H0"}}

>  <type>  (11) 
unop_7

>  <geom_source>  (11) 
Heuristics

$$$$

     RDKit          3D

 17 15  0  0  0  0  0  0  0  0999 V2000
    0.7353   -1.2081   -0.2996 C   0  0  0  0  0  0  0  0  0  0  0  0
    1.0564   -0.6040    0.9379 O   0  0  0  0  0  0  0  0  0  0  0  0
    1.6618   -1.5246    1.7593 N   0  0  0  0  0  0  0  0  0  0  0  0
    1.9686   -1.0299    2.8809 C   0  0  0  0  0  0  0  0  0  0  0  0
    1.6352   -1.5658   -0.8050 H   0  0  0  0  0  0  0  0  0  0  0  0
    0.0403   -2.0392   -0.1600 H   0  0  0  0  0  0  0  0  0  0  0  0
    2.4508   -1.6923    3.5874 H   0  0  0  0  0  0  0  0  0  0  0  0
    1.7654    0.0070    3.1396 H   0  0  0  0  0  0  0  0  0  0  0  0
   -1.2875    0.1499   -2.7661 C   0  0  0  0  0  0  0  0  0  0  0  0
   -1.2875    0.1499   -1.2474 C   0  0  0  0  0  3  0  0  0  0  0  0
   -1.2875    1.8072   -0.5024 S   0  0  0  0  0  0  0  0  0  0  0  0
   -0.3808    0.6153   -3.1568 H   0  0  0  0  0  0  0  0  0  0  0  0
   -2.1434    0.7011   -3.1562 H   0  0  0  0  0  0  0  0  0  0  0  0
   -1.3305   -0.8735   -3.1464 H   0  0  0  0  0  0  0  0  0  0  0  0
   -0.2756   -0.5295   -0.7733 H   0  0  0  0  0  0  0  0  0  0  0  0
   -2.1951   -0.3172   -0.8623 H   0  0  0  0  0  0  0  0  0  0  0  0
   -0.1127    2.2089   -1.0059 H   0  0  0  0  0  0  0  0  0  0  0  0
  1  2  1  0
  1  5  1  0
  1  6  1  0
  1 15  1  0
  2  3  1  0
  3  4  2  3
  4  7  1  0
  4  8  1  0
  9 10  1  0
  9 12  1  0
  9 13  1  0
  9 14  1  0
 10 11  1  0
 10 16  1  0
 11 17  1  0
M  RAD  1  10   2
M  END
>  <reaction>  (12) 
rmg_rxn_15685

>  <mol_properties>  (12) 
{"0": {"label": "*3", "atom_type": "Cs"}, "1": {"label": "*4", "atom_type": "O2s"}, "9": {"label": "*1", "atom_type": "Cs"}, "10": {"label": "*0", "atom_type": "S2s"}, "14": {"label": "*2", "atom_type": "H0"}}

>  <type>  (12) 
unop_8

>  <geom_source>  (12) 
Heuristics

$$$$

     RDKit          3D

 17 15  0  0  0  0  0  0  0  0999 V2000
    0.9850   -0.3134    0.4905 C   0  0  0  0  0  0  0  0  0  0  0  0
    0.8295   -1.6287   -0.0047 O   0  0  0  0  0  0  0  0  0  0  0  0
    1.3275   -2.5287    0.9068 N   0  0  0  0  0  0  0  0  0  0  0  0
    1.2106   -3.7219    0.5075 C   0  0  0  0  0  0  0  0  0  0  0  0
    0.4359   -0.1805    1.4254 H   0  0  0  0  0  0  0  0  0  0  0  0
    2.0397   -0.0782    0.6501 H   0  0  0  0  0  0  0  0  0  0  0  0
    1.5799   -4.4932    1.1700 H   0  0  0  0  0  0  0  0  0  0  0  0
    0.7638   -3.9782   -0.4507 H   0  0  0  0  0  0  0  0  0  0  0  0
   -1.0377    1.0445   -1.9759 C   0  0  0  0  0  0  0  0  0  0  0  0
   -1.0377    1.0445   -0.4572 C   0  0  0  0  0  3  0  0  0  0  0  0
   -1.0377    2.7019    0.2878 S   0  0  0  0  0  0  0  0  0  0  0  0
   -0.1311    1.5100   -2.3666 H   0  0  0  0  0  0  0  0  0  0  0  0
   -1.8937    1.5957   -2.3660 H   0  0  0  0  0  0  0  0  0  0  0  0
   -1.0808    0.0212   -2.3562 H   0  0  0  0  0  0  0  0  0  0  0  0
   -0.0258    0.3652    0.0169 H   0  0  0  0  0  0  0  0  0  0  0  0
   -1.9453    0.5775   -0.0721 H   0  0  0  0  0  0  0  0  0  0  0  0
    0.1371    3.1036   -0.2158 H   0  0  0  0  0  0  0  0  0  0  0  0
  1  2  1  0
  1  5  1  0
  1  6  1  0
  1 15  1  0
  2  3  1  0
  3  4  2  3
  4  7  1  0
  4  8  1  0
  9 10  1  0
  9 12  1  0
  9 13  1  0
  9 14  1  0
 10 11  1  0
 10 16  1  0
 11 17  1  0
M  RAD  1  10   2
M  END
>  <reaction>  (13) 
rmg_rxn_15685

>  <mol_properties>  (13) 
{"0": {"label": "*3", "atom_type": "Cs"}, "1": {"label": "*4", "atom_type": "O2s"}, "9": {"label": "*1", "atom_type": "Cs"}, "10": {"label": "*0", "atom_type": "S2s"}, "14": {"label": "*2", "atom_type": "H0"}}

>  <type>  (13) 
unop_9

>  <geom_source>  (13) 
Heuristics

$$$$

     RDKit          3D

 17 15  0  0  0  0  0  0  0  0999 V2000
    1.4489   -1.6702    0.4787 C   0  0  0  0  0  0  0  0  0  0  0  0
    2.2310   -0.5201    0.2773 O   0  0  0  0  0  0  0  0  0  0  0  0
    1.4788    0.5065   -0.2607 N   0  0  0  0  0  0  0  0  0  0  0  0
    2.0849    1.5815   -0.5062 C   0  0  0  0  0  0  0  0  0  0  0  0
    1.0706   -2.0983   -0.4456 H   0  0  0  0  0  0  0  0  0  0  0  0
    2.0132   -2.3639    1.0647 H   0  0  0  0  0  0  0  0  0  0  0  0
    1.4989    2.3812   -0.9248 H   0  0  0  0  0  0  0  0  0  0  0  0
    3.1421    1.7405   -0.3211 H   0  0  0  0  0  0  0  0  0  0  0  0
   -1.5534    0.9011    1.5276 C   0  0  0  0  0  0  0  0  0  0  0  0
   -2.1825   -0.1014    0.6363 C   0  0  0  0  0  3  0  0  0  0  0  0
   -1.7018   -0.2703   -1.0095 S   0  0  0  0  0  0  0  0  0  0  0  0
   -1.7110    0.6209    2.5693 H   0  0  0  0  0  0  0  0  0  0  0  0
   -1.9836    1.9014    1.3905 H   0  0  0  0  0  0  0  0  0  0  0  0
   -0.4833    0.9740    1.3342 H   0  0  0  0  0  0  0  0  0  0  0  0
    0.6572   -1.5353    1.2246 H   0  0  0  0  0  0  0  0  0  0  0  0
   -3.1989   -0.4069    0.8144 H   0  0  0  0  0  0  0  0  0  0  0  0
   -0.4320    0.1293   -0.8333 H   0  0  0  0  0  0  0  0  0  0  0  0
  1  2  1  0
  1  5  1  0
  1  6  1  0
  1 15  1  0
  2  3  1  0
  3  4  2  3
  4  7  1  0
  4  8  1  0
  9 10  1  0
  9 12  1  0
  9 13  1  0
  9 14  1  0
 10 11  1  0
 10 16  1  0
 11 17  1  0
M  RAD  1  10   2
M  END
>  <reaction>  (14) 
rmg_rxn_15685

>  <mol_properties>  (14) 
{"0": {"label": "*3", "atom_type": "Cs"}, "1": {"label": "*4", "atom_type": "O2s"}, "9": {"label": "*1", "atom_type": "Cs"}, "10": {"label": "*0", "atom_type": "S2s"}, "14": {"label": "*2", "atom_type": "H0"}}

>  <type>  (14) 
unop_10

>  <geom_source>  (14) 
Heuristics

$$$$

     RDKit          3D

 17 15  0  0  0  0  0  0  0  0999 V2000
    0.8342   -1.0163   -0.3215 C   0  0  0  0  0  0  0  0  0  0  0  0
    0.7211   -0.9404    1.0860 O   0  0  0  0  0  0  0  0  0  0  0  0
    1.7534   -1.6334    1.6716 N   0  0  0  0  0  0  0  0  0  0  0  0
    1.6952   -1.5943    2.9333 C   0  0  0  0  0  0  0  0  0  0  0  0
    1.7714   -0.5709   -0.6628 H   0  0  0  0  0  0  0  0  0  0  0  0
    0.7769   -2.0523   -0.6628 H   0  0  0  0  0  0  0  0  0  0  0  0
    2.4746   -2.1175    3.4710 H   0  0  0  0  0  0  0  0  0  0  0  0
    0.9084   -1.0662    3.4677 H   0  0  0  0  0  0  0  0  0  0  0  0
   -1.1886    0.3417   -2.7879 C   0  0  0  0  0  0  0  0  0  0  0  0
   -1.1886    0.3417   -1.2693 C   0  0  0  0  0  3  0  0  0  0  0  0
   -1.1886    1.9990   -0.5243 S   0  0  0  0  0  0  0  0  0  0  0  0
   -0.2819    0.8071   -3.1787 H   0  0  0  0  0  0  0  0  0  0  0  0
   -2.0445    0.8929   -3.1780 H   0  0  0  0  0  0  0  0  0  0  0  0
   -1.2316   -0.6817   -3.1682 H   0  0  0  0  0  0  0  0  0  0  0  0
   -0.1767   -0.3377   -0.7951 H   0  0  0  0  0  0  0  0  0  0  0  0
   -2.0962   -0.1254   -0.8841 H   0  0  0  0  0  0  0  0  0  0  0  0
   -0.0138    2.4007   -1.0278 H   0  0  0  0  0  0  0  0  0  0  0  0
  1  2  1  0
  1  5  1  0
  1  6  1  0
  1 15  1  0
  2  3  1  0
  3  4  2  3
  4  7  1  0
  4  8  1  0
  9 10  1  0
  9 12  1  0
  9 13  1  0
  9 14  1  0
 10 11  1  0
 10 16  1  0
 11 17  1  0
M  RAD  1  10   2
M  END
>  <reaction>  (15) 
rmg_rxn_15685

>  <mol_properties>  (15) 
{"0": {"label": "*3", "atom_type": "Cs"}, "1": {"label": "*4", "atom_type": "O2s"}, "9": {"label": "*1", "atom_type": "Cs"}, "10": {"label": "*0", "atom_type": "S2s"}, "14": {"label": "*2", "atom_type": "H0"}}

>  <type>  (15) 
unop_11

>  <geom_source>  (15) 
Heuristics

$$$$

     RDKit          3D

 17 15  0  0  0  0  0  0  0  0999 V2000
    0.8249   -1.3276    1.0056 C   0  0  0  0  0  0  0  0  0  0  0  0
    1.8169   -0.7436    0.2221 O   0  0  0  0  0  0  0  0  0  0  0  0
    1.6476    0.6235    0.1124 N   0  0  0  0  0  0  0  0  0  0  0  0
    2.5406    1.2437   -0.5272 C   0  0  0  0  0  0  0  0  0  0  0  0
    1.0250   -2.3922    1.0376 H   0  0  0  0  0  0  0  0  0  0  0  0
    0.7313   -0.8729    1.9906 H   0  0  0  0  0  0  0  0  0  0  0  0
    2.4140    2.3079   -0.6206 H   0  0  0  0  0  0  0  0  0  0  0  0
    3.4093    0.7738   -0.9780 H   0  0  0  0  0  0  0  0  0  0  0  0
   -1.0744   -0.6603   -1.6931 C   0  0  0  0  0  0  0  0  0  0  0  0
   -1.4382   -0.7539   -0.2354 C   0  0  0  0  0  3  0  0  0  0  0  0
   -1.9843    0.7628    0.5148 S   0  0  0  0  0  0  0  0  0  0  0  0
   -0.6957   -1.6199   -2.0408 H   0  0  0  0  0  0  0  0  0  0  0  0
   -0.3055    0.0952   -1.8490 H   0  0  0  0  0  0  0  0  0  0  0  0
   -1.9423   -0.3938   -2.2990 H   0  0  0  0  0  0  0  0  0  0  0  0
   -0.3334   -1.1197    0.4203 H   0  0  0  0  0  0  0  0  0  0  0  0
   -2.1822   -1.5169   -0.0195 H   0  0  0  0  0  0  0  0  0  0  0  0
   -0.9050    1.4694    0.1748 H   0  0  0  0  0  0  0  0  0  0  0  0
  1  2  1  0
  1  5  1  0
  1  6  1  0
  1 15  1  0
  2  3  1  0
  3  4  2  3
  4  7  1  0
  4  8  1  0
  9 10  1  0
  9 12  1  0
  9 13  1  0
  9 14  1  0
 10 11  1  0
 10 16  1  0
 11 17  1  0
M  RAD  1  10   2
M  END
>  <reaction>  (16) 
rmg_rxn_15685

>  <mol_properties>  (16) 
{"0": {"label": "*3", "atom_type": "Cs"}, "1": {"label": "*4", "atom_type": "O2s"}, "9": {"label": "*1", "atom_type": "Cs"}, "10": {"label": "*0", "atom_type": "S2s"}, "14": {"label": "*2", "atom_type": "H0"}}

>  <type>  (16) 
unop_12

>  <geom_source>  (16) 
Heuristics

$$$$

     RDKit          3D

 17 15  0  0  0  0  0  0  0  0999 V2000
    1.1562    0.8359   -1.1261 C   0  0  0  0  0  0  0  0  0  0  0  0
    1.9876    0.7501   -0.0131 O   0  0  0  0  0  0  0  0  0  0  0  0
    2.2303   -0.4279    0.5958 N   0  0  0  0  0  0  0  0  0  0  0  0
    1.6673   -1.5053    0.2552 C   0  0  0  0  0  0  0  0  0  0  0  0
    1.2867    1.8332   -1.5320 H   0  0  0  0  0  0  0  0  0  0  0  0
    1.3245    0.0578   -1.8708 H   0  0  0  0  0  0  0  0  0  0  0  0
    1.9577   -2.3782    0.8132 H   0  0  0  0  0  0  0  0  0  0  0  0
    0.9256   -1.6342   -0.5295 H   0  0  0  0  0  0  0  0  0  0  0  0
   -1.3574    1.5382    0.9819 C   0  0  0  0  0  0  0  0  0  0  0  0
   -1.3615    0.7580   -0.3052 C   0  0  0  0  0  3  0  0  0  0  0  0
   -1.9469   -0.9184   -0.1773 S   0  0  0  0  0  0  0  0  0  0  0  0
   -0.9734    2.5400    0.8005 H   0  0  0  0  0  0  0  0  0  0  0  0
   -0.7216    1.0549    1.7235 H   0  0  0  0  0  0  0  0  0  0  0  0
   -2.3631    1.6247    1.3967 H   0  0  0  0  0  0  0  0  0  0  0  0
   -0.1026    0.7509   -0.7502 H   0  0  0  0  0  0  0  0  0  0  0  0
   -1.9247    1.2339   -1.1045 H   0  0  0  0  0  0  0  0  0  0  0  0
   -1.2726   -1.2167    0.9362 H   0  0  0  0  0  0  0  0  0  0  0  0
  1  2  1  0
  1  5  1  0
  1  6  1  0
  1 15  1  0
  2  3  1  0
  3  4  2  3
  4  7  1  0
  4  8  1  0
  9 10  1  0
  9 12  1  0
  9 13  1  0
  9 14  1  0
 10 11  1  0
 10 16  1  0
 11 17  1  0
M  RAD  1  10   2
M  END
>  <reaction>  (17) 
rmg_rxn_15685

>  <mol_properties>  (17) 
{"0": {"label": "*3", "atom_type": "Cs"}, "1": {"label": "*4", "atom_type": "O2s"}, "9": {"label": "*1", "atom_type": "Cs"}, "10": {"label": "*0", "atom_type": "S2s"}, "14": {"label": "*2", "atom_type": "H0"}}

>  <type>  (17) 
unop_13

>  <geom_source>  (17) 
Heuristics

$$$$

     RDKit          3D

 17 15  0  0  0  0  0  0  0  0999 V2000
    1.1249   -0.3924    0.1349 C   0  0  0  0  0  0  0  0  0  0  0  0
    0.6629   -1.7216    0.2739 O   0  0  0  0  0  0  0  0  0  0  0  0
    1.1764   -2.2726    1.4234 N   0  0  0  0  0  0  0  0  0  0  0  0
    0.7905   -3.4641    1.5917 C   0  0  0  0  0  0  0  0  0  0  0  0
    0.7990    0.2244    0.9754 H   0  0  0  0  0  0  0  0  0  0  0  0
    2.2143   -0.3632    0.0615 H   0  0  0  0  0  0  0  0  0  0  0  0
    1.1518   -3.9703    2.4768 H   0  0  0  0  0  0  0  0  0  0  0  0
    0.1287   -3.9702    0.8921 H   0  0  0  0  0  0  0  0  0  0  0  0
   -0.8979    0.9655   -2.3315 C   0  0  0  0  0  0  0  0  0  0  0  0
   -0.8979    0.9655   -0.8129 C   0  0  0  0  0  3  0  0  0  0  0  0
   -0.8979    2.6229   -0.0679 S   0  0  0  0  0  0  0  0  0  0  0  0
    0.0088    1.4309   -2.7223 H   0  0  0  0  0  0  0  0  0  0  0  0
   -1.7538    1.5167   -2.7216 H   0  0  0  0  0  0  0  0  0  0  0  0
   -0.9409   -0.0579   -2.7118 H   0  0  0  0  0  0  0  0  0  0  0  0
    0.1141    0.2862   -0.3387 H   0  0  0  0  0  0  0  0  0  0  0  0
   -1.8055    0.4985   -0.4277 H   0  0  0  0  0  0  0  0  0  0  0  0
    0.2770    3.0246   -0.5714 H   0  0  0  0  0  0  0  0  0  0  0  0
  1  2  1  0
  1  5  1  0
  1  6  1  0
  1 15  1  0
  2  3  1  0
  3  4  2  3
  4  7  1  0
  4  8  1  0
  9 10  1  0
  9 12  1  0
  9 13  1  0
  9 14  1  0
 10 11  1  0
 10 16  1  0
 11 17  1  0
M  RAD  1  10   2
M  END
>  <reaction>  (18) 
rmg_rxn_15685

>  <mol_properties>  (18) 
{"0": {"label": "*3", "atom_type": "Cs"}, "1": {"label": "*4", "atom_type": "O2s"}, "9": {"label": "*1", "atom_type": "Cs"}, "10": {"label": "*0", "atom_type": "S2s"}, "14": {"label": "*2", "atom_type": "H0"}}

>  <type>  (18) 
unop_14

>  <geom_source>  (18) 
Heuristics

$$$$

     RDKit          3D

 17 15  0  0  0  0  0  0  0  0999 V2000
    1.1566    0.8240   -1.1345 C   0  0  0  0  0  0  0  0  0  0  0  0
    1.9918    0.7443   -0.0239 O   0  0  0  0  0  0  0  0  0  0  0  0
    2.2300   -0.4292    0.5956 N   0  0  0  0  0  0  0  0  0  0  0  0
    1.6608   -1.5069    0.2663 C   0  0  0  0  0  0  0  0  0  0  0  0
    1.2901    1.8171   -1.5497 H   0  0  0  0  0  0  0  0  0  0  0  0
    1.3185    0.0387   -1.8729 H   0  0  0  0  0  0  0  0  0  0  0  0
    1.9486   -2.3760    0.8315 H   0  0  0  0  0  0  0  0  0  0  0  0
    0.9171   -1.6396   -0.5159 H   0  0  0  0  0  0  0  0  0  0  0  0
   -1.3367    1.5330    0.9938 C   0  0  0  0  0  0  0  0  0  0  0  0
   -1.3568    0.7634   -0.2994 C   0  0  0  0  0  3  0  0  0  0  0  0
   -1.9577   -0.9083   -0.1812 S   0  0  0  0  0  0  0  0  0  0  0  0
   -2.3388    1.6268    1.4154 H   0  0  0  0  0  0  0  0  0  0  0  0
   -0.9431    2.5321    0.8181 H   0  0  0  0  0  0  0  0  0  0  0  0
   -0.7016    1.0371    1.7277 H   0  0  0  0  0  0  0  0  0  0  0  0
   -0.1008    0.7477   -0.7525 H   0  0  0  0  0  0  0  0  0  0  0  0
   -1.9202    1.2511   -1.0913 H   0  0  0  0  0  0  0  0  0  0  0  0
   -1.2812   -1.2213    0.9269 H   0  0  0  0  0  0  0  0  0  0  0  0
  1  2  1  0
  1  5  1  0
  1  6  1  0
  1 15  1  0
  2  3  1  0
  3  4  2  3
  4  7  1  0
  4  8  1  0
  9 10  1  0
  9 12  1  0
  9 13  1  0
  9 14  1  0
 10 11  1  0
 10 16  1  0
 11 17  1  0
M  RAD  1  10   2
M  END
>  <reaction>  (19) 
rmg_rxn_15685

>  <mol_properties>  (19) 
{"0": {"label": "*3", "atom_type": "Cs"}, "1": {"label": "*4", "atom_type": "O2s"}, "9": {"label": "*1", "atom_type": "Cs"}, "10": {"label": "*0", "atom_type": "S2s"}, "14": {"label": "*2", "atom_type": "H0"}}

>  <type>  (19) 
unop_15

>  <geom_source>  (19) 
Heuristics

$$$$

     RDKit          3D

 17 15  0  0  0  0  0  0  0  0999 V2000
    1.1109   -0.6103   -0.1550 C   0  0  0  0  0  0  0  0  0  0  0  0
    0.5457   -1.6506    0.6182 O   0  0  0  0  0  0  0  0  0  0  0  0
    1.3135   -1.8652    1.7376 N   0  0  0  0  0  0  0  0  0  0  0  0
    0.8470   -2.7890    2.4627 C   0  0  0  0  0  0  0  0  0  0  0  0
    1.1445    0.3233    0.4110 H   0  0  0  0  0  0  0  0  0  0  0  0
    2.1182   -0.8727   -0.4862 H   0  0  0  0  0  0  0  0  0  0  0  0
    1.3954   -3.0202    3.3661 H   0  0  0  0  0  0  0  0  0  0  0  0
   -0.0588   -3.3344    2.2065 H   0  0  0  0  0  0  0  0  0  0  0  0
   -0.9118    0.7476   -2.6215 C   0  0  0  0  0  0  0  0  0  0  0  0
   -0.9118    0.7476   -1.1028 C   0  0  0  0  0  3  0  0  0  0  0  0
   -0.9118    2.4050   -0.3578 S   0  0  0  0  0  0  0  0  0  0  0  0
   -0.0051    1.2131   -3.0122 H   0  0  0  0  0  0  0  0  0  0  0  0
   -1.7678    1.2988   -3.0116 H   0  0  0  0  0  0  0  0  0  0  0  0
   -0.9549   -0.2757   -3.0018 H   0  0  0  0  0  0  0  0  0  0  0  0
    0.1001    0.0683   -0.6287 H   0  0  0  0  0  0  0  0  0  0  0  0
   -1.8194    0.2806   -0.7177 H   0  0  0  0  0  0  0  0  0  0  0  0
    0.2630    2.8067   -0.8613 H   0  0  0  0  0  0  0  0  0  0  0  0
  1  2  1  0
  1  5  1  0
  1  6  1  0
  1 15  1  0
  2  3  1  0
  3  4  2  3
  4  7  1  0
  4  8  1  0
  9 10  1  0
  9 12  1  0
  9 13  1  0
  9 14  1  0
 10 11  1  0
 10 16  1  0
 11 17  1  0
M  RAD  1  10   2
M  END
>  <reaction>  (20) 
rmg_rxn_15685

>  <mol_properties>  (20) 
{"0": {"label": "*3", "atom_type": "Cs"}, "1": {"label": "*4", "atom_type": "O2s"}, "9": {"label": "*1", "atom_type": "Cs"}, "10": {"label": "*0", "atom_type": "S2s"}, "14": {"label": "*2", "atom_type": "H0"}}

>  <type>  (20) 
unop_16

>  <geom_source>  (20) 
Heuristics

$$$$

     RDKit          3D

 17 15  0  0  0  0  0  0  0  0999 V2000
    1.1583   -0.8262    1.1340 C   0  0  0  0  0  0  0  0  0  0  0  0
    1.9903   -0.7432    0.0212 O   0  0  0  0  0  0  0  0  0  0  0  0
    2.2249    0.4318   -0.5968 N   0  0  0  0  0  0  0  0  0  0  0  0
    1.6559    1.5082   -0.2629 C   0  0  0  0  0  0  0  0  0  0  0  0
    1.2929   -1.8205    1.5458 H   0  0  0  0  0  0  0  0  0  0  0  0
    1.3221   -0.0430    1.8743 H   0  0  0  0  0  0  0  0  0  0  0  0
    1.9396    2.3787   -0.8282 H   0  0  0  0  0  0  0  0  0  0  0  0
    0.9150    1.6384    0.5222 H   0  0  0  0  0  0  0  0  0  0  0  0
   -1.3336   -1.5340   -0.9926 C   0  0  0  0  0  0  0  0  0  0  0  0
   -1.3555   -0.7640    0.3004 C   0  0  0  0  0  3  0  0  0  0  0  0
   -1.9556    0.9079    0.1807 S   0  0  0  0  0  0  0  0  0  0  0  0
   -0.6945   -1.0402   -1.7244 H   0  0  0  0  0  0  0  0  0  0  0  0
   -2.3346   -1.6247   -1.4175 H   0  0  0  0  0  0  0  0  0  0  0  0
   -0.9436   -2.5342   -0.8153 H   0  0  0  0  0  0  0  0  0  0  0  0
   -0.0997   -0.7486    0.7542 H   0  0  0  0  0  0  0  0  0  0  0  0
   -1.9203   -1.2512    1.0917 H   0  0  0  0  0  0  0  0  0  0  0  0
   -1.2771    1.2201   -0.9265 H   0  0  0  0  0  0  0  0  0  0  0  0
  1  2  1  0
  1  5  1  0
  1  6  1  0
  1 15  1  0
  2  3  1  0
  3  4  2  3
  4  7  1  0
  4  8  1  0
  9 10  1  0
  9 12  1  0
  9 13  1  0
  9 14  1  0
 10 11  1  0
 10 16  1  0
 11 17  1  0
M  RAD  1  10   2
M  END
>  <reaction>  (21) 
rmg_rxn_15685

>  <mol_properties>  (21) 
{"0": {"label": "*3", "atom_type": "Cs"}, "1": {"label": "*4", "atom_type": "O2s"}, "9": {"label": "*1", "atom_type": "Cs"}, "10": {"label": "*0", "atom_type": "S2s"}, "14": {"label": "*2", "atom_type": "H0"}}

>  <type>  (21) 
unop_17

>  <geom_source>  (21) 
Heuristics

$$$$

     RDKit          3D

 17 15  0  0  0  0  0  0  0  0999 V2000
    0.3669   -1.5215    0.1349 C   0  0  0  0  0  0  0  0  0  0  0  0
    1.4222   -0.5906    0.2739 O   0  0  0  0  0  0  0  0  0  0  0  0
    2.1266   -0.8573    1.4234 N   0  0  0  0  0  0  0  0  0  0  0  0
    3.0832   -0.0490    1.5916 C   0  0  0  0  0  0  0  0  0  0  0  0
    0.7523   -2.5410    0.0615 H   0  0  0  0  0  0  0  0  0  0  0  0
   -0.3274   -1.4535    0.9754 H   0  0  0  0  0  0  0  0  0  0  0  0
    3.6886   -0.1918    2.4767 H   0  0  0  0  0  0  0  0  0  0  0  0
    3.3010    0.7552    0.8921 H   0  0  0  0  0  0  0  0  0  0  0  0
   -1.6559   -0.1636   -2.3315 C   0  0  0  0  0  0  0  0  0  0  0  0
   -1.6559   -0.1636   -0.8129 C   0  0  0  0  0  3  0  0  0  0  0  0
   -1.6559    1.4938   -0.0679 S   0  0  0  0  0  0  0  0  0  0  0  0
   -0.7492    0.3018   -2.7223 H   0  0  0  0  0  0  0  0  0  0  0  0
   -2.5118    0.3876   -2.7216 H   0  0  0  0  0  0  0  0  0  0  0  0
   -1.6989   -1.1870   -2.7118 H   0  0  0  0  0  0  0  0  0  0  0  0
   -0.6440   -0.8429   -0.3387 H   0  0  0  0  0  0  0  0  0  0  0  0
   -2.5635   -0.6306   -0.4277 H   0  0  0  0  0  0  0  0  0  0  0  0
   -0.4811    1.8955   -0.5714 H   0  0  0  0  0  0  0  0  0  0  0  0
  1  2  1  0
  1  5  1  0
  1  6  1  0
  1 15  1  0
  2  3  1  0
  3  4  2  3
  4  7  1  0
  4  8  1  0
  9 10  1  0
  9 12  1  0
  9 13  1  0
  9 14  1  0
 10 11  1  0
 10 16  1  0
 11 17  1  0
M  RAD  1  10   2
M  END
>  <reaction>  (22) 
rmg_rxn_15685

>  <mol_properties>  (22) 
{"0": {"label": "*3", "atom_type": "Cs"}, "1": {"label": "*4", "atom_type": "O2s"}, "9": {"label": "*1", "atom_type": "Cs"}, "10": {"label": "*0", "atom_type": "S2s"}, "14": {"label": "*2", "atom_type": "H0"}}

>  <type>  (22) 
unop_18

>  <geom_source>  (22) 
Heuristics

$$$$

     RDKit          3D

 17 15  0  0  0  0  0  0  0  0999 V2000
    1.1502   -0.9213    1.0653 C   0  0  0  0  0  0  0  0  0  0  0  0
    1.9531   -0.7884   -0.0638 O   0  0  0  0  0  0  0  0  0  0  0  0
    2.2282    0.4202   -0.5955 N   0  0  0  0  0  0  0  0  0  0  0  0
    1.7127    1.4906   -0.1689 C   0  0  0  0  0  0  0  0  0  0  0  0
    1.2583   -1.9472    1.4006 H   0  0  0  0  0  0  0  0  0  0  0  0
    1.3664   -0.2006    1.8540 H   0  0  0  0  0  0  0  0  0  0  0  0
    2.0244    2.3894   -0.6714 H   0  0  0  0  0  0  0  0  0  0  0  0
    0.9894    1.5904    0.6368 H   0  0  0  0  0  0  0  0  0  0  0  0
   -1.4911   -1.5628   -0.8982 C   0  0  0  0  0  0  0  0  0  0  0  0
   -1.3910   -0.7189    0.3441 C   0  0  0  0  0  3  0  0  0  0  0  0
   -1.8725    0.9838    0.1475 S   0  0  0  0  0  0  0  0  0  0  0  0
   -0.8494   -1.1671   -1.6851 H   0  0  0  0  0  0  0  0  0  0  0  0
   -2.5150   -1.5948   -1.2743 H   0  0  0  0  0  0  0  0  0  0  0  0
   -1.1754   -2.5800   -0.6754 H   0  0  0  0  0  0  0  0  0  0  0  0
   -0.1162   -0.7731    0.7373 H   0  0  0  0  0  0  0  0  0  0  0  0
   -1.9506   -1.1142    1.1887 H   0  0  0  0  0  0  0  0  0  0  0  0
   -1.2080    1.1860   -0.9930 H   0  0  0  0  0  0  0  0  0  0  0  0
  1  2  1  0
  1  5  1  0
  1  6  1  0
  1 15  1  0
  2  3  1  0
  3  4  2  3
  4  7  1  0
  4  8  1  0
  9 10  1  0
  9 12  1  0
  9 13  1  0
  9 14  1  0
 10 11  1  0
 10 16  1  0
 11 17  1  0
M  RAD  1  10   2
M  END
>  <reaction>  (23) 
rmg_rxn_15685

>  <mol_properties>  (23) 
{"0": {"label": "*3", "atom_type": "Cs"}, "1": {"label": "*4", "atom_type": "O2s"}, "9": {"label": "*1", "atom_type": "Cs"}, "10": {"label": "*0", "atom_type": "S2s"}, "14": {"label": "*2", "atom_type": "H0"}}

>  <type>  (23) 
unop_19

>  <geom_source>  (23) 
Heuristics

$$$$

     RDKit          3D

 17 15  0  0  0  0  0  0  0  0999 V2000
    0.7232   -0.4357    0.7909 C   0  0  0  0  0  0  0  0  0  0  0  0
    0.9953   -1.4381   -0.1687 O   0  0  0  0  0  0  0  0  0  0  0  0
    1.7438   -2.4376    0.4052 N   0  0  0  0  0  0  0  0  0  0  0  0
    2.0132   -3.3594   -0.4160 C   0  0  0  0  0  0  0  0  0  0  0  0
    0.1519   -0.8417    1.6288 H   0  0  0  0  0  0  0  0  0  0  0  0
    1.6482    0.0111    1.1623 H   0  0  0  0  0  0  0  0  0  0  0  0
    2.6013   -4.1863   -0.0409 H   0  0  0  0  0  0  0  0  0  0  0  0
    1.6787   -3.3386   -1.4510 H   0  0  0  0  0  0  0  0  0  0  0  0
   -1.2996    0.9222   -1.6755 C   0  0  0  0  0  0  0  0  0  0  0  0
   -1.2996    0.9222   -0.1568 C   0  0  0  0  0  3  0  0  0  0  0  0
   -1.2996    2.5796    0.5881 S   0  0  0  0  0  0  0  0  0  0  0  0
   -0.3929    1.3877   -2.0663 H   0  0  0  0  0  0  0  0  0  0  0  0
   -2.1555    1.4734   -2.0656 H   0  0  0  0  0  0  0  0  0  0  0  0
   -1.3426   -0.1011   -2.0558 H   0  0  0  0  0  0  0  0  0  0  0  0
   -0.2877    0.2429    0.3173 H   0  0  0  0  0  0  0  0  0  0  0  0
   -2.2072    0.4552    0.2283 H   0  0  0  0  0  0  0  0  0  0  0  0
   -0.1248    2.9813    0.0846 H   0  0  0  0  0  0  0  0  0  0  0  0
  1  2  1  0
  1  5  1  0
  1  6  1  0
  1 15  1  0
  2  3  1  0
  3  4  2  3
  4  7  1  0
  4  8  1  0
  9 10  1  0
  9 12  1  0
  9 13  1  0
  9 14  1  0
 10 11  1  0
 10 16  1  0
 11 17  1  0
M  RAD  1  10   2
M  END
>  <reaction>  (24) 
rmg_rxn_15685

>  <mol_properties>  (24) 
{"0": {"label": "*3", "atom_type": "Cs"}, "1": {"label": "*4", "atom_type": "O2s"}, "9": {"label": "*1", "atom_type": "Cs"}, "10": {"label": "*0", "atom_type": "S2s"}, "14": {"label": "*2", "atom_type": "H0"}}

>  <type>  (24) 
unop_20

>  <geom_source>  (24) 
Heuristics

$$$$

     RDKit          3D

 17 15  0  0  0  0  0  0  0  0999 V2000
    0.2408   -1.4220    0.4905 C   0  0  0  0  0  0  0  0  0  0  0  0
    1.3993   -0.7800   -0.0047 O   0  0  0  0  0  0  0  0  0  0  0  0
    2.4208   -0.9002    0.9067 N   0  0  0  0  0  0  0  0  0  0  0  0
    3.4809   -0.3402    0.5075 C   0  0  0  0  0  0  0  0  0  0  0  0
    0.4224   -2.4872    0.6501 H   0  0  0  0  0  0  0  0  0  0  0  0
   -0.0902   -0.9641    1.4254 H   0  0  0  0  0  0  0  0  0  0  0  0
    4.3346   -0.3901    1.1700 H   0  0  0  0  0  0  0  0  0  0  0  0
    3.5489    0.1705   -0.4507 H   0  0  0  0  0  0  0  0  0  0  0  0
   -1.7820   -0.0641   -1.9759 C   0  0  0  0  0  0  0  0  0  0  0  0
   -1.7820   -0.0641   -0.4572 C   0  0  0  0  0  3  0  0  0  0  0  0
   -1.7820    1.5933    0.2878 S   0  0  0  0  0  0  0  0  0  0  0  0
   -0.8753    0.4013   -2.3666 H   0  0  0  0  0  0  0  0  0  0  0  0
   -2.6379    0.4871   -2.3660 H   0  0  0  0  0  0  0  0  0  0  0  0
   -1.8250   -1.0874   -2.3562 H   0  0  0  0  0  0  0  0  0  0  0  0
   -0.7701   -0.7434    0.0169 H   0  0  0  0  0  0  0  0  0  0  0  0
   -2.6896   -0.5311   -0.0721 H   0  0  0  0  0  0  0  0  0  0  0  0
   -0.6072    1.9950   -0.2158 H   0  0  0  0  0  0  0  0  0  0  0  0
  1  2  1  0
  1  5  1  0
  1  6  1  0
  1 15  1  0
  2  3  1  0
  3  4  2  3
  4  7  1  0
  4  8  1  0
  9 10  1  0
  9 12  1  0
  9 13  1  0
  9 14  1  0
 10 11  1  0
 10 16  1  0
 11 17  1  0
M  RAD  1  10   2
M  END
>  <reaction>  (25) 
rmg_rxn_15685

>  <mol_properties>  (25) 
{"0": {"label": "*3", "atom_type": "Cs"}, "1": {"label": "*4", "atom_type": "O2s"}, "9": {"label": "*1", "atom_type": "Cs"}, "10": {"label": "*0", "atom_type": "S2s"}, "14": {"label": "*2", "atom_type": "H0"}}

>  <type>  (25) 
unop_21

>  <geom_source>  (25) 
Heuristics

$$$$

     RDKit          3D

 17 15  0  0  0  0  0  0  0  0999 V2000
    0.9742   -0.8521   -0.2997 C   0  0  0  0  0  0  0  0  0  0  0  0
    0.5367   -1.3781    0.9379 O   0  0  0  0  0  0  0  0  0  0  0  0
    1.6180   -1.5898    1.7594 N   0  0  0  0  0  0  0  0  0  0  0  0
    1.2763   -2.0610    2.8809 C   0  0  0  0  0  0  0  0  0  0  0  0
    1.4803    0.1058   -0.1600 H   0  0  0  0  0  0  0  0  0  0  0  0
    1.6461   -1.5496   -0.8050 H   0  0  0  0  0  0  0  0  0  0  0  0
    2.0720   -2.2565    3.5874 H   0  0  0  0  0  0  0  0  0  0  0  0
    0.2396   -2.2656    3.1396 H   0  0  0  0  0  0  0  0  0  0  0  0
   -1.0485    0.5058   -2.7661 C   0  0  0  0  0  0  0  0  0  0  0  0
   -1.0485    0.5058   -1.2474 C   0  0  0  0  0  3  0  0  0  0  0  0
   -1.0485    2.1632   -0.5024 S   0  0  0  0  0  0  0  0  0  0  0  0
   -0.1418    0.9713   -3.1568 H   0  0  0  0  0  0  0  0  0  0  0  0
   -1.9045    1.0571   -3.1562 H   0  0  0  0  0  0  0  0  0  0  0  0
   -1.0916   -0.5175   -3.1464 H   0  0  0  0  0  0  0  0  0  0  0  0
   -0.0366   -0.1735   -0.7733 H   0  0  0  0  0  0  0  0  0  0  0  0
   -1.9561    0.0388   -0.8623 H   0  0  0  0  0  0  0  0  0  0  0  0
    0.1263    2.5649   -1.0060 H   0  0  0  0  0  0  0  0  0  0  0  0
  1  2  1  0
  1  5  1  0
  1  6  1  0
  1 15  1  0
  2  3  1  0
  3  4  2  3
  4  7  1  0
  4  8  1  0
  9 10  1  0
  9 12  1  0
  9 13  1  0
  9 14  1  0
 10 11  1  0
 10 16  1  0
 11 17  1  0
M  RAD  1  10   2
M  END
>  <reaction>  (26) 
rmg_rxn_15685

>  <mol_properties>  (26) 
{"0": {"label": "*3", "atom_type": "Cs"}, "1": {"label": "*4", "atom_type": "O2s"}, "9": {"label": "*1", "atom_type": "Cs"}, "10": {"label": "*0", "atom_type": "S2s"}, "14": {"label": "*2", "atom_type": "H0"}}

>  <type>  (26) 
unop_22

>  <geom_source>  (26) 
Heuristics

$$$$

     RDKit          3D

 17 15  0  0  0  0  0  0  0  0999 V2000
    0.4361   -0.7490    0.9111 C   0  0  0  0  0  0  0  0  0  0  0  0
    1.1424   -1.2232   -0.2184 O   0  0  0  0  0  0  0  0  0  0  0  0
    2.2318   -1.9546    0.1901 N   0  0  0  0  0  0  0  0  0  0  0  0
    2.8968   -2.4010   -0.7872 C   0  0  0  0  0  0  0  0  0  0  0  0
    0.0716   -1.5789    1.5207 H   0  0  0  0  0  0  0  0  0  0  0  0
    1.0662   -0.0975    1.5207 H   0  0  0  0  0  0  0  0  0  0  0  0
    3.7730   -2.9893   -0.5492 H   0  0  0  0  0  0  0  0  0  0  0  0
    2.6168   -2.2130   -1.8215 H   0  0  0  0  0  0  0  0  0  0  0  0
   -1.5867    0.6090   -1.5553 C   0  0  0  0  0  0  0  0  0  0  0  0
   -1.5867    0.6090   -0.0367 C   0  0  0  0  0  3  0  0  0  0  0  0
   -1.5867    2.2663    0.7083 S   0  0  0  0  0  0  0  0  0  0  0  0
   -0.6800    1.0744   -1.9461 H   0  0  0  0  0  0  0  0  0  0  0  0
   -2.4426    1.1602   -1.9454 H   0  0  0  0  0  0  0  0  0  0  0  0
   -1.6297   -0.4144   -1.9356 H   0  0  0  0  0  0  0  0  0  0  0  0
   -0.5748   -0.0704    0.4375 H   0  0  0  0  0  0  0  0  0  0  0  0
   -2.4943    0.1419    0.3485 H   0  0  0  0  0  0  0  0  0  0  0  0
   -0.4119    2.6680    0.2048 H   0  0  0  0  0  0  0  0  0  0  0  0
  1  2  1  0
  1  5  1  0
  1  6  1  0
  1 15  1  0
  2  3  1  0
  3  4  2  3
  4  7  1  0
  4  8  1  0
  9 10  1  0
  9 12  1  0
  9 13  1  0
  9 14  1  0
 10 11  1  0
 10 16  1  0
 11 17  1  0
M  RAD  1  10   2
M  END
>  <reaction>  (27) 
rmg_rxn_15685

>  <mol_properties>  (27) 
{"0": {"label": "*3", "atom_type": "Cs"}, "1": {"label": "*4", "atom_type": "O2s"}, "9": {"label": "*1", "atom_type": "Cs"}, "10": {"label": "*0", "atom_type": "S2s"}, "14": {"label": "*2", "atom_type": "H0"}}

>  <type>  (27) 
unop_23

>  <geom_source>  (27) 
Heuristics

$$$$

     RDKit          3D

 17 15  0  0  0  0  0  0  0  0999 V2000
    1.4575   -1.6563   -0.5238 C   0  0  0  0  0  0  0  0  0  0  0  0
    2.2343   -0.5084   -0.2902 O   0  0  0  0  0  0  0  0  0  0  0  0
    1.4771    0.4994    0.2754 N   0  0  0  0  0  0  0  0  0  0  0  0
    2.0775    1.5709    0.5487 C   0  0  0  0  0  0  0  0  0  0  0  0
    2.0312   -2.3345   -1.1199 H   0  0  0  0  0  0  0  0  0  0  0  0
    1.0765   -2.1074    0.3886 H   0  0  0  0  0  0  0  0  0  0  0  0
    1.4874    2.3560    0.9885 H   0  0  0  0  0  0  0  0  0  0  0  0
    3.1338    1.7405    0.3675 H   0  0  0  0  0  0  0  0  0  0  0  0
   -1.5541    0.9544   -1.4948 C   0  0  0  0  0  0  0  0  0  0  0  0
   -2.1845   -0.0789   -0.6404 C   0  0  0  0  0  3  0  0  0  0  0  0
   -1.7024   -0.3093    0.9976 S   0  0  0  0  0  0  0  0  0  0  0  0
   -1.7142    0.7136   -2.5459 H   0  0  0  0  0  0  0  0  0  0  0  0
   -0.4835    1.0171   -1.3008 H   0  0  0  0  0  0  0  0  0  0  0  0
   -1.9812    1.9501   -1.3198 H   0  0  0  0  0  0  0  0  0  0  0  0
    0.6661   -1.5031   -1.2676 H   0  0  0  0  0  0  0  0  0  0  0  0
   -3.2014   -0.3761   -0.8287 H   0  0  0  0  0  0  0  0  0  0  0  0
   -0.4329    0.0971    0.8354 H   0  0  0  0  0  0  0  0  0  0  0  0
  1  2  1  0
  1  5  1  0
  1  6  1  0
  1 15  1  0
  2  3  1  0
  3  4  2  3
  4  7  1  0
  4  8  1  0
  9 10  1  0
  9 12  1  0
  9 13  1  0
  9 14  1  0
 10 11  1  0
 10 16  1  0
 11 17  1  0
M  RAD  1  10   2
M  END
>  <reaction>  (28) 
rmg_rxn_15685

>  <mol_properties>  (28) 
{"0": {"label": "*3", "atom_type": "Cs"}, "1": {"label": "*4", "atom_type": "O2s"}, "9": {"label": "*1", "atom_type": "Cs"}, "10": {"label": "*0", "atom_type": "S2s"}, "14": {"label": "*2", "atom_type": "H0"}}

>  <type>  (28) 
unop_24

>  <geom_source>  (28) 
Heuristics

$$$$

     RDKit          3D

 17 15  0  0  0  0  0  0  0  0999 V2000
   -1.6691    2.1235   -0.0845 S   0  0  0  0  0  0  0  0  0  0  0  0
    1.7284   -0.9084   -0.3612 O   0  0  0  0  0  0  0  0  0  0  0  0
    2.5135    0.2197   -0.2955 N   0  0  0  0  0  0  0  0  0  0  0  0
   -2.7460   -0.3798    0.2478 C   0  0  0  0  0  0  0  0  0  0  0  0
    0.3568   -0.8056   -0.7033 C   0  0  0  0  0  0  0  0  0  0  0  0
   -1.5125    0.4408    0.5850 C   0  0  0  0  0  3  0  0  0  0  0  0
    3.7642    0.1312    0.0159 C   0  0  0  0  0  0  0  0  0  0  0  0
   -2.6285   -1.4054    0.6553 H   0  0  0  0  0  0  0  0  0  0  0  0
   -2.8675   -0.4451   -0.8538 H   0  0  0  0  0  0  0  0  0  0  0  0
   -3.6507    0.0852    0.6939 H   0  0  0  0  0  0  0  0  0  0  0  0
   -0.1032   -1.8149   -0.6841 H   0  0  0  0  0  0  0  0  0  0  0  0
    0.2546   -0.3772   -1.7224 H   0  0  0  0  0  0  0  0  0  0  0  0
   -0.2614   -0.0291    0.1668 H   0  0  0  0  0  0  0  0  0  0  0  0
   -1.3799    0.4902    1.6865 H   0  0  0  0  0  0  0  0  0  0  0  0
    4.3709    1.0250    0.0642 H   0  0  0  0  0  0  0  0  0  0  0  0
    4.2125   -0.8310    0.2295 H   0  0  0  0  0  0  0  0  0  0  0  0
   -0.3824    2.4809    0.3600 H   0  0  0  0  0  0  0  0  0  0  0  0
  1  6  1  0
  1 17  1  0
  2  5  1  0
  2  3  1  0
  3  7  2  3
  4  6  1  0
  4  8  1  0
  4  9  1  0
  4 10  1  0
  5 11  1  0
  5 12  1  0
  5 13  1  0
  6 14  1  0
  7 15  1  0
  7 16  1  0
M  RAD  1   6   2
M  END
>  <reaction>  (29) 
rmg_rxn_15685

>  <mol_properties>  (29) 
{"0": {"label": "*3", "atom_type": "Cs"}, "1": {"label": "*4", "atom_type": "O2s"}, "9": {"label": "*1", "atom_type": "Cs"}, "10": {"label": "*0", "atom_type": "S2s"}, "14": {"label": "*2", "atom_type": "H0"}}

>  <type>  (29) 
unop_25

>  <geom_source>  (29) 
AutoTST

$$$$

     RDKit          3D

 17 15  0  0  0  0  0  0  0  0999 V2000
    0.2548   -1.1333    0.7909 C   0  0  0  0  0  0  0  0  0  0  0  0
    1.2856   -1.0056   -0.1687 O   0  0  0  0  0  0  0  0  0  0  0  0
    2.4941   -1.3201    0.4052 N   0  0  0  0  0  0  0  0  0  0  0  0
    3.4493   -1.2203   -0.4160 C   0  0  0  0  0  0  0  0  0  0  0  0
    0.1915   -2.1586    1.1623 H   0  0  0  0  0  0  0  0  0  0  0  0
    0.4143   -0.4509    1.6288 H   0  0  0  0  0  0  0  0  0  0  0  0
    4.4373   -1.4516   -0.0410 H   0  0  0  0  0  0  0  0  0  0  0  0
    3.3034   -0.9185   -1.4510 H   0  0  0  0  0  0  0  0  0  0  0  0
   -1.7679    0.2246   -1.6755 C   0  0  0  0  0  0  0  0  0  0  0  0
   -1.7679    0.2246   -0.1568 C   0  0  0  0  0  3  0  0  0  0  0  0
   -1.7679    1.8820    0.5881 S   0  0  0  0  0  0  0  0  0  0  0  0
   -0.8613    0.6900   -2.0663 H   0  0  0  0  0  0  0  0  0  0  0  0
   -2.6239    0.7758   -2.0656 H   0  0  0  0  0  0  0  0  0  0  0  0
   -1.8110   -0.7987   -2.0558 H   0  0  0  0  0  0  0  0  0  0  0  0
   -0.7560   -0.4547    0.3173 H   0  0  0  0  0  0  0  0  0  0  0  0
   -2.6755   -0.2424    0.2283 H   0  0  0  0  0  0  0  0  0  0  0  0
   -0.5931    2.2837    0.0846 H   0  0  0  0  0  0  0  0  0  0  0  0
  1  2  1  0
  1  5  1  0
  1  6  1  0
  1 15  1  0
  2  3  1  0
  3  4  2  3
  4  7  1  0
  4  8  1  0
  9 10  1  0
  9 12  1  0
  9 13  1  0
  9 14  1  0
 10 11  1  0
 10 16  1  0
 11 17  1  0
M  RAD  1  10   2
M  END
>  <reaction>  (30) 
rmg_rxn_15685

>  <mol_properties>  (30) 
{"0": {"label": "*3", "atom_type": "Cs"}, "1": {"label": "*4", "atom_type": "O2s"}, "9": {"label": "*1", "atom_type": "Cs"}, "10": {"label": "*0", "atom_type": "S2s"}, "14": {"label": "*2", "atom_type": "H0"}}

>  <type>  (30) 
unop_26

>  <geom_source>  (30) 
gaussian_log

$$$$
