
     RDKit          3D

 11 10  0  0  0  0  0  0  0  0999 V2000
   -1.2710    0.1907   -0.2084 C   0  0  0  0  0  0  0  0  0  0  0  0
    0.0202   -0.6130   -0.2928 C   0  0  0  0  0  0  0  0  0  0  0  0
    0.1086   -1.6953    0.7756 C   0  0  0  0  0  0  0  0  0  0  0  0
   -1.3607    0.6851    0.7620 H   0  0  0  0  0  0  0  0  0  0  0  0
   -2.1429   -0.4567   -0.3299 H   0  0  0  0  0  0  0  0  0  0  0  0
   -1.3158    0.9602   -0.9809 H   0  0  0  0  0  0  0  0  0  0  0  0
    0.8757    0.0616   -0.1992 H   0  0  0  0  0  0  0  0  0  0  0  0
    0.0997   -1.0712   -1.2825 H   0  0  0  0  0  0  0  0  0  0  0  0
   -0.7198   -2.4022    0.6850 H   0  0  0  0  0  0  0  0  0  0  0  0
    1.0395   -2.2596    0.6989 H   0  0  0  0  0  0  0  0  0  0  0  0
    0.0624   -1.2603    1.7770 H   0  0  0  0  0  0  0  0  0  0  0  0
  1  2  1  0
  1  4  1  0
  1  5  1  0
  1  6  1  0
  2  3  1  0
  2  7  1  0
  2  8  1  0
  3  9  1  0
  3 10  1  0
  3 11  1  0
M  END
>  <reaction>  (1) 
rmg_rxn_512

>  <mol_properties>  (1) 
{"0": {"label": "donator", "atom_type": "Cs"}, "3": {"label": "d_hydrogen", "atom_type": "H0"}}

>  <type>  (1) 
r1h

$$$$

     RDKit          3D

 11 10  0  0  0  0  0  0  0  0999 V2000
   -1.2230    0.3768   -0.0849 C   0  0  0  0  0  0  0  0  0  0  0  0
   -0.0734   -0.5533    0.2746 C   0  0  0  0  0  0  0  0  0  0  0  0
   -0.0853   -1.8426   -0.5372 C   0  0  0  0  0  0  0  0  0  0  0  0
    0.0319   -1.6944   -1.8815 O   0  0  0  0  0  1  0  0  0  0  0  0
   -2.1874   -0.0885    0.1341 H   0  0  0  0  0  0  0  0  0  0  0  0
   -1.1670    1.3099    0.4765 H   0  0  0  0  0  0  0  0  0  0  0  0
   -1.2014    0.6189   -1.1483 H   0  0  0  0  0  0  0  0  0  0  0  0
    0.8834   -0.0518    0.1071 H   0  0  0  0  0  0  0  0  0  0  0  0
   -0.1104   -0.8149    1.3362 H   0  0  0  0  0  0  0  0  0  0  0  0
    0.6767   -2.5604   -0.1861 H   0  0  0  0  0  0  0  0  0  0  0  0
   -1.0401   -2.3871   -0.3877 H   0  0  0  0  0  0  0  0  0  0  0  0
  1  2  1  0
  1  5  1  0
  1  6  1  0
  1  7  1  0
  2  3  1  0
  2  8  1  0
  2  9  1  0
  3  4  1  0
  3 10  1  0
  3 11  1  0
M  RAD  1   4   2
M  END
>  <reaction>  (2) 
rmg_rxn_512

>  <mol_properties>  (2) 
{"3": {"label": "acceptor", "atom_type": "O2s"}}

>  <type>  (2) 
r2

$$$$

     RDKit          3D

 12 11  0  0  0  0  0  0  0  0999 V2000
   -1.4643   -0.2505   -0.5284 C   0  0  0  0  0  0  0  0  0  0  0  0
   -0.3946    0.4302    0.3143 C   0  0  0  0  0  0  0  0  0  0  0  0
   -0.5959    0.2382    1.8102 C   0  0  0  0  0  0  0  0  0  0  0  0
   -0.5633   -1.1190    2.2092 O   0  0  0  0  0  0  0  0  0  0  0  0
   -2.4511    0.1644   -0.3109 H   0  0  0  0  0  0  0  0  0  0  0  0
   -1.5019   -1.3198   -0.3181 H   0  0  0  0  0  0  0  0  0  0  0  0
   -1.2720   -0.1182   -1.5941 H   0  0  0  0  0  0  0  0  0  0  0  0
    0.5965    0.0515    0.0385 H   0  0  0  0  0  0  0  0  0  0  0  0
   -0.3776    1.5047    0.1078 H   0  0  0  0  0  0  0  0  0  0  0  0
   -1.5821    0.6048    2.1034 H   0  0  0  0  0  0  0  0  0  0  0  0
    0.1495    0.8220    2.3649 H   0  0  0  0  0  0  0  0  0  0  0  0
    0.3017   -1.4750    1.9997 H   0  0  0  0  0  0  0  0  0  0  0  0
  1  2  1  0
  1  5  1  0
  1  6  1  0
  1  7  1  0
  2  3  1  0
  2  8  1  0
  2  9  1  0
  3  4  1  0
  3 10  1  0
  3 11  1  0
  4 12  1  0
M  END
>  <reaction>  (3) 
rmg_rxn_512

>  <mol_properties>  (3) 
{"3": {"label": "acceptor", "atom_type": "O2s"}, "11": {"label": "a_hydrogen", "atom_type": "H0"}}

>  <type>  (3) 
r2h

$$$$

     RDKit          3D

 22 20  0  0  0  0  0  0  0  0999 V2000
   -1.5016    0.9897    2.4111 C   0  0  0  0  0  0  0  0  0  0  0  0
   -1.4000   -0.1163    1.3711 C   0  0  0  0  0  0  0  0  0  0  0  0
   -1.2673    0.4112   -0.0524 C   0  0  0  0  0  0  0  0  0  0  0  0
   -0.1847    1.2656   -0.2532 O   0  0  0  0  0  0  0  0  0  0  0  0
   -2.3877    1.6058    2.2398 H   0  0  0  0  0  0  0  0  0  0  0  0
   -1.5687    0.5790    3.4196 H   0  0  0  0  0  0  0  0  0  0  0  0
   -0.6301    1.6432    2.3643 H   0  0  0  0  0  0  0  0  0  0  0  0
   -0.5381   -0.7548    1.5893 H   0  0  0  0  0  0  0  0  0  0  0  0
   -2.2821   -0.7624    1.4143 H   0  0  0  0  0  0  0  0  0  0  0  0
   -1.2540   -0.4244   -0.7672 H   0  0  0  0  0  0  0  0  0  0  0  0
   -2.1485    1.0182   -0.3043 H   0  0  0  0  0  0  0  0  0  0  0  0
    1.8405   -0.1963    0.0079 C   0  0  0  0  0  3  0  0  0  0  0  0
    1.5275   -1.4374   -0.7836 C   0  0  0  0  0  0  0  0  0  0  0  0
    1.3429   -1.1632   -2.2707 C   0  0  0  0  0  0  0  0  0  0  0  0
    0.8607    0.5956   -0.0984 H   0  0  0  0  0  0  0  0  0  0  0  0
    2.6535    0.4066   -0.3977 H   0  0  0  0  0  0  0  0  0  0  0  0
    1.9473   -0.3465    1.0810 H   0  0  0  0  0  0  0  0  0  0  0  0
    0.6305   -1.9141   -0.3763 H   0  0  0  0  0  0  0  0  0  0  0  0
    2.3384   -2.1618   -0.6394 H   0  0  0  0  0  0  0  0  0  0  0  0
    2.2560   -0.7509   -2.7056 H   0  0  0  0  0  0  0  0  0  0  0  0
    1.0937   -2.0754   -2.8143 H   0  0  0  0  0  0  0  0  0  0  0  0
    0.5447   -0.4365   -2.4333 H   0  0  0  0  0  0  0  0  0  0  0  0
  1  2  1  0
  1  5  1  0
  1  6  1  0
  1  7  1  0
  2  3  1  0
  2  8  1  0
  2  9  1  0
  3  4  1  0
  3 10  1  0
  3 11  1  0
  4 15  1  0
 12 13  1  0
 12 16  1  0
 12 17  1  0
 13 14  1  0
 13 18  1  0
 13 19  1  0
 14 20  1  0
 14 21  1  0
 14 22  1  0
M  RAD  1  12   2
M  END
>  <reaction>  (4) 
rmg_rxn_512

>  <mol_properties>  (4) 
{"2": {"label": "*0", "atom_type": "Cs"}, "3": {"label": "*1", "atom_type": "O2s"}, "11": {"label": "*3", "atom_type": "Cs"}, "12": {"label": "*4", "atom_type": "Cs"}, "14": {"label": "*2", "atom_type": "H0"}}

>  <type>  (4) 
ts

$$$$

     RDKit          3D

 22 20  0  0  0  0  0  0  0  0999 V2000
    0.3409    1.9103    1.6455 C   0  0  0  0  0  0  0  0  0  0  0  0
   -0.8593    0.9738    1.6594 C   0  0  0  0  0  0  0  0  0  0  0  0
   -1.6755    1.0242    0.3762 C   0  0  0  0  0  0  0  0  0  0  0  0
   -0.9368    0.6509   -0.7715 O   0  0  0  0  0  0  0  0  0  0  0  0
    0.0202    2.9497    1.5441 H   0  0  0  0  0  0  0  0  0  0  0  0
    0.9192    1.8260    2.5667 H   0  0  0  0  0  0  0  0  0  0  0  0
    0.9998    1.6846    0.8065 H   0  0  0  0  0  0  0  0  0  0  0  0
   -0.5277   -0.0573    1.8282 H   0  0  0  0  0  0  0  0  0  0  0  0
   -1.5217    1.2206    2.4946 H   0  0  0  0  0  0  0  0  0  0  0  0
   -2.5715    0.3992    0.4792 H   0  0  0  0  0  0  0  0  0  0  0  0
   -2.0103    2.0466    0.1876 H   0  0  0  0  0  0  0  0  0  0  0  0
    1.0489   -0.6074   -0.0413 C   0  0  0  0  0  3  0  0  0  0  0  0
    1.0489   -2.0132   -0.6280 C   0  0  0  0  0  0  0  0  0  0  0  0
    1.0489   -2.0132   -2.1513 C   0  0  0  0  0  0  0  0  0  0  0  0
   -0.0089    0.0629   -0.4302 H   0  0  0  0  0  0  0  0  0  0  0  0
    1.9303   -0.0489   -0.3654 H   0  0  0  0  0  0  0  0  0  0  0  0
    1.0489   -0.6281    1.0498 H   0  0  0  0  0  0  0  0  0  0  0  0
    0.1743   -2.5596   -0.2640 H   0  0  0  0  0  0  0  0  0  0  0  0
    1.9234   -2.5596   -0.2640 H   0  0  0  0  0  0  0  0  0  0  0  0
    1.9303   -1.4990   -2.5419 H   0  0  0  0  0  0  0  0  0  0  0  0
    1.0489   -3.0281   -2.5525 H   0  0  0  0  0  0  0  0  0  0  0  0
    0.1674   -1.4990   -2.5419 H   0  0  0  0  0  0  0  0  0  0  0  0
  1  2  1  0
  1  5  1  0
  1  6  1  0
  1  7  1  0
  2  3  1  0
  2  8  1  0
  2  9  1  0
  3  4  1  0
  3 10  1  0
  3 11  1  0
  4 15  1  0
 12 13  1  0
 12 16  1  0
 12 17  1  0
 13 14  1  0
 13 18  1  0
 13 19  1  0
 14 20  1  0
 14 21  1  0
 14 22  1  0
M  RAD  1  12   2
M  END
>  <reaction>  (5) 
rmg_rxn_512

>  <mol_properties>  (5) 
{"2": {"label": "*0", "atom_type": "Cs"}, "3": {"label": "*1", "atom_type": "O2s"}, "11": {"label": "*3", "atom_type": "Cs"}, "12": {"label": "*4", "atom_type": "Cs"}, "14": {"label": "*2", "atom_type": "H0"}}

>  <type>  (5) 
unop_1

>  <geom_source>  (5) 
Heuristics

$$$$

     RDKit          3D

 22 20  0  0  0  0  0  0  0  0999 V2000
   -1.7169    0.1098    1.9191 C   0  0  0  0  0  0  0  0  0  0  0  0
   -1.4791   -0.4495    0.5232 C   0  0  0  0  0  0  0  0  0  0  0  0
   -1.3958    0.6269   -0.5491 C   0  0  0  0  0  0  0  0  0  0  0  0
   -0.3384    1.5437   -0.3402 O   0  0  0  0  0  0  0  0  0  0  0  0
   -2.6692    0.6430    1.9658 H   0  0  0  0  0  0  0  0  0  0  0  0
   -1.7406   -0.6857    2.6652 H   0  0  0  0  0  0  0  0  0  0  0  0
   -0.9307    0.8134    2.1945 H   0  0  0  0  0  0  0  0  0  0  0  0
   -0.5540   -1.0373    0.5080 H   0  0  0  0  0  0  0  0  0  0  0  0
   -2.2827   -1.1404    0.2509 H   0  0  0  0  0  0  0  0  0  0  0  0
   -1.3137    0.1613   -1.5393 H   0  0  0  0  0  0  0  0  0  0  0  0
   -2.3079    1.2279   -0.5452 H   0  0  0  0  0  0  0  0  0  0  0  0
    1.6473    0.2854    0.3899 C   0  0  0  0  0  3  0  0  0  0  0  0
    1.6473   -1.1205   -0.1968 C   0  0  0  0  0  0  0  0  0  0  0  0
    1.6473   -1.1205   -1.7201 C   0  0  0  0  0  0  0  0  0  0  0  0
    0.5895    0.9556    0.0010 H   0  0  0  0  0  0  0  0  0  0  0  0
    2.5287    0.8439    0.0658 H   0  0  0  0  0  0  0  0  0  0  0  0
    1.6473    0.2647    1.4811 H   0  0  0  0  0  0  0  0  0  0  0  0
    0.7727   -1.6668    0.1672 H   0  0  0  0  0  0  0  0  0  0  0  0
    2.5218   -1.6668    0.1672 H   0  0  0  0  0  0  0  0  0  0  0  0
    2.5287   -0.6062   -2.1107 H   0  0  0  0  0  0  0  0  0  0  0  0
    1.6473   -2.1354   -2.1213 H   0  0  0  0  0  0  0  0  0  0  0  0
    0.7658   -0.6062   -2.1107 H   0  0  0  0  0  0  0  0  0  0  0  0
  1  2  1  0
  1  5  1  0
  1  6  1  0
  1  7  1  0
  2  3  1  0
  2  8  1  0
  2  9  1  0
  3  4  1  0
  3 10  1  0
  3 11  1  0
  4 15  1  0
 12 13  1  0
 12 16  1  0
 12 17  1  0
 13 14  1  0
 13 18  1  0
 13 19  1  0
 14 20  1  0
 14 21  1  0
 14 22  1  0
M  RAD  1  12   2
M  END
>  <reaction>  (6) 
rmg_rxn_512

>  <mol_properties>  (6) 
{"2": {"label": "*0", "atom_type": "Cs"}, "3": {"label": "*1", "atom_type": "O2s"}, "11": {"label": "*3", "atom_type": "Cs"}, "12": {"label": "*4", "atom_type": "Cs"}, "14": {"label": "*2", "atom_type": "H0"}}

>  <type>  (6) 
unop_2

>  <geom_source>  (6) 
Heuristics

$$$$

     RDKit          3D

 22 20  0  0  0  0  0  0  0  0999 V2000
    0.7048    2.4311    0.4971 C   0  0  0  0  0  0  0  0  0  0  0  0
   -0.3279    1.7116    1.3537 C   0  0  0  0  0  0  0  0  0  0  0  0
   -1.5302    1.2215    0.5603 C   0  0  0  0  0  0  0  0  0  0  0  0
   -1.1909    0.2951   -0.4541 O   0  0  0  0  0  0  0  0  0  0  0  0
    0.2736    3.3240    0.0387 H   0  0  0  0  0  0  0  0  0  0  0  0
    1.5652    2.7412    1.0918 H   0  0  0  0  0  0  0  0  0  0  0  0
    1.0597    1.7857   -0.3069 H   0  0  0  0  0  0  0  0  0  0  0  0
    0.1354    0.8565    1.8595 H   0  0  0  0  0  0  0  0  0  0  0  0
   -0.6894    2.3740    2.1461 H   0  0  0  0  0  0  0  0  0  0  0  0
   -2.2767    0.7930    1.2409 H   0  0  0  0  0  0  0  0  0  0  0  0
   -2.0024    2.0599    0.0435 H   0  0  0  0  0  0  0  0  0  0  0  0
    0.7947   -0.9632    0.2761 C   0  0  0  0  0  3  0  0  0  0  0  0
    0.7947   -2.3690   -0.3106 C   0  0  0  0  0  0  0  0  0  0  0  0
    0.7947   -2.3690   -1.8339 C   0  0  0  0  0  0  0  0  0  0  0  0
   -0.2630   -0.2929   -0.1128 H   0  0  0  0  0  0  0  0  0  0  0  0
    1.6762   -0.4046   -0.0480 H   0  0  0  0  0  0  0  0  0  0  0  0
    0.7947   -0.9838    1.3672 H   0  0  0  0  0  0  0  0  0  0  0  0
   -0.0798   -2.9153    0.0534 H   0  0  0  0  0  0  0  0  0  0  0  0
    1.6692   -2.9153    0.0534 H   0  0  0  0  0  0  0  0  0  0  0  0
    1.6762   -1.8547   -2.2245 H   0  0  0  0  0  0  0  0  0  0  0  0
    0.7947   -3.3839   -2.2351 H   0  0  0  0  0  0  0  0  0  0  0  0
   -0.0867   -1.8547   -2.2245 H   0  0  0  0  0  0  0  0  0  0  0  0
  1  2  1  0
  1  5  1  0
  1  6  1  0
  1  7  1  0
  2  3  1  0
  2  8  1  0
  2  9  1  0
  3  4  1  0
  3 10  1  0
  3 11  1  0
  4 15  1  0
 12 13  1  0
 12 16  1  0
 12 17  1  0
 13 14  1  0
 13 18  1  0
 13 19  1  0
 14 20  1  0
 14 21  1  0
 14 22  1  0
M  RAD  1  12   2
M  END
>  <reaction>  (7) 
rmg_rxn_512

>  <mol_properties>  (7) 
{"2": {"label": "*0", "atom_type": "Cs"}, "3": {"label": "*1", "atom_type": "O2s"}, "11": {"label": "*3", "atom_type": "Cs"}, "12": {"label": "*4", "atom_type": "Cs"}, "14": {"label": "*2", "atom_type": "H0"}}

>  <type>  (7) 
unop_3

>  <geom_source>  (7) 
Heuristics

$$$$

     RDKit          3D

 22 20  0  0  0  0  0  0  0  0999 V2000
   -2.7046    0.2787   -0.8998 C   0  0  0  0  0  0  0  0  0  0  0  0
   -1.2314    0.2022   -1.2762 C   0  0  0  0  0  0  0  0  0  0  0  0
   -0.3825    1.2685   -0.5999 C   0  0  0  0  0  0  0  0  0  0  0  0
   -0.4012    1.1856    0.8125 O   0  0  0  0  0  0  0  0  0  0  0  0
   -3.1346    1.2340   -1.2094 H   0  0  0  0  0  0  0  0  0  0  0  0
   -3.2770   -0.5175   -1.3779 H   0  0  0  0  0  0  0  0  0  0  0  0
   -2.8345    0.1923    0.1794 H   0  0  0  0  0  0  0  0  0  0  0  0
   -0.8304   -0.7853   -1.0201 H   0  0  0  0  0  0  0  0  0  0  0  0
   -1.1119    0.3072   -2.3588 H   0  0  0  0  0  0  0  0  0  0  0  0
    0.6471    1.2198   -0.9763 H   0  0  0  0  0  0  0  0  0  0  0  0
   -0.7710    2.2610   -0.8389 H   0  0  0  0  0  0  0  0  0  0  0  0
    1.5845   -0.0727    1.5427 C   0  0  0  0  0  3  0  0  0  0  0  0
    1.5845   -1.4785    0.9560 C   0  0  0  0  0  0  0  0  0  0  0  0
    1.5845   -1.4785   -0.5673 C   0  0  0  0  0  0  0  0  0  0  0  0
    0.5268    0.5976    1.1538 H   0  0  0  0  0  0  0  0  0  0  0  0
    2.4660    0.4859    1.2186 H   0  0  0  0  0  0  0  0  0  0  0  0
    1.5845   -0.0934    2.6338 H   0  0  0  0  0  0  0  0  0  0  0  0
    0.7100   -2.0249    1.3200 H   0  0  0  0  0  0  0  0  0  0  0  0
    2.4590   -2.0249    1.3200 H   0  0  0  0  0  0  0  0  0  0  0  0
    2.4659   -0.9643   -0.9580 H   0  0  0  0  0  0  0  0  0  0  0  0
    1.5845   -2.4934   -0.9685 H   0  0  0  0  0  0  0  0  0  0  0  0
    0.7030   -0.9643   -0.9580 H   0  0  0  0  0  0  0  0  0  0  0  0
  1  2  1  0
  1  5  1  0
  1  6  1  0
  1  7  1  0
  2  3  1  0
  2  8  1  0
  2  9  1  0
  3  4  1  0
  3 10  1  0
  3 11  1  0
  4 15  1  0
 12 13  1  0
 12 16  1  0
 12 17  1  0
 13 14  1  0
 13 18  1  0
 13 19  1  0
 14 20  1  0
 14 21  1  0
 14 22  1  0
M  RAD  1  12   2
M  END
>  <reaction>  (8) 
rmg_rxn_512

>  <mol_properties>  (8) 
{"2": {"label": "*0", "atom_type": "Cs"}, "3": {"label": "*1", "atom_type": "O2s"}, "11": {"label": "*3", "atom_type": "Cs"}, "12": {"label": "*4", "atom_type": "Cs"}, "14": {"label": "*2", "atom_type": "H0"}}

>  <type>  (8) 
unop_4

>  <geom_source>  (8) 
Heuristics

$$$$

     RDKit          3D

 22 20  0  0  0  0  0  0  0  0999 V2000
    0.0986    2.4550   -1.1963 C   0  0  0  0  0  0  0  0  0  0  0  0
    0.0503    2.2174    0.3067 C   0  0  0  0  0  0  0  0  0  0  0  0
   -1.1637    1.4138    0.7491 C   0  0  0  0  0  0  0  0  0  0  0  0
   -1.2183    0.1215    0.1752 O   0  0  0  0  0  0  0  0  0  0  0  0
   -0.7690    3.0314   -1.5256 H   0  0  0  0  0  0  0  0  0  0  0  0
    0.9957    3.0067   -1.4810 H   0  0  0  0  0  0  0  0  0  0  0  0
    0.0923    1.5093   -1.7392 H   0  0  0  0  0  0  0  0  0  0  0  0
    0.9581    1.6967    0.6328 H   0  0  0  0  0  0  0  0  0  0  0  0
    0.0396    3.1727    0.8402 H   0  0  0  0  0  0  0  0  0  0  0  0
   -1.1911    1.3517    1.8442 H   0  0  0  0  0  0  0  0  0  0  0  0
   -2.0794    1.9147    0.4273 H   0  0  0  0  0  0  0  0  0  0  0  0
    0.7673   -1.1368    0.9054 C   0  0  0  0  0  3  0  0  0  0  0  0
    0.7673   -2.5426    0.3187 C   0  0  0  0  0  0  0  0  0  0  0  0
    0.7673   -2.5426   -1.2046 C   0  0  0  0  0  0  0  0  0  0  0  0
   -0.2904   -0.4665    0.5164 H   0  0  0  0  0  0  0  0  0  0  0  0
    1.6488   -0.5782    0.5813 H   0  0  0  0  0  0  0  0  0  0  0  0
    0.7673   -1.1575    1.9965 H   0  0  0  0  0  0  0  0  0  0  0  0
   -0.1072   -3.0889    0.6827 H   0  0  0  0  0  0  0  0  0  0  0  0
    1.6419   -3.0889    0.6827 H   0  0  0  0  0  0  0  0  0  0  0  0
    1.6488   -2.0283   -1.5953 H   0  0  0  0  0  0  0  0  0  0  0  0
    0.7673   -3.5575   -1.6058 H   0  0  0  0  0  0  0  0  0  0  0  0
   -0.1141   -2.0283   -1.5953 H   0  0  0  0  0  0  0  0  0  0  0  0
  1  2  1  0
  1  5  1  0
  1  6  1  0
  1  7  1  0
  2  3  1  0
  2  8  1  0
  2  9  1  0
  3  4  1  0
  3 10  1  0
  3 11  1  0
  4 15  1  0
 12 13  1  0
 12 16  1  0
 12 17  1  0
 13 14  1  0
 13 18  1  0
 13 19  1  0
 14 20  1  0
 14 21  1  0
 14 22  1  0
M  RAD  1  12   2
M  END
>  <reaction>  (9) 
rmg_rxn_512

>  <mol_properties>  (9) 
{"2": {"label": "*0", "atom_type": "Cs"}, "3": {"label": "*1", "atom_type": "O2s"}, "11": {"label": "*3", "atom_type": "Cs"}, "12": {"label": "*4", "atom_type": "Cs"}, "14": {"label": "*2", "atom_type": "H0"}}

>  <type>  (9) 
unop_5

>  <geom_source>  (9) 
Heuristics

$$$$

     RDKit          3D

 22 20  0  0  0  0  0  0  0  0999 V2000
   -2.3974    0.8036   -1.4765 C   0  0  0  0  0  0  0  0  0  0  0  0
   -0.8761    0.8563   -1.5061 C   0  0  0  0  0  0  0  0  0  0  0  0
   -0.2736    1.5117   -0.2722 C   0  0  0  0  0  0  0  0  0  0  0  0
   -0.5903    0.8369    0.9306 O   0  0  0  0  0  0  0  0  0  0  0  0
   -2.8194    1.8107   -1.4453 H   0  0  0  0  0  0  0  0  0  0  0  0
   -2.7931    0.3011   -2.3603 H   0  0  0  0  0  0  0  0  0  0  0  0
   -2.7502    0.2702   -0.5934 H   0  0  0  0  0  0  0  0  0  0  0  0
   -0.4683   -0.1565   -1.6043 H   0  0  0  0  0  0  0  0  0  0  0  0
   -0.5341    1.4083   -2.3867 H   0  0  0  0  0  0  0  0  0  0  0  0
    0.8136    1.6010   -0.3905 H   0  0  0  0  0  0  0  0  0  0  0  0
   -0.6733    2.5213   -0.1540 H   0  0  0  0  0  0  0  0  0  0  0  0
    1.3953   -0.4214    1.6608 C   0  0  0  0  0  3  0  0  0  0  0  0
    1.3953   -1.8272    1.0740 C   0  0  0  0  0  0  0  0  0  0  0  0
    1.3953   -1.8272   -0.4493 C   0  0  0  0  0  0  0  0  0  0  0  0
    0.3376    0.2489    1.2718 H   0  0  0  0  0  0  0  0  0  0  0  0
    2.2768    0.1372    1.3366 H   0  0  0  0  0  0  0  0  0  0  0  0
    1.3953   -0.4421    2.7519 H   0  0  0  0  0  0  0  0  0  0  0  0
    0.5208   -2.3736    1.4380 H   0  0  0  0  0  0  0  0  0  0  0  0
    2.2699   -2.3736    1.4380 H   0  0  0  0  0  0  0  0  0  0  0  0
    2.2768   -1.3129   -0.8399 H   0  0  0  0  0  0  0  0  0  0  0  0
    1.3953   -2.8421   -0.8505 H   0  0  0  0  0  0  0  0  0  0  0  0
    0.5139   -1.3130   -0.8399 H   0  0  0  0  0  0  0  0  0  0  0  0
  1  2  1  0
  1  5  1  0
  1  6  1  0
  1  7  1  0
  2  3  1  0
  2  8  1  0
  2  9  1  0
  3  4  1  0
  3 10  1  0
  3 11  1  0
  4 15  1  0
 12 13  1  0
 12 16  1  0
 12 17  1  0
 13 14  1  0
 13 18  1  0
 13 19  1  0
 14 20  1  0
 14 21  1  0
 14 22  1  0
M  RAD  1  12   2
M  END
>  <reaction>  (10) 
rmg_rxn_512

>  <mol_properties>  (10) 
{"2": {"label": "*0", "atom_type": "Cs"}, "3": {"label": "*1", "atom_type": "O2s"}, "11": {"label": "*3", "atom_type": "Cs"}, "12": {"label": "*4", "atom_type": "Cs"}, "14": {"label": "*2", "atom_type": "H0"}}

>  <type>  (10) 
unop_6

>  <geom_source>  (10) 
Heuristics

$$$$

     RDKit          3D

 22 20  0  0  0  0  0  0  0  0999 V2000
   -1.9595    1.3365   -1.7760 C   0  0  0  0  0  0  0  0  0  0  0  0
   -0.5109    1.5329   -1.3509 C   0  0  0  0  0  0  0  0  0  0  0  0
   -0.3380    1.6535    0.1560 C   0  0  0  0  0  0  0  0  0  0  0  0
   -0.7713    0.5064    0.8622 O   0  0  0  0  0  0  0  0  0  0  0  0
   -2.5698    2.1928   -1.4796 H   0  0  0  0  0  0  0  0  0  0  0  0
   -2.0425    1.2236   -2.8578 H   0  0  0  0  0  0  0  0  0  0  0  0
   -2.3851    0.4493   -1.3061 H   0  0  0  0  0  0  0  0  0  0  0  0
    0.1017    0.6987   -1.7123 H   0  0  0  0  0  0  0  0  0  0  0  0
   -0.0999    2.4349   -1.8144 H   0  0  0  0  0  0  0  0  0  0  0  0
    0.7085    1.8816    0.3943 H   0  0  0  0  0  0  0  0  0  0  0  0
   -0.9466    2.4771    0.5360 H   0  0  0  0  0  0  0  0  0  0  0  0
    1.2143   -0.7518    1.5924 C   0  0  0  0  0  3  0  0  0  0  0  0
    1.2143   -2.1577    1.0057 C   0  0  0  0  0  0  0  0  0  0  0  0
    1.2143   -2.1577   -0.5177 C   0  0  0  0  0  0  0  0  0  0  0  0
    0.1566   -0.0816    1.2034 H   0  0  0  0  0  0  0  0  0  0  0  0
    2.0958   -0.1933    1.2682 H   0  0  0  0  0  0  0  0  0  0  0  0
    1.2143   -0.7725    2.6835 H   0  0  0  0  0  0  0  0  0  0  0  0
    0.3398   -2.7040    1.3697 H   0  0  0  0  0  0  0  0  0  0  0  0
    2.0889   -2.7040    1.3697 H   0  0  0  0  0  0  0  0  0  0  0  0
    2.0958   -1.6434   -0.9083 H   0  0  0  0  0  0  0  0  0  0  0  0
    1.2143   -3.1726   -0.9188 H   0  0  0  0  0  0  0  0  0  0  0  0
    0.3329   -1.6434   -0.9083 H   0  0  0  0  0  0  0  0  0  0  0  0
  1  2  1  0
  1  5  1  0
  1  6  1  0
  1  7  1  0
  2  3  1  0
  2  8  1  0
  2  9  1  0
  3  4  1  0
  3 10  1  0
  3 11  1  0
  4 15  1  0
 12 13  1  0
 12 16  1  0
 12 17  1  0
 13 14  1  0
 13 18  1  0
 13 19  1  0
 14 20  1  0
 14 21  1  0
 14 22  1  0
M  RAD  1  12   2
M  END
>  <reaction>  (11) 
rmg_rxn_512

>  <mol_properties>  (11) 
{"2": {"label": "*0", "atom_type": "Cs"}, "3": {"label": "*1", "atom_type": "O2s"}, "11": {"label": "*3", "atom_type": "Cs"}, "12": {"label": "*4", "atom_type": "Cs"}, "14": {"label": "*2", "atom_type": "H0"}}

>  <type>  (11) 
unop_7

>  <geom_source>  (11) 
Heuristics

$$$$

     RDKit          3D

 22 20  0  0  0  0  0  0  0  0999 V2000
   -0.2679    1.2708    2.1690 C   0  0  0  0  0  0  0  0  0  0  0  0
   -1.2199    0.3024    1.4806 C   0  0  0  0  0  0  0  0  0  0  0  0
   -1.7221    0.8075    0.1361 C   0  0  0  0  0  0  0  0  0  0  0  0
   -0.6854    1.0261   -0.8019 O   0  0  0  0  0  0  0  0  0  0  0  0
   -0.7665    2.2194    2.3811 H   0  0  0  0  0  0  0  0  0  0  0  0
    0.0953    0.8640    3.1139 H   0  0  0  0  0  0  0  0  0  0  0  0
    0.5933    1.4848    1.5355 H   0  0  0  0  0  0  0  0  0  0  0  0
   -0.7276   -0.6660    1.3341 H   0  0  0  0  0  0  0  0  0  0  0  0
   -2.0881    0.1086    2.1178 H   0  0  0  0  0  0  0  0  0  0  0  0
   -2.4688    0.1125   -0.2682 H   0  0  0  0  0  0  0  0  0  0  0  0
   -2.2112    1.7761    0.2611 H   0  0  0  0  0  0  0  0  0  0  0  0
    1.3002   -0.2322   -0.0717 C   0  0  0  0  0  3  0  0  0  0  0  0
    1.3002   -1.6380   -0.6584 C   0  0  0  0  0  0  0  0  0  0  0  0
    1.3002   -1.6380   -2.1817 C   0  0  0  0  0  0  0  0  0  0  0  0
    0.2425    0.4381   -0.4607 H   0  0  0  0  0  0  0  0  0  0  0  0
    2.1817    0.3263   -0.3958 H   0  0  0  0  0  0  0  0  0  0  0  0
    1.3002   -0.2529    1.0194 H   0  0  0  0  0  0  0  0  0  0  0  0
    0.4257   -2.1844   -0.2944 H   0  0  0  0  0  0  0  0  0  0  0  0
    2.1748   -2.1844   -0.2944 H   0  0  0  0  0  0  0  0  0  0  0  0
    2.1817   -1.1238   -2.5724 H   0  0  0  0  0  0  0  0  0  0  0  0
    1.3002   -2.6529   -2.5829 H   0  0  0  0  0  0  0  0  0  0  0  0
    0.4188   -1.1238   -2.5724 H   0  0  0  0  0  0  0  0  0  0  0  0
  1  2  1  0
  1  5  1  0
  1  6  1  0
  1  7  1  0
  2  3  1  0
  2  8  1  0
  2  9  1  0
  3  4  1  0
  3 10  1  0
  3 11  1  0
  4 15  1  0
 12 13  1  0
 12 16  1  0
 12 17  1  0
 13 14  1  0
 13 18  1  0
 13 19  1  0
 14 20  1  0
 14 21  1  0
 14 22  1  0
M  RAD  1  12   2
M  END
>  <reaction>  (12) 
rmg_rxn_512

>  <mol_properties>  (12) 
{"2": {"label": "*0", "atom_type": "Cs"}, "3": {"label": "*1", "atom_type": "O2s"}, "11": {"label": "*3", "atom_type": "Cs"}, "12": {"label": "*4", "atom_type": "Cs"}, "14": {"label": "*2", "atom_type": "H0"}}

>  <type>  (12) 
unop_8

>  <geom_source>  (12) 
Heuristics

$$$$

     RDKit          3D

 22 20  0  0  0  0  0  0  0  0999 V2000
   -2.7793   -0.1135    0.0276 C   0  0  0  0  0  0  0  0  0  0  0  0
   -1.4711   -0.2777   -0.7336 C   0  0  0  0  0  0  0  0  0  0  0  0
   -0.6412    0.9967   -0.7837 C   0  0  0  0  0  0  0  0  0  0  0  0
   -0.2605    1.4667    0.4955 O   0  0  0  0  0  0  0  0  0  0  0  0
   -3.4170    0.6314   -0.4539 H   0  0  0  0  0  0  0  0  0  0  0  0
   -3.3331   -1.0525    0.0696 H   0  0  0  0  0  0  0  0  0  0  0  0
   -2.5948    0.2204    1.0491 H   0  0  0  0  0  0  0  0  0  0  0  0
   -0.8706   -1.0740   -0.2787 H   0  0  0  0  0  0  0  0  0  0  0  0
   -1.6693   -0.5960   -1.7616 H   0  0  0  0  0  0  0  0  0  0  0  0
    0.2413    0.8424   -1.4172 H   0  0  0  0  0  0  0  0  0  0  0  0
   -1.2259    1.8046   -1.2292 H   0  0  0  0  0  0  0  0  0  0  0  0
    1.7251    0.2085    1.2256 C   0  0  0  0  0  3  0  0  0  0  0  0
    1.7251   -1.1974    0.6389 C   0  0  0  0  0  0  0  0  0  0  0  0
    1.7251   -1.1974   -0.8844 C   0  0  0  0  0  0  0  0  0  0  0  0
    0.6674    0.8787    0.8367 H   0  0  0  0  0  0  0  0  0  0  0  0
    2.6066    0.7670    0.9015 H   0  0  0  0  0  0  0  0  0  0  0  0
    1.7251    0.1878    2.3168 H   0  0  0  0  0  0  0  0  0  0  0  0
    0.8506   -1.7437    1.0029 H   0  0  0  0  0  0  0  0  0  0  0  0
    2.5997   -1.7437    1.0029 H   0  0  0  0  0  0  0  0  0  0  0  0
    2.6066   -0.6831   -1.2750 H   0  0  0  0  0  0  0  0  0  0  0  0
    1.7251   -2.2123   -1.2856 H   0  0  0  0  0  0  0  0  0  0  0  0
    0.8437   -0.6831   -1.2750 H   0  0  0  0  0  0  0  0  0  0  0  0
  1  2  1  0
  1  5  1  0
  1  6  1  0
  1  7  1  0
  2  3  1  0
  2  8  1  0
  2  9  1  0
  3  4  1  0
  3 10  1  0
  3 11  1  0
  4 15  1  0
 12 13  1  0
 12 16  1  0
 12 17  1  0
 13 14  1  0
 13 18  1  0
 13 19  1  0
 14 20  1  0
 14 21  1  0
 14 22  1  0
M  RAD  1  12   2
M  END
>  <reaction>  (13) 
rmg_rxn_512

>  <mol_properties>  (13) 
{"2": {"label": "*0", "atom_type": "Cs"}, "3": {"label": "*1", "atom_type": "O2s"}, "11": {"label": "*3", "atom_type": "Cs"}, "12": {"label": "*4", "atom_type": "Cs"}, "14": {"label": "*2", "atom_type": "H0"}}

>  <type>  (13) 
unop_9

>  <geom_source>  (13) 
Heuristics

$$$$

     RDKit          3D

 22 20  0  0  0  0  0  0  0  0999 V2000
   -0.9572    0.6407    2.2516 C   0  0  0  0  0  0  0  0  0  0  0  0
   -1.4008   -0.1854    1.0521 C   0  0  0  0  0  0  0  0  0  0  0  0
   -1.6413    0.6500   -0.1967 C   0  0  0  0  0  0  0  0  0  0  0  0
   -0.4880    1.3407   -0.6381 O   0  0  0  0  0  0  0  0  0  0  0  0
   -1.7261    1.3655    2.5287 H   0  0  0  0  0  0  0  0  0  0  0  0
   -0.7649    0.0073    3.1188 H   0  0  0  0  0  0  0  0  0  0  0  0
   -0.0464    1.1958    2.0251 H   0  0  0  0  0  0  0  0  0  0  0  0
   -0.6499   -0.9516    0.8269 H   0  0  0  0  0  0  0  0  0  0  0  0
   -2.3243   -0.7241    1.2850 H   0  0  0  0  0  0  0  0  0  0  0  0
   -2.0425    0.0164   -0.9977 H   0  0  0  0  0  0  0  0  0  0  0  0
   -2.3836    1.4241    0.0102 H   0  0  0  0  0  0  0  0  0  0  0  0
    1.4977    0.0825    0.0921 C   0  0  0  0  0  3  0  0  0  0  0  0
    1.4977   -1.3234   -0.4946 C   0  0  0  0  0  0  0  0  0  0  0  0
    1.4977   -1.3234   -2.0180 C   0  0  0  0  0  0  0  0  0  0  0  0
    0.4399    0.7527   -0.2969 H   0  0  0  0  0  0  0  0  0  0  0  0
    2.3791    0.6410   -0.2321 H   0  0  0  0  0  0  0  0  0  0  0  0
    1.4976    0.0618    1.1832 H   0  0  0  0  0  0  0  0  0  0  0  0
    0.6231   -1.8697   -0.1306 H   0  0  0  0  0  0  0  0  0  0  0  0
    2.3722   -1.8697   -0.1306 H   0  0  0  0  0  0  0  0  0  0  0  0
    2.3791   -0.8091   -2.4086 H   0  0  0  0  0  0  0  0  0  0  0  0
    1.4977   -2.3383   -2.4191 H   0  0  0  0  0  0  0  0  0  0  0  0
    0.6162   -0.8091   -2.4086 H   0  0  0  0  0  0  0  0  0  0  0  0
  1  2  1  0
  1  5  1  0
  1  6  1  0
  1  7  1  0
  2  3  1  0
  2  8  1  0
  2  9  1  0
  3  4  1  0
  3 10  1  0
  3 11  1  0
  4 15  1  0
 12 13  1  0
 12 16  1  0
 12 17  1  0
 13 14  1  0
 13 18  1  0
 13 19  1  0
 14 20  1  0
 14 21  1  0
 14 22  1  0
M  RAD  1  12   2
M  END
>  <reaction>  (14) 
rmg_rxn_512

>  <mol_properties>  (14) 
{"2": {"label": "*0", "atom_type": "Cs"}, "3": {"label": "*1", "atom_type": "O2s"}, "11": {"label": "*3", "atom_type": "Cs"}, "12": {"label": "*4", "atom_type": "Cs"}, "14": {"label": "*2", "atom_type": "H0"}}

>  <type>  (14) 
unop_10

>  <geom_source>  (14) 
Heuristics

$$$$

     RDKit          3D

 22 20  0  0  0  0  0  0  0  0999 V2000
   -1.2212    1.8840   -1.8696 C   0  0  0  0  0  0  0  0  0  0  0  0
   -0.1653    2.0712   -0.7889 C   0  0  0  0  0  0  0  0  0  0  0  0
   -0.6294    1.6216    0.5887 C   0  0  0  0  0  0  0  0  0  0  0  0
   -0.9668    0.2486    0.6446 O   0  0  0  0  0  0  0  0  0  0  0  0
   -2.1093    2.4815   -1.6513 H   0  0  0  0  0  0  0  0  0  0  0  0
   -0.8446    2.1876   -2.8474 H   0  0  0  0  0  0  0  0  0  0  0  0
   -1.5321    0.8407   -1.9319 H   0  0  0  0  0  0  0  0  0  0  0  0
    0.7439    1.5193   -1.0542 H   0  0  0  0  0  0  0  0  0  0  0  0
    0.1263    3.1239   -0.7236 H   0  0  0  0  0  0  0  0  0  0  0  0
    0.1361    1.8623    1.3371 H   0  0  0  0  0  0  0  0  0  0  0  0
   -1.5394    2.1572    0.8683 H   0  0  0  0  0  0  0  0  0  0  0  0
    1.0188   -1.0097    1.3748 C   0  0  0  0  0  3  0  0  0  0  0  0
    1.0188   -2.4155    0.7881 C   0  0  0  0  0  0  0  0  0  0  0  0
    1.0188   -2.4155   -0.7352 C   0  0  0  0  0  0  0  0  0  0  0  0
   -0.0389   -0.3394    0.9858 H   0  0  0  0  0  0  0  0  0  0  0  0
    1.9003   -0.4511    1.0507 H   0  0  0  0  0  0  0  0  0  0  0  0
    1.0188   -1.0304    2.4659 H   0  0  0  0  0  0  0  0  0  0  0  0
    0.1443   -2.9618    1.1521 H   0  0  0  0  0  0  0  0  0  0  0  0
    1.8933   -2.9618    1.1521 H   0  0  0  0  0  0  0  0  0  0  0  0
    1.9003   -1.9012   -1.1259 H   0  0  0  0  0  0  0  0  0  0  0  0
    1.0188   -3.4304   -1.1364 H   0  0  0  0  0  0  0  0  0  0  0  0
    0.1374   -1.9012   -1.1259 H   0  0  0  0  0  0  0  0  0  0  0  0
  1  2  1  0
  1  5  1  0
  1  6  1  0
  1  7  1  0
  2  3  1  0
  2  8  1  0
  2  9  1  0
  3  4  1  0
  3 10  1  0
  3 11  1  0
  4 15  1  0
 12 13  1  0
 12 16  1  0
 12 17  1  0
 13 14  1  0
 13 18  1  0
 13 19  1  0
 14 20  1  0
 14 21  1  0
 14 22  1  0
M  RAD  1  12   2
M  END
>  <reaction>  (15) 
rmg_rxn_512

>  <mol_properties>  (15) 
{"2": {"label": "*0", "atom_type": "Cs"}, "3": {"label": "*1", "atom_type": "O2s"}, "11": {"label": "*3", "atom_type": "Cs"}, "12": {"label": "*4", "atom_type": "Cs"}, "14": {"label": "*2", "atom_type": "H0"}}

>  <type>  (15) 
unop_11

>  <geom_source>  (15) 
Heuristics

$$$$

     RDKit          3D

 22 20  0  0  0  0  0  0  0  0999 V2000
   -2.4264   -0.1884    1.1149 C   0  0  0  0  0  0  0  0  0  0  0  0
   -1.5257   -0.4909   -0.0747 C   0  0  0  0  0  0  0  0  0  0  0  0
   -1.0172    0.7597   -0.7764 C   0  0  0  0  0  0  0  0  0  0  0  0
   -0.2426    1.5957    0.0622 O   0  0  0  0  0  0  0  0  0  0  0  0
   -3.3208    0.3518    0.7963 H   0  0  0  0  0  0  0  0  0  0  0  0
   -2.7472   -1.1053    1.6115 H   0  0  0  0  0  0  0  0  0  0  0  0
   -1.9083    0.4329    1.8460 H   0  0  0  0  0  0  0  0  0  0  0  0
   -0.6666   -1.0899    0.2490 H   0  0  0  0  0  0  0  0  0  0  0  0
   -2.0614   -1.0999   -0.8091 H   0  0  0  0  0  0  0  0  0  0  0  0
   -0.4501    0.4798   -1.6732 H   0  0  0  0  0  0  0  0  0  0  0  0
   -1.8603    1.3734   -1.1015 H   0  0  0  0  0  0  0  0  0  0  0  0
    1.7431    0.3374    0.7924 C   0  0  0  0  0  3  0  0  0  0  0  0
    1.7431   -1.0684    0.2057 C   0  0  0  0  0  0  0  0  0  0  0  0
    1.7431   -1.0684   -1.3177 C   0  0  0  0  0  0  0  0  0  0  0  0
    0.6854    1.0077    0.4034 H   0  0  0  0  0  0  0  0  0  0  0  0
    2.6246    0.8960    0.4682 H   0  0  0  0  0  0  0  0  0  0  0  0
    1.7431    0.3167    1.8835 H   0  0  0  0  0  0  0  0  0  0  0  0
    0.8686   -1.6147    0.5697 H   0  0  0  0  0  0  0  0  0  0  0  0
    2.6176   -1.6147    0.5697 H   0  0  0  0  0  0  0  0  0  0  0  0
    2.6246   -0.5541   -1.7083 H   0  0  0  0  0  0  0  0  0  0  0  0
    1.7431   -2.0833   -1.7188 H   0  0  0  0  0  0  0  0  0  0  0  0
    0.8616   -0.5541   -1.7083 H   0  0  0  0  0  0  0  0  0  0  0  0
  1  2  1  0
  1  5  1  0
  1  6  1  0
  1  7  1  0
  2  3  1  0
  2  8  1  0
  2  9  1  0
  3  4  1  0
  3 10  1  0
  3 11  1  0
  4 15  1  0
 12 13  1  0
 12 16  1  0
 12 17  1  0
 13 14  1  0
 13 18  1  0
 13 19  1  0
 14 20  1  0
 14 21  1  0
 14 22  1  0
M  RAD  1  12   2
M  END
>  <reaction>  (16) 
rmg_rxn_512

>  <mol_properties>  (16) 
{"2": {"label": "*0", "atom_type": "Cs"}, "3": {"label": "*1", "atom_type": "O2s"}, "11": {"label": "*3", "atom_type": "Cs"}, "12": {"label": "*4", "atom_type": "Cs"}, "14": {"label": "*2", "atom_type": "H0"}}

>  <type>  (16) 
unop_12

>  <geom_source>  (16) 
Heuristics

$$$$

     RDKit          3D

 22 20  0  0  0  0  0  0  0  0999 V2000
    0.4951    0.2248    0.0294 O   0  0  0  0  0  0  0  0  0  0  0  0
    2.5832    0.2989   -1.1568 C   0  0  0  0  0  0  0  0  0  0  0  0
   -2.8976   -0.6763    0.8364 C   0  0  0  0  0  0  0  0  0  0  0  0
    1.4959   -0.5752   -0.5313 C   0  0  0  0  0  0  0  0  0  0  0  0
    3.3257    1.1222   -0.1064 C   0  0  0  0  0  0  0  0  0  0  0  0
   -3.1598    0.7980    0.5540 C   0  0  0  0  0  0  0  0  0  0  0  0
   -1.4895   -1.0655    0.4082 C   0  0  0  0  0  3  0  0  0  0  0  0
    2.1267    0.9812   -1.9064 H   0  0  0  0  0  0  0  0  0  0  0  0
    3.3129   -0.3537   -1.6832 H   0  0  0  0  0  0  0  0  0  0  0  0
   -3.6378   -1.2983    0.2884 H   0  0  0  0  0  0  0  0  0  0  0  0
   -3.0112   -0.8653    1.9253 H   0  0  0  0  0  0  0  0  0  0  0  0
    1.0501   -1.2182   -1.3208 H   0  0  0  0  0  0  0  0  0  0  0  0
    1.9367   -1.2308    0.2513 H   0  0  0  0  0  0  0  0  0  0  0  0
    2.6275    1.8151    0.4094 H   0  0  0  0  0  0  0  0  0  0  0  0
    4.1191    1.7228   -0.5991 H   0  0  0  0  0  0  0  0  0  0  0  0
    3.8008    0.4540    0.6431 H   0  0  0  0  0  0  0  0  0  0  0  0
   -3.0770    1.0032   -0.5347 H   0  0  0  0  0  0  0  0  0  0  0  0
   -2.4302    1.4307    1.1035 H   0  0  0  0  0  0  0  0  0  0  0  0
   -4.1847    1.0639    0.8885 H   0  0  0  0  0  0  0  0  0  0  0  0
   -1.2880   -2.1220    0.6841 H   0  0  0  0  0  0  0  0  0  0  0  0
   -1.3710   -0.9475   -0.6901 H   0  0  0  0  0  0  0  0  0  0  0  0
   -0.3269   -0.5623    0.5072 H   0  0  0  0  0  0  0  0  0  0  0  0
  1  4  1  0
  1 22  1  0
  2  5  1  0
  2  4  1  0
  2  8  1  0
  2  9  1  0
  3  7  1  0
  3  6  1  0
  3 10  1  0
  3 11  1  0
  4 12  1  0
  4 13  1  0
  5 14  1  0
  5 15  1  0
  5 16  1  0
  6 17  1  0
  6 18  1  0
  6 19  1  0
  7 20  1  0
  7 21  1  0
M  RAD  1   7   2
M  END
>  <reaction>  (17) 
rmg_rxn_512

>  <mol_properties>  (17) 
{"2": {"label": "*0", "atom_type": "Cs"}, "3": {"label": "*1", "atom_type": "O2s"}, "11": {"label": "*3", "atom_type": "Cs"}, "12": {"label": "*4", "atom_type": "Cs"}, "14": {"label": "*2", "atom_type": "H0"}}

>  <type>  (17) 
unop_13

>  <geom_source>  (17) 
AutoTST

$$$$

     RDKit          3D

 22 20  0  0  0  0  0  0  0  0999 V2000
   -1.7169    0.1098    1.9191 C   0  0  0  0  0  0  0  0  0  0  0  0
   -1.4791   -0.4495    0.5232 C   0  0  0  0  0  0  0  0  0  0  0  0
   -1.3958    0.6269   -0.5491 C   0  0  0  0  0  0  0  0  0  0  0  0
   -0.3384    1.5436   -0.3402 O   0  0  0  0  0  0  0  0  0  0  0  0
   -2.6692    0.6430    1.9658 H   0  0  0  0  0  0  0  0  0  0  0  0
   -1.7407   -0.6856    2.6652 H   0  0  0  0  0  0  0  0  0  0  0  0
   -0.9307    0.8134    2.1945 H   0  0  0  0  0  0  0  0  0  0  0  0
   -0.5540   -1.0373    0.5080 H   0  0  0  0  0  0  0  0  0  0  0  0
   -2.2827   -1.1404    0.2509 H   0  0  0  0  0  0  0  0  0  0  0  0
   -1.3137    0.1613   -1.5393 H   0  0  0  0  0  0  0  0  0  0  0  0
   -2.3079    1.2279   -0.5453 H   0  0  0  0  0  0  0  0  0  0  0  0
    1.6473    0.2854    0.3899 C   0  0  0  0  0  3  0  0  0  0  0  0
    1.6473   -1.1204   -0.1968 C   0  0  0  0  0  0  0  0  0  0  0  0
    1.6473   -1.1204   -1.7201 C   0  0  0  0  0  0  0  0  0  0  0  0
    0.5895    0.9556    0.0010 H   0  0  0  0  0  0  0  0  0  0  0  0
    2.5287    0.8439    0.0658 H   0  0  0  0  0  0  0  0  0  0  0  0
    1.6473    0.2647    1.4810 H   0  0  0  0  0  0  0  0  0  0  0  0
    0.7727   -1.6668    0.1672 H   0  0  0  0  0  0  0  0  0  0  0  0
    2.5218   -1.6668    0.1672 H   0  0  0  0  0  0  0  0  0  0  0  0
    2.5287   -0.6062   -2.1107 H   0  0  0  0  0  0  0  0  0  0  0  0
    1.6473   -2.1353   -2.1213 H   0  0  0  0  0  0  0  0  0  0  0  0
    0.7658   -0.6062   -2.1107 H   0  0  0  0  0  0  0  0  0  0  0  0
  1  2  1  0
  1  5  1  0
  1  6  1  0
  1  7  1  0
  2  3  1  0
  2  8  1  0
  2  9  1  0
  3  4  1  0
  3 10  1  0
  3 11  1  0
  4 15  1  0
 12 13  1  0
 12 16  1  0
 12 17  1  0
 13 14  1  0
 13 18  1  0
 13 19  1  0
 14 20  1  0
 14 21  1  0
 14 22  1  0
M  RAD  1  12   2
M  END
>  <reaction>  (18) 
rmg_rxn_512

>  <mol_properties>  (18) 
{"2": {"label": "*0", "atom_type": "Cs"}, "3": {"label": "*1", "atom_type": "O2s"}, "11": {"label": "*3", "atom_type": "Cs"}, "12": {"label": "*4", "atom_type": "Cs"}, "14": {"label": "*2", "atom_type": "H0"}}

>  <type>  (18) 
unop_14

>  <geom_source>  (18) 
gaussian_log

$$$$
