
     RDKit          3D

  9  8  0  0  0  0  0  0  0  0999 V2000
   -1.0434   -0.0834    0.0221 C   0  0  0  0  0  0  0  0  0  0  0  0
    0.4680   -0.2131    0.0785 C   0  0  0  0  0  0  0  0  0  0  0  0
    0.9450   -1.3136   -0.7058 N   0  0  0  0  0  2  0  0  0  0  0  0
   -1.5170   -0.9919    0.3960 H   0  0  0  0  0  0  0  0  0  0  0  0
   -1.3864    0.7592    0.6249 H   0  0  0  0  0  0  0  0  0  0  0  0
   -1.3736    0.0696   -1.0061 H   0  0  0  0  0  0  0  0  0  0  0  0
    0.8045   -0.3309    1.1214 H   0  0  0  0  0  0  0  0  0  0  0  0
    0.9463    0.7186   -0.2648 H   0  0  0  0  0  0  0  0  0  0  0  0
    1.9638   -1.3321   -0.6157 H   0  0  0  0  0  0  0  0  0  0  0  0
  1  2  1  0
  1  4  1  0
  1  5  1  0
  1  6  1  0
  2  3  1  0
  2  7  1  0
  2  8  1  0
  3  9  1  0
M  RAD  1   3   2
M  END
>  <reaction>  (1) 
rmg_rxn_16484

>  <mol_properties>  (1) 
{"2": {"label": "donator", "atom_type": "N3s"}, "8": {"label": "d_hydrogen", "atom_type": "H0"}}

>  <type>  (1) 
r1h

$$$$

     RDKit          3D

  7  6  0  0  0  0  0  0  0  0999 V2000
   -0.6441   -0.1356    0.0624 C   0  0  0  0  0  0  0  0  0  0  0  0
    0.8523    0.0148   -0.0333 C   0  0  0  0  0  0  0  0  0  0  0  0
    1.6700   -0.6077    0.6603 N   0  0  0  0  0  2  0  0  0  0  0  0
   -1.0940    0.8275    0.3091 H   0  0  0  0  0  0  0  0  0  0  0  0
   -0.9104   -0.8656    0.8237 H   0  0  0  0  0  0  0  0  0  0  0  0
   -1.0427   -0.4545   -0.9022 H   0  0  0  0  0  0  0  0  0  0  0  0
    1.2362    0.7308   -0.7748 H   0  0  0  0  0  0  0  0  0  0  0  0
  1  2  1  0
  1  4  1  0
  1  5  1  0
  1  6  1  0
  2  3  2  0
  2  7  1  0
M  RAD  1   3   2
M  END
>  <reaction>  (2) 
rmg_rxn_16484

>  <mol_properties>  (2) 
{"2": {"label": "acceptor", "atom_type": "N3d"}}

>  <type>  (2) 
r2

$$$$

     RDKit          3D

  8  7  0  0  0  0  0  0  0  0999 V2000
    0.9548    0.1194   -0.0790 C   0  0  0  0  0  0  0  0  0  0  0  0
   -0.4838   -0.2649    0.0193 C   0  0  0  0  0  0  0  0  0  0  0  0
   -0.8933   -1.1081    0.8664 N   0  0  0  0  0  0  0  0  0  0  0  0
    1.3360   -0.0983   -1.0800 H   0  0  0  0  0  0  0  0  0  0  0  0
    1.0698    1.1948    0.0786 H   0  0  0  0  0  0  0  0  0  0  0  0
    1.5426   -0.4219    0.6602 H   0  0  0  0  0  0  0  0  0  0  0  0
   -1.1575    0.2324   -0.6905 H   0  0  0  0  0  0  0  0  0  0  0  0
   -1.8989   -1.2455    0.7886 H   0  0  0  0  0  0  0  0  0  0  0  0
  1  2  1  0
  1  4  1  0
  1  5  1  0
  1  6  1  0
  2  3  2  3
  2  7  1  0
  3  8  1  0
M  END
>  <reaction>  (3) 
rmg_rxn_16484

>  <mol_properties>  (3) 
{"2": {"label": "acceptor", "atom_type": "N3d"}, "7": {"label": "a_hydrogen", "atom_type": "H0"}}

>  <type>  (3) 
r2h

$$$$

     RDKit          3D

 16 14  0  0  0  0  0  0  0  0999 V2000
    0.6313    1.2271    3.1938 C   0  0  0  0  0  0  0  0  0  0  0  0
    0.4938    0.9250    1.7315 C   0  0  0  0  0  0  0  0  0  0  0  0
   -0.1551   -0.0560    1.2991 N   0  0  0  0  0  2  0  0  0  0  0  0
    1.6875    1.2324    3.4717 H   0  0  0  0  0  0  0  0  0  0  0  0
    0.1009    0.4892    3.7925 H   0  0  0  0  0  0  0  0  0  0  0  0
    0.2333    2.2223    3.4036 H   0  0  0  0  0  0  0  0  0  0  0  0
    0.9952    1.6141    1.0376 H   0  0  0  0  0  0  0  0  0  0  0  0
   -0.2461   -1.1379   -3.2381 C   0  0  0  0  0  0  0  0  0  0  0  0
   -0.3797   -1.0948   -1.7202 C   0  0  0  0  0  0  0  0  0  0  0  0
    0.1225    0.1182   -1.1717 N   0  0  0  0  0  2  0  0  0  0  0  0
    0.7999   -1.0494   -3.5330 H   0  0  0  0  0  0  0  0  0  0  0  0
   -0.6377   -2.0785   -3.6287 H   0  0  0  0  0  0  0  0  0  0  0  0
   -0.7992   -0.3166   -3.6945 H   0  0  0  0  0  0  0  0  0  0  0  0
    0.1501   -1.9442   -1.2610 H   0  0  0  0  0  0  0  0  0  0  0  0
   -1.4326   -1.2171   -1.4211 H   0  0  0  0  0  0  0  0  0  0  0  0
   -0.0577    0.0097    0.0319 H   0  0  0  0  0  0  0  0  0  0  0  0
  1  2  1  0
  1  4  1  0
  1  5  1  0
  1  6  1  0
  2  3  2  0
  2  7  1  0
  8  9  1  0
  8 11  1  0
  8 12  1  0
  8 13  1  0
  9 10  1  0
  9 14  1  0
  9 15  1  0
 10 16  1  0
M  RAD  2   3   2  10   2
M  END
>  <reaction>  (4) 
rmg_rxn_16484

>  <mol_properties>  (4) 
{"1": {"label": "*4", "atom_type": "Cd"}, "2": {"label": "*3", "atom_type": "N3d"}, "8": {"label": "*0", "atom_type": "Cs"}, "9": {"label": "*1", "atom_type": "N3s"}, "15": {"label": "*2", "atom_type": "H0"}}

>  <type>  (4) 
ts

$$$$

     RDKit          3D

 16 14  0  0  0  0  0  0  0  0999 V2000
    2.8312   -0.5333    0.1394 C   0  0  0  0  0  0  0  0  0  0  0  0
    1.4234   -0.0422    0.2355 C   0  0  0  0  0  0  0  0  0  0  0  0
    0.9361    0.7204   -0.6092 N   0  0  0  0  0  2  0  0  0  0  0  0
    2.8318   -1.6215    0.1016 H   0  0  0  0  0  0  0  0  0  0  0  0
    3.3783   -0.2233    1.0281 H   0  0  0  0  0  0  0  0  0  0  0  0
    3.3127   -0.1325   -0.7476 H   0  0  0  0  0  0  0  0  0  0  0  0
    0.8757   -0.4226    1.1126 H   0  0  0  0  0  0  0  0  0  0  0  0
   -2.0588   -1.1479   -0.4193 C   0  0  0  0  0  0  0  0  0  0  0  0
   -1.7765   -0.0013    0.5715 C   0  0  0  0  0  0  0  0  0  0  0  0
   -1.2915    1.1665    0.0482 N   0  0  0  0  0  2  0  0  0  0  0  0
   -1.1294   -1.4716   -0.8839 H   0  0  0  0  0  0  0  0  0  0  0  0
   -2.5135   -1.9923    0.0935 H   0  0  0  0  0  0  0  0  0  0  0  0
   -2.7284   -0.8010   -1.2018 H   0  0  0  0  0  0  0  0  0  0  0  0
   -1.1556   -0.3916    1.4157 H   0  0  0  0  0  0  0  0  0  0  0  0
   -2.7202    0.3096    1.0487 H   0  0  0  0  0  0  0  0  0  0  0  0
   -0.2092    1.0776   -0.4516 H   0  0  0  0  0  0  0  0  0  0  0  0
  1  2  1  0
  1  4  1  0
  1  5  1  0
  1  6  1  0
  2  3  2  0
  2  7  1  0
  8  9  1  0
  8 11  1  0
  8 12  1  0
  8 13  1  0
  9 10  1  0
  9 14  1  0
  9 15  1  0
 10 16  1  0
M  RAD  2   3   2  10   2
M  END
>  <reaction>  (5) 
rmg_rxn_16484

>  <mol_properties>  (5) 
{"1": {"label": "*4", "atom_type": "Cd"}, "2": {"label": "*3", "atom_type": "N3d"}, "8": {"label": "*0", "atom_type": "Cs"}, "9": {"label": "*1", "atom_type": "N3s"}, "15": {"label": "*2", "atom_type": "H0"}}

>  <type>  (5) 
unop_1

>  <geom_source>  (5) 
crest_best.xyz

$$$$

     RDKit          3D

 16 14  0  0  0  0  0  0  0  0999 V2000
    0.6118    1.4075    3.0387 C   0  0  0  0  0  0  0  0  0  0  0  0
    0.6911    0.5750    1.8027 C   0  0  0  0  0  3  0  0  0  0  0  0
   -0.3302    0.0257    1.3010 N   0  0  0  0  0  2  0  0  0  0  0  0
    1.2571    0.9910    3.8163 H   0  0  0  0  0  0  0  0  0  0  0  0
   -0.4138    1.4505    3.4010 H   0  0  0  0  0  0  0  0  0  0  0  0
    0.9706    2.4198    2.8355 H   0  0  0  0  0  0  0  0  0  0  0  0
    1.6913    0.4733    1.3623 H   0  0  0  0  0  0  0  0  0  0  0  0
   -0.3302   -1.0953   -3.1971 C   0  0  0  0  0  0  0  0  0  0  0  0
   -0.3302   -1.0953   -1.6791 C   0  0  0  0  0  0  0  0  0  0  0  0
   -0.3302    0.2323   -1.1393 N   0  0  0  0  0  1  0  0  0  0  0  0
    0.5521   -0.5788   -3.5771 H   0  0  0  0  0  0  0  0  0  0  0  0
   -0.3302   -2.1142   -3.5881 H   0  0  0  0  0  0  0  0  0  0  0  0
   -1.2124   -0.5788   -3.5771 H   0  0  0  0  0  0  0  0  0  0  0  0
    0.5421   -1.6490   -1.2952 H   0  0  0  0  0  0  0  0  0  0  0  0
   -1.2024   -1.6490   -1.2952 H   0  0  0  0  0  0  0  0  0  0  0  0
   -0.3302    0.1287    0.0839 H   0  0  0  0  0  0  0  0  0  0  0  0
  1  4  1  0
  1  2  1  0
  1  5  1  0
  1  6  1  0
  2  3  1  0
  2  7  1  0
  3 16  1  0
  8 12  1  0
  8 13  1  0
  8  9  1  0
  8 11  1  0
  9 14  1  0
  9 10  1  0
  9 15  1  0
M  RAD  3   2   2   3   2  10   3
M  END
>  <reaction>  (6) 
rmg_rxn_16484

>  <mol_properties>  (6) 
{"1": {"label": "*4", "atom_type": "Cd"}, "2": {"label": "*3", "atom_type": "N3d"}, "8": {"label": "*0", "atom_type": "Cs"}, "9": {"label": "*1", "atom_type": "N3s"}, "15": {"label": "*2", "atom_type": "H0"}}

>  <type>  (6) 
unop_2

>  <geom_source>  (6) 
Heuristics

$$$$

     RDKit          3D

 16 14  0  0  0  0  0  0  0  0999 V2000
    0.8123   -0.4898    3.0767 C   0  0  0  0  0  0  0  0  0  0  0  0
    0.3018   -0.3132    1.6855 C   0  0  0  0  0  3  0  0  0  0  0  0
   -0.2878    0.7427    1.3197 N   0  0  0  0  0  2  0  0  0  0  0  0
    0.3494   -1.3647    3.5403 H   0  0  0  0  0  0  0  0  0  0  0  0
    0.5981    0.3949    3.6737 H   0  0  0  0  0  0  0  0  0  0  0  0
    1.8904   -0.6696    3.0631 H   0  0  0  0  0  0  0  0  0  0  0  0
    0.4728   -1.1583    1.0064 H   0  0  0  0  0  0  0  0  0  0  0  0
   -0.2878   -0.3783   -3.1784 C   0  0  0  0  0  0  0  0  0  0  0  0
   -0.2878   -0.3783   -1.6604 C   0  0  0  0  0  0  0  0  0  0  0  0
   -0.2878    0.9492   -1.1207 N   0  0  0  0  0  1  0  0  0  0  0  0
    0.5944    0.1381   -3.5585 H   0  0  0  0  0  0  0  0  0  0  0  0
   -0.2878   -1.3972   -3.5695 H   0  0  0  0  0  0  0  0  0  0  0  0
   -1.1700    0.1381   -3.5585 H   0  0  0  0  0  0  0  0  0  0  0  0
    0.5845   -0.9320   -1.2765 H   0  0  0  0  0  0  0  0  0  0  0  0
   -1.1600   -0.9320   -1.2765 H   0  0  0  0  0  0  0  0  0  0  0  0
   -0.2878    0.8457    0.1026 H   0  0  0  0  0  0  0  0  0  0  0  0
  1  4  1  0
  1  2  1  0
  1  5  1  0
  1  6  1  0
  2  3  1  0
  2  7  1  0
  3 16  1  0
  8 12  1  0
  8 13  1  0
  8  9  1  0
  8 11  1  0
  9 14  1  0
  9 10  1  0
  9 15  1  0
M  RAD  3   2   2   3   2  10   3
M  END
>  <reaction>  (7) 
rmg_rxn_16484

>  <mol_properties>  (7) 
{"1": {"label": "*4", "atom_type": "Cd"}, "2": {"label": "*3", "atom_type": "N3d"}, "8": {"label": "*0", "atom_type": "Cs"}, "9": {"label": "*1", "atom_type": "N3s"}, "15": {"label": "*2", "atom_type": "H0"}}

>  <type>  (7) 
unop_3

>  <geom_source>  (7) 
Heuristics

$$$$

     RDKit          3D

 16 14  0  0  0  0  0  0  0  0999 V2000
    0.0664    1.4313    3.1520 C   0  0  0  0  0  0  0  0  0  0  0  0
    0.4597    0.9155    1.8080 C   0  0  0  0  0  3  0  0  0  0  0  0
   -0.1299   -0.0638    1.2699 N   0  0  0  0  0  2  0  0  0  0  0  0
    0.9151    1.3806    3.8389 H   0  0  0  0  0  0  0  0  0  0  0  0
   -0.7619    0.8498    3.5531 H   0  0  0  0  0  0  0  0  0  0  0  0
   -0.2247    2.4825    3.0825 H   0  0  0  0  0  0  0  0  0  0  0  0
    1.2912    1.4422    1.3222 H   0  0  0  0  0  0  0  0  0  0  0  0
   -0.1299   -1.1848   -3.2282 C   0  0  0  0  0  0  0  0  0  0  0  0
   -0.1299   -1.1848   -1.7102 C   0  0  0  0  0  0  0  0  0  0  0  0
   -0.1299    0.1427   -1.1704 N   0  0  0  0  0  1  0  0  0  0  0  0
    0.7523   -0.6684   -3.6083 H   0  0  0  0  0  0  0  0  0  0  0  0
   -0.1299   -2.2037   -3.6193 H   0  0  0  0  0  0  0  0  0  0  0  0
   -1.0121   -0.6684   -3.6083 H   0  0  0  0  0  0  0  0  0  0  0  0
    0.7423   -1.7385   -1.3263 H   0  0  0  0  0  0  0  0  0  0  0  0
   -1.0021   -1.7385   -1.3263 H   0  0  0  0  0  0  0  0  0  0  0  0
   -0.1299    0.0392    0.0528 H   0  0  0  0  0  0  0  0  0  0  0  0
  1  4  1  0
  1  2  1  0
  1  5  1  0
  1  6  1  0
  2  3  1  0
  2  7  1  0
  3 16  1  0
  8 12  1  0
  8 13  1  0
  8  9  1  0
  8 11  1  0
  9 14  1  0
  9 10  1  0
  9 15  1  0
M  RAD  3   2   2   3   2  10   3
M  END
>  <reaction>  (8) 
rmg_rxn_16484

>  <mol_properties>  (8) 
{"1": {"label": "*4", "atom_type": "Cd"}, "2": {"label": "*3", "atom_type": "N3d"}, "8": {"label": "*0", "atom_type": "Cs"}, "9": {"label": "*1", "atom_type": "N3s"}, "15": {"label": "*2", "atom_type": "H0"}}

>  <type>  (8) 
unop_4

>  <geom_source>  (8) 
Heuristics

$$$$

     RDKit          3D

 16 14  0  0  0  0  0  0  0  0999 V2000
   -1.2184    0.2014    3.0280 C   0  0  0  0  0  0  0  0  0  0  0  0
   -0.5627   -0.1139    1.7251 C   0  0  0  0  0  3  0  0  0  0  0  0
    0.4585    0.5119    1.3228 N   0  0  0  0  0  2  0  0  0  0  0  0
   -2.2608    0.4876    2.8664 H   0  0  0  0  0  0  0  0  0  0  0  0
   -0.6922    1.0111    3.5305 H   0  0  0  0  0  0  0  0  0  0  0  0
   -1.2269   -0.6831    3.6701 H   0  0  0  0  0  0  0  0  0  0  0  0
   -1.0257   -0.9218    1.1439 H   0  0  0  0  0  0  0  0  0  0  0  0
    0.4585   -0.6091   -3.1753 C   0  0  0  0  0  0  0  0  0  0  0  0
    0.4585   -0.6091   -1.6573 C   0  0  0  0  0  0  0  0  0  0  0  0
    0.4585    0.7184   -1.1175 N   0  0  0  0  0  1  0  0  0  0  0  0
    1.3408   -0.0927   -3.5553 H   0  0  0  0  0  0  0  0  0  0  0  0
    0.4585   -1.6280   -3.5663 H   0  0  0  0  0  0  0  0  0  0  0  0
   -0.4237   -0.0927   -3.5553 H   0  0  0  0  0  0  0  0  0  0  0  0
    1.3308   -1.1628   -1.2734 H   0  0  0  0  0  0  0  0  0  0  0  0
   -0.4137   -1.1628   -1.2734 H   0  0  0  0  0  0  0  0  0  0  0  0
    0.4585    0.6149    0.1057 H   0  0  0  0  0  0  0  0  0  0  0  0
  1  4  1  0
  1  2  1  0
  1  5  1  0
  1  6  1  0
  2  3  1  0
  2  7  1  0
  3 16  1  0
  8 12  1  0
  8 13  1  0
  8  9  1  0
  8 11  1  0
  9 14  1  0
  9 10  1  0
  9 15  1  0
M  RAD  3   2   2   3   2  10   3
M  END
>  <reaction>  (9) 
rmg_rxn_16484

>  <mol_properties>  (9) 
{"1": {"label": "*4", "atom_type": "Cd"}, "2": {"label": "*3", "atom_type": "N3d"}, "8": {"label": "*0", "atom_type": "Cs"}, "9": {"label": "*1", "atom_type": "N3s"}, "15": {"label": "*2", "atom_type": "H0"}}

>  <type>  (9) 
unop_5

>  <geom_source>  (9) 
Heuristics

$$$$

     RDKit          3D

 16 14  0  0  0  0  0  0  0  0999 V2000
    0.0000    1.2392    3.2765 C   0  0  0  0  0  0  0  0  0  0  0  0
    0.0000    1.0826    1.7924 C   0  0  0  0  0  3  0  0  0  0  0  0
    0.0000   -0.0541    1.2409 N   0  0  0  0  0  2  0  0  0  0  0  0
    0.8783    1.8059    3.5962 H   0  0  0  0  0  0  0  0  0  0  0  0
    0.0000    0.2640    3.7601 H   0  0  0  0  0  0  0  0  0  0  0  0
   -0.8783    1.8059    3.5962 H   0  0  0  0  0  0  0  0  0  0  0  0
    0.0000    2.0171    1.2165 H   0  0  0  0  0  0  0  0  0  0  0  0
   -0.0000   -1.1751   -3.2571 C   0  0  0  0  0  0  0  0  0  0  0  0
   -0.0000   -1.1751   -1.7392 C   0  0  0  0  0  0  0  0  0  0  0  0
   -0.0000    0.1524   -1.1994 N   0  0  0  0  0  1  0  0  0  0  0  0
    0.8822   -0.6587   -3.6372 H   0  0  0  0  0  0  0  0  0  0  0  0
   -0.0000   -2.1940   -3.6482 H   0  0  0  0  0  0  0  0  0  0  0  0
   -0.8822   -0.6587   -3.6372 H   0  0  0  0  0  0  0  0  0  0  0  0
    0.8722   -1.7288   -1.3552 H   0  0  0  0  0  0  0  0  0  0  0  0
   -0.8722   -1.7288   -1.3552 H   0  0  0  0  0  0  0  0  0  0  0  0
   -0.0000    0.0489    0.0238 H   0  0  0  0  0  0  0  0  0  0  0  0
  1  4  1  0
  1  2  1  0
  1  5  1  0
  1  6  1  0
  2  3  1  0
  2  7  1  0
  3 16  1  0
  8 12  1  0
  8 13  1  0
  8  9  1  0
  8 11  1  0
  9 14  1  0
  9 10  1  0
  9 15  1  0
M  RAD  3   2   2   3   2  10   3
M  END
>  <reaction>  (10) 
rmg_rxn_16484

>  <mol_properties>  (10) 
{"1": {"label": "*4", "atom_type": "Cd"}, "2": {"label": "*3", "atom_type": "N3d"}, "8": {"label": "*0", "atom_type": "Cs"}, "9": {"label": "*1", "atom_type": "N3s"}, "15": {"label": "*2", "atom_type": "H0"}}

>  <type>  (10) 
unop_6

>  <geom_source>  (10) 
Heuristics

$$$$

     RDKit          3D

 16 14  0  0  0  0  0  0  0  0999 V2000
   -1.1073    0.9363    3.0077 C   0  0  0  0  0  0  0  0  0  0  0  0
   -0.7132    0.2026    1.7693 C   0  0  0  0  0  3  0  0  0  0  0  0
    0.4661    0.2409    1.3173 N   0  0  0  0  0  2  0  0  0  0  0  0
   -1.9104    1.6442    2.7875 H   0  0  0  0  0  0  0  0  0  0  0  0
   -0.2530    1.4711    3.4190 H   0  0  0  0  0  0  0  0  0  0  0  0
   -1.4946    0.2372    3.7534 H   0  0  0  0  0  0  0  0  0  0  0  0
   -1.5132   -0.3688    1.2813 H   0  0  0  0  0  0  0  0  0  0  0  0
    0.4661   -0.8801   -3.1807 C   0  0  0  0  0  0  0  0  0  0  0  0
    0.4661   -0.8801   -1.6627 C   0  0  0  0  0  0  0  0  0  0  0  0
    0.4661    0.4474   -1.1230 N   0  0  0  0  0  1  0  0  0  0  0  0
    1.3483   -0.3636   -3.5608 H   0  0  0  0  0  0  0  0  0  0  0  0
    0.4661   -1.8990   -3.5718 H   0  0  0  0  0  0  0  0  0  0  0  0
   -0.4162   -0.3636   -3.5608 H   0  0  0  0  0  0  0  0  0  0  0  0
    1.3383   -1.4338   -1.2788 H   0  0  0  0  0  0  0  0  0  0  0  0
   -0.4062   -1.4338   -1.2788 H   0  0  0  0  0  0  0  0  0  0  0  0
    0.4661    0.3439    0.1002 H   0  0  0  0  0  0  0  0  0  0  0  0
  1  4  1  0
  1  2  1  0
  1  5  1  0
  1  6  1  0
  2  3  1  0
  2  7  1  0
  3 16  1  0
  8 12  1  0
  8 13  1  0
  8  9  1  0
  8 11  1  0
  9 14  1  0
  9 10  1  0
  9 15  1  0
M  RAD  3   2   2   3   2  10   3
M  END
>  <reaction>  (11) 
rmg_rxn_16484

>  <mol_properties>  (11) 
{"1": {"label": "*4", "atom_type": "Cd"}, "2": {"label": "*3", "atom_type": "N3d"}, "8": {"label": "*0", "atom_type": "Cs"}, "9": {"label": "*1", "atom_type": "N3s"}, "15": {"label": "*2", "atom_type": "H0"}}

>  <type>  (11) 
unop_7

>  <geom_source>  (11) 
Heuristics

$$$$

     RDKit          3D

 16 14  0  0  0  0  0  0  0  0999 V2000
   -0.6118    1.4075    3.0387 C   0  0  0  0  0  0  0  0  0  0  0  0
   -0.6911    0.5750    1.8027 C   0  0  0  0  0  3  0  0  0  0  0  0
    0.3302    0.0257    1.3010 N   0  0  0  0  0  2  0  0  0  0  0  0
   -0.9706    2.4198    2.8355 H   0  0  0  0  0  0  0  0  0  0  0  0
    0.4138    1.4505    3.4010 H   0  0  0  0  0  0  0  0  0  0  0  0
   -1.2571    0.9910    3.8163 H   0  0  0  0  0  0  0  0  0  0  0  0
   -1.6913    0.4733    1.3623 H   0  0  0  0  0  0  0  0  0  0  0  0
    0.3302   -1.0953   -3.1971 C   0  0  0  0  0  0  0  0  0  0  0  0
    0.3302   -1.0953   -1.6791 C   0  0  0  0  0  0  0  0  0  0  0  0
    0.3302    0.2323   -1.1393 N   0  0  0  0  0  1  0  0  0  0  0  0
    1.2124   -0.5788   -3.5771 H   0  0  0  0  0  0  0  0  0  0  0  0
    0.3302   -2.1142   -3.5881 H   0  0  0  0  0  0  0  0  0  0  0  0
   -0.5521   -0.5788   -3.5771 H   0  0  0  0  0  0  0  0  0  0  0  0
    1.2024   -1.6490   -1.2952 H   0  0  0  0  0  0  0  0  0  0  0  0
   -0.5421   -1.6490   -1.2952 H   0  0  0  0  0  0  0  0  0  0  0  0
    0.3302    0.1287    0.0839 H   0  0  0  0  0  0  0  0  0  0  0  0
  1  4  1  0
  1  2  1  0
  1  5  1  0
  1  6  1  0
  2  3  1  0
  2  7  1  0
  3 16  1  0
  8 12  1  0
  8 13  1  0
  8  9  1  0
  8 11  1  0
  9 14  1  0
  9 10  1  0
  9 15  1  0
M  RAD  3   2   2   3   2  10   3
M  END
>  <reaction>  (12) 
rmg_rxn_16484

>  <mol_properties>  (12) 
{"1": {"label": "*4", "atom_type": "Cd"}, "2": {"label": "*3", "atom_type": "N3d"}, "8": {"label": "*0", "atom_type": "Cs"}, "9": {"label": "*1", "atom_type": "N3s"}, "15": {"label": "*2", "atom_type": "H0"}}

>  <type>  (12) 
unop_8

>  <geom_source>  (12) 
Heuristics

$$$$

     RDKit          3D

 16 14  0  0  0  0  0  0  0  0999 V2000
    1.1073    0.9363    3.0077 C   0  0  0  0  0  0  0  0  0  0  0  0
    0.7132    0.2026    1.7693 C   0  0  0  0  0  3  0  0  0  0  0  0
   -0.4661    0.2409    1.3173 N   0  0  0  0  0  2  0  0  0  0  0  0
    1.4946    0.2372    3.7534 H   0  0  0  0  0  0  0  0  0  0  0  0
    0.2530    1.4711    3.4190 H   0  0  0  0  0  0  0  0  0  0  0  0
    1.9104    1.6442    2.7875 H   0  0  0  0  0  0  0  0  0  0  0  0
    1.5132   -0.3688    1.2813 H   0  0  0  0  0  0  0  0  0  0  0  0
   -0.4661   -0.8801   -3.1807 C   0  0  0  0  0  0  0  0  0  0  0  0
   -0.4661   -0.8801   -1.6627 C   0  0  0  0  0  0  0  0  0  0  0  0
   -0.4661    0.4474   -1.1230 N   0  0  0  0  0  1  0  0  0  0  0  0
    0.4162   -0.3636   -3.5608 H   0  0  0  0  0  0  0  0  0  0  0  0
   -0.4661   -1.8990   -3.5718 H   0  0  0  0  0  0  0  0  0  0  0  0
   -1.3483   -0.3636   -3.5608 H   0  0  0  0  0  0  0  0  0  0  0  0
    0.4062   -1.4338   -1.2788 H   0  0  0  0  0  0  0  0  0  0  0  0
   -1.3383   -1.4338   -1.2788 H   0  0  0  0  0  0  0  0  0  0  0  0
   -0.4661    0.3439    0.1002 H   0  0  0  0  0  0  0  0  0  0  0  0
  1  4  1  0
  1  2  1  0
  1  5  1  0
  1  6  1  0
  2  3  1  0
  2  7  1  0
  3 16  1  0
  8 12  1  0
  8 13  1  0
  8  9  1  0
  8 11  1  0
  9 14  1  0
  9 10  1  0
  9 15  1  0
M  RAD  3   2   2   3   2  10   3
M  END
>  <reaction>  (13) 
rmg_rxn_16484

>  <mol_properties>  (13) 
{"1": {"label": "*4", "atom_type": "Cd"}, "2": {"label": "*3", "atom_type": "N3d"}, "8": {"label": "*0", "atom_type": "Cs"}, "9": {"label": "*1", "atom_type": "N3s"}, "15": {"label": "*2", "atom_type": "H0"}}

>  <type>  (13) 
unop_9

>  <geom_source>  (13) 
Heuristics

$$$$

     RDKit          3D

 16 14  0  0  0  0  0  0  0  0999 V2000
    2.8312   -0.5333    0.1394 C   0  0  0  0  0  0  0  0  0  0  0  0
    1.4234   -0.0422    0.2355 C   0  0  0  0  0  0  0  0  0  0  0  0
    0.9361    0.7204   -0.6092 N   0  0  0  0  0  2  0  0  0  0  0  0
    2.8318   -1.6215    0.1016 H   0  0  0  0  0  0  0  0  0  0  0  0
    3.3783   -0.2233    1.0281 H   0  0  0  0  0  0  0  0  0  0  0  0
    3.3127   -0.1325   -0.7476 H   0  0  0  0  0  0  0  0  0  0  0  0
    0.8757   -0.4226    1.1126 H   0  0  0  0  0  0  0  0  0  0  0  0
   -2.0588   -1.1479   -0.4193 C   0  0  0  0  0  0  0  0  0  0  0  0
   -1.7765   -0.0013    0.5715 C   0  0  0  0  0  0  0  0  0  0  0  0
   -1.2915    1.1665    0.0482 N   0  0  0  0  0  2  0  0  0  0  0  0
   -1.1294   -1.4716   -0.8839 H   0  0  0  0  0  0  0  0  0  0  0  0
   -2.5135   -1.9923    0.0935 H   0  0  0  0  0  0  0  0  0  0  0  0
   -2.7284   -0.8010   -1.2018 H   0  0  0  0  0  0  0  0  0  0  0  0
   -1.1556   -0.3916    1.4157 H   0  0  0  0  0  0  0  0  0  0  0  0
   -2.7202    0.3096    1.0487 H   0  0  0  0  0  0  0  0  0  0  0  0
   -0.2092    1.0776   -0.4516 H   0  0  0  0  0  0  0  0  0  0  0  0
  1  2  1  0
  1  4  1  0
  1  5  1  0
  1  6  1  0
  2  3  2  0
  2  7  1  0
  8  9  1  0
  8 11  1  0
  8 12  1  0
  8 13  1  0
  9 10  1  0
  9 14  1  0
  9 15  1  0
 10 16  1  0
M  RAD  2   3   2  10   2
M  END
>  <reaction>  (14) 
rmg_rxn_16484

>  <mol_properties>  (14) 
{"1": {"label": "*4", "atom_type": "Cd"}, "2": {"label": "*3", "atom_type": "N3d"}, "8": {"label": "*0", "atom_type": "Cs"}, "9": {"label": "*1", "atom_type": "N3s"}, "15": {"label": "*2", "atom_type": "H0"}}

>  <type>  (14) 
unop_10

>  <geom_source>  (14) 
Heuristics

$$$$

     RDKit          3D

 16 14  0  0  0  0  0  0  0  0999 V2000
   -0.8123   -0.4898    3.0767 C   0  0  0  0  0  0  0  0  0  0  0  0
   -0.3018   -0.3132    1.6855 C   0  0  0  0  0  3  0  0  0  0  0  0
    0.2878    0.7427    1.3197 N   0  0  0  0  0  2  0  0  0  0  0  0
   -1.8904   -0.6696    3.0631 H   0  0  0  0  0  0  0  0  0  0  0  0
   -0.5981    0.3949    3.6737 H   0  0  0  0  0  0  0  0  0  0  0  0
   -0.3494   -1.3647    3.5403 H   0  0  0  0  0  0  0  0  0  0  0  0
   -0.4728   -1.1583    1.0064 H   0  0  0  0  0  0  0  0  0  0  0  0
    0.2878   -0.3783   -3.1784 C   0  0  0  0  0  0  0  0  0  0  0  0
    0.2878   -0.3783   -1.6604 C   0  0  0  0  0  0  0  0  0  0  0  0
    0.2878    0.9492   -1.1207 N   0  0  0  0  0  1  0  0  0  0  0  0
    1.1700    0.1381   -3.5585 H   0  0  0  0  0  0  0  0  0  0  0  0
    0.2878   -1.3972   -3.5695 H   0  0  0  0  0  0  0  0  0  0  0  0
   -0.5945    0.1381   -3.5585 H   0  0  0  0  0  0  0  0  0  0  0  0
    1.1600   -0.9320   -1.2765 H   0  0  0  0  0  0  0  0  0  0  0  0
   -0.5845   -0.9320   -1.2765 H   0  0  0  0  0  0  0  0  0  0  0  0
    0.2878    0.8457    0.1026 H   0  0  0  0  0  0  0  0  0  0  0  0
  1  4  1  0
  1  2  1  0
  1  5  1  0
  1  6  1  0
  2  3  1  0
  2  7  1  0
  3 16  1  0
  8 12  1  0
  8 13  1  0
  8  9  1  0
  8 11  1  0
  9 14  1  0
  9 10  1  0
  9 15  1  0
M  RAD  3   2   2   3   2  10   3
M  END
>  <reaction>  (15) 
rmg_rxn_16484

>  <mol_properties>  (15) 
{"1": {"label": "*4", "atom_type": "Cd"}, "2": {"label": "*3", "atom_type": "N3d"}, "8": {"label": "*0", "atom_type": "Cs"}, "9": {"label": "*1", "atom_type": "N3s"}, "15": {"label": "*2", "atom_type": "H0"}}

>  <type>  (15) 
unop_11

>  <geom_source>  (15) 
Heuristics

$$$$

     RDKit          3D

 16 14  0  0  0  0  0  0  0  0999 V2000
    1.2184    0.2014    3.0280 C   0  0  0  0  0  0  0  0  0  0  0  0
    0.5627   -0.1139    1.7251 C   0  0  0  0  0  3  0  0  0  0  0  0
   -0.4585    0.5119    1.3228 N   0  0  0  0  0  2  0  0  0  0  0  0
    1.2269   -0.6831    3.6701 H   0  0  0  0  0  0  0  0  0  0  0  0
    0.6922    1.0111    3.5305 H   0  0  0  0  0  0  0  0  0  0  0  0
    2.2608    0.4876    2.8664 H   0  0  0  0  0  0  0  0  0  0  0  0
    1.0257   -0.9218    1.1439 H   0  0  0  0  0  0  0  0  0  0  0  0
   -0.4585   -0.6091   -3.1753 C   0  0  0  0  0  0  0  0  0  0  0  0
   -0.4585   -0.6091   -1.6573 C   0  0  0  0  0  0  0  0  0  0  0  0
   -0.4585    0.7184   -1.1175 N   0  0  0  0  0  1  0  0  0  0  0  0
    0.4237   -0.0927   -3.5553 H   0  0  0  0  0  0  0  0  0  0  0  0
   -0.4585   -1.6280   -3.5663 H   0  0  0  0  0  0  0  0  0  0  0  0
   -1.3408   -0.0927   -3.5553 H   0  0  0  0  0  0  0  0  0  0  0  0
    0.4137   -1.1628   -1.2734 H   0  0  0  0  0  0  0  0  0  0  0  0
   -1.3308   -1.1628   -1.2734 H   0  0  0  0  0  0  0  0  0  0  0  0
   -0.4585    0.6149    0.1057 H   0  0  0  0  0  0  0  0  0  0  0  0
  1  4  1  0
  1  2  1  0
  1  5  1  0
  1  6  1  0
  2  3  1  0
  2  7  1  0
  3 16  1  0
  8 12  1  0
  8 13  1  0
  8  9  1  0
  8 11  1  0
  9 14  1  0
  9 10  1  0
  9 15  1  0
M  RAD  3   2   2   3   2  10   3
M  END
>  <reaction>  (16) 
rmg_rxn_16484

>  <mol_properties>  (16) 
{"1": {"label": "*4", "atom_type": "Cd"}, "2": {"label": "*3", "atom_type": "N3d"}, "8": {"label": "*0", "atom_type": "Cs"}, "9": {"label": "*1", "atom_type": "N3s"}, "15": {"label": "*2", "atom_type": "H0"}}

>  <type>  (16) 
unop_12

>  <geom_source>  (16) 
Heuristics

$$$$

     RDKit          3D

 16 14  0  0  0  0  0  0  0  0999 V2000
   -0.0664    1.4313    3.1520 C   0  0  0  0  0  0  0  0  0  0  0  0
   -0.4597    0.9155    1.8080 C   0  0  0  0  0  3  0  0  0  0  0  0
    0.1299   -0.0638    1.2699 N   0  0  0  0  0  2  0  0  0  0  0  0
    0.2247    2.4825    3.0825 H   0  0  0  0  0  0  0  0  0  0  0  0
    0.7619    0.8498    3.5531 H   0  0  0  0  0  0  0  0  0  0  0  0
   -0.9151    1.3806    3.8389 H   0  0  0  0  0  0  0  0  0  0  0  0
   -1.2912    1.4422    1.3222 H   0  0  0  0  0  0  0  0  0  0  0  0
    0.1299   -1.1848   -3.2282 C   0  0  0  0  0  0  0  0  0  0  0  0
    0.1299   -1.1848   -1.7102 C   0  0  0  0  0  0  0  0  0  0  0  0
    0.1299    0.1427   -1.1704 N   0  0  0  0  0  1  0  0  0  0  0  0
    1.0121   -0.6684   -3.6083 H   0  0  0  0  0  0  0  0  0  0  0  0
    0.1299   -2.2037   -3.6193 H   0  0  0  0  0  0  0  0  0  0  0  0
   -0.7523   -0.6684   -3.6083 H   0  0  0  0  0  0  0  0  0  0  0  0
    1.0021   -1.7385   -1.3263 H   0  0  0  0  0  0  0  0  0  0  0  0
   -0.7423   -1.7385   -1.3263 H   0  0  0  0  0  0  0  0  0  0  0  0
    0.1299    0.0392    0.0528 H   0  0  0  0  0  0  0  0  0  0  0  0
  1  4  1  0
  1  2  1  0
  1  5  1  0
  1  6  1  0
  2  3  1  0
  2  7  1  0
  3 16  1  0
  8 12  1  0
  8 13  1  0
  8  9  1  0
  8 11  1  0
  9 14  1  0
  9 10  1  0
  9 15  1  0
M  RAD  3   2   2   3   2  10   3
M  END
>  <reaction>  (17) 
rmg_rxn_16484

>  <mol_properties>  (17) 
{"1": {"label": "*4", "atom_type": "Cd"}, "2": {"label": "*3", "atom_type": "N3d"}, "8": {"label": "*0", "atom_type": "Cs"}, "9": {"label": "*1", "atom_type": "N3s"}, "15": {"label": "*2", "atom_type": "H0"}}

>  <type>  (17) 
unop_13

>  <geom_source>  (17) 
Heuristics

$$$$

     RDKit          3D

 16 14  0  0  0  0  0  0  0  0999 V2000
    0.0000   -0.7817    3.1054 C   0  0  0  0  0  0  0  0  0  0  0  0
    0.0000   -0.3779    1.6688 C   0  0  0  0  0  3  0  0  0  0  0  0
    0.0000    0.8354    1.3162 N   0  0  0  0  0  2  0  0  0  0  0  0
   -0.8783   -1.3941    3.3253 H   0  0  0  0  0  0  0  0  0  0  0  0
    0.0000    0.0984    3.7460 H   0  0  0  0  0  0  0  0  0  0  0  0
    0.8783   -1.3941    3.3253 H   0  0  0  0  0  0  0  0  0  0  0  0
   -0.0000   -1.2022    0.9440 H   0  0  0  0  0  0  0  0  0  0  0  0
   -0.0000   -0.2856   -3.1819 C   0  0  0  0  0  0  0  0  0  0  0  0
   -0.0000   -0.2856   -1.6639 C   0  0  0  0  0  0  0  0  0  0  0  0
   -0.0000    1.0419   -1.1241 N   0  0  0  0  0  1  0  0  0  0  0  0
    0.8822    0.2308   -3.5619 H   0  0  0  0  0  0  0  0  0  0  0  0
   -0.0000   -1.3045   -3.5729 H   0  0  0  0  0  0  0  0  0  0  0  0
   -0.8822    0.2308   -3.5619 H   0  0  0  0  0  0  0  0  0  0  0  0
    0.8722   -0.8393   -1.2800 H   0  0  0  0  0  0  0  0  0  0  0  0
   -0.8722   -0.8393   -1.2800 H   0  0  0  0  0  0  0  0  0  0  0  0
   -0.0000    0.9384    0.0991 H   0  0  0  0  0  0  0  0  0  0  0  0
  1  4  1  0
  1  2  1  0
  1  5  1  0
  1  6  1  0
  2  3  1  0
  2  7  1  0
  3 16  1  0
  8 12  1  0
  8 13  1  0
  8  9  1  0
  8 11  1  0
  9 14  1  0
  9 10  1  0
  9 15  1  0
M  RAD  3   2   2   3   2  10   3
M  END
>  <reaction>  (18) 
rmg_rxn_16484

>  <mol_properties>  (18) 
{"1": {"label": "*4", "atom_type": "Cd"}, "2": {"label": "*3", "atom_type": "N3d"}, "8": {"label": "*0", "atom_type": "Cs"}, "9": {"label": "*1", "atom_type": "N3s"}, "15": {"label": "*2", "atom_type": "H0"}}

>  <type>  (18) 
unop_14

>  <geom_source>  (18) 
Heuristics

$$$$

     RDKit          3D

 16 14  0  0  0  0  0  0  0  0999 V2000
    0.8123   -0.4898    3.0767 C   0  0  0  0  0  0  0  0  0  0  0  0
    0.3018   -0.3132    1.6855 C   0  0  0  0  0  3  0  0  0  0  0  0
   -0.2878    0.7427    1.3197 N   0  0  0  0  0  2  0  0  0  0  0  0
    0.3494   -1.3647    3.5403 H   0  0  0  0  0  0  0  0  0  0  0  0
    0.5981    0.3949    3.6737 H   0  0  0  0  0  0  0  0  0  0  0  0
    1.8903   -0.6695    3.0631 H   0  0  0  0  0  0  0  0  0  0  0  0
    0.4728   -1.1583    1.0064 H   0  0  0  0  0  0  0  0  0  0  0  0
   -0.2878   -0.3783   -3.1784 C   0  0  0  0  0  0  0  0  0  0  0  0
   -0.2878   -0.3783   -1.6604 C   0  0  0  0  0  0  0  0  0  0  0  0
   -0.2878    0.9492   -1.1206 N   0  0  0  0  0  1  0  0  0  0  0  0
    0.5945    0.1381   -3.5585 H   0  0  0  0  0  0  0  0  0  0  0  0
   -0.2878   -1.3972   -3.5695 H   0  0  0  0  0  0  0  0  0  0  0  0
   -1.1700    0.1381   -3.5585 H   0  0  0  0  0  0  0  0  0  0  0  0
    0.5845   -0.9320   -1.2765 H   0  0  0  0  0  0  0  0  0  0  0  0
   -1.1600   -0.9320   -1.2765 H   0  0  0  0  0  0  0  0  0  0  0  0
   -0.2878    0.8457    0.1026 H   0  0  0  0  0  0  0  0  0  0  0  0
  1  4  1  0
  1  2  1  0
  1  5  1  0
  1  6  1  0
  2  3  1  0
  2  7  1  0
  3 16  1  0
  8 12  1  0
  8 13  1  0
  8  9  1  0
  8 11  1  0
  9 14  1  0
  9 10  1  0
  9 15  1  0
M  RAD  3   2   2   3   2  10   3
M  END
>  <reaction>  (19) 
rmg_rxn_16484

>  <mol_properties>  (19) 
{"1": {"label": "*4", "atom_type": "Cd"}, "2": {"label": "*3", "atom_type": "N3d"}, "8": {"label": "*0", "atom_type": "Cs"}, "9": {"label": "*1", "atom_type": "N3s"}, "15": {"label": "*2", "atom_type": "H0"}}

>  <type>  (19) 
unop_15

>  <geom_source>  (19) 
gaussian_log

$$$$
