
     RDKit          3D

 14 13  0  0  0  0  0  0  0  0999 V2000
   -2.1430    0.4492    0.2556 C   0  0  0  0  0  0  0  0  0  0  0  0
   -0.8980   -0.1952    0.2757 O   0  0  0  0  0  0  0  0  0  0  0  0
   -0.3667   -0.3041    1.5713 C   0  0  0  0  0  0  0  0  0  0  0  0
    0.9667   -1.0099    1.4715 C   0  0  0  0  0  0  0  0  0  0  0  0
    1.6584   -1.1995    2.7884 C   0  0  0  0  0  0  0  0  0  0  0  0
    1.2262   -0.8381    3.8485 O   0  0  0  0  0  0  0  0  0  0  0  0
   -2.0716    1.4724    0.6470 H   0  0  0  0  0  0  0  0  0  0  0  0
   -2.8872   -0.0973    0.8495 H   0  0  0  0  0  0  0  0  0  0  0  0
   -2.4755    0.4883   -0.7805 H   0  0  0  0  0  0  0  0  0  0  0  0
   -0.2382    0.6884    2.0233 H   0  0  0  0  0  0  0  0  0  0  0  0
   -1.0467   -0.8675    2.2240 H   0  0  0  0  0  0  0  0  0  0  0  0
    1.6454   -0.4596    0.8107 H   0  0  0  0  0  0  0  0  0  0  0  0
    0.8471   -1.9957    1.0089 H   0  0  0  0  0  0  0  0  0  0  0  0
    2.6387   -1.7165    2.7294 H   0  0  0  0  0  0  0  0  0  0  0  0
  1  2  1  0
  1  7  1  0
  1  8  1  0
  1  9  1  0
  2  3  1  0
  3  4  1  0
  3 10  1  0
  3 11  1  0
  4  5  1  0
  4 12  1  0
  4 13  1  0
  5  6  2  0
  5 14  1  0
M  END
>  <reaction>  (1) 
rmg_rxn_15443

>  <mol_properties>  (1) 
{"0": {"label": "donator", "atom_type": "Cs"}, "6": {"label": "d_hydrogen", "atom_type": "H0"}}

>  <type>  (1) 
r1h

$$$$

     RDKit          3D

  5  4  0  0  0  0  0  0  0  0999 V2000
    0.8934    0.3742    0.4948 O   0  0  0  0  0  0  0  0  0  0  0  0
    0.1582   -0.1610   -0.5904 N   0  0  0  0  0  0  0  0  0  0  0  0
   -1.0297   -0.3739   -0.4689 C   0  0  0  0  0  3  0  0  0  0  0  0
    1.7804    0.4382    0.1306 H   0  0  0  0  0  0  0  0  0  0  0  0
   -1.8023   -0.2775    0.2859 H   0  0  0  0  0  0  0  0  0  0  0  0
  1  2  1  0
  1  4  1  0
  2  3  2  3
  3  5  1  0
M  RAD  1   3   2
M  END
>  <reaction>  (2) 
rmg_rxn_15443

>  <mol_properties>  (2) 
{"2": {"label": "acceptor", "atom_type": "Cd"}}

>  <type>  (2) 
r2

$$$$

     RDKit          3D

  6  5  0  0  0  0  0  0  0  0999 V2000
    1.2314    0.0428    0.5088 O   0  0  0  0  0  0  0  0  0  0  0  0
    0.2987    0.2341   -0.4915 N   0  0  0  0  0  0  0  0  0  0  0  0
   -0.8599   -0.1122   -0.1290 C   0  0  0  0  0  0  0  0  0  0  0  0
    2.0507    0.3401    0.1082 H   0  0  0  0  0  0  0  0  0  0  0  0
   -1.0700   -0.5112    0.8610 H   0  0  0  0  0  0  0  0  0  0  0  0
   -1.6509    0.0064   -0.8574 H   0  0  0  0  0  0  0  0  0  0  0  0
  1  2  1  0
  1  4  1  0
  2  3  2  3
  3  5  1  0
  3  6  1  0
M  END
>  <reaction>  (3) 
rmg_rxn_15443

>  <mol_properties>  (3) 
{"2": {"label": "acceptor", "atom_type": "Cd"}, "5": {"label": "a_hydrogen", "atom_type": "H0"}}

>  <type>  (3) 
r2h

$$$$

     RDKit          3D

 19 17  0  0  0  0  0  0  0  0999 V2000
   -3.0488    1.3087   -1.3377 O   0  0  0  0  0  0  0  0  0  0  0  0
   -1.8054    1.2270   -0.6913 N   0  0  0  0  0  0  0  0  0  0  0  0
   -1.1454    2.2799   -0.7211 C   0  0  0  0  0  3  0  0  0  0  0  0
   -3.4058    0.4249   -1.2238 H   0  0  0  0  0  0  0  0  0  0  0  0
   -1.4237    3.2280   -1.1821 H   0  0  0  0  0  0  0  0  0  0  0  0
    1.1514    1.9517    0.7003 C   0  0  0  0  0  0  0  0  0  0  0  0
    1.0336    0.7206    1.2946 O   0  0  0  0  0  0  0  0  0  0  0  0
    1.1681   -0.3617    0.3928 C   0  0  0  0  0  0  0  0  0  0  0  0
    0.8524   -1.6302    1.1499 C   0  0  0  0  0  0  0  0  0  0  0  0
    0.9982   -2.8773    0.3298 C   0  0  0  0  0  0  0  0  0  0  0  0
    1.3482   -2.9058   -0.8180 O   0  0  0  0  0  0  0  0  0  0  0  0
    0.1299    2.1763    0.0085 H   0  0  0  0  0  0  0  0  0  0  0  0
    1.9926    2.0298    0.0013 H   0  0  0  0  0  0  0  0  0  0  0  0
    1.1708    2.7267    1.4642 H   0  0  0  0  0  0  0  0  0  0  0  0
    0.4786   -0.2396   -0.4473 H   0  0  0  0  0  0  0  0  0  0  0  0
    2.1881   -0.3912   -0.0080 H   0  0  0  0  0  0  0  0  0  0  0  0
   -0.1713   -1.5980    1.5376 H   0  0  0  0  0  0  0  0  0  0  0  0
    1.4976   -1.7295    2.0299 H   0  0  0  0  0  0  0  0  0  0  0  0
    0.7549   -3.8179    0.8662 H   0  0  0  0  0  0  0  0  0  0  0  0
  1  2  1  0
  1  4  1  0
  2  3  2  3
  3  5  1  0
  6  7  1  0
  6 12  1  0
  6 13  1  0
  6 14  1  0
  7  8  1  0
  8  9  1  0
  8 15  1  0
  8 16  1  0
  9 10  1  0
  9 17  1  0
  9 18  1  0
 10 11  2  0
 10 19  1  0
M  RAD  1   3   2
M  END
>  <reaction>  (4) 
rmg_rxn_15443

>  <mol_properties>  (4) 
{"1": {"label": "*4", "atom_type": "N3d"}, "2": {"label": "*3", "atom_type": "Cd"}, "5": {"label": "*1", "atom_type": "Cs"}, "6": {"label": "*0", "atom_type": "O2s"}, "11": {"label": "*2", "atom_type": "H0"}}

>  <type>  (4) 
ts

$$$$

     RDKit          3D

 19 17  0  0  0  0  0  0  0  0999 V2000
   -2.9431   -1.6730   -0.0542 O   0  0  0  0  0  0  0  0  0  0  0  0
   -2.0334   -0.6480    0.0539 N   0  0  0  0  0  0  0  0  0  0  0  0
   -2.3784    0.5398    0.1689 C   0  0  0  0  0  0  0  0  0  0  0  0
   -3.8612   -1.3445   -0.0254 H   0  0  0  0  0  0  0  0  0  0  0  0
   -3.3955    0.9306    0.2059 H   0  0  0  0  0  0  0  0  0  0  0  0
   -0.3801    2.2504    0.4506 C   0  0  0  0  0  3  0  0  0  0  0  0
    0.6510    1.9963   -0.4201 O   0  0  0  0  0  0  0  0  0  0  0  0
    1.5286    0.9477   -0.0775 C   0  0  0  0  0  0  0  0  0  0  0  0
    1.0525   -0.4156   -0.5885 C   0  0  0  0  0  0  0  0  0  0  0  0
    1.9591   -1.5232   -0.1581 C   0  0  0  0  0  0  0  0  0  0  0  0
    2.9066   -1.4129    0.5695 O   0  0  0  0  0  0  0  0  0  0  0  0
   -1.4055    1.3835    0.2798 H   0  0  0  0  0  0  0  0  0  0  0  0
   -0.8074    3.2207    0.2156 H   0  0  0  0  0  0  0  0  0  0  0  0
   -0.1172    2.1348    1.5034 H   0  0  0  0  0  0  0  0  0  0  0  0
    2.4873    1.1970   -0.5417 H   0  0  0  0  0  0  0  0  0  0  0  0
    1.6700    0.8993    1.0094 H   0  0  0  0  0  0  0  0  0  0  0  0
    0.9878   -0.4127   -1.6788 H   0  0  0  0  0  0  0  0  0  0  0  0
    0.0441   -0.6410   -0.2162 H   0  0  0  0  0  0  0  0  0  0  0  0
    1.6683   -2.5073   -0.5743 H   0  0  0  0  0  0  0  0  0  0  0  0
  1  2  1  0
  1  4  1  0
  2  3  2  3
  3  5  1  0
  3 12  1  0
  6  7  1  0
  6 13  1  0
  6 14  1  0
  7  8  1  0
  8  9  1  0
  8 15  1  0
  8 16  1  0
  9 10  1  0
  9 17  1  0
  9 18  1  0
 10 11  2  0
 10 19  1  0
M  RAD  1   6   2
M  END
>  <reaction>  (5) 
rmg_rxn_15443

>  <mol_properties>  (5) 
{"1": {"label": "*4", "atom_type": "N3d"}, "2": {"label": "*3", "atom_type": "Cd"}, "5": {"label": "*1", "atom_type": "Cs"}, "6": {"label": "*0", "atom_type": "O2s"}, "11": {"label": "*2", "atom_type": "H0"}}

>  <type>  (5) 
unop_1

>  <geom_source>  (5) 
crest_best.xyz

$$$$

     RDKit          3D

 19 17  0  0  0  0  0  0  0  0999 V2000
   -2.3633    3.3899   -1.6112 O   0  0  0  0  0  0  0  0  0  0  0  0
   -1.9360    2.7062   -0.4900 N   0  0  0  0  0  0  0  0  0  0  0  0
   -1.1775    1.7415   -0.7860 C   0  0  0  0  0  0  0  0  0  0  0  0
   -2.9201    4.0825   -1.2501 H   0  0  0  0  0  0  0  0  0  0  0  0
   -0.9088    1.5000   -1.8122 H   0  0  0  0  0  0  0  0  0  0  0  0
    0.9435    1.4180    0.7099 C   0  0  0  0  0  3  0  0  0  0  0  0
    0.9435    0.1627    1.3343 O   0  0  0  0  0  0  0  0  0  0  0  0
    0.9435   -0.8985    0.4143 C   0  0  0  0  0  0  0  0  0  0  0  0
    0.9435   -2.1934    1.1950 C   0  0  0  0  0  0  0  0  0  0  0  0
    0.9435   -3.4241    0.3381 C   0  0  0  0  0  0  0  0  0  0  0  0
    0.9435   -3.4241   -0.8624 O   0  0  0  0  0  0  0  0  0  0  0  0
   -0.1248    1.5809   -0.0436 H   0  0  0  0  0  0  0  0  0  0  0  0
    1.8338    1.5538    0.0820 H   0  0  0  0  0  0  0  0  0  0  0  0
    0.9435    2.1742    1.4934 H   0  0  0  0  0  0  0  0  0  0  0  0
    0.0611   -0.8479   -0.2373 H   0  0  0  0  0  0  0  0  0  0  0  0
    1.8259   -0.8479   -0.2373 H   0  0  0  0  0  0  0  0  0  0  0  0
    0.0722   -2.2441    1.8571 H   0  0  0  0  0  0  0  0  0  0  0  0
    1.8148   -2.2441    1.8571 H   0  0  0  0  0  0  0  0  0  0  0  0
    0.9435   -4.3819    0.8988 H   0  0  0  0  0  0  0  0  0  0  0  0
  1  2  1  0
  1  4  1  0
  2  3  2  3
  3  5  1  0
  3 12  1  0
  6  7  1  0
  6 13  1  0
  6 14  1  0
  7  8  1  0
  8  9  1  0
  8 15  1  0
  8 16  1  0
  9 10  1  0
  9 17  1  0
  9 18  1  0
 10 11  2  0
 10 19  1  0
M  RAD  1   6   2
M  END
>  <reaction>  (6) 
rmg_rxn_15443

>  <mol_properties>  (6) 
{"1": {"label": "*4", "atom_type": "N3d"}, "2": {"label": "*3", "atom_type": "Cd"}, "5": {"label": "*1", "atom_type": "Cs"}, "6": {"label": "*0", "atom_type": "O2s"}, "11": {"label": "*2", "atom_type": "H0"}}

>  <type>  (6) 
unop_2

>  <geom_source>  (6) 
Heuristics

$$$$

     RDKit          3D

 19 17  0  0  0  0  0  0  0  0999 V2000
   -3.1946    2.0528   -1.0986 O   0  0  0  0  0  0  0  0  0  0  0  0
   -2.0624    1.5274   -0.5077 N   0  0  0  0  0  0  0  0  0  0  0  0
   -1.0158    2.1313   -0.8730 C   0  0  0  0  0  0  0  0  0  0  0  0
   -3.9023    1.5128   -0.7414 H   0  0  0  0  0  0  0  0  0  0  0  0
   -1.0331    2.9646   -1.5723 H   0  0  0  0  0  0  0  0  0  0  0  0
    1.1052    1.8079    0.6229 C   0  0  0  0  0  3  0  0  0  0  0  0
    1.1052    0.5525    1.2473 O   0  0  0  0  0  0  0  0  0  0  0  0
    1.1052   -0.5087    0.3273 C   0  0  0  0  0  0  0  0  0  0  0  0
    1.1053   -1.8035    1.1080 C   0  0  0  0  0  0  0  0  0  0  0  0
    1.1053   -3.0342    0.2511 C   0  0  0  0  0  0  0  0  0  0  0  0
    1.1053   -3.0342   -0.9494 O   0  0  0  0  0  0  0  0  0  0  0  0
    0.0369    1.9708   -0.1306 H   0  0  0  0  0  0  0  0  0  0  0  0
    1.9955    1.9436   -0.0050 H   0  0  0  0  0  0  0  0  0  0  0  0
    1.1052    2.5640    1.4064 H   0  0  0  0  0  0  0  0  0  0  0  0
    0.2228   -0.4580   -0.3243 H   0  0  0  0  0  0  0  0  0  0  0  0
    1.9877   -0.4580   -0.3243 H   0  0  0  0  0  0  0  0  0  0  0  0
    0.2340   -1.8542    1.7701 H   0  0  0  0  0  0  0  0  0  0  0  0
    1.9765   -1.8542    1.7701 H   0  0  0  0  0  0  0  0  0  0  0  0
    1.1053   -3.9921    0.8118 H   0  0  0  0  0  0  0  0  0  0  0  0
  1  2  1  0
  1  4  1  0
  2  3  2  3
  3  5  1  0
  3 12  1  0
  6  7  1  0
  6 13  1  0
  6 14  1  0
  7  8  1  0
  8  9  1  0
  8 15  1  0
  8 16  1  0
  9 10  1  0
  9 17  1  0
  9 18  1  0
 10 11  2  0
 10 19  1  0
M  RAD  1   6   2
M  END
>  <reaction>  (7) 
rmg_rxn_15443

>  <mol_properties>  (7) 
{"1": {"label": "*4", "atom_type": "N3d"}, "2": {"label": "*3", "atom_type": "Cd"}, "5": {"label": "*1", "atom_type": "Cs"}, "6": {"label": "*0", "atom_type": "O2s"}, "11": {"label": "*2", "atom_type": "H0"}}

>  <type>  (7) 
unop_3

>  <geom_source>  (7) 
Heuristics

$$$$

     RDKit          3D

 19 17  0  0  0  0  0  0  0  0999 V2000
   -2.2238    3.1471   -2.0442 O   0  0  0  0  0  0  0  0  0  0  0  0
   -1.6623    2.9351   -0.8004 N   0  0  0  0  0  0  0  0  0  0  0  0
   -1.2382    1.7534   -0.6693 C   0  0  0  0  0  0  0  0  0  0  0  0
   -2.4992    4.0653   -2.0098 H   0  0  0  0  0  0  0  0  0  0  0  0
   -1.3188    1.0101   -1.4596 H   0  0  0  0  0  0  0  0  0  0  0  0
    0.8828    1.4299    0.8266 C   0  0  0  0  0  3  0  0  0  0  0  0
    0.8828    0.1745    1.4511 O   0  0  0  0  0  0  0  0  0  0  0  0
    0.8828   -0.8866    0.5310 C   0  0  0  0  0  0  0  0  0  0  0  0
    0.8828   -2.1815    1.3118 C   0  0  0  0  0  0  0  0  0  0  0  0
    0.8828   -3.4122    0.4549 C   0  0  0  0  0  0  0  0  0  0  0  0
    0.8828   -3.4122   -0.7456 O   0  0  0  0  0  0  0  0  0  0  0  0
   -0.1855    1.5928    0.0732 H   0  0  0  0  0  0  0  0  0  0  0  0
    1.7731    1.5657    0.1988 H   0  0  0  0  0  0  0  0  0  0  0  0
    0.8828    2.1860    1.6102 H   0  0  0  0  0  0  0  0  0  0  0  0
    0.0004   -0.8360   -0.1205 H   0  0  0  0  0  0  0  0  0  0  0  0
    1.7652   -0.8360   -0.1205 H   0  0  0  0  0  0  0  0  0  0  0  0
    0.0115   -2.2322    1.9739 H   0  0  0  0  0  0  0  0  0  0  0  0
    1.7541   -2.2322    1.9739 H   0  0  0  0  0  0  0  0  0  0  0  0
    0.8828   -4.3700    1.0156 H   0  0  0  0  0  0  0  0  0  0  0  0
  1  2  1  0
  1  4  1  0
  2  3  2  3
  3  5  1  0
  3 12  1  0
  6  7  1  0
  6 13  1  0
  6 14  1  0
  7  8  1  0
  8  9  1  0
  8 15  1  0
  8 16  1  0
  9 10  1  0
  9 17  1  0
  9 18  1  0
 10 11  2  0
 10 19  1  0
M  RAD  1   6   2
M  END
>  <reaction>  (8) 
rmg_rxn_15443

>  <mol_properties>  (8) 
{"1": {"label": "*4", "atom_type": "N3d"}, "2": {"label": "*3", "atom_type": "Cd"}, "5": {"label": "*1", "atom_type": "Cs"}, "6": {"label": "*0", "atom_type": "O2s"}, "11": {"label": "*2", "atom_type": "H0"}}

>  <type>  (8) 
unop_4

>  <geom_source>  (8) 
Heuristics

$$$$

     RDKit          3D

 19 17  0  0  0  0  0  0  0  0999 V2000
   -2.0774    1.9254   -2.5301 O   0  0  0  0  0  0  0  0  0  0  0  0
   -1.4500    1.3520   -1.4417 N   0  0  0  0  0  0  0  0  0  0  0  0
   -1.2920    2.1769   -0.4993 C   0  0  0  0  0  0  0  0  0  0  0  0
   -2.1333    1.2039   -3.1596 H   0  0  0  0  0  0  0  0  0  0  0  0
   -1.6211    3.2118   -0.5642 H   0  0  0  0  0  0  0  0  0  0  0  0
    0.8290    1.8534    0.9966 C   0  0  0  0  0  3  0  0  0  0  0  0
    0.8290    0.5981    1.6211 O   0  0  0  0  0  0  0  0  0  0  0  0
    0.8290   -0.4631    0.7010 C   0  0  0  0  0  0  0  0  0  0  0  0
    0.8290   -1.7580    1.4817 C   0  0  0  0  0  0  0  0  0  0  0  0
    0.8290   -2.9887    0.6249 C   0  0  0  0  0  0  0  0  0  0  0  0
    0.8290   -2.9887   -0.5756 O   0  0  0  0  0  0  0  0  0  0  0  0
   -0.2393    2.0163    0.2432 H   0  0  0  0  0  0  0  0  0  0  0  0
    1.7193    1.9892    0.3688 H   0  0  0  0  0  0  0  0  0  0  0  0
    0.8290    2.6096    1.7801 H   0  0  0  0  0  0  0  0  0  0  0  0
   -0.0534   -0.4125    0.0494 H   0  0  0  0  0  0  0  0  0  0  0  0
    1.7114   -0.4125    0.0494 H   0  0  0  0  0  0  0  0  0  0  0  0
   -0.0422   -1.8087    2.1439 H   0  0  0  0  0  0  0  0  0  0  0  0
    1.7003   -1.8087    2.1439 H   0  0  0  0  0  0  0  0  0  0  0  0
    0.8290   -3.9465    1.1856 H   0  0  0  0  0  0  0  0  0  0  0  0
  1  2  1  0
  1  4  1  0
  2  3  2  3
  3  5  1  0
  3 12  1  0
  6  7  1  0
  6 13  1  0
  6 14  1  0
  7  8  1  0
  8  9  1  0
  8 15  1  0
  8 16  1  0
  9 10  1  0
  9 17  1  0
  9 18  1  0
 10 11  2  0
 10 19  1  0
M  RAD  1   6   2
M  END
>  <reaction>  (9) 
rmg_rxn_15443

>  <mol_properties>  (9) 
{"1": {"label": "*4", "atom_type": "N3d"}, "2": {"label": "*3", "atom_type": "Cd"}, "5": {"label": "*1", "atom_type": "Cs"}, "6": {"label": "*0", "atom_type": "O2s"}, "11": {"label": "*2", "atom_type": "H0"}}

>  <type>  (9) 
unop_5

>  <geom_source>  (9) 
Heuristics

$$$$

     RDKit          3D

 19 17  0  0  0  0  0  0  0  0999 V2000
   -2.4866    2.9607   -1.9901 O   0  0  0  0  0  0  0  0  0  0  0  0
   -1.3348    2.8924   -1.2312 N   0  0  0  0  0  0  0  0  0  0  0  0
   -1.2360    1.7915   -0.6214 C   0  0  0  0  0  0  0  0  0  0  0  0
   -2.4368    3.8304   -2.3914 H   0  0  0  0  0  0  0  0  0  0  0  0
   -1.9850    1.0067   -0.7024 H   0  0  0  0  0  0  0  0  0  0  0  0
    0.8851    1.4681    0.8745 C   0  0  0  0  0  3  0  0  0  0  0  0
    0.8851    0.2127    1.4990 O   0  0  0  0  0  0  0  0  0  0  0  0
    0.8851   -0.8485    0.5789 C   0  0  0  0  0  0  0  0  0  0  0  0
    0.8851   -2.1433    1.3596 C   0  0  0  0  0  0  0  0  0  0  0  0
    0.8851   -3.3740    0.5028 C   0  0  0  0  0  0  0  0  0  0  0  0
    0.8851   -3.3740   -0.6978 O   0  0  0  0  0  0  0  0  0  0  0  0
   -0.1832    1.6310    0.1211 H   0  0  0  0  0  0  0  0  0  0  0  0
    1.7753    1.6038    0.2466 H   0  0  0  0  0  0  0  0  0  0  0  0
    0.8851    2.2242    1.6580 H   0  0  0  0  0  0  0  0  0  0  0  0
    0.0027   -0.7978   -0.0727 H   0  0  0  0  0  0  0  0  0  0  0  0
    1.7675   -0.7978   -0.0727 H   0  0  0  0  0  0  0  0  0  0  0  0
    0.0138   -2.1940    2.0218 H   0  0  0  0  0  0  0  0  0  0  0  0
    1.7563   -2.1940    2.0218 H   0  0  0  0  0  0  0  0  0  0  0  0
    0.8851   -4.3319    1.0635 H   0  0  0  0  0  0  0  0  0  0  0  0
  1  2  1  0
  1  4  1  0
  2  3  2  3
  3  5  1  0
  3 12  1  0
  6  7  1  0
  6 13  1  0
  6 14  1  0
  7  8  1  0
  8  9  1  0
  8 15  1  0
  8 16  1  0
  9 10  1  0
  9 17  1  0
  9 18  1  0
 10 11  2  0
 10 19  1  0
M  RAD  1   6   2
M  END
>  <reaction>  (10) 
rmg_rxn_15443

>  <mol_properties>  (10) 
{"1": {"label": "*4", "atom_type": "N3d"}, "2": {"label": "*3", "atom_type": "Cd"}, "5": {"label": "*1", "atom_type": "Cs"}, "6": {"label": "*0", "atom_type": "O2s"}, "11": {"label": "*2", "atom_type": "H0"}}

>  <type>  (10) 
unop_6

>  <geom_source>  (10) 
Heuristics

$$$$

     RDKit          3D

 19 17  0  0  0  0  0  0  0  0999 V2000
   -1.8694    2.5481   -2.5338 O   0  0  0  0  0  0  0  0  0  0  0  0
   -1.2579    1.6593   -1.6717 N   0  0  0  0  0  0  0  0  0  0  0  0
   -1.3538    2.0275   -0.4680 C   0  0  0  0  0  0  0  0  0  0  0  0
   -1.7247    2.1555   -3.3969 H   0  0  0  0  0  0  0  0  0  0  0  0
   -1.8639    2.9420   -0.1732 H   0  0  0  0  0  0  0  0  0  0  0  0
    0.7672    1.7040    1.0279 C   0  0  0  0  0  3  0  0  0  0  0  0
    0.7672    0.4486    1.6523 O   0  0  0  0  0  0  0  0  0  0  0  0
    0.7672   -0.6126    0.7323 C   0  0  0  0  0  0  0  0  0  0  0  0
    0.7672   -1.9074    1.5130 C   0  0  0  0  0  0  0  0  0  0  0  0
    0.7672   -3.1381    0.6561 C   0  0  0  0  0  0  0  0  0  0  0  0
    0.7672   -3.1381   -0.5444 O   0  0  0  0  0  0  0  0  0  0  0  0
   -0.3011    1.8669    0.2744 H   0  0  0  0  0  0  0  0  0  0  0  0
    1.6575    1.8397    0.4000 H   0  0  0  0  0  0  0  0  0  0  0  0
    0.7672    2.4601    1.8114 H   0  0  0  0  0  0  0  0  0  0  0  0
   -0.1152   -0.5619    0.0807 H   0  0  0  0  0  0  0  0  0  0  0  0
    1.6496   -0.5619    0.0807 H   0  0  0  0  0  0  0  0  0  0  0  0
   -0.1040   -1.9581    2.1751 H   0  0  0  0  0  0  0  0  0  0  0  0
    1.6385   -1.9581    2.1751 H   0  0  0  0  0  0  0  0  0  0  0  0
    0.7672   -4.0959    1.2168 H   0  0  0  0  0  0  0  0  0  0  0  0
  1  2  1  0
  1  4  1  0
  2  3  2  3
  3  5  1  0
  3 12  1  0
  6  7  1  0
  6 13  1  0
  6 14  1  0
  7  8  1  0
  8  9  1  0
  8 15  1  0
  8 16  1  0
  9 10  1  0
  9 17  1  0
  9 18  1  0
 10 11  2  0
 10 19  1  0
M  RAD  1   6   2
M  END
>  <reaction>  (11) 
rmg_rxn_15443

>  <mol_properties>  (11) 
{"1": {"label": "*4", "atom_type": "N3d"}, "2": {"label": "*3", "atom_type": "Cd"}, "5": {"label": "*1", "atom_type": "Cs"}, "6": {"label": "*0", "atom_type": "O2s"}, "11": {"label": "*2", "atom_type": "H0"}}

>  <type>  (11) 
unop_7

>  <geom_source>  (11) 
Heuristics

$$$$

     RDKit          3D

 19 17  0  0  0  0  0  0  0  0999 V2000
    2.9418    1.6751    0.0534 O   0  0  0  0  0  0  0  0  0  0  0  0
    2.0331    0.6495   -0.0564 N   0  0  0  0  0  0  0  0  0  0  0  0
    2.3793   -0.5386   -0.1663 C   0  0  0  0  0  0  0  0  0  0  0  0
    3.8603    1.3470    0.0303 H   0  0  0  0  0  0  0  0  0  0  0  0
    3.3968   -0.9290   -0.1969 H   0  0  0  0  0  0  0  0  0  0  0  0
    0.3830   -2.2513   -0.4489 C   0  0  0  0  0  3  0  0  0  0  0  0
   -0.6496   -1.9963    0.4198 O   0  0  0  0  0  0  0  0  0  0  0  0
   -1.5267   -0.9481    0.0746 C   0  0  0  0  0  0  0  0  0  0  0  0
   -1.0522    0.4154    0.5867 C   0  0  0  0  0  0  0  0  0  0  0  0
   -1.9614    1.5219    0.1589 C   0  0  0  0  0  0  0  0  0  0  0  0
   -2.9100    1.4107   -0.5671 O   0  0  0  0  0  0  0  0  0  0  0  0
    1.4073   -1.3832   -0.2783 H   0  0  0  0  0  0  0  0  0  0  0  0
    0.1215   -2.1381   -1.5023 H   0  0  0  0  0  0  0  0  0  0  0  0
    0.8106   -3.2207   -0.2112 H   0  0  0  0  0  0  0  0  0  0  0  0
   -1.6653   -0.9001   -1.0126 H   0  0  0  0  0  0  0  0  0  0  0  0
   -2.4865   -1.1975    0.5365 H   0  0  0  0  0  0  0  0  0  0  0  0
   -0.0446    0.6428    0.2134 H   0  0  0  0  0  0  0  0  0  0  0  0
   -0.9863    0.4111    1.6769 H   0  0  0  0  0  0  0  0  0  0  0  0
   -1.6715    2.5060    0.5757 H   0  0  0  0  0  0  0  0  0  0  0  0
  1  2  1  0
  1  4  1  0
  2  3  2  3
  3  5  1  0
  3 12  1  0
  6  7  1  0
  6 13  1  0
  6 14  1  0
  7  8  1  0
  8  9  1  0
  8 15  1  0
  8 16  1  0
  9 10  1  0
  9 17  1  0
  9 18  1  0
 10 11  2  0
 10 19  1  0
M  RAD  1   6   2
M  END
>  <reaction>  (12) 
rmg_rxn_15443

>  <mol_properties>  (12) 
{"1": {"label": "*4", "atom_type": "N3d"}, "2": {"label": "*3", "atom_type": "Cd"}, "5": {"label": "*1", "atom_type": "Cs"}, "6": {"label": "*0", "atom_type": "O2s"}, "11": {"label": "*2", "atom_type": "H0"}}

>  <type>  (12) 
unop_8

>  <geom_source>  (12) 
Heuristics

$$$$

     RDKit          3D

 19 17  0  0  0  0  0  0  0  0999 V2000
   -1.9689    3.0783   -2.2377 O   0  0  0  0  0  0  0  0  0  0  0  0
   -1.1495    2.0845   -1.7396 N   0  0  0  0  0  0  0  0  0  0  0  0
   -1.3509    1.8785   -0.5106 C   0  0  0  0  0  0  0  0  0  0  0  0
   -1.7169    3.1316   -3.1616 H   0  0  0  0  0  0  0  0  0  0  0  0
   -2.0896    2.4333    0.0639 H   0  0  0  0  0  0  0  0  0  0  0  0
    0.7702    1.5550    0.9853 C   0  0  0  0  0  3  0  0  0  0  0  0
    0.7702    0.2997    1.6098 O   0  0  0  0  0  0  0  0  0  0  0  0
    0.7702   -0.7615    0.6897 C   0  0  0  0  0  0  0  0  0  0  0  0
    0.7702   -2.0564    1.4704 C   0  0  0  0  0  0  0  0  0  0  0  0
    0.7702   -3.2871    0.6135 C   0  0  0  0  0  0  0  0  0  0  0  0
    0.7702   -3.2871   -0.5870 O   0  0  0  0  0  0  0  0  0  0  0  0
   -0.2981    1.7179    0.2318 H   0  0  0  0  0  0  0  0  0  0  0  0
    1.6604    1.6908    0.3574 H   0  0  0  0  0  0  0  0  0  0  0  0
    0.7702    2.3112    1.7688 H   0  0  0  0  0  0  0  0  0  0  0  0
   -0.1122   -0.7109    0.0381 H   0  0  0  0  0  0  0  0  0  0  0  0
    1.6526   -0.7109    0.0381 H   0  0  0  0  0  0  0  0  0  0  0  0
   -0.1011   -2.1071    2.1326 H   0  0  0  0  0  0  0  0  0  0  0  0
    1.6414   -2.1071    2.1326 H   0  0  0  0  0  0  0  0  0  0  0  0
    0.7702   -4.2449    1.1743 H   0  0  0  0  0  0  0  0  0  0  0  0
  1  2  1  0
  1  4  1  0
  2  3  2  3
  3  5  1  0
  3 12  1  0
  6  7  1  0
  6 13  1  0
  6 14  1  0
  7  8  1  0
  8  9  1  0
  8 15  1  0
  8 16  1  0
  9 10  1  0
  9 17  1  0
  9 18  1  0
 10 11  2  0
 10 19  1  0
M  RAD  1   6   2
M  END
>  <reaction>  (13) 
rmg_rxn_15443

>  <mol_properties>  (13) 
{"1": {"label": "*4", "atom_type": "N3d"}, "2": {"label": "*3", "atom_type": "Cd"}, "5": {"label": "*1", "atom_type": "Cs"}, "6": {"label": "*0", "atom_type": "O2s"}, "11": {"label": "*2", "atom_type": "H0"}}

>  <type>  (13) 
unop_9

>  <geom_source>  (13) 
Heuristics

$$$$

     RDKit          3D

 19 17  0  0  0  0  0  0  0  0999 V2000
   -2.7405    3.2365   -1.1498 O   0  0  0  0  0  0  0  0  0  0  0  0
   -2.1021    2.3266   -0.3304 N   0  0  0  0  0  0  0  0  0  0  0  0
   -1.0897    1.8187   -0.8877 C   0  0  0  0  0  0  0  0  0  0  0  0
   -3.4761    3.5397   -0.6141 H   0  0  0  0  0  0  0  0  0  0  0  0
   -0.7796    2.0850   -1.8959 H   0  0  0  0  0  0  0  0  0  0  0  0
    1.0314    1.4952    0.6082 C   0  0  0  0  0  3  0  0  0  0  0  0
    1.0314    0.2399    1.2327 O   0  0  0  0  0  0  0  0  0  0  0  0
    1.0314   -0.8213    0.3126 C   0  0  0  0  0  0  0  0  0  0  0  0
    1.0314   -2.1162    1.0933 C   0  0  0  0  0  0  0  0  0  0  0  0
    1.0314   -3.3468    0.2365 C   0  0  0  0  0  0  0  0  0  0  0  0
    1.0314   -3.3468   -0.9640 O   0  0  0  0  0  0  0  0  0  0  0  0
   -0.0369    1.6581   -0.1452 H   0  0  0  0  0  0  0  0  0  0  0  0
    1.9216    1.6310   -0.0196 H   0  0  0  0  0  0  0  0  0  0  0  0
    1.0314    2.2514    1.3917 H   0  0  0  0  0  0  0  0  0  0  0  0
    0.1490   -0.7707   -0.3390 H   0  0  0  0  0  0  0  0  0  0  0  0
    1.9138   -0.7707   -0.3390 H   0  0  0  0  0  0  0  0  0  0  0  0
    0.1601   -2.1668    1.7555 H   0  0  0  0  0  0  0  0  0  0  0  0
    1.9026   -2.1668    1.7555 H   0  0  0  0  0  0  0  0  0  0  0  0
    1.0314   -4.3047    0.7972 H   0  0  0  0  0  0  0  0  0  0  0  0
  1  2  1  0
  1  4  1  0
  2  3  2  3
  3  5  1  0
  3 12  1  0
  6  7  1  0
  6 13  1  0
  6 14  1  0
  7  8  1  0
  8  9  1  0
  8 15  1  0
  8 16  1  0
  9 10  1  0
  9 17  1  0
  9 18  1  0
 10 11  2  0
 10 19  1  0
M  RAD  1   6   2
M  END
>  <reaction>  (14) 
rmg_rxn_15443

>  <mol_properties>  (14) 
{"1": {"label": "*4", "atom_type": "N3d"}, "2": {"label": "*3", "atom_type": "Cd"}, "5": {"label": "*1", "atom_type": "Cs"}, "6": {"label": "*0", "atom_type": "O2s"}, "11": {"label": "*2", "atom_type": "H0"}}

>  <type>  (14) 
unop_10

>  <geom_source>  (14) 
Heuristics

$$$$

     RDKit          3D

 19 17  0  0  0  0  0  0  0  0999 V2000
   -2.9431   -1.6730   -0.0542 O   0  0  0  0  0  0  0  0  0  0  0  0
   -2.0334   -0.6480    0.0539 N   0  0  0  0  0  0  0  0  0  0  0  0
   -2.3784    0.5398    0.1689 C   0  0  0  0  0  0  0  0  0  0  0  0
   -3.8612   -1.3445   -0.0254 H   0  0  0  0  0  0  0  0  0  0  0  0
   -3.3955    0.9306    0.2059 H   0  0  0  0  0  0  0  0  0  0  0  0
   -0.3801    2.2504    0.4506 C   0  0  0  0  0  3  0  0  0  0  0  0
    0.6510    1.9963   -0.4201 O   0  0  0  0  0  0  0  0  0  0  0  0
    1.5286    0.9477   -0.0775 C   0  0  0  0  0  0  0  0  0  0  0  0
    1.0525   -0.4156   -0.5885 C   0  0  0  0  0  0  0  0  0  0  0  0
    1.9591   -1.5232   -0.1581 C   0  0  0  0  0  0  0  0  0  0  0  0
    2.9066   -1.4129    0.5695 O   0  0  0  0  0  0  0  0  0  0  0  0
   -1.4055    1.3835    0.2798 H   0  0  0  0  0  0  0  0  0  0  0  0
   -0.8074    3.2207    0.2156 H   0  0  0  0  0  0  0  0  0  0  0  0
   -0.1172    2.1348    1.5034 H   0  0  0  0  0  0  0  0  0  0  0  0
    2.4873    1.1970   -0.5417 H   0  0  0  0  0  0  0  0  0  0  0  0
    1.6700    0.8993    1.0094 H   0  0  0  0  0  0  0  0  0  0  0  0
    0.9878   -0.4127   -1.6788 H   0  0  0  0  0  0  0  0  0  0  0  0
    0.0441   -0.6410   -0.2162 H   0  0  0  0  0  0  0  0  0  0  0  0
    1.6683   -2.5073   -0.5743 H   0  0  0  0  0  0  0  0  0  0  0  0
  1  2  1  0
  1  4  1  0
  2  3  2  3
  3  5  1  0
  3 12  1  0
  6  7  1  0
  6 13  1  0
  6 14  1  0
  7  8  1  0
  8  9  1  0
  8 15  1  0
  8 16  1  0
  9 10  1  0
  9 17  1  0
  9 18  1  0
 10 11  2  0
 10 19  1  0
M  RAD  1   6   2
M  END
>  <reaction>  (15) 
rmg_rxn_15443

>  <mol_properties>  (15) 
{"1": {"label": "*4", "atom_type": "N3d"}, "2": {"label": "*3", "atom_type": "Cd"}, "5": {"label": "*1", "atom_type": "Cs"}, "6": {"label": "*0", "atom_type": "O2s"}, "11": {"label": "*2", "atom_type": "H0"}}

>  <type>  (15) 
unop_11

>  <geom_source>  (15) 
Heuristics

$$$$

     RDKit          3D

 19 17  0  0  0  0  0  0  0  0999 V2000
   -2.5164    1.5168   -2.1761 O   0  0  0  0  0  0  0  0  0  0  0  0
   -1.6776    1.2233   -1.1191 N   0  0  0  0  0  0  0  0  0  0  0  0
   -1.1852    2.2652   -0.6039 C   0  0  0  0  0  0  0  0  0  0  0  0
   -2.8152    0.6535   -2.4687 H   0  0  0  0  0  0  0  0  0  0  0  0
   -1.4123    3.2643   -0.9699 H   0  0  0  0  0  0  0  0  0  0  0  0
    0.9358    1.9418    0.8920 C   0  0  0  0  0  3  0  0  0  0  0  0
    0.9358    0.6864    1.5165 O   0  0  0  0  0  0  0  0  0  0  0  0
    0.9358   -0.3748    0.5964 C   0  0  0  0  0  0  0  0  0  0  0  0
    0.9358   -1.6696    1.3771 C   0  0  0  0  0  0  0  0  0  0  0  0
    0.9358   -2.9003    0.5203 C   0  0  0  0  0  0  0  0  0  0  0  0
    0.9358   -2.9003   -0.6802 O   0  0  0  0  0  0  0  0  0  0  0  0
   -0.1325    2.1047    0.1386 H   0  0  0  0  0  0  0  0  0  0  0  0
    1.8261    2.0775    0.2642 H   0  0  0  0  0  0  0  0  0  0  0  0
    0.9358    2.6979    1.6755 H   0  0  0  0  0  0  0  0  0  0  0  0
    0.0534   -0.3241   -0.0552 H   0  0  0  0  0  0  0  0  0  0  0  0
    1.8182   -0.3241   -0.0552 H   0  0  0  0  0  0  0  0  0  0  0  0
    0.0646   -1.7203    2.0393 H   0  0  0  0  0  0  0  0  0  0  0  0
    1.8071   -1.7203    2.0393 H   0  0  0  0  0  0  0  0  0  0  0  0
    0.9358   -3.8582    1.0810 H   0  0  0  0  0  0  0  0  0  0  0  0
  1  2  1  0
  1  4  1  0
  2  3  2  3
  3  5  1  0
  3 12  1  0
  6  7  1  0
  6 13  1  0
  6 14  1  0
  7  8  1  0
  8  9  1  0
  8 15  1  0
  8 16  1  0
  9 10  1  0
  9 17  1  0
  9 18  1  0
 10 11  2  0
 10 19  1  0
M  RAD  1   6   2
M  END
>  <reaction>  (16) 
rmg_rxn_15443

>  <mol_properties>  (16) 
{"1": {"label": "*4", "atom_type": "N3d"}, "2": {"label": "*3", "atom_type": "Cd"}, "5": {"label": "*1", "atom_type": "Cs"}, "6": {"label": "*0", "atom_type": "O2s"}, "11": {"label": "*2", "atom_type": "H0"}}

>  <type>  (16) 
unop_12

>  <geom_source>  (16) 
Heuristics

$$$$

     RDKit          3D

 19 17  0  0  0  0  0  0  0  0999 V2000
   -3.0826    2.7199   -0.9330 O   0  0  0  0  0  0  0  0  0  0  0  0
   -2.1425    1.8993   -0.3414 N   0  0  0  0  0  0  0  0  0  0  0  0
   -1.0247    1.9656   -0.9240 C   0  0  0  0  0  0  0  0  0  0  0  0
   -3.8686    2.5754   -0.4025 H   0  0  0  0  0  0  0  0  0  0  0  0
   -0.8506    2.6028   -1.7885 H   0  0  0  0  0  0  0  0  0  0  0  0
    1.0964    1.6421    0.5719 C   0  0  0  0  0  3  0  0  0  0  0  0
    1.0964    0.3868    1.1963 O   0  0  0  0  0  0  0  0  0  0  0  0
    1.0964   -0.6744    0.2763 C   0  0  0  0  0  0  0  0  0  0  0  0
    1.0964   -1.9693    1.0570 C   0  0  0  0  0  0  0  0  0  0  0  0
    1.0964   -3.2000    0.2001 C   0  0  0  0  0  0  0  0  0  0  0  0
    1.0964   -3.2000   -1.0004 O   0  0  0  0  0  0  0  0  0  0  0  0
    0.0281    1.8050   -0.1816 H   0  0  0  0  0  0  0  0  0  0  0  0
    1.9866    1.7779   -0.0560 H   0  0  0  0  0  0  0  0  0  0  0  0
    1.0964    2.3983    1.3554 H   0  0  0  0  0  0  0  0  0  0  0  0
    0.2140   -0.6238   -0.3753 H   0  0  0  0  0  0  0  0  0  0  0  0
    1.9788   -0.6238   -0.3753 H   0  0  0  0  0  0  0  0  0  0  0  0
    0.2251   -2.0199    1.7191 H   0  0  0  0  0  0  0  0  0  0  0  0
    1.9677   -2.0199    1.7191 H   0  0  0  0  0  0  0  0  0  0  0  0
    1.0964   -4.1578    0.7608 H   0  0  0  0  0  0  0  0  0  0  0  0
  1  2  1  0
  1  4  1  0
  2  3  2  3
  3  5  1  0
  3 12  1  0
  6  7  1  0
  6 13  1  0
  6 14  1  0
  7  8  1  0
  8  9  1  0
  8 15  1  0
  8 16  1  0
  9 10  1  0
  9 17  1  0
  9 18  1  0
 10 11  2  0
 10 19  1  0
M  RAD  1   6   2
M  END
>  <reaction>  (17) 
rmg_rxn_15443

>  <mol_properties>  (17) 
{"1": {"label": "*4", "atom_type": "N3d"}, "2": {"label": "*3", "atom_type": "Cd"}, "5": {"label": "*1", "atom_type": "Cs"}, "6": {"label": "*0", "atom_type": "O2s"}, "11": {"label": "*2", "atom_type": "H0"}}

>  <type>  (17) 
unop_13

>  <geom_source>  (17) 
Heuristics

$$$$

     RDKit          3D

 19 17  0  0  0  0  0  0  0  0999 V2000
   -2.3209    3.2238   -1.8900 O   0  0  0  0  0  0  0  0  0  0  0  0
   -1.1583    2.5367   -1.6013 N   0  0  0  0  0  0  0  0  0  0  0  0
   -1.2884    1.7930   -0.5896 C   0  0  0  0  0  0  0  0  0  0  0  0
   -2.0874    3.7398   -2.6641 H   0  0  0  0  0  0  0  0  0  0  0  0
   -2.2185    1.7212   -0.0300 H   0  0  0  0  0  0  0  0  0  0  0  0
    0.8327    1.4695    0.9063 C   0  0  0  0  0  3  0  0  0  0  0  0
    0.8327    0.2142    1.5307 O   0  0  0  0  0  0  0  0  0  0  0  0
    0.8327   -0.8470    0.6107 C   0  0  0  0  0  0  0  0  0  0  0  0
    0.8327   -2.1419    1.3914 C   0  0  0  0  0  0  0  0  0  0  0  0
    0.8327   -3.3726    0.5345 C   0  0  0  0  0  0  0  0  0  0  0  0
    0.8327   -3.3726   -0.6660 O   0  0  0  0  0  0  0  0  0  0  0  0
   -0.2356    1.6324    0.1528 H   0  0  0  0  0  0  0  0  0  0  0  0
    1.7229    1.6053    0.2784 H   0  0  0  0  0  0  0  0  0  0  0  0
    0.8327    2.2257    1.6898 H   0  0  0  0  0  0  0  0  0  0  0  0
   -0.0497   -0.7964   -0.0409 H   0  0  0  0  0  0  0  0  0  0  0  0
    1.7151   -0.7964   -0.0409 H   0  0  0  0  0  0  0  0  0  0  0  0
   -0.0386   -2.1926    2.0535 H   0  0  0  0  0  0  0  0  0  0  0  0
    1.7040   -2.1926    2.0535 H   0  0  0  0  0  0  0  0  0  0  0  0
    0.8327   -4.3304    1.0952 H   0  0  0  0  0  0  0  0  0  0  0  0
  1  2  1  0
  1  4  1  0
  2  3  2  3
  3  5  1  0
  3 12  1  0
  6  7  1  0
  6 13  1  0
  6 14  1  0
  7  8  1  0
  8  9  1  0
  8 15  1  0
  8 16  1  0
  9 10  1  0
  9 17  1  0
  9 18  1  0
 10 11  2  0
 10 19  1  0
M  RAD  1   6   2
M  END
>  <reaction>  (18) 
rmg_rxn_15443

>  <mol_properties>  (18) 
{"1": {"label": "*4", "atom_type": "N3d"}, "2": {"label": "*3", "atom_type": "Cd"}, "5": {"label": "*1", "atom_type": "Cs"}, "6": {"label": "*0", "atom_type": "O2s"}, "11": {"label": "*2", "atom_type": "H0"}}

>  <type>  (18) 
unop_14

>  <geom_source>  (18) 
Heuristics

$$$$

     RDKit          3D

 19 17  0  0  0  0  0  0  0  0999 V2000
   -2.9748    1.5602   -1.6007 O   0  0  0  0  0  0  0  0  0  0  0  0
   -1.8941    1.2880   -0.7851 N   0  0  0  0  0  0  0  0  0  0  0  0
   -1.0765    2.2491   -0.7486 C   0  0  0  0  0  0  0  0  0  0  0  0
   -3.5058    0.7638   -1.5388 H   0  0  0  0  0  0  0  0  0  0  0  0
   -1.2303    3.1716   -1.3043 H   0  0  0  0  0  0  0  0  0  0  0  0
    1.0446    1.9256    0.7473 C   0  0  0  0  0  3  0  0  0  0  0  0
    1.0446    0.6702    1.3718 O   0  0  0  0  0  0  0  0  0  0  0  0
    1.0446   -0.3909    0.4517 C   0  0  0  0  0  0  0  0  0  0  0  0
    1.0446   -1.6858    1.2324 C   0  0  0  0  0  0  0  0  0  0  0  0
    1.0446   -2.9165    0.3756 C   0  0  0  0  0  0  0  0  0  0  0  0
    1.0446   -2.9165   -0.8250 O   0  0  0  0  0  0  0  0  0  0  0  0
   -0.0237    2.0885   -0.0061 H   0  0  0  0  0  0  0  0  0  0  0  0
    1.9348    2.0614    0.1194 H   0  0  0  0  0  0  0  0  0  0  0  0
    1.0446    2.6817    1.5308 H   0  0  0  0  0  0  0  0  0  0  0  0
    0.1622   -0.3403   -0.1999 H   0  0  0  0  0  0  0  0  0  0  0  0
    1.9270   -0.3403   -0.1999 H   0  0  0  0  0  0  0  0  0  0  0  0
    0.1733   -1.7365    1.8946 H   0  0  0  0  0  0  0  0  0  0  0  0
    1.9158   -1.7365    1.8946 H   0  0  0  0  0  0  0  0  0  0  0  0
    1.0446   -3.8743    0.9363 H   0  0  0  0  0  0  0  0  0  0  0  0
  1  2  1  0
  1  4  1  0
  2  3  2  3
  3  5  1  0
  3 12  1  0
  6  7  1  0
  6 13  1  0
  6 14  1  0
  7  8  1  0
  8  9  1  0
  8 15  1  0
  8 16  1  0
  9 10  1  0
  9 17  1  0
  9 18  1  0
 10 11  2  0
 10 19  1  0
M  RAD  1   6   2
M  END
>  <reaction>  (19) 
rmg_rxn_15443

>  <mol_properties>  (19) 
{"1": {"label": "*4", "atom_type": "N3d"}, "2": {"label": "*3", "atom_type": "Cd"}, "5": {"label": "*1", "atom_type": "Cs"}, "6": {"label": "*0", "atom_type": "O2s"}, "11": {"label": "*2", "atom_type": "H0"}}

>  <type>  (19) 
unop_15

>  <geom_source>  (19) 
Heuristics

$$$$

     RDKit          3D

 19 17  0  0  0  0  0  0  0  0999 V2000
   -0.2851    0.1814   -0.4622 O   0  0  0  0  0  0  0  0  0  0  0  0
    4.3725    0.5607   -0.1885 O   0  0  0  0  0  0  0  0  0  0  0  0
   -2.6403    1.1825    1.9743 O   0  0  0  0  0  0  0  0  0  0  0  0
    4.0417   -0.4492    0.6896 N   0  0  0  0  0  0  0  0  0  0  0  0
   -2.5957    0.8396   -0.3667 C   0  0  0  0  0  0  0  0  0  0  0  0
   -1.6037   -0.3224   -0.4180 C   0  0  0  0  0  0  0  0  0  0  0  0
   -2.4165    1.6630    0.8746 C   0  0  0  0  0  0  0  0  0  0  0  0
    0.6192   -0.8982   -0.4979 C   0  0  0  0  0  3  0  0  0  0  0  0
    2.8673   -0.9922    0.6885 C   0  0  0  0  0  0  0  0  0  0  0  0
   -2.4502    1.4859   -1.2591 H   0  0  0  0  0  0  0  0  0  0  0  0
   -3.6336    0.4432   -0.3939 H   0  0  0  0  0  0  0  0  0  0  0  0
   -1.7571   -0.9684    0.4777 H   0  0  0  0  0  0  0  0  0  0  0  0
   -1.8234   -0.9184   -1.3335 H   0  0  0  0  0  0  0  0  0  0  0  0
   -2.0988    2.6977    0.7968 H   0  0  0  0  0  0  0  0  0  0  0  0
    2.6403   -1.7826    1.3907 H   0  0  0  0  0  0  0  0  0  0  0  0
    1.9864   -0.6130   -0.1184 H   0  0  0  0  0  0  0  0  0  0  0  0
    0.4982   -1.5129   -1.4174 H   0  0  0  0  0  0  0  0  0  0  0  0
    0.5726   -1.5104    0.4299 H   0  0  0  0  0  0  0  0  0  0  0  0
    3.7063    0.9137   -0.8666 H   0  0  0  0  0  0  0  0  0  0  0  0
  1  8  1  0
  1  6  1  0
  2  4  1  0
  2 19  1  0
  3  7  2  0
  4  9  2  3
  5  7  1  0
  5  6  1  0
  5 10  1  0
  5 11  1  0
  6 12  1  0
  6 13  1  0
  7 14  1  0
  8 17  1  0
  8 18  1  0
  9 15  1  0
  9 16  1  0
M  RAD  1   8   2
M  END
>  <reaction>  (20) 
rmg_rxn_15443

>  <mol_properties>  (20) 
{"1": {"label": "*4", "atom_type": "N3d"}, "2": {"label": "*3", "atom_type": "Cd"}, "5": {"label": "*1", "atom_type": "Cs"}, "6": {"label": "*0", "atom_type": "O2s"}, "11": {"label": "*2", "atom_type": "H0"}}

>  <type>  (20) 
unop_16

>  <geom_source>  (20) 
AutoTST

$$$$

     RDKit          3D

 19 17  0  0  0  0  0  0  0  0999 V2000
   -3.1946    2.0528   -1.0986 O   0  0  0  0  0  0  0  0  0  0  0  0
   -2.0624    1.5274   -0.5077 N   0  0  0  0  0  0  0  0  0  0  0  0
   -1.0158    2.1313   -0.8730 C   0  0  0  0  0  0  0  0  0  0  0  0
   -3.9023    1.5128   -0.7414 H   0  0  0  0  0  0  0  0  0  0  0  0
   -1.0332    2.9646   -1.5723 H   0  0  0  0  0  0  0  0  0  0  0  0
    1.1053    1.8079    0.6229 C   0  0  0  0  0  3  0  0  0  0  0  0
    1.1053    0.5525    1.2473 O   0  0  0  0  0  0  0  0  0  0  0  0
    1.1053   -0.5087    0.3273 C   0  0  0  0  0  0  0  0  0  0  0  0
    1.1053   -1.8035    1.1080 C   0  0  0  0  0  0  0  0  0  0  0  0
    1.1053   -3.0342    0.2511 C   0  0  0  0  0  0  0  0  0  0  0  0
    1.1053   -3.0342   -0.9494 O   0  0  0  0  0  0  0  0  0  0  0  0
    0.0369    1.9708   -0.1306 H   0  0  0  0  0  0  0  0  0  0  0  0
    1.9955    1.9436   -0.0050 H   0  0  0  0  0  0  0  0  0  0  0  0
    1.1053    2.5640    1.4064 H   0  0  0  0  0  0  0  0  0  0  0  0
    0.2228   -0.4580   -0.3243 H   0  0  0  0  0  0  0  0  0  0  0  0
    1.9876   -0.4580   -0.3243 H   0  0  0  0  0  0  0  0  0  0  0  0
    0.2340   -1.8542    1.7701 H   0  0  0  0  0  0  0  0  0  0  0  0
    1.9765   -1.8542    1.7701 H   0  0  0  0  0  0  0  0  0  0  0  0
    1.1053   -3.9920    0.8118 H   0  0  0  0  0  0  0  0  0  0  0  0
  1  2  1  0
  1  4  1  0
  2  3  2  3
  3  5  1  0
  3 12  1  0
  6  7  1  0
  6 13  1  0
  6 14  1  0
  7  8  1  0
  8  9  1  0
  8 15  1  0
  8 16  1  0
  9 10  1  0
  9 17  1  0
  9 18  1  0
 10 11  2  0
 10 19  1  0
M  RAD  1   6   2
M  END
>  <reaction>  (21) 
rmg_rxn_15443

>  <mol_properties>  (21) 
{"1": {"label": "*4", "atom_type": "N3d"}, "2": {"label": "*3", "atom_type": "Cd"}, "5": {"label": "*1", "atom_type": "Cs"}, "6": {"label": "*0", "atom_type": "O2s"}, "11": {"label": "*2", "atom_type": "H0"}}

>  <type>  (21) 
unop_17

>  <geom_source>  (21) 
gaussian_log

$$$$
