
     RDKit          3D

 15 14  0  0  0  0  0  0  0  0999 V2000
   -2.0554    0.0723   -0.4910 C   0  0  0  0  0  0  0  0  0  0  0  0
   -0.7461   -0.6266   -0.8178 C   0  0  0  0  0  0  0  0  0  0  0  0
    0.3249    0.2591   -1.9782 S   0  0  0  0  0  0  0  0  0  0  0  0
   -0.7172    0.3642   -3.4551 C   0  0  0  0  0  0  0  0  0  0  0  0
   -1.1375   -0.9737   -4.0409 C   0  0  0  0  0  0  0  0  0  0  0  0
   -2.7005    0.1427   -1.3684 H   0  0  0  0  0  0  0  0  0  0  0  0
   -2.6016   -0.4848    0.2733 H   0  0  0  0  0  0  0  0  0  0  0  0
   -1.8758    1.0825   -0.1213 H   0  0  0  0  0  0  0  0  0  0  0  0
   -0.1320   -0.7246    0.0789 H   0  0  0  0  0  0  0  0  0  0  0  0
   -0.9254   -1.6374   -1.1879 H   0  0  0  0  0  0  0  0  0  0  0  0
   -1.5873    0.9874   -3.2422 H   0  0  0  0  0  0  0  0  0  0  0  0
   -0.1021    0.9161   -4.1678 H   0  0  0  0  0  0  0  0  0  0  0  0
   -1.7876   -1.5224   -3.3574 H   0  0  0  0  0  0  0  0  0  0  0  0
   -0.2676   -1.5962   -4.2534 H   0  0  0  0  0  0  0  0  0  0  0  0
   -1.6916   -0.8229   -4.9700 H   0  0  0  0  0  0  0  0  0  0  0  0
  1  2  1  0
  1  6  1  0
  1  7  1  0
  1  8  1  0
  2  3  1  0
  2  9  1  0
  2 10  1  0
  3  4  1  0
  4  5  1  0
  4 11  1  0
  4 12  1  0
  5 13  1  0
  5 14  1  0
  5 15  1  0
M  END
>  <reaction>  (1) 
rmg_rxn_65

>  <mol_properties>  (1) 
{"1": {"label": "donator", "atom_type": "Cs"}, "8": {"label": "d_hydrogen", "atom_type": "H0"}}

>  <type>  (1) 
r1h

$$$$

     RDKit          3D

 13 13  0  0  0  0  0  0  0  0999 V2000
    0.5794    1.5990    0.2108 C   0  0  0  0  0  3  0  0  0  0  0  0
    1.4528    0.6621   -0.2496 O   0  0  0  0  0  0  0  0  0  0  0  0
    1.0751   -0.6763    0.0423 C   0  0  0  0  0  0  0  0  0  0  0  0
   -0.3579   -0.9282   -0.3924 C   0  0  0  0  0  0  0  0  0  0  0  0
   -1.2426    0.1393    0.2269 C   0  0  0  0  0  0  0  0  0  0  0  0
   -0.7410    1.4341   -0.0749 O   0  0  0  0  0  0  0  0  0  0  0  0
    0.9183    2.6078    0.0084 H   0  0  0  0  0  0  0  0  0  0  0  0
    1.1839   -0.8508    1.1199 H   0  0  0  0  0  0  0  0  0  0  0  0
    1.7816   -1.3130   -0.4874 H   0  0  0  0  0  0  0  0  0  0  0  0
   -0.6818   -1.9210   -0.0736 H   0  0  0  0  0  0  0  0  0  0  0  0
   -0.4271   -0.8785   -1.4810 H   0  0  0  0  0  0  0  0  0  0  0  0
   -1.2832    0.0173    1.3164 H   0  0  0  0  0  0  0  0  0  0  0  0
   -2.2575    0.1083   -0.1657 H   0  0  0  0  0  0  0  0  0  0  0  0
  1  2  1  0
  1  6  1  0
  1  7  1  0
  2  3  1  0
  3  4  1  0
  3  8  1  0
  3  9  1  0
  4  5  1  0
  4 10  1  0
  4 11  1  0
  5  6  1  0
  5 12  1  0
  5 13  1  0
M  RAD  1   1   2
M  END
>  <reaction>  (2) 
rmg_rxn_65

>  <mol_properties>  (2) 
{"0": {"label": "acceptor", "atom_type": "Cs"}}

>  <type>  (2) 
r2

$$$$

     RDKit          3D

 14 14  0  0  0  0  0  0  0  0999 V2000
   -1.1778    0.2241    0.1818 C   0  0  0  0  0  0  0  0  0  0  0  0
   -0.5633   -1.1636    0.0678 C   0  0  0  0  0  0  0  0  0  0  0  0
    0.6943   -1.1996    0.7146 O   0  0  0  0  0  0  0  0  0  0  0  0
    1.5547   -0.2288    0.2011 C   0  0  0  0  0  0  0  0  0  0  0  0
    1.0729    1.0696    0.3698 O   0  0  0  0  0  0  0  0  0  0  0  0
   -0.1607    1.2493   -0.2989 C   0  0  0  0  0  0  0  0  0  0  0  0
   -2.0927    0.2866   -0.4117 H   0  0  0  0  0  0  0  0  0  0  0  0
   -1.4303    0.4248    1.2248 H   0  0  0  0  0  0  0  0  0  0  0  0
   -1.1822   -1.9235    0.5431 H   0  0  0  0  0  0  0  0  0  0  0  0
   -0.4389   -1.4347   -0.9919 H   0  0  0  0  0  0  0  0  0  0  0  0
    1.7250   -0.4207   -0.8742 H   0  0  0  0  0  0  0  0  0  0  0  0
    2.4896   -0.3010    0.7524 H   0  0  0  0  0  0  0  0  0  0  0  0
   -0.0080    1.1481   -1.3844 H   0  0  0  0  0  0  0  0  0  0  0  0
   -0.4826    2.2695   -0.0942 H   0  0  0  0  0  0  0  0  0  0  0  0
  1  2  1  0
  1  6  1  0
  1  7  1  0
  1  8  1  0
  2  3  1  0
  2  9  1  0
  2 10  1  0
  3  4  1  0
  4  5  1  0
  4 11  1  0
  4 12  1  0
  5  6  1  0
  6 13  1  0
  6 14  1  0
M  END
>  <reaction>  (3) 
rmg_rxn_65

>  <mol_properties>  (3) 
{"0": {"label": "acceptor", "atom_type": "Cs"}, "13": {"label": "a_hydrogen", "atom_type": "H0"}}

>  <type>  (3) 
r2h

$$$$

     RDKit          3D

 28 27  0  0  0  0  0  0  0  0999 V2000
   -0.2272   -0.1572    0.6280 C   0  0  0  0  0  3  0  0  0  0  0  0
   -1.3729    0.4727    1.0561 O   0  0  0  0  0  0  0  0  0  0  0  0
   -2.0900   -0.3034    2.0089 C   0  0  0  0  0  0  0  0  0  0  0  0
   -2.3885   -1.6825    1.4425 C   0  0  0  0  0  0  0  0  0  0  0  0
   -1.0933   -2.2934    0.9312 C   0  0  0  0  0  0  0  0  0  0  0  0
   -0.4434   -1.3884    0.0468 O   0  0  0  0  0  0  0  0  0  0  0  0
    0.5588   -0.1839    1.3998 H   0  0  0  0  0  0  0  0  0  0  0  0
   -1.4932   -0.3894    2.9281 H   0  0  0  0  0  0  0  0  0  0  0  0
   -2.9991    0.2502    2.2392 H   0  0  0  0  0  0  0  0  0  0  0  0
   -2.8332   -2.3206    2.2095 H   0  0  0  0  0  0  0  0  0  0  0  0
   -3.0982   -1.5917    0.6178 H   0  0  0  0  0  0  0  0  0  0  0  0
   -1.2671   -3.2087    0.3672 H   0  0  0  0  0  0  0  0  0  0  0  0
   -0.4222   -2.5241    1.7708 H   0  0  0  0  0  0  0  0  0  0  0  0
   -0.4091    2.5380   -1.3738 C   0  0  0  0  0  0  0  0  0  0  0  0
    0.5765    1.3950   -1.4192 C   0  0  0  0  0  0  0  0  0  0  0  0
    2.2628    1.9250   -1.2500 S   0  0  0  0  0  0  0  0  0  0  0  0
    3.1568    0.4297   -1.7371 C   0  0  0  0  0  0  0  0  0  0  0  0
    3.0113   -0.7466   -0.7848 C   0  0  0  0  0  0  0  0  0  0  0  0
   -0.3018    3.1951   -2.2405 H   0  0  0  0  0  0  0  0  0  0  0  0
   -1.4272    2.1473   -1.3565 H   0  0  0  0  0  0  0  0  0  0  0  0
   -0.2710    3.1380   -0.4725 H   0  0  0  0  0  0  0  0  0  0  0  0
    0.2695    0.6427   -0.4214 H   0  0  0  0  0  0  0  0  0  0  0  0
    0.4480    0.7423   -2.2843 H   0  0  0  0  0  0  0  0  0  0  0  0
    2.8411    0.1557   -2.7461 H   0  0  0  0  0  0  0  0  0  0  0  0
    4.1991    0.7465   -1.8014 H   0  0  0  0  0  0  0  0  0  0  0  0
    1.9829   -1.1073   -0.7490 H   0  0  0  0  0  0  0  0  0  0  0  0
    3.3110   -0.4655    0.2259 H   0  0  0  0  0  0  0  0  0  0  0  0
    3.6439   -1.5749   -1.1130 H   0  0  0  0  0  0  0  0  0  0  0  0
  1  2  1  0
  1  6  1  0
  1  7  1  0
  2  3  1  0
  3  4  1  0
  3  8  1  0
  3  9  1  0
  4  5  1  0
  4 10  1  0
  4 11  1  0
  5  6  1  0
  5 12  1  0
  5 13  1  0
 14 15  1  0
 14 19  1  0
 14 20  1  0
 14 21  1  0
 15 16  1  0
 15 22  1  0
 15 23  1  0
 16 17  1  0
 17 18  1  0
 17 24  1  0
 17 25  1  0
 18 26  1  0
 18 27  1  0
 18 28  1  0
M  RAD  1   1   2
M  END
>  <reaction>  (4) 
rmg_rxn_65

>  <mol_properties>  (4) 
{"0": {"label": "*3", "atom_type": "Cs"}, "1": {"label": "*4", "atom_type": "O2s"}, "14": {"label": "*1", "atom_type": "Cs"}, "15": {"label": "*0", "atom_type": "S2s"}, "21": {"label": "*2", "atom_type": "H0"}}

>  <type>  (4) 
ts

$$$$

     RDKit          3D

 28 27  0  0  0  0  0  0  0  0999 V2000
   -1.3892   -1.1950   -0.2489 C   0  0  0  0  0  0  0  0  0  0  0  0
   -1.0049   -2.2938    0.5201 O   0  0  0  0  0  0  0  0  0  0  0  0
   -1.8082   -2.4149    1.6783 C   0  0  0  0  0  0  0  0  0  0  0  0
   -1.7549   -1.1323    2.4961 C   0  0  0  0  0  0  0  0  0  0  0  0
   -2.0857    0.0413    1.5853 C   0  0  0  0  0  0  0  0  0  0  0  0
   -1.2659    0.0161    0.4326 O   0  0  0  0  0  0  0  0  0  0  0  0
   -2.4361   -1.3258   -0.5789 H   0  0  0  0  0  0  0  0  0  0  0  0
   -2.8466   -2.6311    1.3838 H   0  0  0  0  0  0  0  0  0  0  0  0
   -1.4275   -3.2696    2.2359 H   0  0  0  0  0  0  0  0  0  0  0  0
   -2.4606   -1.1806    3.3285 H   0  0  0  0  0  0  0  0  0  0  0  0
   -0.7505   -1.0034    2.9041 H   0  0  0  0  0  0  0  0  0  0  0  0
   -1.9098    0.9986    2.0742 H   0  0  0  0  0  0  0  0  0  0  0  0
   -3.1437   -0.0020    1.2842 H   0  0  0  0  0  0  0  0  0  0  0  0
    0.7942   -0.0836   -2.6822 C   0  0  0  0  0  0  0  0  0  0  0  0
    0.7942   -0.0836   -1.1625 C   0  0  0  0  0  3  0  0  0  0  0  0
    0.7942    1.5575   -0.3976 S   0  0  0  0  0  0  0  0  0  0  0  0
    2.3347    2.2715   -1.0262 C   0  0  0  0  0  0  0  0  0  0  0  0
    3.5957    1.5126   -0.6470 C   0  0  0  0  0  0  0  0  0  0  0  0
    1.7172    0.3400   -3.0816 H   0  0  0  0  0  0  0  0  0  0  0  0
    0.7116   -1.1047   -3.0609 H   0  0  0  0  0  0  0  0  0  0  0  0
   -0.0416    0.4989   -3.0716 H   0  0  0  0  0  0  0  0  0  0  0  0
   -0.2993   -0.6402   -0.7049 H   0  0  0  0  0  0  0  0  0  0  0  0
    1.6304   -0.6662   -0.7724 H   0  0  0  0  0  0  0  0  0  0  0  0
    2.2636    2.3937   -2.1082 H   0  0  0  0  0  0  0  0  0  0  0  0
    2.3498    3.2746   -0.5969 H   0  0  0  0  0  0  0  0  0  0  0  0
    3.6169    0.5208   -1.1016 H   0  0  0  0  0  0  0  0  0  0  0  0
    3.6663    1.3906    0.4344 H   0  0  0  0  0  0  0  0  0  0  0  0
    4.4804    2.0510   -0.9939 H   0  0  0  0  0  0  0  0  0  0  0  0
  1  2  1  0
  1  6  1  0
  1  7  1  0
  1 22  1  0
  2  3  1  0
  3  4  1  0
  3  8  1  0
  3  9  1  0
  4  5  1  0
  4 10  1  0
  4 11  1  0
  5  6  1  0
  5 12  1  0
  5 13  1  0
 14 15  1  0
 14 19  1  0
 14 20  1  0
 14 21  1  0
 15 16  1  0
 15 23  1  0
 16 17  1  0
 17 18  1  0
 17 24  1  0
 17 25  1  0
 18 26  1  0
 18 27  1  0
 18 28  1  0
M  RAD  1  15   2
M  END
>  <reaction>  (5) 
rmg_rxn_65

>  <mol_properties>  (5) 
{"0": {"label": "*3", "atom_type": "Cs"}, "1": {"label": "*4", "atom_type": "O2s"}, "14": {"label": "*1", "atom_type": "Cs"}, "15": {"label": "*0", "atom_type": "S2s"}, "21": {"label": "*2", "atom_type": "H0"}}

>  <type>  (5) 
unop_1

>  <geom_source>  (5) 
Heuristics

$$$$

     RDKit          3D

 28 27  0  0  0  0  0  0  0  0999 V2000
   -1.3235   -0.5700    0.2040 C   0  0  0  0  0  0  0  0  0  0  0  0
   -1.7270   -1.5228   -0.7319 O   0  0  0  0  0  0  0  0  0  0  0  0
   -2.6107   -2.4652   -0.1556 C   0  0  0  0  0  0  0  0  0  0  0  0
   -1.9637   -3.1280    1.0522 C   0  0  0  0  0  0  0  0  0  0  0  0
   -1.4553   -2.0428    1.9905 C   0  0  0  0  0  0  0  0  0  0  0  0
   -0.6404   -1.1255    1.2862 O   0  0  0  0  0  0  0  0  0  0  0  0
   -2.2084   -0.0189    0.5719 H   0  0  0  0  0  0  0  0  0  0  0  0
   -3.5411   -1.9597    0.1455 H   0  0  0  0  0  0  0  0  0  0  0  0
   -2.8521   -3.1863   -0.9353 H   0  0  0  0  0  0  0  0  0  0  0  0
   -2.6823   -3.7708    1.5656 H   0  0  0  0  0  0  0  0  0  0  0  0
   -1.1254   -3.7446    0.7222 H   0  0  0  0  0  0  0  0  0  0  0  0
   -0.8444   -2.4522    2.7938 H   0  0  0  0  0  0  0  0  0  0  0  0
   -2.3044   -1.5075    2.4425 H   0  0  0  0  0  0  0  0  0  0  0  0
    0.8598    0.5414   -2.2294 C   0  0  0  0  0  0  0  0  0  0  0  0
    0.8598    0.5414   -0.7096 C   0  0  0  0  0  3  0  0  0  0  0  0
    0.8598    2.1825    0.0553 S   0  0  0  0  0  0  0  0  0  0  0  0
    2.4004    2.8964   -0.5733 C   0  0  0  0  0  0  0  0  0  0  0  0
    3.6614    2.1376   -0.1941 C   0  0  0  0  0  0  0  0  0  0  0  0
    1.7829    0.9650   -2.6288 H   0  0  0  0  0  0  0  0  0  0  0  0
    0.7773   -0.4798   -2.6080 H   0  0  0  0  0  0  0  0  0  0  0  0
    0.0241    1.1239   -2.6188 H   0  0  0  0  0  0  0  0  0  0  0  0
   -0.2336   -0.0152   -0.2521 H   0  0  0  0  0  0  0  0  0  0  0  0
    1.6960   -0.0412   -0.3196 H   0  0  0  0  0  0  0  0  0  0  0  0
    2.3293    3.0186   -1.6554 H   0  0  0  0  0  0  0  0  0  0  0  0
    2.4155    3.8996   -0.1441 H   0  0  0  0  0  0  0  0  0  0  0  0
    3.6826    1.1457   -0.6488 H   0  0  0  0  0  0  0  0  0  0  0  0
    3.7320    2.0155    0.8873 H   0  0  0  0  0  0  0  0  0  0  0  0
    4.5461    2.6760   -0.5411 H   0  0  0  0  0  0  0  0  0  0  0  0
  1  2  1  0
  1  6  1  0
  1  7  1  0
  1 22  1  0
  2  3  1  0
  3  4  1  0
  3  8  1  0
  3  9  1  0
  4  5  1  0
  4 10  1  0
  4 11  1  0
  5  6  1  0
  5 12  1  0
  5 13  1  0
 14 15  1  0
 14 19  1  0
 14 20  1  0
 14 21  1  0
 15 16  1  0
 15 23  1  0
 16 17  1  0
 17 18  1  0
 17 24  1  0
 17 25  1  0
 18 26  1  0
 18 27  1  0
 18 28  1  0
M  RAD  1  15   2
M  END
>  <reaction>  (6) 
rmg_rxn_65

>  <mol_properties>  (6) 
{"0": {"label": "*3", "atom_type": "Cs"}, "1": {"label": "*4", "atom_type": "O2s"}, "14": {"label": "*1", "atom_type": "Cs"}, "15": {"label": "*0", "atom_type": "S2s"}, "21": {"label": "*2", "atom_type": "H0"}}

>  <type>  (6) 
unop_2

>  <geom_source>  (6) 
Heuristics

$$$$

     RDKit          3D

 28 27  0  0  0  0  0  0  0  0999 V2000
   -1.1418   -1.3587   -0.1361 C   0  0  0  0  0  0  0  0  0  0  0  0
   -0.8268   -1.9457    1.0898 O   0  0  0  0  0  0  0  0  0  0  0  0
   -1.9589   -2.0038    1.9361 C   0  0  0  0  0  0  0  0  0  0  0  0
   -2.5449   -0.6129    2.1328 C   0  0  0  0  0  0  0  0  0  0  0  0
   -2.7759    0.0171    0.7666 C   0  0  0  0  0  0  0  0  0  0  0  0
   -1.5951   -0.0452   -0.0101 O   0  0  0  0  0  0  0  0  0  0  0  0
   -1.9117   -1.9656   -0.6469 H   0  0  0  0  0  0  0  0  0  0  0  0
   -2.7140   -2.6716    1.4937 H   0  0  0  0  0  0  0  0  0  0  0  0
   -1.6257   -2.4420    2.8759 H   0  0  0  0  0  0  0  0  0  0  0  0
   -3.4822   -0.6688    2.6909 H   0  0  0  0  0  0  0  0  0  0  0  0
   -1.8425   -0.0000    2.7010 H   0  0  0  0  0  0  0  0  0  0  0  0
   -3.0453    1.0696    0.8437 H   0  0  0  0  0  0  0  0  0  0  0  0
   -3.5885   -0.5086    0.2419 H   0  0  0  0  0  0  0  0  0  0  0  0
    1.0416   -0.2472   -2.5694 C   0  0  0  0  0  0  0  0  0  0  0  0
    1.0416   -0.2472   -1.0497 C   0  0  0  0  0  3  0  0  0  0  0  0
    1.0416    1.3939   -0.2848 S   0  0  0  0  0  0  0  0  0  0  0  0
    2.5822    2.1078   -0.9134 C   0  0  0  0  0  0  0  0  0  0  0  0
    3.8431    1.3490   -0.5342 C   0  0  0  0  0  0  0  0  0  0  0  0
    1.9646    0.1764   -2.9688 H   0  0  0  0  0  0  0  0  0  0  0  0
    0.9590   -1.2684   -2.9481 H   0  0  0  0  0  0  0  0  0  0  0  0
    0.2059    0.3353   -2.9588 H   0  0  0  0  0  0  0  0  0  0  0  0
   -0.0519   -0.8038   -0.5921 H   0  0  0  0  0  0  0  0  0  0  0  0
    1.8778   -0.8298   -0.6596 H   0  0  0  0  0  0  0  0  0  0  0  0
    2.5110    2.2300   -1.9954 H   0  0  0  0  0  0  0  0  0  0  0  0
    2.5972    3.1110   -0.4841 H   0  0  0  0  0  0  0  0  0  0  0  0
    3.8643    0.3571   -0.9888 H   0  0  0  0  0  0  0  0  0  0  0  0
    3.9138    1.2269    0.5472 H   0  0  0  0  0  0  0  0  0  0  0  0
    4.7278    1.8874   -0.8811 H   0  0  0  0  0  0  0  0  0  0  0  0
  1  2  1  0
  1  6  1  0
  1  7  1  0
  1 22  1  0
  2  3  1  0
  3  4  1  0
  3  8  1  0
  3  9  1  0
  4  5  1  0
  4 10  1  0
  4 11  1  0
  5  6  1  0
  5 12  1  0
  5 13  1  0
 14 15  1  0
 14 19  1  0
 14 20  1  0
 14 21  1  0
 15 16  1  0
 15 23  1  0
 16 17  1  0
 17 18  1  0
 17 24  1  0
 17 25  1  0
 18 26  1  0
 18 27  1  0
 18 28  1  0
M  RAD  1  15   2
M  END
>  <reaction>  (7) 
rmg_rxn_65

>  <mol_properties>  (7) 
{"0": {"label": "*3", "atom_type": "Cs"}, "1": {"label": "*4", "atom_type": "O2s"}, "14": {"label": "*1", "atom_type": "Cs"}, "15": {"label": "*0", "atom_type": "S2s"}, "21": {"label": "*2", "atom_type": "H0"}}

>  <type>  (7) 
unop_3

>  <geom_source>  (7) 
Heuristics

$$$$

     RDKit          3D

 28 27  0  0  0  0  0  0  0  0999 V2000
   -0.8594   -1.0089    0.2367 C   0  0  0  0  0  0  0  0  0  0  0  0
   -1.9365   -0.2628   -0.2424 O   0  0  0  0  0  0  0  0  0  0  0  0
   -3.0213   -0.2875    0.6654 C   0  0  0  0  0  0  0  0  0  0  0  0
   -3.4380   -1.7228    0.9534 C   0  0  0  0  0  0  0  0  0  0  0  0
   -2.2077   -2.5128    1.3762 C   0  0  0  0  0  0  0  0  0  0  0  0
   -1.1714   -2.3555    0.4260 O   0  0  0  0  0  0  0  0  0  0  0  0
   -0.5080   -0.5756    1.1911 H   0  0  0  0  0  0  0  0  0  0  0  0
   -2.7289    0.2147    1.6004 H   0  0  0  0  0  0  0  0  0  0  0  0
   -3.8261    0.2863    0.2080 H   0  0  0  0  0  0  0  0  0  0  0  0
   -4.1974   -1.7498    1.7382 H   0  0  0  0  0  0  0  0  0  0  0  0
   -3.8614   -2.1661    0.0501 H   0  0  0  0  0  0  0  0  0  0  0  0
   -2.4123   -3.5805    1.4430 H   0  0  0  0  0  0  0  0  0  0  0  0
   -1.8581   -2.1671    2.3611 H   0  0  0  0  0  0  0  0  0  0  0  0
    1.3239    0.1025   -2.1967 C   0  0  0  0  0  0  0  0  0  0  0  0
    1.3239    0.1025   -0.6769 C   0  0  0  0  0  3  0  0  0  0  0  0
    1.3239    1.7436    0.0880 S   0  0  0  0  0  0  0  0  0  0  0  0
    2.8645    2.4575   -0.5406 C   0  0  0  0  0  0  0  0  0  0  0  0
    4.1254    1.6987   -0.1614 C   0  0  0  0  0  0  0  0  0  0  0  0
    2.2470    0.5261   -2.5961 H   0  0  0  0  0  0  0  0  0  0  0  0
    1.2414   -0.9187   -2.5753 H   0  0  0  0  0  0  0  0  0  0  0  0
    0.4882    0.6850   -2.5861 H   0  0  0  0  0  0  0  0  0  0  0  0
    0.2305   -0.4541   -0.2194 H   0  0  0  0  0  0  0  0  0  0  0  0
    2.1601   -0.4801   -0.2869 H   0  0  0  0  0  0  0  0  0  0  0  0
    2.7934    2.5797   -1.6227 H   0  0  0  0  0  0  0  0  0  0  0  0
    2.8796    3.4607   -0.1114 H   0  0  0  0  0  0  0  0  0  0  0  0
    4.1467    0.7068   -0.6161 H   0  0  0  0  0  0  0  0  0  0  0  0
    4.1961    1.5766    0.9200 H   0  0  0  0  0  0  0  0  0  0  0  0
    5.0102    2.2371   -0.5083 H   0  0  0  0  0  0  0  0  0  0  0  0
  1  2  1  0
  1  6  1  0
  1  7  1  0
  1 22  1  0
  2  3  1  0
  3  4  1  0
  3  8  1  0
  3  9  1  0
  4  5  1  0
  4 10  1  0
  4 11  1  0
  5  6  1  0
  5 12  1  0
  5 13  1  0
 14 15  1  0
 14 19  1  0
 14 20  1  0
 14 21  1  0
 15 16  1  0
 15 23  1  0
 16 17  1  0
 17 18  1  0
 17 24  1  0
 17 25  1  0
 18 26  1  0
 18 27  1  0
 18 28  1  0
M  RAD  1  15   2
M  END
>  <reaction>  (8) 
rmg_rxn_65

>  <mol_properties>  (8) 
{"0": {"label": "*3", "atom_type": "Cs"}, "1": {"label": "*4", "atom_type": "O2s"}, "14": {"label": "*1", "atom_type": "Cs"}, "15": {"label": "*0", "atom_type": "S2s"}, "21": {"label": "*2", "atom_type": "H0"}}

>  <type>  (8) 
unop_4

>  <geom_source>  (8) 
Heuristics

$$$$

     RDKit          3D

 28 27  0  0  0  0  0  0  0  0999 V2000
   -0.9179   -1.2263    0.0532 C   0  0  0  0  0  0  0  0  0  0  0  0
   -0.8495   -1.1915    1.4462 O   0  0  0  0  0  0  0  0  0  0  0  0
   -2.0080   -1.7553    2.0304 C   0  0  0  0  0  0  0  0  0  0  0  0
   -3.2551   -1.0417    1.5282 C   0  0  0  0  0  0  0  0  0  0  0  0
   -3.2275   -1.0233    0.0066 C   0  0  0  0  0  0  0  0  0  0  0  0
   -1.9963   -0.5031   -0.4571 O   0  0  0  0  0  0  0  0  0  0  0  0
   -0.9870   -2.2765   -0.2851 H   0  0  0  0  0  0  0  0  0  0  0  0
   -2.0607   -2.8262    1.7812 H   0  0  0  0  0  0  0  0  0  0  0  0
   -1.8921   -1.6622    3.1094 H   0  0  0  0  0  0  0  0  0  0  0  0
   -4.1547   -1.5463    1.8878 H   0  0  0  0  0  0  0  0  0  0  0  0
   -3.2627   -0.0165    1.9036 H   0  0  0  0  0  0  0  0  0  0  0  0
   -4.0112   -0.3902   -0.4074 H   0  0  0  0  0  0  0  0  0  0  0  0
   -3.3660   -2.0427   -0.3851 H   0  0  0  0  0  0  0  0  0  0  0  0
    1.2655   -0.1148   -2.3802 C   0  0  0  0  0  0  0  0  0  0  0  0
    1.2655   -0.1148   -0.8605 C   0  0  0  0  0  3  0  0  0  0  0  0
    1.2655    1.5263   -0.0956 S   0  0  0  0  0  0  0  0  0  0  0  0
    2.8061    2.2402   -0.7242 C   0  0  0  0  0  0  0  0  0  0  0  0
    4.0670    1.4813   -0.3450 C   0  0  0  0  0  0  0  0  0  0  0  0
    2.1885    0.3088   -2.7796 H   0  0  0  0  0  0  0  0  0  0  0  0
    1.1829   -1.1360   -2.7589 H   0  0  0  0  0  0  0  0  0  0  0  0
    0.4298    0.4676   -2.7696 H   0  0  0  0  0  0  0  0  0  0  0  0
    0.1720   -0.6714   -0.4029 H   0  0  0  0  0  0  0  0  0  0  0  0
    2.1017   -0.6975   -0.4704 H   0  0  0  0  0  0  0  0  0  0  0  0
    2.7349    2.3624   -1.8062 H   0  0  0  0  0  0  0  0  0  0  0  0
    2.8211    3.2434   -0.2949 H   0  0  0  0  0  0  0  0  0  0  0  0
    4.0882    0.4895   -0.7996 H   0  0  0  0  0  0  0  0  0  0  0  0
    4.1376    1.3593    0.7364 H   0  0  0  0  0  0  0  0  0  0  0  0
    4.9517    2.0197   -0.6919 H   0  0  0  0  0  0  0  0  0  0  0  0
  1  2  1  0
  1  6  1  0
  1  7  1  0
  1 22  1  0
  2  3  1  0
  3  4  1  0
  3  8  1  0
  3  9  1  0
  4  5  1  0
  4 10  1  0
  4 11  1  0
  5  6  1  0
  5 12  1  0
  5 13  1  0
 14 15  1  0
 14 19  1  0
 14 20  1  0
 14 21  1  0
 15 16  1  0
 15 23  1  0
 16 17  1  0
 17 18  1  0
 17 24  1  0
 17 25  1  0
 18 26  1  0
 18 27  1  0
 18 28  1  0
M  RAD  1  15   2
M  END
>  <reaction>  (9) 
rmg_rxn_65

>  <mol_properties>  (9) 
{"0": {"label": "*3", "atom_type": "Cs"}, "1": {"label": "*4", "atom_type": "O2s"}, "14": {"label": "*1", "atom_type": "Cs"}, "15": {"label": "*0", "atom_type": "S2s"}, "21": {"label": "*2", "atom_type": "H0"}}

>  <type>  (9) 
unop_5

>  <geom_source>  (9) 
Heuristics

$$$$

     RDKit          3D

 28 27  0  0  0  0  0  0  0  0999 V2000
   -0.9006   -1.0468    0.1071 C   0  0  0  0  0  0  0  0  0  0  0  0
   -1.8513   -0.0361    0.2520 O   0  0  0  0  0  0  0  0  0  0  0  0
   -2.6399   -0.2364    1.4094 C   0  0  0  0  0  0  0  0  0  0  0  0
   -3.3028   -1.6058    1.3679 C   0  0  0  0  0  0  0  0  0  0  0  0
   -2.2337   -2.6580    1.1095 C   0  0  0  0  0  0  0  0  0  0  0  0
   -1.4693   -2.3134   -0.0299 O   0  0  0  0  0  0  0  0  0  0  0  0
   -0.2225   -1.0412    0.9802 H   0  0  0  0  0  0  0  0  0  0  0  0
   -2.0053   -0.1519    2.3050 H   0  0  0  0  0  0  0  0  0  0  0  0
   -3.3717    0.5699    1.4335 H   0  0  0  0  0  0  0  0  0  0  0  0
   -3.8189   -1.8089    2.3089 H   0  0  0  0  0  0  0  0  0  0  0  0
   -4.0376   -1.6291    0.5608 H   0  0  0  0  0  0  0  0  0  0  0  0
   -2.6660   -3.6380    0.9124 H   0  0  0  0  0  0  0  0  0  0  0  0
   -1.5706   -2.7439    1.9841 H   0  0  0  0  0  0  0  0  0  0  0  0
    1.2828    0.0646   -2.3263 C   0  0  0  0  0  0  0  0  0  0  0  0
    1.2828    0.0646   -0.8065 C   0  0  0  0  0  3  0  0  0  0  0  0
    1.2828    1.7057   -0.0416 S   0  0  0  0  0  0  0  0  0  0  0  0
    2.8233    2.4197   -0.6702 C   0  0  0  0  0  0  0  0  0  0  0  0
    4.0843    1.6608   -0.2910 C   0  0  0  0  0  0  0  0  0  0  0  0
    2.2058    0.4882   -2.7257 H   0  0  0  0  0  0  0  0  0  0  0  0
    1.2002   -0.9565   -2.7049 H   0  0  0  0  0  0  0  0  0  0  0  0
    0.4470    0.6471   -2.7157 H   0  0  0  0  0  0  0  0  0  0  0  0
    0.1893   -0.4920   -0.3490 H   0  0  0  0  0  0  0  0  0  0  0  0
    2.1190   -0.5180   -0.4165 H   0  0  0  0  0  0  0  0  0  0  0  0
    2.7522    2.5419   -1.7523 H   0  0  0  0  0  0  0  0  0  0  0  0
    2.8384    3.4228   -0.2409 H   0  0  0  0  0  0  0  0  0  0  0  0
    4.1055    0.6690   -0.7457 H   0  0  0  0  0  0  0  0  0  0  0  0
    4.1549    1.5388    0.7904 H   0  0  0  0  0  0  0  0  0  0  0  0
    4.9690    2.1992   -0.6379 H   0  0  0  0  0  0  0  0  0  0  0  0
  1  2  1  0
  1  6  1  0
  1  7  1  0
  1 22  1  0
  2  3  1  0
  3  4  1  0
  3  8  1  0
  3  9  1  0
  4  5  1  0
  4 10  1  0
  4 11  1  0
  5  6  1  0
  5 12  1  0
  5 13  1  0
 14 15  1  0
 14 19  1  0
 14 20  1  0
 14 21  1  0
 15 16  1  0
 15 23  1  0
 16 17  1  0
 17 18  1  0
 17 24  1  0
 17 25  1  0
 18 26  1  0
 18 27  1  0
 18 28  1  0
M  RAD  1  15   2
M  END
>  <reaction>  (10) 
rmg_rxn_65

>  <mol_properties>  (10) 
{"0": {"label": "*3", "atom_type": "Cs"}, "1": {"label": "*4", "atom_type": "O2s"}, "14": {"label": "*1", "atom_type": "Cs"}, "15": {"label": "*0", "atom_type": "S2s"}, "21": {"label": "*2", "atom_type": "H0"}}

>  <type>  (10) 
unop_6

>  <geom_source>  (10) 
Heuristics

$$$$

     RDKit          3D

 28 27  0  0  0  0  0  0  0  0999 V2000
   -0.9431   -1.0051    0.0545 C   0  0  0  0  0  0  0  0  0  0  0  0
   -1.6055   -0.0478    0.8234 O   0  0  0  0  0  0  0  0  0  0  0  0
   -2.2149   -0.6337    1.9578 C   0  0  0  0  0  0  0  0  0  0  0  0
   -3.1651   -1.7445    1.5338 C   0  0  0  0  0  0  0  0  0  0  0  0
   -2.4173   -2.7039    0.6190 C   0  0  0  0  0  0  0  0  0  0  0  0
   -1.7958   -1.9946   -0.4356 O   0  0  0  0  0  0  0  0  0  0  0  0
   -0.1453   -1.4741    0.6591 H   0  0  0  0  0  0  0  0  0  0  0  0
   -1.4376   -1.0371    2.6248 H   0  0  0  0  0  0  0  0  0  0  0  0
   -2.7330    0.1668    2.4840 H   0  0  0  0  0  0  0  0  0  0  0  0
   -3.5496   -2.2730    2.4091 H   0  0  0  0  0  0  0  0  0  0  0  0
   -4.0103   -1.3129    0.9942 H   0  0  0  0  0  0  0  0  0  0  0  0
   -3.0847   -3.4304    0.1576 H   0  0  0  0  0  0  0  0  0  0  0  0
   -1.6542   -3.2529    1.1918 H   0  0  0  0  0  0  0  0  0  0  0  0
    1.2402    0.1064   -2.3789 C   0  0  0  0  0  0  0  0  0  0  0  0
    1.2402    0.1064   -0.8592 C   0  0  0  0  0  3  0  0  0  0  0  0
    1.2402    1.7475   -0.0943 S   0  0  0  0  0  0  0  0  0  0  0  0
    2.7808    2.4614   -0.7229 C   0  0  0  0  0  0  0  0  0  0  0  0
    4.0417    1.7026   -0.3437 C   0  0  0  0  0  0  0  0  0  0  0  0
    2.1632    0.5300   -2.7783 H   0  0  0  0  0  0  0  0  0  0  0  0
    1.1576   -0.9148   -2.7576 H   0  0  0  0  0  0  0  0  0  0  0  0
    0.4045    0.6889   -2.7683 H   0  0  0  0  0  0  0  0  0  0  0  0
    0.1468   -0.4502   -0.4016 H   0  0  0  0  0  0  0  0  0  0  0  0
    2.0764   -0.4763   -0.4691 H   0  0  0  0  0  0  0  0  0  0  0  0
    2.7096    2.5836   -1.8049 H   0  0  0  0  0  0  0  0  0  0  0  0
    2.7959    3.4646   -0.2936 H   0  0  0  0  0  0  0  0  0  0  0  0
    4.0629    0.7107   -0.7983 H   0  0  0  0  0  0  0  0  0  0  0  0
    4.1124    1.5805    0.7378 H   0  0  0  0  0  0  0  0  0  0  0  0
    4.9265    2.2410   -0.6906 H   0  0  0  0  0  0  0  0  0  0  0  0
  1  2  1  0
  1  6  1  0
  1  7  1  0
  1 22  1  0
  2  3  1  0
  3  4  1  0
  3  8  1  0
  3  9  1  0
  4  5  1  0
  4 10  1  0
  4 11  1  0
  5  6  1  0
  5 12  1  0
  5 13  1  0
 14 15  1  0
 14 19  1  0
 14 20  1  0
 14 21  1  0
 15 16  1  0
 15 23  1  0
 16 17  1  0
 17 18  1  0
 17 24  1  0
 17 25  1  0
 18 26  1  0
 18 27  1  0
 18 28  1  0
M  RAD  1  15   2
M  END
>  <reaction>  (11) 
rmg_rxn_65

>  <mol_properties>  (11) 
{"0": {"label": "*3", "atom_type": "Cs"}, "1": {"label": "*4", "atom_type": "O2s"}, "14": {"label": "*1", "atom_type": "Cs"}, "15": {"label": "*0", "atom_type": "S2s"}, "21": {"label": "*2", "atom_type": "H0"}}

>  <type>  (11) 
unop_7

>  <geom_source>  (11) 
Heuristics

$$$$

     RDKit          3D

 28 27  0  0  0  0  0  0  0  0999 V2000
   -1.5140   -0.9190   -0.1994 C   0  0  0  0  0  0  0  0  0  0  0  0
   -1.2561   -2.2824   -0.0544 O   0  0  0  0  0  0  0  0  0  0  0  0
   -1.8438   -2.7924    1.1271 C   0  0  0  0  0  0  0  0  0  0  0  0
   -1.3554   -2.0137    2.3401 C   0  0  0  0  0  0  0  0  0  0  0  0
   -1.5707   -0.5286    2.0859 C   0  0  0  0  0  0  0  0  0  0  0  0
   -0.9993   -0.1535    0.8473 O   0  0  0  0  0  0  0  0  0  0  0  0
   -2.6053   -0.7572   -0.2707 H   0  0  0  0  0  0  0  0  0  0  0  0
   -2.9399   -2.7232    1.0512 H   0  0  0  0  0  0  0  0  0  0  0  0
   -1.5723   -3.8457    1.1829 H   0  0  0  0  0  0  0  0  0  0  0  0
   -1.8920   -2.3291    3.2378 H   0  0  0  0  0  0  0  0  0  0  0  0
   -0.2913   -2.2057    2.4905 H   0  0  0  0  0  0  0  0  0  0  0  0
   -1.0978    0.0881    2.8489 H   0  0  0  0  0  0  0  0  0  0  0  0
   -2.6476   -0.3000    2.0775 H   0  0  0  0  0  0  0  0  0  0  0  0
    0.6694    0.1924   -2.6327 C   0  0  0  0  0  0  0  0  0  0  0  0
    0.6694    0.1924   -1.1130 C   0  0  0  0  0  3  0  0  0  0  0  0
    0.6694    1.8335   -0.3481 S   0  0  0  0  0  0  0  0  0  0  0  0
    2.2099    2.5474   -0.9767 C   0  0  0  0  0  0  0  0  0  0  0  0
    3.4709    1.7886   -0.5975 C   0  0  0  0  0  0  0  0  0  0  0  0
    1.5924    0.6160   -3.0321 H   0  0  0  0  0  0  0  0  0  0  0  0
    0.5868   -0.8288   -3.0114 H   0  0  0  0  0  0  0  0  0  0  0  0
   -0.1664    0.7749   -3.0221 H   0  0  0  0  0  0  0  0  0  0  0  0
   -0.4241   -0.3642   -0.6554 H   0  0  0  0  0  0  0  0  0  0  0  0
    1.5056   -0.3902   -0.7229 H   0  0  0  0  0  0  0  0  0  0  0  0
    2.1388    2.6697   -2.0587 H   0  0  0  0  0  0  0  0  0  0  0  0
    2.2250    3.5506   -0.5474 H   0  0  0  0  0  0  0  0  0  0  0  0
    3.4921    0.7967   -1.0521 H   0  0  0  0  0  0  0  0  0  0  0  0
    3.5415    1.6665    0.4839 H   0  0  0  0  0  0  0  0  0  0  0  0
    4.3556    2.3270   -0.9444 H   0  0  0  0  0  0  0  0  0  0  0  0
  1  2  1  0
  1  6  1  0
  1  7  1  0
  1 22  1  0
  2  3  1  0
  3  4  1  0
  3  8  1  0
  3  9  1  0
  4  5  1  0
  4 10  1  0
  4 11  1  0
  5  6  1  0
  5 12  1  0
  5 13  1  0
 14 15  1  0
 14 19  1  0
 14 20  1  0
 14 21  1  0
 15 16  1  0
 15 23  1  0
 16 17  1  0
 17 18  1  0
 17 24  1  0
 17 25  1  0
 18 26  1  0
 18 27  1  0
 18 28  1  0
M  RAD  1  15   2
M  END
>  <reaction>  (12) 
rmg_rxn_65

>  <mol_properties>  (12) 
{"0": {"label": "*3", "atom_type": "Cs"}, "1": {"label": "*4", "atom_type": "O2s"}, "14": {"label": "*1", "atom_type": "Cs"}, "15": {"label": "*0", "atom_type": "S2s"}, "21": {"label": "*2", "atom_type": "H0"}}

>  <type>  (12) 
unop_8

>  <geom_source>  (12) 
Heuristics

$$$$

     RDKit          3D

 28 27  0  0  0  0  0  0  0  0999 V2000
   -0.9041   -0.8509    0.3585 C   0  0  0  0  0  0  0  0  0  0  0  0
   -1.9118   -0.6166   -0.5774 O   0  0  0  0  0  0  0  0  0  0  0  0
   -3.1929   -0.8212   -0.0132 C   0  0  0  0  0  0  0  0  0  0  0  0
   -3.2998   -2.2263    0.5620 C   0  0  0  0  0  0  0  0  0  0  0  0
   -2.1230   -2.4612    1.4983 C   0  0  0  0  0  0  0  0  0  0  0  0
   -0.9056   -2.1589    0.8440 O   0  0  0  0  0  0  0  0  0  0  0  0
   -1.0154   -0.1457    1.2025 H   0  0  0  0  0  0  0  0  0  0  0  0
   -3.3690   -0.0759    0.7776 H   0  0  0  0  0  0  0  0  0  0  0  0
   -3.9168   -0.6507   -0.8089 H   0  0  0  0  0  0  0  0  0  0  0  0
   -4.2440   -2.3489    1.0973 H   0  0  0  0  0  0  0  0  0  0  0  0
   -3.2682   -2.9546   -0.2506 H   0  0  0  0  0  0  0  0  0  0  0  0
   -2.0576   -3.5004    1.8176 H   0  0  0  0  0  0  0  0  0  0  0  0
   -2.2238   -1.8313    2.3955 H   0  0  0  0  0  0  0  0  0  0  0  0
    1.2793    0.2605   -2.0749 C   0  0  0  0  0  0  0  0  0  0  0  0
    1.2793    0.2605   -0.5551 C   0  0  0  0  0  3  0  0  0  0  0  0
    1.2793    1.9016    0.2098 S   0  0  0  0  0  0  0  0  0  0  0  0
    2.8199    2.6155   -0.4188 C   0  0  0  0  0  0  0  0  0  0  0  0
    4.0808    1.8567   -0.0396 C   0  0  0  0  0  0  0  0  0  0  0  0
    2.2023    0.6841   -2.4743 H   0  0  0  0  0  0  0  0  0  0  0  0
    1.1967   -0.7607   -2.4535 H   0  0  0  0  0  0  0  0  0  0  0  0
    0.4436    0.8430   -2.4643 H   0  0  0  0  0  0  0  0  0  0  0  0
    0.1858   -0.2961   -0.0976 H   0  0  0  0  0  0  0  0  0  0  0  0
    2.1155   -0.3221   -0.1651 H   0  0  0  0  0  0  0  0  0  0  0  0
    2.7487    2.7377   -1.5009 H   0  0  0  0  0  0  0  0  0  0  0  0
    2.8349    3.6187    0.0104 H   0  0  0  0  0  0  0  0  0  0  0  0
    4.1020    0.8648   -0.4943 H   0  0  0  0  0  0  0  0  0  0  0  0
    4.1515    1.7346    1.0418 H   0  0  0  0  0  0  0  0  0  0  0  0
    4.9655    2.3951   -0.3866 H   0  0  0  0  0  0  0  0  0  0  0  0
  1  2  1  0
  1  6  1  0
  1  7  1  0
  1 22  1  0
  2  3  1  0
  3  4  1  0
  3  8  1  0
  3  9  1  0
  4  5  1  0
  4 10  1  0
  4 11  1  0
  5  6  1  0
  5 12  1  0
  5 13  1  0
 14 15  1  0
 14 19  1  0
 14 20  1  0
 14 21  1  0
 15 16  1  0
 15 23  1  0
 16 17  1  0
 17 18  1  0
 17 24  1  0
 17 25  1  0
 18 26  1  0
 18 27  1  0
 18 28  1  0
M  RAD  1  15   2
M  END
>  <reaction>  (13) 
rmg_rxn_65

>  <mol_properties>  (13) 
{"0": {"label": "*3", "atom_type": "Cs"}, "1": {"label": "*4", "atom_type": "O2s"}, "14": {"label": "*1", "atom_type": "Cs"}, "15": {"label": "*0", "atom_type": "S2s"}, "21": {"label": "*2", "atom_type": "H0"}}

>  <type>  (13) 
unop_9

>  <geom_source>  (13) 
Heuristics

$$$$

     RDKit          3D

 28 27  0  0  0  0  0  0  0  0999 V2000
   -1.4904   -0.6772   -0.0216 C   0  0  0  0  0  0  0  0  0  0  0  0
   -1.5209   -1.9872   -0.5007 O   0  0  0  0  0  0  0  0  0  0  0  0
   -2.1384   -2.8581    0.4275 C   0  0  0  0  0  0  0  0  0  0  0  0
   -1.4303   -2.7865    1.7729 C   0  0  0  0  0  0  0  0  0  0  0  0
   -1.3384   -1.3282    2.1990 C   0  0  0  0  0  0  0  0  0  0  0  0
   -0.7685   -0.5484    1.1653 O   0  0  0  0  0  0  0  0  0  0  0  0
   -2.5245   -0.3200    0.1369 H   0  0  0  0  0  0  0  0  0  0  0  0
   -3.1971   -2.5798    0.5437 H   0  0  0  0  0  0  0  0  0  0  0  0
   -2.0945   -3.8575   -0.0032 H   0  0  0  0  0  0  0  0  0  0  0  0
   -1.9720   -3.3695    2.5210 H   0  0  0  0  0  0  0  0  0  0  0  0
   -0.4248   -3.2005    1.6763 H   0  0  0  0  0  0  0  0  0  0  0  0
   -0.7043   -1.1990    3.0751 H   0  0  0  0  0  0  0  0  0  0  0  0
   -2.3408   -0.9422    2.4399 H   0  0  0  0  0  0  0  0  0  0  0  0
    0.6929    0.4342   -2.4549 C   0  0  0  0  0  0  0  0  0  0  0  0
    0.6929    0.4342   -0.9352 C   0  0  0  0  0  3  0  0  0  0  0  0
    0.6929    2.0753   -0.1703 S   0  0  0  0  0  0  0  0  0  0  0  0
    2.2335    2.7892   -0.7989 C   0  0  0  0  0  0  0  0  0  0  0  0
    3.4944    2.0304   -0.4197 C   0  0  0  0  0  0  0  0  0  0  0  0
    1.6160    0.8578   -2.8543 H   0  0  0  0  0  0  0  0  0  0  0  0
    0.6104   -0.5870   -2.8336 H   0  0  0  0  0  0  0  0  0  0  0  0
   -0.1428    1.0167   -2.8443 H   0  0  0  0  0  0  0  0  0  0  0  0
   -0.4005   -0.1224   -0.4776 H   0  0  0  0  0  0  0  0  0  0  0  0
    1.5291   -0.1484   -0.5452 H   0  0  0  0  0  0  0  0  0  0  0  0
    2.1624    2.9114   -1.8809 H   0  0  0  0  0  0  0  0  0  0  0  0
    2.2486    3.7924   -0.3696 H   0  0  0  0  0  0  0  0  0  0  0  0
    3.5157    1.0385   -0.8744 H   0  0  0  0  0  0  0  0  0  0  0  0
    3.5651    1.9083    0.6617 H   0  0  0  0  0  0  0  0  0  0  0  0
    4.3792    2.5688   -0.7666 H   0  0  0  0  0  0  0  0  0  0  0  0
  1  2  1  0
  1  6  1  0
  1  7  1  0
  1 22  1  0
  2  3  1  0
  3  4  1  0
  3  8  1  0
  3  9  1  0
  4  5  1  0
  4 10  1  0
  4 11  1  0
  5  6  1  0
  5 12  1  0
  5 13  1  0
 14 15  1  0
 14 19  1  0
 14 20  1  0
 14 21  1  0
 15 16  1  0
 15 23  1  0
 16 17  1  0
 17 18  1  0
 17 24  1  0
 17 25  1  0
 18 26  1  0
 18 27  1  0
 18 28  1  0
M  RAD  1  15   2
M  END
>  <reaction>  (14) 
rmg_rxn_65

>  <mol_properties>  (14) 
{"0": {"label": "*3", "atom_type": "Cs"}, "1": {"label": "*4", "atom_type": "O2s"}, "14": {"label": "*1", "atom_type": "Cs"}, "15": {"label": "*0", "atom_type": "S2s"}, "21": {"label": "*2", "atom_type": "H0"}}

>  <type>  (14) 
unop_10

>  <geom_source>  (14) 
Heuristics

$$$$

     RDKit          3D

 28 27  0  0  0  0  0  0  0  0999 V2000
   -0.9210   -1.0156    0.0849 C   0  0  0  0  0  0  0  0  0  0  0  0
   -1.2103   -0.4155    1.3107 O   0  0  0  0  0  0  0  0  0  0  0  0
   -1.9630   -1.2803    2.1397 C   0  0  0  0  0  0  0  0  0  0  0  0
   -3.2381   -1.7153    1.4317 C   0  0  0  0  0  0  0  0  0  0  0  0
   -2.8713   -2.2700    0.0626 C   0  0  0  0  0  0  0  0  0  0  0  0
   -2.0646   -1.3463   -0.6426 O   0  0  0  0  0  0  0  0  0  0  0  0
   -0.3178   -1.9263    0.2551 H   0  0  0  0  0  0  0  0  0  0  0  0
   -1.3559   -2.1616    2.3978 H   0  0  0  0  0  0  0  0  0  0  0  0
   -2.1731   -0.7313    3.0566 H   0  0  0  0  0  0  0  0  0  0  0  0
   -3.7638   -2.4700    2.0211 H   0  0  0  0  0  0  0  0  0  0  0  0
   -3.8975   -0.8539    1.3096 H   0  0  0  0  0  0  0  0  0  0  0  0
   -3.7516   -2.4511   -0.5527 H   0  0  0  0  0  0  0  0  0  0  0  0
   -2.3282   -3.2210    0.1746 H   0  0  0  0  0  0  0  0  0  0  0  0
    1.2623    0.0959   -2.3484 C   0  0  0  0  0  0  0  0  0  0  0  0
    1.2623    0.0959   -0.8287 C   0  0  0  0  0  3  0  0  0  0  0  0
    1.2623    1.7369   -0.0638 S   0  0  0  0  0  0  0  0  0  0  0  0
    2.8029    2.4509   -0.6924 C   0  0  0  0  0  0  0  0  0  0  0  0
    4.0639    1.6920   -0.3132 C   0  0  0  0  0  0  0  0  0  0  0  0
    2.1854    0.5194   -2.7478 H   0  0  0  0  0  0  0  0  0  0  0  0
    1.1798   -0.9253   -2.7271 H   0  0  0  0  0  0  0  0  0  0  0  0
    0.4266    0.6783   -2.7378 H   0  0  0  0  0  0  0  0  0  0  0  0
    0.1689   -0.4608   -0.3711 H   0  0  0  0  0  0  0  0  0  0  0  0
    2.0985   -0.4868   -0.4387 H   0  0  0  0  0  0  0  0  0  0  0  0
    2.7318    2.5731   -1.7744 H   0  0  0  0  0  0  0  0  0  0  0  0
    2.8180    3.4540   -0.2631 H   0  0  0  0  0  0  0  0  0  0  0  0
    4.0851    0.7002   -0.7679 H   0  0  0  0  0  0  0  0  0  0  0  0
    4.1345    1.5700    0.7682 H   0  0  0  0  0  0  0  0  0  0  0  0
    4.9486    2.2304   -0.6601 H   0  0  0  0  0  0  0  0  0  0  0  0
  1  2  1  0
  1  6  1  0
  1  7  1  0
  1 22  1  0
  2  3  1  0
  3  4  1  0
  3  8  1  0
  3  9  1  0
  4  5  1  0
  4 10  1  0
  4 11  1  0
  5  6  1  0
  5 12  1  0
  5 13  1  0
 14 15  1  0
 14 19  1  0
 14 20  1  0
 14 21  1  0
 15 16  1  0
 15 23  1  0
 16 17  1  0
 17 18  1  0
 17 24  1  0
 17 25  1  0
 18 26  1  0
 18 27  1  0
 18 28  1  0
M  RAD  1  15   2
M  END
>  <reaction>  (15) 
rmg_rxn_65

>  <mol_properties>  (15) 
{"0": {"label": "*3", "atom_type": "Cs"}, "1": {"label": "*4", "atom_type": "O2s"}, "14": {"label": "*1", "atom_type": "Cs"}, "15": {"label": "*0", "atom_type": "S2s"}, "21": {"label": "*2", "atom_type": "H0"}}

>  <type>  (15) 
unop_11

>  <geom_source>  (15) 
Heuristics

$$$$

     RDKit          3D

 28 27  0  0  0  0  0  0  0  0999 V2000
   -1.0822   -0.6512    0.3602 C   0  0  0  0  0  0  0  0  0  0  0  0
   -1.8433   -1.0386   -0.7430 O   0  0  0  0  0  0  0  0  0  0  0  0
   -3.0415   -1.6745   -0.3411 C   0  0  0  0  0  0  0  0  0  0  0  0
   -2.7338   -2.8663    0.5542 C   0  0  0  0  0  0  0  0  0  0  0  0
   -1.8220   -2.4065    1.6828 C   0  0  0  0  0  0  0  0  0  0  0  0
   -0.6965   -1.7270    1.1603 O   0  0  0  0  0  0  0  0  0  0  0  0
   -1.6576    0.0710    0.9681 H   0  0  0  0  0  0  0  0  0  0  0  0
   -3.6771   -0.9539    0.1962 H   0  0  0  0  0  0  0  0  0  0  0  0
   -3.5592   -1.9721   -1.2519 H   0  0  0  0  0  0  0  0  0  0  0  0
   -3.6567   -3.2895    0.9572 H   0  0  0  0  0  0  0  0  0  0  0  0
   -2.2281   -3.6379   -0.0296 H   0  0  0  0  0  0  0  0  0  0  0  0
   -1.4401   -3.2441    2.2649 H   0  0  0  0  0  0  0  0  0  0  0  0
   -2.3718   -1.7374    2.3624 H   0  0  0  0  0  0  0  0  0  0  0  0
    1.1012    0.4603   -2.0732 C   0  0  0  0  0  0  0  0  0  0  0  0
    1.1012    0.4603   -0.5535 C   0  0  0  0  0  3  0  0  0  0  0  0
    1.1012    2.1014    0.2114 S   0  0  0  0  0  0  0  0  0  0  0  0
    2.6418    2.8153   -0.4172 C   0  0  0  0  0  0  0  0  0  0  0  0
    3.9027    2.0565   -0.0379 C   0  0  0  0  0  0  0  0  0  0  0  0
    2.0242    0.8839   -2.4726 H   0  0  0  0  0  0  0  0  0  0  0  0
    1.0186   -0.5609   -2.4519 H   0  0  0  0  0  0  0  0  0  0  0  0
    0.2654    1.0428   -2.4626 H   0  0  0  0  0  0  0  0  0  0  0  0
    0.0077   -0.0963   -0.0959 H   0  0  0  0  0  0  0  0  0  0  0  0
    1.9374   -0.1223   -0.1634 H   0  0  0  0  0  0  0  0  0  0  0  0
    2.5706    2.9375   -1.4992 H   0  0  0  0  0  0  0  0  0  0  0  0
    2.6568    3.8185    0.0121 H   0  0  0  0  0  0  0  0  0  0  0  0
    3.9239    1.0646   -0.4926 H   0  0  0  0  0  0  0  0  0  0  0  0
    3.9733    1.9344    1.0435 H   0  0  0  0  0  0  0  0  0  0  0  0
    4.7874    2.5949   -0.3849 H   0  0  0  0  0  0  0  0  0  0  0  0
  1  2  1  0
  1  6  1  0
  1  7  1  0
  1 22  1  0
  2  3  1  0
  3  4  1  0
  3  8  1  0
  3  9  1  0
  4  5  1  0
  4 10  1  0
  4 11  1  0
  5  6  1  0
  5 12  1  0
  5 13  1  0
 14 15  1  0
 14 19  1  0
 14 20  1  0
 14 21  1  0
 15 16  1  0
 15 23  1  0
 16 17  1  0
 17 18  1  0
 17 24  1  0
 17 25  1  0
 18 26  1  0
 18 27  1  0
 18 28  1  0
M  RAD  1  15   2
M  END
>  <reaction>  (16) 
rmg_rxn_65

>  <mol_properties>  (16) 
{"0": {"label": "*3", "atom_type": "Cs"}, "1": {"label": "*4", "atom_type": "O2s"}, "14": {"label": "*1", "atom_type": "Cs"}, "15": {"label": "*0", "atom_type": "S2s"}, "21": {"label": "*2", "atom_type": "H0"}}

>  <type>  (16) 
unop_12

>  <geom_source>  (16) 
Heuristics

$$$$

     RDKit          3D

 28 27  0  0  0  0  0  0  0  0999 V2000
    1.9938    0.0941   -1.4915 S   0  0  0  0  0  0  0  0  0  0  0  0
   -0.6517    0.6904    1.0222 O   0  0  0  0  0  0  0  0  0  0  0  0
   -2.0947   -0.9321    0.0040 O   0  0  0  0  0  0  0  0  0  0  0  0
   -2.8555    1.3328    0.3016 C   0  0  0  0  0  0  0  0  0  0  0  0
   -1.3505    1.5777    0.1779 C   0  0  0  0  0  0  0  0  0  0  0  0
   -3.0918   -0.1452    0.6178 C   0  0  0  0  0  0  0  0  0  0  0  0
    2.0156    1.0513    0.0633 C   0  0  0  0  0  0  0  0  0  0  0  0
    3.2815    0.7645    0.8606 C   0  0  0  0  0  0  0  0  0  0  0  0
   -0.8171   -0.6494    0.5689 C   0  0  0  0  0  0  0  0  0  0  0  0
    0.7751   -2.3491   -1.7988 C   0  0  0  0  0  0  0  0  0  0  0  0
    1.3328   -1.4244   -0.7305 C   0  0  0  0  0  3  0  0  0  0  0  0
   -3.2822    1.9572    1.1165 H   0  0  0  0  0  0  0  0  0  0  0  0
   -3.3544    1.6069   -0.6533 H   0  0  0  0  0  0  0  0  0  0  0  0
   -1.1207    2.6215    0.4790 H   0  0  0  0  0  0  0  0  0  0  0  0
   -1.0185    1.4570   -0.8795 H   0  0  0  0  0  0  0  0  0  0  0  0
   -3.0996   -0.3142    1.7196 H   0  0  0  0  0  0  0  0  0  0  0  0
   -4.0860   -0.4511    0.2290 H   0  0  0  0  0  0  0  0  0  0  0  0
    1.1170    0.8258    0.6768 H   0  0  0  0  0  0  0  0  0  0  0  0
    1.9922    2.1311   -0.1946 H   0  0  0  0  0  0  0  0  0  0  0  0
    4.1794    0.9880    0.2464 H   0  0  0  0  0  0  0  0  0  0  0  0
    3.3017    1.4044    1.7678 H   0  0  0  0  0  0  0  0  0  0  0  0
    3.3095   -0.2983    1.1781 H   0  0  0  0  0  0  0  0  0  0  0  0
   -0.6422   -1.3371    1.4232 H   0  0  0  0  0  0  0  0  0  0  0  0
    0.1296   -0.9132   -0.3577 H   0  0  0  0  0  0  0  0  0  0  0  0
   -0.0429   -1.8398   -2.3501 H   0  0  0  0  0  0  0  0  0  0  0  0
    0.3671   -3.2627   -1.3186 H   0  0  0  0  0  0  0  0  0  0  0  0
    1.5763   -2.6412   -2.5104 H   0  0  0  0  0  0  0  0  0  0  0  0
    2.1361   -1.9447   -0.1679 H   0  0  0  0  0  0  0  0  0  0  0  0
  1 11  1  0
  1  7  1  0
  2  5  1  0
  2  9  1  0
  3  6  1  0
  3  9  1  0
  4  5  1  0
  4  6  1  0
  4 12  1  0
  4 13  1  0
  5 14  1  0
  5 15  1  0
  6 16  1  0
  6 17  1  0
  7  8  1  0
  7 18  1  0
  7 19  1  0
  8 20  1  0
  8 21  1  0
  8 22  1  0
  9 23  1  0
  9 24  1  0
 10 11  1  0
 10 25  1  0
 10 26  1  0
 10 27  1  0
 11 28  1  0
M  RAD  1  11   2
M  END
>  <reaction>  (17) 
rmg_rxn_65

>  <mol_properties>  (17) 
{"0": {"label": "*3", "atom_type": "Cs"}, "1": {"label": "*4", "atom_type": "O2s"}, "14": {"label": "*1", "atom_type": "Cs"}, "15": {"label": "*0", "atom_type": "S2s"}, "21": {"label": "*2", "atom_type": "H0"}}

>  <type>  (17) 
unop_13

>  <geom_source>  (17) 
AutoTST

$$$$

     RDKit          3D

 28 27  0  0  0  0  0  0  0  0999 V2000
   -1.3235   -0.5700    0.2040 C   0  0  0  0  0  0  0  0  0  0  0  0
   -1.7270   -1.5228   -0.7319 O   0  0  0  0  0  0  0  0  0  0  0  0
   -2.6107   -2.4652   -0.1556 C   0  0  0  0  0  0  0  0  0  0  0  0
   -1.9637   -3.1280    1.0522 C   0  0  0  0  0  0  0  0  0  0  0  0
   -1.4553   -2.0428    1.9905 C   0  0  0  0  0  0  0  0  0  0  0  0
   -0.6404   -1.1255    1.2862 O   0  0  0  0  0  0  0  0  0  0  0  0
   -2.2084   -0.0189    0.5719 H   0  0  0  0  0  0  0  0  0  0  0  0
   -3.5410   -1.9597    0.1455 H   0  0  0  0  0  0  0  0  0  0  0  0
   -2.8521   -3.1864   -0.9353 H   0  0  0  0  0  0  0  0  0  0  0  0
   -2.6823   -3.7708    1.5656 H   0  0  0  0  0  0  0  0  0  0  0  0
   -1.1254   -3.7446    0.7222 H   0  0  0  0  0  0  0  0  0  0  0  0
   -0.8444   -2.4522    2.7938 H   0  0  0  0  0  0  0  0  0  0  0  0
   -2.3044   -1.5075    2.4426 H   0  0  0  0  0  0  0  0  0  0  0  0
    0.8598    0.5414   -2.2294 C   0  0  0  0  0  0  0  0  0  0  0  0
    0.8598    0.5414   -0.7096 C   0  0  0  0  0  3  0  0  0  0  0  0
    0.8598    2.1825    0.0553 S   0  0  0  0  0  0  0  0  0  0  0  0
    2.4004    2.8964   -0.5733 C   0  0  0  0  0  0  0  0  0  0  0  0
    3.6614    2.1376   -0.1941 C   0  0  0  0  0  0  0  0  0  0  0  0
    1.7829    0.9650   -2.6288 H   0  0  0  0  0  0  0  0  0  0  0  0
    0.7773   -0.4798   -2.6080 H   0  0  0  0  0  0  0  0  0  0  0  0
    0.0241    1.1239   -2.6188 H   0  0  0  0  0  0  0  0  0  0  0  0
   -0.2336   -0.0152   -0.2521 H   0  0  0  0  0  0  0  0  0  0  0  0
    1.6960   -0.0412   -0.3196 H   0  0  0  0  0  0  0  0  0  0  0  0
    2.3293    3.0186   -1.6554 H   0  0  0  0  0  0  0  0  0  0  0  0
    2.4155    3.8996   -0.1441 H   0  0  0  0  0  0  0  0  0  0  0  0
    3.6826    1.1457   -0.6488 H   0  0  0  0  0  0  0  0  0  0  0  0
    3.7320    2.0155    0.8873 H   0  0  0  0  0  0  0  0  0  0  0  0
    4.5461    2.6760   -0.5411 H   0  0  0  0  0  0  0  0  0  0  0  0
  1  2  1  0
  1  6  1  0
  1  7  1  0
  1 22  1  0
  2  3  1  0
  3  4  1  0
  3  8  1  0
  3  9  1  0
  4  5  1  0
  4 10  1  0
  4 11  1  0
  5  6  1  0
  5 12  1  0
  5 13  1  0
 14 15  1  0
 14 19  1  0
 14 20  1  0
 14 21  1  0
 15 16  1  0
 15 23  1  0
 16 17  1  0
 17 18  1  0
 17 24  1  0
 17 25  1  0
 18 26  1  0
 18 27  1  0
 18 28  1  0
M  RAD  1  15   2
M  END
>  <reaction>  (18) 
rmg_rxn_65

>  <mol_properties>  (18) 
{"0": {"label": "*3", "atom_type": "Cs"}, "1": {"label": "*4", "atom_type": "O2s"}, "14": {"label": "*1", "atom_type": "Cs"}, "15": {"label": "*0", "atom_type": "S2s"}, "21": {"label": "*2", "atom_type": "H0"}}

>  <type>  (18) 
unop_14

>  <geom_source>  (18) 
gaussian_log

$$$$
