
     RDKit          3D

  8  7  0  0  0  0  0  0  0  0999 V2000
    0.9548    0.1194   -0.0790 C   0  0  0  0  0  0  0  0  0  0  0  0
   -0.4838   -0.2649    0.0193 C   0  0  0  0  0  0  0  0  0  0  0  0
   -0.8933   -1.1081    0.8664 N   0  0  0  0  0  0  0  0  0  0  0  0
    1.3360   -0.0983   -1.0800 H   0  0  0  0  0  0  0  0  0  0  0  0
    1.0698    1.1948    0.0786 H   0  0  0  0  0  0  0  0  0  0  0  0
    1.5426   -0.4219    0.6602 H   0  0  0  0  0  0  0  0  0  0  0  0
   -1.1575    0.2324   -0.6905 H   0  0  0  0  0  0  0  0  0  0  0  0
   -1.8989   -1.2455    0.7886 H   0  0  0  0  0  0  0  0  0  0  0  0
  1  2  1  0
  1  4  1  0
  1  5  1  0
  1  6  1  0
  2  3  2  3
  2  7  1  0
  3  8  1  0
M  END
>  <reaction>  (1) 
rmg_rxn_16498

>  <mol_properties>  (1) 
{"2": {"label": "donator", "atom_type": "N3d"}, "7": {"label": "d_hydrogen", "atom_type": "H0"}}

>  <type>  (1) 
r1h

$$$$

     RDKit          3D

  8  7  0  0  0  0  0  0  0  0999 V2000
   -0.9782    0.4241    0.0826 C   0  0  0  0  0  3  0  0  0  0  0  0
    0.0504   -0.5484   -0.3049 C   0  0  0  0  0  0  0  0  0  0  0  0
    1.5829   -0.3827    0.7251 S   0  0  0  0  0  0  0  0  0  0  0  0
   -1.0358    1.3853   -0.4103 H   0  0  0  0  0  0  0  0  0  0  0  0
   -1.5488    0.2794    0.9896 H   0  0  0  0  0  0  0  0  0  0  0  0
    0.3373   -0.4650   -1.3511 H   0  0  0  0  0  0  0  0  0  0  0  0
   -0.2617   -1.5762   -0.1147 H   0  0  0  0  0  0  0  0  0  0  0  0
    1.8538    0.8835    0.3837 H   0  0  0  0  0  0  0  0  0  0  0  0
  1  2  1  0
  1  4  1  0
  1  5  1  0
  2  3  1  0
  2  6  1  0
  2  7  1  0
  3  8  1  0
M  RAD  1   1   2
M  END
>  <reaction>  (2) 
rmg_rxn_16498

>  <mol_properties>  (2) 
{"0": {"label": "acceptor", "atom_type": "Cs"}}

>  <type>  (2) 
r2

$$$$

     RDKit          3D

  9  8  0  0  0  0  0  0  0  0999 V2000
   -0.8818   -0.3578    0.1297 C   0  0  0  0  0  0  0  0  0  0  0  0
    0.6153   -0.3021   -0.1188 C   0  0  0  0  0  0  0  0  0  0  0  0
    1.5354   -1.7170    0.5545 S   0  0  0  0  0  0  0  0  0  0  0  0
   -1.1018   -0.3317    1.1984 H   0  0  0  0  0  0  0  0  0  0  0  0
   -1.3114   -1.2723   -0.2799 H   0  0  0  0  0  0  0  0  0  0  0  0
   -1.3767    0.4976   -0.3363 H   0  0  0  0  0  0  0  0  0  0  0  0
    1.0467    0.6194    0.2718 H   0  0  0  0  0  0  0  0  0  0  0  0
    0.8295   -0.3275   -1.1882 H   0  0  0  0  0  0  0  0  0  0  0  0
    1.2306   -1.5077    1.8423 H   0  0  0  0  0  0  0  0  0  0  0  0
  1  2  1  0
  1  4  1  0
  1  5  1  0
  1  6  1  0
  2  3  1  0
  2  7  1  0
  2  8  1  0
  3  9  1  0
M  END
>  <reaction>  (3) 
rmg_rxn_16498

>  <mol_properties>  (3) 
{"0": {"label": "acceptor", "atom_type": "Cs"}, "8": {"label": "a_hydrogen", "atom_type": "H0"}}

>  <type>  (3) 
r2h

$$$$

     RDKit          3D

 16 14  0  0  0  0  0  0  0  0999 V2000
    0.3013   -0.6576   -0.6205 C   0  0  0  0  0  3  0  0  0  0  0  0
    0.9005   -0.0329    0.5980 C   0  0  0  0  0  0  0  0  0  0  0  0
    2.6506    0.4562    0.3758 S   0  0  0  0  0  0  0  0  0  0  0  0
    0.2651   -0.0185   -1.4998 H   0  0  0  0  0  0  0  0  0  0  0  0
    0.6651   -1.6571   -0.8519 H   0  0  0  0  0  0  0  0  0  0  0  0
    0.8243   -0.6896    1.4633 H   0  0  0  0  0  0  0  0  0  0  0  0
    0.3985    0.9021    0.8525 H   0  0  0  0  0  0  0  0  0  0  0  0
    3.1264   -0.7743    0.1444 H   0  0  0  0  0  0  0  0  0  0  0  0
   -2.5341    1.2354   -0.3297 C   0  0  0  0  0  0  0  0  0  0  0  0
   -2.8794   -0.1741    0.0557 C   0  0  0  0  0  0  0  0  0  0  0  0
   -2.1577   -1.2011    0.0650 N   0  0  0  0  0  0  0  0  0  0  0  0
   -1.5102    1.3245   -0.6848 H   0  0  0  0  0  0  0  0  0  0  0  0
   -3.2144    1.5781   -1.1122 H   0  0  0  0  0  0  0  0  0  0  0  0
   -2.6771    1.8949    0.5294 H   0  0  0  0  0  0  0  0  0  0  0  0
   -3.9193   -0.3200    0.3771 H   0  0  0  0  0  0  0  0  0  0  0  0
   -1.0173   -0.9544   -0.2927 H   0  0  0  0  0  0  0  0  0  0  0  0
  1  2  1  0
  1  4  1  0
  1  5  1  0
  2  3  1  0
  2  6  1  0
  2  7  1  0
  3  8  1  0
  9 10  1  0
  9 12  1  0
  9 13  1  0
  9 14  1  0
 10 11  2  3
 10 15  1  0
 11 16  1  0
M  RAD  1   1   2
M  END
>  <reaction>  (4) 
rmg_rxn_16498

>  <mol_properties>  (4) 
{"0": {"label": "*3", "atom_type": "Cs"}, "1": {"label": "*4", "atom_type": "Cs"}, "9": {"label": "*0", "atom_type": "Cd"}, "10": {"label": "*1", "atom_type": "N3d"}, "15": {"label": "*2", "atom_type": "H0"}}

>  <type>  (4) 
ts

$$$$

     RDKit          3D

 16 14  0  0  0  0  0  0  0  0999 V2000
    0.2449   -0.6823   -0.6280 C   0  0  0  0  0  3  0  0  0  0  0  0
    1.0097   -0.0978    0.5037 C   0  0  0  0  0  0  0  0  0  0  0  0
    2.7633    0.2728    0.0076 S   0  0  0  0  0  0  0  0  0  0  0  0
    0.1792   -0.0301   -1.4926 H   0  0  0  0  0  0  0  0  0  0  0  0
    0.5786   -1.6756   -0.9101 H   0  0  0  0  0  0  0  0  0  0  0  0
    1.0574   -0.7622    1.3646 H   0  0  0  0  0  0  0  0  0  0  0  0
    0.6248    0.8727    0.8138 H   0  0  0  0  0  0  0  0  0  0  0  0
    3.0890   -0.9856   -0.2778 H   0  0  0  0  0  0  0  0  0  0  0  0
   -2.6325    1.3233   -0.1716 C   0  0  0  0  0  0  0  0  0  0  0  0
   -2.8986   -0.1085    0.1830 C   0  0  0  0  0  0  0  0  0  0  0  0
   -2.1456   -1.0904    0.1495 N   0  0  0  0  0  0  0  0  0  0  0  0
   -2.8033    1.9476    0.7042 H   0  0  0  0  0  0  0  0  0  0  0  0
   -1.6136    1.4614   -0.5222 H   0  0  0  0  0  0  0  0  0  0  0  0
   -3.3291    1.6373   -0.9473 H   0  0  0  0  0  0  0  0  0  0  0  0
   -3.9256   -0.2877    0.5222 H   0  0  0  0  0  0  0  0  0  0  0  0
   -0.9763   -0.8836   -0.2294 H   0  0  0  0  0  0  0  0  0  0  0  0
  1  2  1  0
  1  4  1  0
  1  5  1  0
  2  3  1  0
  2  6  1  0
  2  7  1  0
  3  8  1  0
  9 10  1  0
  9 12  1  0
  9 13  1  0
  9 14  1  0
 10 11  2  3
 10 15  1  0
 11 16  1  0
M  RAD  1   1   2
M  END
>  <reaction>  (5) 
rmg_rxn_16498

>  <mol_properties>  (5) 
{"0": {"label": "*3", "atom_type": "Cs"}, "1": {"label": "*4", "atom_type": "Cs"}, "9": {"label": "*0", "atom_type": "Cd"}, "10": {"label": "*1", "atom_type": "N3d"}, "15": {"label": "*2", "atom_type": "H0"}}

>  <type>  (5) 
unop_1

>  <geom_source>  (5) 
crest_best.xyz

$$$$

     RDKit          3D

 16 14  0  0  0  0  0  0  0  0999 V2000
   -0.9705    0.2055    1.0261 C   0  0  0  0  0  3  0  0  0  0  0  0
    0.2576    0.7995    1.6934 C   0  0  0  0  0  0  0  0  0  0  0  0
    1.6207   -0.3788    1.9289 S   0  0  0  0  0  0  0  0  0  0  0  0
   -1.4065   -0.5835    1.6415 H   0  0  0  0  0  0  0  0  0  0  0  0
   -1.7319    0.9748    0.8771 H   0  0  0  0  0  0  0  0  0  0  0  0
    0.0070    1.2482    2.6544 H   0  0  0  0  0  0  0  0  0  0  0  0
    0.6886    1.5880    1.0748 H   0  0  0  0  0  0  0  0  0  0  0  0
    0.9656   -1.2215    2.7387 H   0  0  0  0  0  0  0  0  0  0  0  0
   -0.9705   -0.3904   -3.6184 C   0  0  0  0  0  0  0  0  0  0  0  0
   -0.9705   -0.3904   -2.1260 C   0  0  0  0  0  0  0  0  0  0  0  0
   -0.9705    0.6822   -1.4583 N   0  0  0  0  0  0  0  0  0  0  0  0
   -0.0923   -0.9204   -3.9958 H   0  0  0  0  0  0  0  0  0  0  0  0
   -1.8488   -0.9204   -3.9958 H   0  0  0  0  0  0  0  0  0  0  0  0
   -0.9705    0.6302   -3.9969 H   0  0  0  0  0  0  0  0  0  0  0  0
   -0.9705   -1.3801   -1.6514 H   0  0  0  0  0  0  0  0  0  0  0  0
   -0.9705    0.4521   -0.2587 H   0  0  0  0  0  0  0  0  0  0  0  0
  1  2  1  0
  1  4  1  0
  1  5  1  0
  2  3  1  0
  2  6  1  0
  2  7  1  0
  3  8  1  0
  9 10  1  0
  9 12  1  0
  9 13  1  0
  9 14  1  0
 10 11  2  3
 10 15  1  0
 11 16  1  0
M  RAD  1   1   2
M  END
>  <reaction>  (6) 
rmg_rxn_16498

>  <mol_properties>  (6) 
{"0": {"label": "*3", "atom_type": "Cs"}, "1": {"label": "*4", "atom_type": "Cs"}, "9": {"label": "*0", "atom_type": "Cd"}, "10": {"label": "*1", "atom_type": "N3d"}, "15": {"label": "*2", "atom_type": "H0"}}

>  <type>  (6) 
unop_2

>  <geom_source>  (6) 
Heuristics

$$$$

     RDKit          3D

 16 14  0  0  0  0  0  0  0  0999 V2000
   -0.0137    1.1551    1.3917 C   0  0  0  0  0  3  0  0  0  0  0  0
    0.6954   -0.1535    1.6939 C   0  0  0  0  0  0  0  0  0  0  0  0
   -0.2699   -1.6365    1.2809 S   0  0  0  0  0  0  0  0  0  0  0  0
   -0.9210    1.2551    1.9901 H   0  0  0  0  0  0  0  0  0  0  0  0
    0.6365    2.0021    1.6230 H   0  0  0  0  0  0  0  0  0  0  0  0
    0.9971   -0.2069    2.7398 H   0  0  0  0  0  0  0  0  0  0  0  0
    1.6017   -0.2479    1.0941 H   0  0  0  0  0  0  0  0  0  0  0  0
   -1.2847   -1.4071    2.1250 H   0  0  0  0  0  0  0  0  0  0  0  0
   -0.0137    0.5591   -3.2528 C   0  0  0  0  0  0  0  0  0  0  0  0
   -0.0137    0.5591   -1.7605 C   0  0  0  0  0  0  0  0  0  0  0  0
   -0.0137    1.6318   -1.0928 N   0  0  0  0  0  0  0  0  0  0  0  0
    0.8646    0.0291   -3.6302 H   0  0  0  0  0  0  0  0  0  0  0  0
   -0.8919    0.0291   -3.6302 H   0  0  0  0  0  0  0  0  0  0  0  0
   -0.0137    1.5797   -3.6314 H   0  0  0  0  0  0  0  0  0  0  0  0
   -0.0137   -0.4306   -1.2858 H   0  0  0  0  0  0  0  0  0  0  0  0
   -0.0137    1.4016    0.1068 H   0  0  0  0  0  0  0  0  0  0  0  0
  1  2  1  0
  1  4  1  0
  1  5  1  0
  2  3  1  0
  2  6  1  0
  2  7  1  0
  3  8  1  0
  9 10  1  0
  9 12  1  0
  9 13  1  0
  9 14  1  0
 10 11  2  3
 10 15  1  0
 11 16  1  0
M  RAD  1   1   2
M  END
>  <reaction>  (7) 
rmg_rxn_16498

>  <mol_properties>  (7) 
{"0": {"label": "*3", "atom_type": "Cs"}, "1": {"label": "*4", "atom_type": "Cs"}, "9": {"label": "*0", "atom_type": "Cd"}, "10": {"label": "*1", "atom_type": "N3d"}, "15": {"label": "*2", "atom_type": "H0"}}

>  <type>  (7) 
unop_3

>  <geom_source>  (7) 
Heuristics

$$$$

     RDKit          3D

 16 14  0  0  0  0  0  0  0  0999 V2000
   -0.8763   -0.3186    1.0189 C   0  0  0  0  0  3  0  0  0  0  0  0
   -0.1673    0.7852    1.7839 C   0  0  0  0  0  0  0  0  0  0  0  0
    1.6332    0.5709    1.9032 S   0  0  0  0  0  0  0  0  0  0  0  0
   -0.7573   -1.2805    1.5206 H   0  0  0  0  0  0  0  0  0  0  0  0
   -1.9458   -0.1062    0.9488 H   0  0  0  0  0  0  0  0  0  0  0  0
   -0.5780    0.8973    2.7871 H   0  0  0  0  0  0  0  0  0  0  0  0
   -0.2902    1.7443    1.2787 H   0  0  0  0  0  0  0  0  0  0  0  0
    1.6122   -0.5817    2.5859 H   0  0  0  0  0  0  0  0  0  0  0  0
   -0.8763   -0.9145   -3.6256 C   0  0  0  0  0  0  0  0  0  0  0  0
   -0.8763   -0.9145   -2.1333 C   0  0  0  0  0  0  0  0  0  0  0  0
   -0.8763    0.1581   -1.4656 N   0  0  0  0  0  0  0  0  0  0  0  0
    0.0019   -1.4445   -4.0030 H   0  0  0  0  0  0  0  0  0  0  0  0
   -1.7546   -1.4445   -4.0030 H   0  0  0  0  0  0  0  0  0  0  0  0
   -0.8763    0.1061   -4.0042 H   0  0  0  0  0  0  0  0  0  0  0  0
   -0.8763   -1.9042   -1.6587 H   0  0  0  0  0  0  0  0  0  0  0  0
   -0.8763   -0.0720   -0.2660 H   0  0  0  0  0  0  0  0  0  0  0  0
  1  2  1  0
  1  4  1  0
  1  5  1  0
  2  3  1  0
  2  6  1  0
  2  7  1  0
  3  8  1  0
  9 10  1  0
  9 12  1  0
  9 13  1  0
  9 14  1  0
 10 11  2  3
 10 15  1  0
 11 16  1  0
M  RAD  1   1   2
M  END
>  <reaction>  (8) 
rmg_rxn_16498

>  <mol_properties>  (8) 
{"0": {"label": "*3", "atom_type": "Cs"}, "1": {"label": "*4", "atom_type": "Cs"}, "9": {"label": "*0", "atom_type": "Cd"}, "10": {"label": "*1", "atom_type": "N3d"}, "15": {"label": "*2", "atom_type": "H0"}}

>  <type>  (8) 
unop_4

>  <geom_source>  (8) 
Heuristics

$$$$

     RDKit          3D

 16 14  0  0  0  0  0  0  0  0999 V2000
    1.0021    0.3835    1.5704 C   0  0  0  0  0  3  0  0  0  0  0  0
   -0.2260   -0.4152    1.9705 C   0  0  0  0  0  0  0  0  0  0  0  0
   -1.6487   -0.2000    0.8607 S   0  0  0  0  0  0  0  0  0  0  0  0
    0.7995    1.4555    1.6053 H   0  0  0  0  0  0  0  0  0  0  0  0
    1.8298    0.1757    2.2527 H   0  0  0  0  0  0  0  0  0  0  0  0
   -0.5335   -0.1831    2.9899 H   0  0  0  0  0  0  0  0  0  0  0  0
   -0.0177   -1.4855    1.9349 H   0  0  0  0  0  0  0  0  0  0  0  0
   -1.8138    1.1137    1.0653 H   0  0  0  0  0  0  0  0  0  0  0  0
    1.0021   -0.2124   -3.0741 C   0  0  0  0  0  0  0  0  0  0  0  0
    1.0021   -0.2124   -1.5817 C   0  0  0  0  0  0  0  0  0  0  0  0
    1.0021    0.8602   -0.9141 N   0  0  0  0  0  0  0  0  0  0  0  0
    1.8804   -0.7424   -3.4515 H   0  0  0  0  0  0  0  0  0  0  0  0
    0.1238   -0.7424   -3.4515 H   0  0  0  0  0  0  0  0  0  0  0  0
    1.0021    0.8082   -3.4527 H   0  0  0  0  0  0  0  0  0  0  0  0
    1.0021   -1.2021   -1.1071 H   0  0  0  0  0  0  0  0  0  0  0  0
    1.0021    0.6301    0.2855 H   0  0  0  0  0  0  0  0  0  0  0  0
  1  2  1  0
  1  4  1  0
  1  5  1  0
  2  3  1  0
  2  6  1  0
  2  7  1  0
  3  8  1  0
  9 10  1  0
  9 12  1  0
  9 13  1  0
  9 14  1  0
 10 11  2  3
 10 15  1  0
 11 16  1  0
M  RAD  1   1   2
M  END
>  <reaction>  (9) 
rmg_rxn_16498

>  <mol_properties>  (9) 
{"0": {"label": "*3", "atom_type": "Cs"}, "1": {"label": "*4", "atom_type": "Cs"}, "9": {"label": "*0", "atom_type": "Cd"}, "10": {"label": "*1", "atom_type": "N3d"}, "15": {"label": "*2", "atom_type": "H0"}}

>  <type>  (9) 
unop_5

>  <geom_source>  (9) 
Heuristics

$$$$

     RDKit          3D

 16 14  0  0  0  0  0  0  0  0999 V2000
   -0.4423   -0.8136    1.1568 C   0  0  0  0  0  3  0  0  0  0  0  0
   -0.4423    0.4767    1.9577 C   0  0  0  0  0  0  0  0  0  0  0  0
    0.9511    1.5829    1.5881 S   0  0  0  0  0  0  0  0  0  0  0  0
    0.4399   -1.4147    1.3843 H   0  0  0  0  0  0  0  0  0  0  0  0
   -1.3260   -1.4098    1.3962 H   0  0  0  0  0  0  0  0  0  0  0  0
   -0.4617    0.2769    3.0288 H   0  0  0  0  0  0  0  0  0  0  0  0
   -1.3264    1.0730    1.7273 H   0  0  0  0  0  0  0  0  0  0  0  0
    1.9249    0.7489    1.9770 H   0  0  0  0  0  0  0  0  0  0  0  0
   -0.4423   -1.4095   -3.4877 C   0  0  0  0  0  0  0  0  0  0  0  0
   -0.4423   -1.4095   -1.9954 C   0  0  0  0  0  0  0  0  0  0  0  0
   -0.4423   -0.3369   -1.3277 N   0  0  0  0  0  0  0  0  0  0  0  0
    0.4359   -1.9395   -3.8651 H   0  0  0  0  0  0  0  0  0  0  0  0
   -1.3206   -1.9395   -3.8651 H   0  0  0  0  0  0  0  0  0  0  0  0
   -0.4423   -0.3889   -3.8663 H   0  0  0  0  0  0  0  0  0  0  0  0
   -0.4423   -2.3992   -1.5207 H   0  0  0  0  0  0  0  0  0  0  0  0
   -0.4423   -0.5670   -0.1281 H   0  0  0  0  0  0  0  0  0  0  0  0
  1  2  1  0
  1  4  1  0
  1  5  1  0
  2  3  1  0
  2  6  1  0
  2  7  1  0
  3  8  1  0
  9 10  1  0
  9 12  1  0
  9 13  1  0
  9 14  1  0
 10 11  2  3
 10 15  1  0
 11 16  1  0
M  RAD  1   1   2
M  END
>  <reaction>  (10) 
rmg_rxn_16498

>  <mol_properties>  (10) 
{"0": {"label": "*3", "atom_type": "Cs"}, "1": {"label": "*4", "atom_type": "Cs"}, "9": {"label": "*0", "atom_type": "Cd"}, "10": {"label": "*1", "atom_type": "N3d"}, "15": {"label": "*2", "atom_type": "H0"}}

>  <type>  (10) 
unop_6

>  <geom_source>  (10) 
Heuristics

$$$$

     RDKit          3D

 16 14  0  0  0  0  0  0  0  0999 V2000
    1.0293   -0.0923    1.5052 C   0  0  0  0  0  3  0  0  0  0  0  0
   -0.3888   -0.1947    2.0389 C   0  0  0  0  0  0  0  0  0  0  0  0
   -1.6487    0.5334    0.9506 S   0  0  0  0  0  0  0  0  0  0  0  0
    1.3356    0.9507    1.4071 H   0  0  0  0  0  0  0  0  0  0  0  0
    1.7281   -0.5851    2.1853 H   0  0  0  0  0  0  0  0  0  0  0  0
   -0.4722    0.2552    3.0280 H   0  0  0  0  0  0  0  0  0  0  0  0
   -0.6893   -1.2389    2.1358 H   0  0  0  0  0  0  0  0  0  0  0  0
   -1.1859    1.7901    0.9885 H   0  0  0  0  0  0  0  0  0  0  0  0
    1.0293   -0.6882   -3.1393 C   0  0  0  0  0  0  0  0  0  0  0  0
    1.0293   -0.6882   -1.6470 C   0  0  0  0  0  0  0  0  0  0  0  0
    1.0293    0.3844   -0.9793 N   0  0  0  0  0  0  0  0  0  0  0  0
    1.9076   -1.2182   -3.5167 H   0  0  0  0  0  0  0  0  0  0  0  0
    0.1511   -1.2182   -3.5167 H   0  0  0  0  0  0  0  0  0  0  0  0
    1.0293    0.3324   -3.5179 H   0  0  0  0  0  0  0  0  0  0  0  0
    1.0293   -1.6779   -1.1723 H   0  0  0  0  0  0  0  0  0  0  0  0
    1.0293    0.1542    0.2203 H   0  0  0  0  0  0  0  0  0  0  0  0
  1  2  1  0
  1  4  1  0
  1  5  1  0
  2  3  1  0
  2  6  1  0
  2  7  1  0
  3  8  1  0
  9 10  1  0
  9 12  1  0
  9 13  1  0
  9 14  1  0
 10 11  2  3
 10 15  1  0
 11 16  1  0
M  RAD  1   1   2
M  END
>  <reaction>  (11) 
rmg_rxn_16498

>  <mol_properties>  (11) 
{"0": {"label": "*3", "atom_type": "Cs"}, "1": {"label": "*4", "atom_type": "Cs"}, "9": {"label": "*0", "atom_type": "Cd"}, "10": {"label": "*1", "atom_type": "N3d"}, "15": {"label": "*2", "atom_type": "H0"}}

>  <type>  (11) 
unop_7

>  <geom_source>  (11) 
Heuristics

$$$$

     RDKit          3D

 16 14  0  0  0  0  0  0  0  0999 V2000
    0.8054   -0.5720    1.4143 C   0  0  0  0  0  3  0  0  0  0  0  0
   -0.4227    0.0219    2.0816 C   0  0  0  0  0  0  0  0  0  0  0  0
   -1.2656    1.2932    1.0941 S   0  0  0  0  0  0  0  0  0  0  0  0
    1.5707    0.1898    1.2555 H   0  0  0  0  0  0  0  0  0  0  0  0
    1.2368   -1.3562    2.0409 H   0  0  0  0  0  0  0  0  0  0  0  0
   -0.1794    0.4365    3.0597 H   0  0  0  0  0  0  0  0  0  0  0  0
   -1.1838   -0.7437    2.2389 H   0  0  0  0  0  0  0  0  0  0  0  0
   -0.2470    2.1624    1.0493 H   0  0  0  0  0  0  0  0  0  0  0  0
    0.8054   -1.1680   -3.2302 C   0  0  0  0  0  0  0  0  0  0  0  0
    0.8054   -1.1680   -1.7378 C   0  0  0  0  0  0  0  0  0  0  0  0
    0.8054   -0.0953   -1.0701 N   0  0  0  0  0  0  0  0  0  0  0  0
    1.6837   -1.6980   -3.6076 H   0  0  0  0  0  0  0  0  0  0  0  0
   -0.0729   -1.6980   -3.6076 H   0  0  0  0  0  0  0  0  0  0  0  0
    0.8054   -0.1474   -3.6087 H   0  0  0  0  0  0  0  0  0  0  0  0
    0.8054   -2.1577   -1.2632 H   0  0  0  0  0  0  0  0  0  0  0  0
    0.8054   -0.3255    0.1295 H   0  0  0  0  0  0  0  0  0  0  0  0
  1  2  1  0
  1  4  1  0
  1  5  1  0
  2  3  1  0
  2  6  1  0
  2  7  1  0
  3  8  1  0
  9 10  1  0
  9 12  1  0
  9 13  1  0
  9 14  1  0
 10 11  2  3
 10 15  1  0
 11 16  1  0
M  RAD  1   1   2
M  END
>  <reaction>  (12) 
rmg_rxn_16498

>  <mol_properties>  (12) 
{"0": {"label": "*3", "atom_type": "Cs"}, "1": {"label": "*4", "atom_type": "Cs"}, "9": {"label": "*0", "atom_type": "Cd"}, "10": {"label": "*1", "atom_type": "N3d"}, "15": {"label": "*2", "atom_type": "H0"}}

>  <type>  (12) 
unop_8

>  <geom_source>  (12) 
Heuristics

$$$$

     RDKit          3D

 16 14  0  0  0  0  0  0  0  0999 V2000
   -0.8288    0.6786    1.1203 C   0  0  0  0  0  3  0  0  0  0  0  0
    0.5893    0.5762    1.6540 C   0  0  0  0  0  0  0  0  0  0  0  0
    1.2176   -1.1243    1.7781 S   0  0  0  0  0  0  0  0  0  0  0  0
   -1.5349    0.1841    1.7898 H   0  0  0  0  0  0  0  0  0  0  0  0
   -1.1271    1.7259    1.0315 H   0  0  0  0  0  0  0  0  0  0  0  0
    0.6815    1.0599    2.6262 H   0  0  0  0  0  0  0  0  0  0  0  0
    1.2905    1.0727    0.9818 H   0  0  0  0  0  0  0  0  0  0  0  0
    0.3134   -1.5646    2.6634 H   0  0  0  0  0  0  0  0  0  0  0  0
   -0.8288    0.0827   -3.5242 C   0  0  0  0  0  0  0  0  0  0  0  0
   -0.8288    0.0827   -2.0318 C   0  0  0  0  0  0  0  0  0  0  0  0
   -0.8288    1.1553   -1.3641 N   0  0  0  0  0  0  0  0  0  0  0  0
    0.0494   -0.4473   -3.9016 H   0  0  0  0  0  0  0  0  0  0  0  0
   -1.7071   -0.4473   -3.9016 H   0  0  0  0  0  0  0  0  0  0  0  0
   -0.8288    1.1033   -3.9027 H   0  0  0  0  0  0  0  0  0  0  0  0
   -0.8288   -0.9070   -1.5572 H   0  0  0  0  0  0  0  0  0  0  0  0
   -0.8288    0.9251   -0.1645 H   0  0  0  0  0  0  0  0  0  0  0  0
  1  2  1  0
  1  4  1  0
  1  5  1  0
  2  3  1  0
  2  6  1  0
  2  7  1  0
  3  8  1  0
  9 10  1  0
  9 12  1  0
  9 13  1  0
  9 14  1  0
 10 11  2  3
 10 15  1  0
 11 16  1  0
M  RAD  1   1   2
M  END
>  <reaction>  (13) 
rmg_rxn_16498

>  <mol_properties>  (13) 
{"0": {"label": "*3", "atom_type": "Cs"}, "1": {"label": "*4", "atom_type": "Cs"}, "9": {"label": "*0", "atom_type": "Cd"}, "10": {"label": "*1", "atom_type": "N3d"}, "15": {"label": "*2", "atom_type": "H0"}}

>  <type>  (13) 
unop_9

>  <geom_source>  (13) 
Heuristics

$$$$

     RDKit          3D

 16 14  0  0  0  0  0  0  0  0999 V2000
    0.2449   -0.6823   -0.6280 C   0  0  0  0  0  3  0  0  0  0  0  0
    1.0097   -0.0978    0.5037 C   0  0  0  0  0  0  0  0  0  0  0  0
    2.7633    0.2728    0.0076 S   0  0  0  0  0  0  0  0  0  0  0  0
    0.1792   -0.0301   -1.4926 H   0  0  0  0  0  0  0  0  0  0  0  0
    0.5786   -1.6756   -0.9101 H   0  0  0  0  0  0  0  0  0  0  0  0
    1.0574   -0.7622    1.3646 H   0  0  0  0  0  0  0  0  0  0  0  0
    0.6248    0.8727    0.8138 H   0  0  0  0  0  0  0  0  0  0  0  0
    3.0890   -0.9856   -0.2778 H   0  0  0  0  0  0  0  0  0  0  0  0
   -2.6325    1.3233   -0.1716 C   0  0  0  0  0  0  0  0  0  0  0  0
   -2.8986   -0.1085    0.1830 C   0  0  0  0  0  0  0  0  0  0  0  0
   -2.1456   -1.0904    0.1495 N   0  0  0  0  0  0  0  0  0  0  0  0
   -2.8033    1.9476    0.7042 H   0  0  0  0  0  0  0  0  0  0  0  0
   -1.6136    1.4614   -0.5222 H   0  0  0  0  0  0  0  0  0  0  0  0
   -3.3291    1.6373   -0.9473 H   0  0  0  0  0  0  0  0  0  0  0  0
   -3.9256   -0.2877    0.5222 H   0  0  0  0  0  0  0  0  0  0  0  0
   -0.9763   -0.8836   -0.2294 H   0  0  0  0  0  0  0  0  0  0  0  0
  1  2  1  0
  1  4  1  0
  1  5  1  0
  2  3  1  0
  2  6  1  0
  2  7  1  0
  3  8  1  0
  9 10  1  0
  9 12  1  0
  9 13  1  0
  9 14  1  0
 10 11  2  3
 10 15  1  0
 11 16  1  0
M  RAD  1   1   2
M  END
>  <reaction>  (14) 
rmg_rxn_16498

>  <mol_properties>  (14) 
{"0": {"label": "*3", "atom_type": "Cs"}, "1": {"label": "*4", "atom_type": "Cs"}, "9": {"label": "*0", "atom_type": "Cd"}, "10": {"label": "*1", "atom_type": "N3d"}, "15": {"label": "*2", "atom_type": "H0"}}

>  <type>  (14) 
unop_10

>  <geom_source>  (14) 
Heuristics

$$$$

     RDKit          3D

 16 14  0  0  0  0  0  0  0  0999 V2000
    0.7911    0.7774    1.5803 C   0  0  0  0  0  3  0  0  0  0  0  0
    0.0820   -0.5312    1.8825 C   0  0  0  0  0  0  0  0  0  0  0  0
   -1.4018   -0.8244    0.8754 S   0  0  0  0  0  0  0  0  0  0  0  0
    0.1479    1.6307    1.8025 H   0  0  0  0  0  0  0  0  0  0  0  0
    1.6941    0.8698    2.1883 H   0  0  0  0  0  0  0  0  0  0  0  0
   -0.1856   -0.6012    2.9366 H   0  0  0  0  0  0  0  0  0  0  0  0
    0.7295   -1.3805    1.6596 H   0  0  0  0  0  0  0  0  0  0  0  0
   -2.0984    0.2366    1.3044 H   0  0  0  0  0  0  0  0  0  0  0  0
    0.7911    0.1814   -3.0642 C   0  0  0  0  0  0  0  0  0  0  0  0
    0.7911    0.1814   -1.5719 C   0  0  0  0  0  0  0  0  0  0  0  0
    0.7911    1.2541   -0.9042 N   0  0  0  0  0  0  0  0  0  0  0  0
    1.6694   -0.3486   -3.4416 H   0  0  0  0  0  0  0  0  0  0  0  0
   -0.0872   -0.3486   -3.4416 H   0  0  0  0  0  0  0  0  0  0  0  0
    0.7911    1.2020   -3.4428 H   0  0  0  0  0  0  0  0  0  0  0  0
    0.7911   -0.8083   -1.0973 H   0  0  0  0  0  0  0  0  0  0  0  0
    0.7911    1.0239    0.2954 H   0  0  0  0  0  0  0  0  0  0  0  0
  1  2  1  0
  1  4  1  0
  1  5  1  0
  2  3  1  0
  2  6  1  0
  2  7  1  0
  3  8  1  0
  9 10  1  0
  9 12  1  0
  9 13  1  0
  9 14  1  0
 10 11  2  3
 10 15  1  0
 11 16  1  0
M  RAD  1   1   2
M  END
>  <reaction>  (15) 
rmg_rxn_16498

>  <mol_properties>  (15) 
{"0": {"label": "*3", "atom_type": "Cs"}, "1": {"label": "*4", "atom_type": "Cs"}, "9": {"label": "*0", "atom_type": "Cd"}, "10": {"label": "*1", "atom_type": "N3d"}, "15": {"label": "*2", "atom_type": "H0"}}

>  <type>  (15) 
unop_11

>  <geom_source>  (15) 
Heuristics

$$$$

     RDKit          3D

 16 14  0  0  0  0  0  0  0  0999 V2000
   -0.4817    1.0236    1.2509 C   0  0  0  0  0  3  0  0  0  0  0  0
    0.7464    0.2248    1.6509 C   0  0  0  0  0  0  0  0  0  0  0  0
    0.5297   -1.5763    1.5478 S   0  0  0  0  0  0  0  0  0  0  0  0
   -1.3170    0.8190    1.9230 H   0  0  0  0  0  0  0  0  0  0  0  0
   -0.2698    2.0945    1.2947 H   0  0  0  0  0  0  0  0  0  0  0  0
    1.0767    0.4851    2.6563 H   0  0  0  0  0  0  0  0  0  0  0  0
    1.5782    0.4338    0.9766 H   0  0  0  0  0  0  0  0  0  0  0  0
   -0.4507   -1.6717    2.4559 H   0  0  0  0  0  0  0  0  0  0  0  0
   -0.4817    0.4277   -3.3936 C   0  0  0  0  0  0  0  0  0  0  0  0
   -0.4817    0.4277   -1.9013 C   0  0  0  0  0  0  0  0  0  0  0  0
   -0.4817    1.5003   -1.2336 N   0  0  0  0  0  0  0  0  0  0  0  0
    0.3965   -0.1023   -3.7710 H   0  0  0  0  0  0  0  0  0  0  0  0
   -1.3600   -0.1023   -3.7710 H   0  0  0  0  0  0  0  0  0  0  0  0
   -0.4817    1.4483   -3.7722 H   0  0  0  0  0  0  0  0  0  0  0  0
   -0.4817   -0.5620   -1.4266 H   0  0  0  0  0  0  0  0  0  0  0  0
   -0.4817    1.2701   -0.0340 H   0  0  0  0  0  0  0  0  0  0  0  0
  1  2  1  0
  1  4  1  0
  1  5  1  0
  2  3  1  0
  2  6  1  0
  2  7  1  0
  3  8  1  0
  9 10  1  0
  9 12  1  0
  9 13  1  0
  9 14  1  0
 10 11  2  3
 10 15  1  0
 11 16  1  0
M  RAD  1   1   2
M  END
>  <reaction>  (16) 
rmg_rxn_16498

>  <mol_properties>  (16) 
{"0": {"label": "*3", "atom_type": "Cs"}, "1": {"label": "*4", "atom_type": "Cs"}, "9": {"label": "*0", "atom_type": "Cd"}, "10": {"label": "*1", "atom_type": "N3d"}, "15": {"label": "*2", "atom_type": "H0"}}

>  <type>  (16) 
unop_12

>  <geom_source>  (16) 
Heuristics

$$$$

     RDKit          3D

 16 14  0  0  0  0  0  0  0  0999 V2000
    0.2807   -0.9037    1.3110 C   0  0  0  0  0  3  0  0  0  0  0  0
   -0.4284    0.2000    2.0761 C   0  0  0  0  0  0  0  0  0  0  0  0
   -0.3524    1.8292    1.2750 S   0  0  0  0  0  0  0  0  0  0  0  0
    1.3496   -0.6986    1.2301 H   0  0  0  0  0  0  0  0  0  0  0  0
    0.1601   -1.8605    1.8246 H   0  0  0  0  0  0  0  0  0  0  0  0
   -0.0438    0.2864    3.0921 H   0  0  0  0  0  0  0  0  0  0  0  0
   -1.4960   -0.0105    2.1548 H   0  0  0  0  0  0  0  0  0  0  0  0
    0.9800    1.9648    1.3145 H   0  0  0  0  0  0  0  0  0  0  0  0
    0.2807   -1.4997   -3.3335 C   0  0  0  0  0  0  0  0  0  0  0  0
    0.2807   -1.4997   -1.8412 C   0  0  0  0  0  0  0  0  0  0  0  0
    0.2807   -0.4270   -1.1735 N   0  0  0  0  0  0  0  0  0  0  0  0
    1.1589   -2.0297   -3.7109 H   0  0  0  0  0  0  0  0  0  0  0  0
   -0.5976   -2.0297   -3.7109 H   0  0  0  0  0  0  0  0  0  0  0  0
    0.2807   -0.4790   -3.7121 H   0  0  0  0  0  0  0  0  0  0  0  0
    0.2807   -2.4894   -1.3665 H   0  0  0  0  0  0  0  0  0  0  0  0
    0.2807   -0.6572    0.0261 H   0  0  0  0  0  0  0  0  0  0  0  0
  1  2  1  0
  1  4  1  0
  1  5  1  0
  2  3  1  0
  2  6  1  0
  2  7  1  0
  3  8  1  0
  9 10  1  0
  9 12  1  0
  9 13  1  0
  9 14  1  0
 10 11  2  3
 10 15  1  0
 11 16  1  0
M  RAD  1   1   2
M  END
>  <reaction>  (17) 
rmg_rxn_16498

>  <mol_properties>  (17) 
{"0": {"label": "*3", "atom_type": "Cs"}, "1": {"label": "*4", "atom_type": "Cs"}, "9": {"label": "*0", "atom_type": "Cd"}, "10": {"label": "*1", "atom_type": "N3d"}, "15": {"label": "*2", "atom_type": "H0"}}

>  <type>  (17) 
unop_13

>  <geom_source>  (17) 
Heuristics

$$$$

     RDKit          3D

 16 14  0  0  0  0  0  0  0  0999 V2000
    0.4423    1.0530    1.5149 C   0  0  0  0  0  3  0  0  0  0  0  0
    0.4423   -0.4421    1.7814 C   0  0  0  0  0  0  0  0  0  0  0  0
   -0.9511   -1.3330    1.0287 S   0  0  0  0  0  0  0  0  0  0  0  0
   -0.4399    1.5272    1.9487 H   0  0  0  0  0  0  0  0  0  0  0  0
    1.3260    1.5182    1.9580 H   0  0  0  0  0  0  0  0  0  0  0  0
    0.4617   -0.6530    2.8504 H   0  0  0  0  0  0  0  0  0  0  0  0
    1.3264   -0.9108    1.3466 H   0  0  0  0  0  0  0  0  0  0  0  0
   -1.9249   -0.7021    1.6986 H   0  0  0  0  0  0  0  0  0  0  0  0
    0.4423    0.4570   -3.1296 C   0  0  0  0  0  0  0  0  0  0  0  0
    0.4423    0.4570   -1.6372 C   0  0  0  0  0  0  0  0  0  0  0  0
    0.4423    1.5297   -0.9696 N   0  0  0  0  0  0  0  0  0  0  0  0
    1.3206   -0.0730   -3.5070 H   0  0  0  0  0  0  0  0  0  0  0  0
   -0.4359   -0.0730   -3.5070 H   0  0  0  0  0  0  0  0  0  0  0  0
    0.4423    1.4776   -3.5082 H   0  0  0  0  0  0  0  0  0  0  0  0
    0.4423   -0.5327   -1.1626 H   0  0  0  0  0  0  0  0  0  0  0  0
    0.4423    1.2995    0.2300 H   0  0  0  0  0  0  0  0  0  0  0  0
  1  2  1  0
  1  4  1  0
  1  5  1  0
  2  3  1  0
  2  6  1  0
  2  7  1  0
  3  8  1  0
  9 10  1  0
  9 12  1  0
  9 13  1  0
  9 14  1  0
 10 11  2  3
 10 15  1  0
 11 16  1  0
M  RAD  1   1   2
M  END
>  <reaction>  (18) 
rmg_rxn_16498

>  <mol_properties>  (18) 
{"0": {"label": "*3", "atom_type": "Cs"}, "1": {"label": "*4", "atom_type": "Cs"}, "9": {"label": "*0", "atom_type": "Cd"}, "10": {"label": "*1", "atom_type": "N3d"}, "15": {"label": "*2", "atom_type": "H0"}}

>  <type>  (18) 
unop_14

>  <geom_source>  (18) 
Heuristics

$$$$

     RDKit          3D

 16 14  0  0  0  0  0  0  0  0999 V2000
   -0.0137    1.1550    1.3917 C   0  0  0  0  0  3  0  0  0  0  0  0
    0.6954   -0.1535    1.6939 C   0  0  0  0  0  0  0  0  0  0  0  0
   -0.2699   -1.6365    1.2809 S   0  0  0  0  0  0  0  0  0  0  0  0
   -0.9210    1.2551    1.9901 H   0  0  0  0  0  0  0  0  0  0  0  0
    0.6365    2.0021    1.6230 H   0  0  0  0  0  0  0  0  0  0  0  0
    0.9971   -0.2069    2.7397 H   0  0  0  0  0  0  0  0  0  0  0  0
    1.6017   -0.2478    1.0941 H   0  0  0  0  0  0  0  0  0  0  0  0
   -1.2847   -1.4071    2.1250 H   0  0  0  0  0  0  0  0  0  0  0  0
   -0.0137    0.5591   -3.2528 C   0  0  0  0  0  0  0  0  0  0  0  0
   -0.0137    0.5591   -1.7605 C   0  0  0  0  0  0  0  0  0  0  0  0
   -0.0137    1.6318   -1.0928 N   0  0  0  0  0  0  0  0  0  0  0  0
    0.8646    0.0291   -3.6302 H   0  0  0  0  0  0  0  0  0  0  0  0
   -0.8920    0.0291   -3.6302 H   0  0  0  0  0  0  0  0  0  0  0  0
   -0.0137    1.5797   -3.6314 H   0  0  0  0  0  0  0  0  0  0  0  0
   -0.0137   -0.4306   -1.2858 H   0  0  0  0  0  0  0  0  0  0  0  0
   -0.0137    1.4016    0.1068 H   0  0  0  0  0  0  0  0  0  0  0  0
  1  2  1  0
  1  4  1  0
  1  5  1  0
  2  3  1  0
  2  6  1  0
  2  7  1  0
  3  8  1  0
  9 10  1  0
  9 12  1  0
  9 13  1  0
  9 14  1  0
 10 11  2  3
 10 15  1  0
 11 16  1  0
M  RAD  1   1   2
M  END
>  <reaction>  (19) 
rmg_rxn_16498

>  <mol_properties>  (19) 
{"0": {"label": "*3", "atom_type": "Cs"}, "1": {"label": "*4", "atom_type": "Cs"}, "9": {"label": "*0", "atom_type": "Cd"}, "10": {"label": "*1", "atom_type": "N3d"}, "15": {"label": "*2", "atom_type": "H0"}}

>  <type>  (19) 
unop_15

>  <geom_source>  (19) 
gaussian_log

$$$$
