
     RDKit          3D

 12 11  0  0  0  0  0  0  0  0999 V2000
   -1.4643   -0.2505   -0.5284 C   0  0  0  0  0  0  0  0  0  0  0  0
   -0.3946    0.4302    0.3143 C   0  0  0  0  0  0  0  0  0  0  0  0
   -0.5959    0.2382    1.8102 C   0  0  0  0  0  0  0  0  0  0  0  0
   -0.5633   -1.1190    2.2092 O   0  0  0  0  0  0  0  0  0  0  0  0
   -2.4511    0.1644   -0.3109 H   0  0  0  0  0  0  0  0  0  0  0  0
   -1.5019   -1.3198   -0.3181 H   0  0  0  0  0  0  0  0  0  0  0  0
   -1.2720   -0.1182   -1.5941 H   0  0  0  0  0  0  0  0  0  0  0  0
    0.5965    0.0515    0.0385 H   0  0  0  0  0  0  0  0  0  0  0  0
   -0.3776    1.5047    0.1078 H   0  0  0  0  0  0  0  0  0  0  0  0
   -1.5821    0.6048    2.1034 H   0  0  0  0  0  0  0  0  0  0  0  0
    0.1495    0.8220    2.3649 H   0  0  0  0  0  0  0  0  0  0  0  0
    0.3017   -1.4750    1.9997 H   0  0  0  0  0  0  0  0  0  0  0  0
  1  2  1  0
  1  5  1  0
  1  6  1  0
  1  7  1  0
  2  3  1  0
  2  8  1  0
  2  9  1  0
  3  4  1  0
  3 10  1  0
  3 11  1  0
  4 12  1  0
M  END
>  <reaction>  (1) 
rmg_rxn_15516

>  <mol_properties>  (1) 
{"1": {"label": "donator", "atom_type": "Cs"}, "7": {"label": "d_hydrogen", "atom_type": "H0"}}

>  <type>  (1) 
r1h

$$$$

     RDKit          3D

  5  4  0  0  0  0  0  0  0  0999 V2000
    0.8934    0.3742    0.4948 O   0  0  0  0  0  0  0  0  0  0  0  0
    0.1582   -0.1610   -0.5904 N   0  0  0  0  0  0  0  0  0  0  0  0
   -1.0297   -0.3739   -0.4689 C   0  0  0  0  0  3  0  0  0  0  0  0
    1.7804    0.4382    0.1306 H   0  0  0  0  0  0  0  0  0  0  0  0
   -1.8023   -0.2775    0.2859 H   0  0  0  0  0  0  0  0  0  0  0  0
  1  2  1  0
  1  4  1  0
  2  3  2  3
  3  5  1  0
M  RAD  1   3   2
M  END
>  <reaction>  (2) 
rmg_rxn_15516

>  <mol_properties>  (2) 
{"2": {"label": "acceptor", "atom_type": "Cd"}}

>  <type>  (2) 
r2

$$$$

     RDKit          3D

  6  5  0  0  0  0  0  0  0  0999 V2000
    1.2314    0.0428    0.5088 O   0  0  0  0  0  0  0  0  0  0  0  0
    0.2987    0.2341   -0.4915 N   0  0  0  0  0  0  0  0  0  0  0  0
   -0.8599   -0.1122   -0.1290 C   0  0  0  0  0  0  0  0  0  0  0  0
    2.0507    0.3401    0.1082 H   0  0  0  0  0  0  0  0  0  0  0  0
   -1.0700   -0.5112    0.8610 H   0  0  0  0  0  0  0  0  0  0  0  0
   -1.6509    0.0064   -0.8574 H   0  0  0  0  0  0  0  0  0  0  0  0
  1  2  1  0
  1  4  1  0
  2  3  2  3
  3  5  1  0
  3  6  1  0
M  END
>  <reaction>  (3) 
rmg_rxn_15516

>  <mol_properties>  (3) 
{"2": {"label": "acceptor", "atom_type": "Cd"}, "5": {"label": "a_hydrogen", "atom_type": "H0"}}

>  <type>  (3) 
r2h

$$$$

     RDKit          3D

 17 15  0  0  0  0  0  0  0  0999 V2000
   -2.5546   -1.4281    0.8883 O   0  0  0  0  0  0  0  0  0  0  0  0
   -1.4031   -0.7179    0.5412 N   0  0  0  0  0  0  0  0  0  0  0  0
   -0.3515   -1.3847    0.5666 C   0  0  0  0  0  3  0  0  0  0  0  0
   -3.2496   -0.7700    0.8102 H   0  0  0  0  0  0  0  0  0  0  0  0
   -0.2379   -2.4371    0.8243 H   0  0  0  0  0  0  0  0  0  0  0  0
    1.8903    0.1532   -1.5791 C   0  0  0  0  0  0  0  0  0  0  0  0
    1.6288    0.3170   -0.1027 C   0  0  0  0  0  0  0  0  0  0  0  0
    0.9854    1.6225    0.3175 C   0  0  0  0  0  0  0  0  0  0  0  0
   -0.2182    1.8921   -0.3609 O   0  0  0  0  0  0  0  0  0  0  0  0
    2.6448    0.8718   -1.9143 H   0  0  0  0  0  0  0  0  0  0  0  0
    0.9823    0.3365   -2.1534 H   0  0  0  0  0  0  0  0  0  0  0  0
    2.2567   -0.8476   -1.8117 H   0  0  0  0  0  0  0  0  0  0  0  0
    0.7980   -0.5623    0.2189 H   0  0  0  0  0  0  0  0  0  0  0  0
    2.4948    0.0809    0.5201 H   0  0  0  0  0  0  0  0  0  0  0  0
    1.6623    2.4517    0.0865 H   0  0  0  0  0  0  0  0  0  0  0  0
    0.8349    1.6205    1.4049 H   0  0  0  0  0  0  0  0  0  0  0  0
   -0.8494    1.2018   -0.1198 H   0  0  0  0  0  0  0  0  0  0  0  0
  1  2  1  0
  1  4  1  0
  2  3  2  3
  3  5  1  0
  6  7  1  0
  6 10  1  0
  6 11  1  0
  6 12  1  0
  7  8  1  0
  7 13  1  0
  7 14  1  0
  8  9  1  0
  8 15  1  0
  8 16  1  0
  9 17  1  0
M  RAD  1   3   2
M  END
>  <reaction>  (4) 
rmg_rxn_15516

>  <mol_properties>  (4) 
{"1": {"label": "*4", "atom_type": "N3d"}, "2": {"label": "*3", "atom_type": "Cd"}, "6": {"label": "*1", "atom_type": "Cs"}, "7": {"label": "*0", "atom_type": "Cs"}, "12": {"label": "*2", "atom_type": "H0"}}

>  <type>  (4) 
ts

$$$$

     RDKit          3D

 17 15  0  0  0  0  0  0  0  0999 V2000
   -3.0719    0.1592    0.1557 O   0  0  0  0  0  0  0  0  0  0  0  0
   -1.6772    0.0450   -0.0102 N   0  0  0  0  0  0  0  0  0  0  0  0
   -0.9894    1.0618   -0.1875 C   0  0  0  0  0  0  0  0  0  0  0  0
   -3.3806   -0.7504    0.2696 H   0  0  0  0  0  0  0  0  0  0  0  0
   -1.2994    2.0978   -0.2397 H   0  0  0  0  0  0  0  0  0  0  0  0
    2.4097    1.4384    0.2002 C   0  0  0  0  0  0  0  0  0  0  0  0
    1.5375    0.3663   -0.3925 C   0  0  0  0  0  3  0  0  0  0  0  0
    1.5256   -0.9479    0.3566 C   0  0  0  0  0  0  0  0  0  0  0  0
    0.6226   -1.8789   -0.1837 O   0  0  0  0  0  0  0  0  0  0  0  0
    3.4628    1.1548    0.1400 H   0  0  0  0  0  0  0  0  0  0  0  0
    2.1677    1.5978    1.2494 H   0  0  0  0  0  0  0  0  0  0  0  0
    2.2861    2.3775   -0.3348 H   0  0  0  0  0  0  0  0  0  0  0  0
    0.2804    0.7867   -0.3128 H   0  0  0  0  0  0  0  0  0  0  0  0
    1.6890    0.2246   -1.4606 H   0  0  0  0  0  0  0  0  0  0  0  0
    1.3052   -0.7652    1.4206 H   0  0  0  0  0  0  0  0  0  0  0  0
    2.5118   -1.4276    0.2976 H   0  0  0  0  0  0  0  0  0  0  0  0
   -0.2627   -1.4852   -0.1657 H   0  0  0  0  0  0  0  0  0  0  0  0
  1  2  1  0
  1  4  1  0
  2  3  2  3
  3  5  1  0
  3 13  1  0
  6  7  1  0
  6 10  1  0
  6 11  1  0
  6 12  1  0
  7  8  1  0
  7 14  1  0
  8  9  1  0
  8 15  1  0
  8 16  1  0
  9 17  1  0
M  RAD  1   7   2
M  END
>  <reaction>  (5) 
rmg_rxn_15516

>  <mol_properties>  (5) 
{"1": {"label": "*4", "atom_type": "N3d"}, "2": {"label": "*3", "atom_type": "Cd"}, "6": {"label": "*1", "atom_type": "Cs"}, "7": {"label": "*0", "atom_type": "Cs"}, "12": {"label": "*2", "atom_type": "H0"}}

>  <type>  (5) 
unop_1

>  <geom_source>  (5) 
crest_best.xyz

$$$$

     RDKit          3D

 17 15  0  0  0  0  0  0  0  0999 V2000
   -1.5535   -2.0368    2.0238 O   0  0  0  0  0  0  0  0  0  0  0  0
   -0.7112   -1.9808    0.9309 N   0  0  0  0  0  0  0  0  0  0  0  0
   -0.9431   -0.9727    0.2075 C   0  0  0  0  0  0  0  0  0  0  0  0
   -1.2747   -2.8341    2.4784 H   0  0  0  0  0  0  0  0  0  0  0  0
   -1.7212   -0.2492    0.4414 H   0  0  0  0  0  0  0  0  0  0  0  0
    1.1392    0.3307   -2.2076 C   0  0  0  0  0  0  0  0  0  0  0  0
    1.1392    0.3307   -0.6851 C   0  0  0  0  0  3  0  0  0  0  0  0
    1.1392    1.7286   -0.0844 C   0  0  0  0  0  0  0  0  0  0  0  0
    0.0054    2.4934   -0.4475 O   0  0  0  0  0  0  0  0  0  0  0  0
    2.0384    0.8150   -2.5950 H   0  0  0  0  0  0  0  0  0  0  0  0
    0.2776    0.8748   -2.5957 H   0  0  0  0  0  0  0  0  0  0  0  0
    1.1084   -0.6855   -2.6031 H   0  0  0  0  0  0  0  0  0  0  0  0
    0.0912   -0.3253   -0.2359 H   0  0  0  0  0  0  0  0  0  0  0  0
    2.0166   -0.2028   -0.3071 H   0  0  0  0  0  0  0  0  0  0  0  0
    2.0003    2.2917   -0.4511 H   0  0  0  0  0  0  0  0  0  0  0  0
    1.2292    1.6655    1.0074 H   0  0  0  0  0  0  0  0  0  0  0  0
   -0.7771    2.0506   -0.1149 H   0  0  0  0  0  0  0  0  0  0  0  0
  1  2  1  0
  1  4  1  0
  2  3  2  3
  3  5  1  0
  3 13  1  0
  6  7  1  0
  6 10  1  0
  6 11  1  0
  6 12  1  0
  7  8  1  0
  7 14  1  0
  8  9  1  0
  8 15  1  0
  8 16  1  0
  9 17  1  0
M  RAD  1   7   2
M  END
>  <reaction>  (6) 
rmg_rxn_15516

>  <mol_properties>  (6) 
{"1": {"label": "*4", "atom_type": "N3d"}, "2": {"label": "*3", "atom_type": "Cd"}, "6": {"label": "*1", "atom_type": "Cs"}, "7": {"label": "*0", "atom_type": "Cs"}, "12": {"label": "*2", "atom_type": "H0"}}

>  <type>  (6) 
unop_2

>  <geom_source>  (6) 
Heuristics

$$$$

     RDKit          3D

 17 15  0  0  0  0  0  0  0  0999 V2000
   -1.9986   -2.6578    0.6841 O   0  0  0  0  0  0  0  0  0  0  0  0
   -1.1827   -1.7945   -0.0202 N   0  0  0  0  0  0  0  0  0  0  0  0
   -0.7490   -0.8572    0.7056 C   0  0  0  0  0  0  0  0  0  0  0  0
   -2.2532   -3.3085    0.0270 H   0  0  0  0  0  0  0  0  0  0  0  0
   -1.0041   -0.7649    1.7591 H   0  0  0  0  0  0  0  0  0  0  0  0
    1.3332    0.4461   -1.7095 C   0  0  0  0  0  0  0  0  0  0  0  0
    1.3332    0.4461   -0.1870 C   0  0  0  0  0  3  0  0  0  0  0  0
    1.3332    1.8441    0.4137 C   0  0  0  0  0  0  0  0  0  0  0  0
    0.1994    2.6089    0.0506 O   0  0  0  0  0  0  0  0  0  0  0  0
    2.2325    0.9305   -2.0970 H   0  0  0  0  0  0  0  0  0  0  0  0
    0.4717    0.9903   -2.0977 H   0  0  0  0  0  0  0  0  0  0  0  0
    1.3025   -0.5701   -2.1051 H   0  0  0  0  0  0  0  0  0  0  0  0
    0.2853   -0.2098    0.2622 H   0  0  0  0  0  0  0  0  0  0  0  0
    2.2107   -0.0873    0.1910 H   0  0  0  0  0  0  0  0  0  0  0  0
    2.1944    2.4071    0.0470 H   0  0  0  0  0  0  0  0  0  0  0  0
    1.4233    1.7810    1.5055 H   0  0  0  0  0  0  0  0  0  0  0  0
   -0.5830    2.1661    0.3832 H   0  0  0  0  0  0  0  0  0  0  0  0
  1  2  1  0
  1  4  1  0
  2  3  2  3
  3  5  1  0
  3 13  1  0
  6  7  1  0
  6 10  1  0
  6 11  1  0
  6 12  1  0
  7  8  1  0
  7 14  1  0
  8  9  1  0
  8 15  1  0
  8 16  1  0
  9 17  1  0
M  RAD  1   7   2
M  END
>  <reaction>  (7) 
rmg_rxn_15516

>  <mol_properties>  (7) 
{"1": {"label": "*4", "atom_type": "N3d"}, "2": {"label": "*3", "atom_type": "Cd"}, "6": {"label": "*1", "atom_type": "Cs"}, "7": {"label": "*0", "atom_type": "Cs"}, "12": {"label": "*2", "atom_type": "H0"}}

>  <type>  (7) 
unop_3

>  <geom_source>  (7) 
Heuristics

$$$$

     RDKit          3D

 17 15  0  0  0  0  0  0  0  0999 V2000
   -1.9035   -1.7053    1.9850 O   0  0  0  0  0  0  0  0  0  0  0  0
   -0.7240   -1.6893    1.2668 N   0  0  0  0  0  0  0  0  0  0  0  0
   -0.8563   -1.1062    0.1551 C   0  0  0  0  0  0  0  0  0  0  0  0
   -1.6664   -2.1683    2.7909 H   0  0  0  0  0  0  0  0  0  0  0  0
   -1.8002   -0.6761   -0.1732 H   0  0  0  0  0  0  0  0  0  0  0  0
    1.2259    0.1971   -2.2600 C   0  0  0  0  0  0  0  0  0  0  0  0
    1.2259    0.1971   -0.7375 C   0  0  0  0  0  3  0  0  0  0  0  0
    1.2259    1.5951   -0.1368 C   0  0  0  0  0  0  0  0  0  0  0  0
    0.0921    2.3598   -0.4999 O   0  0  0  0  0  0  0  0  0  0  0  0
    2.1252    0.6814   -2.6475 H   0  0  0  0  0  0  0  0  0  0  0  0
    0.3644    0.7412   -2.6482 H   0  0  0  0  0  0  0  0  0  0  0  0
    1.1952   -0.8191   -2.6556 H   0  0  0  0  0  0  0  0  0  0  0  0
    0.1780   -0.4589   -0.2883 H   0  0  0  0  0  0  0  0  0  0  0  0
    2.1034   -0.3364   -0.3595 H   0  0  0  0  0  0  0  0  0  0  0  0
    2.0871    2.1581   -0.5036 H   0  0  0  0  0  0  0  0  0  0  0  0
    1.3159    1.5319    0.9549 H   0  0  0  0  0  0  0  0  0  0  0  0
   -0.6903    1.9171   -0.1673 H   0  0  0  0  0  0  0  0  0  0  0  0
  1  2  1  0
  1  4  1  0
  2  3  2  3
  3  5  1  0
  3 13  1  0
  6  7  1  0
  6 10  1  0
  6 11  1  0
  6 12  1  0
  7  8  1  0
  7 14  1  0
  8  9  1  0
  8 15  1  0
  8 16  1  0
  9 17  1  0
M  RAD  1   7   2
M  END
>  <reaction>  (8) 
rmg_rxn_15516

>  <mol_properties>  (8) 
{"1": {"label": "*4", "atom_type": "N3d"}, "2": {"label": "*3", "atom_type": "Cd"}, "6": {"label": "*1", "atom_type": "Cs"}, "7": {"label": "*0", "atom_type": "Cs"}, "12": {"label": "*2", "atom_type": "H0"}}

>  <type>  (8) 
unop_4

>  <geom_source>  (8) 
Heuristics

$$$$

     RDKit          3D

 17 15  0  0  0  0  0  0  0  0999 V2000
   -2.6026   -1.1543    1.1813 O   0  0  0  0  0  0  0  0  0  0  0  0
   -1.6496   -0.9336    0.2065 N   0  0  0  0  0  0  0  0  0  0  0  0
   -0.5174   -1.3782    0.5440 C   0  0  0  0  0  0  0  0  0  0  0  0
   -3.3986   -0.7753    0.8035 H   0  0  0  0  0  0  0  0  0  0  0  0
   -0.3416   -1.8728    1.4969 H   0  0  0  0  0  0  0  0  0  0  0  0
    1.5648   -0.0748   -1.8711 C   0  0  0  0  0  0  0  0  0  0  0  0
    1.5648   -0.0748   -0.3486 C   0  0  0  0  0  3  0  0  0  0  0  0
    1.5648    1.3232    0.2521 C   0  0  0  0  0  0  0  0  0  0  0  0
    0.4310    2.0879   -0.1110 O   0  0  0  0  0  0  0  0  0  0  0  0
    2.4641    0.4095   -2.2586 H   0  0  0  0  0  0  0  0  0  0  0  0
    0.7033    0.4693   -2.2593 H   0  0  0  0  0  0  0  0  0  0  0  0
    1.5340   -1.0910   -2.2667 H   0  0  0  0  0  0  0  0  0  0  0  0
    0.5168   -0.7308    0.1006 H   0  0  0  0  0  0  0  0  0  0  0  0
    2.4422   -0.6083    0.0294 H   0  0  0  0  0  0  0  0  0  0  0  0
    2.4260    1.8862   -0.1147 H   0  0  0  0  0  0  0  0  0  0  0  0
    1.6548    1.2600    1.3439 H   0  0  0  0  0  0  0  0  0  0  0  0
   -0.3515    1.6452    0.2216 H   0  0  0  0  0  0  0  0  0  0  0  0
  1  2  1  0
  1  4  1  0
  2  3  2  3
  3  5  1  0
  3 13  1  0
  6  7  1  0
  6 10  1  0
  6 11  1  0
  6 12  1  0
  7  8  1  0
  7 14  1  0
  8  9  1  0
  8 15  1  0
  8 16  1  0
  9 17  1  0
M  RAD  1   7   2
M  END
>  <reaction>  (9) 
rmg_rxn_15516

>  <mol_properties>  (9) 
{"1": {"label": "*4", "atom_type": "N3d"}, "2": {"label": "*3", "atom_type": "Cd"}, "6": {"label": "*1", "atom_type": "Cs"}, "7": {"label": "*0", "atom_type": "Cs"}, "12": {"label": "*2", "atom_type": "H0"}}

>  <type>  (9) 
unop_5

>  <geom_source>  (9) 
Heuristics

$$$$

     RDKit          3D

 17 15  0  0  0  0  0  0  0  0999 V2000
   -2.0409   -1.9241    1.7915 O   0  0  0  0  0  0  0  0  0  0  0  0
   -0.9120   -1.2175    1.4263 N   0  0  0  0  0  0  0  0  0  0  0  0
   -0.7886   -1.1403    0.1724 C   0  0  0  0  0  0  0  0  0  0  0  0
   -2.0132   -1.9068    2.7501 H   0  0  0  0  0  0  0  0  0  0  0  0
   -1.5027   -1.5872   -0.5160 H   0  0  0  0  0  0  0  0  0  0  0  0
    1.2936    0.1631   -2.2427 C   0  0  0  0  0  0  0  0  0  0  0  0
    1.2936    0.1631   -0.7202 C   0  0  0  0  0  3  0  0  0  0  0  0
    1.2936    1.5610   -0.1195 C   0  0  0  0  0  0  0  0  0  0  0  0
    0.1598    2.3258   -0.4826 O   0  0  0  0  0  0  0  0  0  0  0  0
    2.1929    0.6474   -2.6301 H   0  0  0  0  0  0  0  0  0  0  0  0
    0.4321    0.7072   -2.6308 H   0  0  0  0  0  0  0  0  0  0  0  0
    1.2629   -0.8531   -2.6382 H   0  0  0  0  0  0  0  0  0  0  0  0
    0.2457   -0.4929   -0.2710 H   0  0  0  0  0  0  0  0  0  0  0  0
    2.1711   -0.3704   -0.3422 H   0  0  0  0  0  0  0  0  0  0  0  0
    2.1548    2.1241   -0.4862 H   0  0  0  0  0  0  0  0  0  0  0  0
    1.3837    1.4979    0.9723 H   0  0  0  0  0  0  0  0  0  0  0  0
   -0.6226    1.8830   -0.1500 H   0  0  0  0  0  0  0  0  0  0  0  0
  1  2  1  0
  1  4  1  0
  2  3  2  3
  3  5  1  0
  3 13  1  0
  6  7  1  0
  6 10  1  0
  6 11  1  0
  6 12  1  0
  7  8  1  0
  7 14  1  0
  8  9  1  0
  8 15  1  0
  8 16  1  0
  9 17  1  0
M  RAD  1   7   2
M  END
>  <reaction>  (10) 
rmg_rxn_15516

>  <mol_properties>  (10) 
{"1": {"label": "*4", "atom_type": "N3d"}, "2": {"label": "*3", "atom_type": "Cd"}, "6": {"label": "*1", "atom_type": "Cs"}, "7": {"label": "*0", "atom_type": "Cs"}, "12": {"label": "*2", "atom_type": "H0"}}

>  <type>  (10) 
unop_6

>  <geom_source>  (10) 
Heuristics

$$$$

     RDKit          3D

 17 15  0  0  0  0  0  0  0  0999 V2000
    3.0720   -0.1592    0.1561 O   0  0  0  0  0  0  0  0  0  0  0  0
    1.6772   -0.0448   -0.0098 N   0  0  0  0  0  0  0  0  0  0  0  0
    0.9895   -1.0613   -0.1887 C   0  0  0  0  0  0  0  0  0  0  0  0
    3.3806    0.7503    0.2705 H   0  0  0  0  0  0  0  0  0  0  0  0
    1.2997   -2.0972   -0.2421 H   0  0  0  0  0  0  0  0  0  0  0  0
   -2.4090   -1.4388    0.2008 C   0  0  0  0  0  0  0  0  0  0  0  0
   -1.5377   -0.3664   -0.3925 C   0  0  0  0  0  3  0  0  0  0  0  0
   -1.5261    0.9479    0.3564 C   0  0  0  0  0  0  0  0  0  0  0  0
   -0.6228    1.8788   -0.1838 O   0  0  0  0  0  0  0  0  0  0  0  0
   -2.2855   -2.3778   -0.3346 H   0  0  0  0  0  0  0  0  0  0  0  0
   -3.4623   -1.1557    0.1415 H   0  0  0  0  0  0  0  0  0  0  0  0
   -2.1661   -1.5984    1.2498 H   0  0  0  0  0  0  0  0  0  0  0  0
   -0.2804   -0.7863   -0.3134 H   0  0  0  0  0  0  0  0  0  0  0  0
   -1.6897   -0.2251   -1.4606 H   0  0  0  0  0  0  0  0  0  0  0  0
   -1.3061    0.7654    1.4205 H   0  0  0  0  0  0  0  0  0  0  0  0
   -2.5122    1.4276    0.2969 H   0  0  0  0  0  0  0  0  0  0  0  0
    0.2626    1.4854   -0.1650 H   0  0  0  0  0  0  0  0  0  0  0  0
  1  2  1  0
  1  4  1  0
  2  3  2  3
  3  5  1  0
  3 13  1  0
  6  7  1  0
  6 10  1  0
  6 11  1  0
  6 12  1  0
  7  8  1  0
  7 14  1  0
  8  9  1  0
  8 15  1  0
  8 16  1  0
  9 17  1  0
M  RAD  1   7   2
M  END
>  <reaction>  (11) 
rmg_rxn_15516

>  <mol_properties>  (11) 
{"1": {"label": "*4", "atom_type": "N3d"}, "2": {"label": "*3", "atom_type": "Cd"}, "6": {"label": "*1", "atom_type": "Cs"}, "7": {"label": "*0", "atom_type": "Cs"}, "12": {"label": "*2", "atom_type": "H0"}}

>  <type>  (11) 
unop_7

>  <geom_source>  (11) 
Heuristics

$$$$

     RDKit          3D

 17 15  0  0  0  0  0  0  0  0999 V2000
   -2.2909   -1.1194    1.7081 O   0  0  0  0  0  0  0  0  0  0  0  0
   -1.6429   -0.7460    0.5472 N   0  0  0  0  0  0  0  0  0  0  0  0
   -0.5938   -1.4211    0.3542 C   0  0  0  0  0  0  0  0  0  0  0  0
   -3.0547   -0.5397    1.7323 H   0  0  0  0  0  0  0  0  0  0  0  0
   -0.2628   -2.1994    1.0385 H   0  0  0  0  0  0  0  0  0  0  0  0
    1.4884   -0.1177   -2.0608 C   0  0  0  0  0  0  0  0  0  0  0  0
    1.4884   -0.1177   -0.5384 C   0  0  0  0  0  3  0  0  0  0  0  0
    1.4884    1.2802    0.0623 C   0  0  0  0  0  0  0  0  0  0  0  0
    0.3546    2.0450   -0.3008 O   0  0  0  0  0  0  0  0  0  0  0  0
    2.3877    0.3666   -2.4483 H   0  0  0  0  0  0  0  0  0  0  0  0
    0.6269    0.4264   -2.4490 H   0  0  0  0  0  0  0  0  0  0  0  0
    1.4576   -1.1340   -2.4564 H   0  0  0  0  0  0  0  0  0  0  0  0
    0.4404   -0.7737   -0.0891 H   0  0  0  0  0  0  0  0  0  0  0  0
    2.3658   -0.6512   -0.1604 H   0  0  0  0  0  0  0  0  0  0  0  0
    2.3496    1.8432   -0.3044 H   0  0  0  0  0  0  0  0  0  0  0  0
    1.5784    1.2171    1.1541 H   0  0  0  0  0  0  0  0  0  0  0  0
   -0.4279    1.6022    0.0318 H   0  0  0  0  0  0  0  0  0  0  0  0
  1  2  1  0
  1  4  1  0
  2  3  2  3
  3  5  1  0
  3 13  1  0
  6  7  1  0
  6 10  1  0
  6 11  1  0
  6 12  1  0
  7  8  1  0
  7 14  1  0
  8  9  1  0
  8 15  1  0
  8 16  1  0
  9 17  1  0
M  RAD  1   7   2
M  END
>  <reaction>  (12) 
rmg_rxn_15516

>  <mol_properties>  (12) 
{"1": {"label": "*4", "atom_type": "N3d"}, "2": {"label": "*3", "atom_type": "Cd"}, "6": {"label": "*1", "atom_type": "Cs"}, "7": {"label": "*0", "atom_type": "Cs"}, "12": {"label": "*2", "atom_type": "H0"}}

>  <type>  (12) 
unop_8

>  <geom_source>  (12) 
Heuristics

$$$$

     RDKit          3D

 17 15  0  0  0  0  0  0  0  0999 V2000
   -3.0723    0.1591    0.1554 O   0  0  0  0  0  0  0  0  0  0  0  0
   -1.6775    0.0448   -0.0098 N   0  0  0  0  0  0  0  0  0  0  0  0
   -0.9896    1.0615   -0.1874 C   0  0  0  0  0  0  0  0  0  0  0  0
   -3.3810   -0.7505    0.2689 H   0  0  0  0  0  0  0  0  0  0  0  0
   -1.2995    2.0974   -0.2401 H   0  0  0  0  0  0  0  0  0  0  0  0
    2.4094    1.4387    0.2002 C   0  0  0  0  0  0  0  0  0  0  0  0
    1.5375    0.3665   -0.3925 C   0  0  0  0  0  3  0  0  0  0  0  0
    1.5265   -0.9480    0.3561 C   0  0  0  0  0  0  0  0  0  0  0  0
    0.6228   -1.8788   -0.1835 O   0  0  0  0  0  0  0  0  0  0  0  0
    2.1675    1.5981    1.2495 H   0  0  0  0  0  0  0  0  0  0  0  0
    2.2855    2.3779   -0.3348 H   0  0  0  0  0  0  0  0  0  0  0  0
    3.4626    1.1555    0.1399 H   0  0  0  0  0  0  0  0  0  0  0  0
    0.2803    0.7864   -0.3123 H   0  0  0  0  0  0  0  0  0  0  0  0
    1.6887    0.2253   -1.4607 H   0  0  0  0  0  0  0  0  0  0  0  0
    1.3074   -0.7657    1.4205 H   0  0  0  0  0  0  0  0  0  0  0  0
    2.5126   -1.4276    0.2957 H   0  0  0  0  0  0  0  0  0  0  0  0
   -0.2625   -1.4852   -0.1643 H   0  0  0  0  0  0  0  0  0  0  0  0
  1  2  1  0
  1  4  1  0
  2  3  2  3
  3  5  1  0
  3 13  1  0
  6  7  1  0
  6 10  1  0
  6 11  1  0
  6 12  1  0
  7  8  1  0
  7 14  1  0
  8  9  1  0
  8 15  1  0
  8 16  1  0
  9 17  1  0
M  RAD  1   7   2
M  END
>  <reaction>  (13) 
rmg_rxn_15516

>  <mol_properties>  (13) 
{"1": {"label": "*4", "atom_type": "N3d"}, "2": {"label": "*3", "atom_type": "Cd"}, "6": {"label": "*1", "atom_type": "Cs"}, "7": {"label": "*0", "atom_type": "Cs"}, "12": {"label": "*2", "atom_type": "H0"}}

>  <type>  (13) 
unop_9

>  <geom_source>  (13) 
Heuristics

$$$$

     RDKit          3D

 17 15  0  0  0  0  0  0  0  0999 V2000
   -1.9293   -1.4365    2.0238 O   0  0  0  0  0  0  0  0  0  0  0  0
   -1.5108   -0.7033    0.9309 N   0  0  0  0  0  0  0  0  0  0  0  0
   -0.7053   -1.3525    0.2075 C   0  0  0  0  0  0  0  0  0  0  0  0
   -2.5245   -0.8373    2.4784 H   0  0  0  0  0  0  0  0  0  0  0  0
   -0.3947   -2.3685    0.4414 H   0  0  0  0  0  0  0  0  0  0  0  0
    1.3769   -0.0491   -2.2076 C   0  0  0  0  0  0  0  0  0  0  0  0
    1.3769   -0.0491   -0.6851 C   0  0  0  0  0  3  0  0  0  0  0  0
    1.3769    1.3489   -0.0844 C   0  0  0  0  0  0  0  0  0  0  0  0
    0.2431    2.1136   -0.4475 O   0  0  0  0  0  0  0  0  0  0  0  0
    2.2762    0.4352   -2.5950 H   0  0  0  0  0  0  0  0  0  0  0  0
    0.5154    0.4950   -2.5957 H   0  0  0  0  0  0  0  0  0  0  0  0
    1.3461   -1.0653   -2.6031 H   0  0  0  0  0  0  0  0  0  0  0  0
    0.3289   -0.7051   -0.2359 H   0  0  0  0  0  0  0  0  0  0  0  0
    2.2543   -0.5826   -0.3071 H   0  0  0  0  0  0  0  0  0  0  0  0
    2.2380    1.9119   -0.4511 H   0  0  0  0  0  0  0  0  0  0  0  0
    1.4669    1.2857    1.0074 H   0  0  0  0  0  0  0  0  0  0  0  0
   -0.5394    1.6709   -0.1149 H   0  0  0  0  0  0  0  0  0  0  0  0
  1  2  1  0
  1  4  1  0
  2  3  2  3
  3  5  1  0
  3 13  1  0
  6  7  1  0
  6 10  1  0
  6 11  1  0
  6 12  1  0
  7  8  1  0
  7 14  1  0
  8  9  1  0
  8 15  1  0
  8 16  1  0
  9 17  1  0
M  RAD  1   7   2
M  END
>  <reaction>  (14) 
rmg_rxn_15516

>  <mol_properties>  (14) 
{"1": {"label": "*4", "atom_type": "N3d"}, "2": {"label": "*3", "atom_type": "Cd"}, "6": {"label": "*1", "atom_type": "Cs"}, "7": {"label": "*0", "atom_type": "Cs"}, "12": {"label": "*2", "atom_type": "H0"}}

>  <type>  (14) 
unop_10

>  <geom_source>  (14) 
Heuristics

$$$$

     RDKit          3D

 17 15  0  0  0  0  0  0  0  0999 V2000
   -1.4263   -2.5007    1.7081 O   0  0  0  0  0  0  0  0  0  0  0  0
   -0.8073   -2.0810    0.5472 N   0  0  0  0  0  0  0  0  0  0  0  0
   -0.9560   -0.8424    0.3542 C   0  0  0  0  0  0  0  0  0  0  0  0
   -1.2386   -3.4410    1.7323 H   0  0  0  0  0  0  0  0  0  0  0  0
   -1.5115   -0.2046    1.0385 H   0  0  0  0  0  0  0  0  0  0  0  0
    1.1262    0.4610   -2.0608 C   0  0  0  0  0  0  0  0  0  0  0  0
    1.1262    0.4610   -0.5384 C   0  0  0  0  0  3  0  0  0  0  0  0
    1.1262    1.8589    0.0623 C   0  0  0  0  0  0  0  0  0  0  0  0
   -0.0076    2.6237   -0.3008 O   0  0  0  0  0  0  0  0  0  0  0  0
    2.0254    0.9453   -2.4483 H   0  0  0  0  0  0  0  0  0  0  0  0
    0.2646    1.0051   -2.4490 H   0  0  0  0  0  0  0  0  0  0  0  0
    1.0954   -0.5552   -2.4564 H   0  0  0  0  0  0  0  0  0  0  0  0
    0.0782   -0.1950   -0.0891 H   0  0  0  0  0  0  0  0  0  0  0  0
    2.0036   -0.0725   -0.1604 H   0  0  0  0  0  0  0  0  0  0  0  0
    1.9873    2.4219   -0.3044 H   0  0  0  0  0  0  0  0  0  0  0  0
    1.2162    1.7958    1.1541 H   0  0  0  0  0  0  0  0  0  0  0  0
   -0.7901    2.1809    0.0318 H   0  0  0  0  0  0  0  0  0  0  0  0
  1  2  1  0
  1  4  1  0
  2  3  2  3
  3  5  1  0
  3 13  1  0
  6  7  1  0
  6 10  1  0
  6 11  1  0
  6 12  1  0
  7  8  1  0
  7 14  1  0
  8  9  1  0
  8 15  1  0
  8 16  1  0
  9 17  1  0
M  RAD  1   7   2
M  END
>  <reaction>  (15) 
rmg_rxn_15516

>  <mol_properties>  (15) 
{"1": {"label": "*4", "atom_type": "N3d"}, "2": {"label": "*3", "atom_type": "Cd"}, "6": {"label": "*1", "atom_type": "Cs"}, "7": {"label": "*0", "atom_type": "Cs"}, "12": {"label": "*2", "atom_type": "H0"}}

>  <type>  (15) 
unop_11

>  <geom_source>  (15) 
Heuristics

$$$$

     RDKit          3D

 17 15  0  0  0  0  0  0  0  0999 V2000
   -3.0719    0.1592    0.1557 O   0  0  0  0  0  0  0  0  0  0  0  0
   -1.6772    0.0450   -0.0102 N   0  0  0  0  0  0  0  0  0  0  0  0
   -0.9894    1.0618   -0.1875 C   0  0  0  0  0  0  0  0  0  0  0  0
   -3.3806   -0.7504    0.2696 H   0  0  0  0  0  0  0  0  0  0  0  0
   -1.2994    2.0978   -0.2397 H   0  0  0  0  0  0  0  0  0  0  0  0
    2.4097    1.4384    0.2002 C   0  0  0  0  0  0  0  0  0  0  0  0
    1.5375    0.3663   -0.3925 C   0  0  0  0  0  3  0  0  0  0  0  0
    1.5256   -0.9479    0.3566 C   0  0  0  0  0  0  0  0  0  0  0  0
    0.6226   -1.8789   -0.1837 O   0  0  0  0  0  0  0  0  0  0  0  0
    3.4628    1.1548    0.1400 H   0  0  0  0  0  0  0  0  0  0  0  0
    2.1677    1.5978    1.2494 H   0  0  0  0  0  0  0  0  0  0  0  0
    2.2861    2.3775   -0.3348 H   0  0  0  0  0  0  0  0  0  0  0  0
    0.2804    0.7867   -0.3128 H   0  0  0  0  0  0  0  0  0  0  0  0
    1.6890    0.2246   -1.4606 H   0  0  0  0  0  0  0  0  0  0  0  0
    1.3052   -0.7652    1.4206 H   0  0  0  0  0  0  0  0  0  0  0  0
    2.5118   -1.4276    0.2976 H   0  0  0  0  0  0  0  0  0  0  0  0
   -0.2627   -1.4852   -0.1657 H   0  0  0  0  0  0  0  0  0  0  0  0
  1  2  1  0
  1  4  1  0
  2  3  2  3
  3  5  1  0
  3 13  1  0
  6  7  1  0
  6 10  1  0
  6 11  1  0
  6 12  1  0
  7  8  1  0
  7 14  1  0
  8  9  1  0
  8 15  1  0
  8 16  1  0
  9 17  1  0
M  RAD  1   7   2
M  END
>  <reaction>  (16) 
rmg_rxn_15516

>  <mol_properties>  (16) 
{"1": {"label": "*4", "atom_type": "N3d"}, "2": {"label": "*3", "atom_type": "Cd"}, "6": {"label": "*1", "atom_type": "Cs"}, "7": {"label": "*0", "atom_type": "Cs"}, "12": {"label": "*2", "atom_type": "H0"}}

>  <type>  (16) 
unop_12

>  <geom_source>  (16) 
Heuristics

$$$$

     RDKit          3D

 17 15  0  0  0  0  0  0  0  0999 V2000
   -2.6823   -1.5655    0.6841 O   0  0  0  0  0  0  0  0  0  0  0  0
   -1.5493   -1.2089   -0.0202 N   0  0  0  0  0  0  0  0  0  0  0  0
   -0.5166   -1.2284    0.7056 C   0  0  0  0  0  0  0  0  0  0  0  0
   -3.3788   -1.5101    0.0270 H   0  0  0  0  0  0  0  0  0  0  0  0
   -0.5451   -1.4982    1.7591 H   0  0  0  0  0  0  0  0  0  0  0  0
    1.5656    0.0750   -1.7095 C   0  0  0  0  0  0  0  0  0  0  0  0
    1.5656    0.0750   -0.1870 C   0  0  0  0  0  3  0  0  0  0  0  0
    1.5656    1.4730    0.4137 C   0  0  0  0  0  0  0  0  0  0  0  0
    0.4318    2.2377    0.0506 O   0  0  0  0  0  0  0  0  0  0  0  0
    2.4648    0.5593   -2.0970 H   0  0  0  0  0  0  0  0  0  0  0  0
    0.7041    0.6191   -2.0977 H   0  0  0  0  0  0  0  0  0  0  0  0
    1.5348   -0.9412   -2.1051 H   0  0  0  0  0  0  0  0  0  0  0  0
    0.5176   -0.5810    0.2622 H   0  0  0  0  0  0  0  0  0  0  0  0
    2.4430   -0.4585    0.1910 H   0  0  0  0  0  0  0  0  0  0  0  0
    2.4267    2.0360    0.0470 H   0  0  0  0  0  0  0  0  0  0  0  0
    1.6556    1.4098    1.5055 H   0  0  0  0  0  0  0  0  0  0  0  0
   -0.3507    1.7949    0.3832 H   0  0  0  0  0  0  0  0  0  0  0  0
  1  2  1  0
  1  4  1  0
  2  3  2  3
  3  5  1  0
  3 13  1  0
  6  7  1  0
  6 10  1  0
  6 11  1  0
  6 12  1  0
  7  8  1  0
  7 14  1  0
  8  9  1  0
  8 15  1  0
  8 16  1  0
  9 17  1  0
M  RAD  1   7   2
M  END
>  <reaction>  (17) 
rmg_rxn_15516

>  <mol_properties>  (17) 
{"1": {"label": "*4", "atom_type": "N3d"}, "2": {"label": "*3", "atom_type": "Cd"}, "6": {"label": "*1", "atom_type": "Cs"}, "7": {"label": "*0", "atom_type": "Cs"}, "12": {"label": "*2", "atom_type": "H0"}}

>  <type>  (17) 
unop_13

>  <geom_source>  (17) 
Heuristics

$$$$

     RDKit          3D

 17 15  0  0  0  0  0  0  0  0999 V2000
   -1.5939   -2.7657    1.1813 O   0  0  0  0  0  0  0  0  0  0  0  0
   -0.9789   -2.0051    0.2065 N   0  0  0  0  0  0  0  0  0  0  0  0
   -0.8840   -0.7924    0.5440 C   0  0  0  0  0  0  0  0  0  0  0  0
   -1.6009   -3.6474    0.8035 H   0  0  0  0  0  0  0  0  0  0  0  0
   -1.2521   -0.4181    1.4969 H   0  0  0  0  0  0  0  0  0  0  0  0
    1.1982    0.5109   -1.8711 C   0  0  0  0  0  0  0  0  0  0  0  0
    1.1982    0.5109   -0.3486 C   0  0  0  0  0  3  0  0  0  0  0  0
    1.1982    1.9089    0.2521 C   0  0  0  0  0  0  0  0  0  0  0  0
    0.0644    2.6736   -0.1110 O   0  0  0  0  0  0  0  0  0  0  0  0
    2.0974    0.9953   -2.2586 H   0  0  0  0  0  0  0  0  0  0  0  0
    0.3366    1.0551   -2.2593 H   0  0  0  0  0  0  0  0  0  0  0  0
    1.1674   -0.5053   -2.2667 H   0  0  0  0  0  0  0  0  0  0  0  0
    0.1502   -0.1450    0.1006 H   0  0  0  0  0  0  0  0  0  0  0  0
    2.0756   -0.0225    0.0294 H   0  0  0  0  0  0  0  0  0  0  0  0
    2.0593    2.4719   -0.1147 H   0  0  0  0  0  0  0  0  0  0  0  0
    1.2882    1.8458    1.3439 H   0  0  0  0  0  0  0  0  0  0  0  0
   -0.7181    2.2309    0.2216 H   0  0  0  0  0  0  0  0  0  0  0  0
  1  2  1  0
  1  4  1  0
  2  3  2  3
  3  5  1  0
  3 13  1  0
  6  7  1  0
  6 10  1  0
  6 11  1  0
  6 12  1  0
  7  8  1  0
  7 14  1  0
  8  9  1  0
  8 15  1  0
  8 16  1  0
  9 17  1  0
M  RAD  1   7   2
M  END
>  <reaction>  (18) 
rmg_rxn_15516

>  <mol_properties>  (18) 
{"1": {"label": "*4", "atom_type": "N3d"}, "2": {"label": "*3", "atom_type": "Cd"}, "6": {"label": "*1", "atom_type": "Cs"}, "7": {"label": "*0", "atom_type": "Cs"}, "12": {"label": "*2", "atom_type": "H0"}}

>  <type>  (18) 
unop_14

>  <geom_source>  (18) 
Heuristics

$$$$

     RDKit          3D

 17 15  0  0  0  0  0  0  0  0999 V2000
   -1.7840   -1.8961    1.9850 O   0  0  0  0  0  0  0  0  0  0  0  0
   -1.2542   -0.8423    1.2668 N   0  0  0  0  0  0  0  0  0  0  0  0
   -0.7876   -1.2161    0.1551 C   0  0  0  0  0  0  0  0  0  0  0  0
   -2.0968   -1.4806    2.7909 H   0  0  0  0  0  0  0  0  0  0  0  0
   -0.8132   -2.2530   -0.1732 H   0  0  0  0  0  0  0  0  0  0  0  0
    1.2947    0.0873   -2.2600 C   0  0  0  0  0  0  0  0  0  0  0  0
    1.2947    0.0873   -0.7375 C   0  0  0  0  0  3  0  0  0  0  0  0
    1.2947    1.4853   -0.1368 C   0  0  0  0  0  0  0  0  0  0  0  0
    0.1609    2.2500   -0.4999 O   0  0  0  0  0  0  0  0  0  0  0  0
    2.1939    0.5716   -2.6475 H   0  0  0  0  0  0  0  0  0  0  0  0
    0.4331    0.6314   -2.6482 H   0  0  0  0  0  0  0  0  0  0  0  0
    1.2639   -0.9289   -2.6556 H   0  0  0  0  0  0  0  0  0  0  0  0
    0.2467   -0.5687   -0.2883 H   0  0  0  0  0  0  0  0  0  0  0  0
    2.1721   -0.4462   -0.3595 H   0  0  0  0  0  0  0  0  0  0  0  0
    2.1558    2.0483   -0.5036 H   0  0  0  0  0  0  0  0  0  0  0  0
    1.3847    1.4221    0.9549 H   0  0  0  0  0  0  0  0  0  0  0  0
   -0.6216    1.8073   -0.1673 H   0  0  0  0  0  0  0  0  0  0  0  0
  1  2  1  0
  1  4  1  0
  2  3  2  3
  3  5  1  0
  3 13  1  0
  6  7  1  0
  6 10  1  0
  6 11  1  0
  6 12  1  0
  7  8  1  0
  7 14  1  0
  8  9  1  0
  8 15  1  0
  8 16  1  0
  9 17  1  0
M  RAD  1   7   2
M  END
>  <reaction>  (19) 
rmg_rxn_15516

>  <mol_properties>  (19) 
{"1": {"label": "*4", "atom_type": "N3d"}, "2": {"label": "*3", "atom_type": "Cd"}, "6": {"label": "*1", "atom_type": "Cs"}, "7": {"label": "*0", "atom_type": "Cs"}, "12": {"label": "*2", "atom_type": "H0"}}

>  <type>  (19) 
unop_15

>  <geom_source>  (19) 
Heuristics

$$$$

     RDKit          3D

 17 15  0  0  0  0  0  0  0  0999 V2000
   -2.4458   -2.1776    0.4769 O   0  0  0  0  0  0  0  0  0  0  0  0
   -1.3815   -1.5114   -0.0981 N   0  0  0  0  0  0  0  0  0  0  0  0
   -0.6046   -1.0251    0.7699 C   0  0  0  0  0  0  0  0  0  0  0  0
   -2.9462   -2.4908   -0.2791 H   0  0  0  0  0  0  0  0  0  0  0  0
   -0.7775   -1.1333    1.8385 H   0  0  0  0  0  0  0  0  0  0  0  0
    1.4777    0.2783   -1.6452 C   0  0  0  0  0  0  0  0  0  0  0  0
    1.4777    0.2783   -0.1227 C   0  0  0  0  0  3  0  0  0  0  0  0
    1.4777    1.6762    0.4780 C   0  0  0  0  0  0  0  0  0  0  0  0
    0.3439    2.4410    0.1149 O   0  0  0  0  0  0  0  0  0  0  0  0
    2.3769    0.7626   -2.0327 H   0  0  0  0  0  0  0  0  0  0  0  0
    0.6161    0.8224   -2.0334 H   0  0  0  0  0  0  0  0  0  0  0  0
    1.4469   -0.7380   -2.0408 H   0  0  0  0  0  0  0  0  0  0  0  0
    0.4297   -0.3777    0.3265 H   0  0  0  0  0  0  0  0  0  0  0  0
    2.3551   -0.2552    0.2553 H   0  0  0  0  0  0  0  0  0  0  0  0
    2.3388    2.2392    0.1112 H   0  0  0  0  0  0  0  0  0  0  0  0
    1.5677    1.6131    1.5698 H   0  0  0  0  0  0  0  0  0  0  0  0
   -0.4386    1.9982    0.4475 H   0  0  0  0  0  0  0  0  0  0  0  0
  1  2  1  0
  1  4  1  0
  2  3  2  3
  3  5  1  0
  3 13  1  0
  6  7  1  0
  6 10  1  0
  6 11  1  0
  6 12  1  0
  7  8  1  0
  7 14  1  0
  8  9  1  0
  8 15  1  0
  8 16  1  0
  9 17  1  0
M  RAD  1   7   2
M  END
>  <reaction>  (20) 
rmg_rxn_15516

>  <mol_properties>  (20) 
{"1": {"label": "*4", "atom_type": "N3d"}, "2": {"label": "*3", "atom_type": "Cd"}, "6": {"label": "*1", "atom_type": "Cs"}, "7": {"label": "*0", "atom_type": "Cs"}, "12": {"label": "*2", "atom_type": "H0"}}

>  <type>  (20) 
unop_16

>  <geom_source>  (20) 
Heuristics

$$$$

     RDKit          3D

 17 15  0  0  0  0  0  0  0  0999 V2000
   -2.4184    1.1010    0.8374 O   0  0  0  0  0  0  0  0  0  0  0  0
    3.9626    0.5371   -0.0310 O   0  0  0  0  0  0  0  0  0  0  0  0
    2.7042    0.2338   -0.4952 N   0  0  0  0  0  0  0  0  0  0  0  0
   -1.2197    0.3957    1.0170 C   0  0  0  0  0  0  0  0  0  0  0  0
   -1.5889   -1.1036   -0.9967 C   0  0  0  0  0  0  0  0  0  0  0  0
   -0.6674   -0.0924   -0.3233 C   0  0  0  0  0  3  0  0  0  0  0  0
    1.8146   -0.2643    0.2984 C   0  0  0  0  0  0  0  0  0  0  0  0
   -0.4621    1.0421    1.5139 H   0  0  0  0  0  0  0  0  0  0  0  0
   -1.4066   -0.4736    1.6822 H   0  0  0  0  0  0  0  0  0  0  0  0
   -1.7502   -1.9775   -0.3309 H   0  0  0  0  0  0  0  0  0  0  0  0
   -1.1182   -1.4575   -1.9373 H   0  0  0  0  0  0  0  0  0  0  0  0
   -2.5668   -0.6366   -1.2396 H   0  0  0  0  0  0  0  0  0  0  0  0
   -0.4776    0.7672   -1.0018 H   0  0  0  0  0  0  0  0  0  0  0  0
    2.0465   -0.4501    1.3397 H   0  0  0  0  0  0  0  0  0  0  0  0
    0.6671   -0.5370   -0.1402 H   0  0  0  0  0  0  0  0  0  0  0  0
   -2.1726    1.9887    0.4667 H   0  0  0  0  0  0  0  0  0  0  0  0
    4.6535    0.9270   -0.6594 H   0  0  0  0  0  0  0  0  0  0  0  0
  1  4  1  0
  1 16  1  0
  2  3  1  0
  2 17  1  0
  3  7  2  3
  4  6  1  0
  4  8  1  0
  4  9  1  0
  5  6  1  0
  5 10  1  0
  5 11  1  0
  5 12  1  0
  6 13  1  0
  7 14  1  0
  7 15  1  0
M  RAD  1   6   2
M  END
>  <reaction>  (21) 
rmg_rxn_15516

>  <mol_properties>  (21) 
{"1": {"label": "*4", "atom_type": "N3d"}, "2": {"label": "*3", "atom_type": "Cd"}, "6": {"label": "*1", "atom_type": "Cs"}, "7": {"label": "*0", "atom_type": "Cs"}, "12": {"label": "*2", "atom_type": "H0"}}

>  <type>  (21) 
unop_17

>  <geom_source>  (21) 
AutoTST

$$$$

     RDKit          3D

 17 15  0  0  0  0  0  0  0  0999 V2000
   -1.9986   -2.6578    0.6841 O   0  0  0  0  0  0  0  0  0  0  0  0
   -1.1827   -1.7945   -0.0202 N   0  0  0  0  0  0  0  0  0  0  0  0
   -0.7490   -0.8572    0.7056 C   0  0  0  0  0  0  0  0  0  0  0  0
   -2.2532   -3.3085    0.0270 H   0  0  0  0  0  0  0  0  0  0  0  0
   -1.0041   -0.7649    1.7591 H   0  0  0  0  0  0  0  0  0  0  0  0
    1.3332    0.4461   -1.7095 C   0  0  0  0  0  0  0  0  0  0  0  0
    1.3332    0.4461   -0.1870 C   0  0  0  0  0  3  0  0  0  0  0  0
    1.3332    1.8441    0.4137 C   0  0  0  0  0  0  0  0  0  0  0  0
    0.1994    2.6089    0.0506 O   0  0  0  0  0  0  0  0  0  0  0  0
    2.2325    0.9305   -2.0970 H   0  0  0  0  0  0  0  0  0  0  0  0
    0.4717    0.9903   -2.0977 H   0  0  0  0  0  0  0  0  0  0  0  0
    1.3025   -0.5700   -2.1051 H   0  0  0  0  0  0  0  0  0  0  0  0
    0.2853   -0.2098    0.2622 H   0  0  0  0  0  0  0  0  0  0  0  0
    2.2107   -0.0873    0.1910 H   0  0  0  0  0  0  0  0  0  0  0  0
    2.1944    2.4071    0.0469 H   0  0  0  0  0  0  0  0  0  0  0  0
    1.4233    1.7810    1.5055 H   0  0  0  0  0  0  0  0  0  0  0  0
   -0.5830    2.1661    0.3832 H   0  0  0  0  0  0  0  0  0  0  0  0
  1  2  1  0
  1  4  1  0
  2  3  2  3
  3  5  1  0
  3 13  1  0
  6  7  1  0
  6 10  1  0
  6 11  1  0
  6 12  1  0
  7  8  1  0
  7 14  1  0
  8  9  1  0
  8 15  1  0
  8 16  1  0
  9 17  1  0
M  RAD  1   7   2
M  END
>  <reaction>  (22) 
rmg_rxn_15516

>  <mol_properties>  (22) 
{"1": {"label": "*4", "atom_type": "N3d"}, "2": {"label": "*3", "atom_type": "Cd"}, "6": {"label": "*1", "atom_type": "Cs"}, "7": {"label": "*0", "atom_type": "Cs"}, "12": {"label": "*2", "atom_type": "H0"}}

>  <type>  (22) 
unop_18

>  <geom_source>  (22) 
gaussian_log

$$$$
