
     RDKit          3D

 10  9  0  0  0  0  0  0  0  0999 V2000
    2.0404   -0.0576    0.0123 C   0  0  0  0  0  0  0  0  0  0  0  0
    0.5946   -0.0168    0.1899 C   0  0  0  0  0  0  0  0  0  0  0  0
   -0.5945    0.0168    0.3359 C   0  0  0  0  0  0  0  0  0  0  0  0
   -2.0404    0.0576    0.5134 C   0  0  0  0  0  0  0  0  0  0  0  0
    2.4764    0.9348    0.1389 H   0  0  0  0  0  0  0  0  0  0  0  0
    2.3002   -0.4155   -0.9854 H   0  0  0  0  0  0  0  0  0  0  0  0
    2.5034   -0.7249    0.7412 H   0  0  0  0  0  0  0  0  0  0  0  0
   -2.3769    1.0718    0.7350 H   0  0  0  0  0  0  0  0  0  0  0  0
   -2.3499   -0.5880    1.3371 H   0  0  0  0  0  0  0  0  0  0  0  0
   -2.5531   -0.2783   -0.3895 H   0  0  0  0  0  0  0  0  0  0  0  0
  1  2  1  0
  1  5  1  0
  1  6  1  0
  1  7  1  0
  2  3  3  0
  3  4  1  0
  4  8  1  0
  4  9  1  0
  4 10  1  0
M  END
>  <reaction>  (1) 
rmg_rxn_58

>  <mol_properties>  (1) 
{"3": {"label": "donator", "atom_type": "Cs"}, "9": {"label": "d_hydrogen", "atom_type": "H0"}}

>  <type>  (1) 
r1h

$$$$

     RDKit          3D

 14 13  0  0  0  0  0  0  0  0999 V2000
    2.6194    0.1388   -0.2451 C   0  0  0  0  0  0  0  0  0  0  0  0
    1.2416   -0.4914   -0.3670 C   0  0  0  0  0  0  0  0  0  0  0  0
    0.9567   -1.8675    0.7732 S   0  0  0  0  0  0  0  0  0  0  0  0
    1.9992   -3.0673    0.1320 C   0  0  0  0  0  3  0  0  0  0  0  0
    2.1769   -4.3519    0.8615 C   0  0  0  0  0  0  0  0  0  0  0  0
    3.4009   -0.5920   -0.4552 H   0  0  0  0  0  0  0  0  0  0  0  0
    2.7219    0.9635   -0.9540 H   0  0  0  0  0  0  0  0  0  0  0  0
    2.7821    0.5262    0.7612 H   0  0  0  0  0  0  0  0  0  0  0  0
    1.0587   -0.8507   -1.3815 H   0  0  0  0  0  0  0  0  0  0  0  0
    0.4587    0.2313   -0.1333 H   0  0  0  0  0  0  0  0  0  0  0  0
    2.2677   -2.9922   -0.9152 H   0  0  0  0  0  0  0  0  0  0  0  0
    1.3745   -5.0711    0.6500 H   0  0  0  0  0  0  0  0  0  0  0  0
    3.1173   -4.8269    0.5747 H   0  0  0  0  0  0  0  0  0  0  0  0
    2.1945   -4.1971    1.9428 H   0  0  0  0  0  0  0  0  0  0  0  0
  1  2  1  0
  1  6  1  0
  1  7  1  0
  1  8  1  0
  2  3  1  0
  2  9  1  0
  2 10  1  0
  3  4  1  0
  4  5  1  0
  4 11  1  0
  5 12  1  0
  5 13  1  0
  5 14  1  0
M  RAD  1   4   2
M  END
>  <reaction>  (2) 
rmg_rxn_58

>  <mol_properties>  (2) 
{"3": {"label": "acceptor", "atom_type": "Cs"}}

>  <type>  (2) 
r2

$$$$

     RDKit          3D

 15 14  0  0  0  0  0  0  0  0999 V2000
   -2.0554    0.0723   -0.4910 C   0  0  0  0  0  0  0  0  0  0  0  0
   -0.7461   -0.6266   -0.8178 C   0  0  0  0  0  0  0  0  0  0  0  0
    0.3249    0.2591   -1.9782 S   0  0  0  0  0  0  0  0  0  0  0  0
   -0.7172    0.3642   -3.4551 C   0  0  0  0  0  0  0  0  0  0  0  0
   -1.1375   -0.9737   -4.0409 C   0  0  0  0  0  0  0  0  0  0  0  0
   -2.7005    0.1427   -1.3684 H   0  0  0  0  0  0  0  0  0  0  0  0
   -2.6016   -0.4848    0.2733 H   0  0  0  0  0  0  0  0  0  0  0  0
   -1.8758    1.0825   -0.1213 H   0  0  0  0  0  0  0  0  0  0  0  0
   -0.1320   -0.7246    0.0789 H   0  0  0  0  0  0  0  0  0  0  0  0
   -0.9254   -1.6374   -1.1879 H   0  0  0  0  0  0  0  0  0  0  0  0
   -1.5873    0.9874   -3.2422 H   0  0  0  0  0  0  0  0  0  0  0  0
   -0.1021    0.9161   -4.1678 H   0  0  0  0  0  0  0  0  0  0  0  0
   -1.7876   -1.5224   -3.3574 H   0  0  0  0  0  0  0  0  0  0  0  0
   -0.2676   -1.5962   -4.2534 H   0  0  0  0  0  0  0  0  0  0  0  0
   -1.6916   -0.8229   -4.9700 H   0  0  0  0  0  0  0  0  0  0  0  0
  1  2  1  0
  1  6  1  0
  1  7  1  0
  1  8  1  0
  2  3  1  0
  2  9  1  0
  2 10  1  0
  3  4  1  0
  4  5  1  0
  4 11  1  0
  4 12  1  0
  5 13  1  0
  5 14  1  0
  5 15  1  0
M  END
>  <reaction>  (3) 
rmg_rxn_58

>  <mol_properties>  (3) 
{"0": {"label": "a_hydrogen", "atom_type": "H0"}, "4": {"label": "acceptor", "atom_type": "Cs"}}

>  <type>  (3) 
r2h

$$$$

     RDKit          3D

 24 22  0  0  0  0  0  0  0  0999 V2000
    0.1215    1.4115   -3.1099 C   0  0  0  0  0  0  0  0  0  0  0  0
   -0.5330    1.3466   -1.8119 C   0  0  0  0  0  3  0  0  0  0  0  0
   -1.0723    1.2884   -0.7358 C   0  0  0  0  0  0  0  0  0  0  0  0
   -1.6563    1.1232    0.5474 C   0  0  0  0  0  0  0  0  0  0  0  0
   -0.6122    1.4394   -3.9175 H   0  0  0  0  0  0  0  0  0  0  0  0
    0.7587    0.5378   -3.2643 H   0  0  0  0  0  0  0  0  0  0  0  0
    0.7457    2.3034   -3.1902 H   0  0  0  0  0  0  0  0  0  0  0  0
   -2.7342    0.9739    0.5476 H   0  0  0  0  0  0  0  0  0  0  0  0
   -1.3393    1.8460    1.2966 H   0  0  0  0  0  0  0  0  0  0  0  0
   -1.1823   -0.0601    1.0171 H   0  0  0  0  0  0  0  0  0  0  0  0
    1.8207    0.6060    1.3136 C   0  0  0  0  0  0  0  0  0  0  0  0
    1.9121   -0.9106    1.3570 C   0  0  0  0  0  0  0  0  0  0  0  0
    0.5988   -1.7800    0.4676 S   0  0  0  0  0  0  0  0  0  0  0  0
   -0.8275   -1.3089    1.3879 C   0  0  0  0  0  0  0  0  0  0  0  0
   -2.0500   -2.1293    1.0597 C   0  0  0  0  0  0  0  0  0  0  0  0
    0.9360    0.9619    1.8420 H   0  0  0  0  0  0  0  0  0  0  0  0
    2.6969    1.0478    1.7932 H   0  0  0  0  0  0  0  0  0  0  0  0
    1.7601    0.9661    0.2867 H   0  0  0  0  0  0  0  0  0  0  0  0
    1.9282   -1.2737    2.3868 H   0  0  0  0  0  0  0  0  0  0  0  0
    2.8312   -1.2543    0.8799 H   0  0  0  0  0  0  0  0  0  0  0  0
   -0.6203   -1.2179    2.4552 H   0  0  0  0  0  0  0  0  0  0  0  0
   -1.9301   -3.1752    1.3531 H   0  0  0  0  0  0  0  0  0  0  0  0
   -2.9207   -1.7280    1.5813 H   0  0  0  0  0  0  0  0  0  0  0  0
   -2.2587   -2.1006   -0.0119 H   0  0  0  0  0  0  0  0  0  0  0  0
  1  2  1  0
  1  5  1  0
  1  6  1  0
  1  7  1  0
  2  3  2  0
  3  4  2  0
  4  8  1  0
  4  9  1  0
 10 14  1  0
 11 12  1  0
 11 16  1  0
 11 17  1  0
 11 18  1  0
 12 13  1  0
 12 19  1  0
 12 20  1  0
 13 14  1  0
 14 15  1  0
 14 21  1  0
 15 22  1  0
 15 23  1  0
 15 24  1  0
M  RAD  1   2   2
M  END
>  <reaction>  (4) 
rmg_rxn_58

>  <mol_properties>  (4) 
{"2": {"label": "*4", "atom_type": "Cdd"}, "3": {"label": "*3", "atom_type": "Cd"}, "9": {"label": "*2", "atom_type": "H0"}, "12": {"label": "*0", "atom_type": "S2s"}, "13": {"label": "*1", "atom_type": "Cs"}}

>  <type>  (4) 
ts

$$$$

     RDKit          3D

 24 22  0  0  0  0  0  0  0  0999 V2000
   -0.8839    1.6668   -4.6674 C   0  0  0  0  0  0  0  0  0  0  0  0
   -0.8839    1.6668   -3.2102 C   0  0  0  0  0  3  0  0  0  0  0  0
   -0.8839    1.6668   -2.0117 C   0  0  0  0  0  0  0  0  0  0  0  0
   -0.8839    1.6668   -0.5544 C   0  0  0  0  0  0  0  0  0  0  0  0
   -1.8770    1.8974   -5.0568 H   0  0  0  0  0  0  0  0  0  0  0  0
   -0.5871    0.6914   -5.0568 H   0  0  0  0  0  0  0  0  0  0  0  0
   -0.1875    2.4114   -5.0568 H   0  0  0  0  0  0  0  0  0  0  0  0
   -1.8769    1.8976   -0.1651 H   0  0  0  0  0  0  0  0  0  0  0  0
   -0.1874    2.4113   -0.1651 H   0  0  0  0  0  0  0  0  0  0  0  0
   -0.5280    0.4962   -0.0872 H   0  0  0  0  0  0  0  0  0  0  0  0
   -0.1363   -1.1856    3.6047 C   0  0  0  0  0  0  0  0  0  0  0  0
    1.1127   -1.4243    2.7726 C   0  0  0  0  0  0  0  0  0  0  0  0
    1.3108   -0.3156    1.3549 S   0  0  0  0  0  0  0  0  0  0  0  0
   -0.1721   -0.6742    0.3799 C   0  0  0  0  0  0  0  0  0  0  0  0
   -0.2988   -2.1139   -0.0899 C   0  0  0  0  0  0  0  0  0  0  0  0
   -1.0425   -1.4000    3.0356 H   0  0  0  0  0  0  0  0  0  0  0  0
   -0.1379   -1.8376    4.4810 H   0  0  0  0  0  0  0  0  0  0  0  0
   -0.1867   -0.1501    3.9433 H   0  0  0  0  0  0  0  0  0  0  0  0
    1.1634   -2.4603    2.4335 H   0  0  0  0  0  0  0  0  0  0  0  0
    2.0085   -1.2448    3.3694 H   0  0  0  0  0  0  0  0  0  0  0  0
   -1.0575   -0.3669    0.9389 H   0  0  0  0  0  0  0  0  0  0  0  0
   -0.4231   -2.7989    0.7505 H   0  0  0  0  0  0  0  0  0  0  0  0
   -1.1726   -2.2259   -0.7357 H   0  0  0  0  0  0  0  0  0  0  0  0
    0.5862   -2.4206   -0.6483 H   0  0  0  0  0  0  0  0  0  0  0  0
  1  2  1  0
  1  5  1  0
  1  6  1  0
  1  7  1  0
  2  3  2  0
  3  4  2  0
  4  8  1  0
  4  9  1  0
 10 14  1  0
 11 12  1  0
 11 16  1  0
 11 17  1  0
 11 18  1  0
 12 13  1  0
 12 19  1  0
 12 20  1  0
 13 14  1  0
 14 15  1  0
 14 21  1  0
 15 22  1  0
 15 23  1  0
 15 24  1  0
M  RAD  1   2   2
M  END
>  <reaction>  (5) 
rmg_rxn_58

>  <mol_properties>  (5) 
{"2": {"label": "*4", "atom_type": "Cdd"}, "3": {"label": "*3", "atom_type": "Cd"}, "9": {"label": "*2", "atom_type": "H0"}, "12": {"label": "*0", "atom_type": "S2s"}, "13": {"label": "*1", "atom_type": "Cs"}}

>  <type>  (5) 
unop_1

>  <geom_source>  (5) 
Heuristics

$$$$

     RDKit          3D

 24 22  0  0  0  0  0  0  0  0999 V2000
   -1.0918    2.0529   -3.7613 C   0  0  0  0  0  0  0  0  0  0  0  0
   -1.0918    2.0529   -2.3041 C   0  0  0  0  0  3  0  0  0  0  0  0
   -1.0918    2.0529   -1.1056 C   0  0  0  0  0  0  0  0  0  0  0  0
   -1.0918    2.0529    0.3517 C   0  0  0  0  0  0  0  0  0  0  0  0
   -2.0849    2.2836   -4.1506 H   0  0  0  0  0  0  0  0  0  0  0  0
   -0.7951    1.0775   -4.1506 H   0  0  0  0  0  0  0  0  0  0  0  0
   -0.3955    2.7976   -4.1506 H   0  0  0  0  0  0  0  0  0  0  0  0
   -2.0849    2.2837    0.7410 H   0  0  0  0  0  0  0  0  0  0  0  0
   -0.3954    2.7975    0.7410 H   0  0  0  0  0  0  0  0  0  0  0  0
   -0.7359    0.8824    0.8189 H   0  0  0  0  0  0  0  0  0  0  0  0
    2.4494   -1.6903    2.1167 C   0  0  0  0  0  0  0  0  0  0  0  0
    1.6546   -2.2037    0.9275 C   0  0  0  0  0  0  0  0  0  0  0  0
    0.7363   -0.9367    0.0167 S   0  0  0  0  0  0  0  0  0  0  0  0
   -0.3800   -0.2880    1.2861 C   0  0  0  0  0  0  0  0  0  0  0  0
   -1.3369   -1.3076    1.8813 C   0  0  0  0  0  0  0  0  0  0  0  0
    1.7938   -1.2978    2.8959 H   0  0  0  0  0  0  0  0  0  0  0  0
    3.0353   -2.4994    2.5584 H   0  0  0  0  0  0  0  0  0  0  0  0
    3.1308   -0.8940    1.8152 H   0  0  0  0  0  0  0  0  0  0  0  0
    0.9726   -3.0005    1.2289 H   0  0  0  0  0  0  0  0  0  0  0  0
    2.3230   -2.6293    0.1772 H   0  0  0  0  0  0  0  0  0  0  0  0
    0.2036    0.2016    2.0674 H   0  0  0  0  0  0  0  0  0  0  0  0
   -0.8028   -2.0791    2.4384 H   0  0  0  0  0  0  0  0  0  0  0  0
   -2.0260   -0.8205    2.5748 H   0  0  0  0  0  0  0  0  0  0  0  0
   -1.9199   -1.7969    1.1002 H   0  0  0  0  0  0  0  0  0  0  0  0
  1  2  1  0
  1  5  1  0
  1  6  1  0
  1  7  1  0
  2  3  2  0
  3  4  2  0
  4  8  1  0
  4  9  1  0
 10 14  1  0
 11 12  1  0
 11 16  1  0
 11 17  1  0
 11 18  1  0
 12 13  1  0
 12 19  1  0
 12 20  1  0
 13 14  1  0
 14 15  1  0
 14 21  1  0
 15 22  1  0
 15 23  1  0
 15 24  1  0
M  RAD  1   2   2
M  END
>  <reaction>  (6) 
rmg_rxn_58

>  <mol_properties>  (6) 
{"2": {"label": "*4", "atom_type": "Cdd"}, "3": {"label": "*3", "atom_type": "Cd"}, "9": {"label": "*2", "atom_type": "H0"}, "12": {"label": "*0", "atom_type": "S2s"}, "13": {"label": "*1", "atom_type": "Cs"}}

>  <type>  (6) 
unop_2

>  <geom_source>  (6) 
Heuristics

$$$$

     RDKit          3D

 24 22  0  0  0  0  0  0  0  0999 V2000
   -0.6384    1.7793   -4.7292 C   0  0  0  0  0  0  0  0  0  0  0  0
   -0.6384    1.7793   -3.2720 C   0  0  0  0  0  3  0  0  0  0  0  0
   -0.6384    1.7793   -2.0735 C   0  0  0  0  0  0  0  0  0  0  0  0
   -0.6384    1.7793   -0.6162 C   0  0  0  0  0  0  0  0  0  0  0  0
   -1.6315    2.0100   -5.1186 H   0  0  0  0  0  0  0  0  0  0  0  0
   -0.3416    0.8039   -5.1185 H   0  0  0  0  0  0  0  0  0  0  0  0
    0.0579    2.5239   -5.1186 H   0  0  0  0  0  0  0  0  0  0  0  0
   -1.6314    2.0101   -0.2269 H   0  0  0  0  0  0  0  0  0  0  0  0
    0.0581    2.5238   -0.2269 H   0  0  0  0  0  0  0  0  0  0  0  0
   -0.2825    0.6088   -0.1490 H   0  0  0  0  0  0  0  0  0  0  0  0
   -0.8305   -2.0781    3.0650 C   0  0  0  0  0  0  0  0  0  0  0  0
    0.6226   -1.6952    2.8384 C   0  0  0  0  0  0  0  0  0  0  0  0
    0.8736   -0.1706    1.8945 S   0  0  0  0  0  0  0  0  0  0  0  0
    0.0734   -0.5617    0.3182 C   0  0  0  0  0  0  0  0  0  0  0  0
    0.6662   -1.7466   -0.4262 C   0  0  0  0  0  0  0  0  0  0  0  0
   -1.3305   -2.3216    2.1260 H   0  0  0  0  0  0  0  0  0  0  0  0
   -0.8942   -2.9588    3.7080 H   0  0  0  0  0  0  0  0  0  0  0  0
   -1.3787   -1.2630    3.5387 H   0  0  0  0  0  0  0  0  0  0  0  0
    1.1715   -2.5105    2.3643 H   0  0  0  0  0  0  0  0  0  0  0  0
    1.1172   -1.4952    3.7904 H   0  0  0  0  0  0  0  0  0  0  0  0
   -0.9974   -0.6976    0.4782 H   0  0  0  0  0  0  0  0  0  0  0  0
    0.5219   -2.6774    0.1251 H   0  0  0  0  0  0  0  0  0  0  0  0
    0.1825   -1.8635   -1.3985 H   0  0  0  0  0  0  0  0  0  0  0  0
    1.7364   -1.6105   -0.5858 H   0  0  0  0  0  0  0  0  0  0  0  0
  1  2  1  0
  1  5  1  0
  1  6  1  0
  1  7  1  0
  2  3  2  0
  3  4  2  0
  4  8  1  0
  4  9  1  0
 10 14  1  0
 11 12  1  0
 11 16  1  0
 11 17  1  0
 11 18  1  0
 12 13  1  0
 12 19  1  0
 12 20  1  0
 13 14  1  0
 14 15  1  0
 14 21  1  0
 15 22  1  0
 15 23  1  0
 15 24  1  0
M  RAD  1   2   2
M  END
>  <reaction>  (7) 
rmg_rxn_58

>  <mol_properties>  (7) 
{"2": {"label": "*4", "atom_type": "Cdd"}, "3": {"label": "*3", "atom_type": "Cd"}, "9": {"label": "*2", "atom_type": "H0"}, "12": {"label": "*0", "atom_type": "S2s"}, "13": {"label": "*1", "atom_type": "Cs"}}

>  <type>  (7) 
unop_3

>  <geom_source>  (7) 
Heuristics

$$$$

     RDKit          3D

 24 22  0  0  0  0  0  0  0  0999 V2000
    0.0050    2.2152   -4.0754 C   0  0  0  0  0  0  0  0  0  0  0  0
    0.0050    2.2152   -2.6182 C   0  0  0  0  0  3  0  0  0  0  0  0
    0.0050    2.2152   -1.4197 C   0  0  0  0  0  0  0  0  0  0  0  0
    0.0050    2.2152    0.0376 C   0  0  0  0  0  0  0  0  0  0  0  0
   -0.9881    2.4458   -4.4648 H   0  0  0  0  0  0  0  0  0  0  0  0
    0.3018    1.2398   -4.4647 H   0  0  0  0  0  0  0  0  0  0  0  0
    0.7014    2.9598   -4.4647 H   0  0  0  0  0  0  0  0  0  0  0  0
   -0.9880    2.4460    0.4269 H   0  0  0  0  0  0  0  0  0  0  0  0
    0.7015    2.9597    0.4269 H   0  0  0  0  0  0  0  0  0  0  0  0
    0.3609    1.0446    0.5048 H   0  0  0  0  0  0  0  0  0  0  0  0
    0.6726   -3.2700    1.8518 C   0  0  0  0  0  0  0  0  0  0  0  0
   -0.6256   -2.5244    1.5903 C   0  0  0  0  0  0  0  0  0  0  0  0
   -0.5321   -1.2536    0.3040 S   0  0  0  0  0  0  0  0  0  0  0  0
    0.7168   -0.1258    0.9720 C   0  0  0  0  0  0  0  0  0  0  0  0
    0.3644    0.5028    2.3100 C   0  0  0  0  0  0  0  0  0  0  0  0
    1.4385   -2.6077    2.2589 H   0  0  0  0  0  0  0  0  0  0  0  0
    0.5105   -4.0691    2.5786 H   0  0  0  0  0  0  0  0  0  0  0  0
    1.0603   -3.7109    0.9328 H   0  0  0  0  0  0  0  0  0  0  0  0
   -1.0139   -2.0829    2.5096 H   0  0  0  0  0  0  0  0  0  0  0  0
   -1.3914   -3.2095    1.2228 H   0  0  0  0  0  0  0  0  0  0  0  0
    1.6789   -0.6382    1.0231 H   0  0  0  0  0  0  0  0  0  0  0  0
    0.3067   -0.2471    3.1007 H   0  0  0  0  0  0  0  0  0  0  0  0
    1.1281    1.2275    2.6008 H   0  0  0  0  0  0  0  0  0  0  0  0
   -0.5972    1.0147    2.2585 H   0  0  0  0  0  0  0  0  0  0  0  0
  1  2  1  0
  1  5  1  0
  1  6  1  0
  1  7  1  0
  2  3  2  0
  3  4  2  0
  4  8  1  0
  4  9  1  0
 10 14  1  0
 11 12  1  0
 11 16  1  0
 11 17  1  0
 11 18  1  0
 12 13  1  0
 12 19  1  0
 12 20  1  0
 13 14  1  0
 14 15  1  0
 14 21  1  0
 15 22  1  0
 15 23  1  0
 15 24  1  0
M  RAD  1   2   2
M  END
>  <reaction>  (8) 
rmg_rxn_58

>  <mol_properties>  (8) 
{"2": {"label": "*4", "atom_type": "Cdd"}, "3": {"label": "*3", "atom_type": "Cd"}, "9": {"label": "*2", "atom_type": "H0"}, "12": {"label": "*0", "atom_type": "S2s"}, "13": {"label": "*1", "atom_type": "Cs"}}

>  <type>  (8) 
unop_4

>  <geom_source>  (8) 
Heuristics

$$$$

     RDKit          3D

 24 22  0  0  0  0  0  0  0  0999 V2000
   -0.5582    1.8741   -4.7009 C   0  0  0  0  0  0  0  0  0  0  0  0
   -0.5582    1.8741   -3.2437 C   0  0  0  0  0  3  0  0  0  0  0  0
   -0.5582    1.8741   -2.0452 C   0  0  0  0  0  0  0  0  0  0  0  0
   -0.5582    1.8741   -0.5879 C   0  0  0  0  0  0  0  0  0  0  0  0
   -1.5513    2.1048   -5.0903 H   0  0  0  0  0  0  0  0  0  0  0  0
   -0.2615    0.8987   -5.0903 H   0  0  0  0  0  0  0  0  0  0  0  0
    0.1381    2.6188   -5.0903 H   0  0  0  0  0  0  0  0  0  0  0  0
   -1.5513    2.1050   -0.1986 H   0  0  0  0  0  0  0  0  0  0  0  0
    0.1382    2.6187   -0.1986 H   0  0  0  0  0  0  0  0  0  0  0  0
   -0.2023    0.7036   -0.1207 H   0  0  0  0  0  0  0  0  0  0  0  0
   -0.3801   -3.0198    2.3110 C   0  0  0  0  0  0  0  0  0  0  0  0
    0.5486   -1.8966    2.7418 C   0  0  0  0  0  0  0  0  0  0  0  0
    0.0880   -0.2512    2.1429 S   0  0  0  0  0  0  0  0  0  0  0  0
    0.1536   -0.4668    0.3464 C   0  0  0  0  0  0  0  0  0  0  0  0
    1.5129   -0.8669   -0.2030 C   0  0  0  0  0  0  0  0  0  0  0  0
   -0.3524   -3.1686    1.2302 H   0  0  0  0  0  0  0  0  0  0  0  0
   -0.0798   -3.9599    2.7789 H   0  0  0  0  0  0  0  0  0  0  0  0
   -1.4103   -2.8043    2.5965 H   0  0  0  0  0  0  0  0  0  0  0  0
    1.5796   -2.1117    2.4562 H   0  0  0  0  0  0  0  0  0  0  0  0
    0.5391   -1.7894    3.8277 H   0  0  0  0  0  0  0  0  0  0  0  0
   -0.6161   -1.1759    0.0373 H   0  0  0  0  0  0  0  0  0  0  0  0
    1.8077   -1.8588    0.1437 H   0  0  0  0  0  0  0  0  0  0  0  0
    1.4865   -0.8958   -1.2945 H   0  0  0  0  0  0  0  0  0  0  0  0
    2.2819   -0.1581    0.1063 H   0  0  0  0  0  0  0  0  0  0  0  0
  1  2  1  0
  1  5  1  0
  1  6  1  0
  1  7  1  0
  2  3  2  0
  3  4  2  0
  4  8  1  0
  4  9  1  0
 10 14  1  0
 11 12  1  0
 11 16  1  0
 11 17  1  0
 11 18  1  0
 12 13  1  0
 12 19  1  0
 12 20  1  0
 13 14  1  0
 14 15  1  0
 14 21  1  0
 15 22  1  0
 15 23  1  0
 15 24  1  0
M  RAD  1   2   2
M  END
>  <reaction>  (9) 
rmg_rxn_58

>  <mol_properties>  (9) 
{"2": {"label": "*4", "atom_type": "Cdd"}, "3": {"label": "*3", "atom_type": "Cd"}, "9": {"label": "*2", "atom_type": "H0"}, "12": {"label": "*0", "atom_type": "S2s"}, "13": {"label": "*1", "atom_type": "Cs"}}

>  <type>  (9) 
unop_5

>  <geom_source>  (9) 
Heuristics

$$$$

     RDKit          3D

 24 22  0  0  0  0  0  0  0  0999 V2000
    0.0082    2.0437   -4.4203 C   0  0  0  0  0  0  0  0  0  0  0  0
    0.0082    2.0437   -2.9631 C   0  0  0  0  0  3  0  0  0  0  0  0
    0.0082    2.0437   -1.7646 C   0  0  0  0  0  0  0  0  0  0  0  0
    0.0082    2.0437   -0.3073 C   0  0  0  0  0  0  0  0  0  0  0  0
   -0.9849    2.2744   -4.8096 H   0  0  0  0  0  0  0  0  0  0  0  0
    0.3049    1.0683   -4.8096 H   0  0  0  0  0  0  0  0  0  0  0  0
    0.7045    2.7884   -4.8096 H   0  0  0  0  0  0  0  0  0  0  0  0
   -0.9849    2.2745    0.0820 H   0  0  0  0  0  0  0  0  0  0  0  0
    0.7046    2.7883    0.0820 H   0  0  0  0  0  0  0  0  0  0  0  0
    0.3641    0.8732    0.1599 H   0  0  0  0  0  0  0  0  0  0  0  0
    0.5734   -3.1253    2.2526 C   0  0  0  0  0  0  0  0  0  0  0  0
   -0.5909   -2.1496    2.2969 C   0  0  0  0  0  0  0  0  0  0  0  0
   -0.8457   -1.1935    0.7806 S   0  0  0  0  0  0  0  0  0  0  0  0
    0.7200   -0.2972    0.6271 C   0  0  0  0  0  0  0  0  0  0  0  0
    1.0457    0.6294    1.7867 C   0  0  0  0  0  0  0  0  0  0  0  0
    1.5281   -2.6042    2.1639 H   0  0  0  0  0  0  0  0  0  0  0  0
    0.6070   -3.7166    3.1703 H   0  0  0  0  0  0  0  0  0  0  0  0
    0.4794   -3.8056    1.4054 H   0  0  0  0  0  0  0  0  0  0  0  0
   -0.4971   -1.4686    3.1444 H   0  0  0  0  0  0  0  0  0  0  0  0
   -1.5326   -2.6854    2.4269 H   0  0  0  0  0  0  0  0  0  0  0  0
    1.5302   -1.0080    0.4563 H   0  0  0  0  0  0  0  0  0  0  0  0
    1.2068    0.0716    2.7107 H   0  0  0  0  0  0  0  0  0  0  0  0
    1.9600    1.1896    1.5786 H   0  0  0  0  0  0  0  0  0  0  0  0
    0.2356    1.3395    1.9571 H   0  0  0  0  0  0  0  0  0  0  0  0
  1  2  1  0
  1  5  1  0
  1  6  1  0
  1  7  1  0
  2  3  2  0
  3  4  2  0
  4  8  1  0
  4  9  1  0
 10 14  1  0
 11 12  1  0
 11 16  1  0
 11 17  1  0
 11 18  1  0
 12 13  1  0
 12 19  1  0
 12 20  1  0
 13 14  1  0
 14 15  1  0
 14 21  1  0
 15 22  1  0
 15 23  1  0
 15 24  1  0
M  RAD  1   2   2
M  END
>  <reaction>  (10) 
rmg_rxn_58

>  <mol_properties>  (10) 
{"2": {"label": "*4", "atom_type": "Cdd"}, "3": {"label": "*3", "atom_type": "Cd"}, "9": {"label": "*2", "atom_type": "H0"}, "12": {"label": "*0", "atom_type": "S2s"}, "13": {"label": "*1", "atom_type": "Cs"}}

>  <type>  (10) 
unop_6

>  <geom_source>  (10) 
Heuristics

$$$$

     RDKit          3D

 24 22  0  0  0  0  0  0  0  0999 V2000
   -0.1930    1.8959   -4.6562 C   0  0  0  0  0  0  0  0  0  0  0  0
   -0.1930    1.8959   -3.1989 C   0  0  0  0  0  3  0  0  0  0  0  0
   -0.1930    1.8959   -2.0004 C   0  0  0  0  0  0  0  0  0  0  0  0
   -0.1930    1.8959   -0.5432 C   0  0  0  0  0  0  0  0  0  0  0  0
   -1.1861    2.1266   -5.0455 H   0  0  0  0  0  0  0  0  0  0  0  0
    0.1038    0.9205   -5.0455 H   0  0  0  0  0  0  0  0  0  0  0  0
    0.5033    2.6405   -5.0455 H   0  0  0  0  0  0  0  0  0  0  0  0
   -1.1860    2.1267   -0.1538 H   0  0  0  0  0  0  0  0  0  0  0  0
    0.5035    2.6404   -0.1538 H   0  0  0  0  0  0  0  0  0  0  0  0
    0.1629    0.7254   -0.0760 H   0  0  0  0  0  0  0  0  0  0  0  0
    0.7075   -3.0516    2.3489 C   0  0  0  0  0  0  0  0  0  0  0  0
   -0.1329   -1.8490    2.7454 C   0  0  0  0  0  0  0  0  0  0  0  0
   -0.9127   -0.9726    1.3662 S   0  0  0  0  0  0  0  0  0  0  0  0
    0.5188   -0.4451    0.3912 C   0  0  0  0  0  0  0  0  0  0  0  0
    1.4883    0.4719    1.1185 C   0  0  0  0  0  0  0  0  0  0  0  0
    1.5787   -2.7542    1.7628 H   0  0  0  0  0  0  0  0  0  0  0  0
    1.0726   -3.5685    3.2391 H   0  0  0  0  0  0  0  0  0  0  0  0
    0.1241   -3.7554    1.7544 H   0  0  0  0  0  0  0  0  0  0  0  0
    0.4506   -1.1444    3.3402 H   0  0  0  0  0  0  0  0  0  0  0  0
   -0.9758   -2.1604    3.3646 H   0  0  0  0  0  0  0  0  0  0  0  0
    1.0335   -1.3229   -0.0029 H   0  0  0  0  0  0  0  0  0  0  0  0
    1.9724   -0.0392    1.9523 H   0  0  0  0  0  0  0  0  0  0  0  0
    2.2747    0.8073    0.4387 H   0  0  0  0  0  0  0  0  0  0  0  0
    0.9736    1.3490    1.5123 H   0  0  0  0  0  0  0  0  0  0  0  0
  1  2  1  0
  1  5  1  0
  1  6  1  0
  1  7  1  0
  2  3  2  0
  3  4  2  0
  4  8  1  0
  4  9  1  0
 10 14  1  0
 11 12  1  0
 11 16  1  0
 11 17  1  0
 11 18  1  0
 12 13  1  0
 12 19  1  0
 12 20  1  0
 13 14  1  0
 14 15  1  0
 14 21  1  0
 15 22  1  0
 15 23  1  0
 15 24  1  0
M  RAD  1   2   2
M  END
>  <reaction>  (11) 
rmg_rxn_58

>  <mol_properties>  (11) 
{"2": {"label": "*4", "atom_type": "Cdd"}, "3": {"label": "*3", "atom_type": "Cd"}, "9": {"label": "*2", "atom_type": "H0"}, "12": {"label": "*0", "atom_type": "S2s"}, "13": {"label": "*1", "atom_type": "Cs"}}

>  <type>  (11) 
unop_7

>  <geom_source>  (11) 
Heuristics

$$$$

     RDKit          3D

 24 22  0  0  0  0  0  0  0  0999 V2000
   -1.1421    1.6743   -4.4319 C   0  0  0  0  0  0  0  0  0  0  0  0
   -1.1421    1.6743   -2.9746 C   0  0  0  0  0  3  0  0  0  0  0  0
   -1.1421    1.6743   -1.7761 C   0  0  0  0  0  0  0  0  0  0  0  0
   -1.1421    1.6743   -0.3189 C   0  0  0  0  0  0  0  0  0  0  0  0
   -2.1352    1.9050   -4.8212 H   0  0  0  0  0  0  0  0  0  0  0  0
   -0.8454    0.6989   -4.8212 H   0  0  0  0  0  0  0  0  0  0  0  0
   -0.4458    2.4190   -4.8212 H   0  0  0  0  0  0  0  0  0  0  0  0
   -2.1352    1.9052    0.0704 H   0  0  0  0  0  0  0  0  0  0  0  0
   -0.4457    2.4189    0.0704 H   0  0  0  0  0  0  0  0  0  0  0  0
   -0.7862    0.5038    0.1483 H   0  0  0  0  0  0  0  0  0  0  0  0
    1.0046   -0.8097    3.5451 C   0  0  0  0  0  0  0  0  0  0  0  0
    1.6819   -1.4112    2.3249 C   0  0  0  0  0  0  0  0  0  0  0  0
    1.3693   -0.5396    0.7690 S   0  0  0  0  0  0  0  0  0  0  0  0
   -0.4303   -0.6666    0.6155 C   0  0  0  0  0  0  0  0  0  0  0  0
   -0.9699   -2.0855    0.5431 C   0  0  0  0  0  0  0  0  0  0  0  0
   -0.0822   -0.8798    3.4738 H   0  0  0  0  0  0  0  0  0  0  0  0
    1.3087   -1.3430    4.4484 H   0  0  0  0  0  0  0  0  0  0  0  0
    1.2690    0.2423    3.6583 H   0  0  0  0  0  0  0  0  0  0  0  0
    1.4175   -2.4638    2.2111 H   0  0  0  0  0  0  0  0  0  0  0  0
    2.7671   -1.3696    2.4319 H   0  0  0  0  0  0  0  0  0  0  0  0
   -0.9043   -0.1099    1.4256 H   0  0  0  0  0  0  0  0  0  0  0  0
   -0.7946   -2.6275    1.4739 H   0  0  0  0  0  0  0  0  0  0  0  0
   -2.0483   -2.0721    0.3699 H   0  0  0  0  0  0  0  0  0  0  0  0
   -0.4960   -2.6415   -0.2666 H   0  0  0  0  0  0  0  0  0  0  0  0
  1  2  1  0
  1  5  1  0
  1  6  1  0
  1  7  1  0
  2  3  2  0
  3  4  2  0
  4  8  1  0
  4  9  1  0
 10 14  1  0
 11 12  1  0
 11 16  1  0
 11 17  1  0
 11 18  1  0
 12 13  1  0
 12 19  1  0
 12 20  1  0
 13 14  1  0
 14 15  1  0
 14 21  1  0
 15 22  1  0
 15 23  1  0
 15 24  1  0
M  RAD  1   2   2
M  END
>  <reaction>  (12) 
rmg_rxn_58

>  <mol_properties>  (12) 
{"2": {"label": "*4", "atom_type": "Cdd"}, "3": {"label": "*3", "atom_type": "Cd"}, "9": {"label": "*2", "atom_type": "H0"}, "12": {"label": "*0", "atom_type": "S2s"}, "13": {"label": "*1", "atom_type": "Cs"}}

>  <type>  (12) 
unop_8

>  <geom_source>  (12) 
Heuristics

$$$$

     RDKit          3D

 24 22  0  0  0  0  0  0  0  0999 V2000
   -0.2569    2.3169   -3.7553 C   0  0  0  0  0  0  0  0  0  0  0  0
   -0.2569    2.3169   -2.2980 C   0  0  0  0  0  3  0  0  0  0  0  0
   -0.2569    2.3169   -1.0995 C   0  0  0  0  0  0  0  0  0  0  0  0
   -0.2569    2.3169    0.3577 C   0  0  0  0  0  0  0  0  0  0  0  0
   -1.2500    2.5476   -4.1446 H   0  0  0  0  0  0  0  0  0  0  0  0
    0.0398    1.3416   -4.1446 H   0  0  0  0  0  0  0  0  0  0  0  0
    0.4394    3.0616   -4.1446 H   0  0  0  0  0  0  0  0  0  0  0  0
   -1.2500    2.5478    0.7470 H   0  0  0  0  0  0  0  0  0  0  0  0
    0.4395    3.0615    0.7470 H   0  0  0  0  0  0  0  0  0  0  0  0
    0.0990    1.1464    0.8249 H   0  0  0  0  0  0  0  0  0  0  0  0
    1.2619   -3.1842    1.4465 C   0  0  0  0  0  0  0  0  0  0  0  0
   -0.0967   -2.7608    0.9130 C   0  0  0  0  0  0  0  0  0  0  0  0
   -0.1114   -1.1843    0.0227 S   0  0  0  0  0  0  0  0  0  0  0  0
    0.4549   -0.0240    1.2921 C   0  0  0  0  0  0  0  0  0  0  0  0
   -0.4281    0.0587    2.5262 C   0  0  0  0  0  0  0  0  0  0  0  0
    1.6198   -2.4988    2.2166 H   0  0  0  0  0  0  0  0  0  0  0  0
    1.1994   -4.1779    1.8957 H   0  0  0  0  0  0  0  0  0  0  0  0
    2.0030   -3.2115    0.6469 H   0  0  0  0  0  0  0  0  0  0  0  0
   -0.8385   -2.7333    1.7128 H   0  0  0  0  0  0  0  0  0  0  0  0
   -0.4571   -3.4790    0.1746 H   0  0  0  0  0  0  0  0  0  0  0  0
    1.4853   -0.2582    1.5647 H   0  0  0  0  0  0  0  0  0  0  0  0
   -0.4300   -0.8817    3.0797 H   0  0  0  0  0  0  0  0  0  0  0  0
   -0.0632    0.8357    3.2016 H   0  0  0  0  0  0  0  0  0  0  0  0
   -1.4578    0.2927    2.2533 H   0  0  0  0  0  0  0  0  0  0  0  0
  1  2  1  0
  1  5  1  0
  1  6  1  0
  1  7  1  0
  2  3  2  0
  3  4  2  0
  4  8  1  0
  4  9  1  0
 10 14  1  0
 11 12  1  0
 11 16  1  0
 11 17  1  0
 11 18  1  0
 12 13  1  0
 12 19  1  0
 12 20  1  0
 13 14  1  0
 14 15  1  0
 14 21  1  0
 15 22  1  0
 15 23  1  0
 15 24  1  0
M  RAD  1   2   2
M  END
>  <reaction>  (13) 
rmg_rxn_58

>  <mol_properties>  (13) 
{"2": {"label": "*4", "atom_type": "Cdd"}, "3": {"label": "*3", "atom_type": "Cd"}, "9": {"label": "*2", "atom_type": "H0"}, "12": {"label": "*0", "atom_type": "S2s"}, "13": {"label": "*1", "atom_type": "Cs"}}

>  <type>  (13) 
unop_9

>  <geom_source>  (13) 
Heuristics

$$$$

     RDKit          3D

 24 22  0  0  0  0  0  0  0  0999 V2000
   -1.2440    1.8186   -4.0853 C   0  0  0  0  0  0  0  0  0  0  0  0
   -1.2440    1.8186   -2.6281 C   0  0  0  0  0  3  0  0  0  0  0  0
   -1.2440    1.8186   -1.4296 C   0  0  0  0  0  0  0  0  0  0  0  0
   -1.2440    1.8186    0.0277 C   0  0  0  0  0  0  0  0  0  0  0  0
   -2.2371    2.0493   -4.4747 H   0  0  0  0  0  0  0  0  0  0  0  0
   -0.9473    0.8432   -4.4747 H   0  0  0  0  0  0  0  0  0  0  0  0
   -0.5477    2.5633   -4.4747 H   0  0  0  0  0  0  0  0  0  0  0  0
   -2.2370    2.0494    0.4170 H   0  0  0  0  0  0  0  0  0  0  0  0
   -0.5476    2.5632    0.4170 H   0  0  0  0  0  0  0  0  0  0  0  0
   -0.8881    0.6481    0.4949 H   0  0  0  0  0  0  0  0  0  0  0  0
    2.0090   -0.9953    2.9572 C   0  0  0  0  0  0  0  0  0  0  0  0
    1.9412   -1.7034    1.6142 C   0  0  0  0  0  0  0  0  0  0  0  0
    1.1332   -0.7640    0.2941 S   0  0  0  0  0  0  0  0  0  0  0  0
   -0.5322   -0.5223    0.9620 C   0  0  0  0  0  0  0  0  0  0  0  0
   -1.3018   -1.8016    1.2463 C   0  0  0  0  0  0  0  0  0  0  0  0
    1.0142   -0.8432    3.3792 H   0  0  0  0  0  0  0  0  0  0  0  0
    2.5802   -1.5922    3.6716 H   0  0  0  0  0  0  0  0  0  0  0  0
    2.4877   -0.0203    2.8596 H   0  0  0  0  0  0  0  0  0  0  0  0
    1.4621   -2.6790    1.7115 H   0  0  0  0  0  0  0  0  0  0  0  0
    2.9455   -1.8836    1.2271 H   0  0  0  0  0  0  0  0  0  0  0  0
   -0.4789    0.1068    1.8521 H   0  0  0  0  0  0  0  0  0  0  0  0
   -0.8325   -2.3814    2.0429 H   0  0  0  0  0  0  0  0  0  0  0  0
   -2.3194   -1.5680    1.5671 H   0  0  0  0  0  0  0  0  0  0  0  0
   -1.3547   -2.4301    0.3567 H   0  0  0  0  0  0  0  0  0  0  0  0
  1  2  1  0
  1  5  1  0
  1  6  1  0
  1  7  1  0
  2  3  2  0
  3  4  2  0
  4  8  1  0
  4  9  1  0
 10 14  1  0
 11 12  1  0
 11 16  1  0
 11 17  1  0
 11 18  1  0
 12 13  1  0
 12 19  1  0
 12 20  1  0
 13 14  1  0
 14 15  1  0
 14 21  1  0
 15 22  1  0
 15 23  1  0
 15 24  1  0
M  RAD  1   2   2
M  END
>  <reaction>  (14) 
rmg_rxn_58

>  <mol_properties>  (14) 
{"2": {"label": "*4", "atom_type": "Cdd"}, "3": {"label": "*3", "atom_type": "Cd"}, "9": {"label": "*2", "atom_type": "H0"}, "12": {"label": "*0", "atom_type": "S2s"}, "13": {"label": "*1", "atom_type": "Cs"}}

>  <type>  (14) 
unop_10

>  <geom_source>  (14) 
Heuristics

$$$$

     RDKit          3D

 24 22  0  0  0  0  0  0  0  0999 V2000
   -0.4483    1.8505   -4.7213 C   0  0  0  0  0  0  0  0  0  0  0  0
   -0.4483    1.8505   -3.2640 C   0  0  0  0  0  3  0  0  0  0  0  0
   -0.4483    1.8505   -2.0655 C   0  0  0  0  0  0  0  0  0  0  0  0
   -0.4483    1.8505   -0.6082 C   0  0  0  0  0  0  0  0  0  0  0  0
   -1.4413    2.0812   -5.1106 H   0  0  0  0  0  0  0  0  0  0  0  0
   -0.1515    0.8752   -5.1106 H   0  0  0  0  0  0  0  0  0  0  0  0
    0.2481    2.5952   -5.1106 H   0  0  0  0  0  0  0  0  0  0  0  0
   -1.4413    2.0814   -0.2189 H   0  0  0  0  0  0  0  0  0  0  0  0
    0.2482    2.5951   -0.2189 H   0  0  0  0  0  0  0  0  0  0  0  0
   -0.0923    0.6800   -0.1410 H   0  0  0  0  0  0  0  0  0  0  0  0
    0.5207   -3.1680    2.1771 C   0  0  0  0  0  0  0  0  0  0  0  0
    0.3977   -1.7961    2.8191 C   0  0  0  0  0  0  0  0  0  0  0  0
   -0.6189   -0.6110    1.9025 S   0  0  0  0  0  0  0  0  0  0  0  0
    0.2636   -0.4904    0.3261 C   0  0  0  0  0  0  0  0  0  0  0  0
    1.6948    0.0102    0.4282 C   0  0  0  0  0  0  0  0  0  0  0  0
    1.0537   -3.1176    1.2261 H   0  0  0  0  0  0  0  0  0  0  0  0
    1.0786   -3.8430    2.8299 H   0  0  0  0  0  0  0  0  0  0  0  0
   -0.4630   -3.6005    1.9910 H   0  0  0  0  0  0  0  0  0  0  0  0
    1.3818   -1.3629    3.0054 H   0  0  0  0  0  0  0  0  0  0  0  0
   -0.1008   -1.8714    3.7870 H   0  0  0  0  0  0  0  0  0  0  0  0
    0.2225   -1.4522   -0.1877 H   0  0  0  0  0  0  0  0  0  0  0  0
    2.3258   -0.6927    0.9748 H   0  0  0  0  0  0  0  0  0  0  0  0
    2.1258    0.1309   -0.5681 H   0  0  0  0  0  0  0  0  0  0  0  0
    1.7355    0.9714    0.9419 H   0  0  0  0  0  0  0  0  0  0  0  0
  1  2  1  0
  1  5  1  0
  1  6  1  0
  1  7  1  0
  2  3  2  0
  3  4  2  0
  4  8  1  0
  4  9  1  0
 10 14  1  0
 11 12  1  0
 11 16  1  0
 11 17  1  0
 11 18  1  0
 12 13  1  0
 12 19  1  0
 12 20  1  0
 13 14  1  0
 14 15  1  0
 14 21  1  0
 15 22  1  0
 15 23  1  0
 15 24  1  0
M  RAD  1   2   2
M  END
>  <reaction>  (15) 
rmg_rxn_58

>  <mol_properties>  (15) 
{"2": {"label": "*4", "atom_type": "Cdd"}, "3": {"label": "*3", "atom_type": "Cd"}, "9": {"label": "*2", "atom_type": "H0"}, "12": {"label": "*0", "atom_type": "S2s"}, "13": {"label": "*1", "atom_type": "Cs"}}

>  <type>  (15) 
unop_11

>  <geom_source>  (15) 
Heuristics

$$$$

     RDKit          3D

 24 22  0  0  0  0  0  0  0  0999 V2000
   -0.6994    2.2617   -3.6223 C   0  0  0  0  0  0  0  0  0  0  0  0
   -0.6994    2.2617   -2.1651 C   0  0  0  0  0  3  0  0  0  0  0  0
   -0.6994    2.2617   -0.9666 C   0  0  0  0  0  0  0  0  0  0  0  0
   -0.6994    2.2617    0.4907 C   0  0  0  0  0  0  0  0  0  0  0  0
   -1.6925    2.4924   -4.0117 H   0  0  0  0  0  0  0  0  0  0  0  0
   -0.4026    1.2863   -4.0117 H   0  0  0  0  0  0  0  0  0  0  0  0
   -0.0030    3.0064   -4.0117 H   0  0  0  0  0  0  0  0  0  0  0  0
   -1.6924    2.4925    0.8800 H   0  0  0  0  0  0  0  0  0  0  0  0
   -0.0029    3.0063    0.8800 H   0  0  0  0  0  0  0  0  0  0  0  0
   -0.3435    1.0912    0.9579 H   0  0  0  0  0  0  0  0  0  0  0  0
    2.0886   -2.5988    1.4851 C   0  0  0  0  0  0  0  0  0  0  0  0
    0.8349   -2.6533    0.6278 C   0  0  0  0  0  0  0  0  0  0  0  0
    0.3119   -1.0641   -0.0644 S   0  0  0  0  0  0  0  0  0  0  0  0
    0.0124   -0.0792    1.4251 C   0  0  0  0  0  0  0  0  0  0  0  0
   -1.0582   -0.6284    2.3533 C   0  0  0  0  0  0  0  0  0  0  0  0
    1.9277   -2.0120    2.3911 H   0  0  0  0  0  0  0  0  0  0  0  0
    2.3801   -3.6050    1.7941 H   0  0  0  0  0  0  0  0  0  0  0  0
    2.9173   -2.1515    0.9352 H   0  0  0  0  0  0  0  0  0  0  0  0
    0.0054   -3.1007    1.1778 H   0  0  0  0  0  0  0  0  0  0  0  0
    1.0015   -3.2772   -0.2519 H   0  0  0  0  0  0  0  0  0  0  0  0
    0.9530    0.0680    1.9584 H   0  0  0  0  0  0  0  0  0  0  0  0
   -0.7603   -1.5856    2.7846 H   0  0  0  0  0  0  0  0  0  0  0  0
   -1.2334    0.0632    3.1804 H   0  0  0  0  0  0  0  0  0  0  0  0
   -1.9980   -0.7755    1.8199 H   0  0  0  0  0  0  0  0  0  0  0  0
  1  2  1  0
  1  5  1  0
  1  6  1  0
  1  7  1  0
  2  3  2  0
  3  4  2  0
  4  8  1  0
  4  9  1  0
 10 14  1  0
 11 12  1  0
 11 16  1  0
 11 17  1  0
 11 18  1  0
 12 13  1  0
 12 19  1  0
 12 20  1  0
 13 14  1  0
 14 15  1  0
 14 21  1  0
 15 22  1  0
 15 23  1  0
 15 24  1  0
M  RAD  1   2   2
M  END
>  <reaction>  (16) 
rmg_rxn_58

>  <mol_properties>  (16) 
{"2": {"label": "*4", "atom_type": "Cdd"}, "3": {"label": "*3", "atom_type": "Cd"}, "9": {"label": "*2", "atom_type": "H0"}, "12": {"label": "*0", "atom_type": "S2s"}, "13": {"label": "*1", "atom_type": "Cs"}}

>  <type>  (16) 
unop_12

>  <geom_source>  (16) 
Heuristics

$$$$

     RDKit          3D

 24 22  0  0  0  0  0  0  0  0999 V2000
   -0.9468    0.5134   -0.2986 S   0  0  0  0  0  0  0  0  0  0  0  0
   -0.7642   -1.1572    0.4208 C   0  0  0  0  0  3  0  0  0  0  0  0
   -2.7610    0.4405   -0.4959 C   0  0  0  0  0  0  0  0  0  0  0  0
   -0.9355   -1.1161    1.9325 C   0  0  0  0  0  0  0  0  0  0  0  0
   -3.2707    1.7503   -1.0774 C   0  0  0  0  0  0  0  0  0  0  0  0
    4.3638    1.3767    0.0187 C   0  0  0  0  0  0  0  0  0  0  0  0
    1.5950   -1.6183   -0.6395 C   0  0  0  0  0  0  0  0  0  0  0  0
    3.3833    0.3162   -0.2144 C   0  0  0  0  0  0  0  0  0  0  0  0
    2.5754   -0.5578   -0.4065 C   0  0  0  0  0  0  0  0  0  0  0  0
   -1.4887   -1.8697   -0.0277 H   0  0  0  0  0  0  0  0  0  0  0  0
    0.5142   -1.6131    0.1368 H   0  0  0  0  0  0  0  0  0  0  0  0
   -3.2442    0.2689    0.4884 H   0  0  0  0  0  0  0  0  0  0  0  0
   -3.0288   -0.3904   -1.1827 H   0  0  0  0  0  0  0  0  0  0  0  0
   -0.7622   -2.1297    2.3502 H   0  0  0  0  0  0  0  0  0  0  0  0
   -0.1983   -0.4162    2.3790 H   0  0  0  0  0  0  0  0  0  0  0  0
   -1.9614   -0.7910    2.2019 H   0  0  0  0  0  0  0  0  0  0  0  0
   -4.3735    1.7011   -1.1979 H   0  0  0  0  0  0  0  0  0  0  0  0
   -3.0223    2.5928   -0.3975 H   0  0  0  0  0  0  0  0  0  0  0  0
   -2.8099    1.9326   -2.0714 H   0  0  0  0  0  0  0  0  0  0  0  0
    4.1158    2.2550   -0.6122 H   0  0  0  0  0  0  0  0  0  0  0  0
    4.3425    1.6719    1.0879 H   0  0  0  0  0  0  0  0  0  0  0  0
    5.3769    1.0080   -0.2429 H   0  0  0  0  0  0  0  0  0  0  0  0
    2.0696   -2.6058   -0.4655 H   0  0  0  0  0  0  0  0  0  0  0  0
    1.2310   -1.5623   -1.6861 H   0  0  0  0  0  0  0  0  0  0  0  0
  1  2  1  0
  1  3  1  0
  2  4  1  0
  2 10  1  0
  3  5  1  0
  3 12  1  0
  3 13  1  0
  4 14  1  0
  4 15  1  0
  4 16  1  0
  5 17  1  0
  5 18  1  0
  5 19  1  0
  6  8  1  0
  6 20  1  0
  6 21  1  0
  6 22  1  0
  7  9  1  0
  7 11  1  0
  7 23  1  0
  7 24  1  0
  8  9  3  0
M  RAD  1   2   2
M  END
>  <reaction>  (17) 
rmg_rxn_58

>  <mol_properties>  (17) 
{"2": {"label": "*4", "atom_type": "Cdd"}, "3": {"label": "*3", "atom_type": "Cd"}, "9": {"label": "*2", "atom_type": "H0"}, "12": {"label": "*0", "atom_type": "S2s"}, "13": {"label": "*1", "atom_type": "Cs"}}

>  <type>  (17) 
unop_13

>  <geom_source>  (17) 
AutoTST

$$$$

     RDKit          3D

 24 22  0  0  0  0  0  0  0  0999 V2000
   -1.0918    2.0529   -3.7613 C   0  0  0  0  0  0  0  0  0  0  0  0
   -1.0918    2.0529   -2.3041 C   0  0  0  0  0  3  0  0  0  0  0  0
   -1.0918    2.0529   -1.1056 C   0  0  0  0  0  0  0  0  0  0  0  0
   -1.0918    2.0529    0.3517 C   0  0  0  0  0  0  0  0  0  0  0  0
   -2.0849    2.2836   -4.1506 H   0  0  0  0  0  0  0  0  0  0  0  0
   -0.7951    1.0775   -4.1506 H   0  0  0  0  0  0  0  0  0  0  0  0
   -0.3955    2.7976   -4.1506 H   0  0  0  0  0  0  0  0  0  0  0  0
   -2.0849    2.2837    0.7410 H   0  0  0  0  0  0  0  0  0  0  0  0
   -0.3954    2.7975    0.7410 H   0  0  0  0  0  0  0  0  0  0  0  0
   -0.7359    0.8824    0.8189 H   0  0  0  0  0  0  0  0  0  0  0  0
    2.4494   -1.6903    2.1167 C   0  0  0  0  0  0  0  0  0  0  0  0
    1.6546   -2.2037    0.9275 C   0  0  0  0  0  0  0  0  0  0  0  0
    0.7363   -0.9367    0.0167 S   0  0  0  0  0  0  0  0  0  0  0  0
   -0.3800   -0.2880    1.2861 C   0  0  0  0  0  0  0  0  0  0  0  0
   -1.3370   -1.3076    1.8813 C   0  0  0  0  0  0  0  0  0  0  0  0
    1.7938   -1.2978    2.8959 H   0  0  0  0  0  0  0  0  0  0  0  0
    3.0353   -2.4994    2.5584 H   0  0  0  0  0  0  0  0  0  0  0  0
    3.1308   -0.8940    1.8152 H   0  0  0  0  0  0  0  0  0  0  0  0
    0.9726   -3.0005    1.2289 H   0  0  0  0  0  0  0  0  0  0  0  0
    2.3230   -2.6293    0.1772 H   0  0  0  0  0  0  0  0  0  0  0  0
    0.2036    0.2016    2.0673 H   0  0  0  0  0  0  0  0  0  0  0  0
   -0.8027   -2.0791    2.4384 H   0  0  0  0  0  0  0  0  0  0  0  0
   -2.0260   -0.8205    2.5748 H   0  0  0  0  0  0  0  0  0  0  0  0
   -1.9199   -1.7969    1.1001 H   0  0  0  0  0  0  0  0  0  0  0  0
  1  2  1  0
  1  5  1  0
  1  6  1  0
  1  7  1  0
  2  3  2  0
  3  4  2  0
  4  8  1  0
  4  9  1  0
 10 14  1  0
 11 12  1  0
 11 16  1  0
 11 17  1  0
 11 18  1  0
 12 13  1  0
 12 19  1  0
 12 20  1  0
 13 14  1  0
 14 15  1  0
 14 21  1  0
 15 22  1  0
 15 23  1  0
 15 24  1  0
M  RAD  1   2   2
M  END
>  <reaction>  (18) 
rmg_rxn_58

>  <mol_properties>  (18) 
{"2": {"label": "*4", "atom_type": "Cdd"}, "3": {"label": "*3", "atom_type": "Cd"}, "9": {"label": "*2", "atom_type": "H0"}, "12": {"label": "*0", "atom_type": "S2s"}, "13": {"label": "*1", "atom_type": "Cs"}}

>  <type>  (18) 
unop_14

>  <geom_source>  (18) 
gaussian_log

$$$$
