
     RDKit          3D

  9  8  0  0  0  0  0  0  0  0999 V2000
   -1.0314    0.2323   -0.1227 C   0  0  0  0  0  0  0  0  0  0  0  0
    0.3094   -0.4511    0.0063 C   0  0  0  0  0  0  0  0  0  0  0  0
    0.3197   -1.7698    0.6841 N   0  0  0  0  0  0  0  0  0  0  0  0
   -0.7498   -2.1455    1.0557 O   0  0  0  0  0  0  0  0  0  0  0  0
   -1.4744    0.4198    0.8552 H   0  0  0  0  0  0  0  0  0  0  0  0
   -0.9073    1.1865   -0.6350 H   0  0  0  0  0  0  0  0  0  0  0  0
   -1.7319   -0.3778   -0.6927 H   0  0  0  0  0  0  0  0  0  0  0  0
    1.0375    0.1401    0.5713 H   0  0  0  0  0  0  0  0  0  0  0  0
    0.7826   -0.6494   -0.9609 H   0  0  0  0  0  0  0  0  0  0  0  0
  1  2  1  0
  1  5  1  0
  1  6  1  0
  1  7  1  0
  2  3  1  0
  2  8  1  0
  2  9  1  0
  3  4  2  0
M  END
>  <reaction>  (1) 
rmg_rxn_233

>  <mol_properties>  (1) 
{"1": {"label": "donator", "atom_type": "Cs"}, "7": {"label": "d_hydrogen", "atom_type": "H0"}}

>  <type>  (1) 
r1h

$$$$

     RDKit          3D

 17 16  0  0  0  0  0  0  0  0999 V2000
    2.3128   -0.1525    1.1777 C   0  0  0  0  0  3  0  0  0  0  0  0
    1.7469    0.7266    0.1254 C   0  0  0  0  0  0  0  0  0  0  0  0
    1.6374    2.1830    0.5408 C   0  0  0  0  0  0  0  0  0  0  0  0
    2.9245    2.6874    0.7877 O   0  0  0  0  0  0  0  0  0  0  0  0
    2.9227    4.0197    1.2361 C   0  0  0  0  0  0  0  0  0  0  0  0
    4.3491    4.4603    1.4693 C   0  0  0  0  0  0  0  0  0  0  0  0
    2.1393   -1.2196    1.1557 H   0  0  0  0  0  0  0  0  0  0  0  0
    3.0313    0.2400    1.8838 H   0  0  0  0  0  0  0  0  0  0  0  0
    0.7555    0.3746   -0.1764 H   0  0  0  0  0  0  0  0  0  0  0  0
    2.3678    0.6841   -0.7826 H   0  0  0  0  0  0  0  0  0  0  0  0
    1.0170    2.2718    1.4449 H   0  0  0  0  0  0  0  0  0  0  0  0
    1.1499    2.7653   -0.2546 H   0  0  0  0  0  0  0  0  0  0  0  0
    2.4379    4.6655    0.4891 H   0  0  0  0  0  0  0  0  0  0  0  0
    2.3377    4.1015    2.1638 H   0  0  0  0  0  0  0  0  0  0  0  0
    4.9261    4.3920    0.5465 H   0  0  0  0  0  0  0  0  0  0  0  0
    4.3728    5.4939    1.8180 H   0  0  0  0  0  0  0  0  0  0  0  0
    4.8260    3.8299    2.2206 H   0  0  0  0  0  0  0  0  0  0  0  0
  1  2  1  0
  1  7  1  0
  1  8  1  0
  2  3  1  0
  2  9  1  0
  2 10  1  0
  3  4  1  0
  3 11  1  0
  3 12  1  0
  4  5  1  0
  5  6  1  0
  5 13  1  0
  5 14  1  0
  6 15  1  0
  6 16  1  0
  6 17  1  0
M  RAD  1   1   2
M  END
>  <reaction>  (2) 
rmg_rxn_233

>  <mol_properties>  (2) 
{"0": {"label": "acceptor", "atom_type": "Cs"}}

>  <type>  (2) 
r2

$$$$

     RDKit          3D

 18 17  0  0  0  0  0  0  0  0999 V2000
    2.2026   -0.7213   -0.2612 C   0  0  0  0  0  0  0  0  0  0  0  0
    1.5384    0.2638    0.6915 C   0  0  0  0  0  0  0  0  0  0  0  0
    2.2584    1.5946    0.7694 C   0  0  0  0  0  0  0  0  0  0  0  0
    2.2212    2.2185   -0.4893 O   0  0  0  0  0  0  0  0  0  0  0  0
    2.8988    3.4488   -0.5204 C   0  0  0  0  0  0  0  0  0  0  0  0
    2.7981    4.0296   -1.9118 C   0  0  0  0  0  0  0  0  0  0  0  0
    3.2294   -0.9309    0.0486 H   0  0  0  0  0  0  0  0  0  0  0  0
    2.2338   -0.3181   -1.2734 H   0  0  0  0  0  0  0  0  0  0  0  0
    1.6610   -1.6680   -0.2875 H   0  0  0  0  0  0  0  0  0  0  0  0
    1.4990   -0.1566    1.7002 H   0  0  0  0  0  0  0  0  0  0  0  0
    0.5055    0.4455    0.3835 H   0  0  0  0  0  0  0  0  0  0  0  0
    3.3038    1.4410    1.0808 H   0  0  0  0  0  0  0  0  0  0  0  0
    1.7844    2.2410    1.5226 H   0  0  0  0  0  0  0  0  0  0  0  0
    2.4596    4.1376    0.2164 H   0  0  0  0  0  0  0  0  0  0  0  0
    3.9524    3.3035   -0.2397 H   0  0  0  0  0  0  0  0  0  0  0  0
    1.7543    4.1869   -2.1856 H   0  0  0  0  0  0  0  0  0  0  0  0
    3.2472    3.3545   -2.6411 H   0  0  0  0  0  0  0  0  0  0  0  0
    3.3178    4.9878   -1.9600 H   0  0  0  0  0  0  0  0  0  0  0  0
  1  2  1  0
  1  7  1  0
  1  8  1  0
  1  9  1  0
  2  3  1  0
  2 10  1  0
  2 11  1  0
  3  4  1  0
  3 12  1  0
  3 13  1  0
  4  5  1  0
  5  6  1  0
  5 14  1  0
  5 15  1  0
  6 16  1  0
  6 17  1  0
  6 18  1  0
M  END
>  <reaction>  (3) 
rmg_rxn_233

>  <mol_properties>  (3) 
{"0": {"label": "a_hydrogen", "atom_type": "H0"}, "1": {"label": "acceptor", "atom_type": "Cs"}}

>  <type>  (3) 
r2h

$$$$

     RDKit          3D

 26 24  0  0  0  0  0  0  0  0999 V2000
   -2.8074    0.7982   -1.5525 C   0  0  0  0  0  0  0  0  0  0  0  0
   -2.0374    1.8316   -0.7724 C   0  0  0  0  0  0  0  0  0  0  0  0
   -1.1673    2.7200   -1.4806 N   0  0  0  0  0  0  0  0  0  0  0  0
   -0.8340    2.3355   -2.5798 O   0  0  0  0  0  0  0  0  0  0  0  0
   -2.1350    0.1623   -2.1269 H   0  0  0  0  0  0  0  0  0  0  0  0
   -3.3855    0.1758   -0.8694 H   0  0  0  0  0  0  0  0  0  0  0  0
   -3.4955    1.2737   -2.2540 H   0  0  0  0  0  0  0  0  0  0  0  0
   -1.2424    1.2179   -0.0459 H   0  0  0  0  0  0  0  0  0  0  0  0
   -2.6114    2.4110   -0.0501 H   0  0  0  0  0  0  0  0  0  0  0  0
   -0.3215    0.3054    0.6871 C   0  0  0  0  0  3  0  0  0  0  0  0
    0.9215    0.3431   -0.1466 C   0  0  0  0  0  0  0  0  0  0  0  0
    2.0514   -0.4823    0.4539 C   0  0  0  0  0  0  0  0  0  0  0  0
    1.6502   -1.8252    0.5210 O   0  0  0  0  0  0  0  0  0  0  0  0
    2.6343   -2.6730    1.0614 C   0  0  0  0  0  0  0  0  0  0  0  0
    2.1026   -4.0869    1.0863 C   0  0  0  0  0  0  0  0  0  0  0  0
   -0.8875   -0.6202    0.6846 H   0  0  0  0  0  0  0  0  0  0  0  0
   -0.2795    0.7999    1.6545 H   0  0  0  0  0  0  0  0  0  0  0  0
    1.2738    1.3723   -0.2532 H   0  0  0  0  0  0  0  0  0  0  0  0
    0.7137   -0.0318   -1.1511 H   0  0  0  0  0  0  0  0  0  0  0  0
    2.3019   -0.1094    1.4586 H   0  0  0  0  0  0  0  0  0  0  0  0
    2.9516   -0.3829   -0.1694 H   0  0  0  0  0  0  0  0  0  0  0  0
    3.5498   -2.6163    0.4549 H   0  0  0  0  0  0  0  0  0  0  0  0
    2.8961   -2.3417    2.0768 H   0  0  0  0  0  0  0  0  0  0  0  0
    1.8548   -4.4199    0.0779 H   0  0  0  0  0  0  0  0  0  0  0  0
    2.8508   -4.7639    1.5011 H   0  0  0  0  0  0  0  0  0  0  0  0
    1.2031   -4.1467    1.7000 H   0  0  0  0  0  0  0  0  0  0  0  0
  1  2  1  0
  1  5  1  0
  1  6  1  0
  1  7  1  0
  2  3  1  0
  2  8  1  0
  2  9  1  0
  3  4  2  0
 10 11  1  0
 10 16  1  0
 10 17  1  0
 11 12  1  0
 11 18  1  0
 11 19  1  0
 12 13  1  0
 12 20  1  0
 12 21  1  0
 13 14  1  0
 14 15  1  0
 14 22  1  0
 14 23  1  0
 15 24  1  0
 15 25  1  0
 15 26  1  0
M  RAD  1  10   2
M  END
>  <reaction>  (4) 
rmg_rxn_233

>  <mol_properties>  (4) 
{"1": {"label": "*1", "atom_type": "Cs"}, "2": {"label": "*0", "atom_type": "N3d"}, "7": {"label": "*2", "atom_type": "H0"}, "9": {"label": "*3", "atom_type": "Cs"}, "10": {"label": "*4", "atom_type": "Cs"}}

>  <type>  (4) 
ts

$$$$

     RDKit          3D

 26 24  0  0  0  0  0  0  0  0999 V2000
   -2.3328    0.7162   -3.0461 C   0  0  0  0  0  0  0  0  0  0  0  0
   -2.3328    0.7162   -1.5356 C   0  0  0  0  0  0  0  0  0  0  0  0
   -2.3328    2.0421   -0.8720 N   0  0  0  0  0  0  0  0  0  0  0  0
   -2.3328    2.9717   -1.6197 O   0  0  0  0  0  1  0  0  0  0  0  0
   -1.4527    1.2235   -3.4406 H   0  0  0  0  0  0  0  0  0  0  0  0
   -2.3328   -0.3110   -3.4114 H   0  0  0  0  0  0  0  0  0  0  0  0
   -3.2129    1.2235   -3.4406 H   0  0  0  0  0  0  0  0  0  0  0  0
   -1.2874    0.1074   -1.0230 H   0  0  0  0  0  0  0  0  0  0  0  0
   -3.2040    0.2088   -1.1084 H   0  0  0  0  0  0  0  0  0  0  0  0
   -0.2457   -0.4992   -0.5123 C   0  0  0  0  0  0  0  0  0  0  0  0
    0.5701    0.4496    0.3557 C   0  0  0  0  0  0  0  0  0  0  0  0
    1.0909   -0.2001    1.6214 C   0  0  0  0  0  0  0  0  0  0  0  0
    1.9742   -1.2392    1.2820 O   0  0  0  0  0  0  0  0  0  0  0  0
    2.4816   -1.9247    2.3983 C   0  0  0  0  0  0  0  0  0  0  0  0
    3.4137   -3.0149    1.9229 C   0  0  0  0  0  0  0  0  0  0  0  0
    0.3556   -1.3548   -0.8196 H   0  0  0  0  0  0  0  0  0  0  0  0
   -1.1137   -0.8775    0.0335 H   0  0  0  0  0  0  0  0  0  0  0  0
   -0.0378    1.3110    0.6457 H   0  0  0  0  0  0  0  0  0  0  0  0
    1.4207    0.8383   -0.2102 H   0  0  0  0  0  0  0  0  0  0  0  0
    0.2525   -0.5995    2.2137 H   0  0  0  0  0  0  0  0  0  0  0  0
    1.6081    0.5427    2.2463 H   0  0  0  0  0  0  0  0  0  0  0  0
    3.0143   -1.2243    3.0585 H   0  0  0  0  0  0  0  0  0  0  0  0
    1.6541   -2.3539    2.9823 H   0  0  0  0  0  0  0  0  0  0  0  0
    4.2420   -2.5890    1.3555 H   0  0  0  0  0  0  0  0  0  0  0  0
    3.8214   -3.5618    2.7745 H   0  0  0  0  0  0  0  0  0  0  0  0
    2.8828   -3.7186    1.2808 H   0  0  0  0  0  0  0  0  0  0  0  0
  1  2  1  0
  1  5  1  0
  1  6  1  0
  1  7  1  0
  2  3  2  3
  2  9  1  0
  3  4  1  0
  8 10  1  0
 10 11  1  0
 10 16  1  0
 10 17  1  0
 11 12  1  0
 11 18  1  0
 11 19  1  0
 12 13  1  0
 12 20  1  0
 12 21  1  0
 13 14  1  0
 14 15  1  0
 14 22  1  0
 14 23  1  0
 15 24  1  0
 15 25  1  0
 15 26  1  0
M  RAD  1   4   2
M  END
>  <reaction>  (5) 
rmg_rxn_233

>  <mol_properties>  (5) 
{"1": {"label": "*1", "atom_type": "Cs"}, "2": {"label": "*0", "atom_type": "N3d"}, "7": {"label": "*2", "atom_type": "H0"}, "9": {"label": "*3", "atom_type": "Cs"}, "10": {"label": "*4", "atom_type": "Cs"}}

>  <type>  (5) 
unop_1

>  <geom_source>  (5) 
Heuristics

$$$$

     RDKit          3D

 26 24  0  0  0  0  0  0  0  0999 V2000
   -2.6197    1.0327   -2.1717 C   0  0  0  0  0  0  0  0  0  0  0  0
   -2.6197    1.0327   -0.6612 C   0  0  0  0  0  0  0  0  0  0  0  0
   -2.6197    2.3587    0.0024 N   0  0  0  0  0  0  0  0  0  0  0  0
   -2.6197    3.2882   -0.7453 O   0  0  0  0  0  1  0  0  0  0  0  0
   -1.7396    1.5401   -2.5662 H   0  0  0  0  0  0  0  0  0  0  0  0
   -2.6197    0.0056   -2.5370 H   0  0  0  0  0  0  0  0  0  0  0  0
   -3.4999    1.5401   -2.5662 H   0  0  0  0  0  0  0  0  0  0  0  0
   -1.5743    0.4239   -0.1486 H   0  0  0  0  0  0  0  0  0  0  0  0
   -3.4909    0.5254   -0.2341 H   0  0  0  0  0  0  0  0  0  0  0  0
   -0.5326   -0.1827    0.3621 C   0  0  0  0  0  0  0  0  0  0  0  0
    0.6759   -0.0643   -0.5570 C   0  0  0  0  0  0  0  0  0  0  0  0
    1.9885   -0.3426    0.1463 C   0  0  0  0  0  0  0  0  0  0  0  0
    2.0009   -1.6725    0.6003 O   0  0  0  0  0  0  0  0  0  0  0  0
    3.1716   -2.0107    1.2992 C   0  0  0  0  0  0  0  0  0  0  0  0
    3.0804   -3.4531    1.7406 C   0  0  0  0  0  0  0  0  0  0  0  0
   -0.6034   -1.1871    0.7794 H   0  0  0  0  0  0  0  0  0  0  0  0
   -0.4599    0.5223    1.1941 H   0  0  0  0  0  0  0  0  0  0  0  0
    0.7286    0.9421   -0.9815 H   0  0  0  0  0  0  0  0  0  0  0  0
    0.5781   -0.7574   -1.3966 H   0  0  0  0  0  0  0  0  0  0  0  0
    2.1144    0.3452    0.9976 H   0  0  0  0  0  0  0  0  0  0  0  0
    2.8319   -0.1723   -0.5390 H   0  0  0  0  0  0  0  0  0  0  0  0
    4.0501   -1.8609    0.6543 H   0  0  0  0  0  0  0  0  0  0  0  0
    3.2927   -1.3492    2.1697 H   0  0  0  0  0  0  0  0  0  0  0  0
    2.9743   -4.1109    0.8773 H   0  0  0  0  0  0  0  0  0  0  0  0
    3.9810   -3.7392    2.2863 H   0  0  0  0  0  0  0  0  0  0  0  0
    2.2186   -3.5995    2.3927 H   0  0  0  0  0  0  0  0  0  0  0  0
  1  2  1  0
  1  5  1  0
  1  6  1  0
  1  7  1  0
  2  3  2  3
  2  9  1  0
  3  4  1  0
  8 10  1  0
 10 11  1  0
 10 16  1  0
 10 17  1  0
 11 12  1  0
 11 18  1  0
 11 19  1  0
 12 13  1  0
 12 20  1  0
 12 21  1  0
 13 14  1  0
 14 15  1  0
 14 22  1  0
 14 23  1  0
 15 24  1  0
 15 25  1  0
 15 26  1  0
M  RAD  1   4   2
M  END
>  <reaction>  (6) 
rmg_rxn_233

>  <mol_properties>  (6) 
{"1": {"label": "*1", "atom_type": "Cs"}, "2": {"label": "*0", "atom_type": "N3d"}, "7": {"label": "*2", "atom_type": "H0"}, "9": {"label": "*3", "atom_type": "Cs"}, "10": {"label": "*4", "atom_type": "Cs"}}

>  <type>  (6) 
unop_2

>  <geom_source>  (6) 
Heuristics

$$$$

     RDKit          3D

 26 24  0  0  0  0  0  0  0  0999 V2000
   -2.3396    0.8315   -2.9908 C   0  0  0  0  0  0  0  0  0  0  0  0
   -2.3396    0.8315   -1.4803 C   0  0  0  0  0  0  0  0  0  0  0  0
   -2.3396    2.1574   -0.8167 N   0  0  0  0  0  0  0  0  0  0  0  0
   -2.3396    3.0870   -1.5644 O   0  0  0  0  0  1  0  0  0  0  0  0
   -1.4595    1.3388   -3.3853 H   0  0  0  0  0  0  0  0  0  0  0  0
   -2.3396   -0.1957   -3.3561 H   0  0  0  0  0  0  0  0  0  0  0  0
   -3.2197    1.3388   -3.3853 H   0  0  0  0  0  0  0  0  0  0  0  0
   -1.2942    0.2227   -0.9677 H   0  0  0  0  0  0  0  0  0  0  0  0
   -3.2108    0.3241   -1.0531 H   0  0  0  0  0  0  0  0  0  0  0  0
   -0.2525   -0.3839   -0.4570 C   0  0  0  0  0  0  0  0  0  0  0  0
    0.1263    0.2176    0.8899 C   0  0  0  0  0  0  0  0  0  0  0  0
    0.7862   -0.7777    1.8222 C   0  0  0  0  0  0  0  0  0  0  0  0
    1.9988   -1.2104    1.2587 O   0  0  0  0  0  0  0  0  0  0  0  0
    2.6660   -2.1668    2.0420 C   0  0  0  0  0  0  0  0  0  0  0  0
    3.9489   -2.5615    1.3477 C   0  0  0  0  0  0  0  0  0  0  0  0
    0.6298   -0.7638   -0.9720 H   0  0  0  0  0  0  0  0  0  0  0  0
   -0.9509   -1.2148   -0.3300 H   0  0  0  0  0  0  0  0  0  0  0  0
   -0.7635    0.6087    1.3909 H   0  0  0  0  0  0  0  0  0  0  0  0
    0.8056    1.0618    0.7461 H   0  0  0  0  0  0  0  0  0  0  0  0
    0.1208   -1.6399    1.9869 H   0  0  0  0  0  0  0  0  0  0  0  0
    0.9720   -0.3160    2.8031 H   0  0  0  0  0  0  0  0  0  0  0  0
    2.8799   -1.7526    3.0385 H   0  0  0  0  0  0  0  0  0  0  0  0
    2.0219   -3.0464    2.1887 H   0  0  0  0  0  0  0  0  0  0  0  0
    4.5941   -1.6925    1.2142 H   0  0  0  0  0  0  0  0  0  0  0  0
    4.4857   -3.3048    1.9392 H   0  0  0  0  0  0  0  0  0  0  0  0
    3.7369   -2.9867    0.3660 H   0  0  0  0  0  0  0  0  0  0  0  0
  1  2  1  0
  1  5  1  0
  1  6  1  0
  1  7  1  0
  2  3  2  3
  2  9  1  0
  3  4  1  0
  8 10  1  0
 10 11  1  0
 10 16  1  0
 10 17  1  0
 11 12  1  0
 11 18  1  0
 11 19  1  0
 12 13  1  0
 12 20  1  0
 12 21  1  0
 13 14  1  0
 14 15  1  0
 14 22  1  0
 14 23  1  0
 15 24  1  0
 15 25  1  0
 15 26  1  0
M  RAD  1   4   2
M  END
>  <reaction>  (7) 
rmg_rxn_233

>  <mol_properties>  (7) 
{"1": {"label": "*1", "atom_type": "Cs"}, "2": {"label": "*0", "atom_type": "N3d"}, "7": {"label": "*2", "atom_type": "H0"}, "9": {"label": "*3", "atom_type": "Cs"}, "10": {"label": "*4", "atom_type": "Cs"}}

>  <type>  (7) 
unop_3

>  <geom_source>  (7) 
Heuristics

$$$$

     RDKit          3D

 26 24  0  0  0  0  0  0  0  0999 V2000
   -1.3009    1.6132   -2.9069 C   0  0  0  0  0  0  0  0  0  0  0  0
   -1.3009    1.6132   -1.3964 C   0  0  0  0  0  0  0  0  0  0  0  0
   -1.3009    2.9391   -0.7328 N   0  0  0  0  0  0  0  0  0  0  0  0
   -1.3009    3.8687   -1.4805 O   0  0  0  0  0  1  0  0  0  0  0  0
   -0.4208    2.1206   -3.3014 H   0  0  0  0  0  0  0  0  0  0  0  0
   -1.3009    0.5860   -3.2721 H   0  0  0  0  0  0  0  0  0  0  0  0
   -2.1811    2.1206   -3.3014 H   0  0  0  0  0  0  0  0  0  0  0  0
   -0.2555    1.0044   -0.8838 H   0  0  0  0  0  0  0  0  0  0  0  0
   -2.1721    1.1059   -0.9692 H   0  0  0  0  0  0  0  0  0  0  0  0
    0.7862    0.3978   -0.3730 C   0  0  0  0  0  0  0  0  0  0  0  0
    0.8426   -1.0590   -0.8133 C   0  0  0  0  0  0  0  0  0  0  0  0
    1.4671   -1.9706    0.2231 C   0  0  0  0  0  0  0  0  0  0  0  0
    0.6746   -1.9678    1.3837 O   0  0  0  0  0  0  0  0  0  0  0  0
    1.1987   -2.7625    2.4169 C   0  0  0  0  0  0  0  0  0  0  0  0
    0.2750   -2.6877    3.6105 C   0  0  0  0  0  0  0  0  0  0  0  0
    0.1970    0.5033    0.5379 H   0  0  0  0  0  0  0  0  0  0  0  0
    1.7888    0.7829   -0.1710 H   0  0  0  0  0  0  0  0  0  0  0  0
    1.4231   -1.1511   -1.7355 H   0  0  0  0  0  0  0  0  0  0  0  0
   -0.1638   -1.4233   -1.0348 H   0  0  0  0  0  0  0  0  0  0  0  0
    2.4857   -1.6272    0.4639 H   0  0  0  0  0  0  0  0  0  0  0  0
    1.5518   -2.9941   -0.1708 H   0  0  0  0  0  0  0  0  0  0  0  0
    1.3012   -3.8030    2.0747 H   0  0  0  0  0  0  0  0  0  0  0  0
    2.2052   -2.4100    2.6869 H   0  0  0  0  0  0  0  0  0  0  0  0
   -0.7194   -3.0499    3.3474 H   0  0  0  0  0  0  0  0  0  0  0  0
    0.6622   -3.2990    4.4271 H   0  0  0  0  0  0  0  0  0  0  0  0
    0.1850   -1.6586    3.9602 H   0  0  0  0  0  0  0  0  0  0  0  0
  1  2  1  0
  1  5  1  0
  1  6  1  0
  1  7  1  0
  2  3  2  3
  2  9  1  0
  3  4  1  0
  8 10  1  0
 10 11  1  0
 10 16  1  0
 10 17  1  0
 11 12  1  0
 11 18  1  0
 11 19  1  0
 12 13  1  0
 12 20  1  0
 12 21  1  0
 13 14  1  0
 14 15  1  0
 14 22  1  0
 14 23  1  0
 15 24  1  0
 15 25  1  0
 15 26  1  0
M  RAD  1   4   2
M  END
>  <reaction>  (8) 
rmg_rxn_233

>  <mol_properties>  (8) 
{"1": {"label": "*1", "atom_type": "Cs"}, "2": {"label": "*0", "atom_type": "N3d"}, "7": {"label": "*2", "atom_type": "H0"}, "9": {"label": "*3", "atom_type": "Cs"}, "10": {"label": "*4", "atom_type": "Cs"}}

>  <type>  (8) 
unop_4

>  <geom_source>  (8) 
Heuristics

$$$$

     RDKit          3D

 26 24  0  0  0  0  0  0  0  0999 V2000
   -2.4257    0.4664   -2.9991 C   0  0  0  0  0  0  0  0  0  0  0  0
   -2.4257    0.4664   -1.4887 C   0  0  0  0  0  0  0  0  0  0  0  0
   -2.4257    1.7924   -0.8251 N   0  0  0  0  0  0  0  0  0  0  0  0
   -2.4257    2.7219   -1.5728 O   0  0  0  0  0  1  0  0  0  0  0  0
   -1.5456    0.9738   -3.3936 H   0  0  0  0  0  0  0  0  0  0  0  0
   -2.4257   -0.5607   -3.3644 H   0  0  0  0  0  0  0  0  0  0  0  0
   -3.3059    0.9738   -3.3936 H   0  0  0  0  0  0  0  0  0  0  0  0
   -1.3803   -0.1424   -0.9761 H   0  0  0  0  0  0  0  0  0  0  0  0
   -3.2969   -0.0409   -1.0615 H   0  0  0  0  0  0  0  0  0  0  0  0
   -0.3386   -0.7490   -0.4653 C   0  0  0  0  0  0  0  0  0  0  0  0
   -0.3815   -0.7240    1.0568 C   0  0  0  0  0  0  0  0  0  0  0  0
    0.8011   -1.4213    1.6974 C   0  0  0  0  0  0  0  0  0  0  0  0
    1.9836   -0.7451    1.3518 O   0  0  0  0  0  0  0  0  0  0  0  0
    3.1408   -1.3454    1.8754 C   0  0  0  0  0  0  0  0  0  0  0  0
    4.3473   -0.5436    1.4452 C   0  0  0  0  0  0  0  0  0  0  0  0
    0.5594   -0.2536   -0.8344 H   0  0  0  0  0  0  0  0  0  0  0  0
   -0.3328   -1.7763   -0.8381 H   0  0  0  0  0  0  0  0  0  0  0  0
   -1.2930   -1.2100    1.4156 H   0  0  0  0  0  0  0  0  0  0  0  0
   -0.4112    0.3085    1.4145 H   0  0  0  0  0  0  0  0  0  0  0  0
    0.8538   -2.4672    1.3554 H   0  0  0  0  0  0  0  0  0  0  0  0
    0.6859   -1.4404    2.7911 H   0  0  0  0  0  0  0  0  0  0  0  0
    3.0782   -1.3868    2.9730 H   0  0  0  0  0  0  0  0  0  0  0  0
    3.2203   -2.3822    1.5166 H   0  0  0  0  0  0  0  0  0  0  0  0
    4.2761    0.4808    1.8122 H   0  0  0  0  0  0  0  0  0  0  0  0
    5.2599   -0.9916    1.8415 H   0  0  0  0  0  0  0  0  0  0  0  0
    4.4191   -0.5151    0.3573 H   0  0  0  0  0  0  0  0  0  0  0  0
  1  2  1  0
  1  5  1  0
  1  6  1  0
  1  7  1  0
  2  3  2  3
  2  9  1  0
  3  4  1  0
  8 10  1  0
 10 11  1  0
 10 16  1  0
 10 17  1  0
 11 12  1  0
 11 18  1  0
 11 19  1  0
 12 13  1  0
 12 20  1  0
 12 21  1  0
 13 14  1  0
 14 15  1  0
 14 22  1  0
 14 23  1  0
 15 24  1  0
 15 25  1  0
 15 26  1  0
M  RAD  1   4   2
M  END
>  <reaction>  (9) 
rmg_rxn_233

>  <mol_properties>  (9) 
{"1": {"label": "*1", "atom_type": "Cs"}, "2": {"label": "*0", "atom_type": "N3d"}, "7": {"label": "*2", "atom_type": "H0"}, "9": {"label": "*3", "atom_type": "Cs"}, "10": {"label": "*4", "atom_type": "Cs"}}

>  <type>  (9) 
unop_5

>  <geom_source>  (9) 
Heuristics

$$$$

     RDKit          3D

 26 24  0  0  0  0  0  0  0  0999 V2000
   -1.2027    1.1300   -3.3487 C   0  0  0  0  0  0  0  0  0  0  0  0
   -1.2027    1.1300   -1.8382 C   0  0  0  0  0  0  0  0  0  0  0  0
   -1.2027    2.4559   -1.1746 N   0  0  0  0  0  0  0  0  0  0  0  0
   -1.2027    3.3855   -1.9223 O   0  0  0  0  0  1  0  0  0  0  0  0
   -0.3225    1.6374   -3.7432 H   0  0  0  0  0  0  0  0  0  0  0  0
   -1.2027    0.1028   -3.7140 H   0  0  0  0  0  0  0  0  0  0  0  0
   -2.0828    1.6374   -3.7432 H   0  0  0  0  0  0  0  0  0  0  0  0
   -0.1572    0.5212   -1.3256 H   0  0  0  0  0  0  0  0  0  0  0  0
   -2.0739    0.6227   -1.4111 H   0  0  0  0  0  0  0  0  0  0  0  0
    0.8845   -0.0854   -0.8149 C   0  0  0  0  0  0  0  0  0  0  0  0
    0.6056   -1.5672   -0.6010 C   0  0  0  0  0  0  0  0  0  0  0  0
    1.2008   -2.1058    0.6838 C   0  0  0  0  0  0  0  0  0  0  0  0
    0.6061   -1.4579    1.7800 O   0  0  0  0  0  0  0  0  0  0  0  0
    1.1247   -1.8710    3.0185 C   0  0  0  0  0  0  0  0  0  0  0  0
    0.4207   -1.1160    4.1220 C   0  0  0  0  0  0  0  0  0  0  0  0
    0.4686    0.5072   -0.0001 H   0  0  0  0  0  0  0  0  0  0  0  0
    1.9595    0.1069   -0.8552 H   0  0  0  0  0  0  0  0  0  0  0  0
    1.0138   -2.1505   -1.4311 H   0  0  0  0  0  0  0  0  0  0  0  0
   -0.4723   -1.7480   -0.5868 H   0  0  0  0  0  0  0  0  0  0  0  0
    2.2895   -1.9387    0.6952 H   0  0  0  0  0  0  0  0  0  0  0  0
    1.0359   -3.1910    0.7549 H   0  0  0  0  0  0  0  0  0  0  0  0
    0.9818   -2.9548    3.1424 H   0  0  0  0  0  0  0  0  0  0  0  0
    2.2078   -1.6815    3.0532 H   0  0  0  0  0  0  0  0  0  0  0  0
   -0.6514   -1.3142    4.0969 H   0  0  0  0  0  0  0  0  0  0  0  0
    0.8075   -1.4214    5.0955 H   0  0  0  0  0  0  0  0  0  0  0  0
    0.5748   -0.0423    4.0089 H   0  0  0  0  0  0  0  0  0  0  0  0
  1  2  1  0
  1  5  1  0
  1  6  1  0
  1  7  1  0
  2  3  2  3
  2  9  1  0
  3  4  1  0
  8 10  1  0
 10 11  1  0
 10 16  1  0
 10 17  1  0
 11 12  1  0
 11 18  1  0
 11 19  1  0
 12 13  1  0
 12 20  1  0
 12 21  1  0
 13 14  1  0
 14 15  1  0
 14 22  1  0
 14 23  1  0
 15 24  1  0
 15 25  1  0
 15 26  1  0
M  RAD  1   4   2
M  END
>  <reaction>  (10) 
rmg_rxn_233

>  <mol_properties>  (10) 
{"1": {"label": "*1", "atom_type": "Cs"}, "2": {"label": "*0", "atom_type": "N3d"}, "7": {"label": "*2", "atom_type": "H0"}, "9": {"label": "*3", "atom_type": "Cs"}, "10": {"label": "*4", "atom_type": "Cs"}}

>  <type>  (10) 
unop_6

>  <geom_source>  (10) 
Heuristics

$$$$

     RDKit          3D

 26 24  0  0  0  0  0  0  0  0999 V2000
   -1.4478    0.5371   -3.5330 C   0  0  0  0  0  0  0  0  0  0  0  0
   -1.4478    0.5371   -2.0225 C   0  0  0  0  0  0  0  0  0  0  0  0
   -1.4478    1.8631   -1.3589 N   0  0  0  0  0  0  0  0  0  0  0  0
   -1.4478    2.7926   -2.1066 O   0  0  0  0  0  1  0  0  0  0  0  0
   -0.5677    1.0445   -3.9275 H   0  0  0  0  0  0  0  0  0  0  0  0
   -1.4478   -0.4900   -3.8983 H   0  0  0  0  0  0  0  0  0  0  0  0
   -2.3279    1.0445   -3.9275 H   0  0  0  0  0  0  0  0  0  0  0  0
   -0.4024   -0.0717   -1.5099 H   0  0  0  0  0  0  0  0  0  0  0  0
   -2.3190    0.0298   -1.5953 H   0  0  0  0  0  0  0  0  0  0  0  0
    0.6393   -0.6783   -0.9992 C   0  0  0  0  0  0  0  0  0  0  0  0
    0.2167   -1.8561   -0.1312 C   0  0  0  0  0  0  0  0  0  0  0  0
    1.0485   -1.9972    1.1272 C   0  0  0  0  0  0  0  0  0  0  0  0
    0.8673   -0.8616    1.9350 O   0  0  0  0  0  0  0  0  0  0  0  0
    1.6319   -0.8895    3.1132 C   0  0  0  0  0  0  0  0  0  0  0  0
    1.3638    0.3711    3.9023 C   0  0  0  0  0  0  0  0  0  0  0  0
    0.5455    0.2589   -0.4505 H   0  0  0  0  0  0  0  0  0  0  0  0
    1.6809   -0.7803   -1.3141 H   0  0  0  0  0  0  0  0  0  0  0  0
    0.3005   -2.7888   -0.6959 H   0  0  0  0  0  0  0  0  0  0  0  0
   -0.8328   -1.7530    0.1562 H   0  0  0  0  0  0  0  0  0  0  0  0
    2.1132   -2.1055    0.8663 H   0  0  0  0  0  0  0  0  0  0  0  0
    0.7537   -2.9015    1.6796 H   0  0  0  0  0  0  0  0  0  0  0  0
    1.3723   -1.7778    3.7080 H   0  0  0  0  0  0  0  0  0  0  0  0
    2.7006   -0.9675    2.8646 H   0  0  0  0  0  0  0  0  0  0  0  0
    0.3069    0.4424    4.1611 H   0  0  0  0  0  0  0  0  0  0  0  0
    1.9477    0.3715    4.8240 H   0  0  0  0  0  0  0  0  0  0  0  0
    1.6355    1.2519    3.3193 H   0  0  0  0  0  0  0  0  0  0  0  0
  1  2  1  0
  1  5  1  0
  1  6  1  0
  1  7  1  0
  2  3  2  3
  2  9  1  0
  3  4  1  0
  8 10  1  0
 10 11  1  0
 10 16  1  0
 10 17  1  0
 11 12  1  0
 11 18  1  0
 11 19  1  0
 12 13  1  0
 12 20  1  0
 12 21  1  0
 13 14  1  0
 14 15  1  0
 14 22  1  0
 14 23  1  0
 15 24  1  0
 15 25  1  0
 15 26  1  0
M  RAD  1   4   2
M  END
>  <reaction>  (11) 
rmg_rxn_233

>  <mol_properties>  (11) 
{"1": {"label": "*1", "atom_type": "Cs"}, "2": {"label": "*0", "atom_type": "N3d"}, "7": {"label": "*2", "atom_type": "H0"}, "9": {"label": "*3", "atom_type": "Cs"}, "10": {"label": "*4", "atom_type": "Cs"}}

>  <type>  (11) 
unop_7

>  <geom_source>  (11) 
Heuristics

$$$$

     RDKit          3D

 26 24  0  0  0  0  0  0  0  0999 V2000
   -2.5125    0.5638   -2.8663 C   0  0  0  0  0  0  0  0  0  0  0  0
   -2.5125    0.5638   -1.3558 C   0  0  0  0  0  0  0  0  0  0  0  0
   -2.5125    1.8898   -0.6922 N   0  0  0  0  0  0  0  0  0  0  0  0
   -2.5125    2.8193   -1.4399 O   0  0  0  0  0  1  0  0  0  0  0  0
   -1.6324    1.0712   -3.2608 H   0  0  0  0  0  0  0  0  0  0  0  0
   -2.5125   -0.4633   -3.2316 H   0  0  0  0  0  0  0  0  0  0  0  0
   -3.3927    1.0712   -3.2608 H   0  0  0  0  0  0  0  0  0  0  0  0
   -1.4671   -0.0450   -0.8432 H   0  0  0  0  0  0  0  0  0  0  0  0
   -3.3837    0.0565   -0.9287 H   0  0  0  0  0  0  0  0  0  0  0  0
   -0.4254   -0.6516   -0.3325 C   0  0  0  0  0  0  0  0  0  0  0  0
    0.7257    0.3223   -0.1186 C   0  0  0  0  0  0  0  0  0  0  0  0
    1.4787    0.0798    1.1735 C   0  0  0  0  0  0  0  0  0  0  0  0
    2.0757   -1.1918    1.1330 O   0  0  0  0  0  0  0  0  0  0  0  0
    2.7694   -1.5182    2.3102 C   0  0  0  0  0  0  0  0  0  0  0  0
    3.3678   -2.8977    2.1609 C   0  0  0  0  0  0  0  0  0  0  0  0
   -0.0613   -1.6784   -0.3658 H   0  0  0  0  0  0  0  0  0  0  0  0
   -1.1528   -0.5794    0.4799 H   0  0  0  0  0  0  0  0  0  0  0  0
    0.3513    1.3496   -0.1018 H   0  0  0  0  0  0  0  0  0  0  0  0
    1.4325    0.2563   -0.9499 H   0  0  0  0  0  0  0  0  0  0  0  0
    0.7892    0.1431    2.0303 H   0  0  0  0  0  0  0  0  0  0  0  0
    2.2493    0.8516    1.3163 H   0  0  0  0  0  0  0  0  0  0  0  0
    3.5585   -0.7752    2.4989 H   0  0  0  0  0  0  0  0  0  0  0  0
    2.0837   -1.4875    3.1699 H   0  0  0  0  0  0  0  0  0  0  0  0
    4.0582   -2.9255    1.3172 H   0  0  0  0  0  0  0  0  0  0  0  0
    3.9132   -3.1732    3.0649 H   0  0  0  0  0  0  0  0  0  0  0  0
    2.5849   -3.6373    1.9892 H   0  0  0  0  0  0  0  0  0  0  0  0
  1  2  1  0
  1  5  1  0
  1  6  1  0
  1  7  1  0
  2  3  2  3
  2  9  1  0
  3  4  1  0
  8 10  1  0
 10 11  1  0
 10 16  1  0
 10 17  1  0
 11 12  1  0
 11 18  1  0
 11 19  1  0
 12 13  1  0
 12 20  1  0
 12 21  1  0
 13 14  1  0
 14 15  1  0
 14 22  1  0
 14 23  1  0
 15 24  1  0
 15 25  1  0
 15 26  1  0
M  RAD  1   4   2
M  END
>  <reaction>  (12) 
rmg_rxn_233

>  <mol_properties>  (12) 
{"1": {"label": "*1", "atom_type": "Cs"}, "2": {"label": "*0", "atom_type": "N3d"}, "7": {"label": "*2", "atom_type": "H0"}, "9": {"label": "*3", "atom_type": "Cs"}, "10": {"label": "*4", "atom_type": "Cs"}}

>  <type>  (12) 
unop_8

>  <geom_source>  (12) 
Heuristics

$$$$

     RDKit          3D

 26 24  0  0  0  0  0  0  0  0999 V2000
   -1.7090    1.7728   -2.4078 C   0  0  0  0  0  0  0  0  0  0  0  0
   -1.7090    1.7728   -0.8973 C   0  0  0  0  0  0  0  0  0  0  0  0
   -1.7090    3.0987   -0.2337 N   0  0  0  0  0  0  0  0  0  0  0  0
   -1.7090    4.0283   -0.9814 O   0  0  0  0  0  1  0  0  0  0  0  0
   -0.8289    2.2801   -2.8023 H   0  0  0  0  0  0  0  0  0  0  0  0
   -1.7090    0.7456   -2.7731 H   0  0  0  0  0  0  0  0  0  0  0  0
   -2.5892    2.2801   -2.8023 H   0  0  0  0  0  0  0  0  0  0  0  0
   -0.6636    1.1640   -0.3847 H   0  0  0  0  0  0  0  0  0  0  0  0
   -2.5802    1.2654   -0.4702 H   0  0  0  0  0  0  0  0  0  0  0  0
    0.3781    0.5574    0.1260 C   0  0  0  0  0  0  0  0  0  0  0  0
    0.8716   -0.5521   -0.7931 C   0  0  0  0  0  0  0  0  0  0  0  0
    1.7734   -1.5482   -0.0933 C   0  0  0  0  0  0  0  0  0  0  0  0
    1.0485   -2.2030    0.9170 O   0  0  0  0  0  0  0  0  0  0  0  0
    1.8187   -3.1244    1.6459 C   0  0  0  0  0  0  0  0  0  0  0  0
    0.9475   -3.7667    2.7005 C   0  0  0  0  0  0  0  0  0  0  0  0
   -0.1916    0.1443    0.9584 H   0  0  0  0  0  0  0  0  0  0  0  0
    1.2170    1.1219    0.5406 H   0  0  0  0  0  0  0  0  0  0  0  0
    1.4286   -0.1258   -1.6321 H   0  0  0  0  0  0  0  0  0  0  0  0
    0.0221   -1.0923   -1.2189 H   0  0  0  0  0  0  0  0  0  0  0  0
    2.6414   -1.0298    0.3441 H   0  0  0  0  0  0  0  0  0  0  0  0
    2.1608   -2.2835   -0.8138 H   0  0  0  0  0  0  0  0  0  0  0  0
    2.2296   -3.8883    0.9692 H   0  0  0  0  0  0  0  0  0  0  0  0
    2.6731   -2.6123    2.1126 H   0  0  0  0  0  0  0  0  0  0  0  0
    0.1078   -4.2864    2.2378 H   0  0  0  0  0  0  0  0  0  0  0  0
    1.5254   -4.4883    3.2802 H   0  0  0  0  0  0  0  0  0  0  0  0
    0.5523   -3.0119    3.3812 H   0  0  0  0  0  0  0  0  0  0  0  0
  1  2  1  0
  1  5  1  0
  1  6  1  0
  1  7  1  0
  2  3  2  3
  2  9  1  0
  3  4  1  0
  8 10  1  0
 10 11  1  0
 10 16  1  0
 10 17  1  0
 11 12  1  0
 11 18  1  0
 11 19  1  0
 12 13  1  0
 12 20  1  0
 12 21  1  0
 13 14  1  0
 14 15  1  0
 14 22  1  0
 14 23  1  0
 15 24  1  0
 15 25  1  0
 15 26  1  0
M  RAD  1   4   2
M  END
>  <reaction>  (13) 
rmg_rxn_233

>  <mol_properties>  (13) 
{"1": {"label": "*1", "atom_type": "Cs"}, "2": {"label": "*0", "atom_type": "N3d"}, "7": {"label": "*2", "atom_type": "H0"}, "9": {"label": "*3", "atom_type": "Cs"}, "10": {"label": "*4", "atom_type": "Cs"}}

>  <type>  (13) 
unop_9

>  <geom_source>  (13) 
Heuristics

$$$$

     RDKit          3D

 26 24  0  0  0  0  0  0  0  0999 V2000
   -2.6748    0.6508   -2.5065 C   0  0  0  0  0  0  0  0  0  0  0  0
   -2.6748    0.6508   -0.9961 C   0  0  0  0  0  0  0  0  0  0  0  0
   -2.6748    1.9767   -0.3325 N   0  0  0  0  0  0  0  0  0  0  0  0
   -2.6748    2.9063   -1.0802 O   0  0  0  0  0  1  0  0  0  0  0  0
   -1.7946    1.1582   -2.9010 H   0  0  0  0  0  0  0  0  0  0  0  0
   -2.6748   -0.3764   -2.8718 H   0  0  0  0  0  0  0  0  0  0  0  0
   -3.5549    1.1582   -2.9010 H   0  0  0  0  0  0  0  0  0  0  0  0
   -1.6293    0.0420   -0.4835 H   0  0  0  0  0  0  0  0  0  0  0  0
   -3.5460    0.1435   -0.5689 H   0  0  0  0  0  0  0  0  0  0  0  0
   -0.5876   -0.5646    0.0273 C   0  0  0  0  0  0  0  0  0  0  0  0
    0.7072    0.1053   -0.4130 C   0  0  0  0  0  0  0  0  0  0  0  0
    1.8036    0.0250    0.6295 C   0  0  0  0  0  0  0  0  0  0  0  0
    2.1418   -1.3216    0.8468 O   0  0  0  0  0  0  0  0  0  0  0  0
    3.1311   -1.4949    1.8291 C   0  0  0  0  0  0  0  0  0  0  0  0
    3.4168   -2.9708    1.9830 C   0  0  0  0  0  0  0  0  0  0  0  0
   -0.4241   -1.6221    0.2345 H   0  0  0  0  0  0  0  0  0  0  0  0
   -0.9767   -0.1004    0.9370 H   0  0  0  0  0  0  0  0  0  0  0  0
    0.5287    1.1616   -0.6324 H   0  0  0  0  0  0  0  0  0  0  0  0
    1.0717   -0.3528   -1.3361 H   0  0  0  0  0  0  0  0  0  0  0  0
    1.4633    0.4828    1.5718 H   0  0  0  0  0  0  0  0  0  0  0  0
    2.6893    0.5850    0.2951 H   0  0  0  0  0  0  0  0  0  0  0  0
    4.0449   -0.9545    1.5407 H   0  0  0  0  0  0  0  0  0  0  0  0
    2.7902   -1.0677    2.7837 H   0  0  0  0  0  0  0  0  0  0  0  0
    3.7680   -3.3924    1.0406 H   0  0  0  0  0  0  0  0  0  0  0  0
    4.1843   -3.1302    2.7420 H   0  0  0  0  0  0  0  0  0  0  0  0
    2.5150   -3.5052    2.2841 H   0  0  0  0  0  0  0  0  0  0  0  0
  1  2  1  0
  1  5  1  0
  1  6  1  0
  1  7  1  0
  2  3  2  3
  2  9  1  0
  3  4  1  0
  8 10  1  0
 10 11  1  0
 10 16  1  0
 10 17  1  0
 11 12  1  0
 11 18  1  0
 11 19  1  0
 12 13  1  0
 12 20  1  0
 12 21  1  0
 13 14  1  0
 14 15  1  0
 14 22  1  0
 14 23  1  0
 15 24  1  0
 15 25  1  0
 15 26  1  0
M  RAD  1   4   2
M  END
>  <reaction>  (14) 
rmg_rxn_233

>  <mol_properties>  (14) 
{"1": {"label": "*1", "atom_type": "Cs"}, "2": {"label": "*0", "atom_type": "N3d"}, "7": {"label": "*2", "atom_type": "H0"}, "9": {"label": "*3", "atom_type": "Cs"}, "10": {"label": "*4", "atom_type": "Cs"}}

>  <type>  (14) 
unop_10

>  <geom_source>  (14) 
Heuristics

$$$$

     RDKit          3D

 26 24  0  0  0  0  0  0  0  0999 V2000
   -1.9791    0.1708   -3.3576 C   0  0  0  0  0  0  0  0  0  0  0  0
   -1.9791    0.1708   -1.8471 C   0  0  0  0  0  0  0  0  0  0  0  0
   -1.9791    1.4968   -1.1835 N   0  0  0  0  0  0  0  0  0  0  0  0
   -1.9791    2.4263   -1.9312 O   0  0  0  0  0  1  0  0  0  0  0  0
   -1.0989    0.6782   -3.7521 H   0  0  0  0  0  0  0  0  0  0  0  0
   -1.9791   -0.8564   -3.7229 H   0  0  0  0  0  0  0  0  0  0  0  0
   -2.8592    0.6782   -3.7521 H   0  0  0  0  0  0  0  0  0  0  0  0
   -0.9336   -0.4380   -1.3345 H   0  0  0  0  0  0  0  0  0  0  0  0
   -2.8503   -0.3365   -1.4199 H   0  0  0  0  0  0  0  0  0  0  0  0
    0.1081   -1.0446   -0.8238 C   0  0  0  0  0  0  0  0  0  0  0  0
   -0.2281   -1.6709    0.5231 C   0  0  0  0  0  0  0  0  0  0  0  0
    0.9664   -1.7672    1.4499 C   0  0  0  0  0  0  0  0  0  0  0  0
    1.4279   -0.4743    1.7506 O   0  0  0  0  0  0  0  0  0  0  0  0
    2.5614   -0.4675    2.5805 C   0  0  0  0  0  0  0  0  0  0  0  0
    2.9721    0.9637    2.8388 C   0  0  0  0  0  0  0  0  0  0  0  0
    0.4909   -0.0324   -0.6940 H   0  0  0  0  0  0  0  0  0  0  0  0
    0.8711   -1.6280   -1.3451 H   0  0  0  0  0  0  0  0  0  0  0  0
   -0.6251   -2.6798    0.3803 H   0  0  0  0  0  0  0  0  0  0  0  0
   -1.0089   -1.0911    1.0221 H   0  0  0  0  0  0  0  0  0  0  0  0
    1.7697   -2.3501    0.9718 H   0  0  0  0  0  0  0  0  0  0  0  0
    0.6890   -2.2914    2.3762 H   0  0  0  0  0  0  0  0  0  0  0  0
    2.3360   -0.9796    3.5277 H   0  0  0  0  0  0  0  0  0  0  0  0
    3.3810   -1.0219    2.1000 H   0  0  0  0  0  0  0  0  0  0  0  0
    2.1651    1.5105    3.3278 H   0  0  0  0  0  0  0  0  0  0  0  0
    3.8521    0.9941    3.4832 H   0  0  0  0  0  0  0  0  0  0  0  0
    3.2108    1.4678    1.9017 H   0  0  0  0  0  0  0  0  0  0  0  0
  1  2  1  0
  1  5  1  0
  1  6  1  0
  1  7  1  0
  2  3  2  3
  2  9  1  0
  3  4  1  0
  8 10  1  0
 10 11  1  0
 10 16  1  0
 10 17  1  0
 11 12  1  0
 11 18  1  0
 11 19  1  0
 12 13  1  0
 12 20  1  0
 12 21  1  0
 13 14  1  0
 14 15  1  0
 14 22  1  0
 14 23  1  0
 15 24  1  0
 15 25  1  0
 15 26  1  0
M  RAD  1   4   2
M  END
>  <reaction>  (15) 
rmg_rxn_233

>  <mol_properties>  (15) 
{"1": {"label": "*1", "atom_type": "Cs"}, "2": {"label": "*0", "atom_type": "N3d"}, "7": {"label": "*2", "atom_type": "H0"}, "9": {"label": "*3", "atom_type": "Cs"}, "10": {"label": "*4", "atom_type": "Cs"}}

>  <type>  (15) 
unop_11

>  <geom_source>  (15) 
Heuristics

$$$$

     RDKit          3D

 26 24  0  0  0  0  0  0  0  0999 V2000
   -2.2484    1.5217   -2.1076 C   0  0  0  0  0  0  0  0  0  0  0  0
   -2.2484    1.5217   -0.5971 C   0  0  0  0  0  0  0  0  0  0  0  0
   -2.2484    2.8476    0.0664 N   0  0  0  0  0  0  0  0  0  0  0  0
   -2.2484    3.7772   -0.6812 O   0  0  0  0  0  1  0  0  0  0  0  0
   -1.3682    2.0290   -2.5021 H   0  0  0  0  0  0  0  0  0  0  0  0
   -2.2484    0.4945   -2.4729 H   0  0  0  0  0  0  0  0  0  0  0  0
   -3.1285    2.0290   -2.5021 H   0  0  0  0  0  0  0  0  0  0  0  0
   -1.2029    0.9129   -0.0845 H   0  0  0  0  0  0  0  0  0  0  0  0
   -3.1196    1.0143   -0.1700 H   0  0  0  0  0  0  0  0  0  0  0  0
   -0.1612    0.3063    0.4262 C   0  0  0  0  0  0  0  0  0  0  0  0
    0.7539   -0.2267   -0.6682 C   0  0  0  0  0  0  0  0  0  0  0  0
    1.9806   -0.9323   -0.1275 C   0  0  0  0  0  0  0  0  0  0  0  0
    1.5823   -2.0652    0.6026 O   0  0  0  0  0  0  0  0  0  0  0  0
    2.6580   -2.7652    1.1738 C   0  0  0  0  0  0  0  0  0  0  0  0
    2.1209   -3.9568    1.9323 C   0  0  0  0  0  0  0  0  0  0  0  0
   -0.5166   -0.5051    1.0614 H   0  0  0  0  0  0  0  0  0  0  0  0
    0.3663    1.0230    1.0606 H   0  0  0  0  0  0  0  0  0  0  0  0
    1.0923    0.5931   -1.3080 H   0  0  0  0  0  0  0  0  0  0  0  0
    0.2068   -0.9232   -1.3087 H   0  0  0  0  0  0  0  0  0  0  0  0
    2.5535   -0.2508    0.5212 H   0  0  0  0  0  0  0  0  0  0  0  0
    2.6430   -1.2319   -0.9529 H   0  0  0  0  0  0  0  0  0  0  0  0
    3.3533   -3.0923    0.3864 H   0  0  0  0  0  0  0  0  0  0  0  0
    3.2209   -2.1024    1.8476 H   0  0  0  0  0  0  0  0  0  0  0  0
    1.5745   -4.6215    1.2623 H   0  0  0  0  0  0  0  0  0  0  0  0
    2.9402   -4.5173    2.3851 H   0  0  0  0  0  0  0  0  0  0  0  0
    1.4436   -3.6327    2.7232 H   0  0  0  0  0  0  0  0  0  0  0  0
  1  2  1  0
  1  5  1  0
  1  6  1  0
  1  7  1  0
  2  3  2  3
  2  9  1  0
  3  4  1  0
  8 10  1  0
 10 11  1  0
 10 16  1  0
 10 17  1  0
 11 12  1  0
 11 18  1  0
 11 19  1  0
 12 13  1  0
 12 20  1  0
 12 21  1  0
 13 14  1  0
 14 15  1  0
 14 22  1  0
 14 23  1  0
 15 24  1  0
 15 25  1  0
 15 26  1  0
M  RAD  1   4   2
M  END
>  <reaction>  (16) 
rmg_rxn_233

>  <mol_properties>  (16) 
{"1": {"label": "*1", "atom_type": "Cs"}, "2": {"label": "*0", "atom_type": "N3d"}, "7": {"label": "*2", "atom_type": "H0"}, "9": {"label": "*3", "atom_type": "Cs"}, "10": {"label": "*4", "atom_type": "Cs"}}

>  <type>  (16) 
unop_12

>  <geom_source>  (16) 
Heuristics

$$$$

     RDKit          3D

 26 24  0  0  0  0  0  0  0  0999 V2000
    1.9495   -0.6515   -0.0984 O   0  0  0  0  0  0  0  0  0  0  0  0
   -3.5572   -0.1416    2.1674 O   0  0  0  0  0  1  0  0  0  0  0  0
   -3.9435    0.1954    1.0896 N   0  0  0  0  0  0  0  0  0  0  0  0
   -0.3508   -1.3155    0.1366 C   0  0  0  0  0  0  0  0  0  0  0  0
    1.0237   -1.6636   -0.4363 C   0  0  0  0  0  0  0  0  0  0  0  0
    3.2116   -0.9660   -0.6464 C   0  0  0  0  0  0  0  0  0  0  0  0
   -0.9276   -0.0511   -0.4951 C   0  0  0  0  0  0  0  0  0  0  0  0
    4.2040    0.1230   -0.2694 C   0  0  0  0  0  0  0  0  0  0  0  0
   -3.1473    2.4863    0.8483 C   0  0  0  0  0  0  0  0  0  0  0  0
   -3.1495    1.0766    0.2725 C   0  0  0  0  0  0  0  0  0  0  0  0
   -1.0481   -2.1598   -0.0529 H   0  0  0  0  0  0  0  0  0  0  0  0
   -0.2711   -1.1734    1.2360 H   0  0  0  0  0  0  0  0  0  0  0  0
    0.9350   -1.7751   -1.5419 H   0  0  0  0  0  0  0  0  0  0  0  0
    1.3386   -2.6386    0.0008 H   0  0  0  0  0  0  0  0  0  0  0  0
    3.1585   -1.0187   -1.7579 H   0  0  0  0  0  0  0  0  0  0  0  0
    3.5882   -1.9347   -0.2453 H   0  0  0  0  0  0  0  0  0  0  0  0
   -0.2742    0.8222   -0.2852 H   0  0  0  0  0  0  0  0  0  0  0  0
   -1.0288   -0.1792   -1.5939 H   0  0  0  0  0  0  0  0  0  0  0  0
   -2.0739    0.1758   -0.0063 H   0  0  0  0  0  0  0  0  0  0  0  0
    3.8640    1.1019   -0.6690 H   0  0  0  0  0  0  0  0  0  0  0  0
    4.2919    0.1910    0.8358 H   0  0  0  0  0  0  0  0  0  0  0  0
    5.2016   -0.1135   -0.6962 H   0  0  0  0  0  0  0  0  0  0  0  0
   -2.6970    2.4828    1.8632 H   0  0  0  0  0  0  0  0  0  0  0  0
   -4.1848    2.8793    0.9055 H   0  0  0  0  0  0  0  0  0  0  0  0
   -2.5447    3.1504    0.1943 H   0  0  0  0  0  0  0  0  0  0  0  0
   -3.5680    1.0975   -0.7558 H   0  0  0  0  0  0  0  0  0  0  0  0
  1  6  1  0
  1  5  1  0
  2  3  1  0
  3 10  2  3
  4  7  1  0
  4  5  1  0
  4 11  1  0
  4 12  1  0
  5 13  1  0
  5 14  1  0
  6  8  1  0
  6 15  1  0
  6 16  1  0
  7 17  1  0
  7 18  1  0
  7 19  1  0
  8 20  1  0
  8 21  1  0
  8 22  1  0
  9 10  1  0
  9 23  1  0
  9 24  1  0
  9 25  1  0
 10 26  1  0
M  RAD  1   2   2
M  END
>  <reaction>  (17) 
rmg_rxn_233

>  <mol_properties>  (17) 
{"1": {"label": "*1", "atom_type": "Cs"}, "2": {"label": "*0", "atom_type": "N3d"}, "7": {"label": "*2", "atom_type": "H0"}, "9": {"label": "*3", "atom_type": "Cs"}, "10": {"label": "*4", "atom_type": "Cs"}}

>  <type>  (17) 
unop_13

>  <geom_source>  (17) 
AutoTST

$$$$

     RDKit          3D

 26 24  0  0  0  0  0  0  0  0999 V2000
   -2.6197    1.0327   -2.1717 C   0  0  0  0  0  0  0  0  0  0  0  0
   -2.6197    1.0327   -0.6612 C   0  0  0  0  0  0  0  0  0  0  0  0
   -2.6197    2.3587    0.0024 N   0  0  0  0  0  0  0  0  0  0  0  0
   -2.6197    3.2882   -0.7453 O   0  0  0  0  0  1  0  0  0  0  0  0
   -1.7396    1.5401   -2.5662 H   0  0  0  0  0  0  0  0  0  0  0  0
   -2.6197    0.0056   -2.5370 H   0  0  0  0  0  0  0  0  0  0  0  0
   -3.4999    1.5401   -2.5662 H   0  0  0  0  0  0  0  0  0  0  0  0
   -1.5743    0.4239   -0.1486 H   0  0  0  0  0  0  0  0  0  0  0  0
   -3.4909    0.5254   -0.2341 H   0  0  0  0  0  0  0  0  0  0  0  0
   -0.5326   -0.1827    0.3621 C   0  0  0  0  0  0  0  0  0  0  0  0
    0.6759   -0.0643   -0.5570 C   0  0  0  0  0  0  0  0  0  0  0  0
    1.9886   -0.3426    0.1463 C   0  0  0  0  0  0  0  0  0  0  0  0
    2.0008   -1.6725    0.6003 O   0  0  0  0  0  0  0  0  0  0  0  0
    3.1716   -2.0107    1.2992 C   0  0  0  0  0  0  0  0  0  0  0  0
    3.0804   -3.4531    1.7406 C   0  0  0  0  0  0  0  0  0  0  0  0
   -0.6034   -1.1871    0.7794 H   0  0  0  0  0  0  0  0  0  0  0  0
   -0.4599    0.5223    1.1941 H   0  0  0  0  0  0  0  0  0  0  0  0
    0.7286    0.9421   -0.9815 H   0  0  0  0  0  0  0  0  0  0  0  0
    0.5781   -0.7574   -1.3966 H   0  0  0  0  0  0  0  0  0  0  0  0
    2.1144    0.3452    0.9976 H   0  0  0  0  0  0  0  0  0  0  0  0
    2.8319   -0.1723   -0.5390 H   0  0  0  0  0  0  0  0  0  0  0  0
    4.0502   -1.8609    0.6543 H   0  0  0  0  0  0  0  0  0  0  0  0
    3.2927   -1.3492    2.1697 H   0  0  0  0  0  0  0  0  0  0  0  0
    2.9743   -4.1109    0.8773 H   0  0  0  0  0  0  0  0  0  0  0  0
    3.9810   -3.7392    2.2863 H   0  0  0  0  0  0  0  0  0  0  0  0
    2.2186   -3.5995    2.3927 H   0  0  0  0  0  0  0  0  0  0  0  0
  1  2  1  0
  1  5  1  0
  1  6  1  0
  1  7  1  0
  2  3  2  3
  2  9  1  0
  3  4  1  0
  8 10  1  0
 10 11  1  0
 10 16  1  0
 10 17  1  0
 11 12  1  0
 11 18  1  0
 11 19  1  0
 12 13  1  0
 12 20  1  0
 12 21  1  0
 13 14  1  0
 14 15  1  0
 14 22  1  0
 14 23  1  0
 15 24  1  0
 15 25  1  0
 15 26  1  0
M  RAD  1   4   2
M  END
>  <reaction>  (18) 
rmg_rxn_233

>  <mol_properties>  (18) 
{"1": {"label": "*1", "atom_type": "Cs"}, "2": {"label": "*0", "atom_type": "N3d"}, "7": {"label": "*2", "atom_type": "H0"}, "9": {"label": "*3", "atom_type": "Cs"}, "10": {"label": "*4", "atom_type": "Cs"}}

>  <type>  (18) 
unop_14

>  <geom_source>  (18) 
gaussian_log

$$$$
