
     RDKit          3D

 10  9  0  0  0  0  0  0  0  0999 V2000
    1.4352    0.2660   -0.1351 C   0  0  0  0  0  3  0  0  0  0  0  0
    0.2236   -0.3243    0.4850 C   0  0  0  0  0  0  0  0  0  0  0  0
   -0.8893    0.6872    0.7364 C   0  0  0  0  0  0  0  0  0  0  0  0
    2.3577   -0.2958   -0.1940 H   0  0  0  0  0  0  0  0  0  0  0  0
    1.3935    1.2286   -0.6287 H   0  0  0  0  0  0  0  0  0  0  0  0
   -0.1633   -1.1318   -0.1556 H   0  0  0  0  0  0  0  0  0  0  0  0
    0.4945   -0.8215    1.4240 H   0  0  0  0  0  0  0  0  0  0  0  0
   -1.1991    1.1627   -0.1967 H   0  0  0  0  0  0  0  0  0  0  0  0
   -1.7660    0.2103    1.1768 H   0  0  0  0  0  0  0  0  0  0  0  0
   -0.5545    1.4732    1.4159 H   0  0  0  0  0  0  0  0  0  0  0  0
  1  2  1  0
  1  4  1  0
  1  5  1  0
  2  3  1  0
  2  6  1  0
  2  7  1  0
  3  8  1  0
  3  9  1  0
  3 10  1  0
M  RAD  1   1   2
M  END
>  <reaction>  (1) 
rmg_rxn_364

>  <mol_properties>  (1) 
{"0": {"label": "donator", "atom_type": "Cs"}, "3": {"label": "d_hydrogen", "atom_type": "H0"}}

>  <type>  (1) 
r1h

$$$$

     RDKit          3D

  8  7  0  0  0  0  0  0  0  0999 V2000
    1.3778   -0.6812    0.2772 C   0  0  0  0  0  3  0  0  0  0  0  0
    0.4890    0.2108   -0.0590 C   0  0  0  0  0  0  0  0  0  0  0  0
   -1.0010    0.0286   -0.0323 C   0  0  0  0  0  0  0  0  0  0  0  0
    2.4535   -0.7507    0.3287 H   0  0  0  0  0  0  0  0  0  0  0  0
    0.8447    1.1899   -0.3945 H   0  0  0  0  0  0  0  0  0  0  0  0
   -1.4635    0.7638    0.6301 H   0  0  0  0  0  0  0  0  0  0  0  0
   -1.2709   -0.9687    0.3117 H   0  0  0  0  0  0  0  0  0  0  0  0
   -1.4218    0.1801   -1.0289 H   0  0  0  0  0  0  0  0  0  0  0  0
  1  2  2  3
  1  4  1  0
  2  3  1  0
  2  5  1  0
  3  6  1  0
  3  7  1  0
  3  8  1  0
M  RAD  1   1   2
M  END
>  <reaction>  (2) 
rmg_rxn_364

>  <mol_properties>  (2) 
{"0": {"label": "acceptor", "atom_type": "Cd"}}

>  <type>  (2) 
r2

$$$$

     RDKit          3D

  9  8  0  0  0  0  0  0  0  0999 V2000
    1.1303   -0.2933   -0.7510 C   0  0  0  0  0  0  0  0  0  0  0  0
    0.2866    0.4560   -0.0588 C   0  0  0  0  0  0  0  0  0  0  0  0
   -0.9719   -0.0331    0.5823 C   0  0  0  0  0  0  0  0  0  0  0  0
    2.0274    0.1230   -1.1916 H   0  0  0  0  0  0  0  0  0  0  0  0
    0.9532   -1.3530   -0.9023 H   0  0  0  0  0  0  0  0  0  0  0  0
    0.5065    1.5132    0.0659 H   0  0  0  0  0  0  0  0  0  0  0  0
   -0.9526    0.1426    1.6610 H   0  0  0  0  0  0  0  0  0  0  0  0
   -1.1182   -1.1002    0.4106 H   0  0  0  0  0  0  0  0  0  0  0  0
   -1.8412    0.5010    0.1901 H   0  0  0  0  0  0  0  0  0  0  0  0
  1  2  2  3
  1  4  1  0
  1  5  1  0
  2  3  1  0
  2  6  1  0
  3  7  1  0
  3  8  1  0
  3  9  1  0
M  END
>  <reaction>  (3) 
rmg_rxn_364

>  <mol_properties>  (3) 
{"0": {"label": "acceptor", "atom_type": "Cd"}, "8": {"label": "a_hydrogen", "atom_type": "H0"}}

>  <type>  (3) 
r2h

$$$$

     RDKit          3D

 18 16  0  0  0  0  0  0  0  0999 V2000
    0.2067    0.3655    1.2005 C   0  0  0  0  0  3  0  0  0  0  0  0
   -1.0100    0.8572    1.1202 C   0  0  0  0  0  0  0  0  0  0  0  0
   -2.0008    0.9169    2.2453 C   0  0  0  0  0  0  0  0  0  0  0  0
    0.6943   -0.0709    2.0655 H   0  0  0  0  0  0  0  0  0  0  0  0
   -1.3441    1.2603    0.1655 H   0  0  0  0  0  0  0  0  0  0  0  0
   -2.2979    1.9500    2.4415 H   0  0  0  0  0  0  0  0  0  0  0  0
   -1.5891    0.4961    3.1629 H   0  0  0  0  0  0  0  0  0  0  0  0
   -2.9081    0.3646    1.9883 H   0  0  0  0  0  0  0  0  0  0  0  0
    1.5940    0.4573   -1.0533 C   0  0  0  0  0  3  0  0  0  0  0  0
    1.3173   -0.5361   -2.1138 C   0  0  0  0  0  0  0  0  0  0  0  0
    0.2799   -1.5864   -1.7254 C   0  0  0  0  0  0  0  0  0  0  0  0
    0.9595    0.3986    0.0668 H   0  0  0  0  0  0  0  0  0  0  0  0
    2.3048    1.2701   -1.1505 H   0  0  0  0  0  0  0  0  0  0  0  0
    0.9847   -0.0164   -3.0240 H   0  0  0  0  0  0  0  0  0  0  0  0
    2.2536   -1.0374   -2.3977 H   0  0  0  0  0  0  0  0  0  0  0  0
   -0.6750   -1.1188   -1.4809 H   0  0  0  0  0  0  0  0  0  0  0  0
    0.1171   -2.2930   -2.5403 H   0  0  0  0  0  0  0  0  0  0  0  0
    0.6045   -2.1467   -0.8469 H   0  0  0  0  0  0  0  0  0  0  0  0
  1  2  2  3
  1  4  1  0
  2  3  1  0
  2  5  1  0
  3  6  1  0
  3  7  1  0
  3  8  1  0
  9 10  1  0
  9 12  1  0
  9 13  1  0
 10 11  1  0
 10 14  1  0
 10 15  1  0
 11 16  1  0
 11 17  1  0
 11 18  1  0
M  RAD  2   1   2   9   2
M  END
>  <reaction>  (4) 
rmg_rxn_364

>  <mol_properties>  (4) 
{"0": {"label": "*3", "atom_type": "Cd"}, "1": {"label": "*4", "atom_type": "Cd"}, "8": {"label": "*1", "atom_type": "Cs"}, "9": {"label": "*0", "atom_type": "Cs"}, "11": {"label": "*2", "atom_type": "H0"}}

>  <type>  (4) 
ts

$$$$

     RDKit          3D

 18 16  0  0  0  0  0  0  0  0999 V2000
   -0.4742    0.2571    1.3194 C   0  0  0  0  0  3  0  0  0  0  0  0
    0.4211    0.8270    2.1106 C   0  0  0  0  0  0  0  0  0  0  0  0
    0.1251    1.8877    3.1212 C   0  0  0  0  0  0  0  0  0  0  0  0
   -1.5219    0.5363    1.3570 H   0  0  0  0  0  0  0  0  0  0  0  0
    1.4596    0.5143    2.0367 H   0  0  0  0  0  0  0  0  0  0  0  0
    0.4104    1.5598    4.1241 H   0  0  0  0  0  0  0  0  0  0  0  0
   -0.9351    2.1434    3.1320 H   0  0  0  0  0  0  0  0  0  0  0  0
    0.6962    2.7957    2.9107 H   0  0  0  0  0  0  0  0  0  0  0  0
   -0.0245   -0.0864   -1.2156 C   0  0  0  0  0  3  0  0  0  0  0  0
   -0.0245   -1.4455   -1.8105 C   0  0  0  0  0  0  0  0  0  0  0  0
   -0.0245   -1.4455   -3.3353 C   0  0  0  0  0  0  0  0  0  0  0  0
   -0.2492    0.0852    0.0513 H   0  0  0  0  0  0  0  0  0  0  0  0
    0.2605    0.7769   -1.8032 H   0  0  0  0  0  0  0  0  0  0  0  0
    0.8524   -2.0060   -1.4516 H   0  0  0  0  0  0  0  0  0  0  0  0
   -0.8865   -2.0115   -1.4379 H   0  0  0  0  0  0  0  0  0  0  0  0
    0.8508   -0.9198   -3.7230 H   0  0  0  0  0  0  0  0  0  0  0  0
   -0.0077   -2.4618   -3.7314 H   0  0  0  0  0  0  0  0  0  0  0  0
   -0.9133   -0.9453   -3.7245 H   0  0  0  0  0  0  0  0  0  0  0  0
  1  2  2  3
  1  4  1  0
  2  3  1  0
  2  5  1  0
  3  6  1  0
  3  7  1  0
  3  8  1  0
  9 10  1  0
  9 12  1  0
  9 13  1  0
 10 11  1  0
 10 14  1  0
 10 15  1  0
 11 16  1  0
 11 17  1  0
 11 18  1  0
M  RAD  2   1   2   9   2
M  END
>  <reaction>  (5) 
rmg_rxn_364

>  <mol_properties>  (5) 
{"0": {"label": "*3", "atom_type": "Cd"}, "1": {"label": "*4", "atom_type": "Cd"}, "8": {"label": "*1", "atom_type": "Cs"}, "9": {"label": "*0", "atom_type": "Cs"}, "11": {"label": "*2", "atom_type": "H0"}}

>  <type>  (5) 
unop_1

>  <geom_source>  (5) 
Heuristics

$$$$

     RDKit          3D

 18 16  0  0  0  0  0  0  0  0999 V2000
   -0.3672    0.9081    1.1993 C   0  0  0  0  0  3  0  0  0  0  0  0
   -0.0356   -0.0110    2.0924 C   0  0  0  0  0  0  0  0  0  0  0  0
    0.1001    0.2263    3.5619 C   0  0  0  0  0  0  0  0  0  0  0  0
   -0.5695    1.9334    1.4908 H   0  0  0  0  0  0  0  0  0  0  0  0
    0.1578   -1.0253    1.7526 H   0  0  0  0  0  0  0  0  0  0  0  0
   -0.5856   -0.4128    4.1240 H   0  0  0  0  0  0  0  0  0  0  0  0
   -0.1098    1.2653    3.8189 H   0  0  0  0  0  0  0  0  0  0  0  0
    1.1099   -0.0156    3.9032 H   0  0  0  0  0  0  0  0  0  0  0  0
    0.0825    0.5646   -1.3357 C   0  0  0  0  0  3  0  0  0  0  0  0
    0.0825   -0.7945   -1.9306 C   0  0  0  0  0  0  0  0  0  0  0  0
    0.0825   -0.7945   -3.4554 C   0  0  0  0  0  0  0  0  0  0  0  0
   -0.1423    0.7363   -0.0687 H   0  0  0  0  0  0  0  0  0  0  0  0
    0.3675    1.4280   -1.9233 H   0  0  0  0  0  0  0  0  0  0  0  0
    0.9593   -1.3550   -1.5716 H   0  0  0  0  0  0  0  0  0  0  0  0
   -0.7795   -1.3604   -1.5579 H   0  0  0  0  0  0  0  0  0  0  0  0
    0.9578   -0.2688   -3.8430 H   0  0  0  0  0  0  0  0  0  0  0  0
    0.0992   -1.8108   -3.8515 H   0  0  0  0  0  0  0  0  0  0  0  0
   -0.8063   -0.2943   -3.8445 H   0  0  0  0  0  0  0  0  0  0  0  0
  1  2  2  3
  1  4  1  0
  2  3  1  0
  2  5  1  0
  3  6  1  0
  3  7  1  0
  3  8  1  0
  9 10  1  0
  9 12  1  0
  9 13  1  0
 10 11  1  0
 10 14  1  0
 10 15  1  0
 11 16  1  0
 11 17  1  0
 11 18  1  0
M  RAD  2   1   2   9   2
M  END
>  <reaction>  (6) 
rmg_rxn_364

>  <mol_properties>  (6) 
{"0": {"label": "*3", "atom_type": "Cd"}, "1": {"label": "*4", "atom_type": "Cd"}, "8": {"label": "*1", "atom_type": "Cs"}, "9": {"label": "*0", "atom_type": "Cs"}, "11": {"label": "*2", "atom_type": "H0"}}

>  <type>  (6) 
unop_2

>  <geom_source>  (6) 
Heuristics

$$$$

     RDKit          3D

 18 16  0  0  0  0  0  0  0  0999 V2000
   -0.2811    0.1643    1.3470 C   0  0  0  0  0  3  0  0  0  0  0  0
    0.2524    1.1754    2.0142 C   0  0  0  0  0  0  0  0  0  0  0  0
   -0.4295    1.9467    3.0980 C   0  0  0  0  0  0  0  0  0  0  0  0
   -1.2883   -0.1818    1.5540 H   0  0  0  0  0  0  0  0  0  0  0  0
    1.2653    1.4866    1.7715 H   0  0  0  0  0  0  0  0  0  0  0  0
    0.1339    1.8852    4.0326 H   0  0  0  0  0  0  0  0  0  0  0  0
   -1.4379    1.5728    3.2794 H   0  0  0  0  0  0  0  0  0  0  0  0
   -0.4967    3.0062    2.8380 H   0  0  0  0  0  0  0  0  0  0  0  0
    0.1686   -0.1793   -1.1880 C   0  0  0  0  0  3  0  0  0  0  0  0
    0.1686   -1.5383   -1.7829 C   0  0  0  0  0  0  0  0  0  0  0  0
    0.1686   -1.5383   -3.3077 C   0  0  0  0  0  0  0  0  0  0  0  0
   -0.0562   -0.0076    0.0789 H   0  0  0  0  0  0  0  0  0  0  0  0
    0.4536    0.6841   -1.7756 H   0  0  0  0  0  0  0  0  0  0  0  0
    1.0454   -2.0988   -1.4240 H   0  0  0  0  0  0  0  0  0  0  0  0
   -0.6934   -2.1043   -1.4102 H   0  0  0  0  0  0  0  0  0  0  0  0
    1.0439   -1.0126   -3.6953 H   0  0  0  0  0  0  0  0  0  0  0  0
    0.1853   -2.5546   -3.7038 H   0  0  0  0  0  0  0  0  0  0  0  0
   -0.7202   -1.0381   -3.6968 H   0  0  0  0  0  0  0  0  0  0  0  0
  1  2  2  3
  1  4  1  0
  2  3  1  0
  2  5  1  0
  3  6  1  0
  3  7  1  0
  3  8  1  0
  9 10  1  0
  9 12  1  0
  9 13  1  0
 10 11  1  0
 10 14  1  0
 10 15  1  0
 11 16  1  0
 11 17  1  0
 11 18  1  0
M  RAD  2   1   2   9   2
M  END
>  <reaction>  (7) 
rmg_rxn_364

>  <mol_properties>  (7) 
{"0": {"label": "*3", "atom_type": "Cd"}, "1": {"label": "*4", "atom_type": "Cd"}, "8": {"label": "*1", "atom_type": "Cs"}, "9": {"label": "*0", "atom_type": "Cs"}, "11": {"label": "*2", "atom_type": "H0"}}

>  <type>  (7) 
unop_3

>  <geom_source>  (7) 
Heuristics

$$$$

     RDKit          3D

 18 16  0  0  0  0  0  0  0  0999 V2000
    0.2722    0.6476    1.3696 C   0  0  0  0  0  3  0  0  0  0  0  0
   -0.8629    0.2609    1.9302 C   0  0  0  0  0  0  0  0  0  0  0  0
   -1.5284    0.9405    3.0832 C   0  0  0  0  0  0  0  0  0  0  0  0
    0.8124    1.5179    1.7270 H   0  0  0  0  0  0  0  0  0  0  0  0
   -1.3682   -0.6176    1.5373 H   0  0  0  0  0  0  0  0  0  0  0  0
   -2.5344    1.2710    2.8120 H   0  0  0  0  0  0  0  0  0  0  0  0
   -0.9595    1.8095    3.4162 H   0  0  0  0  0  0  0  0  0  0  0  0
   -1.6372    0.2558    3.9282 H   0  0  0  0  0  0  0  0  0  0  0  0
    0.7219    0.3040   -1.1654 C   0  0  0  0  0  3  0  0  0  0  0  0
    0.7219   -1.0550   -1.7603 C   0  0  0  0  0  0  0  0  0  0  0  0
    0.7219   -1.0550   -3.2851 C   0  0  0  0  0  0  0  0  0  0  0  0
    0.4972    0.4757    0.1015 H   0  0  0  0  0  0  0  0  0  0  0  0
    1.0069    1.1674   -1.7531 H   0  0  0  0  0  0  0  0  0  0  0  0
    1.5988   -1.6155   -1.4014 H   0  0  0  0  0  0  0  0  0  0  0  0
   -0.1401   -1.6210   -1.3877 H   0  0  0  0  0  0  0  0  0  0  0  0
    1.5972   -0.5293   -3.6728 H   0  0  0  0  0  0  0  0  0  0  0  0
    0.7387   -2.0713   -3.6813 H   0  0  0  0  0  0  0  0  0  0  0  0
   -0.1669   -0.5548   -3.6743 H   0  0  0  0  0  0  0  0  0  0  0  0
  1  2  2  3
  1  4  1  0
  2  3  1  0
  2  5  1  0
  3  6  1  0
  3  7  1  0
  3  8  1  0
  9 10  1  0
  9 12  1  0
  9 13  1  0
 10 11  1  0
 10 14  1  0
 10 15  1  0
 11 16  1  0
 11 17  1  0
 11 18  1  0
M  RAD  2   1   2   9   2
M  END
>  <reaction>  (8) 
rmg_rxn_364

>  <mol_properties>  (8) 
{"0": {"label": "*3", "atom_type": "Cd"}, "1": {"label": "*4", "atom_type": "Cd"}, "8": {"label": "*1", "atom_type": "Cs"}, "9": {"label": "*0", "atom_type": "Cs"}, "11": {"label": "*2", "atom_type": "H0"}}

>  <type>  (8) 
unop_4

>  <geom_source>  (8) 
Heuristics

$$$$

     RDKit          3D

 18 16  0  0  0  0  0  0  0  0999 V2000
   -0.1834    0.1896    1.3198 C   0  0  0  0  0  3  0  0  0  0  0  0
   -0.1867    1.3957    1.8654 C   0  0  0  0  0  0  0  0  0  0  0  0
   -0.4353    1.6857    3.3104 C   0  0  0  0  0  0  0  0  0  0  0  0
   -0.3686   -0.7002    1.9123 H   0  0  0  0  0  0  0  0  0  0  0  0
    0.0040    2.2576    1.2312 H   0  0  0  0  0  0  0  0  0  0  0  0
    0.4193    2.2012    3.7562 H   0  0  0  0  0  0  0  0  0  0  0  0
   -0.6174    0.7706    3.8752 H   0  0  0  0  0  0  0  0  0  0  0  0
   -1.3001    2.3431    3.4320 H   0  0  0  0  0  0  0  0  0  0  0  0
    0.2663   -0.1540   -1.2152 C   0  0  0  0  0  3  0  0  0  0  0  0
    0.2663   -1.5130   -1.8101 C   0  0  0  0  0  0  0  0  0  0  0  0
    0.2663   -1.5130   -3.3349 C   0  0  0  0  0  0  0  0  0  0  0  0
    0.0415    0.0177    0.0517 H   0  0  0  0  0  0  0  0  0  0  0  0
    0.5513    0.7094   -1.8028 H   0  0  0  0  0  0  0  0  0  0  0  0
    1.1431   -2.0736   -1.4512 H   0  0  0  0  0  0  0  0  0  0  0  0
   -0.5957   -2.0790   -1.4375 H   0  0  0  0  0  0  0  0  0  0  0  0
    1.1416   -0.9873   -3.7226 H   0  0  0  0  0  0  0  0  0  0  0  0
    0.2830   -2.5293   -3.7310 H   0  0  0  0  0  0  0  0  0  0  0  0
   -0.6225   -1.0128   -3.7241 H   0  0  0  0  0  0  0  0  0  0  0  0
  1  2  2  3
  1  4  1  0
  2  3  1  0
  2  5  1  0
  3  6  1  0
  3  7  1  0
  3  8  1  0
  9 10  1  0
  9 12  1  0
  9 13  1  0
 10 11  1  0
 10 14  1  0
 10 15  1  0
 11 16  1  0
 11 17  1  0
 11 18  1  0
M  RAD  2   1   2   9   2
M  END
>  <reaction>  (9) 
rmg_rxn_364

>  <mol_properties>  (9) 
{"0": {"label": "*3", "atom_type": "Cd"}, "1": {"label": "*4", "atom_type": "Cd"}, "8": {"label": "*1", "atom_type": "Cs"}, "9": {"label": "*0", "atom_type": "Cs"}, "11": {"label": "*2", "atom_type": "H0"}}

>  <type>  (9) 
unop_5

>  <geom_source>  (9) 
Heuristics

$$$$

     RDKit          3D

 18 16  0  0  0  0  0  0  0  0999 V2000
    0.2487    0.3991    1.4197 C   0  0  0  0  0  3  0  0  0  0  0  0
   -0.9762    0.5819    1.8872 C   0  0  0  0  0  0  0  0  0  0  0  0
   -1.3568    1.5739    2.9386 C   0  0  0  0  0  0  0  0  0  0  0  0
    1.0872    0.9822    1.7858 H   0  0  0  0  0  0  0  0  0  0  0  0
   -1.7846   -0.0264    1.4896 H   0  0  0  0  0  0  0  0  0  0  0  0
   -2.1009    2.2781    2.5577 H   0  0  0  0  0  0  0  0  0  0  0  0
   -0.4914    2.1413    3.2832 H   0  0  0  0  0  0  0  0  0  0  0  0
   -1.8062    1.0739    3.8005 H   0  0  0  0  0  0  0  0  0  0  0  0
    0.6984    0.0555   -1.1153 C   0  0  0  0  0  3  0  0  0  0  0  0
    0.6984   -1.3035   -1.7102 C   0  0  0  0  0  0  0  0  0  0  0  0
    0.6984   -1.3035   -3.2350 C   0  0  0  0  0  0  0  0  0  0  0  0
    0.4736    0.2272    0.1516 H   0  0  0  0  0  0  0  0  0  0  0  0
    0.9834    0.9189   -1.7029 H   0  0  0  0  0  0  0  0  0  0  0  0
    1.5752   -1.8640   -1.3513 H   0  0  0  0  0  0  0  0  0  0  0  0
   -0.1636   -1.8695   -1.3376 H   0  0  0  0  0  0  0  0  0  0  0  0
    1.5737   -0.7778   -3.6227 H   0  0  0  0  0  0  0  0  0  0  0  0
    0.7151   -2.3198   -3.6312 H   0  0  0  0  0  0  0  0  0  0  0  0
   -0.1904   -0.8033   -3.6242 H   0  0  0  0  0  0  0  0  0  0  0  0
  1  2  2  3
  1  4  1  0
  2  3  1  0
  2  5  1  0
  3  6  1  0
  3  7  1  0
  3  8  1  0
  9 10  1  0
  9 12  1  0
  9 13  1  0
 10 11  1  0
 10 14  1  0
 10 15  1  0
 11 16  1  0
 11 17  1  0
 11 18  1  0
M  RAD  2   1   2   9   2
M  END
>  <reaction>  (10) 
rmg_rxn_364

>  <mol_properties>  (10) 
{"0": {"label": "*3", "atom_type": "Cd"}, "1": {"label": "*4", "atom_type": "Cd"}, "8": {"label": "*1", "atom_type": "Cs"}, "9": {"label": "*0", "atom_type": "Cs"}, "11": {"label": "*2", "atom_type": "H0"}}

>  <type>  (10) 
unop_6

>  <geom_source>  (10) 
Heuristics

$$$$

     RDKit          3D

 18 16  0  0  0  0  0  0  0  0999 V2000
    0.0945    0.2102    1.4266 C   0  0  0  0  0  3  0  0  0  0  0  0
   -0.9240    0.9380    1.8569 C   0  0  0  0  0  0  0  0  0  0  0  0
   -0.8497    1.9682    2.9374 C   0  0  0  0  0  0  0  0  0  0  0  0
    1.0877    0.3208    1.8491 H   0  0  0  0  0  0  0  0  0  0  0  0
   -1.9008    0.7916    1.4030 H   0  0  0  0  0  0  0  0  0  0  0  0
   -1.1544    2.9484    2.5617 H   0  0  0  0  0  0  0  0  0  0  0  0
    0.1609    2.0530    3.3386 H   0  0  0  0  0  0  0  0  0  0  0  0
   -1.5266    1.7197    3.7589 H   0  0  0  0  0  0  0  0  0  0  0  0
    0.5442   -0.1334   -1.1084 C   0  0  0  0  0  3  0  0  0  0  0  0
    0.5442   -1.4924   -1.7033 C   0  0  0  0  0  0  0  0  0  0  0  0
    0.5442   -1.4924   -3.2281 C   0  0  0  0  0  0  0  0  0  0  0  0
    0.3195    0.0383    0.1586 H   0  0  0  0  0  0  0  0  0  0  0  0
    0.8292    0.7300   -1.6960 H   0  0  0  0  0  0  0  0  0  0  0  0
    1.4211   -2.0530   -1.3444 H   0  0  0  0  0  0  0  0  0  0  0  0
   -0.3178   -2.0584   -1.3306 H   0  0  0  0  0  0  0  0  0  0  0  0
    1.4195   -0.9667   -3.6157 H   0  0  0  0  0  0  0  0  0  0  0  0
    0.5610   -2.5087   -3.6242 H   0  0  0  0  0  0  0  0  0  0  0  0
   -0.3446   -0.9922   -3.6172 H   0  0  0  0  0  0  0  0  0  0  0  0
  1  2  2  3
  1  4  1  0
  2  3  1  0
  2  5  1  0
  3  6  1  0
  3  7  1  0
  3  8  1  0
  9 10  1  0
  9 12  1  0
  9 13  1  0
 10 11  1  0
 10 14  1  0
 10 15  1  0
 11 16  1  0
 11 17  1  0
 11 18  1  0
M  RAD  2   1   2   9   2
M  END
>  <reaction>  (11) 
rmg_rxn_364

>  <mol_properties>  (11) 
{"0": {"label": "*3", "atom_type": "Cd"}, "1": {"label": "*4", "atom_type": "Cd"}, "8": {"label": "*1", "atom_type": "Cs"}, "9": {"label": "*0", "atom_type": "Cs"}, "11": {"label": "*2", "atom_type": "H0"}}

>  <type>  (11) 
unop_7

>  <geom_source>  (11) 
Heuristics

$$$$

     RDKit          3D

 18 16  0  0  0  0  0  0  0  0999 V2000
   -0.5834    0.4678    1.2628 C   0  0  0  0  0  3  0  0  0  0  0  0
    0.4017    0.4681    2.1471 C   0  0  0  0  0  0  0  0  0  0  0  0
    0.5281    1.4183    3.2940 C   0  0  0  0  0  0  0  0  0  0  0  0
   -1.3938    1.1869    1.3179 H   0  0  0  0  0  0  0  0  0  0  0  0
    1.1919   -0.2721    2.0509 H   0  0  0  0  0  0  0  0  0  0  0  0
    0.5499    0.8794    4.2448 H   0  0  0  0  0  0  0  0  0  0  0  0
   -0.3017    2.1257    3.3190 H   0  0  0  0  0  0  0  0  0  0  0  0
    1.4610    1.9841    3.2294 H   0  0  0  0  0  0  0  0  0  0  0  0
   -0.1337    0.1242   -1.2722 C   0  0  0  0  0  3  0  0  0  0  0  0
   -0.1337   -1.2348   -1.8671 C   0  0  0  0  0  0  0  0  0  0  0  0
   -0.1337   -1.2348   -3.3919 C   0  0  0  0  0  0  0  0  0  0  0  0
   -0.3584    0.2959   -0.0053 H   0  0  0  0  0  0  0  0  0  0  0  0
    0.1514    0.9876   -1.8599 H   0  0  0  0  0  0  0  0  0  0  0  0
    0.7432   -1.7954   -1.5082 H   0  0  0  0  0  0  0  0  0  0  0  0
   -0.9957   -1.8008   -1.4945 H   0  0  0  0  0  0  0  0  0  0  0  0
    0.7416   -0.7091   -3.7796 H   0  0  0  0  0  0  0  0  0  0  0  0
   -0.1169   -2.2511   -3.7881 H   0  0  0  0  0  0  0  0  0  0  0  0
   -1.0224   -0.7347   -3.7811 H   0  0  0  0  0  0  0  0  0  0  0  0
  1  2  2  3
  1  4  1  0
  2  3  1  0
  2  5  1  0
  3  6  1  0
  3  7  1  0
  3  8  1  0
  9 10  1  0
  9 12  1  0
  9 13  1  0
 10 11  1  0
 10 14  1  0
 10 15  1  0
 11 16  1  0
 11 17  1  0
 11 18  1  0
M  RAD  2   1   2   9   2
M  END
>  <reaction>  (12) 
rmg_rxn_364

>  <mol_properties>  (12) 
{"0": {"label": "*3", "atom_type": "Cd"}, "1": {"label": "*4", "atom_type": "Cd"}, "8": {"label": "*1", "atom_type": "Cs"}, "9": {"label": "*0", "atom_type": "Cs"}, "11": {"label": "*2", "atom_type": "H0"}}

>  <type>  (12) 
unop_8

>  <geom_source>  (12) 
Heuristics

$$$$

     RDKit          3D

 18 16  0  0  0  0  0  0  0  0999 V2000
    0.1428    0.8660    1.2955 C   0  0  0  0  0  3  0  0  0  0  0  0
   -0.6305    0.0381    1.9802 C   0  0  0  0  0  0  0  0  0  0  0  0
   -1.2493    0.3377    3.3074 C   0  0  0  0  0  0  0  0  0  0  0  0
    0.3856    1.8546    1.6709 H   0  0  0  0  0  0  0  0  0  0  0  0
   -0.8459   -0.9425    1.5633 H   0  0  0  0  0  0  0  0  0  0  0  0
   -2.3389    0.2691    3.2529 H   0  0  0  0  0  0  0  0  0  0  0  0
   -0.9849    1.3376    3.6539 H   0  0  0  0  0  0  0  0  0  0  0  0
   -0.9239   -0.3848    4.0602 H   0  0  0  0  0  0  0  0  0  0  0  0
    0.5925    0.5225   -1.2395 C   0  0  0  0  0  3  0  0  0  0  0  0
    0.5925   -0.8366   -1.8344 C   0  0  0  0  0  0  0  0  0  0  0  0
    0.5925   -0.8366   -3.3592 C   0  0  0  0  0  0  0  0  0  0  0  0
    0.3678    0.6942    0.0274 H   0  0  0  0  0  0  0  0  0  0  0  0
    0.8775    1.3859   -1.8271 H   0  0  0  0  0  0  0  0  0  0  0  0
    1.4694   -1.3971   -1.4755 H   0  0  0  0  0  0  0  0  0  0  0  0
   -0.2695   -1.4025   -1.4617 H   0  0  0  0  0  0  0  0  0  0  0  0
    1.4678   -0.3109   -3.7468 H   0  0  0  0  0  0  0  0  0  0  0  0
    0.6093   -1.8529   -3.7553 H   0  0  0  0  0  0  0  0  0  0  0  0
   -0.2963   -0.3364   -3.7483 H   0  0  0  0  0  0  0  0  0  0  0  0
  1  2  2  3
  1  4  1  0
  2  3  1  0
  2  5  1  0
  3  6  1  0
  3  7  1  0
  3  8  1  0
  9 10  1  0
  9 12  1  0
  9 13  1  0
 10 11  1  0
 10 14  1  0
 10 15  1  0
 11 16  1  0
 11 17  1  0
 11 18  1  0
M  RAD  2   1   2   9   2
M  END
>  <reaction>  (13) 
rmg_rxn_364

>  <mol_properties>  (13) 
{"0": {"label": "*3", "atom_type": "Cd"}, "1": {"label": "*4", "atom_type": "Cd"}, "8": {"label": "*1", "atom_type": "Cs"}, "9": {"label": "*0", "atom_type": "Cs"}, "11": {"label": "*2", "atom_type": "H0"}}

>  <type>  (13) 
unop_9

>  <geom_source>  (13) 
Heuristics

$$$$

     RDKit          3D

 18 16  0  0  0  0  0  0  0  0999 V2000
   -0.5475    0.7152    1.2150 C   0  0  0  0  0  3  0  0  0  0  0  0
    0.2312    0.1706    2.1365 C   0  0  0  0  0  0  0  0  0  0  0  0
    0.5331    0.7704    3.4720 C   0  0  0  0  0  0  0  0  0  0  0  0
   -1.0352    1.6705    1.3786 H   0  0  0  0  0  0  0  0  0  0  0  0
    0.6985   -0.7882    1.9271 H   0  0  0  0  0  0  0  0  0  0  0  0
    0.2189    0.1026    4.2782 H   0  0  0  0  0  0  0  0  0  0  0  0
    0.0276    1.7280    3.6024 H   0  0  0  0  0  0  0  0  0  0  0  0
    1.6078    0.9291    3.5931 H   0  0  0  0  0  0  0  0  0  0  0  0
   -0.0978    0.3717   -1.3200 C   0  0  0  0  0  3  0  0  0  0  0  0
   -0.0978   -0.9874   -1.9149 C   0  0  0  0  0  0  0  0  0  0  0  0
   -0.0978   -0.9874   -3.4397 C   0  0  0  0  0  0  0  0  0  0  0  0
   -0.3225    0.5434   -0.0531 H   0  0  0  0  0  0  0  0  0  0  0  0
    0.1872    1.2351   -1.9076 H   0  0  0  0  0  0  0  0  0  0  0  0
    0.7791   -1.5479   -1.5560 H   0  0  0  0  0  0  0  0  0  0  0  0
   -0.9598   -1.5533   -1.5423 H   0  0  0  0  0  0  0  0  0  0  0  0
    0.7775   -0.4617   -3.8274 H   0  0  0  0  0  0  0  0  0  0  0  0
   -0.0811   -2.0037   -3.8358 H   0  0  0  0  0  0  0  0  0  0  0  0
   -0.9866   -0.4872   -3.8289 H   0  0  0  0  0  0  0  0  0  0  0  0
  1  2  2  3
  1  4  1  0
  2  3  1  0
  2  5  1  0
  3  6  1  0
  3  7  1  0
  3  8  1  0
  9 10  1  0
  9 12  1  0
  9 13  1  0
 10 11  1  0
 10 14  1  0
 10 15  1  0
 11 16  1  0
 11 17  1  0
 11 18  1  0
M  RAD  2   1   2   9   2
M  END
>  <reaction>  (14) 
rmg_rxn_364

>  <mol_properties>  (14) 
{"0": {"label": "*3", "atom_type": "Cd"}, "1": {"label": "*4", "atom_type": "Cd"}, "8": {"label": "*1", "atom_type": "Cs"}, "9": {"label": "*0", "atom_type": "Cs"}, "11": {"label": "*2", "atom_type": "H0"}}

>  <type>  (14) 
unop_10

>  <geom_source>  (14) 
Heuristics

$$$$

     RDKit          3D

 18 16  0  0  0  0  0  0  0  0999 V2000
   -0.1075    0.1499    1.3798 C   0  0  0  0  0  3  0  0  0  0  0  0
   -0.6789    1.2523    1.8386 C   0  0  0  0  0  0  0  0  0  0  0  0
   -0.3224    1.9378    3.1181 C   0  0  0  0  0  0  0  0  0  0  0  0
    0.6881   -0.3450    1.9267 H   0  0  0  0  0  0  0  0  0  0  0  0
   -1.4723    1.7125    1.2553 H   0  0  0  0  0  0  0  0  0  0  0  0
    0.0012    2.9651    2.9319 H   0  0  0  0  0  0  0  0  0  0  0  0
    0.4791    1.4145    3.6409 H   0  0  0  0  0  0  0  0  0  0  0  0
   -1.1879    1.9943    3.7833 H   0  0  0  0  0  0  0  0  0  0  0  0
    0.3422   -0.1936   -1.1552 C   0  0  0  0  0  3  0  0  0  0  0  0
    0.3422   -1.5526   -1.7501 C   0  0  0  0  0  0  0  0  0  0  0  0
    0.3422   -1.5526   -3.2749 C   0  0  0  0  0  0  0  0  0  0  0  0
    0.1174   -0.0219    0.1117 H   0  0  0  0  0  0  0  0  0  0  0  0
    0.6272    0.6698   -1.7429 H   0  0  0  0  0  0  0  0  0  0  0  0
    1.2190   -2.1132   -1.3912 H   0  0  0  0  0  0  0  0  0  0  0  0
   -0.5198   -2.1186   -1.3775 H   0  0  0  0  0  0  0  0  0  0  0  0
    1.2174   -1.0269   -3.6626 H   0  0  0  0  0  0  0  0  0  0  0  0
    0.3589   -2.5690   -3.6711 H   0  0  0  0  0  0  0  0  0  0  0  0
   -0.5466   -1.0525   -3.6641 H   0  0  0  0  0  0  0  0  0  0  0  0
  1  2  2  3
  1  4  1  0
  2  3  1  0
  2  5  1  0
  3  6  1  0
  3  7  1  0
  3  8  1  0
  9 10  1  0
  9 12  1  0
  9 13  1  0
 10 11  1  0
 10 14  1  0
 10 15  1  0
 11 16  1  0
 11 17  1  0
 11 18  1  0
M  RAD  2   1   2   9   2
M  END
>  <reaction>  (15) 
rmg_rxn_364

>  <mol_properties>  (15) 
{"0": {"label": "*3", "atom_type": "Cd"}, "1": {"label": "*4", "atom_type": "Cd"}, "8": {"label": "*1", "atom_type": "Cs"}, "9": {"label": "*0", "atom_type": "Cs"}, "11": {"label": "*2", "atom_type": "H0"}}

>  <type>  (15) 
unop_11

>  <geom_source>  (15) 
Heuristics

$$$$

     RDKit          3D

 18 16  0  0  0  0  0  0  0  0999 V2000
   -0.1020    0.9676    1.2288 C   0  0  0  0  0  3  0  0  0  0  0  0
   -0.3385   -0.0552    2.0351 C   0  0  0  0  0  0  0  0  0  0  0  0
   -0.6065    0.0493    3.5018 C   0  0  0  0  0  0  0  0  0  0  0  0
   -0.0874    1.9877    1.5979 H   0  0  0  0  0  0  0  0  0  0  0  0
   -0.3430   -1.0595    1.6192 H   0  0  0  0  0  0  0  0  0  0  0  0
   -1.5841   -0.3722    3.7496 H   0  0  0  0  0  0  0  0  0  0  0  0
   -0.5843    1.0866    3.8382 H   0  0  0  0  0  0  0  0  0  0  0  0
    0.1353   -0.5141    4.0738 H   0  0  0  0  0  0  0  0  0  0  0  0
    0.3477    0.6241   -1.3062 C   0  0  0  0  0  3  0  0  0  0  0  0
    0.3477   -0.7349   -1.9011 C   0  0  0  0  0  0  0  0  0  0  0  0
    0.3477   -0.7349   -3.4259 C   0  0  0  0  0  0  0  0  0  0  0  0
    0.1229    0.7958   -0.0393 H   0  0  0  0  0  0  0  0  0  0  0  0
    0.6327    1.4875   -1.8939 H   0  0  0  0  0  0  0  0  0  0  0  0
    1.2245   -1.2955   -1.5422 H   0  0  0  0  0  0  0  0  0  0  0  0
   -0.5143   -1.3009   -1.5285 H   0  0  0  0  0  0  0  0  0  0  0  0
    1.2229   -0.2093   -3.8136 H   0  0  0  0  0  0  0  0  0  0  0  0
    0.3644   -1.7513   -3.8221 H   0  0  0  0  0  0  0  0  0  0  0  0
   -0.5411   -0.2348   -3.8151 H   0  0  0  0  0  0  0  0  0  0  0  0
  1  2  2  3
  1  4  1  0
  2  3  1  0
  2  5  1  0
  3  6  1  0
  3  7  1  0
  3  8  1  0
  9 10  1  0
  9 12  1  0
  9 13  1  0
 10 11  1  0
 10 14  1  0
 10 15  1  0
 11 16  1  0
 11 17  1  0
 11 18  1  0
M  RAD  2   1   2   9   2
M  END
>  <reaction>  (16) 
rmg_rxn_364

>  <mol_properties>  (16) 
{"0": {"label": "*3", "atom_type": "Cd"}, "1": {"label": "*4", "atom_type": "Cd"}, "8": {"label": "*1", "atom_type": "Cs"}, "9": {"label": "*0", "atom_type": "Cs"}, "11": {"label": "*2", "atom_type": "H0"}}

>  <type>  (16) 
unop_12

>  <geom_source>  (16) 
Heuristics

$$$$

     RDKit          3D

 18 16  0  0  0  0  0  0  0  0999 V2000
    2.6239   -0.1028    0.2930 C   0  0  0  0  0  0  0  0  0  0  0  0
    2.8754    1.3972    0.3875 C   0  0  0  0  0  0  0  0  0  0  0  0
   -3.5875   -0.5336   -0.8767 C   0  0  0  0  0  0  0  0  0  0  0  0
   -2.4017   -0.7850    0.0020 C   0  0  0  0  0  3  0  0  0  0  0  0
   -1.1783   -0.3944   -0.3605 C   0  0  0  0  0  3  0  0  0  0  0  0
    1.1842   -0.4337    0.6531 C   0  0  0  0  0  2  0  0  0  0  0  0
    2.8208   -0.4443   -0.7450 H   0  0  0  0  0  0  0  0  0  0  0  0
    3.3093   -0.6423    0.9809 H   0  0  0  0  0  0  0  0  0  0  0  0
    2.1991    1.9451   -0.3030 H   0  0  0  0  0  0  0  0  0  0  0  0
    3.9266    1.6161    0.1047 H   0  0  0  0  0  0  0  0  0  0  0  0
    2.7056    1.7523    1.4265 H   0  0  0  0  0  0  0  0  0  0  0  0
   -3.4478   -1.0387   -1.8558 H   0  0  0  0  0  0  0  0  0  0  0  0
   -4.5030   -0.9344   -0.3935 H   0  0  0  0  0  0  0  0  0  0  0  0
   -3.7152    0.5576   -1.0384 H   0  0  0  0  0  0  0  0  0  0  0  0
   -2.5387   -1.2939    0.9512 H   0  0  0  0  0  0  0  0  0  0  0  0
   -1.0119    0.1167   -1.3042 H   0  0  0  0  0  0  0  0  0  0  0  0
   -0.2384   -0.6085    0.3650 H   0  0  0  0  0  0  0  0  0  0  0  0
    0.9774   -0.1733    1.7132 H   0  0  0  0  0  0  0  0  0  0  0  0
  1  6  1  0
  1  2  1  0
  1  7  1  0
  1  8  1  0
  2 10  1  0
  2 11  1  0
  2  9  1  0
  3 13  1  0
  3  4  1  0
  3 12  1  0
  3 14  1  0
  4  5  1  0
  4 15  1  0
  5 16  1  0
  5 17  1  0
  6 18  1  0
M  RAD  3   4   2   5   2   6   3
M  END
>  <reaction>  (17) 
rmg_rxn_364

>  <mol_properties>  (17) 
{"0": {"label": "*3", "atom_type": "Cd"}, "1": {"label": "*4", "atom_type": "Cd"}, "8": {"label": "*1", "atom_type": "Cs"}, "9": {"label": "*0", "atom_type": "Cs"}, "11": {"label": "*2", "atom_type": "H0"}}

>  <type>  (17) 
unop_13

>  <geom_source>  (17) 
AutoTST

$$$$

     RDKit          3D

 18 16  0  0  0  0  0  0  0  0999 V2000
   -0.3672    0.9081    1.1993 C   0  0  0  0  0  3  0  0  0  0  0  0
   -0.0356   -0.0110    2.0924 C   0  0  0  0  0  0  0  0  0  0  0  0
    0.1001    0.2263    3.5619 C   0  0  0  0  0  0  0  0  0  0  0  0
   -0.5695    1.9334    1.4908 H   0  0  0  0  0  0  0  0  0  0  0  0
    0.1578   -1.0253    1.7526 H   0  0  0  0  0  0  0  0  0  0  0  0
   -0.5856   -0.4128    4.1240 H   0  0  0  0  0  0  0  0  0  0  0  0
   -0.1098    1.2653    3.8189 H   0  0  0  0  0  0  0  0  0  0  0  0
    1.1099   -0.0155    3.9032 H   0  0  0  0  0  0  0  0  0  0  0  0
    0.0825    0.5646   -1.3357 C   0  0  0  0  0  3  0  0  0  0  0  0
    0.0825   -0.7945   -1.9306 C   0  0  0  0  0  0  0  0  0  0  0  0
    0.0825   -0.7945   -3.4554 C   0  0  0  0  0  0  0  0  0  0  0  0
   -0.1423    0.7363   -0.0687 H   0  0  0  0  0  0  0  0  0  0  0  0
    0.3675    1.4280   -1.9233 H   0  0  0  0  0  0  0  0  0  0  0  0
    0.9593   -1.3550   -1.5716 H   0  0  0  0  0  0  0  0  0  0  0  0
   -0.7795   -1.3604   -1.5579 H   0  0  0  0  0  0  0  0  0  0  0  0
    0.9577   -0.2688   -3.8430 H   0  0  0  0  0  0  0  0  0  0  0  0
    0.0992   -1.8108   -3.8515 H   0  0  0  0  0  0  0  0  0  0  0  0
   -0.8063   -0.2943   -3.8445 H   0  0  0  0  0  0  0  0  0  0  0  0
  1  2  2  3
  1  4  1  0
  2  3  1  0
  2  5  1  0
  3  6  1  0
  3  7  1  0
  3  8  1  0
  9 10  1  0
  9 12  1  0
  9 13  1  0
 10 11  1  0
 10 14  1  0
 10 15  1  0
 11 16  1  0
 11 17  1  0
 11 18  1  0
M  RAD  2   1   2   9   2
M  END
>  <reaction>  (18) 
rmg_rxn_364

>  <mol_properties>  (18) 
{"0": {"label": "*3", "atom_type": "Cd"}, "1": {"label": "*4", "atom_type": "Cd"}, "8": {"label": "*1", "atom_type": "Cs"}, "9": {"label": "*0", "atom_type": "Cs"}, "11": {"label": "*2", "atom_type": "H0"}}

>  <type>  (18) 
unop_14

>  <geom_source>  (18) 
gaussian_log

$$$$
