
     RDKit          3D

 18 17  0  0  0  0  0  0  0  0999 V2000
    2.3520    0.9498    0.2303 C   0  0  0  0  0  0  0  0  0  0  0  0
    1.9456   -0.3826   -0.3833 C   0  0  0  0  0  0  0  0  0  0  0  0
    0.6129   -0.8880    0.1586 C   0  0  0  0  0  0  0  0  0  0  0  0
   -0.4216    0.0223   -0.2088 O   0  0  0  0  0  0  0  0  0  0  0  0
   -1.6937   -0.3990    0.2766 C   0  0  0  0  0  0  0  0  0  0  0  0
   -2.7315    0.6179   -0.1548 C   0  0  0  0  0  0  0  0  0  0  0  0
    2.4361    0.8699    1.3188 H   0  0  0  0  0  0  0  0  0  0  0  0
    1.6247    1.7340   -0.0020 H   0  0  0  0  0  0  0  0  0  0  0  0
    3.3238    1.2651   -0.1628 H   0  0  0  0  0  0  0  0  0  0  0  0
    2.7250   -1.1255   -0.1814 H   0  0  0  0  0  0  0  0  0  0  0  0
    1.8763   -0.2576   -1.4701 H   0  0  0  0  0  0  0  0  0  0  0  0
    0.6566   -0.9798    1.2501 H   0  0  0  0  0  0  0  0  0  0  0  0
    0.3966   -1.8732   -0.2699 H   0  0  0  0  0  0  0  0  0  0  0  0
   -1.9410   -1.3825   -0.1378 H   0  0  0  0  0  0  0  0  0  0  0  0
   -1.6694   -0.4651    1.3699 H   0  0  0  0  0  0  0  0  0  0  0  0
   -2.7548    0.7058   -1.2461 H   0  0  0  0  0  0  0  0  0  0  0  0
   -2.4866    1.6097    0.2395 H   0  0  0  0  0  0  0  0  0  0  0  0
   -3.7268    0.3335    0.1978 H   0  0  0  0  0  0  0  0  0  0  0  0
  1  2  1  0
  1  7  1  0
  1  8  1  0
  1  9  1  0
  2  3  1  0
  2 10  1  0
  2 11  1  0
  3  4  1  0
  3 12  1  0
  3 13  1  0
  4  5  1  0
  5  6  1  0
  5 14  1  0
  5 15  1  0
  6 16  1  0
  6 17  1  0
  6 18  1  0
M  END
>  <reaction>  (1) 
rmg_rxn_1156

>  <mol_properties>  (1) 
{"1": {"label": "donator", "atom_type": "Cs"}, "9": {"label": "d_hydrogen", "atom_type": "H0"}}

>  <type>  (1) 
r1h

$$$$

     RDKit          3D

  1  0  0  0  0  0  0  0  0  0999 V2000
    0.0000    0.0000    0.0000 O   0  0  0  0  0 15  0  0  0  0  0  0
M  END
>  <reaction>  (2) 
rmg_rxn_1156

>  <mol_properties>  (2) 
{"0": {"label": "acceptor", "atom_type": "O2s"}}

>  <type>  (2) 
r2

$$$$

     RDKit          3D

  2  1  0  0  0  0  0  0  0  0999 V2000
    0.0000    0.0000    0.1079 O   0  0  0  0  0  1  0  0  0  0  0  0
    0.0000    0.0000   -0.8631 H   0  0  0  0  0  0  0  0  0  0  0  0
  1  2  1  0
M  RAD  1   1   2
M  END
>  <reaction>  (3) 
rmg_rxn_1156

>  <mol_properties>  (3) 
{"0": {"label": "acceptor", "atom_type": "O2s"}, "1": {"label": "a_hydrogen", "atom_type": "H0"}}

>  <type>  (3) 
r2h

$$$$

     RDKit          3D

 19 17  0  0  0  0  0  0  0  0999 V2000
    3.3903   -1.0840    0.1431 O   0  0  0  0  0 15  0  0  0  0  0  0
    1.5545    1.6346    0.2189 C   0  0  0  0  0  0  0  0  0  0  0  0
    1.3556    0.2905   -0.4252 C   0  0  0  0  0  0  0  0  0  0  0  0
    0.2254   -0.5482    0.1135 C   0  0  0  0  0  0  0  0  0  0  0  0
   -0.9869    0.0919   -0.2019 O   0  0  0  0  0  0  0  0  0  0  0  0
   -2.1179   -0.6108    0.2582 C   0  0  0  0  0  0  0  0  0  0  0  0
   -3.3597    0.1586   -0.1261 C   0  0  0  0  0  0  0  0  0  0  0  0
    1.6578    1.5417    1.3018 H   0  0  0  0  0  0  0  0  0  0  0  0
    0.6835    2.2654    0.0207 H   0  0  0  0  0  0  0  0  0  0  0  0
    2.4374    2.1387   -0.1736 H   0  0  0  0  0  0  0  0  0  0  0  0
    2.3866   -0.3854   -0.1747 H   0  0  0  0  0  0  0  0  0  0  0  0
    1.3669    0.3213   -1.5156 H   0  0  0  0  0  0  0  0  0  0  0  0
    0.3270   -0.6604    1.2029 H   0  0  0  0  0  0  0  0  0  0  0  0
    0.2544   -1.5539   -0.3269 H   0  0  0  0  0  0  0  0  0  0  0  0
   -2.1355   -1.6177   -0.1824 H   0  0  0  0  0  0  0  0  0  0  0  0
   -2.0613   -0.7332    1.3493 H   0  0  0  0  0  0  0  0  0  0  0  0
   -3.4212    0.2696   -1.2091 H   0  0  0  0  0  0  0  0  0  0  0  0
   -3.3487    1.1524    0.3227 H   0  0  0  0  0  0  0  0  0  0  0  0
   -4.2505   -0.3680    0.2197 H   0  0  0  0  0  0  0  0  0  0  0  0
  2  3  1  0
  2  8  1  0
  2  9  1  0
  2 10  1  0
  3  4  1  0
  3 11  1  0
  3 12  1  0
  4  5  1  0
  4 13  1  0
  4 14  1  0
  5  6  1  0
  6  7  1  0
  6 15  1  0
  6 16  1  0
  7 17  1  0
  7 18  1  0
  7 19  1  0
M  END
>  <reaction>  (4) 
rmg_rxn_1156

>  <mol_properties>  (4) 
{"0": {"label": "*3", "atom_type": "O2s"}, "2": {"label": "*1", "atom_type": "Cs"}, "3": {"label": "*0", "atom_type": "Cs"}, "10": {"label": "*2", "atom_type": "H0"}}

>  <type>  (4) 
ts

$$$$

     RDKit          3D

 19 17  0  0  0  0  0  0  0  0999 V2000
    2.4047   -2.5885    0.6567 O   0  0  0  0  0  1  0  0  0  0  0  0
    0.4090   -1.3637   -1.6821 C   0  0  0  0  0  0  0  0  0  0  0  0
    0.4090   -1.3637   -0.1600 C   0  0  0  0  0  3  0  0  0  0  0  0
    0.4090    0.0465    0.4198 C   0  0  0  0  0  0  0  0  0  0  0  0
   -0.7973    0.7098    0.0474 O   0  0  0  0  0  0  0  0  0  0  0  0
   -0.8502    2.0386    0.5603 C   0  0  0  0  0  0  0  0  0  0  0  0
   -2.1564    2.6696    0.1211 C   0  0  0  0  0  0  0  0  0  0  0  0
    1.2843   -0.8354   -2.0733 H   0  0  0  0  0  0  0  0  0  0  0  0
   -0.4897   -0.8828   -2.0808 H   0  0  0  0  0  0  0  0  0  0  0  0
    0.4362   -2.3910   -2.0592 H   0  0  0  0  0  0  0  0  0  0  0  0
    1.4670   -2.0130    0.2730 H   0  0  0  0  0  0  0  0  0  0  0  0
   -0.4798   -1.9034    0.1871 H   0  0  0  0  0  0  0  0  0  0  0  0
    1.2728    0.6102    0.0486 H   0  0  0  0  0  0  0  0  0  0  0  0
    0.4678   -0.0100    1.5128 H   0  0  0  0  0  0  0  0  0  0  0  0
   -0.7967    2.0157    1.6542 H   0  0  0  0  0  0  0  0  0  0  0  0
   -0.0068    2.6194    0.1709 H   0  0  0  0  0  0  0  0  0  0  0  0
   -3.0083    2.0890    0.4902 H   0  0  0  0  0  0  0  0  0  0  0  0
   -2.2297    2.6835   -0.9714 H   0  0  0  0  0  0  0  0  0  0  0  0
   -2.2395    3.6944    0.4937 H   0  0  0  0  0  0  0  0  0  0  0  0
  1 11  1  0
  2  3  1  0
  2  8  1  0
  2  9  1  0
  2 10  1  0
  3  4  1  0
  3 12  1  0
  4  5  1  0
  4 13  1  0
  4 14  1  0
  5  6  1  0
  6  7  1  0
  6 15  1  0
  6 16  1  0
  7 17  1  0
  7 18  1  0
  7 19  1  0
M  RAD  2   1   2   3   2
M  END
>  <reaction>  (5) 
rmg_rxn_1156

>  <mol_properties>  (5) 
{"0": {"label": "*3", "atom_type": "O2s"}, "2": {"label": "*1", "atom_type": "Cs"}, "3": {"label": "*0", "atom_type": "Cs"}, "10": {"label": "*2", "atom_type": "H0"}}

>  <type>  (5) 
unop_1

>  <geom_source>  (5) 
Heuristics

$$$$

     RDKit          3D

 19 17  0  0  0  0  0  0  0  0999 V2000
    0.6605   -0.7138   -0.4894 O   0  0  0  0  0  0  0  0  0  0  0  0
   -1.9732    2.8460    0.0760 O   0  0  0  0  0  1  0  0  0  0  0  0
    1.6945    0.0147    0.1388 C   0  0  0  0  0  0  0  0  0  0  0  0
   -0.1678    0.1503   -1.2461 C   0  0  0  0  0  0  0  0  0  0  0  0
    2.4725   -0.9144    1.0575 C   0  0  0  0  0  0  0  0  0  0  0  0
   -2.2603   -0.5970   -0.0150 C   0  0  0  0  0  0  0  0  0  0  0  0
   -1.3913    0.5838   -0.4348 C   0  0  0  0  0  3  0  0  0  0  0  0
    2.3966    0.4235   -0.6225 H   0  0  0  0  0  0  0  0  0  0  0  0
    1.2859    0.8490    0.7529 H   0  0  0  0  0  0  0  0  0  0  0  0
    3.2923   -0.3529    1.5534 H   0  0  0  0  0  0  0  0  0  0  0  0
    2.9111   -1.7495    0.4711 H   0  0  0  0  0  0  0  0  0  0  0  0
    1.7981   -1.3302    1.8360 H   0  0  0  0  0  0  0  0  0  0  0  0
   -0.5169   -0.4016   -2.1442 H   0  0  0  0  0  0  0  0  0  0  0  0
    0.3622    1.0542   -1.6287 H   0  0  0  0  0  0  0  0  0  0  0  0
   -1.6987   -1.2687    0.6683 H   0  0  0  0  0  0  0  0  0  0  0  0
   -2.5898   -1.1676   -0.9087 H   0  0  0  0  0  0  0  0  0  0  0  0
   -3.1591   -0.2191    0.5149 H   0  0  0  0  0  0  0  0  0  0  0  0
   -1.0870    1.1731    0.4561 H   0  0  0  0  0  0  0  0  0  0  0  0
   -2.0297    1.6201   -0.0356 H   0  0  0  0  0  0  0  0  0  0  0  0
  1  3  1  0
  1  4  1  0
  2 19  1  0
  3  5  1  0
  3  8  1  0
  3  9  1  0
  4  7  1  0
  4 13  1  0
  4 14  1  0
  5 10  1  0
  5 11  1  0
  5 12  1  0
  6  7  1  0
  6 15  1  0
  6 16  1  0
  6 17  1  0
  7 18  1  0
M  RAD  2   2   2   7   2
M  END
>  <reaction>  (6) 
rmg_rxn_1156

>  <mol_properties>  (6) 
{"0": {"label": "*3", "atom_type": "O2s"}, "2": {"label": "*1", "atom_type": "Cs"}, "3": {"label": "*0", "atom_type": "Cs"}, "10": {"label": "*2", "atom_type": "H0"}}

>  <type>  (6) 
unop_2

>  <geom_source>  (6) 
AutoTST

$$$$

     RDKit          3D

 19 17  0  0  0  0  0  0  0  0999 V2000
    0.7298    0.3352   -0.9034 O   0  0  0  0  0  0  0  0  0  0  0  0
   -0.2507    0.8822    2.1977 O   0  0  0  0  0 15  0  0  0  0  0  0
   -1.4279    0.3853    0.1785 C   0  0  0  0  0  0  0  0  0  0  0  0
   -0.5343   -0.3000   -0.8586 C   0  0  0  0  0  0  0  0  0  0  0  0
    1.6744   -0.3836   -0.1380 C   0  0  0  0  0  0  0  0  0  0  0  0
   -2.8262   -0.2240    0.1961 C   0  0  0  0  0  0  0  0  0  0  0  0
    2.9775    0.3990   -0.0891 C   0  0  0  0  0  0  0  0  0  0  0  0
   -0.9293    0.2682    1.3012 H   0  0  0  0  0  0  0  0  0  0  0  0
   -1.5062    1.4685   -0.0588 H   0  0  0  0  0  0  0  0  0  0  0  0
   -1.0031   -0.1884   -1.8597 H   0  0  0  0  0  0  0  0  0  0  0  0
   -0.4780   -1.3969   -0.6567 H   0  0  0  0  0  0  0  0  0  0  0  0
    1.8775   -1.3734   -0.6059 H   0  0  0  0  0  0  0  0  0  0  0  0
    1.3180   -0.5328    0.9064 H   0  0  0  0  0  0  0  0  0  0  0  0
   -2.7722   -1.3024    0.4565 H   0  0  0  0  0  0  0  0  0  0  0  0
   -3.4459    0.2942    0.9576 H   0  0  0  0  0  0  0  0  0  0  0  0
   -3.3112   -0.1085   -0.7965 H   0  0  0  0  0  0  0  0  0  0  0  0
    3.3702    0.5485   -1.1173 H   0  0  0  0  0  0  0  0  0  0  0  0
    2.8079    1.3894    0.3841 H   0  0  0  0  0  0  0  0  0  0  0  0
    3.7298   -0.1606    0.5060 H   0  0  0  0  0  0  0  0  0  0  0  0
  1  5  1  0
  1  4  1  0
  3  6  1  0
  3  4  1  0
  3  8  1  0
  3  9  1  0
  4 10  1  0
  4 11  1  0
  5  7  1  0
  5 12  1  0
  5 13  1  0
  6 14  1  0
  6 15  1  0
  6 16  1  0
  7 17  1  0
  7 18  1  0
  7 19  1  0
M  END
>  <reaction>  (7) 
rmg_rxn_1156

>  <mol_properties>  (7) 
{"0": {"label": "*3", "atom_type": "O2s"}, "2": {"label": "*1", "atom_type": "Cs"}, "3": {"label": "*0", "atom_type": "Cs"}, "10": {"label": "*2", "atom_type": "H0"}}

>  <type>  (7) 
unop_3

>  <geom_source>  (7) 
gaussian_log

$$$$
