
     RDKit          3D

  8  7  0  0  0  0  0  0  0  0999 V2000
    0.9548    0.1194   -0.0790 C   0  0  0  0  0  0  0  0  0  0  0  0
   -0.4838   -0.2649    0.0193 C   0  0  0  0  0  0  0  0  0  0  0  0
   -0.8933   -1.1081    0.8664 N   0  0  0  0  0  0  0  0  0  0  0  0
    1.3360   -0.0983   -1.0800 H   0  0  0  0  0  0  0  0  0  0  0  0
    1.0698    1.1948    0.0786 H   0  0  0  0  0  0  0  0  0  0  0  0
    1.5426   -0.4219    0.6602 H   0  0  0  0  0  0  0  0  0  0  0  0
   -1.1575    0.2324   -0.6905 H   0  0  0  0  0  0  0  0  0  0  0  0
   -1.8989   -1.2455    0.7886 H   0  0  0  0  0  0  0  0  0  0  0  0
  1  2  1  0
  1  4  1  0
  1  5  1  0
  1  6  1  0
  2  3  2  3
  2  7  1  0
  3  8  1  0
M  END
>  <reaction>  (1) 
rmg_rxn_16493

>  <mol_properties>  (1) 
{"2": {"label": "donator", "atom_type": "N3d"}, "7": {"label": "d_hydrogen", "atom_type": "H0"}}

>  <type>  (1) 
r1h

$$$$

     RDKit          3D

  8  7  0  0  0  0  0  0  0  0999 V2000
    1.7077   -0.1964   -0.0607 C   0  0  0  0  0  3  0  0  0  0  0  0
    0.4209   -0.4565    0.2808 O   0  0  0  0  0  0  0  0  0  0  0  0
   -0.4607    0.4385   -0.2968 N   0  0  0  0  0  0  0  0  0  0  0  0
   -1.6584    0.1416   -0.0244 C   0  0  0  0  0  0  0  0  0  0  0  0
    2.4163   -0.7685    0.5170 H   0  0  0  0  0  0  0  0  0  0  0  0
    1.9214    0.7645   -0.5045 H   0  0  0  0  0  0  0  0  0  0  0  0
   -2.4185    0.7953   -0.4307 H   0  0  0  0  0  0  0  0  0  0  0  0
   -1.9286   -0.7185    0.5831 H   0  0  0  0  0  0  0  0  0  0  0  0
  1  2  1  0
  1  5  1  0
  1  6  1  0
  2  3  1  0
  3  4  2  3
  4  7  1  0
  4  8  1  0
M  RAD  1   1   2
M  END
>  <reaction>  (2) 
rmg_rxn_16493

>  <mol_properties>  (2) 
{"0": {"label": "acceptor", "atom_type": "Cs"}}

>  <type>  (2) 
r2

$$$$

     RDKit          3D

  9  8  0  0  0  0  0  0  0  0999 V2000
   -1.5470   -0.0755   -0.1976 C   0  0  0  0  0  0  0  0  0  0  0  0
   -0.2885    0.4507    0.1749 O   0  0  0  0  0  0  0  0  0  0  0  0
   -0.1502    1.7216   -0.3294 N   0  0  0  0  0  0  0  0  0  0  0  0
    0.9626    2.2353   -0.0219 C   0  0  0  0  0  0  0  0  0  0  0  0
   -1.6392   -0.1356   -1.2844 H   0  0  0  0  0  0  0  0  0  0  0  0
   -2.3597    0.5337    0.2044 H   0  0  0  0  0  0  0  0  0  0  0  0
   -1.5879   -1.0750    0.2318 H   0  0  0  0  0  0  0  0  0  0  0  0
    1.1497    3.2381   -0.3820 H   0  0  0  0  0  0  0  0  0  0  0  0
    1.7060    1.7101    0.5739 H   0  0  0  0  0  0  0  0  0  0  0  0
  1  2  1  0
  1  5  1  0
  1  6  1  0
  1  7  1  0
  2  3  1  0
  3  4  2  3
  4  8  1  0
  4  9  1  0
M  END
>  <reaction>  (3) 
rmg_rxn_16493

>  <mol_properties>  (3) 
{"0": {"label": "acceptor", "atom_type": "Cs"}, "8": {"label": "a_hydrogen", "atom_type": "H0"}}

>  <type>  (3) 
r2h

$$$$

     RDKit          3D

 16 14  0  0  0  0  0  0  0  0999 V2000
   -1.1887    0.7124    1.1811 C   0  0  0  0  0  3  0  0  0  0  0  0
   -0.3239   -0.3373    1.4441 O   0  0  0  0  0  0  0  0  0  0  0  0
    0.9819    0.1059    1.5323 N   0  0  0  0  0  0  0  0  0  0  0  0
    1.7870   -0.8546    1.6915 C   0  0  0  0  0  0  0  0  0  0  0  0
   -2.2017    0.3886    1.4044 H   0  0  0  0  0  0  0  0  0  0  0  0
   -0.8840    1.6468    1.6490 H   0  0  0  0  0  0  0  0  0  0  0  0
    2.8333   -0.5953    1.7829 H   0  0  0  0  0  0  0  0  0  0  0  0
    1.4634   -1.8918    1.7408 H   0  0  0  0  0  0  0  0  0  0  0  0
   -0.2652   -0.3067   -3.2186 C   0  0  0  0  0  0  0  0  0  0  0  0
   -0.5484   -0.0201   -1.7744 C   0  0  0  0  0  0  0  0  0  0  0  0
   -1.0936    1.0437   -1.3914 N   0  0  0  0  0  0  0  0  0  0  0  0
    0.8062   -0.4647   -3.3626 H   0  0  0  0  0  0  0  0  0  0  0  0
   -0.7728   -1.2252   -3.5227 H   0  0  0  0  0  0  0  0  0  0  0  0
   -0.5980    0.5173   -3.8469 H   0  0  0  0  0  0  0  0  0  0  0  0
   -0.2486   -0.8000   -1.0601 H   0  0  0  0  0  0  0  0  0  0  0  0
   -1.1861    0.9899   -0.1586 H   0  0  0  0  0  0  0  0  0  0  0  0
  1  2  1  0
  1  5  1  0
  1  6  1  0
  2  3  1  0
  3  4  2  3
  4  7  1  0
  4  8  1  0
  9 10  1  0
  9 12  1  0
  9 13  1  0
  9 14  1  0
 10 11  2  3
 10 15  1  0
 11 16  1  0
M  RAD  1   1   2
M  END
>  <reaction>  (4) 
rmg_rxn_16493

>  <mol_properties>  (4) 
{"0": {"label": "*3", "atom_type": "Cs"}, "1": {"label": "*4", "atom_type": "O2s"}, "9": {"label": "*0", "atom_type": "Cd"}, "10": {"label": "*1", "atom_type": "N3d"}, "15": {"label": "*2", "atom_type": "H0"}}

>  <type>  (4) 
ts

$$$$

     RDKit          3D

 16 14  0  0  0  0  0  0  0  0999 V2000
    1.0869   -1.3816   -0.2482 C   0  0  0  0  0  3  0  0  0  0  0  0
    1.5088   -0.4906    0.7296 O   0  0  0  0  0  0  0  0  0  0  0  0
    1.8152    0.7905    0.4287 N   0  0  0  0  0  0  0  0  0  0  0  0
    1.6241    1.2827   -0.7174 C   0  0  0  0  0  0  0  0  0  0  0  0
    1.6717   -1.3539   -1.1668 H   0  0  0  0  0  0  0  0  0  0  0  0
    1.0546   -2.3630    0.2107 H   0  0  0  0  0  0  0  0  0  0  0  0
    1.9141    2.3123   -0.8337 H   0  0  0  0  0  0  0  0  0  0  0  0
    1.1859    0.7798   -1.5751 H   0  0  0  0  0  0  0  0  0  0  0  0
   -3.1013    0.5772    0.2738 C   0  0  0  0  0  0  0  0  0  0  0  0
   -1.7358   -0.0337    0.2421 C   0  0  0  0  0  0  0  0  0  0  0  0
   -1.3001   -0.6552   -0.7394 N   0  0  0  0  0  0  0  0  0  0  0  0
   -3.6665    0.1489    1.0998 H   0  0  0  0  0  0  0  0  0  0  0  0
   -3.0112    1.6491    0.4427 H   0  0  0  0  0  0  0  0  0  0  0  0
   -3.6209    0.3934   -0.6623 H   0  0  0  0  0  0  0  0  0  0  0  0
   -1.1570    0.1213    1.1651 H   0  0  0  0  0  0  0  0  0  0  0  0
   -0.1448   -1.0792   -0.5856 H   0  0  0  0  0  0  0  0  0  0  0  0
  1  2  1  0
  1  5  1  0
  1  6  1  0
  2  3  1  0
  3  4  2  3
  4  7  1  0
  4  8  1  0
  9 10  1  0
  9 12  1  0
  9 13  1  0
  9 14  1  0
 10 11  2  3
 10 15  1  0
 11 16  1  0
M  RAD  1   1   2
M  END
>  <reaction>  (5) 
rmg_rxn_16493

>  <mol_properties>  (5) 
{"0": {"label": "*3", "atom_type": "Cs"}, "1": {"label": "*4", "atom_type": "O2s"}, "9": {"label": "*0", "atom_type": "Cd"}, "10": {"label": "*1", "atom_type": "N3d"}, "15": {"label": "*2", "atom_type": "H0"}}

>  <type>  (5) 
unop_1

>  <geom_source>  (5) 
crest_best.xyz

$$$$

     RDKit          3D

 16 14  0  0  0  0  0  0  0  0999 V2000
   -0.5836   -0.3835    0.8179 C   0  0  0  0  0  3  0  0  0  0  0  0
    0.5952    0.2126    1.3226 O   0  0  0  0  0  0  0  0  0  0  0  0
    0.3454    0.7582    2.5590 N   0  0  0  0  0  0  0  0  0  0  0  0
    1.3725    1.3044    3.0525 C   0  0  0  0  0  0  0  0  0  0  0  0
   -0.9272   -1.1864    1.4740 H   0  0  0  0  0  0  0  0  0  0  0  0
   -1.3774    0.3578    0.7017 H   0  0  0  0  0  0  0  0  0  0  0  0
    1.2587    1.7589    4.0276 H   0  0  0  0  0  0  0  0  0  0  0  0
    2.3301    1.3257    2.5368 H   0  0  0  0  0  0  0  0  0  0  0  0
   -0.5836   -0.9798   -3.8247 C   0  0  0  0  0  0  0  0  0  0  0  0
   -0.5836   -0.9798   -2.3324 C   0  0  0  0  0  0  0  0  0  0  0  0
   -0.5836    0.0928   -1.6647 N   0  0  0  0  0  0  0  0  0  0  0  0
    0.2947   -1.5098   -4.2021 H   0  0  0  0  0  0  0  0  0  0  0  0
   -1.4618   -1.5098   -4.2021 H   0  0  0  0  0  0  0  0  0  0  0  0
   -0.5836    0.0408   -4.2033 H   0  0  0  0  0  0  0  0  0  0  0  0
   -0.5836   -1.9695   -1.8577 H   0  0  0  0  0  0  0  0  0  0  0  0
   -0.5836   -0.1374   -0.4651 H   0  0  0  0  0  0  0  0  0  0  0  0
  1  2  1  0
  1  5  1  0
  1  6  1  0
  2  3  1  0
  3  4  2  3
  4  7  1  0
  4  8  1  0
  9 10  1  0
  9 12  1  0
  9 13  1  0
  9 14  1  0
 10 11  2  3
 10 15  1  0
 11 16  1  0
M  RAD  1   1   2
M  END
>  <reaction>  (6) 
rmg_rxn_16493

>  <mol_properties>  (6) 
{"0": {"label": "*3", "atom_type": "Cs"}, "1": {"label": "*4", "atom_type": "O2s"}, "9": {"label": "*0", "atom_type": "Cd"}, "10": {"label": "*1", "atom_type": "N3d"}, "15": {"label": "*2", "atom_type": "H0"}}

>  <type>  (6) 
unop_2

>  <geom_source>  (6) 
Heuristics

$$$$

     RDKit          3D

 16 14  0  0  0  0  0  0  0  0999 V2000
   -0.4990    0.8328    0.9934 C   0  0  0  0  0  3  0  0  0  0  0  0
    0.1815   -0.3970    1.1478 O   0  0  0  0  0  0  0  0  0  0  0  0
    0.5941   -0.5376    2.4512 N   0  0  0  0  0  0  0  0  0  0  0  0
    1.2094   -1.6252    2.6391 C   0  0  0  0  0  0  0  0  0  0  0  0
   -1.3855    0.8715    1.6304 H   0  0  0  0  0  0  0  0  0  0  0  0
    0.1565    1.6743    1.2289 H   0  0  0  0  0  0  0  0  0  0  0  0
    1.5680   -1.8122    3.6425 H   0  0  0  0  0  0  0  0  0  0  0  0
    1.3786   -2.3479    1.8438 H   0  0  0  0  0  0  0  0  0  0  0  0
   -0.4990    0.2366   -3.6491 C   0  0  0  0  0  0  0  0  0  0  0  0
   -0.4990    0.2366   -2.1568 C   0  0  0  0  0  0  0  0  0  0  0  0
   -0.4990    1.3092   -1.4891 N   0  0  0  0  0  0  0  0  0  0  0  0
    0.3793   -0.2934   -4.0265 H   0  0  0  0  0  0  0  0  0  0  0  0
   -1.3773   -0.2934   -4.0265 H   0  0  0  0  0  0  0  0  0  0  0  0
   -0.4990    1.2572   -4.0277 H   0  0  0  0  0  0  0  0  0  0  0  0
   -0.4990   -0.7531   -1.6821 H   0  0  0  0  0  0  0  0  0  0  0  0
   -0.4990    1.0790   -0.2895 H   0  0  0  0  0  0  0  0  0  0  0  0
  1  2  1  0
  1  5  1  0
  1  6  1  0
  2  3  1  0
  3  4  2  3
  4  7  1  0
  4  8  1  0
  9 10  1  0
  9 12  1  0
  9 13  1  0
  9 14  1  0
 10 11  2  3
 10 15  1  0
 11 16  1  0
M  RAD  1   1   2
M  END
>  <reaction>  (7) 
rmg_rxn_16493

>  <mol_properties>  (7) 
{"0": {"label": "*3", "atom_type": "Cs"}, "1": {"label": "*4", "atom_type": "O2s"}, "9": {"label": "*0", "atom_type": "Cd"}, "10": {"label": "*1", "atom_type": "N3d"}, "15": {"label": "*2", "atom_type": "H0"}}

>  <type>  (7) 
unop_3

>  <geom_source>  (7) 
Heuristics

$$$$

     RDKit          3D

 16 14  0  0  0  0  0  0  0  0999 V2000
   -0.2546   -0.5424    0.7480 C   0  0  0  0  0  3  0  0  0  0  0  0
    0.4259    0.5430    1.3466 O   0  0  0  0  0  0  0  0  0  0  0  0
   -0.0009    0.6986    2.6436 N   0  0  0  0  0  0  0  0  0  0  0  0
    0.5807    1.6598    3.2221 C   0  0  0  0  0  0  0  0  0  0  0  0
   -0.0501   -1.4737    1.2810 H   0  0  0  0  0  0  0  0  0  0  0  0
   -1.3320   -0.3637    0.7258 H   0  0  0  0  0  0  0  0  0  0  0  0
    0.2996    1.8489    4.2495 H   0  0  0  0  0  0  0  0  0  0  0  0
    1.3284    2.2758    2.7272 H   0  0  0  0  0  0  0  0  0  0  0  0
   -0.2546   -1.1387   -3.8946 C   0  0  0  0  0  0  0  0  0  0  0  0
   -0.2546   -1.1387   -2.4023 C   0  0  0  0  0  0  0  0  0  0  0  0
   -0.2546   -0.0661   -1.7346 N   0  0  0  0  0  0  0  0  0  0  0  0
    0.6236   -1.6687   -4.2720 H   0  0  0  0  0  0  0  0  0  0  0  0
   -1.1329   -1.6687   -4.2720 H   0  0  0  0  0  0  0  0  0  0  0  0
   -0.2546   -0.1181   -4.2732 H   0  0  0  0  0  0  0  0  0  0  0  0
   -0.2546   -2.1284   -1.9276 H   0  0  0  0  0  0  0  0  0  0  0  0
   -0.2546   -0.2963   -0.5350 H   0  0  0  0  0  0  0  0  0  0  0  0
  1  2  1  0
  1  5  1  0
  1  6  1  0
  2  3  1  0
  3  4  2  3
  4  7  1  0
  4  8  1  0
  9 10  1  0
  9 12  1  0
  9 13  1  0
  9 14  1  0
 10 11  2  3
 10 15  1  0
 11 16  1  0
M  RAD  1   1   2
M  END
>  <reaction>  (8) 
rmg_rxn_16493

>  <mol_properties>  (8) 
{"0": {"label": "*3", "atom_type": "Cs"}, "1": {"label": "*4", "atom_type": "O2s"}, "9": {"label": "*0", "atom_type": "Cd"}, "10": {"label": "*1", "atom_type": "N3d"}, "15": {"label": "*2", "atom_type": "H0"}}

>  <type>  (8) 
unop_4

>  <geom_source>  (8) 
Heuristics

$$$$

     RDKit          3D

 16 14  0  0  0  0  0  0  0  0999 V2000
    0.7930    0.4364    0.9539 C   0  0  0  0  0  3  0  0  0  0  0  0
   -0.3858   -0.3042    1.2022 O   0  0  0  0  0  0  0  0  0  0  0  0
   -0.8554   -0.0187    2.4618 N   0  0  0  0  0  0  0  0  0  0  0  0
   -1.9112   -0.6588    2.7306 C   0  0  0  0  0  0  0  0  0  0  0  0
    0.5973    1.5100    1.0021 H   0  0  0  0  0  0  0  0  0  0  0  0
    1.5762    0.1757    1.6694 H   0  0  0  0  0  0  0  0  0  0  0  0
   -2.3457   -0.4894    3.7067 H   0  0  0  0  0  0  0  0  0  0  0  0
   -2.3731   -1.3491    2.0280 H   0  0  0  0  0  0  0  0  0  0  0  0
    0.7930   -0.1599   -3.6887 C   0  0  0  0  0  0  0  0  0  0  0  0
    0.7930   -0.1599   -2.1963 C   0  0  0  0  0  0  0  0  0  0  0  0
    0.7930    0.9127   -1.5286 N   0  0  0  0  0  0  0  0  0  0  0  0
    1.6713   -0.6899   -4.0661 H   0  0  0  0  0  0  0  0  0  0  0  0
   -0.0853   -0.6899   -4.0661 H   0  0  0  0  0  0  0  0  0  0  0  0
    0.7930    0.8607   -4.0673 H   0  0  0  0  0  0  0  0  0  0  0  0
    0.7930   -1.1496   -1.7217 H   0  0  0  0  0  0  0  0  0  0  0  0
    0.7930    0.6826   -0.3291 H   0  0  0  0  0  0  0  0  0  0  0  0
  1  2  1  0
  1  5  1  0
  1  6  1  0
  2  3  1  0
  3  4  2  3
  4  7  1  0
  4  8  1  0
  9 10  1  0
  9 12  1  0
  9 13  1  0
  9 14  1  0
 10 11  2  3
 10 15  1  0
 11 16  1  0
M  RAD  1   1   2
M  END
>  <reaction>  (9) 
rmg_rxn_16493

>  <mol_properties>  (9) 
{"0": {"label": "*3", "atom_type": "Cs"}, "1": {"label": "*4", "atom_type": "O2s"}, "9": {"label": "*0", "atom_type": "Cd"}, "10": {"label": "*1", "atom_type": "N3d"}, "15": {"label": "*2", "atom_type": "H0"}}

>  <type>  (9) 
unop_5

>  <geom_source>  (9) 
Heuristics

$$$$

     RDKit          3D

 16 14  0  0  0  0  0  0  0  0999 V2000
   -0.0000   -0.5488    0.7092 C   0  0  0  0  0  3  0  0  0  0  0  0
   -0.0000    0.7157    1.3422 O   0  0  0  0  0  0  0  0  0  0  0  0
    0.0000    0.5507    2.7066 N   0  0  0  0  0  0  0  0  0  0  0  0
    0.0000    1.6565    3.3180 C   0  0  0  0  0  0  0  0  0  0  0  0
    0.8921   -1.1195    0.9766 H   0  0  0  0  0  0  0  0  0  0  0  0
   -0.8921   -1.1195    0.9766 H   0  0  0  0  0  0  0  0  0  0  0  0
    0.0000    1.6128    4.3989 H   0  0  0  0  0  0  0  0  0  0  0  0
   -0.0000    2.6129    2.7996 H   0  0  0  0  0  0  0  0  0  0  0  0
   -0.0000   -1.1451   -3.9333 C   0  0  0  0  0  0  0  0  0  0  0  0
   -0.0000   -1.1451   -2.4410 C   0  0  0  0  0  0  0  0  0  0  0  0
   -0.0000   -0.0724   -1.7733 N   0  0  0  0  0  0  0  0  0  0  0  0
    0.8783   -1.6750   -4.3108 H   0  0  0  0  0  0  0  0  0  0  0  0
   -0.8783   -1.6750   -4.3108 H   0  0  0  0  0  0  0  0  0  0  0  0
   -0.0000   -0.1244   -4.3119 H   0  0  0  0  0  0  0  0  0  0  0  0
   -0.0000   -2.1347   -1.9664 H   0  0  0  0  0  0  0  0  0  0  0  0
   -0.0000   -0.3026   -0.5737 H   0  0  0  0  0  0  0  0  0  0  0  0
  1  2  1  0
  1  5  1  0
  1  6  1  0
  2  3  1  0
  3  4  2  3
  4  7  1  0
  4  8  1  0
  9 10  1  0
  9 12  1  0
  9 13  1  0
  9 14  1  0
 10 11  2  3
 10 15  1  0
 11 16  1  0
M  RAD  1   1   2
M  END
>  <reaction>  (10) 
rmg_rxn_16493

>  <mol_properties>  (10) 
{"0": {"label": "*3", "atom_type": "Cs"}, "1": {"label": "*4", "atom_type": "O2s"}, "9": {"label": "*0", "atom_type": "Cd"}, "10": {"label": "*1", "atom_type": "N3d"}, "15": {"label": "*2", "atom_type": "H0"}}

>  <type>  (10) 
unop_6

>  <geom_source>  (10) 
Heuristics

$$$$

     RDKit          3D

 16 14  0  0  0  0  0  0  0  0999 V2000
    0.8076   -0.0225    0.8904 C   0  0  0  0  0  3  0  0  0  0  0  0
   -0.5535   -0.0947    1.2669 O   0  0  0  0  0  0  0  0  0  0  0  0
   -0.7247    0.4889    2.4993 N   0  0  0  0  0  0  0  0  0  0  0  0
   -1.9290    0.4487    2.8799 C   0  0  0  0  0  0  0  0  0  0  0  0
    1.1381    1.0161    0.8170 H   0  0  0  0  0  0  0  0  0  0  0  0
    1.4392   -0.5569    1.6037 H   0  0  0  0  0  0  0  0  0  0  0  0
   -2.1479    0.8888    3.8435 H   0  0  0  0  0  0  0  0  0  0  0  0
   -2.7180   -0.0017    2.2815 H   0  0  0  0  0  0  0  0  0  0  0  0
    0.8076   -0.6188   -3.7521 C   0  0  0  0  0  0  0  0  0  0  0  0
    0.8076   -0.6188   -2.2598 C   0  0  0  0  0  0  0  0  0  0  0  0
    0.8076    0.4538   -1.5921 N   0  0  0  0  0  0  0  0  0  0  0  0
    1.6859   -1.1488   -4.1295 H   0  0  0  0  0  0  0  0  0  0  0  0
   -0.0706   -1.1488   -4.1295 H   0  0  0  0  0  0  0  0  0  0  0  0
    0.8076    0.4018   -4.1307 H   0  0  0  0  0  0  0  0  0  0  0  0
    0.8076   -1.6085   -1.7852 H   0  0  0  0  0  0  0  0  0  0  0  0
    0.8076    0.2237   -0.3925 H   0  0  0  0  0  0  0  0  0  0  0  0
  1  2  1  0
  1  5  1  0
  1  6  1  0
  2  3  1  0
  3  4  2  3
  4  7  1  0
  4  8  1  0
  9 10  1  0
  9 12  1  0
  9 13  1  0
  9 14  1  0
 10 11  2  3
 10 15  1  0
 11 16  1  0
M  RAD  1   1   2
M  END
>  <reaction>  (11) 
rmg_rxn_16493

>  <mol_properties>  (11) 
{"0": {"label": "*3", "atom_type": "Cs"}, "1": {"label": "*4", "atom_type": "O2s"}, "9": {"label": "*0", "atom_type": "Cd"}, "10": {"label": "*1", "atom_type": "N3d"}, "15": {"label": "*2", "atom_type": "H0"}}

>  <type>  (11) 
unop_7

>  <geom_source>  (11) 
Heuristics

$$$$

     RDKit          3D

 16 14  0  0  0  0  0  0  0  0999 V2000
    0.5836   -0.3835    0.8179 C   0  0  0  0  0  3  0  0  0  0  0  0
   -0.5952    0.2126    1.3226 O   0  0  0  0  0  0  0  0  0  0  0  0
   -0.3454    0.7582    2.5590 N   0  0  0  0  0  0  0  0  0  0  0  0
   -1.3725    1.3044    3.0525 C   0  0  0  0  0  0  0  0  0  0  0  0
    1.3774    0.3578    0.7017 H   0  0  0  0  0  0  0  0  0  0  0  0
    0.9272   -1.1864    1.4740 H   0  0  0  0  0  0  0  0  0  0  0  0
   -1.2587    1.7590    4.0276 H   0  0  0  0  0  0  0  0  0  0  0  0
   -2.3301    1.3257    2.5368 H   0  0  0  0  0  0  0  0  0  0  0  0
    0.5836   -0.9798   -3.8247 C   0  0  0  0  0  0  0  0  0  0  0  0
    0.5836   -0.9798   -2.3324 C   0  0  0  0  0  0  0  0  0  0  0  0
    0.5836    0.0928   -1.6647 N   0  0  0  0  0  0  0  0  0  0  0  0
    1.4618   -1.5098   -4.2021 H   0  0  0  0  0  0  0  0  0  0  0  0
   -0.2947   -1.5098   -4.2021 H   0  0  0  0  0  0  0  0  0  0  0  0
    0.5836    0.0408   -4.2033 H   0  0  0  0  0  0  0  0  0  0  0  0
    0.5836   -1.9695   -1.8577 H   0  0  0  0  0  0  0  0  0  0  0  0
    0.5836   -0.1374   -0.4651 H   0  0  0  0  0  0  0  0  0  0  0  0
  1  2  1  0
  1  5  1  0
  1  6  1  0
  2  3  1  0
  3  4  2  3
  4  7  1  0
  4  8  1  0
  9 10  1  0
  9 12  1  0
  9 13  1  0
  9 14  1  0
 10 11  2  3
 10 15  1  0
 11 16  1  0
M  RAD  1   1   2
M  END
>  <reaction>  (12) 
rmg_rxn_16493

>  <mol_properties>  (12) 
{"0": {"label": "*3", "atom_type": "Cs"}, "1": {"label": "*4", "atom_type": "O2s"}, "9": {"label": "*0", "atom_type": "Cd"}, "10": {"label": "*1", "atom_type": "N3d"}, "15": {"label": "*2", "atom_type": "H0"}}

>  <type>  (12) 
unop_8

>  <geom_source>  (12) 
Heuristics

$$$$

     RDKit          3D

 16 14  0  0  0  0  0  0  0  0999 V2000
   -0.8076   -0.0225    0.8904 C   0  0  0  0  0  3  0  0  0  0  0  0
    0.5535   -0.0947    1.2669 O   0  0  0  0  0  0  0  0  0  0  0  0
    0.7247    0.4889    2.4994 N   0  0  0  0  0  0  0  0  0  0  0  0
    1.9290    0.4487    2.8799 C   0  0  0  0  0  0  0  0  0  0  0  0
   -1.4392   -0.5569    1.6037 H   0  0  0  0  0  0  0  0  0  0  0  0
   -1.1381    1.0161    0.8170 H   0  0  0  0  0  0  0  0  0  0  0  0
    2.1479    0.8887    3.8436 H   0  0  0  0  0  0  0  0  0  0  0  0
    2.7180   -0.0016    2.2815 H   0  0  0  0  0  0  0  0  0  0  0  0
   -0.8076   -0.6188   -3.7521 C   0  0  0  0  0  0  0  0  0  0  0  0
   -0.8076   -0.6188   -2.2598 C   0  0  0  0  0  0  0  0  0  0  0  0
   -0.8076    0.4538   -1.5921 N   0  0  0  0  0  0  0  0  0  0  0  0
    0.0706   -1.1488   -4.1295 H   0  0  0  0  0  0  0  0  0  0  0  0
   -1.6859   -1.1488   -4.1295 H   0  0  0  0  0  0  0  0  0  0  0  0
   -0.8076    0.4018   -4.1307 H   0  0  0  0  0  0  0  0  0  0  0  0
   -0.8076   -1.6085   -1.7852 H   0  0  0  0  0  0  0  0  0  0  0  0
   -0.8076    0.2237   -0.3925 H   0  0  0  0  0  0  0  0  0  0  0  0
  1  2  1  0
  1  5  1  0
  1  6  1  0
  2  3  1  0
  3  4  2  3
  4  7  1  0
  4  8  1  0
  9 10  1  0
  9 12  1  0
  9 13  1  0
  9 14  1  0
 10 11  2  3
 10 15  1  0
 11 16  1  0
M  RAD  1   1   2
M  END
>  <reaction>  (13) 
rmg_rxn_16493

>  <mol_properties>  (13) 
{"0": {"label": "*3", "atom_type": "Cs"}, "1": {"label": "*4", "atom_type": "O2s"}, "9": {"label": "*0", "atom_type": "Cd"}, "10": {"label": "*1", "atom_type": "N3d"}, "15": {"label": "*2", "atom_type": "H0"}}

>  <type>  (13) 
unop_9

>  <geom_source>  (13) 
Heuristics

$$$$

     RDKit          3D

 16 14  0  0  0  0  0  0  0  0999 V2000
    1.0869   -1.3816   -0.2482 C   0  0  0  0  0  3  0  0  0  0  0  0
    1.5088   -0.4906    0.7296 O   0  0  0  0  0  0  0  0  0  0  0  0
    1.8152    0.7905    0.4287 N   0  0  0  0  0  0  0  0  0  0  0  0
    1.6241    1.2827   -0.7174 C   0  0  0  0  0  0  0  0  0  0  0  0
    1.6717   -1.3539   -1.1668 H   0  0  0  0  0  0  0  0  0  0  0  0
    1.0546   -2.3630    0.2107 H   0  0  0  0  0  0  0  0  0  0  0  0
    1.9141    2.3123   -0.8337 H   0  0  0  0  0  0  0  0  0  0  0  0
    1.1859    0.7798   -1.5751 H   0  0  0  0  0  0  0  0  0  0  0  0
   -3.1013    0.5772    0.2738 C   0  0  0  0  0  0  0  0  0  0  0  0
   -1.7358   -0.0337    0.2421 C   0  0  0  0  0  0  0  0  0  0  0  0
   -1.3001   -0.6552   -0.7394 N   0  0  0  0  0  0  0  0  0  0  0  0
   -3.6665    0.1489    1.0998 H   0  0  0  0  0  0  0  0  0  0  0  0
   -3.0112    1.6491    0.4427 H   0  0  0  0  0  0  0  0  0  0  0  0
   -3.6209    0.3934   -0.6623 H   0  0  0  0  0  0  0  0  0  0  0  0
   -1.1570    0.1213    1.1651 H   0  0  0  0  0  0  0  0  0  0  0  0
   -0.1448   -1.0792   -0.5856 H   0  0  0  0  0  0  0  0  0  0  0  0
  1  2  1  0
  1  5  1  0
  1  6  1  0
  2  3  1  0
  3  4  2  3
  4  7  1  0
  4  8  1  0
  9 10  1  0
  9 12  1  0
  9 13  1  0
  9 14  1  0
 10 11  2  3
 10 15  1  0
 11 16  1  0
M  RAD  1   1   2
M  END
>  <reaction>  (14) 
rmg_rxn_16493

>  <mol_properties>  (14) 
{"0": {"label": "*3", "atom_type": "Cs"}, "1": {"label": "*4", "atom_type": "O2s"}, "9": {"label": "*0", "atom_type": "Cd"}, "10": {"label": "*1", "atom_type": "N3d"}, "15": {"label": "*2", "atom_type": "H0"}}

>  <type>  (14) 
unop_10

>  <geom_source>  (14) 
Heuristics

$$$$

     RDKit          3D

 16 14  0  0  0  0  0  0  0  0999 V2000
    0.4990    0.8328    0.9934 C   0  0  0  0  0  3  0  0  0  0  0  0
   -0.1815   -0.3970    1.1478 O   0  0  0  0  0  0  0  0  0  0  0  0
   -0.5942   -0.5376    2.4512 N   0  0  0  0  0  0  0  0  0  0  0  0
   -1.2094   -1.6252    2.6391 C   0  0  0  0  0  0  0  0  0  0  0  0
   -0.1565    1.6743    1.2289 H   0  0  0  0  0  0  0  0  0  0  0  0
    1.3855    0.8715    1.6304 H   0  0  0  0  0  0  0  0  0  0  0  0
   -1.5680   -1.8122    3.6425 H   0  0  0  0  0  0  0  0  0  0  0  0
   -1.3785   -2.3480    1.8438 H   0  0  0  0  0  0  0  0  0  0  0  0
    0.4990    0.2366   -3.6491 C   0  0  0  0  0  0  0  0  0  0  0  0
    0.4990    0.2366   -2.1568 C   0  0  0  0  0  0  0  0  0  0  0  0
    0.4990    1.3092   -1.4891 N   0  0  0  0  0  0  0  0  0  0  0  0
    1.3773   -0.2934   -4.0265 H   0  0  0  0  0  0  0  0  0  0  0  0
   -0.3792   -0.2934   -4.0265 H   0  0  0  0  0  0  0  0  0  0  0  0
    0.4990    1.2572   -4.0277 H   0  0  0  0  0  0  0  0  0  0  0  0
    0.4990   -0.7531   -1.6821 H   0  0  0  0  0  0  0  0  0  0  0  0
    0.4990    1.0790   -0.2895 H   0  0  0  0  0  0  0  0  0  0  0  0
  1  2  1  0
  1  5  1  0
  1  6  1  0
  2  3  1  0
  3  4  2  3
  4  7  1  0
  4  8  1  0
  9 10  1  0
  9 12  1  0
  9 13  1  0
  9 14  1  0
 10 11  2  3
 10 15  1  0
 11 16  1  0
M  RAD  1   1   2
M  END
>  <reaction>  (15) 
rmg_rxn_16493

>  <mol_properties>  (15) 
{"0": {"label": "*3", "atom_type": "Cs"}, "1": {"label": "*4", "atom_type": "O2s"}, "9": {"label": "*0", "atom_type": "Cd"}, "10": {"label": "*1", "atom_type": "N3d"}, "15": {"label": "*2", "atom_type": "H0"}}

>  <type>  (15) 
unop_11

>  <geom_source>  (15) 
Heuristics

$$$$

     RDKit          3D

 16 14  0  0  0  0  0  0  0  0999 V2000
   -0.7930    0.4364    0.9539 C   0  0  0  0  0  3  0  0  0  0  0  0
    0.3858   -0.3042    1.2022 O   0  0  0  0  0  0  0  0  0  0  0  0
    0.8554   -0.0187    2.4618 N   0  0  0  0  0  0  0  0  0  0  0  0
    1.9112   -0.6589    2.7306 C   0  0  0  0  0  0  0  0  0  0  0  0
   -1.5761    0.1758    1.6694 H   0  0  0  0  0  0  0  0  0  0  0  0
   -0.5973    1.5100    1.0020 H   0  0  0  0  0  0  0  0  0  0  0  0
    2.3457   -0.4894    3.7067 H   0  0  0  0  0  0  0  0  0  0  0  0
    2.3731   -1.3491    2.0280 H   0  0  0  0  0  0  0  0  0  0  0  0
   -0.7930   -0.1599   -3.6887 C   0  0  0  0  0  0  0  0  0  0  0  0
   -0.7930   -0.1599   -2.1963 C   0  0  0  0  0  0  0  0  0  0  0  0
   -0.7930    0.9128   -1.5286 N   0  0  0  0  0  0  0  0  0  0  0  0
    0.0853   -0.6899   -4.0661 H   0  0  0  0  0  0  0  0  0  0  0  0
   -1.6713   -0.6899   -4.0661 H   0  0  0  0  0  0  0  0  0  0  0  0
   -0.7930    0.8607   -4.0673 H   0  0  0  0  0  0  0  0  0  0  0  0
   -0.7930   -1.1496   -1.7217 H   0  0  0  0  0  0  0  0  0  0  0  0
   -0.7930    0.6826   -0.3291 H   0  0  0  0  0  0  0  0  0  0  0  0
  1  2  1  0
  1  5  1  0
  1  6  1  0
  2  3  1  0
  3  4  2  3
  4  7  1  0
  4  8  1  0
  9 10  1  0
  9 12  1  0
  9 13  1  0
  9 14  1  0
 10 11  2  3
 10 15  1  0
 11 16  1  0
M  RAD  1   1   2
M  END
>  <reaction>  (16) 
rmg_rxn_16493

>  <mol_properties>  (16) 
{"0": {"label": "*3", "atom_type": "Cs"}, "1": {"label": "*4", "atom_type": "O2s"}, "9": {"label": "*0", "atom_type": "Cd"}, "10": {"label": "*1", "atom_type": "N3d"}, "15": {"label": "*2", "atom_type": "H0"}}

>  <type>  (16) 
unop_12

>  <geom_source>  (16) 
Heuristics

$$$$

     RDKit          3D

 16 14  0  0  0  0  0  0  0  0999 V2000
    0.2546   -0.5424    0.7480 C   0  0  0  0  0  3  0  0  0  0  0  0
   -0.4259    0.5430    1.3466 O   0  0  0  0  0  0  0  0  0  0  0  0
    0.0010    0.6987    2.6436 N   0  0  0  0  0  0  0  0  0  0  0  0
   -0.5807    1.6598    3.2221 C   0  0  0  0  0  0  0  0  0  0  0  0
    1.3320   -0.3637    0.7258 H   0  0  0  0  0  0  0  0  0  0  0  0
    0.0500   -1.4737    1.2810 H   0  0  0  0  0  0  0  0  0  0  0  0
   -0.2996    1.8489    4.2495 H   0  0  0  0  0  0  0  0  0  0  0  0
   -1.3284    2.2758    2.7272 H   0  0  0  0  0  0  0  0  0  0  0  0
    0.2546   -1.1387   -3.8946 C   0  0  0  0  0  0  0  0  0  0  0  0
    0.2546   -1.1387   -2.4023 C   0  0  0  0  0  0  0  0  0  0  0  0
    0.2546   -0.0661   -1.7346 N   0  0  0  0  0  0  0  0  0  0  0  0
    1.1329   -1.6687   -4.2720 H   0  0  0  0  0  0  0  0  0  0  0  0
   -0.6236   -1.6687   -4.2720 H   0  0  0  0  0  0  0  0  0  0  0  0
    0.2546   -0.1181   -4.2732 H   0  0  0  0  0  0  0  0  0  0  0  0
    0.2546   -2.1284   -1.9276 H   0  0  0  0  0  0  0  0  0  0  0  0
    0.2546   -0.2963   -0.5350 H   0  0  0  0  0  0  0  0  0  0  0  0
  1  2  1  0
  1  5  1  0
  1  6  1  0
  2  3  1  0
  3  4  2  3
  4  7  1  0
  4  8  1  0
  9 10  1  0
  9 12  1  0
  9 13  1  0
  9 14  1  0
 10 11  2  3
 10 15  1  0
 11 16  1  0
M  RAD  1   1   2
M  END
>  <reaction>  (17) 
rmg_rxn_16493

>  <mol_properties>  (17) 
{"0": {"label": "*3", "atom_type": "Cs"}, "1": {"label": "*4", "atom_type": "O2s"}, "9": {"label": "*0", "atom_type": "Cd"}, "10": {"label": "*1", "atom_type": "N3d"}, "15": {"label": "*2", "atom_type": "H0"}}

>  <type>  (17) 
unop_13

>  <geom_source>  (17) 
Heuristics

$$$$

     RDKit          3D

 16 14  0  0  0  0  0  0  0  0999 V2000
    0.0000    0.9940    1.0052 C   0  0  0  0  0  3  0  0  0  0  0  0
    0.0000   -0.4150    1.1253 O   0  0  0  0  0  0  0  0  0  0  0  0
   -0.0000   -0.7666    2.4538 N   0  0  0  0  0  0  0  0  0  0  0  0
   -0.0000   -2.0202    2.6126 C   0  0  0  0  0  0  0  0  0  0  0  0
   -0.8921    1.4253    1.4649 H   0  0  0  0  0  0  0  0  0  0  0  0
    0.8921    1.4253    1.4649 H   0  0  0  0  0  0  0  0  0  0  0  0
   -0.0000   -2.3797    3.6329 H   0  0  0  0  0  0  0  0  0  0  0  0
    0.0000   -2.7168    1.7770 H   0  0  0  0  0  0  0  0  0  0  0  0
    0.0000    0.3977   -3.6373 C   0  0  0  0  0  0  0  0  0  0  0  0
    0.0000    0.3977   -2.1450 C   0  0  0  0  0  0  0  0  0  0  0  0
    0.0000    1.4703   -1.4773 N   0  0  0  0  0  0  0  0  0  0  0  0
    0.8783   -0.1323   -4.0147 H   0  0  0  0  0  0  0  0  0  0  0  0
   -0.8783   -0.1323   -4.0147 H   0  0  0  0  0  0  0  0  0  0  0  0
    0.0000    1.4183   -4.0159 H   0  0  0  0  0  0  0  0  0  0  0  0
    0.0000   -0.5920   -1.6704 H   0  0  0  0  0  0  0  0  0  0  0  0
    0.0000    1.2402   -0.2777 H   0  0  0  0  0  0  0  0  0  0  0  0
  1  2  1  0
  1  5  1  0
  1  6  1  0
  2  3  1  0
  3  4  2  3
  4  7  1  0
  4  8  1  0
  9 10  1  0
  9 12  1  0
  9 13  1  0
  9 14  1  0
 10 11  2  3
 10 15  1  0
 11 16  1  0
M  RAD  1   1   2
M  END
>  <reaction>  (18) 
rmg_rxn_16493

>  <mol_properties>  (18) 
{"0": {"label": "*3", "atom_type": "Cs"}, "1": {"label": "*4", "atom_type": "O2s"}, "9": {"label": "*0", "atom_type": "Cd"}, "10": {"label": "*1", "atom_type": "N3d"}, "15": {"label": "*2", "atom_type": "H0"}}

>  <type>  (18) 
unop_14

>  <geom_source>  (18) 
Heuristics

$$$$

     RDKit          3D

 16 14  0  0  0  0  0  0  0  0999 V2000
   -0.4990    0.8328    0.9934 C   0  0  0  0  0  3  0  0  0  0  0  0
    0.1815   -0.3970    1.1478 O   0  0  0  0  0  0  0  0  0  0  0  0
    0.5941   -0.5376    2.4512 N   0  0  0  0  0  0  0  0  0  0  0  0
    1.2094   -1.6252    2.6391 C   0  0  0  0  0  0  0  0  0  0  0  0
   -1.3855    0.8715    1.6304 H   0  0  0  0  0  0  0  0  0  0  0  0
    0.1565    1.6743    1.2289 H   0  0  0  0  0  0  0  0  0  0  0  0
    1.5680   -1.8122    3.6425 H   0  0  0  0  0  0  0  0  0  0  0  0
    1.3786   -2.3479    1.8438 H   0  0  0  0  0  0  0  0  0  0  0  0
   -0.4990    0.2366   -3.6491 C   0  0  0  0  0  0  0  0  0  0  0  0
   -0.4990    0.2366   -2.1568 C   0  0  0  0  0  0  0  0  0  0  0  0
   -0.4990    1.3092   -1.4891 N   0  0  0  0  0  0  0  0  0  0  0  0
    0.3792   -0.2934   -4.0265 H   0  0  0  0  0  0  0  0  0  0  0  0
   -1.3773   -0.2934   -4.0265 H   0  0  0  0  0  0  0  0  0  0  0  0
   -0.4990    1.2572   -4.0277 H   0  0  0  0  0  0  0  0  0  0  0  0
   -0.4990   -0.7531   -1.6822 H   0  0  0  0  0  0  0  0  0  0  0  0
   -0.4990    1.0790   -0.2895 H   0  0  0  0  0  0  0  0  0  0  0  0
  1  2  1  0
  1  5  1  0
  1  6  1  0
  2  3  1  0
  3  4  2  3
  4  7  1  0
  4  8  1  0
  9 10  1  0
  9 12  1  0
  9 13  1  0
  9 14  1  0
 10 11  2  3
 10 15  1  0
 11 16  1  0
M  RAD  1   1   2
M  END
>  <reaction>  (19) 
rmg_rxn_16493

>  <mol_properties>  (19) 
{"0": {"label": "*3", "atom_type": "Cs"}, "1": {"label": "*4", "atom_type": "O2s"}, "9": {"label": "*0", "atom_type": "Cd"}, "10": {"label": "*1", "atom_type": "N3d"}, "15": {"label": "*2", "atom_type": "H0"}}

>  <type>  (19) 
unop_15

>  <geom_source>  (19) 
gaussian_log

$$$$
