
     RDKit          3D

  9  8  0  0  0  0  0  0  0  0999 V2000
   -1.2461    0.5037    0.0950 C   0  0  0  0  0  0  0  0  0  0  0  0
   -0.0155   -0.3334    0.0640 C   0  0  0  0  0  0  0  0  0  0  0  0
    1.0697    0.1457   -0.3733 N   0  0  0  0  0  0  0  0  0  0  0  0
    2.1001   -0.7834   -0.3224 O   0  0  0  0  0  0  0  0  0  0  0  0
   -2.0357    0.0440   -0.5039 H   0  0  0  0  0  0  0  0  0  0  0  0
   -1.6237    0.5897    1.1166 H   0  0  0  0  0  0  0  0  0  0  0  0
   -1.0397    1.4998   -0.2929 H   0  0  0  0  0  0  0  0  0  0  0  0
   -0.0537   -1.3634    0.4205 H   0  0  0  0  0  0  0  0  0  0  0  0
    2.8478   -0.2985   -0.6758 H   0  0  0  0  0  0  0  0  0  0  0  0
  1  2  1  0
  1  5  1  0
  1  6  1  0
  1  7  1  0
  2  3  2  3
  2  8  1  0
  3  4  1  0
  4  9  1  0
M  END
>  <reaction>  (1) 
rmg_rxn_46

>  <mol_properties>  (1) 
{"3": {"label": "donator", "atom_type": "O2s"}, "8": {"label": "d_hydrogen", "atom_type": "H0"}}

>  <type>  (1) 
r1h

$$$$

     RDKit          3D

 13 12  0  0  0  0  0  0  0  0999 V2000
    2.0654   -0.2739   -0.0844 C   0  0  0  0  0  3  0  0  0  0  0  0
    0.6326   -0.4110   -0.4406 C   0  0  0  0  0  0  0  0  0  0  0  0
   -0.3055    0.4151    0.4359 C   0  0  0  0  0  0  0  0  0  0  0  0
   -1.7714    0.2357    0.0671 C   0  0  0  0  0  0  0  0  0  0  0  0
    2.3610    0.0676    0.8995 H   0  0  0  0  0  0  0  0  0  0  0  0
    2.8408   -0.6127   -0.7582 H   0  0  0  0  0  0  0  0  0  0  0  0
    0.3313   -1.4695   -0.3768 H   0  0  0  0  0  0  0  0  0  0  0  0
    0.4826   -0.1432   -1.4940 H   0  0  0  0  0  0  0  0  0  0  0  0
   -0.1518    0.1351    1.4826 H   0  0  0  0  0  0  0  0  0  0  0  0
   -0.0303    1.4705    0.3565 H   0  0  0  0  0  0  0  0  0  0  0  0
   -2.0768   -0.8084    0.1692 H   0  0  0  0  0  0  0  0  0  0  0  0
   -1.9546    0.5339   -0.9679 H   0  0  0  0  0  0  0  0  0  0  0  0
   -2.4194    0.8370    0.7066 H   0  0  0  0  0  0  0  0  0  0  0  0
  1  2  1  0
  1  5  1  0
  1  6  1  0
  2  3  1  0
  2  7  1  0
  2  8  1  0
  3  4  1  0
  3  9  1  0
  3 10  1  0
  4 11  1  0
  4 12  1  0
  4 13  1  0
M  RAD  1   1   2
M  END
>  <reaction>  (2) 
rmg_rxn_46

>  <mol_properties>  (2) 
{"0": {"label": "acceptor", "atom_type": "Cs"}}

>  <type>  (2) 
r2

$$$$

     RDKit          3D

 14 13  0  0  0  0  0  0  0  0999 V2000
    1.8106   -0.5953    0.5577 C   0  0  0  0  0  0  0  0  0  0  0  0
    0.5197    0.2064    0.6554 C   0  0  0  0  0  0  0  0  0  0  0  0
   -0.5206   -0.2080   -0.3788 C   0  0  0  0  0  0  0  0  0  0  0  0
   -1.8114    0.5937   -0.2812 C   0  0  0  0  0  0  0  0  0  0  0  0
    2.2725   -0.4752   -0.4251 H   0  0  0  0  0  0  0  0  0  0  0  0
    1.6214   -1.6612    0.7052 H   0  0  0  0  0  0  0  0  0  0  0  0
    2.5364   -0.2784    1.3084 H   0  0  0  0  0  0  0  0  0  0  0  0
    0.0930    0.0950    1.6574 H   0  0  0  0  0  0  0  0  0  0  0  0
    0.7393    1.2723    0.5354 H   0  0  0  0  0  0  0  0  0  0  0  0
   -0.7402   -1.2739   -0.2588 H   0  0  0  0  0  0  0  0  0  0  0  0
   -0.0938   -0.0965   -1.3808 H   0  0  0  0  0  0  0  0  0  0  0  0
   -1.6222    1.6596   -0.4287 H   0  0  0  0  0  0  0  0  0  0  0  0
   -2.2734    0.4736    0.7017 H   0  0  0  0  0  0  0  0  0  0  0  0
   -2.5373    0.2768   -1.0318 H   0  0  0  0  0  0  0  0  0  0  0  0
  1  2  1  0
  1  5  1  0
  1  6  1  0
  1  7  1  0
  2  3  1  0
  2  8  1  0
  2  9  1  0
  3  4  1  0
  3 10  1  0
  3 11  1  0
  4 12  1  0
  4 13  1  0
  4 14  1  0
M  END
>  <reaction>  (3) 
rmg_rxn_46

>  <mol_properties>  (3) 
{"0": {"label": "a_hydrogen", "atom_type": "H0"}, "1": {"label": "acceptor", "atom_type": "Cs"}}

>  <type>  (3) 
r2h

$$$$

     RDKit          3D

 22 20  0  0  0  0  0  0  0  0999 V2000
    0.7046   -2.2606   -2.2897 C   0  0  0  0  0  0  0  0  0  0  0  0
    0.2430   -2.2952   -0.8737 C   0  0  0  0  0  0  0  0  0  0  0  0
    0.3549   -1.2673   -0.1394 N   0  0  0  0  0  0  0  0  0  0  0  0
   -0.0929   -1.4027    1.1114 O   0  0  0  0  0  0  0  0  0  0  0  0
    1.4740   -3.0168   -2.4635 H   0  0  0  0  0  0  0  0  0  0  0  0
   -0.1221   -2.4791   -2.9702 H   0  0  0  0  0  0  0  0  0  0  0  0
    1.1118   -1.2800   -2.5319 H   0  0  0  0  0  0  0  0  0  0  0  0
   -0.1921   -3.2115   -0.4734 H   0  0  0  0  0  0  0  0  0  0  0  0
    0.1066   -0.3316    1.6297 H   0  0  0  0  0  0  0  0  0  0  0  0
    0.3698    0.8861    2.0510 C   0  0  0  0  0  3  0  0  0  0  0  0
    0.3176    1.7564    0.8329 C   0  0  0  0  0  0  0  0  0  0  0  0
   -1.0832    1.9100    0.2517 C   0  0  0  0  0  0  0  0  0  0  0  0
   -1.1039    2.7585   -1.0115 C   0  0  0  0  0  0  0  0  0  0  0  0
   -0.4194    1.0465    2.7856 H   0  0  0  0  0  0  0  0  0  0  0  0
    1.3510    0.7624    2.5052 H   0  0  0  0  0  0  0  0  0  0  0  0
    0.9860    1.3439    0.0701 H   0  0  0  0  0  0  0  0  0  0  0  0
    0.7219    2.7468    1.0864 H   0  0  0  0  0  0  0  0  0  0  0  0
   -1.4838    0.9167    0.0343 H   0  0  0  0  0  0  0  0  0  0  0  0
   -1.7402    2.3526    1.0071 H   0  0  0  0  0  0  0  0  0  0  0  0
   -0.4839    2.3087   -1.7904 H   0  0  0  0  0  0  0  0  0  0  0  0
   -0.7187    3.7629   -0.8190 H   0  0  0  0  0  0  0  0  0  0  0  0
   -2.1158    2.8593   -1.4068 H   0  0  0  0  0  0  0  0  0  0  0  0
  1  2  1  0
  1  5  1  0
  1  6  1  0
  1  7  1  0
  2  3  2  3
  2  8  1  0
  3  4  1  0
  4  9  1  0
 10 11  1  0
 10 14  1  0
 10 15  1  0
 11 12  1  0
 11 16  1  0
 11 17  1  0
 12 13  1  0
 12 18  1  0
 12 19  1  0
 13 20  1  0
 13 21  1  0
 13 22  1  0
M  RAD  1  10   2
M  END
>  <reaction>  (4) 
rmg_rxn_46

>  <mol_properties>  (4) 
{"2": {"label": "*0", "atom_type": "N3d"}, "3": {"label": "*1", "atom_type": "O2s"}, "8": {"label": "*2", "atom_type": "H0"}, "9": {"label": "*3", "atom_type": "Cs"}, "10": {"label": "*4", "atom_type": "Cs"}}

>  <type>  (4) 
ts

$$$$

     RDKit          3D

 22 20  0  0  0  0  0  0  0  0999 V2000
    0.7762   -1.6297   -3.6610 C   0  0  0  0  0  0  0  0  0  0  0  0
    0.7762   -1.6297   -2.1723 C   0  0  0  0  0  0  0  0  0  0  0  0
    0.7762   -0.5376   -1.5355 N   0  0  0  0  0  0  0  0  0  0  0  0
    0.7762   -0.7423   -0.1624 O   0  0  0  0  0  0  0  0  0  0  0  0
    1.6557   -2.1535   -4.0428 H   0  0  0  0  0  0  0  0  0  0  0  0
   -0.1032   -2.1535   -4.0428 H   0  0  0  0  0  0  0  0  0  0  0  0
    0.7762   -0.6100   -4.0424 H   0  0  0  0  0  0  0  0  0  0  0  0
    0.7762   -2.5772   -1.6322 H   0  0  0  0  0  0  0  0  0  0  0  0
    0.7762    0.3274    0.2610 H   0  0  0  0  0  0  0  0  0  0  0  0
    0.7762    1.5465    0.7435 C   0  0  0  0  0  3  0  0  0  0  0  0
   -0.4549    1.7921    1.6052 C   0  0  0  0  0  0  0  0  0  0  0  0
   -1.1050    0.5048    2.0989 C   0  0  0  0  0  0  0  0  0  0  0  0
   -2.3362    0.7503    2.9605 C   0  0  0  0  0  0  0  0  0  0  0  0
    1.5395    0.9966    1.2992 H   0  0  0  0  0  0  0  0  0  0  0  0
    1.2209    2.4835    0.4043 H   0  0  0  0  0  0  0  0  0  0  0  0
   -1.1911    2.3704    1.0376 H   0  0  0  0  0  0  0  0  0  0  0  0
   -0.1827    2.4095    2.4673 H   0  0  0  0  0  0  0  0  0  0  0  0
   -1.3773   -0.1126    1.2367 H   0  0  0  0  0  0  0  0  0  0  0  0
   -0.3688   -0.0735    2.6665 H   0  0  0  0  0  0  0  0  0  0  0  0
   -3.0995    1.3003    2.4048 H   0  0  0  0  0  0  0  0  0  0  0  0
   -2.0835    1.3396    3.8452 H   0  0  0  0  0  0  0  0  0  0  0  0
   -2.7808   -0.1867    3.2997 H   0  0  0  0  0  0  0  0  0  0  0  0
  1  2  1  0
  1  5  1  0
  1  6  1  0
  1  7  1  0
  2  3  2  3
  2  8  1  0
  3  4  1  0
  4  9  1  0
 10 11  1  0
 10 14  1  0
 10 15  1  0
 11 12  1  0
 11 16  1  0
 11 17  1  0
 12 13  1  0
 12 18  1  0
 12 19  1  0
 13 20  1  0
 13 21  1  0
 13 22  1  0
M  RAD  1  10   2
M  END
>  <reaction>  (5) 
rmg_rxn_46

>  <mol_properties>  (5) 
{"2": {"label": "*0", "atom_type": "N3d"}, "3": {"label": "*1", "atom_type": "O2s"}, "8": {"label": "*2", "atom_type": "H0"}, "9": {"label": "*3", "atom_type": "Cs"}, "10": {"label": "*4", "atom_type": "Cs"}}

>  <type>  (5) 
unop_1

>  <geom_source>  (5) 
Heuristics

$$$$

     RDKit          3D

 22 20  0  0  0  0  0  0  0  0999 V2000
    0.6768   -2.1659   -2.4816 C   0  0  0  0  0  0  0  0  0  0  0  0
    0.6768   -2.1659   -0.9929 C   0  0  0  0  0  0  0  0  0  0  0  0
    0.6768   -1.0738   -0.3561 N   0  0  0  0  0  0  0  0  0  0  0  0
    0.6768   -1.2785    1.0171 O   0  0  0  0  0  0  0  0  0  0  0  0
    1.5563   -2.6897   -2.8634 H   0  0  0  0  0  0  0  0  0  0  0  0
   -0.2026   -2.6897   -2.8634 H   0  0  0  0  0  0  0  0  0  0  0  0
    0.6768   -1.1462   -2.8630 H   0  0  0  0  0  0  0  0  0  0  0  0
    0.6768   -3.1134   -0.4528 H   0  0  0  0  0  0  0  0  0  0  0  0
    0.6768   -0.2088    1.4404 H   0  0  0  0  0  0  0  0  0  0  0  0
    0.6768    1.0103    1.9229 C   0  0  0  0  0  3  0  0  0  0  0  0
   -0.0340    1.9705    0.9789 C   0  0  0  0  0  0  0  0  0  0  0  0
   -1.3088    1.3865    0.3811 C   0  0  0  0  0  0  0  0  0  0  0  0
   -2.0196    2.3467   -0.5630 C   0  0  0  0  0  0  0  0  0  0  0  0
    0.0304    0.7332    2.7591 H   0  0  0  0  0  0  0  0  0  0  0  0
    1.5846    1.4533    2.3357 H   0  0  0  0  0  0  0  0  0  0  0  0
    0.6434    2.2571    0.1679 H   0  0  0  0  0  0  0  0  0  0  0  0
   -0.2789    2.8952    1.5114 H   0  0  0  0  0  0  0  0  0  0  0  0
   -1.0638    0.4618   -0.1514 H   0  0  0  0  0  0  0  0  0  0  0  0
   -1.9861    1.0999    1.1921 H   0  0  0  0  0  0  0  0  0  0  0  0
   -1.3731    2.6238   -1.3991 H   0  0  0  0  0  0  0  0  0  0  0  0
   -2.3023    3.2666   -0.0457 H   0  0  0  0  0  0  0  0  0  0  0  0
   -2.9274    1.9037   -0.9758 H   0  0  0  0  0  0  0  0  0  0  0  0
  1  2  1  0
  1  5  1  0
  1  6  1  0
  1  7  1  0
  2  3  2  3
  2  8  1  0
  3  4  1  0
  4  9  1  0
 10 11  1  0
 10 14  1  0
 10 15  1  0
 11 12  1  0
 11 16  1  0
 11 17  1  0
 12 13  1  0
 12 18  1  0
 12 19  1  0
 13 20  1  0
 13 21  1  0
 13 22  1  0
M  RAD  1  10   2
M  END
>  <reaction>  (6) 
rmg_rxn_46

>  <mol_properties>  (6) 
{"2": {"label": "*0", "atom_type": "N3d"}, "3": {"label": "*1", "atom_type": "O2s"}, "8": {"label": "*2", "atom_type": "H0"}, "9": {"label": "*3", "atom_type": "Cs"}, "10": {"label": "*4", "atom_type": "Cs"}}

>  <type>  (6) 
unop_2

>  <geom_source>  (6) 
Heuristics

$$$$

     RDKit          3D

 22 20  0  0  0  0  0  0  0  0999 V2000
    0.3187   -1.5346   -3.9770 C   0  0  0  0  0  0  0  0  0  0  0  0
    0.3187   -1.5346   -2.4883 C   0  0  0  0  0  0  0  0  0  0  0  0
    0.3187   -0.4426   -1.8515 N   0  0  0  0  0  0  0  0  0  0  0  0
    0.3187   -0.6473   -0.4783 O   0  0  0  0  0  0  0  0  0  0  0  0
    1.1981   -2.0585   -4.3588 H   0  0  0  0  0  0  0  0  0  0  0  0
   -0.5607   -2.0585   -4.3588 H   0  0  0  0  0  0  0  0  0  0  0  0
    0.3187   -0.5150   -4.3584 H   0  0  0  0  0  0  0  0  0  0  0  0
    0.3187   -2.4822   -1.9482 H   0  0  0  0  0  0  0  0  0  0  0  0
    0.3187    0.4224   -0.0550 H   0  0  0  0  0  0  0  0  0  0  0  0
    0.3187    1.6415    0.4275 C   0  0  0  0  0  3  0  0  0  0  0  0
   -0.3921    1.6956    1.7731 C   0  0  0  0  0  0  0  0  0  0  0  0
   -0.2587    0.4040    2.5715 C   0  0  0  0  0  0  0  0  0  0  0  0
   -0.9695    0.4581    3.9170 C   0  0  0  0  0  0  0  0  0  0  0  0
    1.3876    1.4555    0.5568 H   0  0  0  0  0  0  0  0  0  0  0  0
    0.2071    2.5776   -0.1221 H   0  0  0  0  0  0  0  0  0  0  0  0
   -1.4539    1.9135    1.6190 H   0  0  0  0  0  0  0  0  0  0  0  0
    0.0057    2.5258    2.3656 H   0  0  0  0  0  0  0  0  0  0  0  0
   -0.6565   -0.4262    1.9790 H   0  0  0  0  0  0  0  0  0  0  0  0
    0.8031    0.1861    2.7255 H   0  0  0  0  0  0  0  0  0  0  0  0
   -2.0384    0.6441    3.7878 H   0  0  0  0  0  0  0  0  0  0  0  0
   -0.5679    1.2609    4.5398 H   0  0  0  0  0  0  0  0  0  0  0  0
   -0.8579   -0.4780    4.4666 H   0  0  0  0  0  0  0  0  0  0  0  0
  1  2  1  0
  1  5  1  0
  1  6  1  0
  1  7  1  0
  2  3  2  3
  2  8  1  0
  3  4  1  0
  4  9  1  0
 10 11  1  0
 10 14  1  0
 10 15  1  0
 11 12  1  0
 11 16  1  0
 11 17  1  0
 12 13  1  0
 12 18  1  0
 12 19  1  0
 13 20  1  0
 13 21  1  0
 13 22  1  0
M  RAD  1  10   2
M  END
>  <reaction>  (7) 
rmg_rxn_46

>  <mol_properties>  (7) 
{"2": {"label": "*0", "atom_type": "N3d"}, "3": {"label": "*1", "atom_type": "O2s"}, "8": {"label": "*2", "atom_type": "H0"}, "9": {"label": "*3", "atom_type": "Cs"}, "10": {"label": "*4", "atom_type": "Cs"}}

>  <type>  (7) 
unop_3

>  <geom_source>  (7) 
Heuristics

$$$$

     RDKit          3D

 22 20  0  0  0  0  0  0  0  0999 V2000
   -0.5613   -2.4089   -2.5523 C   0  0  0  0  0  0  0  0  0  0  0  0
   -0.5613   -2.4089   -1.0636 C   0  0  0  0  0  0  0  0  0  0  0  0
   -0.5613   -1.3168   -0.4268 N   0  0  0  0  0  0  0  0  0  0  0  0
   -0.5613   -1.5215    0.9464 O   0  0  0  0  0  0  0  0  0  0  0  0
    0.3181   -2.9327   -2.9341 H   0  0  0  0  0  0  0  0  0  0  0  0
   -1.4407   -2.9327   -2.9341 H   0  0  0  0  0  0  0  0  0  0  0  0
   -0.5613   -1.3892   -2.9337 H   0  0  0  0  0  0  0  0  0  0  0  0
   -0.5613   -3.3564   -0.5235 H   0  0  0  0  0  0  0  0  0  0  0  0
   -0.5613   -0.4518    1.3697 H   0  0  0  0  0  0  0  0  0  0  0  0
   -0.5613    0.7673    1.8522 C   0  0  0  0  0  3  0  0  0  0  0  0
    0.6699    1.5361    1.3920 C   0  0  0  0  0  0  0  0  0  0  0  0
    0.4408    2.3133    0.1009 C   0  0  0  0  0  0  0  0  0  0  0  0
    1.6720    3.0820   -0.3593 C   0  0  0  0  0  0  0  0  0  0  0  0
   -1.4005    1.4436    2.0317 H   0  0  0  0  0  0  0  0  0  0  0  0
   -0.3696    0.2209    2.7771 H   0  0  0  0  0  0  0  0  0  0  0  0
    1.5042    0.8418    1.2490 H   0  0  0  0  0  0  0  0  0  0  0  0
    0.9839    2.2310    2.1776 H   0  0  0  0  0  0  0  0  0  0  0  0
    0.1268    1.6183   -0.6847 H   0  0  0  0  0  0  0  0  0  0  0  0
   -0.3935    3.0075    0.2439 H   0  0  0  0  0  0  0  0  0  0  0  0
    2.5112    2.4057   -0.5388 H   0  0  0  0  0  0  0  0  0  0  0  0
    1.9870    3.8052    0.3966 H   0  0  0  0  0  0  0  0  0  0  0  0
    1.4803    3.6284   -1.2842 H   0  0  0  0  0  0  0  0  0  0  0  0
  1  2  1  0
  1  5  1  0
  1  6  1  0
  1  7  1  0
  2  3  2  3
  2  8  1  0
  3  4  1  0
  4  9  1  0
 10 11  1  0
 10 14  1  0
 10 15  1  0
 11 12  1  0
 11 16  1  0
 11 17  1  0
 12 13  1  0
 12 18  1  0
 12 19  1  0
 13 20  1  0
 13 21  1  0
 13 22  1  0
M  RAD  1  10   2
M  END
>  <reaction>  (8) 
rmg_rxn_46

>  <mol_properties>  (8) 
{"2": {"label": "*0", "atom_type": "N3d"}, "3": {"label": "*1", "atom_type": "O2s"}, "8": {"label": "*2", "atom_type": "H0"}, "9": {"label": "*3", "atom_type": "Cs"}, "10": {"label": "*4", "atom_type": "Cs"}}

>  <type>  (8) 
unop_4

>  <geom_source>  (8) 
Heuristics

$$$$

     RDKit          3D

 22 20  0  0  0  0  0  0  0  0999 V2000
   -0.3031   -1.6464   -4.0115 C   0  0  0  0  0  0  0  0  0  0  0  0
   -0.3031   -1.6464   -2.5228 C   0  0  0  0  0  0  0  0  0  0  0  0
   -0.3031   -0.5543   -1.8860 N   0  0  0  0  0  0  0  0  0  0  0  0
   -0.3031   -0.7590   -0.5128 O   0  0  0  0  0  0  0  0  0  0  0  0
    0.5763   -2.1702   -4.3933 H   0  0  0  0  0  0  0  0  0  0  0  0
   -1.1825   -2.1702   -4.3933 H   0  0  0  0  0  0  0  0  0  0  0  0
   -0.3031   -0.6267   -4.3929 H   0  0  0  0  0  0  0  0  0  0  0  0
   -0.3031   -2.5939   -1.9827 H   0  0  0  0  0  0  0  0  0  0  0  0
   -0.3031    0.3107   -0.0895 H   0  0  0  0  0  0  0  0  0  0  0  0
   -0.3031    1.5298    0.3930 C   0  0  0  0  0  3  0  0  0  0  0  0
   -0.3031    1.5138    1.9156 C   0  0  0  0  0  0  0  0  0  0  0  0
    0.9088    0.8018    2.5055 C   0  0  0  0  0  0  0  0  0  0  0  0
    0.9088    0.7857    4.0282 C   0  0  0  0  0  0  0  0  0  0  0  0
    0.5841    2.0373    0.0070 H   0  0  0  0  0  0  0  0  0  0  0  0
   -1.1803    2.0448   -0.0019 H   0  0  0  0  0  0  0  0  0  0  0  0
   -1.2152    1.0285    2.2779 H   0  0  0  0  0  0  0  0  0  0  0  0
   -0.3345    2.5407    2.2938 H   0  0  0  0  0  0  0  0  0  0  0  0
    0.9401   -0.2252    2.1274 H   0  0  0  0  0  0  0  0  0  0  0  0
    1.8208    1.2871    2.1433 H   0  0  0  0  0  0  0  0  0  0  0  0
    0.0215    0.2782    4.4142 H   0  0  0  0  0  0  0  0  0  0  0  0
    0.9088    1.8017    4.4302 H   0  0  0  0  0  0  0  0  0  0  0  0
    1.7860    0.2707    4.4231 H   0  0  0  0  0  0  0  0  0  0  0  0
  1  2  1  0
  1  5  1  0
  1  6  1  0
  1  7  1  0
  2  3  2  3
  2  8  1  0
  3  4  1  0
  4  9  1  0
 10 11  1  0
 10 14  1  0
 10 15  1  0
 11 12  1  0
 11 16  1  0
 11 17  1  0
 12 13  1  0
 12 18  1  0
 12 19  1  0
 13 20  1  0
 13 21  1  0
 13 22  1  0
M  RAD  1  10   2
M  END
>  <reaction>  (9) 
rmg_rxn_46

>  <mol_properties>  (9) 
{"2": {"label": "*0", "atom_type": "N3d"}, "3": {"label": "*1", "atom_type": "O2s"}, "8": {"label": "*2", "atom_type": "H0"}, "9": {"label": "*3", "atom_type": "Cs"}, "10": {"label": "*4", "atom_type": "Cs"}}

>  <type>  (9) 
unop_5

>  <geom_source>  (9) 
Heuristics

$$$$

     RDKit          3D

 22 20  0  0  0  0  0  0  0  0999 V2000
   -0.8316   -2.3074   -2.9238 C   0  0  0  0  0  0  0  0  0  0  0  0
   -0.8316   -2.3074   -1.4351 C   0  0  0  0  0  0  0  0  0  0  0  0
   -0.8316   -1.2153   -0.7983 N   0  0  0  0  0  0  0  0  0  0  0  0
   -0.8316   -1.4200    0.5749 O   0  0  0  0  0  0  0  0  0  0  0  0
    0.0478   -2.8312   -3.3056 H   0  0  0  0  0  0  0  0  0  0  0  0
   -1.7110   -2.8312   -3.3056 H   0  0  0  0  0  0  0  0  0  0  0  0
   -0.8316   -1.2877   -3.3052 H   0  0  0  0  0  0  0  0  0  0  0  0
   -0.8316   -3.2549   -0.8950 H   0  0  0  0  0  0  0  0  0  0  0  0
   -0.8316   -0.3503    0.9982 H   0  0  0  0  0  0  0  0  0  0  0  0
   -0.8316    0.8688    1.4807 C   0  0  0  0  0  3  0  0  0  0  0  0
    0.5900    1.3759    1.6815 C   0  0  0  0  0  0  0  0  0  0  0  0
    1.0689    2.2757    0.5480 C   0  0  0  0  0  0  0  0  0  0  0  0
    2.4906    2.7828    0.7488 C   0  0  0  0  0  0  0  0  0  0  0  0
   -1.5377    1.6998    1.4132 H   0  0  0  0  0  0  0  0  0  0  0  0
   -1.1483    0.2282    2.3054 H   0  0  0  0  0  0  0  0  0  0  0  0
    1.2732    0.5258    1.7771 H   0  0  0  0  0  0  0  0  0  0  0  0
    0.6541    1.9251    2.6264 H   0  0  0  0  0  0  0  0  0  0  0  0
    1.0048    1.7265   -0.3969 H   0  0  0  0  0  0  0  0  0  0  0  0
    0.3857    3.1258    0.4524 H   0  0  0  0  0  0  0  0  0  0  0  0
    3.1967    1.9518    0.8163 H   0  0  0  0  0  0  0  0  0  0  0  0
    2.5730    3.3615    1.6719 H   0  0  0  0  0  0  0  0  0  0  0  0
    2.8073    3.4234   -0.0759 H   0  0  0  0  0  0  0  0  0  0  0  0
  1  2  1  0
  1  5  1  0
  1  6  1  0
  1  7  1  0
  2  3  2  3
  2  8  1  0
  3  4  1  0
  4  9  1  0
 10 11  1  0
 10 14  1  0
 10 15  1  0
 11 12  1  0
 11 16  1  0
 11 17  1  0
 12 13  1  0
 12 18  1  0
 12 19  1  0
 13 20  1  0
 13 21  1  0
 13 22  1  0
M  RAD  1  10   2
M  END
>  <reaction>  (10) 
rmg_rxn_46

>  <mol_properties>  (10) 
{"2": {"label": "*0", "atom_type": "N3d"}, "3": {"label": "*1", "atom_type": "O2s"}, "8": {"label": "*2", "atom_type": "H0"}, "9": {"label": "*3", "atom_type": "Cs"}, "10": {"label": "*4", "atom_type": "Cs"}}

>  <type>  (10) 
unop_6

>  <geom_source>  (10) 
Heuristics

$$$$

     RDKit          3D

 22 20  0  0  0  0  0  0  0  0999 V2000
   -0.8896   -2.1397   -3.3536 C   0  0  0  0  0  0  0  0  0  0  0  0
   -0.8896   -2.1397   -1.8650 C   0  0  0  0  0  0  0  0  0  0  0  0
   -0.8896   -1.0476   -1.2282 N   0  0  0  0  0  0  0  0  0  0  0  0
   -0.8896   -1.2523    0.1450 O   0  0  0  0  0  0  0  0  0  0  0  0
   -0.0102   -2.6635   -3.7354 H   0  0  0  0  0  0  0  0  0  0  0  0
   -1.7690   -2.6635   -3.7354 H   0  0  0  0  0  0  0  0  0  0  0  0
   -0.8896   -1.1200   -3.7351 H   0  0  0  0  0  0  0  0  0  0  0  0
   -0.8896   -3.0872   -1.3248 H   0  0  0  0  0  0  0  0  0  0  0  0
   -0.8896   -0.1826    0.5684 H   0  0  0  0  0  0  0  0  0  0  0  0
   -0.8896    1.0365    1.0509 C   0  0  0  0  0  3  0  0  0  0  0  0
    0.3416    1.2821    1.9125 C   0  0  0  0  0  0  0  0  0  0  0  0
    1.4450    2.0340    1.1773 C   0  0  0  0  0  0  0  0  0  0  0  0
    2.6762    2.2796    2.0390 C   0  0  0  0  0  0  0  0  0  0  0  0
   -1.3210    1.9796    0.7068 H   0  0  0  0  0  0  0  0  0  0  0  0
   -1.6624    0.4974    1.6012 H   0  0  0  0  0  0  0  0  0  0  0  0
    0.7366    0.3255    2.2698 H   0  0  0  0  0  0  0  0  0  0  0  0
    0.0576    1.8466    2.8065 H   0  0  0  0  0  0  0  0  0  0  0  0
    1.7290    1.4694    0.2833 H   0  0  0  0  0  0  0  0  0  0  0  0
    1.0500    2.9905    0.8200 H   0  0  0  0  0  0  0  0  0  0  0  0
    3.1075    1.3365    2.3830 H   0  0  0  0  0  0  0  0  0  0  0  0
    2.4235    2.8689    2.9236 H   0  0  0  0  0  0  0  0  0  0  0  0
    3.4490    2.8187    1.4886 H   0  0  0  0  0  0  0  0  0  0  0  0
  1  2  1  0
  1  5  1  0
  1  6  1  0
  1  7  1  0
  2  3  2  3
  2  8  1  0
  3  4  1  0
  4  9  1  0
 10 11  1  0
 10 14  1  0
 10 15  1  0
 11 12  1  0
 11 16  1  0
 11 17  1  0
 12 13  1  0
 12 18  1  0
 12 19  1  0
 13 20  1  0
 13 21  1  0
 13 22  1  0
M  RAD  1  10   2
M  END
>  <reaction>  (11) 
rmg_rxn_46

>  <mol_properties>  (11) 
{"2": {"label": "*0", "atom_type": "N3d"}, "3": {"label": "*1", "atom_type": "O2s"}, "8": {"label": "*2", "atom_type": "H0"}, "9": {"label": "*3", "atom_type": "Cs"}, "10": {"label": "*4", "atom_type": "Cs"}}

>  <type>  (11) 
unop_7

>  <geom_source>  (11) 
Heuristics

$$$$

     RDKit          3D

 22 20  0  0  0  0  0  0  0  0999 V2000
    0.9690   -1.8017   -3.2285 C   0  0  0  0  0  0  0  0  0  0  0  0
    0.9690   -1.8017   -1.7399 C   0  0  0  0  0  0  0  0  0  0  0  0
    0.9690   -0.7096   -1.1031 N   0  0  0  0  0  0  0  0  0  0  0  0
    0.9690   -0.9143    0.2701 O   0  0  0  0  0  0  0  0  0  0  0  0
    1.8484   -2.3255   -3.6103 H   0  0  0  0  0  0  0  0  0  0  0  0
    0.0896   -2.3255   -3.6103 H   0  0  0  0  0  0  0  0  0  0  0  0
    0.9690   -0.7820   -3.6099 H   0  0  0  0  0  0  0  0  0  0  0  0
    0.9690   -2.7492   -1.1997 H   0  0  0  0  0  0  0  0  0  0  0  0
    0.9690    0.1554    0.6935 H   0  0  0  0  0  0  0  0  0  0  0  0
    0.9690    1.3745    1.1760 C   0  0  0  0  0  3  0  0  0  0  0  0
   -0.4527    1.8816    1.3767 C   0  0  0  0  0  0  0  0  0  0  0  0
   -1.4808    0.7595    1.4618 C   0  0  0  0  0  0  0  0  0  0  0  0
   -2.9025    1.2666    1.6625 C   0  0  0  0  0  0  0  0  0  0  0  0
    1.2730    0.7252    2.0005 H   0  0  0  0  0  0  0  0  0  0  0  0
    1.6833    2.1974    1.1187 H   0  0  0  0  0  0  0  0  0  0  0  0
   -0.7225    2.5532    0.5553 H   0  0  0  0  0  0  0  0  0  0  0  0
   -0.5025    2.4832    2.2901 H   0  0  0  0  0  0  0  0  0  0  0  0
   -1.4309    0.1579    0.5484 H   0  0  0  0  0  0  0  0  0  0  0  0
   -1.2110    0.0878    2.2832 H   0  0  0  0  0  0  0  0  0  0  0  0
   -3.2065    1.9158    0.8379 H   0  0  0  0  0  0  0  0  0  0  0  0
   -2.9849    1.8453    2.5856 H   0  0  0  0  0  0  0  0  0  0  0  0
   -3.6168    0.4437    1.7198 H   0  0  0  0  0  0  0  0  0  0  0  0
  1  2  1  0
  1  5  1  0
  1  6  1  0
  1  7  1  0
  2  3  2  3
  2  8  1  0
  3  4  1  0
  4  9  1  0
 10 11  1  0
 10 14  1  0
 10 15  1  0
 11 12  1  0
 11 16  1  0
 11 17  1  0
 12 13  1  0
 12 18  1  0
 12 19  1  0
 13 20  1  0
 13 21  1  0
 13 22  1  0
M  RAD  1  10   2
M  END
>  <reaction>  (12) 
rmg_rxn_46

>  <mol_properties>  (12) 
{"2": {"label": "*0", "atom_type": "N3d"}, "3": {"label": "*1", "atom_type": "O2s"}, "8": {"label": "*2", "atom_type": "H0"}, "9": {"label": "*3", "atom_type": "Cs"}, "10": {"label": "*4", "atom_type": "Cs"}}

>  <type>  (12) 
unop_8

>  <geom_source>  (12) 
Heuristics

$$$$

     RDKit          3D

 22 20  0  0  0  0  0  0  0  0999 V2000
   -0.1441   -2.4136   -2.3323 C   0  0  0  0  0  0  0  0  0  0  0  0
   -0.1441   -2.4136   -0.8437 C   0  0  0  0  0  0  0  0  0  0  0  0
   -0.1441   -1.3215   -0.2069 N   0  0  0  0  0  0  0  0  0  0  0  0
   -0.1441   -1.5262    1.1663 O   0  0  0  0  0  0  0  0  0  0  0  0
    0.7353   -2.9374   -2.7141 H   0  0  0  0  0  0  0  0  0  0  0  0
   -1.0235   -2.9374   -2.7142 H   0  0  0  0  0  0  0  0  0  0  0  0
   -0.1441   -1.3939   -2.7138 H   0  0  0  0  0  0  0  0  0  0  0  0
   -0.1441   -3.3611   -0.3035 H   0  0  0  0  0  0  0  0  0  0  0  0
   -0.1441   -0.4565    1.5897 H   0  0  0  0  0  0  0  0  0  0  0  0
   -0.1441    0.7626    2.0722 C   0  0  0  0  0  3  0  0  0  0  0  0
    0.5668    1.7229    1.1281 C   0  0  0  0  0  0  0  0  0  0  0  0
   -0.2887    2.1290   -0.0664 C   0  0  0  0  0  0  0  0  0  0  0  0
    0.4222    3.0893   -1.0105 C   0  0  0  0  0  0  0  0  0  0  0  0
   -1.0572    1.2105    2.4714 H   0  0  0  0  0  0  0  0  0  0  0  0
    0.4901    0.4888    2.9169 H   0  0  0  0  0  0  0  0  0  0  0  0
    1.4927    1.2642    0.7663 H   0  0  0  0  0  0  0  0  0  0  0  0
    0.8669    2.6219    1.6761 H   0  0  0  0  0  0  0  0  0  0  0  0
   -0.5888    1.2300   -0.6143 H   0  0  0  0  0  0  0  0  0  0  0  0
   -1.2146    2.5877    0.2955 H   0  0  0  0  0  0  0  0  0  0  0  0
    1.3353    2.6414   -1.4097 H   0  0  0  0  0  0  0  0  0  0  0  0
    0.7049    4.0092   -0.4932 H   0  0  0  0  0  0  0  0  0  0  0  0
   -0.2120    3.3630   -1.8552 H   0  0  0  0  0  0  0  0  0  0  0  0
  1  2  1  0
  1  5  1  0
  1  6  1  0
  1  7  1  0
  2  3  2  3
  2  8  1  0
  3  4  1  0
  4  9  1  0
 10 11  1  0
 10 14  1  0
 10 15  1  0
 11 12  1  0
 11 16  1  0
 11 17  1  0
 12 13  1  0
 12 18  1  0
 12 19  1  0
 13 20  1  0
 13 21  1  0
 13 22  1  0
M  RAD  1  10   2
M  END
>  <reaction>  (13) 
rmg_rxn_46

>  <mol_properties>  (13) 
{"2": {"label": "*0", "atom_type": "N3d"}, "3": {"label": "*1", "atom_type": "O2s"}, "8": {"label": "*2", "atom_type": "H0"}, "9": {"label": "*3", "atom_type": "Cs"}, "10": {"label": "*4", "atom_type": "Cs"}}

>  <type>  (13) 
unop_9

>  <geom_source>  (13) 
Heuristics

$$$$

     RDKit          3D

 22 20  0  0  0  0  0  0  0  0999 V2000
    0.9180   -1.9891   -2.8053 C   0  0  0  0  0  0  0  0  0  0  0  0
    0.9180   -1.9891   -1.3166 C   0  0  0  0  0  0  0  0  0  0  0  0
    0.9180   -0.8970   -0.6798 N   0  0  0  0  0  0  0  0  0  0  0  0
    0.9180   -1.1017    0.6934 O   0  0  0  0  0  0  0  0  0  0  0  0
    1.7974   -2.5129   -3.1871 H   0  0  0  0  0  0  0  0  0  0  0  0
    0.0386   -2.5129   -3.1871 H   0  0  0  0  0  0  0  0  0  0  0  0
    0.9180   -0.9694   -3.1867 H   0  0  0  0  0  0  0  0  0  0  0  0
    0.9180   -2.9366   -0.7765 H   0  0  0  0  0  0  0  0  0  0  0  0
    0.9180   -0.0320    1.1168 H   0  0  0  0  0  0  0  0  0  0  0  0
    0.9180    1.1871    1.5993 C   0  0  0  0  0  3  0  0  0  0  0  0
   -0.3132    1.9559    1.1390 C   0  0  0  0  0  0  0  0  0  0  0  0
   -1.5103    1.0546    0.8594 C   0  0  0  0  0  0  0  0  0  0  0  0
   -2.7415    1.8233    0.3992 C   0  0  0  0  0  0  0  0  0  0  0  0
    0.7131    0.6345    2.5193 H   0  0  0  0  0  0  0  0  0  0  0  0
    1.7586    1.8557    1.7920 H   0  0  0  0  0  0  0  0  0  0  0  0
   -0.0742    2.5249    0.2348 H   0  0  0  0  0  0  0  0  0  0  0  0
   -0.5903    2.6942    1.8984 H   0  0  0  0  0  0  0  0  0  0  0  0
   -1.2332    0.3162    0.1001 H   0  0  0  0  0  0  0  0  0  0  0  0
   -1.7493    0.4856    1.7637 H   0  0  0  0  0  0  0  0  0  0  0  0
   -2.5365    2.3759   -0.5208 H   0  0  0  0  0  0  0  0  0  0  0  0
   -3.0565    2.5465    1.1552 H   0  0  0  0  0  0  0  0  0  0  0  0
   -3.5820    1.1547    0.2065 H   0  0  0  0  0  0  0  0  0  0  0  0
  1  2  1  0
  1  5  1  0
  1  6  1  0
  1  7  1  0
  2  3  2  3
  2  8  1  0
  3  4  1  0
  4  9  1  0
 10 11  1  0
 10 14  1  0
 10 15  1  0
 11 12  1  0
 11 16  1  0
 11 17  1  0
 12 13  1  0
 12 18  1  0
 12 19  1  0
 13 20  1  0
 13 21  1  0
 13 22  1  0
M  RAD  1  10   2
M  END
>  <reaction>  (14) 
rmg_rxn_46

>  <mol_properties>  (14) 
{"2": {"label": "*0", "atom_type": "N3d"}, "3": {"label": "*1", "atom_type": "O2s"}, "8": {"label": "*2", "atom_type": "H0"}, "9": {"label": "*3", "atom_type": "Cs"}, "10": {"label": "*4", "atom_type": "Cs"}}

>  <type>  (14) 
unop_10

>  <geom_source>  (14) 
Heuristics

$$$$

     RDKit          3D

 22 20  0  0  0  0  0  0  0  0999 V2000
   -0.7271   -1.9183   -3.7458 C   0  0  0  0  0  0  0  0  0  0  0  0
   -0.7271   -1.9183   -2.2571 C   0  0  0  0  0  0  0  0  0  0  0  0
   -0.7271   -0.8262   -1.6203 N   0  0  0  0  0  0  0  0  0  0  0  0
   -0.7271   -1.0309   -0.2471 O   0  0  0  0  0  0  0  0  0  0  0  0
    0.1523   -2.4421   -4.1276 H   0  0  0  0  0  0  0  0  0  0  0  0
   -1.6066   -2.4421   -4.1276 H   0  0  0  0  0  0  0  0  0  0  0  0
   -0.7271   -0.8986   -4.1272 H   0  0  0  0  0  0  0  0  0  0  0  0
   -0.7271   -2.8658   -1.7170 H   0  0  0  0  0  0  0  0  0  0  0  0
   -0.7271    0.0388    0.1762 H   0  0  0  0  0  0  0  0  0  0  0  0
   -0.7271    1.2579    0.6587 C   0  0  0  0  0  3  0  0  0  0  0  0
   -0.0163    1.3120    2.0042 C   0  0  0  0  0  0  0  0  0  0  0  0
    1.4833    1.5543    1.8783 C   0  0  0  0  0  0  0  0  0  0  0  0
    2.1942    1.6084    3.2238 C   0  0  0  0  0  0  0  0  0  0  0  0
   -0.6004    2.1949    0.1112 H   0  0  0  0  0  0  0  0  0  0  0  0
   -1.7977    1.0836    0.7782 H   0  0  0  0  0  0  0  0  0  0  0  0
   -0.1836    0.3754    2.5460 H   0  0  0  0  0  0  0  0  0  0  0  0
   -0.4564    2.1025    2.6207 H   0  0  0  0  0  0  0  0  0  0  0  0
    1.9235    0.7638    1.2618 H   0  0  0  0  0  0  0  0  0  0  0  0
    1.6506    2.4909    1.3366 H   0  0  0  0  0  0  0  0  0  0  0  0
    2.0674    0.6714    3.7713 H   0  0  0  0  0  0  0  0  0  0  0  0
    1.7926    2.4112    3.8466 H   0  0  0  0  0  0  0  0  0  0  0  0
    3.2647    1.7826    3.1043 H   0  0  0  0  0  0  0  0  0  0  0  0
  1  2  1  0
  1  5  1  0
  1  6  1  0
  1  7  1  0
  2  3  2  3
  2  8  1  0
  3  4  1  0
  4  9  1  0
 10 11  1  0
 10 14  1  0
 10 15  1  0
 11 12  1  0
 11 16  1  0
 11 17  1  0
 12 13  1  0
 12 18  1  0
 12 19  1  0
 13 20  1  0
 13 21  1  0
 13 22  1  0
M  RAD  1  10   2
M  END
>  <reaction>  (15) 
rmg_rxn_46

>  <mol_properties>  (15) 
{"2": {"label": "*0", "atom_type": "N3d"}, "3": {"label": "*1", "atom_type": "O2s"}, "8": {"label": "*2", "atom_type": "H0"}, "9": {"label": "*3", "atom_type": "Cs"}, "10": {"label": "*4", "atom_type": "Cs"}}

>  <type>  (15) 
unop_11

>  <geom_source>  (15) 
Heuristics

$$$$

     RDKit          3D

 22 20  0  0  0  0  0  0  0  0999 V2000
    0.3031   -2.3190   -2.3121 C   0  0  0  0  0  0  0  0  0  0  0  0
    0.3031   -2.3190   -0.8234 C   0  0  0  0  0  0  0  0  0  0  0  0
    0.3031   -1.2269   -0.1866 N   0  0  0  0  0  0  0  0  0  0  0  0
    0.3031   -1.4316    1.1866 O   0  0  0  0  0  0  0  0  0  0  0  0
    1.1825   -2.8428   -2.6939 H   0  0  0  0  0  0  0  0  0  0  0  0
   -0.5763   -2.8428   -2.6939 H   0  0  0  0  0  0  0  0  0  0  0  0
    0.3031   -1.2993   -2.6935 H   0  0  0  0  0  0  0  0  0  0  0  0
    0.3031   -3.2665   -0.2833 H   0  0  0  0  0  0  0  0  0  0  0  0
    0.3031   -0.3619    1.6099 H   0  0  0  0  0  0  0  0  0  0  0  0
    0.3031    0.8572    2.0925 C   0  0  0  0  0  3  0  0  0  0  0  0
    0.3031    1.8875    0.9713 C   0  0  0  0  0  0  0  0  0  0  0  0
   -0.9088    1.7721    0.0539 C   0  0  0  0  0  0  0  0  0  0  0  0
   -0.9088    2.8024   -1.0673 C   0  0  0  0  0  0  0  0  0  0  0  0
   -0.5841    0.9630    2.7213 H   0  0  0  0  0  0  0  0  0  0  0  0
    1.1803    0.9624    2.7329 H   0  0  0  0  0  0  0  0  0  0  0  0
    1.2152    1.7816    0.3751 H   0  0  0  0  0  0  0  0  0  0  0  0
    0.3345    2.8951    1.3984 H   0  0  0  0  0  0  0  0  0  0  0  0
   -0.9401    0.7645   -0.3732 H   0  0  0  0  0  0  0  0  0  0  0  0
   -1.8208    1.8780    0.6501 H   0  0  0  0  0  0  0  0  0  0  0  0
   -0.0215    2.6966   -1.6961 H   0  0  0  0  0  0  0  0  0  0  0  0
   -0.9088    3.8184   -0.6652 H   0  0  0  0  0  0  0  0  0  0  0  0
   -1.7860    2.6972   -1.7077 H   0  0  0  0  0  0  0  0  0  0  0  0
  1  2  1  0
  1  5  1  0
  1  6  1  0
  1  7  1  0
  2  3  2  3
  2  8  1  0
  3  4  1  0
  4  9  1  0
 10 11  1  0
 10 14  1  0
 10 15  1  0
 11 12  1  0
 11 16  1  0
 11 17  1  0
 12 13  1  0
 12 18  1  0
 12 19  1  0
 13 20  1  0
 13 21  1  0
 13 22  1  0
M  RAD  1  10   2
M  END
>  <reaction>  (16) 
rmg_rxn_46

>  <mol_properties>  (16) 
{"2": {"label": "*0", "atom_type": "N3d"}, "3": {"label": "*1", "atom_type": "O2s"}, "8": {"label": "*2", "atom_type": "H0"}, "9": {"label": "*3", "atom_type": "Cs"}, "10": {"label": "*4", "atom_type": "Cs"}}

>  <type>  (16) 
unop_12

>  <geom_source>  (16) 
Heuristics

$$$$

     RDKit          3D

 22 20  0  0  0  0  0  0  0  0999 V2000
    1.3939    0.1199   -2.1193 O   0  0  0  0  0  1  0  0  0  0  0  0
    2.5233   -0.2821   -1.4457 N   0  0  0  0  0  2  0  0  0  0  0  0
   -1.1003    0.7063   -0.3766 C   0  0  0  0  0  0  0  0  0  0  0  0
   -2.2451    0.3884    0.5914 C   0  0  0  0  0  0  0  0  0  0  0  0
   -0.8026   -0.4810   -1.2867 C   0  0  0  0  0  0  0  0  0  0  0  0
   -2.5425    1.5764    1.5015 C   0  0  0  0  0  0  0  0  0  0  0  0
    3.6554   -1.3122    0.4284 C   0  0  0  0  0  0  0  0  0  0  0  0
    2.4290   -0.8766   -0.3010 C   0  0  0  0  0  3  0  0  0  0  0  0
   -0.1818    0.9574    0.1973 H   0  0  0  0  0  0  0  0  0  0  0  0
   -1.3727    1.5813   -1.0062 H   0  0  0  0  0  0  0  0  0  0  0  0
   -1.9722   -0.4870    1.2204 H   0  0  0  0  0  0  0  0  0  0  0  0
   -3.1633    0.1369    0.0168 H   0  0  0  0  0  0  0  0  0  0  0  0
   -0.5016   -1.3640   -0.6836 H   0  0  0  0  0  0  0  0  0  0  0  0
   -1.6978   -0.7374   -1.8924 H   0  0  0  0  0  0  0  0  0  0  0  0
    0.0974   -0.1985   -2.0309 H   0  0  0  0  0  0  0  0  0  0  0  0
   -2.8428    2.4593    0.8979 H   0  0  0  0  0  0  0  0  0  0  0  0
   -1.6467    1.8328    2.1065 H   0  0  0  0  0  0  0  0  0  0  0  0
   -3.3741    1.3179    2.1905 H   0  0  0  0  0  0  0  0  0  0  0  0
    4.5721   -1.0534   -0.1439 H   0  0  0  0  0  0  0  0  0  0  0  0
    3.6932   -0.8100    1.4173 H   0  0  0  0  0  0  0  0  0  0  0  0
    3.6226   -2.4110    0.5801 H   0  0  0  0  0  0  0  0  0  0  0  0
    1.4564   -1.0634    0.1382 H   0  0  0  0  0  0  0  0  0  0  0  0
  1  2  1  0
  2  8  1  0
  3  9  1  0
  3  4  1  0
  3  5  1  0
  3 10  1  0
  4 12  1  0
  4 11  1  0
  4  6  1  0
  5 13  1  0
  5 15  1  0
  5 14  1  0
  6 17  1  0
  6 18  1  0
  6 16  1  0
  7 19  1  0
  7  8  1  0
  7 21  1  0
  7 20  1  0
  8 22  1  0
M  RAD  3   1   2   2   2   8   2
M  END
>  <reaction>  (17) 
rmg_rxn_46

>  <mol_properties>  (17) 
{"2": {"label": "*0", "atom_type": "N3d"}, "3": {"label": "*1", "atom_type": "O2s"}, "8": {"label": "*2", "atom_type": "H0"}, "9": {"label": "*3", "atom_type": "Cs"}, "10": {"label": "*4", "atom_type": "Cs"}}

>  <type>  (17) 
unop_13

>  <geom_source>  (17) 
AutoTST

$$$$

     RDKit          3D

 22 20  0  0  0  0  0  0  0  0999 V2000
    0.6768   -2.1659   -2.4816 C   0  0  0  0  0  0  0  0  0  0  0  0
    0.6768   -2.1659   -0.9929 C   0  0  0  0  0  0  0  0  0  0  0  0
    0.6768   -1.0738   -0.3561 N   0  0  0  0  0  0  0  0  0  0  0  0
    0.6768   -1.2785    1.0171 O   0  0  0  0  0  0  0  0  0  0  0  0
    1.5563   -2.6897   -2.8634 H   0  0  0  0  0  0  0  0  0  0  0  0
   -0.2026   -2.6897   -2.8634 H   0  0  0  0  0  0  0  0  0  0  0  0
    0.6768   -1.1462   -2.8630 H   0  0  0  0  0  0  0  0  0  0  0  0
    0.6768   -3.1134   -0.4528 H   0  0  0  0  0  0  0  0  0  0  0  0
    0.6768   -0.2088    1.4404 H   0  0  0  0  0  0  0  0  0  0  0  0
    0.6768    1.0103    1.9229 C   0  0  0  0  0  3  0  0  0  0  0  0
   -0.0340    1.9705    0.9788 C   0  0  0  0  0  0  0  0  0  0  0  0
   -1.3088    1.3864    0.3811 C   0  0  0  0  0  0  0  0  0  0  0  0
   -2.0196    2.3467   -0.5630 C   0  0  0  0  0  0  0  0  0  0  0  0
    0.0304    0.7332    2.7590 H   0  0  0  0  0  0  0  0  0  0  0  0
    1.5846    1.4533    2.3357 H   0  0  0  0  0  0  0  0  0  0  0  0
    0.6434    2.2571    0.1679 H   0  0  0  0  0  0  0  0  0  0  0  0
   -0.2789    2.8952    1.5114 H   0  0  0  0  0  0  0  0  0  0  0  0
   -1.0638    0.4618   -0.1514 H   0  0  0  0  0  0  0  0  0  0  0  0
   -1.9861    1.0999    1.1921 H   0  0  0  0  0  0  0  0  0  0  0  0
   -1.3732    2.6238   -1.3991 H   0  0  0  0  0  0  0  0  0  0  0  0
   -2.3023    3.2666   -0.0457 H   0  0  0  0  0  0  0  0  0  0  0  0
   -2.9274    1.9037   -0.9758 H   0  0  0  0  0  0  0  0  0  0  0  0
  1  2  1  0
  1  5  1  0
  1  6  1  0
  1  7  1  0
  2  3  2  3
  2  8  1  0
  3  4  1  0
  4  9  1  0
 10 11  1  0
 10 14  1  0
 10 15  1  0
 11 12  1  0
 11 16  1  0
 11 17  1  0
 12 13  1  0
 12 18  1  0
 12 19  1  0
 13 20  1  0
 13 21  1  0
 13 22  1  0
M  RAD  1  10   2
M  END
>  <reaction>  (18) 
rmg_rxn_46

>  <mol_properties>  (18) 
{"2": {"label": "*0", "atom_type": "N3d"}, "3": {"label": "*1", "atom_type": "O2s"}, "8": {"label": "*2", "atom_type": "H0"}, "9": {"label": "*3", "atom_type": "Cs"}, "10": {"label": "*4", "atom_type": "Cs"}}

>  <type>  (18) 
unop_14

>  <geom_source>  (18) 
gaussian_log

$$$$
