
     RDKit          3D

  9  8  0  0  0  0  0  0  0  0999 V2000
   -1.5470   -0.0755   -0.1976 C   0  0  0  0  0  0  0  0  0  0  0  0
   -0.2885    0.4507    0.1749 O   0  0  0  0  0  0  0  0  0  0  0  0
   -0.1502    1.7216   -0.3294 N   0  0  0  0  0  0  0  0  0  0  0  0
    0.9626    2.2353   -0.0219 C   0  0  0  0  0  0  0  0  0  0  0  0
   -1.6392   -0.1356   -1.2844 H   0  0  0  0  0  0  0  0  0  0  0  0
   -2.3597    0.5337    0.2044 H   0  0  0  0  0  0  0  0  0  0  0  0
   -1.5879   -1.0750    0.2318 H   0  0  0  0  0  0  0  0  0  0  0  0
    1.1497    3.2381   -0.3820 H   0  0  0  0  0  0  0  0  0  0  0  0
    1.7060    1.7101    0.5739 H   0  0  0  0  0  0  0  0  0  0  0  0
  1  2  1  0
  1  5  1  0
  1  6  1  0
  1  7  1  0
  2  3  1  0
  3  4  2  3
  4  8  1  0
  4  9  1  0
M  END
>  <reaction>  (1) 
rmg_rxn_15603

>  <mol_properties>  (1) 
{"0": {"label": "donator", "atom_type": "Cs"}, "4": {"label": "d_hydrogen", "atom_type": "H0"}}

>  <type>  (1) 
r1h

$$$$

     RDKit          3D

 13 13  0  0  0  0  0  0  0  0999 V2000
    0.5794    1.5990    0.2108 C   0  0  0  0  0  3  0  0  0  0  0  0
    1.4528    0.6621   -0.2496 O   0  0  0  0  0  0  0  0  0  0  0  0
    1.0751   -0.6763    0.0423 C   0  0  0  0  0  0  0  0  0  0  0  0
   -0.3579   -0.9282   -0.3924 C   0  0  0  0  0  0  0  0  0  0  0  0
   -1.2426    0.1393    0.2269 C   0  0  0  0  0  0  0  0  0  0  0  0
   -0.7410    1.4341   -0.0749 O   0  0  0  0  0  0  0  0  0  0  0  0
    0.9183    2.6078    0.0084 H   0  0  0  0  0  0  0  0  0  0  0  0
    1.1839   -0.8508    1.1199 H   0  0  0  0  0  0  0  0  0  0  0  0
    1.7816   -1.3130   -0.4874 H   0  0  0  0  0  0  0  0  0  0  0  0
   -0.6818   -1.9210   -0.0736 H   0  0  0  0  0  0  0  0  0  0  0  0
   -0.4271   -0.8785   -1.4810 H   0  0  0  0  0  0  0  0  0  0  0  0
   -1.2832    0.0173    1.3164 H   0  0  0  0  0  0  0  0  0  0  0  0
   -2.2575    0.1083   -0.1657 H   0  0  0  0  0  0  0  0  0  0  0  0
  1  2  1  0
  1  6  1  0
  1  7  1  0
  2  3  1  0
  3  4  1  0
  3  8  1  0
  3  9  1  0
  4  5  1  0
  4 10  1  0
  4 11  1  0
  5  6  1  0
  5 12  1  0
  5 13  1  0
M  RAD  1   1   2
M  END
>  <reaction>  (2) 
rmg_rxn_15603

>  <mol_properties>  (2) 
{"0": {"label": "acceptor", "atom_type": "Cs"}}

>  <type>  (2) 
r2

$$$$

     RDKit          3D

 14 14  0  0  0  0  0  0  0  0999 V2000
   -1.1778    0.2241    0.1818 C   0  0  0  0  0  0  0  0  0  0  0  0
   -0.5633   -1.1636    0.0678 C   0  0  0  0  0  0  0  0  0  0  0  0
    0.6943   -1.1996    0.7146 O   0  0  0  0  0  0  0  0  0  0  0  0
    1.5547   -0.2288    0.2011 C   0  0  0  0  0  0  0  0  0  0  0  0
    1.0729    1.0696    0.3698 O   0  0  0  0  0  0  0  0  0  0  0  0
   -0.1607    1.2493   -0.2989 C   0  0  0  0  0  0  0  0  0  0  0  0
   -2.0927    0.2866   -0.4117 H   0  0  0  0  0  0  0  0  0  0  0  0
   -1.4303    0.4248    1.2248 H   0  0  0  0  0  0  0  0  0  0  0  0
   -1.1822   -1.9235    0.5431 H   0  0  0  0  0  0  0  0  0  0  0  0
   -0.4389   -1.4347   -0.9919 H   0  0  0  0  0  0  0  0  0  0  0  0
    1.7250   -0.4207   -0.8742 H   0  0  0  0  0  0  0  0  0  0  0  0
    2.4896   -0.3010    0.7524 H   0  0  0  0  0  0  0  0  0  0  0  0
   -0.0080    1.1481   -1.3844 H   0  0  0  0  0  0  0  0  0  0  0  0
   -0.4826    2.2695   -0.0942 H   0  0  0  0  0  0  0  0  0  0  0  0
  1  2  1  0
  1  6  1  0
  1  7  1  0
  1  8  1  0
  2  3  1  0
  2  9  1  0
  2 10  1  0
  3  4  1  0
  4  5  1  0
  4 11  1  0
  4 12  1  0
  5  6  1  0
  6 13  1  0
  6 14  1  0
M  END
>  <reaction>  (3) 
rmg_rxn_15603

>  <mol_properties>  (3) 
{"0": {"label": "a_hydrogen", "atom_type": "H0"}, "1": {"label": "acceptor", "atom_type": "Cs"}}

>  <type>  (3) 
r2h

$$$$

     RDKit          3D

 22 21  0  0  0  0  0  0  0  0999 V2000
   -1.4419    1.4786   -0.1604 C   0  0  0  0  0  3  0  0  0  0  0  0
   -1.9688    0.7594    0.9028 O   0  0  0  0  0  0  0  0  0  0  0  0
   -2.5911   -0.4364    0.6583 N   0  0  0  0  0  0  0  0  0  0  0  0
   -2.5460   -0.9214   -0.5126 C   0  0  0  0  0  0  0  0  0  0  0  0
   -0.2914    0.8601   -0.7043 H   0  0  0  0  0  0  0  0  0  0  0  0
   -1.0629    2.4124    0.2449 H   0  0  0  0  0  0  0  0  0  0  0  0
   -2.1379    1.6198   -0.9918 H   0  0  0  0  0  0  0  0  0  0  0  0
   -3.0558   -1.8681   -0.6359 H   0  0  0  0  0  0  0  0  0  0  0  0
   -2.0281   -0.4857   -1.3602 H   0  0  0  0  0  0  0  0  0  0  0  0
    0.8587    0.3970   -1.1985 C   0  0  0  0  0  0  0  0  0  0  0  0
    1.8743    1.0527   -0.5392 O   0  0  0  0  0  0  0  0  0  0  0  0
    1.9514    0.7034    0.8362 C   0  0  0  0  0  0  0  0  0  0  0  0
    2.0726   -0.8030    0.9857 C   0  0  0  0  0  0  0  0  0  0  0  0
    0.9263   -1.4543    0.2313 C   0  0  0  0  0  0  0  0  0  0  0  0
    0.8781   -0.9772   -1.1085 O   0  0  0  0  0  0  0  0  0  0  0  0
    0.8766    0.6818   -2.2490 H   0  0  0  0  0  0  0  0  0  0  0  0
    2.8176    1.2276    1.2358 H   0  0  0  0  0  0  0  0  0  0  0  0
    1.0534    1.0640    1.3546 H   0  0  0  0  0  0  0  0  0  0  0  0
    3.0268   -1.1368    0.5732 H   0  0  0  0  0  0  0  0  0  0  0  0
    2.0356   -1.0839    2.0400 H   0  0  0  0  0  0  0  0  0  0  0  0
   -0.0264   -1.2392    0.7291 H   0  0  0  0  0  0  0  0  0  0  0  0
    1.0432   -2.5344    0.1624 H   0  0  0  0  0  0  0  0  0  0  0  0
  1  2  1  0
  1  6  1  0
  1  7  1  0
  2  3  1  0
  3  4  2  3
  4  8  1  0
  4  9  1  0
  5 10  1  0
 10 11  1  0
 10 15  1  0
 10 16  1  0
 11 12  1  0
 12 13  1  0
 12 17  1  0
 12 18  1  0
 13 14  1  0
 13 19  1  0
 13 20  1  0
 14 15  1  0
 14 21  1  0
 14 22  1  0
M  RAD  1   1   2
M  END
>  <reaction>  (4) 
rmg_rxn_15603

>  <mol_properties>  (4) 
{"0": {"label": "*3", "atom_type": "Cs"}, "1": {"label": "*4", "atom_type": "O2s"}, "4": {"label": "*2", "atom_type": "H0"}, "9": {"label": "*1", "atom_type": "Cs"}, "10": {"label": "*0", "atom_type": "O2s"}}

>  <type>  (4) 
ts

$$$$

     RDKit          3D

 22 21  0  0  0  0  0  0  0  0999 V2000
   -1.4232    1.5033   -0.2075 C   0  0  0  0  0  0  0  0  0  0  0  0
   -1.9595    0.7413    0.8299 O   0  0  0  0  0  0  0  0  0  0  0  0
   -2.5438   -0.4540    0.5921 N   0  0  0  0  0  0  0  0  0  0  0  0
   -2.5939   -0.9714   -0.5594 C   0  0  0  0  0  0  0  0  0  0  0  0
   -0.3109    0.9596   -0.6767 H   0  0  0  0  0  0  0  0  0  0  0  0
   -1.1483    2.4593    0.2253 H   0  0  0  0  0  0  0  0  0  0  0  0
   -2.0912    1.6143   -1.0619 H   0  0  0  0  0  0  0  0  0  0  0  0
   -3.0934   -1.9223   -0.6176 H   0  0  0  0  0  0  0  0  0  0  0  0
   -2.1719   -0.5656   -1.4744 H   0  0  0  0  0  0  0  0  0  0  0  0
    0.8354    0.4369   -1.1459 C   0  0  0  0  0  3  0  0  0  0  0  0
    1.8731    1.0775   -0.4926 O   0  0  0  0  0  0  0  0  0  0  0  0
    2.0042    0.6933    0.8657 C   0  0  0  0  0  0  0  0  0  0  0  0
    2.1208   -0.8255    0.9792 C   0  0  0  0  0  0  0  0  0  0  0  0
    0.9032   -1.4313    0.2840 C   0  0  0  0  0  0  0  0  0  0  0  0
    0.7845   -0.9427   -1.0426 O   0  0  0  0  0  0  0  0  0  0  0  0
    0.8853    0.6966   -2.2037 H   0  0  0  0  0  0  0  0  0  0  0  0
    2.8996    1.1996    1.2292 H   0  0  0  0  0  0  0  0  0  0  0  0
    1.1317    1.0462    1.4346 H   0  0  0  0  0  0  0  0  0  0  0  0
    3.0303   -1.1563    0.4751 H   0  0  0  0  0  0  0  0  0  0  0  0
    2.1532   -1.1316    2.0230 H   0  0  0  0  0  0  0  0  0  0  0  0
   -0.0080   -1.1961    0.8515 H   0  0  0  0  0  0  0  0  0  0  0  0
    0.9870   -2.5150    0.1866 H   0  0  0  0  0  0  0  0  0  0  0  0
  1  2  1  0
  1  5  1  0
  1  6  1  0
  1  7  1  0
  2  3  1  0
  3  4  2  3
  4  8  1  0
  4  9  1  0
 10 11  1  0
 10 15  1  0
 10 16  1  0
 11 12  1  0
 12 13  1  0
 12 17  1  0
 12 18  1  0
 13 14  1  0
 13 19  1  0
 13 20  1  0
 14 15  1  0
 14 21  1  0
 14 22  1  0
M  RAD  1  10   2
M  END
>  <reaction>  (5) 
rmg_rxn_15603

>  <mol_properties>  (5) 
{"0": {"label": "*3", "atom_type": "Cs"}, "1": {"label": "*4", "atom_type": "O2s"}, "4": {"label": "*2", "atom_type": "H0"}, "9": {"label": "*1", "atom_type": "Cs"}, "10": {"label": "*0", "atom_type": "O2s"}}

>  <type>  (5) 
unop_1

>  <geom_source>  (5) 
crest_best.xyz

$$$$

     RDKit          3D

 22 21  0  0  0  0  0  0  0  0999 V2000
   -1.3102    1.0800   -0.6716 C   0  0  0  0  0  3  0  0  0  0  0  0
   -1.3102    1.1379   -2.0845 O   0  0  0  0  0  0  0  0  0  0  0  0
   -1.3102   -0.1360   -2.6002 N   0  0  0  0  0  0  0  0  0  0  0  0
   -1.3102   -0.1360   -3.8638 C   0  0  0  0  0  0  0  0  0  0  0  0
   -0.2396    0.4678   -0.2275 H   0  0  0  0  0  0  0  0  0  0  0  0
   -2.2023    0.5698   -0.3015 H   0  0  0  0  0  0  0  0  0  0  0  0
   -1.3102    2.1149   -0.3338 H   0  0  0  0  0  0  0  0  0  0  0  0
   -1.3102   -1.1031   -4.3487 H   0  0  0  0  0  0  0  0  0  0  0  0
   -1.3102    0.7805   -4.4500 H   0  0  0  0  0  0  0  0  0  0  0  0
    0.8265   -0.1418    0.2148 C   0  0  0  0  0  0  0  0  0  0  0  0
    1.5162    0.7625    1.0228 O   0  0  0  0  0  0  0  0  0  0  0  0
    2.0571    0.1222    2.1625 C   0  0  0  0  0  0  0  0  0  0  0  0
    0.9579   -0.5804    2.9466 C   0  0  0  0  0  0  0  0  0  0  0  0
    0.1772   -1.4770    1.9962 C   0  0  0  0  0  0  0  0  0  0  0  0
   -0.2516   -0.7415    0.8664 O   0  0  0  0  0  0  0  0  0  0  0  0
    1.5231   -0.9239   -0.1388 H   0  0  0  0  0  0  0  0  0  0  0  0
    2.8195   -0.6065    1.8470 H   0  0  0  0  0  0  0  0  0  0  0  0
    2.5482    0.8947    2.7526 H   0  0  0  0  0  0  0  0  0  0  0  0
    1.3863   -1.1687    3.7613 H   0  0  0  0  0  0  0  0  0  0  0  0
    0.2860    0.1646    3.3770 H   0  0  0  0  0  0  0  0  0  0  0  0
   -0.7183   -1.8842    2.4636 H   0  0  0  0  0  0  0  0  0  0  0  0
    0.8074   -2.3183    1.6689 H   0  0  0  0  0  0  0  0  0  0  0  0
  1  2  1  0
  1  6  1  0
  1  7  1  0
  2  3  1  0
  3  4  2  3
  4  8  1  0
  4  9  1  0
  5 10  1  0
 10 11  1  0
 10 15  1  0
 10 16  1  0
 11 12  1  0
 12 13  1  0
 12 17  1  0
 12 18  1  0
 13 14  1  0
 13 19  1  0
 13 20  1  0
 14 15  1  0
 14 21  1  0
 14 22  1  0
M  RAD  1   1   2
M  END
>  <reaction>  (6) 
rmg_rxn_15603

>  <mol_properties>  (6) 
{"0": {"label": "*3", "atom_type": "Cs"}, "1": {"label": "*4", "atom_type": "O2s"}, "4": {"label": "*2", "atom_type": "H0"}, "9": {"label": "*1", "atom_type": "Cs"}, "10": {"label": "*0", "atom_type": "O2s"}}

>  <type>  (6) 
unop_2

>  <geom_source>  (6) 
Heuristics

$$$$

     RDKit          3D

 22 21  0  0  0  0  0  0  0  0999 V2000
   -1.4303   -1.5037    0.2119 C   0  0  0  0  0  0  0  0  0  0  0  0
   -1.9656   -0.7436   -0.8275 O   0  0  0  0  0  0  0  0  0  0  0  0
   -2.5369    0.4589   -0.5937 N   0  0  0  0  0  0  0  0  0  0  0  0
   -2.5784    0.9820    0.5555 C   0  0  0  0  0  0  0  0  0  0  0  0
   -0.3153   -0.9624    0.6770 H   0  0  0  0  0  0  0  0  0  0  0  0
   -1.1598   -2.4623   -0.2178 H   0  0  0  0  0  0  0  0  0  0  0  0
   -2.0968   -1.6089    1.0681 H   0  0  0  0  0  0  0  0  0  0  0  0
   -3.0669    1.9388    0.6107 H   0  0  0  0  0  0  0  0  0  0  0  0
   -2.1583    0.5757    1.4712 H   0  0  0  0  0  0  0  0  0  0  0  0
    0.8331   -0.4418    1.1437 C   0  0  0  0  0  3  0  0  0  0  0  0
    1.8684   -1.0826    0.4869 O   0  0  0  0  0  0  0  0  0  0  0  0
    1.9999   -0.6930   -0.8697 C   0  0  0  0  0  0  0  0  0  0  0  0
    2.1213    0.8259   -0.9766 C   0  0  0  0  0  0  0  0  0  0  0  0
    0.9058    1.4327   -0.2790 C   0  0  0  0  0  0  0  0  0  0  0  0
    0.7845    0.9383    1.0451 O   0  0  0  0  0  0  0  0  0  0  0  0
    0.8845   -0.7044    2.2007 H   0  0  0  0  0  0  0  0  0  0  0  0
    2.8936   -1.2007   -1.2358 H   0  0  0  0  0  0  0  0  0  0  0  0
    1.1260   -1.0407   -1.4397 H   0  0  0  0  0  0  0  0  0  0  0  0
    3.0321    1.1514   -0.4712 H   0  0  0  0  0  0  0  0  0  0  0  0
    2.1547    1.1363   -2.0192 H   0  0  0  0  0  0  0  0  0  0  0  0
   -0.0061    1.2038   -0.8482 H   0  0  0  0  0  0  0  0  0  0  0  0
    0.9937    2.5155   -0.1763 H   0  0  0  0  0  0  0  0  0  0  0  0
  1  2  1  0
  1  5  1  0
  1  6  1  0
  1  7  1  0
  2  3  1  0
  3  4  2  3
  4  8  1  0
  4  9  1  0
 10 11  1  0
 10 15  1  0
 10 16  1  0
 11 12  1  0
 12 13  1  0
 12 17  1  0
 12 18  1  0
 13 14  1  0
 13 19  1  0
 13 20  1  0
 14 15  1  0
 14 21  1  0
 14 22  1  0
M  RAD  1  10   2
M  END
>  <reaction>  (7) 
rmg_rxn_15603

>  <mol_properties>  (7) 
{"0": {"label": "*3", "atom_type": "Cs"}, "1": {"label": "*4", "atom_type": "O2s"}, "4": {"label": "*2", "atom_type": "H0"}, "9": {"label": "*1", "atom_type": "Cs"}, "10": {"label": "*0", "atom_type": "O2s"}}

>  <type>  (7) 
unop_3

>  <geom_source>  (7) 
Heuristics

$$$$

     RDKit          3D

 22 21  0  0  0  0  0  0  0  0999 V2000
   -1.9870    0.7024   -0.1413 C   0  0  0  0  0  3  0  0  0  0  0  0
   -1.9870    0.7603   -1.5542 O   0  0  0  0  0  0  0  0  0  0  0  0
   -1.9870   -0.5136   -2.0699 N   0  0  0  0  0  0  0  0  0  0  0  0
   -1.9870   -0.5136   -3.3335 C   0  0  0  0  0  0  0  0  0  0  0  0
   -0.9164    0.0902    0.3028 H   0  0  0  0  0  0  0  0  0  0  0  0
   -2.8791    0.1922    0.2288 H   0  0  0  0  0  0  0  0  0  0  0  0
   -1.9870    1.7373    0.1965 H   0  0  0  0  0  0  0  0  0  0  0  0
   -1.9870   -1.4806   -3.8184 H   0  0  0  0  0  0  0  0  0  0  0  0
   -1.9870    0.4029   -3.9197 H   0  0  0  0  0  0  0  0  0  0  0  0
    0.1497   -0.5194    0.7451 C   0  0  0  0  0  0  0  0  0  0  0  0
    1.1723   -0.2869   -0.1751 O   0  0  0  0  0  0  0  0  0  0  0  0
    2.4434   -0.5134    0.4032 C   0  0  0  0  0  0  0  0  0  0  0  0
    2.6214    0.3487    1.6448 C   0  0  0  0  0  0  0  0  0  0  0  0
    1.4303    0.1290    2.5665 C   0  0  0  0  0  0  0  0  0  0  0  0
    0.2196    0.3173    1.8593 O   0  0  0  0  0  0  0  0  0  0  0  0
    0.1851   -1.5740    1.0748 H   0  0  0  0  0  0  0  0  0  0  0  0
    2.5425   -1.5778    0.6662 H   0  0  0  0  0  0  0  0  0  0  0  0
    3.1821   -0.2818   -0.3629 H   0  0  0  0  0  0  0  0  0  0  0  0
    3.5523    0.0938    2.1564 H   0  0  0  0  0  0  0  0  0  0  0  0
    2.6660    1.3999    1.3535 H   0  0  0  0  0  0  0  0  0  0  0  0
    1.4217    0.8345    3.3962 H   0  0  0  0  0  0  0  0  0  0  0  0
    1.4581   -0.8902    2.9817 H   0  0  0  0  0  0  0  0  0  0  0  0
  1  2  1  0
  1  6  1  0
  1  7  1  0
  2  3  1  0
  3  4  2  3
  4  8  1  0
  4  9  1  0
  5 10  1  0
 10 11  1  0
 10 15  1  0
 10 16  1  0
 11 12  1  0
 12 13  1  0
 12 17  1  0
 12 18  1  0
 13 14  1  0
 13 19  1  0
 13 20  1  0
 14 15  1  0
 14 21  1  0
 14 22  1  0
M  RAD  1   1   2
M  END
>  <reaction>  (8) 
rmg_rxn_15603

>  <mol_properties>  (8) 
{"0": {"label": "*3", "atom_type": "Cs"}, "1": {"label": "*4", "atom_type": "O2s"}, "4": {"label": "*2", "atom_type": "H0"}, "9": {"label": "*1", "atom_type": "Cs"}, "10": {"label": "*0", "atom_type": "O2s"}}

>  <type>  (8) 
unop_4

>  <geom_source>  (8) 
Heuristics

$$$$

     RDKit          3D

 22 21  0  0  0  0  0  0  0  0999 V2000
   -3.7674    0.9785   -0.0764 C   0  0  0  0  0  3  0  0  0  0  0  0
   -3.2475   -0.2176    0.2187 O   0  0  0  0  0  0  0  0  0  0  0  0
   -1.9226   -0.3765   -0.1283 N   0  0  0  0  0  0  0  0  0  0  0  0
   -1.4133   -1.5070    0.1544 C   0  0  0  0  0  0  0  0  0  0  0  0
    3.4704   -0.4728    0.5164 H   0  0  0  0  0  0  0  0  0  0  0  0
   -3.1689    1.7335   -0.5458 H   0  0  0  0  0  0  0  0  0  0  0  0
   -4.7958    1.0947    0.1902 H   0  0  0  0  0  0  0  0  0  0  0  0
   -0.3791   -1.6476   -0.1044 H   0  0  0  0  0  0  0  0  0  0  0  0
   -1.9599   -2.3101    0.6374 H   0  0  0  0  0  0  0  0  0  0  0  0
    2.3917   -0.7198    0.6176 C   0  0  0  0  0  0  0  0  0  0  0  0
    1.8217   -1.0565   -0.6022 O   0  0  0  0  0  0  0  0  0  0  0  0
    1.7397    0.0796   -1.4500 C   0  0  0  0  0  0  0  0  0  0  0  0
    0.9620    1.2022   -0.7617 C   0  0  0  0  0  0  0  0  0  0  0  0
    1.6081    1.4512    0.6021 C   0  0  0  0  0  0  0  0  0  0  0  0
    1.6996    0.2406    1.3359 O   0  0  0  0  0  0  0  0  0  0  0  0
    2.5407   -1.6007    1.2160 H   0  0  0  0  0  0  0  0  0  0  0  0
    2.7576    0.4191   -1.6993 H   0  0  0  0  0  0  0  0  0  0  0  0
    1.2390   -0.2603   -2.3575 H   0  0  0  0  0  0  0  0  0  0  0  0
    0.9868    2.1078   -1.3664 H   0  0  0  0  0  0  0  0  0  0  0  0
   -0.0709    0.8802   -0.6161 H   0  0  0  0  0  0  0  0  0  0  0  0
    1.0099    2.1264    1.2151 H   0  0  0  0  0  0  0  0  0  0  0  0
    2.6173    1.8747    0.4714 H   0  0  0  0  0  0  0  0  0  0  0  0
  1  2  1  0
  1  6  1  0
  1  7  1  0
  2  3  1  0
  3  4  2  3
  4  8  1  0
  4  9  1  0
  5 10  1  0
 10 11  1  0
 10 15  1  0
 10 16  1  0
 11 12  1  0
 12 13  1  0
 12 17  1  0
 12 18  1  0
 13 14  1  0
 13 19  1  0
 13 20  1  0
 14 15  1  0
 14 21  1  0
 14 22  1  0
M  RAD  1   1   2
M  END
>  <reaction>  (9) 
rmg_rxn_15603

>  <mol_properties>  (9) 
{"0": {"label": "*3", "atom_type": "Cs"}, "1": {"label": "*4", "atom_type": "O2s"}, "4": {"label": "*2", "atom_type": "H0"}, "9": {"label": "*1", "atom_type": "Cs"}, "10": {"label": "*0", "atom_type": "O2s"}}

>  <type>  (9) 
unop_5

>  <geom_source>  (9) 
Heuristics

$$$$

     RDKit          3D

 22 21  0  0  0  0  0  0  0  0999 V2000
   -1.3146    1.4343   -0.5218 C   0  0  0  0  0  3  0  0  0  0  0  0
   -1.3147    1.4923   -1.9347 O   0  0  0  0  0  0  0  0  0  0  0  0
   -1.3147    0.2184   -2.4504 N   0  0  0  0  0  0  0  0  0  0  0  0
   -1.3147    0.2184   -3.7140 C   0  0  0  0  0  0  0  0  0  0  0  0
   -0.2441    0.8222   -0.0777 H   0  0  0  0  0  0  0  0  0  0  0  0
   -2.2068    0.9241   -0.1517 H   0  0  0  0  0  0  0  0  0  0  0  0
   -1.3147    2.4692   -0.1840 H   0  0  0  0  0  0  0  0  0  0  0  0
   -1.3147   -0.7487   -4.1988 H   0  0  0  0  0  0  0  0  0  0  0  0
   -1.3147    1.1349   -4.3002 H   0  0  0  0  0  0  0  0  0  0  0  0
    0.8220    0.2126    0.3646 C   0  0  0  0  0  0  0  0  0  0  0  0
    1.1229    0.7566    1.6136 O   0  0  0  0  0  0  0  0  0  0  0  0
    1.7979   -0.1799    2.4314 C   0  0  0  0  0  0  0  0  0  0  0  0
    0.9714   -1.4498    2.5752 C   0  0  0  0  0  0  0  0  0  0  0  0
    0.5890   -1.9432    1.1870 C   0  0  0  0  0  0  0  0  0  0  0  0
   -0.0139   -0.9016    0.4433 O   0  0  0  0  0  0  0  0  0  0  0  0
    1.7597   -0.0674   -0.1497 H   0  0  0  0  0  0  0  0  0  0  0  0
    2.7772   -0.4160    1.9876 H   0  0  0  0  0  0  0  0  0  0  0  0
    1.9674    0.3066    3.3909 H   0  0  0  0  0  0  0  0  0  0  0  0
    1.5377   -2.2156    3.1100 H   0  0  0  0  0  0  0  0  0  0  0  0
    0.0661   -1.2312    3.1448 H   0  0  0  0  0  0  0  0  0  0  0  0
   -0.1332   -2.7574    1.2286 H   0  0  0  0  0  0  0  0  0  0  0  0
    1.4833   -2.3034    0.6556 H   0  0  0  0  0  0  0  0  0  0  0  0
  1  2  1  0
  1  6  1  0
  1  7  1  0
  2  3  1  0
  3  4  2  3
  4  8  1  0
  4  9  1  0
  5 10  1  0
 10 11  1  0
 10 15  1  0
 10 16  1  0
 11 12  1  0
 12 13  1  0
 12 17  1  0
 12 18  1  0
 13 14  1  0
 13 19  1  0
 13 20  1  0
 14 15  1  0
 14 21  1  0
 14 22  1  0
M  RAD  1   1   2
M  END
>  <reaction>  (10) 
rmg_rxn_15603

>  <mol_properties>  (10) 
{"0": {"label": "*3", "atom_type": "Cs"}, "1": {"label": "*4", "atom_type": "O2s"}, "4": {"label": "*2", "atom_type": "H0"}, "9": {"label": "*1", "atom_type": "Cs"}, "10": {"label": "*0", "atom_type": "O2s"}}

>  <type>  (10) 
unop_6

>  <geom_source>  (10) 
Heuristics

$$$$

     RDKit          3D

 22 21  0  0  0  0  0  0  0  0999 V2000
   -1.8610    1.4644   -0.0727 C   0  0  0  0  0  3  0  0  0  0  0  0
   -1.8610    1.5223   -1.4856 O   0  0  0  0  0  0  0  0  0  0  0  0
   -1.8610    0.2484   -2.0013 N   0  0  0  0  0  0  0  0  0  0  0  0
   -1.8610    0.2484   -3.2649 C   0  0  0  0  0  0  0  0  0  0  0  0
   -0.7904    0.8522    0.3714 H   0  0  0  0  0  0  0  0  0  0  0  0
   -2.7531    0.9542    0.2974 H   0  0  0  0  0  0  0  0  0  0  0  0
   -1.8610    2.4993    0.2651 H   0  0  0  0  0  0  0  0  0  0  0  0
   -1.8610   -0.7186   -3.7498 H   0  0  0  0  0  0  0  0  0  0  0  0
   -1.8610    1.1649   -3.8511 H   0  0  0  0  0  0  0  0  0  0  0  0
    0.2757    0.2426    0.8137 C   0  0  0  0  0  0  0  0  0  0  0  0
    0.2635   -1.0491    0.2868 O   0  0  0  0  0  0  0  0  0  0  0  0
    0.8838   -1.9673    1.1663 C   0  0  0  0  0  0  0  0  0  0  0  0
    2.3044   -1.5210    1.4819 C   0  0  0  0  0  0  0  0  0  0  0  0
    2.2676   -0.0757    1.9577 C   0  0  0  0  0  0  0  0  0  0  0  0
    1.5648    0.7297    1.0309 O   0  0  0  0  0  0  0  0  0  0  0  0
   -0.2874    0.2566    1.7649 H   0  0  0  0  0  0  0  0  0  0  0  0
    0.2968   -2.0400    2.0947 H   0  0  0  0  0  0  0  0  0  0  0  0
    0.8620   -2.9379    0.6728 H   0  0  0  0  0  0  0  0  0  0  0  0
    2.7455   -2.1638    2.2470 H   0  0  0  0  0  0  0  0  0  0  0  0
    2.9156   -1.5909    0.5800 H   0  0  0  0  0  0  0  0  0  0  0  0
    3.2665    0.3490    2.0479 H   0  0  0  0  0  0  0  0  0  0  0  0
    1.7779   -0.0154    2.9417 H   0  0  0  0  0  0  0  0  0  0  0  0
  1  2  1  0
  1  6  1  0
  1  7  1  0
  2  3  1  0
  3  4  2  3
  4  8  1  0
  4  9  1  0
  5 10  1  0
 10 11  1  0
 10 15  1  0
 10 16  1  0
 11 12  1  0
 12 13  1  0
 12 17  1  0
 12 18  1  0
 13 14  1  0
 13 19  1  0
 13 20  1  0
 14 15  1  0
 14 21  1  0
 14 22  1  0
M  RAD  1   1   2
M  END
>  <reaction>  (11) 
rmg_rxn_15603

>  <mol_properties>  (11) 
{"0": {"label": "*3", "atom_type": "Cs"}, "1": {"label": "*4", "atom_type": "O2s"}, "4": {"label": "*2", "atom_type": "H0"}, "9": {"label": "*1", "atom_type": "Cs"}, "10": {"label": "*0", "atom_type": "O2s"}}

>  <type>  (11) 
unop_7

>  <geom_source>  (11) 
Heuristics

$$$$

     RDKit          3D

 22 21  0  0  0  0  0  0  0  0999 V2000
   -1.1068   -1.5427   -0.5577 C   0  0  0  0  0  0  0  0  0  0  0  0
   -2.2301   -0.9373   -0.0042 O   0  0  0  0  0  0  0  0  0  0  0  0
   -2.3461    0.3908   -0.3567 N   0  0  0  0  0  0  0  0  0  0  0  0
   -3.3392    1.0060    0.1305 C   0  0  0  0  0  0  0  0  0  0  0  0
   -0.0297   -1.2115    0.1285 H   0  0  0  0  0  0  0  0  0  0  0  0
   -0.9294   -1.2442   -1.5897 H   0  0  0  0  0  0  0  0  0  0  0  0
   -1.2295   -2.6142   -0.4434 H   0  0  0  0  0  0  0  0  0  0  0  0
   -3.4427    2.0413   -0.1407 H   0  0  0  0  0  0  0  0  0  0  0  0
   -4.0733    0.5535    0.7887 H   0  0  0  0  0  0  0  0  0  0  0  0
    1.0658   -0.8319    0.8139 C   0  0  0  0  0  3  0  0  0  0  0  0
    2.1551   -1.0305   -0.0365 O   0  0  0  0  0  0  0  0  0  0  0  0
    2.6718    0.1721   -0.5704 C   0  0  0  0  0  0  0  0  0  0  0  0
    1.5347    1.0968   -1.0019 C   0  0  0  0  0  0  0  0  0  0  0  0
    0.6930    1.4142    0.2415 C   0  0  0  0  0  0  0  0  0  0  0  0
    0.8939    0.4515    1.2713 O   0  0  0  0  0  0  0  0  0  0  0  0
    1.1423   -1.5056    1.6696 H   0  0  0  0  0  0  0  0  0  0  0  0
    3.2881    0.6768    0.1882 H   0  0  0  0  0  0  0  0  0  0  0  0
    3.3024   -0.1204   -1.4114 H   0  0  0  0  0  0  0  0  0  0  0  0
    1.9332    2.0084   -1.4434 H   0  0  0  0  0  0  0  0  0  0  0  0
    0.9299    0.5815   -1.7490 H   0  0  0  0  0  0  0  0  0  0  0  0
   -0.3770    1.4430   -0.0128 H   0  0  0  0  0  0  0  0  0  0  0  0
    0.9832    2.3667    0.6902 H   0  0  0  0  0  0  0  0  0  0  0  0
  1  2  1  0
  1  5  1  0
  1  6  1  0
  1  7  1  0
  2  3  1  0
  3  4  2  3
  4  8  1  0
  4  9  1  0
 10 11  1  0
 10 15  1  0
 10 16  1  0
 11 12  1  0
 12 13  1  0
 12 17  1  0
 12 18  1  0
 13 14  1  0
 13 19  1  0
 13 20  1  0
 14 15  1  0
 14 21  1  0
 14 22  1  0
M  RAD  1  10   2
M  END
>  <reaction>  (12) 
rmg_rxn_15603

>  <mol_properties>  (12) 
{"0": {"label": "*3", "atom_type": "Cs"}, "1": {"label": "*4", "atom_type": "O2s"}, "4": {"label": "*2", "atom_type": "H0"}, "9": {"label": "*1", "atom_type": "Cs"}, "10": {"label": "*0", "atom_type": "O2s"}}

>  <type>  (12) 
unop_8

>  <geom_source>  (12) 
Heuristics

$$$$

     RDKit          3D

 22 21  0  0  0  0  0  0  0  0999 V2000
   -1.6013    1.5611   -0.2898 C   0  0  0  0  0  3  0  0  0  0  0  0
   -1.6013    1.6190   -1.7027 O   0  0  0  0  0  0  0  0  0  0  0  0
   -1.6013    0.3451   -2.2184 N   0  0  0  0  0  0  0  0  0  0  0  0
   -1.6013    0.3451   -3.4820 C   0  0  0  0  0  0  0  0  0  0  0  0
   -0.5307    0.9489    0.1543 H   0  0  0  0  0  0  0  0  0  0  0  0
   -2.4934    1.0509    0.0803 H   0  0  0  0  0  0  0  0  0  0  0  0
   -1.6013    2.5960    0.0480 H   0  0  0  0  0  0  0  0  0  0  0  0
   -1.6013   -0.6219   -3.9669 H   0  0  0  0  0  0  0  0  0  0  0  0
   -1.6013    1.2616   -4.0682 H   0  0  0  0  0  0  0  0  0  0  0  0
    0.5354    0.3393    0.5966 C   0  0  0  0  0  0  0  0  0  0  0  0
    0.4575    0.3254    1.9895 O   0  0  0  0  0  0  0  0  0  0  0  0
    1.5685   -0.3407    2.5582 C   0  0  0  0  0  0  0  0  0  0  0  0
    1.6785   -1.7542    2.0047 C   0  0  0  0  0  0  0  0  0  0  0  0
    1.6596   -1.6859    0.4843 C   0  0  0  0  0  0  0  0  0  0  0  0
    0.5433   -0.9396    0.0391 O   0  0  0  0  0  0  0  0  0  0  0  0
    1.4471    0.8814    0.2850 H   0  0  0  0  0  0  0  0  0  0  0  0
    2.4875    0.2233    2.3366 H   0  0  0  0  0  0  0  0  0  0  0  0
    1.4181   -0.3362    3.6369 H   0  0  0  0  0  0  0  0  0  0  0  0
    2.5973   -2.2307    2.3541 H   0  0  0  0  0  0  0  0  0  0  0  0
    0.8302   -2.3471    2.3520 H   0  0  0  0  0  0  0  0  0  0  0  0
    1.5765   -2.6737    0.0332 H   0  0  0  0  0  0  0  0  0  0  0  0
    2.5851   -1.2165    0.1168 H   0  0  0  0  0  0  0  0  0  0  0  0
  1  2  1  0
  1  6  1  0
  1  7  1  0
  2  3  1  0
  3  4  2  3
  4  8  1  0
  4  9  1  0
  5 10  1  0
 10 11  1  0
 10 15  1  0
 10 16  1  0
 11 12  1  0
 12 13  1  0
 12 17  1  0
 12 18  1  0
 13 14  1  0
 13 19  1  0
 13 20  1  0
 14 15  1  0
 14 21  1  0
 14 22  1  0
M  RAD  1   1   2
M  END
>  <reaction>  (13) 
rmg_rxn_15603

>  <mol_properties>  (13) 
{"0": {"label": "*3", "atom_type": "Cs"}, "1": {"label": "*4", "atom_type": "O2s"}, "4": {"label": "*2", "atom_type": "H0"}, "9": {"label": "*1", "atom_type": "Cs"}, "10": {"label": "*0", "atom_type": "O2s"}}

>  <type>  (13) 
unop_9

>  <geom_source>  (13) 
Heuristics

$$$$

     RDKit          3D

 22 21  0  0  0  0  0  0  0  0999 V2000
    1.4216    1.5063   -0.1986 C   0  0  0  0  0  0  0  0  0  0  0  0
    1.9590    0.7388    0.8343 O   0  0  0  0  0  0  0  0  0  0  0  0
    2.5419   -0.4559    0.5894 N   0  0  0  0  0  0  0  0  0  0  0  0
    2.5932   -0.9657   -0.5654 C   0  0  0  0  0  0  0  0  0  0  0  0
    0.3124    0.9611   -0.6728 H   0  0  0  0  0  0  0  0  0  0  0  0
    2.0902    1.6254   -1.0514 H   0  0  0  0  0  0  0  0  0  0  0  0
    1.1432    2.4584    0.2405 H   0  0  0  0  0  0  0  0  0  0  0  0
    3.0905   -1.9174   -0.6291 H   0  0  0  0  0  0  0  0  0  0  0  0
    2.1738   -0.5527   -1.4784 H   0  0  0  0  0  0  0  0  0  0  0  0
   -0.8304    0.4336   -1.1458 C   0  0  0  0  0  3  0  0  0  0  0  0
   -0.7762   -0.9453   -1.0367 O   0  0  0  0  0  0  0  0  0  0  0  0
   -0.9009   -1.4291    0.2911 C   0  0  0  0  0  0  0  0  0  0  0  0
   -2.1242   -0.8241    0.9768 C   0  0  0  0  0  0  0  0  0  0  0  0
   -2.0117    0.6946    0.8580 C   0  0  0  0  0  0  0  0  0  0  0  0
   -1.8733    1.0741   -0.5008 O   0  0  0  0  0  0  0  0  0  0  0  0
   -0.8753    0.6887   -2.2049 H   0  0  0  0  0  0  0  0  0  0  0  0
   -0.9810   -2.5133    0.1977 H   0  0  0  0  0  0  0  0  0  0  0  0
    0.0065   -1.1890    0.8627 H   0  0  0  0  0  0  0  0  0  0  0  0
   -3.0299   -1.1597    0.4689 H   0  0  0  0  0  0  0  0  0  0  0  0
   -2.1617   -1.1260    2.0217 H   0  0  0  0  0  0  0  0  0  0  0  0
   -1.1439    1.0526    1.4309 H   0  0  0  0  0  0  0  0  0  0  0  0
   -2.9111    1.1995    1.2138 H   0  0  0  0  0  0  0  0  0  0  0  0
  1  2  1  0
  1  5  1  0
  1  6  1  0
  1  7  1  0
  2  3  1  0
  3  4  2  3
  4  8  1  0
  4  9  1  0
 10 11  1  0
 10 15  1  0
 10 16  1  0
 11 12  1  0
 12 13  1  0
 12 17  1  0
 12 18  1  0
 13 14  1  0
 13 19  1  0
 13 20  1  0
 14 15  1  0
 14 21  1  0
 14 22  1  0
M  RAD  1  10   2
M  END
>  <reaction>  (14) 
rmg_rxn_15603

>  <mol_properties>  (14) 
{"0": {"label": "*3", "atom_type": "Cs"}, "1": {"label": "*4", "atom_type": "O2s"}, "4": {"label": "*2", "atom_type": "H0"}, "9": {"label": "*1", "atom_type": "Cs"}, "10": {"label": "*0", "atom_type": "O2s"}}

>  <type>  (14) 
unop_10

>  <geom_source>  (14) 
Heuristics

$$$$

     RDKit          3D

 22 21  0  0  0  0  0  0  0  0999 V2000
   -1.7938    1.4545   -0.2298 C   0  0  0  0  0  3  0  0  0  0  0  0
   -1.7938    1.5124   -1.6426 O   0  0  0  0  0  0  0  0  0  0  0  0
   -1.7938    0.2385   -2.1584 N   0  0  0  0  0  0  0  0  0  0  0  0
   -1.7938    0.2385   -3.4220 C   0  0  0  0  0  0  0  0  0  0  0  0
   -0.7232    0.8423    0.2144 H   0  0  0  0  0  0  0  0  0  0  0  0
   -2.6859    0.9443    0.1404 H   0  0  0  0  0  0  0  0  0  0  0  0
   -1.7938    2.4894    0.1081 H   0  0  0  0  0  0  0  0  0  0  0  0
   -1.7938   -0.7286   -3.9068 H   0  0  0  0  0  0  0  0  0  0  0  0
   -1.7938    1.1550   -4.0081 H   0  0  0  0  0  0  0  0  0  0  0  0
    0.3428    0.2327    0.6566 C   0  0  0  0  0  0  0  0  0  0  0  0
    0.0358   -1.1251    0.7495 O   0  0  0  0  0  0  0  0  0  0  0  0
    0.6341   -1.7089    1.8908 C   0  0  0  0  0  0  0  0  0  0  0  0
    2.1403   -1.4912    1.8689 C   0  0  0  0  0  0  0  0  0  0  0  0
    2.4163   -0.0081    1.6669 C   0  0  0  0  0  0  0  0  0  0  0  0
    1.7119    0.4744    0.5389 O   0  0  0  0  0  0  0  0  0  0  0  0
   -0.0479    0.7593    1.5466 H   0  0  0  0  0  0  0  0  0  0  0  0
    0.2022   -1.2632    2.8001 H   0  0  0  0  0  0  0  0  0  0  0  0
    0.3751   -2.7667    1.8741 H   0  0  0  0  0  0  0  0  0  0  0  0
    2.5901   -1.8398    2.8013 H   0  0  0  0  0  0  0  0  0  0  0  0
    2.5769   -2.0574    1.0439 H   0  0  0  0  0  0  0  0  0  0  0  0
    3.4719    0.1887    1.4851 H   0  0  0  0  0  0  0  0  0  0  0  0
    2.1098    0.5572    2.5604 H   0  0  0  0  0  0  0  0  0  0  0  0
  1  2  1  0
  1  6  1  0
  1  7  1  0
  2  3  1  0
  3  4  2  3
  4  8  1  0
  4  9  1  0
  5 10  1  0
 10 11  1  0
 10 15  1  0
 10 16  1  0
 11 12  1  0
 12 13  1  0
 12 17  1  0
 12 18  1  0
 13 14  1  0
 13 19  1  0
 13 20  1  0
 14 15  1  0
 14 21  1  0
 14 22  1  0
M  RAD  1   1   2
M  END
>  <reaction>  (15) 
rmg_rxn_15603

>  <mol_properties>  (15) 
{"0": {"label": "*3", "atom_type": "Cs"}, "1": {"label": "*4", "atom_type": "O2s"}, "4": {"label": "*2", "atom_type": "H0"}, "9": {"label": "*1", "atom_type": "Cs"}, "10": {"label": "*0", "atom_type": "O2s"}}

>  <type>  (15) 
unop_11

>  <geom_source>  (15) 
Heuristics

$$$$

     RDKit          3D

 22 21  0  0  0  0  0  0  0  0999 V2000
   -1.4242   -1.5010   -0.2166 C   0  0  0  0  0  0  0  0  0  0  0  0
   -1.9594   -0.7445    0.8256 O   0  0  0  0  0  0  0  0  0  0  0  0
   -2.5414    0.4534    0.5951 N   0  0  0  0  0  0  0  0  0  0  0  0
   -2.5921    0.9773   -0.5535 C   0  0  0  0  0  0  0  0  0  0  0  0
   -0.3116   -0.9563   -0.6835 H   0  0  0  0  0  0  0  0  0  0  0  0
   -2.0929   -1.6072   -1.0710 H   0  0  0  0  0  0  0  0  0  0  0  0
   -1.1495   -2.4595    0.2109 H   0  0  0  0  0  0  0  0  0  0  0  0
   -3.0892    1.9299   -0.6058 H   0  0  0  0  0  0  0  0  0  0  0  0
   -2.1725    0.5751   -1.4712 H   0  0  0  0  0  0  0  0  0  0  0  0
    0.8387   -0.4372   -1.1472 C   0  0  0  0  0  3  0  0  0  0  0  0
    0.7923    0.9427   -1.0467 O   0  0  0  0  0  0  0  0  0  0  0  0
    0.9060    1.4337    0.2794 C   0  0  0  0  0  0  0  0  0  0  0  0
    2.1165    0.8237    0.9832 C   0  0  0  0  0  0  0  0  0  0  0  0
    1.9942   -0.6948    0.8716 C   0  0  0  0  0  0  0  0  0  0  0  0
    1.8701   -1.0807   -0.4869 O   0  0  0  0  0  0  0  0  0  0  0  0
    0.8936   -0.6987   -2.2043 H   0  0  0  0  0  0  0  0  0  0  0  0
    0.9960    2.5167    0.1801 H   0  0  0  0  0  0  0  0  0  0  0  0
   -0.0098    1.2046    0.8421 H   0  0  0  0  0  0  0  0  0  0  0  0
    3.0309    1.1496    0.4845 H   0  0  0  0  0  0  0  0  0  0  0  0
    2.1434    1.1314    2.0268 H   0  0  0  0  0  0  0  0  0  0  0  0
    1.1166   -1.0432    1.4354 H   0  0  0  0  0  0  0  0  0  0  0  0
    2.8852   -1.2043    1.2415 H   0  0  0  0  0  0  0  0  0  0  0  0
  1  2  1  0
  1  5  1  0
  1  6  1  0
  1  7  1  0
  2  3  1  0
  3  4  2  3
  4  8  1  0
  4  9  1  0
 10 11  1  0
 10 15  1  0
 10 16  1  0
 11 12  1  0
 12 13  1  0
 12 17  1  0
 12 18  1  0
 13 14  1  0
 13 19  1  0
 13 20  1  0
 14 15  1  0
 14 21  1  0
 14 22  1  0
M  RAD  1  10   2
M  END
>  <reaction>  (16) 
rmg_rxn_15603

>  <mol_properties>  (16) 
{"0": {"label": "*3", "atom_type": "Cs"}, "1": {"label": "*4", "atom_type": "O2s"}, "4": {"label": "*2", "atom_type": "H0"}, "9": {"label": "*1", "atom_type": "Cs"}, "10": {"label": "*0", "atom_type": "O2s"}}

>  <type>  (16) 
unop_12

>  <geom_source>  (16) 
Heuristics

$$$$

     RDKit          3D

 22 21  0  0  0  0  0  0  0  0999 V2000
   -1.8064    1.3858   -0.2962 C   0  0  0  0  0  3  0  0  0  0  0  0
   -1.8064    1.4437   -1.7091 O   0  0  0  0  0  0  0  0  0  0  0  0
   -1.8064    0.1698   -2.2249 N   0  0  0  0  0  0  0  0  0  0  0  0
   -1.8064    0.1698   -3.4885 C   0  0  0  0  0  0  0  0  0  0  0  0
   -0.7358    0.7736    0.1479 H   0  0  0  0  0  0  0  0  0  0  0  0
   -2.6985    0.8756    0.0739 H   0  0  0  0  0  0  0  0  0  0  0  0
   -1.8064    2.4207    0.0416 H   0  0  0  0  0  0  0  0  0  0  0  0
   -1.8064   -0.7972   -3.9733 H   0  0  0  0  0  0  0  0  0  0  0  0
   -1.8064    1.0863   -4.0746 H   0  0  0  0  0  0  0  0  0  0  0  0
    0.3303    0.1640    0.5901 C   0  0  0  0  0  0  0  0  0  0  0  0
   -0.0986   -0.9479    1.3155 O   0  0  0  0  0  0  0  0  0  0  0  0
    0.7193   -1.1669    2.4490 C   0  0  0  0  0  0  0  0  0  0  0  0
    2.1748   -1.3178    2.0304 C   0  0  0  0  0  0  0  0  0  0  0  0
    2.5587   -0.1286    1.1615 C   0  0  0  0  0  0  0  0  0  0  0  0
    1.6312    0.0286    0.1048 O   0  0  0  0  0  0  0  0  0  0  0  0
    0.2680    1.0649    1.2278 H   0  0  0  0  0  0  0  0  0  0  0  0
    0.6136   -0.3219    3.1466 H   0  0  0  0  0  0  0  0  0  0  0  0
    0.3415   -2.0628    2.9397 H   0  0  0  0  0  0  0  0  0  0  0  0
    2.8211   -1.3731    2.9093 H   0  0  0  0  0  0  0  0  0  0  0  0
    2.2941   -2.2394    1.4575 H   0  0  0  0  0  0  0  0  0  0  0  0
    3.5378   -0.2586    0.7026 H   0  0  0  0  0  0  0  0  0  0  0  0
    2.5824    0.7894    1.7686 H   0  0  0  0  0  0  0  0  0  0  0  0
  1  2  1  0
  1  6  1  0
  1  7  1  0
  2  3  1  0
  3  4  2  3
  4  8  1  0
  4  9  1  0
  5 10  1  0
 10 11  1  0
 10 15  1  0
 10 16  1  0
 11 12  1  0
 12 13  1  0
 12 17  1  0
 12 18  1  0
 13 14  1  0
 13 19  1  0
 13 20  1  0
 14 15  1  0
 14 21  1  0
 14 22  1  0
M  RAD  1   1   2
M  END
>  <reaction>  (17) 
rmg_rxn_15603

>  <mol_properties>  (17) 
{"0": {"label": "*3", "atom_type": "Cs"}, "1": {"label": "*4", "atom_type": "O2s"}, "4": {"label": "*2", "atom_type": "H0"}, "9": {"label": "*1", "atom_type": "Cs"}, "10": {"label": "*0", "atom_type": "O2s"}}

>  <type>  (17) 
unop_13

>  <geom_source>  (17) 
Heuristics

$$$$

     RDKit          3D

 22 21  0  0  0  0  0  0  0  0999 V2000
   -3.7574   -0.9679   -0.0767 C   0  0  0  0  0  3  0  0  0  0  0  0
   -3.2311    0.2269    0.2131 O   0  0  0  0  0  0  0  0  0  0  0  0
   -1.9092    0.3809   -0.1474 N   0  0  0  0  0  0  0  0  0  0  0  0
   -1.3932    1.5103    0.1271 C   0  0  0  0  0  0  0  0  0  0  0  0
    2.5232    1.6523    1.1746 H   0  0  0  0  0  0  0  0  0  0  0  0
   -3.1650   -1.7252   -0.5502 H   0  0  0  0  0  0  0  0  0  0  0  0
   -4.7821   -1.0833    0.2046 H   0  0  0  0  0  0  0  0  0  0  0  0
   -0.3615    1.6465   -0.1432 H   0  0  0  0  0  0  0  0  0  0  0  0
   -1.9320    2.3166    0.6137 H   0  0  0  0  0  0  0  0  0  0  0  0
    2.3820    0.7318    0.6009 C   0  0  0  0  0  0  0  0  0  0  0  0
    1.6586   -0.1867    1.3449 O   0  0  0  0  0  0  0  0  0  0  0  0
    1.5681   -1.4266    0.6611 C   0  0  0  0  0  0  0  0  0  0  0  0
    0.9564   -1.2284   -0.7269 C   0  0  0  0  0  0  0  0  0  0  0  0
    1.7621   -0.1443   -1.4441 C   0  0  0  0  0  0  0  0  0  0  0  0
    1.8388    1.0257   -0.6431 O   0  0  0  0  0  0  0  0  0  0  0  0
    3.4373    0.4813    0.5403 H   0  0  0  0  0  0  0  0  0  0  0  0
    2.5740   -1.8683    0.5723 H   0  0  0  0  0  0  0  0  0  0  0  0
    0.9467   -2.0671    1.2880 H   0  0  0  0  0  0  0  0  0  0  0  0
    0.9844   -2.1592   -1.2920 H   0  0  0  0  0  0  0  0  0  0  0  0
   -0.0756   -0.8897   -0.6180 H   0  0  0  0  0  0  0  0  0  0  0  0
    1.2851    0.1626   -2.3758 H   0  0  0  0  0  0  0  0  0  0  0  0
    2.7809   -0.5052   -1.6571 H   0  0  0  0  0  0  0  0  0  0  0  0
  1  2  1  0
  1  6  1  0
  1  7  1  0
  2  3  1  0
  3  4  2  3
  4  8  1  0
  4  9  1  0
  5 10  1  0
 10 11  1  0
 10 15  1  0
 10 16  1  0
 11 12  1  0
 12 13  1  0
 12 17  1  0
 12 18  1  0
 13 14  1  0
 13 19  1  0
 13 20  1  0
 14 15  1  0
 14 21  1  0
 14 22  1  0
M  RAD  1   1   2
M  END
>  <reaction>  (18) 
rmg_rxn_15603

>  <mol_properties>  (18) 
{"0": {"label": "*3", "atom_type": "Cs"}, "1": {"label": "*4", "atom_type": "O2s"}, "4": {"label": "*2", "atom_type": "H0"}, "9": {"label": "*1", "atom_type": "Cs"}, "10": {"label": "*0", "atom_type": "O2s"}}

>  <type>  (18) 
unop_14

>  <geom_source>  (18) 
Heuristics

$$$$

     RDKit          3D

 22 21  0  0  0  0  0  0  0  0999 V2000
   -1.5033    0.7655   -0.6246 C   0  0  0  0  0  3  0  0  0  0  0  0
   -1.5034    0.8234   -2.0375 O   0  0  0  0  0  0  0  0  0  0  0  0
   -1.5034   -0.4505   -2.5532 N   0  0  0  0  0  0  0  0  0  0  0  0
   -1.5034   -0.4505   -3.8168 C   0  0  0  0  0  0  0  0  0  0  0  0
   -0.4327    0.1533   -0.1804 H   0  0  0  0  0  0  0  0  0  0  0  0
   -2.3955    0.2553   -0.2544 H   0  0  0  0  0  0  0  0  0  0  0  0
   -1.5034    1.8004   -0.2868 H   0  0  0  0  0  0  0  0  0  0  0  0
   -1.5034   -1.4176   -4.3016 H   0  0  0  0  0  0  0  0  0  0  0  0
   -1.5033    0.4660   -4.4030 H   0  0  0  0  0  0  0  0  0  0  0  0
    0.6333   -0.4563    0.2618 C   0  0  0  0  0  0  0  0  0  0  0  0
    1.6180    0.5140    0.4501 O   0  0  0  0  0  0  0  0  0  0  0  0
    2.3604    0.2688    1.6291 C   0  0  0  0  0  0  0  0  0  0  0  0
    1.4323    0.1937    2.8331 C   0  0  0  0  0  0  0  0  0  0  0  0
    0.3238   -0.8053    2.5334 C   0  0  0  0  0  0  0  0  0  0  0  0
   -0.2972   -0.4961    1.3005 O   0  0  0  0  0  0  0  0  0  0  0  0
    1.1102   -1.4482    0.1577 H   0  0  0  0  0  0  0  0  0  0  0  0
    2.9167   -0.6752    1.5228 H   0  0  0  0  0  0  0  0  0  0  0  0
    3.0811    1.0803    1.7203 H   0  0  0  0  0  0  0  0  0  0  0  0
    1.9870   -0.1075    3.7246 H   0  0  0  0  0  0  0  0  0  0  0  0
    0.9950    1.1771    3.0162 H   0  0  0  0  0  0  0  0  0  0  0  0
   -0.4578   -0.7861    3.2917 H   0  0  0  0  0  0  0  0  0  0  0  0
    0.7369   -1.8248    2.4908 H   0  0  0  0  0  0  0  0  0  0  0  0
  1  2  1  0
  1  6  1  0
  1  7  1  0
  2  3  1  0
  3  4  2  3
  4  8  1  0
  4  9  1  0
  5 10  1  0
 10 11  1  0
 10 15  1  0
 10 16  1  0
 11 12  1  0
 12 13  1  0
 12 17  1  0
 12 18  1  0
 13 14  1  0
 13 19  1  0
 13 20  1  0
 14 15  1  0
 14 21  1  0
 14 22  1  0
M  RAD  1   1   2
M  END
>  <reaction>  (19) 
rmg_rxn_15603

>  <mol_properties>  (19) 
{"0": {"label": "*3", "atom_type": "Cs"}, "1": {"label": "*4", "atom_type": "O2s"}, "4": {"label": "*2", "atom_type": "H0"}, "9": {"label": "*1", "atom_type": "Cs"}, "10": {"label": "*0", "atom_type": "O2s"}}

>  <type>  (19) 
unop_15

>  <geom_source>  (19) 
Heuristics

$$$$

     RDKit          3D

 22 21  0  0  0  0  0  0  0  0999 V2000
   -1.4232    1.5033   -0.2075 C   0  0  0  0  0  0  0  0  0  0  0  0
   -1.9595    0.7413    0.8299 O   0  0  0  0  0  0  0  0  0  0  0  0
   -2.5438   -0.4540    0.5921 N   0  0  0  0  0  0  0  0  0  0  0  0
   -2.5939   -0.9714   -0.5594 C   0  0  0  0  0  0  0  0  0  0  0  0
   -0.3109    0.9596   -0.6767 H   0  0  0  0  0  0  0  0  0  0  0  0
   -1.1483    2.4593    0.2253 H   0  0  0  0  0  0  0  0  0  0  0  0
   -2.0912    1.6143   -1.0619 H   0  0  0  0  0  0  0  0  0  0  0  0
   -3.0934   -1.9223   -0.6176 H   0  0  0  0  0  0  0  0  0  0  0  0
   -2.1719   -0.5656   -1.4744 H   0  0  0  0  0  0  0  0  0  0  0  0
    0.8354    0.4369   -1.1459 C   0  0  0  0  0  3  0  0  0  0  0  0
    1.8731    1.0775   -0.4926 O   0  0  0  0  0  0  0  0  0  0  0  0
    2.0042    0.6933    0.8657 C   0  0  0  0  0  0  0  0  0  0  0  0
    2.1208   -0.8255    0.9792 C   0  0  0  0  0  0  0  0  0  0  0  0
    0.9032   -1.4313    0.2840 C   0  0  0  0  0  0  0  0  0  0  0  0
    0.7845   -0.9427   -1.0426 O   0  0  0  0  0  0  0  0  0  0  0  0
    0.8853    0.6966   -2.2037 H   0  0  0  0  0  0  0  0  0  0  0  0
    2.8996    1.1996    1.2292 H   0  0  0  0  0  0  0  0  0  0  0  0
    1.1317    1.0462    1.4346 H   0  0  0  0  0  0  0  0  0  0  0  0
    3.0303   -1.1563    0.4751 H   0  0  0  0  0  0  0  0  0  0  0  0
    2.1532   -1.1316    2.0230 H   0  0  0  0  0  0  0  0  0  0  0  0
   -0.0080   -1.1961    0.8515 H   0  0  0  0  0  0  0  0  0  0  0  0
    0.9870   -2.5150    0.1866 H   0  0  0  0  0  0  0  0  0  0  0  0
  1  2  1  0
  1  5  1  0
  1  6  1  0
  1  7  1  0
  2  3  1  0
  3  4  2  3
  4  8  1  0
  4  9  1  0
 10 11  1  0
 10 15  1  0
 10 16  1  0
 11 12  1  0
 12 13  1  0
 12 17  1  0
 12 18  1  0
 13 14  1  0
 13 19  1  0
 13 20  1  0
 14 15  1  0
 14 21  1  0
 14 22  1  0
M  RAD  1  10   2
M  END
>  <reaction>  (20) 
rmg_rxn_15603

>  <mol_properties>  (20) 
{"0": {"label": "*3", "atom_type": "Cs"}, "1": {"label": "*4", "atom_type": "O2s"}, "4": {"label": "*2", "atom_type": "H0"}, "9": {"label": "*1", "atom_type": "Cs"}, "10": {"label": "*0", "atom_type": "O2s"}}

>  <type>  (20) 
unop_16

>  <geom_source>  (20) 
Heuristics

$$$$

     RDKit          3D

 22 21  0  0  0  0  0  0  0  0999 V2000
   -1.9906    1.3071    0.0683 C   0  0  0  0  0  3  0  0  0  0  0  0
   -1.9906    1.3650   -1.3446 O   0  0  0  0  0  0  0  0  0  0  0  0
   -1.9906    0.0912   -1.8603 N   0  0  0  0  0  0  0  0  0  0  0  0
   -1.9906    0.0912   -3.1240 C   0  0  0  0  0  0  0  0  0  0  0  0
   -0.9200    0.6949    0.5124 H   0  0  0  0  0  0  0  0  0  0  0  0
   -2.8828    0.7969    0.4384 H   0  0  0  0  0  0  0  0  0  0  0  0
   -1.9907    2.3420    0.4061 H   0  0  0  0  0  0  0  0  0  0  0  0
   -1.9907   -0.8759   -3.6088 H   0  0  0  0  0  0  0  0  0  0  0  0
   -1.9906    1.0076   -3.7101 H   0  0  0  0  0  0  0  0  0  0  0  0
    0.1460    0.0853    0.9546 C   0  0  0  0  0  0  0  0  0  0  0  0
    0.5228   -0.8462   -0.0132 O   0  0  0  0  0  0  0  0  0  0  0  0
    1.4047   -1.8139    0.5227 C   0  0  0  0  0  0  0  0  0  0  0  0
    2.6247   -1.1383    1.1326 C   0  0  0  0  0  0  0  0  0  0  0  0
    2.1538   -0.0664    2.1052 C   0  0  0  0  0  0  0  0  0  0  0  0
    1.2272    0.7972    1.4750 O   0  0  0  0  0  0  0  0  0  0  0  0
   -0.3827   -0.4320    1.7762 H   0  0  0  0  0  0  0  0  0  0  0  0
    0.8794   -2.4052    1.2883 H   0  0  0  0  0  0  0  0  0  0  0  0
    1.6745   -2.4797   -0.2959 H   0  0  0  0  0  0  0  0  0  0  0  0
    3.2504   -1.8716    1.6462 H   0  0  0  0  0  0  0  0  0  0  0  0
    3.2169   -0.6753    0.3410 H   0  0  0  0  0  0  0  0  0  0  0  0
    2.9761    0.5568    2.4539 H   0  0  0  0  0  0  0  0  0  0  0  0
    1.6812   -0.5348    2.9822 H   0  0  0  0  0  0  0  0  0  0  0  0
  1  2  1  0
  1  6  1  0
  1  7  1  0
  2  3  1  0
  3  4  2  3
  4  8  1  0
  4  9  1  0
  5 10  1  0
 10 11  1  0
 10 15  1  0
 10 16  1  0
 11 12  1  0
 12 13  1  0
 12 17  1  0
 12 18  1  0
 13 14  1  0
 13 19  1  0
 13 20  1  0
 14 15  1  0
 14 21  1  0
 14 22  1  0
M  RAD  1   1   2
M  END
>  <reaction>  (21) 
rmg_rxn_15603

>  <mol_properties>  (21) 
{"0": {"label": "*3", "atom_type": "Cs"}, "1": {"label": "*4", "atom_type": "O2s"}, "4": {"label": "*2", "atom_type": "H0"}, "9": {"label": "*1", "atom_type": "Cs"}, "10": {"label": "*0", "atom_type": "O2s"}}

>  <type>  (21) 
unop_17

>  <geom_source>  (21) 
Heuristics

$$$$

     RDKit          3D

 22 21  0  0  0  0  0  0  0  0999 V2000
   -1.7639    0.6174   -0.4164 C   0  0  0  0  0  3  0  0  0  0  0  0
   -1.7639    0.6753   -1.8292 O   0  0  0  0  0  0  0  0  0  0  0  0
   -1.7639   -0.5985   -2.3450 N   0  0  0  0  0  0  0  0  0  0  0  0
   -1.7639   -0.5985   -3.6086 C   0  0  0  0  0  0  0  0  0  0  0  0
   -0.6933    0.0052    0.0278 H   0  0  0  0  0  0  0  0  0  0  0  0
   -2.6560    0.1072   -0.0462 H   0  0  0  0  0  0  0  0  0  0  0  0
   -1.7639    1.6523   -0.0785 H   0  0  0  0  0  0  0  0  0  0  0  0
   -1.7639   -1.5656   -4.0934 H   0  0  0  0  0  0  0  0  0  0  0  0
   -1.7639    0.3179   -4.1947 H   0  0  0  0  0  0  0  0  0  0  0  0
    0.3727   -0.6044    0.4700 C   0  0  0  0  0  0  0  0  0  0  0  0
    1.4792    0.1201    0.0257 O   0  0  0  0  0  0  0  0  0  0  0  0
    2.5394    0.0611    0.9606 C   0  0  0  0  0  0  0  0  0  0  0  0
    2.0735    0.5584    2.3215 C   0  0  0  0  0  0  0  0  0  0  0  0
    0.8101   -0.1960    2.7105 C   0  0  0  0  0  0  0  0  0  0  0  0
   -0.1471   -0.1218    1.6714 O   0  0  0  0  0  0  0  0  0  0  0  0
    0.6539   -1.6665    0.5918 H   0  0  0  0  0  0  0  0  0  0  0  0
    2.9001   -0.9758    1.0416 H   0  0  0  0  0  0  0  0  0  0  0  0
    3.3465    0.6718    0.5582 H   0  0  0  0  0  0  0  0  0  0  0  0
    2.8540    0.4080    3.0707 H   0  0  0  0  0  0  0  0  0  0  0  0
    1.8549    1.6263    2.2624 H   0  0  0  0  0  0  0  0  0  0  0  0
    0.3416    0.2249    3.5990 H   0  0  0  0  0  0  0  0  0  0  0  0
    1.0491   -1.2511    2.9147 H   0  0  0  0  0  0  0  0  0  0  0  0
  1  2  1  0
  1  6  1  0
  1  7  1  0
  2  3  1  0
  3  4  2  3
  4  8  1  0
  4  9  1  0
  5 10  1  0
 10 11  1  0
 10 15  1  0
 10 16  1  0
 11 12  1  0
 12 13  1  0
 12 17  1  0
 12 18  1  0
 13 14  1  0
 13 19  1  0
 13 20  1  0
 14 15  1  0
 14 21  1  0
 14 22  1  0
M  RAD  1   1   2
M  END
>  <reaction>  (22) 
rmg_rxn_15603

>  <mol_properties>  (22) 
{"0": {"label": "*3", "atom_type": "Cs"}, "1": {"label": "*4", "atom_type": "O2s"}, "4": {"label": "*2", "atom_type": "H0"}, "9": {"label": "*1", "atom_type": "Cs"}, "10": {"label": "*0", "atom_type": "O2s"}}

>  <type>  (22) 
unop_18

>  <geom_source>  (22) 
Heuristics

$$$$

     RDKit          3D

 22 21  0  0  0  0  0  0  0  0999 V2000
   -1.8111    1.4138   -0.2583 C   0  0  0  0  0  3  0  0  0  0  0  0
   -1.8112    1.4717   -1.6712 O   0  0  0  0  0  0  0  0  0  0  0  0
   -1.8112    0.1979   -2.1869 N   0  0  0  0  0  0  0  0  0  0  0  0
   -1.8112    0.1979   -3.4505 C   0  0  0  0  0  0  0  0  0  0  0  0
   -0.7405    0.8016    0.1858 H   0  0  0  0  0  0  0  0  0  0  0  0
   -2.7033    0.9036    0.1118 H   0  0  0  0  0  0  0  0  0  0  0  0
   -1.8112    2.4487    0.0795 H   0  0  0  0  0  0  0  0  0  0  0  0
   -1.8112   -0.7692   -3.9354 H   0  0  0  0  0  0  0  0  0  0  0  0
   -1.8111    1.1143   -4.0367 H   0  0  0  0  0  0  0  0  0  0  0  0
    0.3255    0.1920    0.6281 C   0  0  0  0  0  0  0  0  0  0  0  0
   -0.0194   -0.4280    1.8293 O   0  0  0  0  0  0  0  0  0  0  0  0
    1.1120   -0.5986    2.6614 C   0  0  0  0  0  0  0  0  0  0  0  0
    2.1914   -1.3859    1.9323 C   0  0  0  0  0  0  0  0  0  0  0  0
    2.4565   -0.7219    0.5887 C   0  0  0  0  0  0  0  0  0  0  0  0
    1.2450   -0.5439   -0.1198 O   0  0  0  0  0  0  0  0  0  0  0  0
    0.7416    1.1945    0.8383 H   0  0  0  0  0  0  0  0  0  0  0  0
    1.5009    0.3874    2.9588 H   0  0  0  0  0  0  0  0  0  0  0  0
    0.7675   -1.1131    3.5574 H   0  0  0  0  0  0  0  0  0  0  0  0
    3.1064   -1.4213    2.5279 H   0  0  0  0  0  0  0  0  0  0  0  0
    1.8472   -2.4092    1.7699 H   0  0  0  0  0  0  0  0  0  0  0  0
    3.1038   -1.3274   -0.0443 H   0  0  0  0  0  0  0  0  0  0  0  0
    2.9400    0.2554    0.7403 H   0  0  0  0  0  0  0  0  0  0  0  0
  1  2  1  0
  1  6  1  0
  1  7  1  0
  2  3  1  0
  3  4  2  3
  4  8  1  0
  4  9  1  0
  5 10  1  0
 10 11  1  0
 10 15  1  0
 10 16  1  0
 11 12  1  0
 12 13  1  0
 12 17  1  0
 12 18  1  0
 13 14  1  0
 13 19  1  0
 13 20  1  0
 14 15  1  0
 14 21  1  0
 14 22  1  0
M  RAD  1   1   2
M  END
>  <reaction>  (23) 
rmg_rxn_15603

>  <mol_properties>  (23) 
{"0": {"label": "*3", "atom_type": "Cs"}, "1": {"label": "*4", "atom_type": "O2s"}, "4": {"label": "*2", "atom_type": "H0"}, "9": {"label": "*1", "atom_type": "Cs"}, "10": {"label": "*0", "atom_type": "O2s"}}

>  <type>  (23) 
unop_19

>  <geom_source>  (23) 
Heuristics

$$$$

     RDKit          3D

 22 21  0  0  0  0  0  0  0  0999 V2000
   -2.0706    0.9928    0.0582 C   0  0  0  0  0  3  0  0  0  0  0  0
   -2.0706    1.0507   -1.3547 O   0  0  0  0  0  0  0  0  0  0  0  0
   -2.0706   -0.2232   -1.8704 N   0  0  0  0  0  0  0  0  0  0  0  0
   -2.0706   -0.2232   -3.1341 C   0  0  0  0  0  0  0  0  0  0  0  0
   -1.0000    0.3806    0.5023 H   0  0  0  0  0  0  0  0  0  0  0  0
   -2.9627    0.4826    0.4283 H   0  0  0  0  0  0  0  0  0  0  0  0
   -2.0706    2.0277    0.3960 H   0  0  0  0  0  0  0  0  0  0  0  0
   -2.0706   -1.1902   -3.6189 H   0  0  0  0  0  0  0  0  0  0  0  0
   -2.0706    0.6933   -3.7202 H   0  0  0  0  0  0  0  0  0  0  0  0
    0.0661   -0.2290    0.9445 C   0  0  0  0  0  0  0  0  0  0  0  0
    0.8216   -0.6026   -0.1672 O   0  0  0  0  0  0  0  0  0  0  0  0
    2.0158   -1.2546    0.2202 C   0  0  0  0  0  0  0  0  0  0  0  0
    2.8246   -0.3665    1.1550 C   0  0  0  0  0  0  0  0  0  0  0  0
    1.9246    0.0906    2.2942 C   0  0  0  0  0  0  0  0  0  0  0  0
    0.7358    0.6624    1.7831 O   0  0  0  0  0  0  0  0  0  0  0  0
   -0.2152   -1.1315    1.5176 H   0  0  0  0  0  0  0  0  0  0  0  0
    1.7700   -2.2035    0.7211 H   0  0  0  0  0  0  0  0  0  0  0  0
    2.5592   -1.4838   -0.6954 H   0  0  0  0  0  0  0  0  0  0  0  0
    3.6885   -0.9093    1.5450 H   0  0  0  0  0  0  0  0  0  0  0  0
    3.1857    0.5051    0.6056 H   0  0  0  0  0  0  0  0  0  0  0  0
    2.4008    0.8537    2.9084 H   0  0  0  0  0  0  0  0  0  0  0  0
    1.6724   -0.7637    2.9410 H   0  0  0  0  0  0  0  0  0  0  0  0
  1  2  1  0
  1  6  1  0
  1  7  1  0
  2  3  1  0
  3  4  2  3
  4  8  1  0
  4  9  1  0
  5 10  1  0
 10 11  1  0
 10 15  1  0
 10 16  1  0
 11 12  1  0
 12 13  1  0
 12 17  1  0
 12 18  1  0
 13 14  1  0
 13 19  1  0
 13 20  1  0
 14 15  1  0
 14 21  1  0
 14 22  1  0
M  RAD  1   1   2
M  END
>  <reaction>  (24) 
rmg_rxn_15603

>  <mol_properties>  (24) 
{"0": {"label": "*3", "atom_type": "Cs"}, "1": {"label": "*4", "atom_type": "O2s"}, "4": {"label": "*2", "atom_type": "H0"}, "9": {"label": "*1", "atom_type": "Cs"}, "10": {"label": "*0", "atom_type": "O2s"}}

>  <type>  (24) 
unop_20

>  <geom_source>  (24) 
Heuristics

$$$$

     RDKit          3D

 22 21  0  0  0  0  0  0  0  0999 V2000
   -1.6525   -1.2196   -0.0189 O   0  0  0  0  0  0  0  0  0  0  0  0
   -0.3414    0.6097    0.8092 O   0  0  0  0  0  0  0  0  0  0  0  0
    2.5623   -0.8574    0.2414 O   0  0  0  0  0  0  0  0  0  0  0  0
    2.6839    0.2025   -0.6271 N   0  0  0  0  0  0  0  0  0  0  0  0
   -2.4384    1.0402   -0.2887 C   0  0  0  0  0  0  0  0  0  0  0  0
   -2.7150   -0.3464    0.2953 C   0  0  0  0  0  0  0  0  0  0  0  0
   -0.9291    1.2895   -0.2774 C   0  0  0  0  0  0  0  0  0  0  0  0
   -0.4521   -0.7978    0.6232 C   0  0  0  0  0  3  0  0  0  0  0  0
    1.7451   -1.9643   -0.0959 C   0  0  0  0  0  0  0  0  0  0  0  0
    3.4280    1.2150   -0.3266 C   0  0  0  0  0  0  0  0  0  0  0  0
   -2.8153    1.1005   -1.3329 H   0  0  0  0  0  0  0  0  0  0  0  0
   -2.9608    1.8086    0.3218 H   0  0  0  0  0  0  0  0  0  0  0  0
   -3.6552   -0.7482   -0.1380 H   0  0  0  0  0  0  0  0  0  0  0  0
   -2.8572   -0.2858    1.3993 H   0  0  0  0  0  0  0  0  0  0  0  0
   -0.7358    2.3779   -0.1716 H   0  0  0  0  0  0  0  0  0  0  0  0
   -0.4698    0.9633   -1.2395 H   0  0  0  0  0  0  0  0  0  0  0  0
   -0.3819   -1.2933    1.6146 H   0  0  0  0  0  0  0  0  0  0  0  0
    0.6211   -1.2299   -0.1271 H   0  0  0  0  0  0  0  0  0  0  0  0
    1.7359   -2.6860    0.7465 H   0  0  0  0  0  0  0  0  0  0  0  0
    2.1460   -2.4644   -1.0024 H   0  0  0  0  0  0  0  0  0  0  0  0
    3.5155    2.0421   -1.0176 H   0  0  0  0  0  0  0  0  0  0  0  0
    3.9665    1.2441    0.6124 H   0  0  0  0  0  0  0  0  0  0  0  0
  1  6  1  0
  1  8  1  0
  2  7  1  0
  2  8  1  0
  3  9  1  0
  3  4  1  0
  4 10  2  3
  5  6  1  0
  5  7  1  0
  5 11  1  0
  5 12  1  0
  6 13  1  0
  6 14  1  0
  7 15  1  0
  7 16  1  0
  8 17  1  0
  9 18  1  0
  9 19  1  0
  9 20  1  0
 10 21  1  0
 10 22  1  0
M  RAD  1   8   2
M  END
>  <reaction>  (25) 
rmg_rxn_15603

>  <mol_properties>  (25) 
{"0": {"label": "*3", "atom_type": "Cs"}, "1": {"label": "*4", "atom_type": "O2s"}, "4": {"label": "*2", "atom_type": "H0"}, "9": {"label": "*1", "atom_type": "Cs"}, "10": {"label": "*0", "atom_type": "O2s"}}

>  <type>  (25) 
unop_21

>  <geom_source>  (25) 
AutoTST

$$$$

     RDKit          3D

 22 21  0  0  0  0  0  0  0  0999 V2000
   -1.9870    0.7024   -0.1413 C   0  0  0  0  0  3  0  0  0  0  0  0
   -1.9870    0.7603   -1.5542 O   0  0  0  0  0  0  0  0  0  0  0  0
   -1.9870   -0.5135   -2.0699 N   0  0  0  0  0  0  0  0  0  0  0  0
   -1.9870   -0.5135   -3.3335 C   0  0  0  0  0  0  0  0  0  0  0  0
   -0.9164    0.0902    0.3028 H   0  0  0  0  0  0  0  0  0  0  0  0
   -2.8791    0.1922    0.2288 H   0  0  0  0  0  0  0  0  0  0  0  0
   -1.9870    1.7373    0.1965 H   0  0  0  0  0  0  0  0  0  0  0  0
   -1.9870   -1.4806   -3.8184 H   0  0  0  0  0  0  0  0  0  0  0  0
   -1.9870    0.4029   -3.9197 H   0  0  0  0  0  0  0  0  0  0  0  0
    0.1497   -0.5194    0.7451 C   0  0  0  0  0  0  0  0  0  0  0  0
    1.1723   -0.2868   -0.1751 O   0  0  0  0  0  0  0  0  0  0  0  0
    2.4434   -0.5134    0.4032 C   0  0  0  0  0  0  0  0  0  0  0  0
    2.6214    0.3487    1.6448 C   0  0  0  0  0  0  0  0  0  0  0  0
    1.4303    0.1290    2.5665 C   0  0  0  0  0  0  0  0  0  0  0  0
    0.2195    0.3173    1.8593 O   0  0  0  0  0  0  0  0  0  0  0  0
    0.1851   -1.5740    1.0748 H   0  0  0  0  0  0  0  0  0  0  0  0
    2.5425   -1.5778    0.6662 H   0  0  0  0  0  0  0  0  0  0  0  0
    3.1821   -0.2818   -0.3629 H   0  0  0  0  0  0  0  0  0  0  0  0
    3.5523    0.0938    2.1564 H   0  0  0  0  0  0  0  0  0  0  0  0
    2.6660    1.3999    1.3536 H   0  0  0  0  0  0  0  0  0  0  0  0
    1.4217    0.8345    3.3962 H   0  0  0  0  0  0  0  0  0  0  0  0
    1.4581   -0.8902    2.9817 H   0  0  0  0  0  0  0  0  0  0  0  0
  1  2  1  0
  1  6  1  0
  1  7  1  0
  2  3  1  0
  3  4  2  3
  4  8  1  0
  4  9  1  0
  5 10  1  0
 10 11  1  0
 10 15  1  0
 10 16  1  0
 11 12  1  0
 12 13  1  0
 12 17  1  0
 12 18  1  0
 13 14  1  0
 13 19  1  0
 13 20  1  0
 14 15  1  0
 14 21  1  0
 14 22  1  0
M  RAD  1   1   2
M  END
>  <reaction>  (26) 
rmg_rxn_15603

>  <mol_properties>  (26) 
{"0": {"label": "*3", "atom_type": "Cs"}, "1": {"label": "*4", "atom_type": "O2s"}, "4": {"label": "*2", "atom_type": "H0"}, "9": {"label": "*1", "atom_type": "Cs"}, "10": {"label": "*0", "atom_type": "O2s"}}

>  <type>  (26) 
unop_22

>  <geom_source>  (26) 
gaussian_log

$$$$
