
     RDKit          3D

  6  5  0  0  0  0  0  0  0  0999 V2000
   -0.4901    0.0045    0.0014 C   0  0  0  0  0  0  0  0  0  0  0  0
    0.9645   -0.0089   -0.0027 C   0  0  0  0  0  0  0  0  0  0  0  0
    2.1108   -0.0195   -0.0059 N   0  0  0  0  0  0  0  0  0  0  0  0
   -0.8700   -0.6407   -0.7900 H   0  0  0  0  0  0  0  0  0  0  0  0
   -0.8625   -0.3540    0.9604 H   0  0  0  0  0  0  0  0  0  0  0  0
   -0.8530    1.0185   -0.1631 H   0  0  0  0  0  0  0  0  0  0  0  0
  1  2  1  0
  1  4  1  0
  1  5  1  0
  1  6  1  0
  2  3  3  0
M  END
>  <reaction>  (1) 
rmg_rxn_94

>  <mol_properties>  (1) 
{"0": {"label": "donator", "atom_type": "Cs"}, "3": {"label": "d_hydrogen", "atom_type": "H0"}}

>  <type>  (1) 
r1h

$$$$

     RDKit          3D

  8  7  0  0  0  0  0  0  0  0999 V2000
   -0.9728    0.1768    0.1542 C   0  0  0  0  0  0  0  0  0  0  0  0
    0.4518   -0.2348    0.0047 C   0  0  0  0  0  3  0  0  0  0  0  0
    1.3116    0.0208    0.9062 N   0  0  0  0  0  2  0  0  0  0  0  0
    2.5018   -0.1901    1.0428 O   0  0  0  0  0  1  0  0  0  0  0  0
   -1.2701    0.8423   -0.6593 H   0  0  0  0  0  0  0  0  0  0  0  0
   -1.6318   -0.6936    0.1212 H   0  0  0  0  0  0  0  0  0  0  0  0
   -1.1258    0.6936    1.1003 H   0  0  0  0  0  0  0  0  0  0  0  0
    0.7882   -0.7655   -0.8838 H   0  0  0  0  0  0  0  0  0  0  0  0
  1  2  1  0
  1  7  1  0
  1  6  1  0
  1  5  1  0
  2  3  1  0
  2  8  1  0
  3  4  1  0
M  RAD  3   2   2   3   2   4   2
M  END
>  <reaction>  (2) 
rmg_rxn_94

>  <mol_properties>  (2) 
{"3": {"label": "acceptor", "atom_type": "O2s"}}

>  <type>  (2) 
r2

$$$$

     RDKit          3D

  9  8  0  0  0  0  0  0  0  0999 V2000
   -1.2461    0.5037    0.0950 C   0  0  0  0  0  0  0  0  0  0  0  0
   -0.0155   -0.3334    0.0640 C   0  0  0  0  0  0  0  0  0  0  0  0
    1.0697    0.1457   -0.3733 N   0  0  0  0  0  0  0  0  0  0  0  0
    2.1001   -0.7834   -0.3224 O   0  0  0  0  0  0  0  0  0  0  0  0
   -2.0357    0.0440   -0.5039 H   0  0  0  0  0  0  0  0  0  0  0  0
   -1.6237    0.5897    1.1166 H   0  0  0  0  0  0  0  0  0  0  0  0
   -1.0397    1.4998   -0.2929 H   0  0  0  0  0  0  0  0  0  0  0  0
   -0.0537   -1.3634    0.4205 H   0  0  0  0  0  0  0  0  0  0  0  0
    2.8478   -0.2985   -0.6758 H   0  0  0  0  0  0  0  0  0  0  0  0
  1  2  1  0
  1  5  1  0
  1  6  1  0
  1  7  1  0
  2  3  2  3
  2  8  1  0
  3  4  1  0
  4  9  1  0
M  END
>  <reaction>  (3) 
rmg_rxn_94

>  <mol_properties>  (3) 
{"0": {"label": "a_hydrogen", "atom_type": "H0"}, "4": {"label": "acceptor", "atom_type": "O2s"}}

>  <type>  (3) 
r2h

$$$$

     RDKit          3D

 14 12  0  0  0  0  0  0  0  0999 V2000
    1.7378    1.4146    0.5802 C   0  0  0  0  0  0  0  0  0  0  0  0
    1.4809    1.2055   -0.7914 C   0  0  0  0  0  0  0  0  0  0  0  0
    1.2357    1.0060   -1.9019 N   0  0  0  0  0  2  0  0  0  0  0  0
    0.7786    0.6338    1.1898 H   0  0  0  0  0  0  0  0  0  0  0  0
    2.6661    0.9882    0.9473 H   0  0  0  0  0  0  0  0  0  0  0  0
    1.5085    2.4102    0.9473 H   0  0  0  0  0  0  0  0  0  0  0  0
   -2.2865   -1.8614   -0.6215 C   0  0  0  0  0  0  0  0  0  0  0  0
   -1.6112   -1.3116    0.5856 C   0  0  0  0  0  0  0  0  0  0  0  0
   -0.6338   -0.5159    0.4584 N   0  0  0  0  0  0  0  0  0  0  0  0
   -0.0674   -0.0548    1.5614 O   0  0  0  0  0  0  0  0  0  0  0  0
   -2.2338   -2.9525   -0.6247 H   0  0  0  0  0  0  0  0  0  0  0  0
   -3.3443   -1.5884   -0.6247 H   0  0  0  0  0  0  0  0  0  0  0  0
   -1.8163   -1.4786   -1.5257 H   0  0  0  0  0  0  0  0  0  0  0  0
   -1.9602   -1.5957    1.5783 H   0  0  0  0  0  0  0  0  0  0  0  0
  1  2  2  0
  1  5  1  0
  1  6  1  0
  2  3  2  0
  4 10  1  0
  7  8  1  0
  7 11  1  0
  7 12  1  0
  7 13  1  0
  8  9  2  3
  8 14  1  0
  9 10  1  0
M  RAD  1   3   2
M  END
>  <reaction>  (4) 
rmg_rxn_94

>  <mol_properties>  (4) 
{"0": {"label": "*3", "atom_type": "Cd"}, "1": {"label": "*4", "atom_type": "Cdd"}, "3": {"label": "*2", "atom_type": "H0"}, "8": {"label": "*0", "atom_type": "N3d"}, "9": {"label": "*1", "atom_type": "O2s"}}

>  <type>  (4) 
ts

$$$$

     RDKit          3D

 14 12  0  0  0  0  0  0  0  0999 V2000
    0.8479    1.4927   -0.7318 C   0  0  0  0  0  0  0  0  0  0  0  0
    0.8479    1.4927   -2.1865 C   0  0  0  0  0  0  0  0  0  0  0  0
    0.8479    1.4927   -3.3329 N   0  0  0  0  0  2  0  0  0  0  0  0
   -0.1052    0.7169   -0.2857 H   0  0  0  0  0  0  0  0  0  0  0  0
    1.8049    1.1282   -0.3601 H   0  0  0  0  0  0  0  0  0  0  0  0
    0.6851    2.5038   -0.3601 H   0  0  0  0  0  0  0  0  0  0  0  0
   -0.2840   -2.1963    2.8668 C   0  0  0  0  0  0  0  0  0  0  0  0
   -0.8580   -1.1967    1.9248 C   0  0  0  0  0  0  0  0  0  0  0  0
   -0.2552   -0.9152    0.8498 N   0  0  0  0  0  0  0  0  0  0  0  0
   -0.9438    0.0342    0.1068 O   0  0  0  0  0  0  0  0  0  0  0  0
   -0.1058   -1.7417    3.8441 H   0  0  0  0  0  0  0  0  0  0  0  0
   -0.9814   -3.0236    3.0174 H   0  0  0  0  0  0  0  0  0  0  0  0
    0.6553   -2.5889    2.4807 H   0  0  0  0  0  0  0  0  0  0  0  0
   -1.8024   -0.7073    2.1660 H   0  0  0  0  0  0  0  0  0  0  0  0
  1  2  2  0
  1  5  1  0
  1  6  1  0
  2  3  2  0
  4 10  1  0
  7  8  1  0
  7 11  1  0
  7 12  1  0
  7 13  1  0
  8  9  2  3
  8 14  1  0
  9 10  1  0
M  RAD  1   3   2
M  END
>  <reaction>  (5) 
rmg_rxn_94

>  <mol_properties>  (5) 
{"0": {"label": "*3", "atom_type": "Cd"}, "1": {"label": "*4", "atom_type": "Cdd"}, "3": {"label": "*2", "atom_type": "H0"}, "8": {"label": "*0", "atom_type": "N3d"}, "9": {"label": "*1", "atom_type": "O2s"}}

>  <type>  (5) 
unop_1

>  <geom_source>  (5) 
Heuristics

$$$$

     RDKit          3D

 14 12  0  0  0  0  0  0  0  0999 V2000
    1.2942    1.7476    0.4754 C   0  0  0  0  0  0  0  0  0  0  0  0
    1.2942    1.7476   -0.9793 C   0  0  0  0  0  0  0  0  0  0  0  0
    1.2942    1.7476   -2.1257 N   0  0  0  0  0  2  0  0  0  0  0  0
    0.3412    0.9718    0.9214 H   0  0  0  0  0  0  0  0  0  0  0  0
    2.2513    1.3831    0.8471 H   0  0  0  0  0  0  0  0  0  0  0  0
    1.1315    2.7587    0.8471 H   0  0  0  0  0  0  0  0  0  0  0  0
   -1.3823   -2.8837   -0.1619 C   0  0  0  0  0  0  0  0  0  0  0  0
   -1.1660   -1.7261    0.7487 C   0  0  0  0  0  0  0  0  0  0  0  0
   -0.6101   -0.6744    0.3208 N   0  0  0  0  0  0  0  0  0  0  0  0
   -0.4974    0.2891    1.3140 O   0  0  0  0  0  0  0  0  0  0  0  0
   -0.8740   -3.7714    0.2216 H   0  0  0  0  0  0  0  0  0  0  0  0
   -2.4460   -3.1236   -0.2284 H   0  0  0  0  0  0  0  0  0  0  0  0
   -1.0051   -2.6607   -1.1586 H   0  0  0  0  0  0  0  0  0  0  0  0
   -1.4895   -1.7889    1.7884 H   0  0  0  0  0  0  0  0  0  0  0  0
  1  2  2  0
  1  5  1  0
  1  6  1  0
  2  3  2  0
  4 10  1  0
  7  8  1  0
  7 11  1  0
  7 12  1  0
  7 13  1  0
  8  9  2  3
  8 14  1  0
  9 10  1  0
M  RAD  1   3   2
M  END
>  <reaction>  (6) 
rmg_rxn_94

>  <mol_properties>  (6) 
{"0": {"label": "*3", "atom_type": "Cd"}, "1": {"label": "*4", "atom_type": "Cdd"}, "3": {"label": "*2", "atom_type": "H0"}, "8": {"label": "*0", "atom_type": "N3d"}, "9": {"label": "*1", "atom_type": "O2s"}}

>  <type>  (6) 
unop_2

>  <geom_source>  (6) 
Heuristics

$$$$

     RDKit          3D

 14 12  0  0  0  0  0  0  0  0999 V2000
    1.0544    1.2063   -0.9190 C   0  0  0  0  0  0  0  0  0  0  0  0
    1.0544    1.2063   -2.3736 C   0  0  0  0  0  0  0  0  0  0  0  0
    1.0544    1.2063   -3.5201 N   0  0  0  0  0  2  0  0  0  0  0  0
    0.1014    0.4305   -0.4729 H   0  0  0  0  0  0  0  0  0  0  0  0
    2.0114    0.8418   -0.5473 H   0  0  0  0  0  0  0  0  0  0  0  0
    0.8916    2.2174   -0.5473 H   0  0  0  0  0  0  0  0  0  0  0  0
   -0.8177   -1.4884    3.3098 C   0  0  0  0  0  0  0  0  0  0  0  0
   -1.1513   -0.9803    1.9509 C   0  0  0  0  0  0  0  0  0  0  0  0
   -0.2302   -0.7112    1.1279 N   0  0  0  0  0  0  0  0  0  0  0  0
   -0.7373   -0.2522   -0.0804 O   0  0  0  0  0  0  0  0  0  0  0  0
   -1.2140   -0.8181    4.0760 H   0  0  0  0  0  0  0  0  0  0  0  0
   -1.2708   -2.4692    3.4726 H   0  0  0  0  0  0  0  0  0  0  0  0
    0.2610   -1.5703    3.4323 H   0  0  0  0  0  0  0  0  0  0  0  0
   -2.1952   -0.8409    1.6676 H   0  0  0  0  0  0  0  0  0  0  0  0
  1  2  2  0
  1  5  1  0
  1  6  1  0
  2  3  2  0
  4 10  1  0
  7  8  1  0
  7 11  1  0
  7 12  1  0
  7 13  1  0
  8  9  2  3
  8 14  1  0
  9 10  1  0
M  RAD  1   3   2
M  END
>  <reaction>  (7) 
rmg_rxn_94

>  <mol_properties>  (7) 
{"0": {"label": "*3", "atom_type": "Cd"}, "1": {"label": "*4", "atom_type": "Cdd"}, "3": {"label": "*2", "atom_type": "H0"}, "8": {"label": "*0", "atom_type": "N3d"}, "9": {"label": "*1", "atom_type": "O2s"}}

>  <type>  (7) 
unop_3

>  <geom_source>  (7) 
Heuristics

$$$$

     RDKit          3D

 14 12  0  0  0  0  0  0  0  0999 V2000
    2.0263    0.5553    0.0906 C   0  0  0  0  0  0  0  0  0  0  0  0
    2.0263    0.5553   -1.3640 C   0  0  0  0  0  0  0  0  0  0  0  0
    2.0263    0.5553   -2.5105 N   0  0  0  0  0  2  0  0  0  0  0  0
    1.0733   -0.2205    0.5367 H   0  0  0  0  0  0  0  0  0  0  0  0
    2.9833    0.1908    0.4623 H   0  0  0  0  0  0  0  0  0  0  0  0
    1.8635    1.5664    0.4623 H   0  0  0  0  0  0  0  0  0  0  0  0
   -3.2214    0.1317    0.8153 C   0  0  0  0  0  0  0  0  0  0  0  0
   -1.8933   -0.4243    1.1938 C   0  0  0  0  0  0  0  0  0  0  0  0
   -0.9132   -0.3277    0.4012 N   0  0  0  0  0  0  0  0  0  0  0  0
    0.2347   -0.9032    0.9292 O   0  0  0  0  0  0  0  0  0  0  0  0
   -3.9782   -0.6562    0.8119 H   0  0  0  0  0  0  0  0  0  0  0  0
   -3.5410    0.8839    1.5403 H   0  0  0  0  0  0  0  0  0  0  0  0
   -3.1769    0.5864   -0.1729 H   0  0  0  0  0  0  0  0  0  0  0  0
   -1.7689   -0.9162    2.1592 H   0  0  0  0  0  0  0  0  0  0  0  0
  1  2  2  0
  1  5  1  0
  1  6  1  0
  2  3  2  0
  4 10  1  0
  7  8  1  0
  7 11  1  0
  7 12  1  0
  7 13  1  0
  8  9  2  3
  8 14  1  0
  9 10  1  0
M  RAD  1   3   2
M  END
>  <reaction>  (8) 
rmg_rxn_94

>  <mol_properties>  (8) 
{"0": {"label": "*3", "atom_type": "Cd"}, "1": {"label": "*4", "atom_type": "Cdd"}, "3": {"label": "*2", "atom_type": "H0"}, "8": {"label": "*0", "atom_type": "N3d"}, "9": {"label": "*1", "atom_type": "O2s"}}

>  <type>  (8) 
unop_4

>  <geom_source>  (8) 
Heuristics

$$$$

     RDKit          3D

 14 12  0  0  0  0  0  0  0  0999 V2000
    1.2532    1.0202   -0.9473 C   0  0  0  0  0  0  0  0  0  0  0  0
    1.2532    1.0202   -2.4019 C   0  0  0  0  0  0  0  0  0  0  0  0
    1.2532    1.0202   -3.5484 N   0  0  0  0  0  2  0  0  0  0  0  0
    0.3002    0.2444   -0.5012 H   0  0  0  0  0  0  0  0  0  0  0  0
    2.2103    0.6557   -0.5756 H   0  0  0  0  0  0  0  0  0  0  0  0
    1.0905    2.0313   -0.5756 H   0  0  0  0  0  0  0  0  0  0  0  0
   -1.3040   -1.0616    3.3632 C   0  0  0  0  0  0  0  0  0  0  0  0
   -1.2710   -1.0347    1.8751 C   0  0  0  0  0  0  0  0  0  0  0  0
   -0.4102   -0.3340    1.2699 N   0  0  0  0  0  0  0  0  0  0  0  0
   -0.5384   -0.4383   -0.1086 O   0  0  0  0  0  0  0  0  0  0  0  0
   -2.2738   -0.7171    3.7298 H   0  0  0  0  0  0  0  0  0  0  0  0
   -1.1634   -2.0811    3.7298 H   0  0  0  0  0  0  0  0  0  0  0  0
   -0.5221   -0.4250    3.7736 H   0  0  0  0  0  0  0  0  0  0  0  0
   -1.9935   -1.6228    1.3081 H   0  0  0  0  0  0  0  0  0  0  0  0
  1  2  2  0
  1  5  1  0
  1  6  1  0
  2  3  2  0
  4 10  1  0
  7  8  1  0
  7 11  1  0
  7 12  1  0
  7 13  1  0
  8  9  2  3
  8 14  1  0
  9 10  1  0
M  RAD  1   3   2
M  END
>  <reaction>  (9) 
rmg_rxn_94

>  <mol_properties>  (9) 
{"0": {"label": "*3", "atom_type": "Cd"}, "1": {"label": "*4", "atom_type": "Cdd"}, "3": {"label": "*2", "atom_type": "H0"}, "8": {"label": "*0", "atom_type": "N3d"}, "9": {"label": "*1", "atom_type": "O2s"}}

>  <type>  (9) 
unop_5

>  <geom_source>  (9) 
Heuristics

$$$$

     RDKit          3D

 14 12  0  0  0  0  0  0  0  0999 V2000
    1.8850    0.4239   -0.3618 C   0  0  0  0  0  0  0  0  0  0  0  0
    1.8850    0.4239   -1.8164 C   0  0  0  0  0  0  0  0  0  0  0  0
    1.8850    0.4239   -2.9629 N   0  0  0  0  0  2  0  0  0  0  0  0
    0.9320   -0.3519    0.0843 H   0  0  0  0  0  0  0  0  0  0  0  0
    2.8421    0.0594    0.0099 H   0  0  0  0  0  0  0  0  0  0  0  0
    1.7223    1.4350    0.0099 H   0  0  0  0  0  0  0  0  0  0  0  0
   -2.8482    0.4480    1.9524 C   0  0  0  0  0  0  0  0  0  0  0  0
   -1.6452   -0.3739    1.6466 C   0  0  0  0  0  0  0  0  0  0  0  0
   -0.9899   -0.1729    0.5843 N   0  0  0  0  0  0  0  0  0  0  0  0
    0.0934   -1.0346    0.4769 O   0  0  0  0  0  0  0  0  0  0  0  0
   -3.7297   -0.1891    2.0554 H   0  0  0  0  0  0  0  0  0  0  0  0
   -2.7187    0.9766    2.8996 H   0  0  0  0  0  0  0  0  0  0  0  0
   -3.0250    1.1745    1.1610 H   0  0  0  0  0  0  0  0  0  0  0  0
   -1.3308   -1.1515    2.3437 H   0  0  0  0  0  0  0  0  0  0  0  0
  1  2  2  0
  1  5  1  0
  1  6  1  0
  2  3  2  0
  4 10  1  0
  7  8  1  0
  7 11  1  0
  7 12  1  0
  7 13  1  0
  8  9  2  3
  8 14  1  0
  9 10  1  0
M  RAD  1   3   2
M  END
>  <reaction>  (10) 
rmg_rxn_94

>  <mol_properties>  (10) 
{"0": {"label": "*3", "atom_type": "Cd"}, "1": {"label": "*4", "atom_type": "Cdd"}, "3": {"label": "*2", "atom_type": "H0"}, "8": {"label": "*0", "atom_type": "N3d"}, "9": {"label": "*1", "atom_type": "O2s"}}

>  <type>  (10) 
unop_6

>  <geom_source>  (10) 
Heuristics

$$$$

     RDKit          3D

 14 12  0  0  0  0  0  0  0  0999 V2000
    1.6337    0.5274   -0.7318 C   0  0  0  0  0  0  0  0  0  0  0  0
    1.6337    0.5274   -2.1865 C   0  0  0  0  0  0  0  0  0  0  0  0
    1.6337    0.5274   -3.3329 N   0  0  0  0  0  2  0  0  0  0  0  0
    0.6807   -0.2484   -0.2857 H   0  0  0  0  0  0  0  0  0  0  0  0
    2.5907    0.1629   -0.3601 H   0  0  0  0  0  0  0  0  0  0  0  0
    1.4709    1.5385   -0.3601 H   0  0  0  0  0  0  0  0  0  0  0  0
   -2.2083    0.1675    2.8668 C   0  0  0  0  0  0  0  0  0  0  0  0
   -1.3459   -0.5974    1.9248 C   0  0  0  0  0  0  0  0  0  0  0  0
   -0.9480   -0.0643    0.8498 N   0  0  0  0  0  0  0  0  0  0  0  0
   -0.1580   -0.9311    0.1068 O   0  0  0  0  0  0  0  0  0  0  0  0
   -3.1598   -0.3477    3.0174 H   0  0  0  0  0  0  0  0  0  0  0  0
   -1.7269    0.2497    3.8441 H   0  0  0  0  0  0  0  0  0  0  0  0
   -2.4021    1.1668    2.4807 H   0  0  0  0  0  0  0  0  0  0  0  0
   -1.0582   -1.6214    2.1660 H   0  0  0  0  0  0  0  0  0  0  0  0
  1  2  2  0
  1  5  1  0
  1  6  1  0
  2  3  2  0
  4 10  1  0
  7  8  1  0
  7 11  1  0
  7 12  1  0
  7 13  1  0
  8  9  2  3
  8 14  1  0
  9 10  1  0
M  RAD  1   3   2
M  END
>  <reaction>  (11) 
rmg_rxn_94

>  <mol_properties>  (11) 
{"0": {"label": "*3", "atom_type": "Cd"}, "1": {"label": "*4", "atom_type": "Cdd"}, "3": {"label": "*2", "atom_type": "H0"}, "8": {"label": "*0", "atom_type": "N3d"}, "9": {"label": "*1", "atom_type": "O2s"}}

>  <type>  (11) 
unop_7

>  <geom_source>  (11) 
Heuristics

$$$$

     RDKit          3D

 14 12  0  0  0  0  0  0  0  0999 V2000
    0.7975    1.7599   -0.3618 C   0  0  0  0  0  0  0  0  0  0  0  0
    0.7975    1.7599   -1.8164 C   0  0  0  0  0  0  0  0  0  0  0  0
    0.7975    1.7599   -2.9629 N   0  0  0  0  0  2  0  0  0  0  0  0
   -0.1555    0.9840    0.0843 H   0  0  0  0  0  0  0  0  0  0  0  0
    1.7545    1.3953    0.0099 H   0  0  0  0  0  0  0  0  0  0  0  0
    0.6347    2.7709    0.0099 H   0  0  0  0  0  0  0  0  0  0  0  0
   -0.1391   -2.8798    1.9524 C   0  0  0  0  0  0  0  0  0  0  0  0
   -0.6998   -1.5352    1.6466 C   0  0  0  0  0  0  0  0  0  0  0  0
   -0.3701   -0.9342    0.5843 N   0  0  0  0  0  0  0  0  0  0  0  0
   -0.9941    0.3013    0.4769 O   0  0  0  0  0  0  0  0  0  0  0  0
    0.4048   -2.8603    2.8996 H   0  0  0  0  0  0  0  0  0  0  0  0
   -0.9417   -3.6138    2.0554 H   0  0  0  0  0  0  0  0  0  0  0  0
    0.5364   -3.2004    1.1610 H   0  0  0  0  0  0  0  0  0  0  0  0
   -1.3975   -1.0696    2.3437 H   0  0  0  0  0  0  0  0  0  0  0  0
  1  2  2  0
  1  5  1  0
  1  6  1  0
  2  3  2  0
  4 10  1  0
  7  8  1  0
  7 11  1  0
  7 12  1  0
  7 13  1  0
  8  9  2  3
  8 14  1  0
  9 10  1  0
M  RAD  1   3   2
M  END
>  <reaction>  (12) 
rmg_rxn_94

>  <mol_properties>  (12) 
{"0": {"label": "*3", "atom_type": "Cd"}, "1": {"label": "*4", "atom_type": "Cdd"}, "3": {"label": "*2", "atom_type": "H0"}, "8": {"label": "*0", "atom_type": "N3d"}, "9": {"label": "*1", "atom_type": "O2s"}}

>  <type>  (12) 
unop_8

>  <geom_source>  (12) 
Heuristics

$$$$

     RDKit          3D

 14 12  0  0  0  0  0  0  0  0999 V2000
    1.9739    0.9128    0.4754 C   0  0  0  0  0  0  0  0  0  0  0  0
    1.9739    0.9128   -0.9793 C   0  0  0  0  0  0  0  0  0  0  0  0
    1.9739    0.9128   -2.1257 N   0  0  0  0  0  2  0  0  0  0  0  0
    1.0208    0.1370    0.9214 H   0  0  0  0  0  0  0  0  0  0  0  0
    2.9309    0.5483    0.8471 H   0  0  0  0  0  0  0  0  0  0  0  0
    1.8111    1.9239    0.8471 H   0  0  0  0  0  0  0  0  0  0  0  0
   -3.1041   -0.7686   -0.1619 C   0  0  0  0  0  0  0  0  0  0  0  0
   -1.9267   -0.7916    0.7487 C   0  0  0  0  0  0  0  0  0  0  0  0
   -0.7841   -0.4606    0.3208 N   0  0  0  0  0  0  0  0  0  0  0  0
    0.1822   -0.5457    1.3140 O   0  0  0  0  0  0  0  0  0  0  0  0
   -3.5549   -1.7615   -0.2284 H   0  0  0  0  0  0  0  0  0  0  0  0
   -3.8703   -0.0907    0.2216 H   0  0  0  0  0  0  0  0  0  0  0  0
   -2.8092   -0.4444   -1.1586 H   0  0  0  0  0  0  0  0  0  0  0  0
   -2.0538   -1.0956    1.7884 H   0  0  0  0  0  0  0  0  0  0  0  0
  1  2  2  0
  1  5  1  0
  1  6  1  0
  2  3  2  0
  4 10  1  0
  7  8  1  0
  7 11  1  0
  7 12  1  0
  7 13  1  0
  8  9  2  3
  8 14  1  0
  9 10  1  0
M  RAD  1   3   2
M  END
>  <reaction>  (13) 
rmg_rxn_94

>  <mol_properties>  (13) 
{"0": {"label": "*3", "atom_type": "Cd"}, "1": {"label": "*4", "atom_type": "Cdd"}, "3": {"label": "*2", "atom_type": "H0"}, "8": {"label": "*0", "atom_type": "N3d"}, "9": {"label": "*1", "atom_type": "O2s"}}

>  <type>  (13) 
unop_9

>  <geom_source>  (13) 
Heuristics

$$$$

     RDKit          3D

 14 12  0  0  0  0  0  0  0  0999 V2000
    0.9548    1.8715    0.0906 C   0  0  0  0  0  0  0  0  0  0  0  0
    0.9548    1.8715   -1.3640 C   0  0  0  0  0  0  0  0  0  0  0  0
    0.9548    1.8715   -2.5105 N   0  0  0  0  0  2  0  0  0  0  0  0
    0.0018    1.0957    0.5367 H   0  0  0  0  0  0  0  0  0  0  0  0
    1.9118    1.5070    0.4623 H   0  0  0  0  0  0  0  0  0  0  0  0
    0.7920    2.8826    0.4623 H   0  0  0  0  0  0  0  0  0  0  0  0
   -0.5245   -3.1811    0.8153 C   0  0  0  0  0  0  0  0  0  0  0  0
   -0.7996   -1.7679    1.1938 C   0  0  0  0  0  0  0  0  0  0  0  0
   -0.5061   -0.8277    0.4012 N   0  0  0  0  0  0  0  0  0  0  0  0
   -0.8369    0.4130    0.9292 O   0  0  0  0  0  0  0  0  0  0  0  0
    0.1472   -3.6467    1.5403 H   0  0  0  0  0  0  0  0  0  0  0  0
   -1.4496   -3.7624    0.8119 H   0  0  0  0  0  0  0  0  0  0  0  0
   -0.0703   -3.2298   -0.1729 H   0  0  0  0  0  0  0  0  0  0  0  0
   -1.2560   -1.5463    2.1592 H   0  0  0  0  0  0  0  0  0  0  0  0
  1  2  2  0
  1  5  1  0
  1  6  1  0
  2  3  2  0
  4 10  1  0
  7  8  1  0
  7 11  1  0
  7 12  1  0
  7 13  1  0
  8  9  2  3
  8 14  1  0
  9 10  1  0
M  RAD  1   3   2
M  END
>  <reaction>  (14) 
rmg_rxn_94

>  <mol_properties>  (14) 
{"0": {"label": "*3", "atom_type": "Cd"}, "1": {"label": "*4", "atom_type": "Cdd"}, "3": {"label": "*2", "atom_type": "H0"}, "8": {"label": "*0", "atom_type": "N3d"}, "9": {"label": "*1", "atom_type": "O2s"}}

>  <type>  (14) 
unop_10

>  <geom_source>  (14) 
Heuristics

$$$$

     RDKit          3D

 14 12  0  0  0  0  0  0  0  0999 V2000
    1.3951    0.7877   -0.9190 C   0  0  0  0  0  0  0  0  0  0  0  0
    1.3951    0.7877   -2.3736 C   0  0  0  0  0  0  0  0  0  0  0  0
    1.3951    0.7877   -3.5201 N   0  0  0  0  0  2  0  0  0  0  0  0
    0.4421    0.0119   -0.4729 H   0  0  0  0  0  0  0  0  0  0  0  0
    2.3522    0.4232   -0.5473 H   0  0  0  0  0  0  0  0  0  0  0  0
    1.2324    1.7988   -0.5473 H   0  0  0  0  0  0  0  0  0  0  0  0
   -1.6234   -0.4988    3.3098 C   0  0  0  0  0  0  0  0  0  0  0  0
   -1.1935   -0.9285    1.9509 C   0  0  0  0  0  0  0  0  0  0  0  0
   -0.7431   -0.0812    1.1279 N   0  0  0  0  0  0  0  0  0  0  0  0
   -0.3965   -0.6708   -0.0804 O   0  0  0  0  0  0  0  0  0  0  0  0
   -2.6756   -0.7435    3.4726 H   0  0  0  0  0  0  0  0  0  0  0  0
   -1.0473   -1.0228    4.0760 H   0  0  0  0  0  0  0  0  0  0  0  0
   -1.4847    0.5741    3.4323 H   0  0  0  0  0  0  0  0  0  0  0  0
   -1.2687   -1.9790    1.6676 H   0  0  0  0  0  0  0  0  0  0  0  0
  1  2  2  0
  1  5  1  0
  1  6  1  0
  2  3  2  0
  4 10  1  0
  7  8  1  0
  7 11  1  0
  7 12  1  0
  7 13  1  0
  8  9  2  3
  8 14  1  0
  9 10  1  0
M  RAD  1   3   2
M  END
>  <reaction>  (15) 
rmg_rxn_94

>  <mol_properties>  (15) 
{"0": {"label": "*3", "atom_type": "Cd"}, "1": {"label": "*4", "atom_type": "Cdd"}, "3": {"label": "*2", "atom_type": "H0"}, "8": {"label": "*0", "atom_type": "N3d"}, "9": {"label": "*1", "atom_type": "O2s"}}

>  <type>  (15) 
unop_11

>  <geom_source>  (15) 
Heuristics

$$$$

     RDKit          3D

 14 12  0  0  0  0  0  0  0  0999 V2000
    1.6976    1.3820    0.6312 C   0  0  0  0  0  0  0  0  0  0  0  0
    1.6976    1.3820   -0.8234 C   0  0  0  0  0  0  0  0  0  0  0  0
    1.6976    1.3820   -1.9699 N   0  0  0  0  0  2  0  0  0  0  0  0
    0.7446    0.6061    1.0773 H   0  0  0  0  0  0  0  0  0  0  0  0
    2.6546    1.0174    1.0029 H   0  0  0  0  0  0  0  0  0  0  0  0
    1.5348    2.3930    1.0029 H   0  0  0  0  0  0  0  0  0  0  0  0
   -2.4085   -1.9607   -0.5602 C   0  0  0  0  0  0  0  0  0  0  0  0
   -1.6429   -1.3374    0.5540 C   0  0  0  0  0  0  0  0  0  0  0  0
   -0.6815   -0.5548    0.3063 N   0  0  0  0  0  0  0  0  0  0  0  0
   -0.0940   -0.0766    1.4698 O   0  0  0  0  0  0  0  0  0  0  0  0
   -2.3538   -3.0501   -0.4986 H   0  0  0  0  0  0  0  0  0  0  0  0
   -3.4641   -1.6861   -0.4986 H   0  0  0  0  0  0  0  0  0  0  0  0
   -2.0129   -1.6386   -1.5219 H   0  0  0  0  0  0  0  0  0  0  0  0
   -1.9151   -1.5590    1.5866 H   0  0  0  0  0  0  0  0  0  0  0  0
  1  2  2  0
  1  5  1  0
  1  6  1  0
  2  3  2  0
  4 10  1  0
  7  8  1  0
  7 11  1  0
  7 12  1  0
  7 13  1  0
  8  9  2  3
  8 14  1  0
  9 10  1  0
M  RAD  1   3   2
M  END
>  <reaction>  (16) 
rmg_rxn_94

>  <mol_properties>  (16) 
{"0": {"label": "*3", "atom_type": "Cd"}, "1": {"label": "*4", "atom_type": "Cdd"}, "3": {"label": "*2", "atom_type": "H0"}, "8": {"label": "*0", "atom_type": "N3d"}, "9": {"label": "*1", "atom_type": "O2s"}}

>  <type>  (16) 
unop_12

>  <geom_source>  (16) 
Heuristics

$$$$

     RDKit          3D

 14 12  0  0  0  0  0  0  0  0999 V2000
    0.2453   -0.8904    1.3924 O   0  0  0  0  0  1  0  0  0  0  0  0
   -1.0898   -1.2396    1.4265 N   0  0  0  0  0  2  0  0  0  0  0  0
    2.9426    2.5917   -0.0440 N   0  0  0  0  0  1  0  0  0  0  0  0
   -1.6155   -0.0213   -0.6420 C   0  0  0  0  0  0  0  0  0  0  0  0
   -1.9632   -0.8741    0.5369 C   0  0  0  0  0  3  0  0  0  0  0  0
    1.8526    0.2089   -0.0384 C   0  0  0  0  0  0  0  0  0  0  0  0
    2.4612    1.5394   -0.0416 C   0  0  0  0  0  2  0  0  0  0  0  0
   -1.2257    0.9603   -0.3001 H   0  0  0  0  0  0  0  0  0  0  0  0
   -2.5246    0.1549   -1.2544 H   0  0  0  0  0  0  0  0  0  0  0  0
   -0.8598   -0.5339   -1.2732 H   0  0  0  0  0  0  0  0  0  0  0  0
   -2.9885   -1.2005    0.6525 H   0  0  0  0  0  0  0  0  0  0  0  0
    2.6347   -0.5554    0.1481 H   0  0  0  0  0  0  0  0  0  0  0  0
    1.3758    0.0177   -1.0218 H   0  0  0  0  0  0  0  0  0  0  0  0
    0.7550   -0.1577    0.4591 H   0  0  0  0  0  0  0  0  0  0  0  0
  1  2  1  0
  2  5  1  0
  3  7  1  0
  4  8  1  0
  4  5  1  0
  4 10  1  0
  4  9  1  0
  5 11  1  0
  6 12  1  0
  6 14  1  0
  6  7  1  0
  6 13  1  0
M  RAD  5   1   2   2   2   3   3   5   2   7   3
M  END
>  <reaction>  (17) 
rmg_rxn_94

>  <mol_properties>  (17) 
{"0": {"label": "*3", "atom_type": "Cd"}, "1": {"label": "*4", "atom_type": "Cdd"}, "3": {"label": "*2", "atom_type": "H0"}, "8": {"label": "*0", "atom_type": "N3d"}, "9": {"label": "*1", "atom_type": "O2s"}}

>  <type>  (17) 
unop_13

>  <geom_source>  (17) 
AutoTST

$$$$

     RDKit          3D

 14 12  0  0  0  0  0  0  0  0999 V2000
    1.2942    1.7476    0.4754 C   0  0  0  0  0  0  0  0  0  0  0  0
    1.2942    1.7476   -0.9793 C   0  0  0  0  0  0  0  0  0  0  0  0
    1.2942    1.7476   -2.1257 N   0  0  0  0  0  2  0  0  0  0  0  0
    0.3412    0.9718    0.9214 H   0  0  0  0  0  0  0  0  0  0  0  0
    2.2513    1.3831    0.8470 H   0  0  0  0  0  0  0  0  0  0  0  0
    1.1315    2.7587    0.8471 H   0  0  0  0  0  0  0  0  0  0  0  0
   -1.3823   -2.8837   -0.1619 C   0  0  0  0  0  0  0  0  0  0  0  0
   -1.1660   -1.7261    0.7487 C   0  0  0  0  0  0  0  0  0  0  0  0
   -0.6101   -0.6744    0.3208 N   0  0  0  0  0  0  0  0  0  0  0  0
   -0.4974    0.2891    1.3140 O   0  0  0  0  0  0  0  0  0  0  0  0
   -0.8740   -3.7714    0.2216 H   0  0  0  0  0  0  0  0  0  0  0  0
   -2.4460   -3.1236   -0.2284 H   0  0  0  0  0  0  0  0  0  0  0  0
   -1.0051   -2.6607   -1.1586 H   0  0  0  0  0  0  0  0  0  0  0  0
   -1.4895   -1.7889    1.7884 H   0  0  0  0  0  0  0  0  0  0  0  0
  1  2  2  0
  1  5  1  0
  1  6  1  0
  2  3  2  0
  4 10  1  0
  7  8  1  0
  7 11  1  0
  7 12  1  0
  7 13  1  0
  8  9  2  3
  8 14  1  0
  9 10  1  0
M  RAD  1   3   2
M  END
>  <reaction>  (18) 
rmg_rxn_94

>  <mol_properties>  (18) 
{"0": {"label": "*3", "atom_type": "Cd"}, "1": {"label": "*4", "atom_type": "Cdd"}, "3": {"label": "*2", "atom_type": "H0"}, "8": {"label": "*0", "atom_type": "N3d"}, "9": {"label": "*1", "atom_type": "O2s"}}

>  <type>  (18) 
unop_14

>  <geom_source>  (18) 
gaussian_log

$$$$
