
     RDKit          3D

 18 17  0  0  0  0  0  0  0  0999 V2000
    2.2026   -0.7213   -0.2612 C   0  0  0  0  0  0  0  0  0  0  0  0
    1.5384    0.2638    0.6915 C   0  0  0  0  0  0  0  0  0  0  0  0
    2.2584    1.5946    0.7694 C   0  0  0  0  0  0  0  0  0  0  0  0
    2.2212    2.2185   -0.4893 O   0  0  0  0  0  0  0  0  0  0  0  0
    2.8988    3.4488   -0.5204 C   0  0  0  0  0  0  0  0  0  0  0  0
    2.7981    4.0296   -1.9118 C   0  0  0  0  0  0  0  0  0  0  0  0
    3.2294   -0.9309    0.0486 H   0  0  0  0  0  0  0  0  0  0  0  0
    2.2338   -0.3181   -1.2734 H   0  0  0  0  0  0  0  0  0  0  0  0
    1.6610   -1.6680   -0.2875 H   0  0  0  0  0  0  0  0  0  0  0  0
    1.4990   -0.1566    1.7002 H   0  0  0  0  0  0  0  0  0  0  0  0
    0.5055    0.4455    0.3835 H   0  0  0  0  0  0  0  0  0  0  0  0
    3.3038    1.4410    1.0808 H   0  0  0  0  0  0  0  0  0  0  0  0
    1.7844    2.2410    1.5226 H   0  0  0  0  0  0  0  0  0  0  0  0
    2.4596    4.1376    0.2164 H   0  0  0  0  0  0  0  0  0  0  0  0
    3.9524    3.3035   -0.2397 H   0  0  0  0  0  0  0  0  0  0  0  0
    1.7543    4.1869   -2.1856 H   0  0  0  0  0  0  0  0  0  0  0  0
    3.2472    3.3545   -2.6411 H   0  0  0  0  0  0  0  0  0  0  0  0
    3.3178    4.9878   -1.9600 H   0  0  0  0  0  0  0  0  0  0  0  0
  1  2  1  0
  1  7  1  0
  1  8  1  0
  1  9  1  0
  2  3  1  0
  2 10  1  0
  2 11  1  0
  3  4  1  0
  3 12  1  0
  3 13  1  0
  4  5  1  0
  5  6  1  0
  5 14  1  0
  5 15  1  0
  6 16  1  0
  6 17  1  0
  6 18  1  0
M  END
>  <reaction>  (1) 
rmg_rxn_290

>  <mol_properties>  (1) 
{"4": {"label": "donator", "atom_type": "Cs"}, "13": {"label": "d_hydrogen", "atom_type": "H0"}}

>  <type>  (1) 
r1h

$$$$

     RDKit          3D

 17 16  0  0  0  0  0  0  0  0999 V2000
    2.3993   -0.7259   -0.8796 C   0  0  0  0  0  0  0  0  0  0  0  0
    1.8173   -0.7170    0.4851 C   0  0  0  0  0  3  0  0  0  0  0  0
    2.6779   -0.5182    1.6852 C   0  0  0  0  0  0  0  0  0  0  0  0
    3.8710   -1.2723    1.6674 O   0  0  0  0  0  0  0  0  0  0  0  0
    3.6589   -2.6587    1.8015 C   0  0  0  0  0  0  0  0  0  0  0  0
    4.9969   -3.3586    1.7556 C   0  0  0  0  0  0  0  0  0  0  0  0
    3.3755   -1.2152   -0.8894 H   0  0  0  0  0  0  0  0  0  0  0  0
    1.7457   -1.2284   -1.5943 H   0  0  0  0  0  0  0  0  0  0  0  0
    2.5578    0.2962   -1.2545 H   0  0  0  0  0  0  0  0  0  0  0  0
    0.7445   -0.6275    0.6059 H   0  0  0  0  0  0  0  0  0  0  0  0
    2.1057   -0.7316    2.5992 H   0  0  0  0  0  0  0  0  0  0  0  0
    3.0103    0.5272    1.7516 H   0  0  0  0  0  0  0  0  0  0  0  0
    3.0050   -3.0235    0.9977 H   0  0  0  0  0  0  0  0  0  0  0  0
    3.1469   -2.8645    2.7531 H   0  0  0  0  0  0  0  0  0  0  0  0
    5.6430   -3.0039    2.5594 H   0  0  0  0  0  0  0  0  0  0  0  0
    4.8641   -4.4360    1.8660 H   0  0  0  0  0  0  0  0  0  0  0  0
    5.4957   -3.1672    0.8046 H   0  0  0  0  0  0  0  0  0  0  0  0
  1  2  1  0
  1  7  1  0
  1  8  1  0
  1  9  1  0
  2  3  1  0
  2 10  1  0
  3  4  1  0
  3 11  1  0
  3 12  1  0
  4  5  1  0
  5  6  1  0
  5 13  1  0
  5 14  1  0
  6 15  1  0
  6 16  1  0
  6 17  1  0
M  RAD  1   2   2
M  END
>  <reaction>  (2) 
rmg_rxn_290

>  <mol_properties>  (2) 
{"1": {"label": "acceptor", "atom_type": "Cs"}}

>  <type>  (2) 
r2

$$$$

     RDKit          3D

 18 17  0  0  0  0  0  0  0  0999 V2000
    2.2026   -0.7213   -0.2612 C   0  0  0  0  0  0  0  0  0  0  0  0
    1.5384    0.2638    0.6915 C   0  0  0  0  0  0  0  0  0  0  0  0
    2.2584    1.5946    0.7694 C   0  0  0  0  0  0  0  0  0  0  0  0
    2.2212    2.2185   -0.4893 O   0  0  0  0  0  0  0  0  0  0  0  0
    2.8988    3.4488   -0.5204 C   0  0  0  0  0  0  0  0  0  0  0  0
    2.7981    4.0296   -1.9118 C   0  0  0  0  0  0  0  0  0  0  0  0
    3.2294   -0.9309    0.0486 H   0  0  0  0  0  0  0  0  0  0  0  0
    2.2338   -0.3181   -1.2734 H   0  0  0  0  0  0  0  0  0  0  0  0
    1.6610   -1.6680   -0.2875 H   0  0  0  0  0  0  0  0  0  0  0  0
    1.4990   -0.1566    1.7002 H   0  0  0  0  0  0  0  0  0  0  0  0
    0.5055    0.4455    0.3835 H   0  0  0  0  0  0  0  0  0  0  0  0
    3.3038    1.4410    1.0808 H   0  0  0  0  0  0  0  0  0  0  0  0
    1.7844    2.2410    1.5226 H   0  0  0  0  0  0  0  0  0  0  0  0
    2.4596    4.1376    0.2164 H   0  0  0  0  0  0  0  0  0  0  0  0
    3.9524    3.3035   -0.2397 H   0  0  0  0  0  0  0  0  0  0  0  0
    1.7543    4.1869   -2.1856 H   0  0  0  0  0  0  0  0  0  0  0  0
    3.2472    3.3545   -2.6411 H   0  0  0  0  0  0  0  0  0  0  0  0
    3.3178    4.9878   -1.9600 H   0  0  0  0  0  0  0  0  0  0  0  0
  1  2  1  0
  1  7  1  0
  1  8  1  0
  1  9  1  0
  2  3  1  0
  2 10  1  0
  2 11  1  0
  3  4  1  0
  3 12  1  0
  3 13  1  0
  4  5  1  0
  5  6  1  0
  5 14  1  0
  5 15  1  0
  6 16  1  0
  6 17  1  0
  6 18  1  0
M  END
>  <reaction>  (3) 
rmg_rxn_290

>  <mol_properties>  (3) 
{"1": {"label": "acceptor", "atom_type": "Cs"}, "17": {"label": "a_hydrogen", "atom_type": "H0"}}

>  <type>  (3) 
r2h

$$$$

     RDKit          3D

 35 33  0  0  0  0  0  0  0  0999 V2000
    2.0845    1.5121    1.0002 C   0  0  0  0  0  0  0  0  0  0  0  0
    0.6530    1.6317    0.5545 C   0  0  0  0  0  3  0  0  0  0  0  0
   -0.3147    0.6503    1.1414 C   0  0  0  0  0  0  0  0  0  0  0  0
   -0.4628    0.8875    2.5267 O   0  0  0  0  0  0  0  0  0  0  0  0
   -1.3426   -0.0159    3.1469 C   0  0  0  0  0  0  0  0  0  0  0  0
   -1.4311    0.3168    4.6184 C   0  0  0  0  0  0  0  0  0  0  0  0
    2.4557    0.4922    0.8657 H   0  0  0  0  0  0  0  0  0  0  0  0
    2.7354    2.1838    0.4372 H   0  0  0  0  0  0  0  0  0  0  0  0
    2.1883    1.7578    2.0615 H   0  0  0  0  0  0  0  0  0  0  0  0
    0.2719    2.6530    0.5698 H   0  0  0  0  0  0  0  0  0  0  0  0
    0.0447   -0.3787    0.9820 H   0  0  0  0  0  0  0  0  0  0  0  0
   -1.2914    0.7297    0.6428 H   0  0  0  0  0  0  0  0  0  0  0  0
   -0.9827   -1.0462    3.0067 H   0  0  0  0  0  0  0  0  0  0  0  0
   -2.3361    0.0453    2.6782 H   0  0  0  0  0  0  0  0  0  0  0  0
   -1.8018    1.3328    4.7586 H   0  0  0  0  0  0  0  0  0  0  0  0
   -2.1099   -0.3731    5.1225 H   0  0  0  0  0  0  0  0  0  0  0  0
   -0.4491    0.2414    5.0868 H   0  0  0  0  0  0  0  0  0  0  0  0
   -0.1325   -3.1476   -2.9488 C   0  0  0  0  0  0  0  0  0  0  0  0
    0.4713   -2.6541   -1.6408 C   0  0  0  0  0  0  0  0  0  0  0  0
    1.0457   -1.2569   -1.7371 C   0  0  0  0  0  0  0  0  0  0  0  0
    0.0115   -0.3501   -2.0513 O   0  0  0  0  0  0  0  0  0  0  0  0
    0.4064    0.9749   -2.0618 C   0  0  0  0  0  0  0  0  0  0  0  0
   -0.6912    1.8629   -2.5667 C   0  0  0  0  0  0  0  0  0  0  0  0
    0.6181   -3.1638   -3.7428 H   0  0  0  0  0  0  0  0  0  0  0  0
   -0.9458   -2.4968   -3.2698 H   0  0  0  0  0  0  0  0  0  0  0  0
   -0.5275   -4.1587   -2.8408 H   0  0  0  0  0  0  0  0  0  0  0  0
    1.2740   -3.3237   -1.3201 H   0  0  0  0  0  0  0  0  0  0  0  0
   -0.2841   -2.6642   -0.8505 H   0  0  0  0  0  0  0  0  0  0  0  0
    1.8220   -1.2114   -2.5151 H   0  0  0  0  0  0  0  0  0  0  0  0
    1.5136   -0.9701   -0.7870 H   0  0  0  0  0  0  0  0  0  0  0  0
    0.6147    1.3308   -0.8101 H   0  0  0  0  0  0  0  0  0  0  0  0
    1.3708    1.1196   -2.5652 H   0  0  0  0  0  0  0  0  0  0  0  0
   -1.5884    1.7413   -1.9569 H   0  0  0  0  0  0  0  0  0  0  0  0
   -0.9497    1.6281   -3.6026 H   0  0  0  0  0  0  0  0  0  0  0  0
   -0.3797    2.9071   -2.5159 H   0  0  0  0  0  0  0  0  0  0  0  0
  1  2  1  0
  1  7  1  0
  1  8  1  0
  1  9  1  0
  2  3  1  0
  2 10  1  0
  3  4  1  0
  3 11  1  0
  3 12  1  0
  4  5  1  0
  5  6  1  0
  5 13  1  0
  5 14  1  0
  6 15  1  0
  6 16  1  0
  6 17  1  0
 18 19  1  0
 18 24  1  0
 18 25  1  0
 18 26  1  0
 19 20  1  0
 19 27  1  0
 19 28  1  0
 20 21  1  0
 20 29  1  0
 20 30  1  0
 21 22  1  0
 22 23  1  0
 22 31  1  0
 22 32  1  0
 23 33  1  0
 23 34  1  0
 23 35  1  0
M  RAD  1   2   2
M  END
>  <reaction>  (4) 
rmg_rxn_290

>  <mol_properties>  (4) 
{"1": {"label": "*3", "atom_type": "Cs"}, "2": {"label": "*4", "atom_type": "Cs"}, "20": {"label": "*0", "atom_type": "O2s"}, "21": {"label": "*1", "atom_type": "Cs"}, "30": {"label": "*2", "atom_type": "H0"}}

>  <type>  (4) 
ts

$$$$

     RDKit          3D

 35 33  0  0  0  0  0  0  0  0999 V2000
    1.3764    1.7231    1.1441 C   0  0  0  0  0  0  0  0  0  0  0  0
    0.1661    0.9151    0.6953 C   0  0  0  0  0  0  0  0  0  0  0  0
   -0.3363   -0.0436    1.7554 C   0  0  0  0  0  0  0  0  0  0  0  0
   -0.7756    0.6865    2.8730 O   0  0  0  0  0  0  0  0  0  0  0  0
   -1.2282   -0.1265    3.9255 C   0  0  0  0  0  0  0  0  0  0  0  0
   -1.6733    0.7545    5.0697 C   0  0  0  0  0  0  0  0  0  0  0  0
    2.2104    1.0653    1.4014 H   0  0  0  0  0  0  0  0  0  0  0  0
    1.7131    2.3971    0.3550 H   0  0  0  0  0  0  0  0  0  0  0  0
    1.1372    2.3205    2.0238 H   0  0  0  0  0  0  0  0  0  0  0  0
   -0.6513    1.5859    0.4185 H   0  0  0  0  0  0  0  0  0  0  0  0
    0.4686   -0.7347    2.0520 H   0  0  0  0  0  0  0  0  0  0  0  0
   -1.1609   -0.6534    1.3580 H   0  0  0  0  0  0  0  0  0  0  0  0
   -0.4227   -0.8014    4.2507 H   0  0  0  0  0  0  0  0  0  0  0  0
   -2.0602   -0.7582    3.5805 H   0  0  0  0  0  0  0  0  0  0  0  0
   -2.4813    1.4144    4.7520 H   0  0  0  0  0  0  0  0  0  0  0  0
   -2.0303    0.1437    5.9004 H   0  0  0  0  0  0  0  0  0  0  0  0
   -0.8451    1.3700    5.4227 H   0  0  0  0  0  0  0  0  0  0  0  0
    1.2589   -2.4665   -4.1639 C   0  0  0  0  0  0  0  0  0  0  0  0
    1.2589   -2.4665   -2.6410 C   0  0  0  0  0  0  0  0  0  0  0  0
    1.2589   -1.0734   -2.0455 C   0  0  0  0  0  0  0  0  0  0  0  0
    0.0759   -0.4098   -2.4131 O   0  0  0  0  0  0  0  0  0  0  0  0
    0.0052    0.9082   -1.9322 C   0  0  0  0  0  3  0  0  0  0  0  0
   -1.2981    1.5260   -2.3830 C   0  0  0  0  0  0  0  0  0  0  0  0
    2.1410   -1.9522   -4.5535 H   0  0  0  0  0  0  0  0  0  0  0  0
    0.3762   -1.9568   -4.5500 H   0  0  0  0  0  0  0  0  0  0  0  0
    1.2644   -3.4844   -4.5566 H   0  0  0  0  0  0  0  0  0  0  0  0
    2.1404   -2.9930   -2.2647 H   0  0  0  0  0  0  0  0  0  0  0  0
    0.3845   -3.0045   -2.2657 H   0  0  0  0  0  0  0  0  0  0  0  0
    2.1331   -0.5084   -2.4059 H   0  0  0  0  0  0  0  0  0  0  0  0
    1.3337   -1.1273   -0.9494 H   0  0  0  0  0  0  0  0  0  0  0  0
    0.0859    0.9117   -0.6145 H   0  0  0  0  0  0  0  0  0  0  0  0
    0.8580    1.4912   -2.3101 H   0  0  0  0  0  0  0  0  0  0  0  0
   -2.1445    0.9566   -1.9973 H   0  0  0  0  0  0  0  0  0  0  0  0
   -1.3589    1.5379   -3.4718 H   0  0  0  0  0  0  0  0  0  0  0  0
   -1.3758    2.5520   -2.0200 H   0  0  0  0  0  0  0  0  0  0  0  0
  1  2  1  0
  1  7  1  0
  1  8  1  0
  1  9  1  0
  2  3  1  0
  2 10  1  0
  2 31  1  0
  3  4  1  0
  3 11  1  0
  3 12  1  0
  4  5  1  0
  5  6  1  0
  5 13  1  0
  5 14  1  0
  6 15  1  0
  6 16  1  0
  6 17  1  0
 18 19  1  0
 18 24  1  0
 18 25  1  0
 18 26  1  0
 19 20  1  0
 19 27  1  0
 19 28  1  0
 20 21  1  0
 20 29  1  0
 20 30  1  0
 21 22  1  0
 22 23  1  0
 22 32  1  0
 23 33  1  0
 23 34  1  0
 23 35  1  0
M  RAD  1  22   2
M  END
>  <reaction>  (5) 
rmg_rxn_290

>  <mol_properties>  (5) 
{"1": {"label": "*3", "atom_type": "Cs"}, "2": {"label": "*4", "atom_type": "Cs"}, "20": {"label": "*0", "atom_type": "O2s"}, "21": {"label": "*1", "atom_type": "Cs"}, "30": {"label": "*2", "atom_type": "H0"}}

>  <type>  (5) 
unop_1

>  <geom_source>  (5) 
Heuristics

$$$$

     RDKit          3D

 35 33  0  0  0  0  0  0  0  0999 V2000
    1.0841   -0.5284    1.2013 C   0  0  0  0  0  0  0  0  0  0  0  0
    0.2467    0.6509    0.7245 C   0  0  0  0  0  0  0  0  0  0  0  0
   -0.9780    0.8969    1.5817 C   0  0  0  0  0  0  0  0  0  0  0  0
   -0.5742    1.2356    2.8845 O   0  0  0  0  0  0  0  0  0  0  0  0
   -1.6500    1.4478    3.7627 C   0  0  0  0  0  0  0  0  0  0  0  0
   -1.1069    1.8030    5.1274 C   0  0  0  0  0  0  0  0  0  0  0  0
    0.4980   -1.4508    1.1938 H   0  0  0  0  0  0  0  0  0  0  0  0
    1.9527   -0.6786    0.5585 H   0  0  0  0  0  0  0  0  0  0  0  0
    1.4375   -0.3644    2.2193 H   0  0  0  0  0  0  0  0  0  0  0  0
    0.8519    1.5611    0.7144 H   0  0  0  0  0  0  0  0  0  0  0  0
   -1.6087   -0.0058    1.6077 H   0  0  0  0  0  0  0  0  0  0  0  0
   -1.5857    1.7081    1.1546 H   0  0  0  0  0  0  0  0  0  0  0  0
   -2.2712    0.5419    3.8200 H   0  0  0  0  0  0  0  0  0  0  0  0
   -2.2913    2.2565    3.3818 H   0  0  0  0  0  0  0  0  0  0  0  0
   -0.5021    2.7090    5.0741 H   0  0  0  0  0  0  0  0  0  0  0  0
   -1.9261    1.9733    5.8277 H   0  0  0  0  0  0  0  0  0  0  0  0
   -0.4835    0.9954    5.5127 H   0  0  0  0  0  0  0  0  0  0  0  0
    1.3395   -2.7306   -4.1347 C   0  0  0  0  0  0  0  0  0  0  0  0
    1.3395   -2.7306   -2.6118 C   0  0  0  0  0  0  0  0  0  0  0  0
    1.3395   -1.3376   -2.0162 C   0  0  0  0  0  0  0  0  0  0  0  0
    0.1565   -0.6740   -2.3838 O   0  0  0  0  0  0  0  0  0  0  0  0
    0.0858    0.6441   -1.9029 C   0  0  0  0  0  3  0  0  0  0  0  0
   -1.2175    1.2619   -2.3538 C   0  0  0  0  0  0  0  0  0  0  0  0
    2.2216   -2.2163   -4.5243 H   0  0  0  0  0  0  0  0  0  0  0  0
    0.4568   -2.2209   -4.5207 H   0  0  0  0  0  0  0  0  0  0  0  0
    1.3450   -3.7485   -4.5273 H   0  0  0  0  0  0  0  0  0  0  0  0
    2.2211   -3.2571   -2.2355 H   0  0  0  0  0  0  0  0  0  0  0  0
    0.4652   -3.2686   -2.2365 H   0  0  0  0  0  0  0  0  0  0  0  0
    2.2137   -0.7725   -2.3766 H   0  0  0  0  0  0  0  0  0  0  0  0
    1.4143   -1.3915   -0.9202 H   0  0  0  0  0  0  0  0  0  0  0  0
    0.1665    0.6475   -0.5853 H   0  0  0  0  0  0  0  0  0  0  0  0
    0.9387    1.2271   -2.2808 H   0  0  0  0  0  0  0  0  0  0  0  0
   -2.0639    0.6925   -1.9681 H   0  0  0  0  0  0  0  0  0  0  0  0
   -1.2783    1.2737   -3.4426 H   0  0  0  0  0  0  0  0  0  0  0  0
   -1.2951    2.2879   -1.9907 H   0  0  0  0  0  0  0  0  0  0  0  0
  1  2  1  0
  1  7  1  0
  1  8  1  0
  1  9  1  0
  2  3  1  0
  2 10  1  0
  2 31  1  0
  3  4  1  0
  3 11  1  0
  3 12  1  0
  4  5  1  0
  5  6  1  0
  5 13  1  0
  5 14  1  0
  6 15  1  0
  6 16  1  0
  6 17  1  0
 18 19  1  0
 18 24  1  0
 18 25  1  0
 18 26  1  0
 19 20  1  0
 19 27  1  0
 19 28  1  0
 20 21  1  0
 20 29  1  0
 20 30  1  0
 21 22  1  0
 22 23  1  0
 22 32  1  0
 23 33  1  0
 23 34  1  0
 23 35  1  0
M  RAD  1  22   2
M  END
>  <reaction>  (6) 
rmg_rxn_290

>  <mol_properties>  (6) 
{"1": {"label": "*3", "atom_type": "Cs"}, "2": {"label": "*4", "atom_type": "Cs"}, "20": {"label": "*0", "atom_type": "O2s"}, "21": {"label": "*1", "atom_type": "Cs"}, "30": {"label": "*2", "atom_type": "H0"}}

>  <type>  (6) 
unop_2

>  <geom_source>  (6) 
Heuristics

$$$$

     RDKit          3D

 35 33  0  0  0  0  0  0  0  0999 V2000
    0.5271    2.4476    1.1957 C   0  0  0  0  0  0  0  0  0  0  0  0
   -0.1228    1.1573    0.7139 C   0  0  0  0  0  0  0  0  0  0  0  0
    0.1596   -0.0253    1.6177 C   0  0  0  0  0  0  0  0  0  0  0  0
   -0.3960    0.2147    2.8860 O   0  0  0  0  0  0  0  0  0  0  0  0
   -0.1515   -0.8192    3.8050 C   0  0  0  0  0  0  0  0  0  0  0  0
   -0.7877   -0.4608    5.1280 C   0  0  0  0  0  0  0  0  0  0  0  0
    1.6132    2.3397    1.2512 H   0  0  0  0  0  0  0  0  0  0  0  0
    0.3071    3.2746    0.5190 H   0  0  0  0  0  0  0  0  0  0  0  0
    0.1658    2.7144    2.1889 H   0  0  0  0  0  0  0  0  0  0  0  0
   -1.2056    1.2872    0.6402 H   0  0  0  0  0  0  0  0  0  0  0  0
    1.2464   -0.1810    1.7079 H   0  0  0  0  0  0  0  0  0  0  0  0
   -0.2676   -0.9436    1.1887 H   0  0  0  0  0  0  0  0  0  0  0  0
    0.9322   -0.9643    3.9263 H   0  0  0  0  0  0  0  0  0  0  0  0
   -0.5639   -1.7653    3.4239 H   0  0  0  0  0  0  0  0  0  0  0  0
   -1.8641   -0.3303    5.0115 H   0  0  0  0  0  0  0  0  0  0  0  0
   -0.6110   -1.2513    5.8590 H   0  0  0  0  0  0  0  0  0  0  0  0
   -0.3683    0.4689    5.5143 H   0  0  0  0  0  0  0  0  0  0  0  0
    0.9700   -2.2242   -4.1454 C   0  0  0  0  0  0  0  0  0  0  0  0
    0.9700   -2.2242   -2.6224 C   0  0  0  0  0  0  0  0  0  0  0  0
    0.9700   -0.8312   -2.0269 C   0  0  0  0  0  0  0  0  0  0  0  0
   -0.2130   -0.1676   -2.3945 O   0  0  0  0  0  0  0  0  0  0  0  0
   -0.2837    1.1505   -1.9136 C   0  0  0  0  0  3  0  0  0  0  0  0
   -1.5870    1.7683   -2.3645 C   0  0  0  0  0  0  0  0  0  0  0  0
    1.8521   -1.7099   -4.5350 H   0  0  0  0  0  0  0  0  0  0  0  0
    0.0873   -1.7145   -4.5314 H   0  0  0  0  0  0  0  0  0  0  0  0
    0.9755   -3.2421   -4.5380 H   0  0  0  0  0  0  0  0  0  0  0  0
    1.8516   -2.7507   -2.2462 H   0  0  0  0  0  0  0  0  0  0  0  0
    0.0957   -2.7622   -2.2472 H   0  0  0  0  0  0  0  0  0  0  0  0
    1.8442   -0.2661   -2.3873 H   0  0  0  0  0  0  0  0  0  0  0  0
    1.0448   -0.8851   -0.9309 H   0  0  0  0  0  0  0  0  0  0  0  0
   -0.2030    1.1539   -0.5959 H   0  0  0  0  0  0  0  0  0  0  0  0
    0.5692    1.7335   -2.2915 H   0  0  0  0  0  0  0  0  0  0  0  0
   -2.4334    1.1989   -1.9788 H   0  0  0  0  0  0  0  0  0  0  0  0
   -1.6478    1.7801   -3.4533 H   0  0  0  0  0  0  0  0  0  0  0  0
   -1.6646    2.7943   -2.0014 H   0  0  0  0  0  0  0  0  0  0  0  0
  1  2  1  0
  1  7  1  0
  1  8  1  0
  1  9  1  0
  2  3  1  0
  2 10  1  0
  2 31  1  0
  3  4  1  0
  3 11  1  0
  3 12  1  0
  4  5  1  0
  5  6  1  0
  5 13  1  0
  5 14  1  0
  6 15  1  0
  6 16  1  0
  6 17  1  0
 18 19  1  0
 18 24  1  0
 18 25  1  0
 18 26  1  0
 19 20  1  0
 19 27  1  0
 19 28  1  0
 20 21  1  0
 20 29  1  0
 20 30  1  0
 21 22  1  0
 22 23  1  0
 22 32  1  0
 23 33  1  0
 23 34  1  0
 23 35  1  0
M  RAD  1  22   2
M  END
>  <reaction>  (7) 
rmg_rxn_290

>  <mol_properties>  (7) 
{"1": {"label": "*3", "atom_type": "Cs"}, "2": {"label": "*4", "atom_type": "Cs"}, "20": {"label": "*0", "atom_type": "O2s"}, "21": {"label": "*1", "atom_type": "Cs"}, "30": {"label": "*2", "atom_type": "H0"}}

>  <type>  (7) 
unop_3

>  <geom_source>  (7) 
Heuristics

$$$$

     RDKit          3D

 35 33  0  0  0  0  0  0  0  0999 V2000
   -0.9085   -0.8733    1.8495 C   0  0  0  0  0  0  0  0  0  0  0  0
    0.2378   -0.0680    1.2522 C   0  0  0  0  0  0  0  0  0  0  0  0
   -0.1052    1.3931    1.0454 C   0  0  0  0  0  0  0  0  0  0  0  0
   -0.3651    1.9912    2.2903 O   0  0  0  0  0  0  0  0  0  0  0  0
   -0.7282    3.3447    2.1921 C   0  0  0  0  0  0  0  0  0  0  0  0
   -0.9846    3.8861    3.5794 C   0  0  0  0  0  0  0  0  0  0  0  0
   -1.7875   -0.8399    1.2010 H   0  0  0  0  0  0  0  0  0  0  0  0
   -0.6277   -1.9196    1.9789 H   0  0  0  0  0  0  0  0  0  0  0  0
   -1.1947   -0.4742    2.8225 H   0  0  0  0  0  0  0  0  0  0  0  0
    1.1169   -0.1301    1.8988 H   0  0  0  0  0  0  0  0  0  0  0  0
   -0.9885    1.4854    0.3936 H   0  0  0  0  0  0  0  0  0  0  0  0
    0.7255    1.9127    0.5457 H   0  0  0  0  0  0  0  0  0  0  0  0
   -1.6277    3.4469    1.5671 H   0  0  0  0  0  0  0  0  0  0  0  0
    0.0743    3.9137    1.6996 H   0  0  0  0  0  0  0  0  0  0  0  0
   -0.0892    3.7978    4.1956 H   0  0  0  0  0  0  0  0  0  0  0  0
   -1.2683    4.9384    3.5281 H   0  0  0  0  0  0  0  0  0  0  0  0
   -1.7907    3.3328    4.0626 H   0  0  0  0  0  0  0  0  0  0  0  0
    1.3306   -3.4496   -3.6070 C   0  0  0  0  0  0  0  0  0  0  0  0
    1.3306   -3.4496   -2.0841 C   0  0  0  0  0  0  0  0  0  0  0  0
    1.3306   -2.0565   -1.4886 C   0  0  0  0  0  0  0  0  0  0  0  0
    0.1476   -1.3929   -1.8562 O   0  0  0  0  0  0  0  0  0  0  0  0
    0.0769   -0.0748   -1.3753 C   0  0  0  0  0  3  0  0  0  0  0  0
   -1.2264    0.5429   -1.8261 C   0  0  0  0  0  0  0  0  0  0  0  0
    2.2127   -2.9352   -3.9966 H   0  0  0  0  0  0  0  0  0  0  0  0
    0.4479   -2.9399   -3.9931 H   0  0  0  0  0  0  0  0  0  0  0  0
    1.3361   -4.4674   -3.9997 H   0  0  0  0  0  0  0  0  0  0  0  0
    2.2121   -3.9760   -1.7078 H   0  0  0  0  0  0  0  0  0  0  0  0
    0.4562   -3.9875   -1.7088 H   0  0  0  0  0  0  0  0  0  0  0  0
    2.2048   -1.4914   -1.8490 H   0  0  0  0  0  0  0  0  0  0  0  0
    1.4054   -2.1104   -0.3925 H   0  0  0  0  0  0  0  0  0  0  0  0
    0.1576   -0.0714   -0.0576 H   0  0  0  0  0  0  0  0  0  0  0  0
    0.9298    0.5081   -1.7532 H   0  0  0  0  0  0  0  0  0  0  0  0
   -2.0728   -0.0265   -1.4404 H   0  0  0  0  0  0  0  0  0  0  0  0
   -1.2872    0.5548   -2.9149 H   0  0  0  0  0  0  0  0  0  0  0  0
   -1.3040    1.5690   -1.4631 H   0  0  0  0  0  0  0  0  0  0  0  0
  1  2  1  0
  1  7  1  0
  1  8  1  0
  1  9  1  0
  2  3  1  0
  2 10  1  0
  2 31  1  0
  3  4  1  0
  3 11  1  0
  3 12  1  0
  4  5  1  0
  5  6  1  0
  5 13  1  0
  5 14  1  0
  6 15  1  0
  6 16  1  0
  6 17  1  0
 18 19  1  0
 18 24  1  0
 18 25  1  0
 18 26  1  0
 19 20  1  0
 19 27  1  0
 19 28  1  0
 20 21  1  0
 20 29  1  0
 20 30  1  0
 21 22  1  0
 22 23  1  0
 22 32  1  0
 23 33  1  0
 23 34  1  0
 23 35  1  0
M  RAD  1  22   2
M  END
>  <reaction>  (8) 
rmg_rxn_290

>  <mol_properties>  (8) 
{"1": {"label": "*3", "atom_type": "Cs"}, "2": {"label": "*4", "atom_type": "Cs"}, "20": {"label": "*0", "atom_type": "O2s"}, "21": {"label": "*1", "atom_type": "Cs"}, "30": {"label": "*2", "atom_type": "H0"}}

>  <type>  (8) 
unop_4

>  <geom_source>  (8) 
Heuristics

$$$$

     RDKit          3D

 35 33  0  0  0  0  0  0  0  0999 V2000
   -0.8401    2.4727    1.4385 C   0  0  0  0  0  0  0  0  0  0  0  0
   -0.7639    1.0456    0.9126 C   0  0  0  0  0  0  0  0  0  0  0  0
    0.5159    0.3347    1.3027 C   0  0  0  0  0  0  0  0  0  0  0  0
    0.5740    0.2145    2.7016 O   0  0  0  0  0  0  0  0  0  0  0  0
    1.7497   -0.4042    3.1583 C   0  0  0  0  0  0  0  0  0  0  0  0
    1.7097   -0.4812    4.6670 C   0  0  0  0  0  0  0  0  0  0  0  0
   -0.0112    3.0737    1.0562 H   0  0  0  0  0  0  0  0  0  0  0  0
   -1.7707    2.9542    1.1343 H   0  0  0  0  0  0  0  0  0  0  0  0
   -0.7893    2.4862    2.5272 H   0  0  0  0  0  0  0  0  0  0  0  0
   -1.6113    0.4632    1.2833 H   0  0  0  0  0  0  0  0  0  0  0  0
    1.3883    0.9001    0.9385 H   0  0  0  0  0  0  0  0  0  0  0  0
    0.5552   -0.6618    0.8386 H   0  0  0  0  0  0  0  0  0  0  0  0
    2.6279    0.1686    2.8257 H   0  0  0  0  0  0  0  0  0  0  0  0
    1.8367   -1.4112    2.7241 H   0  0  0  0  0  0  0  0  0  0  0  0
    0.8468   -1.0606    4.9973 H   0  0  0  0  0  0  0  0  0  0  0  0
    2.6144   -0.9597    5.0452 H   0  0  0  0  0  0  0  0  0  0  0  0
    1.6391    0.5177    5.0989 H   0  0  0  0  0  0  0  0  0  0  0  0
    0.3289   -2.3360   -3.9466 C   0  0  0  0  0  0  0  0  0  0  0  0
    0.3289   -2.3360   -2.4237 C   0  0  0  0  0  0  0  0  0  0  0  0
    0.3289   -0.9429   -1.8282 C   0  0  0  0  0  0  0  0  0  0  0  0
   -0.8541   -0.2793   -2.1958 O   0  0  0  0  0  0  0  0  0  0  0  0
   -0.9248    1.0387   -1.7149 C   0  0  0  0  0  3  0  0  0  0  0  0
   -2.2281    1.6565   -2.1657 C   0  0  0  0  0  0  0  0  0  0  0  0
    1.2110   -1.8217   -4.3363 H   0  0  0  0  0  0  0  0  0  0  0  0
   -0.5538   -1.8263   -4.3327 H   0  0  0  0  0  0  0  0  0  0  0  0
    0.3344   -3.3539   -4.3393 H   0  0  0  0  0  0  0  0  0  0  0  0
    1.2104   -2.8625   -2.0474 H   0  0  0  0  0  0  0  0  0  0  0  0
   -0.5455   -2.8740   -2.0484 H   0  0  0  0  0  0  0  0  0  0  0  0
    1.2031   -0.3778   -2.1886 H   0  0  0  0  0  0  0  0  0  0  0  0
    0.4037   -0.9968   -0.7322 H   0  0  0  0  0  0  0  0  0  0  0  0
   -0.8441    1.0422   -0.3972 H   0  0  0  0  0  0  0  0  0  0  0  0
   -0.0719    1.6217   -2.0928 H   0  0  0  0  0  0  0  0  0  0  0  0
   -3.0745    1.0871   -1.7801 H   0  0  0  0  0  0  0  0  0  0  0  0
   -2.2889    1.6684   -3.2546 H   0  0  0  0  0  0  0  0  0  0  0  0
   -2.3057    2.6825   -1.8027 H   0  0  0  0  0  0  0  0  0  0  0  0
  1  2  1  0
  1  7  1  0
  1  8  1  0
  1  9  1  0
  2  3  1  0
  2 10  1  0
  2 31  1  0
  3  4  1  0
  3 11  1  0
  3 12  1  0
  4  5  1  0
  5  6  1  0
  5 13  1  0
  5 14  1  0
  6 15  1  0
  6 16  1  0
  6 17  1  0
 18 19  1  0
 18 24  1  0
 18 25  1  0
 18 26  1  0
 19 20  1  0
 19 27  1  0
 19 28  1  0
 20 21  1  0
 20 29  1  0
 20 30  1  0
 21 22  1  0
 22 23  1  0
 22 32  1  0
 23 33  1  0
 23 34  1  0
 23 35  1  0
M  RAD  1  22   2
M  END
>  <reaction>  (9) 
rmg_rxn_290

>  <mol_properties>  (9) 
{"1": {"label": "*3", "atom_type": "Cs"}, "2": {"label": "*4", "atom_type": "Cs"}, "20": {"label": "*0", "atom_type": "O2s"}, "21": {"label": "*1", "atom_type": "Cs"}, "30": {"label": "*2", "atom_type": "H0"}}

>  <type>  (9) 
unop_5

>  <geom_source>  (9) 
Heuristics

$$$$

     RDKit          3D

 35 33  0  0  0  0  0  0  0  0999 V2000
   -1.5785   -0.2972    2.0042 C   0  0  0  0  0  0  0  0  0  0  0  0
   -0.1874   -0.1903    1.3937 C   0  0  0  0  0  0  0  0  0  0  0  0
    0.1725    1.2207    0.9754 C   0  0  0  0  0  0  0  0  0  0  0  0
    0.2045    2.0490    2.1102 O   0  0  0  0  0  0  0  0  0  0  0  0
    0.4968    3.3902    1.8117 C   0  0  0  0  0  0  0  0  0  0  0  0
    0.5051    4.1882    3.0949 C   0  0  0  0  0  0  0  0  0  0  0  0
   -2.3419    0.0304    1.2940 H   0  0  0  0  0  0  0  0  0  0  0  0
   -1.8049   -1.3260    2.2878 H   0  0  0  0  0  0  0  0  0  0  0  0
   -1.6587    0.3274    2.8939 H   0  0  0  0  0  0  0  0  0  0  0  0
    0.5630   -0.5434    2.1057 H   0  0  0  0  0  0  0  0  0  0  0  0
   -0.5678    1.6015    0.2541 H   0  0  0  0  0  0  0  0  0  0  0  0
    1.1520    1.2318    0.4751 H   0  0  0  0  0  0  0  0  0  0  0  0
   -0.2536    3.7911    1.1144 H   0  0  0  0  0  0  0  0  0  0  0  0
    1.4736    3.4586    1.3101 H   0  0  0  0  0  0  0  0  0  0  0  0
    1.2584    3.8002    3.7814 H   0  0  0  0  0  0  0  0  0  0  0  0
    0.7311    5.2354    2.8875 H   0  0  0  0  0  0  0  0  0  0  0  0
   -0.4676    4.1338    3.5850 H   0  0  0  0  0  0  0  0  0  0  0  0
    0.9054   -3.5718   -3.4655 C   0  0  0  0  0  0  0  0  0  0  0  0
    0.9054   -3.5718   -1.9426 C   0  0  0  0  0  0  0  0  0  0  0  0
    0.9054   -2.1788   -1.3471 C   0  0  0  0  0  0  0  0  0  0  0  0
   -0.2776   -1.5152   -1.7147 O   0  0  0  0  0  0  0  0  0  0  0  0
   -0.3484   -0.1971   -1.2338 C   0  0  0  0  0  3  0  0  0  0  0  0
   -1.6517    0.4207   -1.6846 C   0  0  0  0  0  0  0  0  0  0  0  0
    1.7874   -3.0575   -3.8551 H   0  0  0  0  0  0  0  0  0  0  0  0
    0.0226   -3.0621   -3.8516 H   0  0  0  0  0  0  0  0  0  0  0  0
    0.9108   -4.5897   -3.8582 H   0  0  0  0  0  0  0  0  0  0  0  0
    1.7869   -4.0983   -1.5663 H   0  0  0  0  0  0  0  0  0  0  0  0
    0.0310   -4.1098   -1.5673 H   0  0  0  0  0  0  0  0  0  0  0  0
    1.7796   -1.6137   -1.7075 H   0  0  0  0  0  0  0  0  0  0  0  0
    0.9801   -2.2327   -0.2510 H   0  0  0  0  0  0  0  0  0  0  0  0
   -0.2677   -0.1937    0.0839 H   0  0  0  0  0  0  0  0  0  0  0  0
    0.5045    0.3859   -1.6117 H   0  0  0  0  0  0  0  0  0  0  0  0
   -2.4980   -0.1487   -1.2989 H   0  0  0  0  0  0  0  0  0  0  0  0
   -1.7125    0.4325   -2.7734 H   0  0  0  0  0  0  0  0  0  0  0  0
   -1.7293    1.4467   -1.3216 H   0  0  0  0  0  0  0  0  0  0  0  0
  1  2  1  0
  1  7  1  0
  1  8  1  0
  1  9  1  0
  2  3  1  0
  2 10  1  0
  2 31  1  0
  3  4  1  0
  3 11  1  0
  3 12  1  0
  4  5  1  0
  5  6  1  0
  5 13  1  0
  5 14  1  0
  6 15  1  0
  6 16  1  0
  6 17  1  0
 18 19  1  0
 18 24  1  0
 18 25  1  0
 18 26  1  0
 19 20  1  0
 19 27  1  0
 19 28  1  0
 20 21  1  0
 20 29  1  0
 20 30  1  0
 21 22  1  0
 22 23  1  0
 22 32  1  0
 23 33  1  0
 23 34  1  0
 23 35  1  0
M  RAD  1  22   2
M  END
>  <reaction>  (10) 
rmg_rxn_290

>  <mol_properties>  (10) 
{"1": {"label": "*3", "atom_type": "Cs"}, "2": {"label": "*4", "atom_type": "Cs"}, "20": {"label": "*0", "atom_type": "O2s"}, "21": {"label": "*1", "atom_type": "Cs"}, "30": {"label": "*2", "atom_type": "H0"}}

>  <type>  (10) 
unop_6

>  <geom_source>  (10) 
Heuristics

$$$$

     RDKit          3D

 35 33  0  0  0  0  0  0  0  0999 V2000
   -1.9222    0.5817    2.0259 C   0  0  0  0  0  0  0  0  0  0  0  0
   -0.6676   -0.0388    1.4256 C   0  0  0  0  0  0  0  0  0  0  0  0
    0.3437    0.9906    0.9643 C   0  0  0  0  0  0  0  0  0  0  0  0
    0.7931    1.7306    2.0713 O   0  0  0  0  0  0  0  0  0  0  0  0
    1.7120    2.7373    1.7312 C   0  0  0  0  0  0  0  0  0  0  0  0
    2.1270    3.4678    2.9873 C   0  0  0  0  0  0  0  0  0  0  0  0
   -2.4269    1.2218    1.2979 H   0  0  0  0  0  0  0  0  0  0  0  0
   -2.6285   -0.1877    2.3413 H   0  0  0  0  0  0  0  0  0  0  0  0
   -1.6735    1.1927    2.8936 H   0  0  0  0  0  0  0  0  0  0  0  0
   -0.1869   -0.6946    2.1562 H   0  0  0  0  0  0  0  0  0  0  0  0
   -0.1146    1.6651    0.2236 H   0  0  0  0  0  0  0  0  0  0  0  0
    1.1946    0.4958    0.4734 H   0  0  0  0  0  0  0  0  0  0  0  0
    1.2552    3.4349    1.0139 H   0  0  0  0  0  0  0  0  0  0  0  0
    2.5890    2.2934    1.2372 H   0  0  0  0  0  0  0  0  0  0  0  0
    2.5926    2.7794    3.6935 H   0  0  0  0  0  0  0  0  0  0  0  0
    2.8427    4.2557    2.7475 H   0  0  0  0  0  0  0  0  0  0  0  0
    1.2604    3.9214    3.4695 H   0  0  0  0  0  0  0  0  0  0  0  0
    0.4252   -3.4203   -3.4336 C   0  0  0  0  0  0  0  0  0  0  0  0
    0.4252   -3.4203   -1.9107 C   0  0  0  0  0  0  0  0  0  0  0  0
    0.4252   -2.0273   -1.3151 C   0  0  0  0  0  0  0  0  0  0  0  0
   -0.7578   -1.3637   -1.6827 O   0  0  0  0  0  0  0  0  0  0  0  0
   -0.8286   -0.0456   -1.2018 C   0  0  0  0  0  3  0  0  0  0  0  0
   -2.1319    0.5722   -1.6527 C   0  0  0  0  0  0  0  0  0  0  0  0
    1.3072   -2.9060   -3.8232 H   0  0  0  0  0  0  0  0  0  0  0  0
   -0.4576   -2.9107   -3.8196 H   0  0  0  0  0  0  0  0  0  0  0  0
    0.4306   -4.4382   -3.8262 H   0  0  0  0  0  0  0  0  0  0  0  0
    1.3067   -3.9468   -1.5344 H   0  0  0  0  0  0  0  0  0  0  0  0
   -0.4492   -3.9583   -1.5354 H   0  0  0  0  0  0  0  0  0  0  0  0
    1.2994   -1.4622   -1.6755 H   0  0  0  0  0  0  0  0  0  0  0  0
    0.4999   -2.0812   -0.2191 H   0  0  0  0  0  0  0  0  0  0  0  0
   -0.7479   -0.0422    0.1159 H   0  0  0  0  0  0  0  0  0  0  0  0
    0.0243    0.5374   -1.5797 H   0  0  0  0  0  0  0  0  0  0  0  0
   -2.9782    0.0028   -1.2670 H   0  0  0  0  0  0  0  0  0  0  0  0
   -2.1927    0.5840   -2.7415 H   0  0  0  0  0  0  0  0  0  0  0  0
   -2.2095    1.5982   -1.2896 H   0  0  0  0  0  0  0  0  0  0  0  0
  1  2  1  0
  1  7  1  0
  1  8  1  0
  1  9  1  0
  2  3  1  0
  2 10  1  0
  2 31  1  0
  3  4  1  0
  3 11  1  0
  3 12  1  0
  4  5  1  0
  5  6  1  0
  5 13  1  0
  5 14  1  0
  6 15  1  0
  6 16  1  0
  6 17  1  0
 18 19  1  0
 18 24  1  0
 18 25  1  0
 18 26  1  0
 19 20  1  0
 19 27  1  0
 19 28  1  0
 20 21  1  0
 20 29  1  0
 20 30  1  0
 21 22  1  0
 22 23  1  0
 22 32  1  0
 23 33  1  0
 23 34  1  0
 23 35  1  0
M  RAD  1  22   2
M  END
>  <reaction>  (11) 
rmg_rxn_290

>  <mol_properties>  (11) 
{"1": {"label": "*3", "atom_type": "Cs"}, "2": {"label": "*4", "atom_type": "Cs"}, "20": {"label": "*0", "atom_type": "O2s"}, "21": {"label": "*1", "atom_type": "Cs"}, "30": {"label": "*2", "atom_type": "H0"}}

>  <type>  (11) 
unop_7

>  <geom_source>  (11) 
Heuristics

$$$$

     RDKit          3D

 35 33  0  0  0  0  0  0  0  0999 V2000
    1.6398    0.8346    1.1300 C   0  0  0  0  0  0  0  0  0  0  0  0
    0.1847    0.7250    0.6944 C   0  0  0  0  0  0  0  0  0  0  0  0
   -0.7211    0.1741    1.7767 C   0  0  0  0  0  0  0  0  0  0  0  0
   -0.7302    1.0567    2.8702 O   0  0  0  0  0  0  0  0  0  0  0  0
   -1.5203    0.6071    3.9413 C   0  0  0  0  0  0  0  0  0  0  0  0
   -1.4591    1.6242    5.0572 C   0  0  0  0  0  0  0  0  0  0  0  0
    2.0369   -0.1438    1.4119 H   0  0  0  0  0  0  0  0  0  0  0  0
    2.2620    1.2290    0.3252 H   0  0  0  0  0  0  0  0  0  0  0  0
    1.7363    1.4960    1.9910 H   0  0  0  0  0  0  0  0  0  0  0  0
   -0.1917    1.7059    0.3928 H   0  0  0  0  0  0  0  0  0  0  0  0
   -0.3655   -0.8176    2.0985 H   0  0  0  0  0  0  0  0  0  0  0  0
   -1.7427    0.0454    1.3899 H   0  0  0  0  0  0  0  0  0  0  0  0
   -1.1559   -0.3701    4.2912 H   0  0  0  0  0  0  0  0  0  0  0  0
   -2.5588    0.4646    3.6075 H   0  0  0  0  0  0  0  0  0  0  0  0
   -1.8331    2.5898    4.7151 H   0  0  0  0  0  0  0  0  0  0  0  0
   -2.0671    1.2959    5.9017 H   0  0  0  0  0  0  0  0  0  0  0  0
   -0.4319    1.7547    5.3995 H   0  0  0  0  0  0  0  0  0  0  0  0
    1.2775   -2.6566   -4.1648 C   0  0  0  0  0  0  0  0  0  0  0  0
    1.2775   -2.6566   -2.6419 C   0  0  0  0  0  0  0  0  0  0  0  0
    1.2775   -1.2635   -2.0464 C   0  0  0  0  0  0  0  0  0  0  0  0
    0.0945   -0.5999   -2.4140 O   0  0  0  0  0  0  0  0  0  0  0  0
    0.0237    0.7181   -1.9331 C   0  0  0  0  0  3  0  0  0  0  0  0
   -1.2796    1.3359   -2.3839 C   0  0  0  0  0  0  0  0  0  0  0  0
    2.1595   -2.1423   -4.5544 H   0  0  0  0  0  0  0  0  0  0  0  0
    0.3947   -2.1469   -4.5509 H   0  0  0  0  0  0  0  0  0  0  0  0
    1.2829   -3.6745   -4.5575 H   0  0  0  0  0  0  0  0  0  0  0  0
    2.1590   -3.1831   -2.2656 H   0  0  0  0  0  0  0  0  0  0  0  0
    0.4031   -3.1946   -2.2666 H   0  0  0  0  0  0  0  0  0  0  0  0
    2.1516   -0.6984   -2.4068 H   0  0  0  0  0  0  0  0  0  0  0  0
    1.3522   -1.3174   -0.9504 H   0  0  0  0  0  0  0  0  0  0  0  0
    0.1044    0.7216   -0.6154 H   0  0  0  0  0  0  0  0  0  0  0  0
    0.8766    1.3011   -2.3110 H   0  0  0  0  0  0  0  0  0  0  0  0
   -2.1259    0.7665   -1.9983 H   0  0  0  0  0  0  0  0  0  0  0  0
   -1.3404    1.3478   -3.4728 H   0  0  0  0  0  0  0  0  0  0  0  0
   -1.3572    2.3619   -2.0209 H   0  0  0  0  0  0  0  0  0  0  0  0
  1  2  1  0
  1  7  1  0
  1  8  1  0
  1  9  1  0
  2  3  1  0
  2 10  1  0
  2 31  1  0
  3  4  1  0
  3 11  1  0
  3 12  1  0
  4  5  1  0
  5  6  1  0
  5 13  1  0
  5 14  1  0
  6 15  1  0
  6 16  1  0
  6 17  1  0
 18 19  1  0
 18 24  1  0
 18 25  1  0
 18 26  1  0
 19 20  1  0
 19 27  1  0
 19 28  1  0
 20 21  1  0
 20 29  1  0
 20 30  1  0
 21 22  1  0
 22 23  1  0
 22 32  1  0
 23 33  1  0
 23 34  1  0
 23 35  1  0
M  RAD  1  22   2
M  END
>  <reaction>  (12) 
rmg_rxn_290

>  <mol_properties>  (12) 
{"1": {"label": "*3", "atom_type": "Cs"}, "2": {"label": "*4", "atom_type": "Cs"}, "20": {"label": "*0", "atom_type": "O2s"}, "21": {"label": "*1", "atom_type": "Cs"}, "30": {"label": "*2", "atom_type": "H0"}}

>  <type>  (12) 
unop_8

>  <geom_source>  (12) 
Heuristics

$$$$

     RDKit          3D

 35 33  0  0  0  0  0  0  0  0999 V2000
   -0.1273   -1.0577    1.6092 C   0  0  0  0  0  0  0  0  0  0  0  0
    0.4585    0.2299    1.0450 C   0  0  0  0  0  0  0  0  0  0  0  0
   -0.4717    1.4178    1.1827 C   0  0  0  0  0  0  0  0  0  0  0  0
   -0.6925    1.6807    2.5455 O   0  0  0  0  0  0  0  0  0  0  0  0
   -1.5761    2.7496    2.7696 C   0  0  0  0  0  0  0  0  0  0  0  0
   -1.7428    2.9448    4.2588 C   0  0  0  0  0  0  0  0  0  0  0  0
   -1.0576   -1.3190    1.0986 H   0  0  0  0  0  0  0  0  0  0  0  0
    0.5665   -1.8909    1.4879 H   0  0  0  0  0  0  0  0  0  0  0  0
   -0.3472   -0.9489    2.6712 H   0  0  0  0  0  0  0  0  0  0  0  0
    1.3998    0.4659    1.5479 H   0  0  0  0  0  0  0  0  0  0  0  0
   -1.4298    1.2077    0.6815 H   0  0  0  0  0  0  0  0  0  0  0  0
   -0.0351    2.3023    0.6961 H   0  0  0  0  0  0  0  0  0  0  0  0
   -2.5473    2.5380    2.2984 H   0  0  0  0  0  0  0  0  0  0  0  0
   -1.1830    3.6653    2.3035 H   0  0  0  0  0  0  0  0  0  0  0  0
   -0.7825    3.1683    4.7247 H   0  0  0  0  0  0  0  0  0  0  0  0
   -2.4259    3.7721    4.4575 H   0  0  0  0  0  0  0  0  0  0  0  0
   -2.1472    2.0428    4.7195 H   0  0  0  0  0  0  0  0  0  0  0  0
    1.5513   -3.1517   -3.8143 C   0  0  0  0  0  0  0  0  0  0  0  0
    1.5513   -3.1517   -2.2914 C   0  0  0  0  0  0  0  0  0  0  0  0
    1.5513   -1.7586   -1.6958 C   0  0  0  0  0  0  0  0  0  0  0  0
    0.3683   -1.0950   -2.0634 O   0  0  0  0  0  0  0  0  0  0  0  0
    0.2975    0.2230   -1.5825 C   0  0  0  0  0  3  0  0  0  0  0  0
   -1.0058    0.8408   -2.0334 C   0  0  0  0  0  0  0  0  0  0  0  0
    2.4333   -2.6374   -4.2039 H   0  0  0  0  0  0  0  0  0  0  0  0
    0.6685   -2.6420   -4.2003 H   0  0  0  0  0  0  0  0  0  0  0  0
    1.5567   -4.1695   -4.2069 H   0  0  0  0  0  0  0  0  0  0  0  0
    2.4328   -3.6782   -1.9151 H   0  0  0  0  0  0  0  0  0  0  0  0
    0.6769   -3.6897   -1.9161 H   0  0  0  0  0  0  0  0  0  0  0  0
    2.4255   -1.1935   -2.0562 H   0  0  0  0  0  0  0  0  0  0  0  0
    1.6261   -1.8125   -0.5998 H   0  0  0  0  0  0  0  0  0  0  0  0
    0.3783    0.2265   -0.2648 H   0  0  0  0  0  0  0  0  0  0  0  0
    1.1504    0.8060   -1.9604 H   0  0  0  0  0  0  0  0  0  0  0  0
   -1.8521    0.2714   -1.6477 H   0  0  0  0  0  0  0  0  0  0  0  0
   -1.0666    0.8527   -3.1222 H   0  0  0  0  0  0  0  0  0  0  0  0
   -1.0834    1.8668   -1.6703 H   0  0  0  0  0  0  0  0  0  0  0  0
  1  2  1  0
  1  7  1  0
  1  8  1  0
  1  9  1  0
  2  3  1  0
  2 10  1  0
  2 31  1  0
  3  4  1  0
  3 11  1  0
  3 12  1  0
  4  5  1  0
  5  6  1  0
  5 13  1  0
  5 14  1  0
  6 15  1  0
  6 16  1  0
  6 17  1  0
 18 19  1  0
 18 24  1  0
 18 25  1  0
 18 26  1  0
 19 20  1  0
 19 27  1  0
 19 28  1  0
 20 21  1  0
 20 29  1  0
 20 30  1  0
 21 22  1  0
 22 23  1  0
 22 32  1  0
 23 33  1  0
 23 34  1  0
 23 35  1  0
M  RAD  1  22   2
M  END
>  <reaction>  (13) 
rmg_rxn_290

>  <mol_properties>  (13) 
{"1": {"label": "*3", "atom_type": "Cs"}, "2": {"label": "*4", "atom_type": "Cs"}, "20": {"label": "*0", "atom_type": "O2s"}, "21": {"label": "*1", "atom_type": "Cs"}, "30": {"label": "*2", "atom_type": "H0"}}

>  <type>  (13) 
unop_9

>  <geom_source>  (13) 
Heuristics

$$$$

     RDKit          3D

 35 33  0  0  0  0  0  0  0  0999 V2000
    1.4818    0.0473    1.1392 C   0  0  0  0  0  0  0  0  0  0  0  0
    0.1631    0.6651    0.6933 C   0  0  0  0  0  0  0  0  0  0  0  0
   -0.9420    0.5142    1.7186 C   0  0  0  0  0  0  0  0  0  0  0  0
   -0.5888    1.2068    2.8893 O   0  0  0  0  0  0  0  0  0  0  0  0
   -1.5441    1.0920    3.9129 C   0  0  0  0  0  0  0  0  0  0  0  0
   -1.0674    1.8684    5.1186 C   0  0  0  0  0  0  0  0  0  0  0  0
    1.3661   -1.0226    1.3295 H   0  0  0  0  0  0  0  0  0  0  0  0
    2.2510    0.1700    0.3753 H   0  0  0  0  0  0  0  0  0  0  0  0
    1.8359    0.5147    2.0580 H   0  0  0  0  0  0  0  0  0  0  0  0
    0.2992    1.7292    0.4836 H   0  0  0  0  0  0  0  0  0  0  0  0
   -1.1023   -0.5513    1.9474 H   0  0  0  0  0  0  0  0  0  0  0  0
   -1.8882    0.9090    1.3202 H   0  0  0  0  0  0  0  0  0  0  0  0
   -1.6912    0.0329    4.1711 H   0  0  0  0  0  0  0  0  0  0  0  0
   -2.5140    1.4782    3.5660 H   0  0  0  0  0  0  0  0  0  0  0  0
   -0.9345    2.9212    4.8671 H   0  0  0  0  0  0  0  0  0  0  0  0
   -1.7952    1.7941    5.9281 H   0  0  0  0  0  0  0  0  0  0  0  0
   -0.1134    1.4762    5.4728 H   0  0  0  0  0  0  0  0  0  0  0  0
    1.2559   -2.7164   -4.1659 C   0  0  0  0  0  0  0  0  0  0  0  0
    1.2559   -2.7164   -2.6430 C   0  0  0  0  0  0  0  0  0  0  0  0
    1.2559   -1.3234   -2.0475 C   0  0  0  0  0  0  0  0  0  0  0  0
    0.0729   -0.6598   -2.4151 O   0  0  0  0  0  0  0  0  0  0  0  0
    0.0022    0.6583   -1.9342 C   0  0  0  0  0  3  0  0  0  0  0  0
   -1.3011    1.2761   -2.3850 C   0  0  0  0  0  0  0  0  0  0  0  0
    2.1380   -2.2021   -4.5555 H   0  0  0  0  0  0  0  0  0  0  0  0
    0.3732   -2.2067   -4.5520 H   0  0  0  0  0  0  0  0  0  0  0  0
    1.2614   -3.7343   -4.5586 H   0  0  0  0  0  0  0  0  0  0  0  0
    2.1375   -3.2429   -2.2667 H   0  0  0  0  0  0  0  0  0  0  0  0
    0.3816   -3.2544   -2.2677 H   0  0  0  0  0  0  0  0  0  0  0  0
    2.1301   -0.7583   -2.4079 H   0  0  0  0  0  0  0  0  0  0  0  0
    1.3307   -1.3773   -0.9514 H   0  0  0  0  0  0  0  0  0  0  0  0
    0.0829    0.6617   -0.6165 H   0  0  0  0  0  0  0  0  0  0  0  0
    0.8551    1.2413   -2.3121 H   0  0  0  0  0  0  0  0  0  0  0  0
   -2.1475    0.7067   -1.9993 H   0  0  0  0  0  0  0  0  0  0  0  0
   -1.3619    1.2879   -3.4738 H   0  0  0  0  0  0  0  0  0  0  0  0
   -1.3787    2.3021   -2.0220 H   0  0  0  0  0  0  0  0  0  0  0  0
  1  2  1  0
  1  7  1  0
  1  8  1  0
  1  9  1  0
  2  3  1  0
  2 10  1  0
  2 31  1  0
  3  4  1  0
  3 11  1  0
  3 12  1  0
  4  5  1  0
  5  6  1  0
  5 13  1  0
  5 14  1  0
  6 15  1  0
  6 16  1  0
  6 17  1  0
 18 19  1  0
 18 24  1  0
 18 25  1  0
 18 26  1  0
 19 20  1  0
 19 27  1  0
 19 28  1  0
 20 21  1  0
 20 29  1  0
 20 30  1  0
 21 22  1  0
 22 23  1  0
 22 32  1  0
 23 33  1  0
 23 34  1  0
 23 35  1  0
M  RAD  1  22   2
M  END
>  <reaction>  (14) 
rmg_rxn_290

>  <mol_properties>  (14) 
{"1": {"label": "*3", "atom_type": "Cs"}, "2": {"label": "*4", "atom_type": "Cs"}, "20": {"label": "*0", "atom_type": "O2s"}, "21": {"label": "*1", "atom_type": "Cs"}, "30": {"label": "*2", "atom_type": "H0"}}

>  <type>  (14) 
unop_10

>  <geom_source>  (14) 
Heuristics

$$$$

     RDKit          3D

 35 33  0  0  0  0  0  0  0  0999 V2000
   -1.7668    1.6089    1.8432 C   0  0  0  0  0  0  0  0  0  0  0  0
   -0.9935    0.4269    1.2739 C   0  0  0  0  0  0  0  0  0  0  0  0
    0.4720    0.7313    1.0395 C   0  0  0  0  0  0  0  0  0  0  0  0
    1.0905    1.0176    2.2685 O   0  0  0  0  0  0  0  0  0  0  0  0
    2.4502    1.3480    2.1432 C   0  0  0  0  0  0  0  0  0  0  0  0
    3.0138    1.6366    3.5153 C   0  0  0  0  0  0  0  0  0  0  0  0
   -1.7224    2.4659    1.1664 H   0  0  0  0  0  0  0  0  0  0  0  0
   -2.8172    1.3553    1.9935 H   0  0  0  0  0  0  0  0  0  0  0  0
   -1.3499    1.9173    2.8019 H   0  0  0  0  0  0  0  0  0  0  0  0
   -1.0665   -0.4295    1.9491 H   0  0  0  0  0  0  0  0  0  0  0  0
    0.5753    1.5911    0.3587 H   0  0  0  0  0  0  0  0  0  0  0  0
    0.9677   -0.1260    0.5609 H   0  0  0  0  0  0  0  0  0  0  0  0
    2.5640    2.2246    1.4886 H   0  0  0  0  0  0  0  0  0  0  0  0
    2.9959    0.5179    1.6703 H   0  0  0  0  0  0  0  0  0  0  0  0
    2.9138    0.7634    4.1609 H   0  0  0  0  0  0  0  0  0  0  0  0
    4.0712    1.8956    3.4429 H   0  0  0  0  0  0  0  0  0  0  0  0
    2.4837    2.4695    3.9786 H   0  0  0  0  0  0  0  0  0  0  0  0
    0.0993   -2.9546   -3.5853 C   0  0  0  0  0  0  0  0  0  0  0  0
    0.0993   -2.9546   -2.0624 C   0  0  0  0  0  0  0  0  0  0  0  0
    0.0993   -1.5616   -1.4669 C   0  0  0  0  0  0  0  0  0  0  0  0
   -1.0837   -0.8980   -1.8345 O   0  0  0  0  0  0  0  0  0  0  0  0
   -1.1544    0.4201   -1.3536 C   0  0  0  0  0  3  0  0  0  0  0  0
   -2.4577    1.0379   -1.8044 C   0  0  0  0  0  0  0  0  0  0  0  0
    0.9814   -2.4403   -3.9749 H   0  0  0  0  0  0  0  0  0  0  0  0
   -0.7834   -2.4449   -3.9714 H   0  0  0  0  0  0  0  0  0  0  0  0
    0.1048   -3.9725   -3.9780 H   0  0  0  0  0  0  0  0  0  0  0  0
    0.9808   -3.4811   -1.6861 H   0  0  0  0  0  0  0  0  0  0  0  0
   -0.7751   -3.4926   -1.6871 H   0  0  0  0  0  0  0  0  0  0  0  0
    0.9735   -0.9965   -1.8273 H   0  0  0  0  0  0  0  0  0  0  0  0
    0.1741   -1.6155   -0.3708 H   0  0  0  0  0  0  0  0  0  0  0  0
   -1.0737    0.4235   -0.0359 H   0  0  0  0  0  0  0  0  0  0  0  0
   -0.3015    1.0031   -1.7314 H   0  0  0  0  0  0  0  0  0  0  0  0
   -3.3041    0.4685   -1.4187 H   0  0  0  0  0  0  0  0  0  0  0  0
   -2.5185    1.0497   -2.8932 H   0  0  0  0  0  0  0  0  0  0  0  0
   -2.5353    2.0639   -1.4413 H   0  0  0  0  0  0  0  0  0  0  0  0
  1  2  1  0
  1  7  1  0
  1  8  1  0
  1  9  1  0
  2  3  1  0
  2 10  1  0
  2 31  1  0
  3  4  1  0
  3 11  1  0
  3 12  1  0
  4  5  1  0
  5  6  1  0
  5 13  1  0
  5 14  1  0
  6 15  1  0
  6 16  1  0
  6 17  1  0
 18 19  1  0
 18 24  1  0
 18 25  1  0
 18 26  1  0
 19 20  1  0
 19 27  1  0
 19 28  1  0
 20 21  1  0
 20 29  1  0
 20 30  1  0
 21 22  1  0
 22 23  1  0
 22 32  1  0
 23 33  1  0
 23 34  1  0
 23 35  1  0
M  RAD  1  22   2
M  END
>  <reaction>  (15) 
rmg_rxn_290

>  <mol_properties>  (15) 
{"1": {"label": "*3", "atom_type": "Cs"}, "2": {"label": "*4", "atom_type": "Cs"}, "20": {"label": "*0", "atom_type": "O2s"}, "21": {"label": "*1", "atom_type": "Cs"}, "30": {"label": "*2", "atom_type": "H0"}}

>  <type>  (15) 
unop_11

>  <geom_source>  (15) 
Heuristics

$$$$

     RDKit          3D

 35 33  0  0  0  0  0  0  0  0999 V2000
    0.5545   -0.9023    1.3619 C   0  0  0  0  0  0  0  0  0  0  0  0
    0.4142    0.5222    0.8418 C   0  0  0  0  0  0  0  0  0  0  0  0
   -0.8086    1.2355    1.3814 C   0  0  0  0  0  0  0  0  0  0  0  0
   -0.6955    1.3629    2.7764 O   0  0  0  0  0  0  0  0  0  0  0  0
   -1.8069    1.9843    3.3699 C   0  0  0  0  0  0  0  0  0  0  0  0
   -1.5832    2.0692    4.8620 C   0  0  0  0  0  0  0  0  0  0  0  0
   -0.3146   -1.5049    1.0867 H   0  0  0  0  0  0  0  0  0  0  0  0
    1.4411   -1.3856    0.9489 H   0  0  0  0  0  0  0  0  0  0  0  0
    0.6370   -0.9101    2.4487 H   0  0  0  0  0  0  0  0  0  0  0  0
    1.3004    1.1062    1.1033 H   0  0  0  0  0  0  0  0  0  0  0  0
   -1.7188    0.6685    1.1294 H   0  0  0  0  0  0  0  0  0  0  0  0
   -0.9045    2.2295    0.9205 H   0  0  0  0  0  0  0  0  0  0  0  0
   -2.7190    1.4101    3.1500 H   0  0  0  0  0  0  0  0  0  0  0  0
   -1.9466    2.9892    2.9444 H   0  0  0  0  0  0  0  0  0  0  0  0
   -0.6866    2.6500    5.0815 H   0  0  0  0  0  0  0  0  0  0  0  0
   -2.4351    2.5499    5.3454 H   0  0  0  0  0  0  0  0  0  0  0  0
   -1.4601    1.0725    5.2873 H   0  0  0  0  0  0  0  0  0  0  0  0
    1.5070   -2.8594   -4.0174 C   0  0  0  0  0  0  0  0  0  0  0  0
    1.5070   -2.8594   -2.4945 C   0  0  0  0  0  0  0  0  0  0  0  0
    1.5070   -1.4663   -1.8990 C   0  0  0  0  0  0  0  0  0  0  0  0
    0.3240   -0.8027   -2.2666 O   0  0  0  0  0  0  0  0  0  0  0  0
    0.2533    0.5153   -1.7857 C   0  0  0  0  0  3  0  0  0  0  0  0
   -1.0500    1.1331   -2.2365 C   0  0  0  0  0  0  0  0  0  0  0  0
    2.3891   -2.3451   -4.4070 H   0  0  0  0  0  0  0  0  0  0  0  0
    0.6243   -2.3497   -4.4035 H   0  0  0  0  0  0  0  0  0  0  0  0
    1.5125   -3.8772   -4.4101 H   0  0  0  0  0  0  0  0  0  0  0  0
    2.3885   -3.3858   -2.1182 H   0  0  0  0  0  0  0  0  0  0  0  0
    0.6326   -3.3974   -2.1192 H   0  0  0  0  0  0  0  0  0  0  0  0
    2.3812   -0.9012   -2.2594 H   0  0  0  0  0  0  0  0  0  0  0  0
    1.5818   -1.5202   -0.8029 H   0  0  0  0  0  0  0  0  0  0  0  0
    0.3340    0.5188   -0.4680 H   0  0  0  0  0  0  0  0  0  0  0  0
    1.1062    1.0983   -2.1636 H   0  0  0  0  0  0  0  0  0  0  0  0
   -1.8964    0.5637   -1.8508 H   0  0  0  0  0  0  0  0  0  0  0  0
   -1.1108    1.1450   -3.3254 H   0  0  0  0  0  0  0  0  0  0  0  0
   -1.1276    2.1591   -1.8735 H   0  0  0  0  0  0  0  0  0  0  0  0
  1  2  1  0
  1  7  1  0
  1  8  1  0
  1  9  1  0
  2  3  1  0
  2 10  1  0
  2 31  1  0
  3  4  1  0
  3 11  1  0
  3 12  1  0
  4  5  1  0
  5  6  1  0
  5 13  1  0
  5 14  1  0
  6 15  1  0
  6 16  1  0
  6 17  1  0
 18 19  1  0
 18 24  1  0
 18 25  1  0
 18 26  1  0
 19 20  1  0
 19 27  1  0
 19 28  1  0
 20 21  1  0
 20 29  1  0
 20 30  1  0
 21 22  1  0
 22 23  1  0
 22 32  1  0
 23 33  1  0
 23 34  1  0
 23 35  1  0
M  RAD  1  22   2
M  END
>  <reaction>  (16) 
rmg_rxn_290

>  <mol_properties>  (16) 
{"1": {"label": "*3", "atom_type": "Cs"}, "2": {"label": "*4", "atom_type": "Cs"}, "20": {"label": "*0", "atom_type": "O2s"}, "21": {"label": "*1", "atom_type": "Cs"}, "30": {"label": "*2", "atom_type": "H0"}}

>  <type>  (16) 
unop_12

>  <geom_source>  (16) 
Heuristics

$$$$

     RDKit          3D

 35 33  0  0  0  0  0  0  0  0999 V2000
    3.1204    0.2967   -0.9516 O   0  0  0  0  0  0  0  0  0  0  0  0
   -2.4981   -0.4705    0.6893 O   0  0  0  0  0  0  0  0  0  0  0  0
    1.0455   -0.9044   -0.5434 C   0  0  0  0  0  0  0  0  0  0  0  0
   -3.6788    1.5500    0.1444 C   0  0  0  0  0  0  0  0  0  0  0  0
    1.7697    0.4462   -0.5507 C   0  0  0  0  0  0  0  0  0  0  0  0
   -2.3392    0.8122    0.1308 C   0  0  0  0  0  0  0  0  0  0  0  0
    3.9726    0.1051    0.1626 C   0  0  0  0  0  0  0  0  0  0  0  0
    1.0199   -1.5461   -1.9279 C   0  0  0  0  0  0  0  0  0  0  0  0
   -4.7104    0.8742   -0.7567 C   0  0  0  0  0  0  0  0  0  0  0  0
    4.5518    1.4385    0.6223 C   0  0  0  0  0  0  0  0  0  0  0  0
   -0.8988   -1.6492    2.0248 C   0  0  0  0  0  0  0  0  0  0  0  0
   -1.2455   -1.1012    0.6510 C   0  0  0  0  0  3  0  0  0  0  0  0
    1.5365   -1.5958    0.1741 H   0  0  0  0  0  0  0  0  0  0  0  0
   -0.1922   -0.7164   -0.1442 H   0  0  0  0  0  0  0  0  0  0  0  0
   -4.0690    1.5927    1.1845 H   0  0  0  0  0  0  0  0  0  0  0  0
   -3.5219    2.5923   -0.2084 H   0  0  0  0  0  0  0  0  0  0  0  0
    3.4795   -0.4148    1.0170 H   0  0  0  0  0  0  0  0  0  0  0  0
    4.8137   -0.5455   -0.1574 H   0  0  0  0  0  0  0  0  0  0  0  0
    1.2645    1.1167   -1.2778 H   0  0  0  0  0  0  0  0  0  0  0  0
    1.6594    0.9373    0.4441 H   0  0  0  0  0  0  0  0  0  0  0  0
   -1.9722    0.7485   -0.9209 H   0  0  0  0  0  0  0  0  0  0  0  0
   -1.6141    1.4094    0.7318 H   0  0  0  0  0  0  0  0  0  0  0  0
    3.7428    2.1082    0.9817 H   0  0  0  0  0  0  0  0  0  0  0  0
    5.2694    1.2683    1.4524 H   0  0  0  0  0  0  0  0  0  0  0  0
    5.0849    1.9309   -0.2184 H   0  0  0  0  0  0  0  0  0  0  0  0
    0.5182   -0.8729   -2.6548 H   0  0  0  0  0  0  0  0  0  0  0  0
    0.4549   -2.5004   -1.8807 H   0  0  0  0  0  0  0  0  0  0  0  0
    2.0522   -1.7622   -2.2760 H   0  0  0  0  0  0  0  0  0  0  0  0
   -4.9198   -0.1575   -0.4027 H   0  0  0  0  0  0  0  0  0  0  0  0
   -4.3421    0.8355   -1.8040 H   0  0  0  0  0  0  0  0  0  0  0  0
   -5.6574    1.4535   -0.7353 H   0  0  0  0  0  0  0  0  0  0  0  0
   -0.8643   -0.8196    2.7617 H   0  0  0  0  0  0  0  0  0  0  0  0
   -1.6598   -2.3932    2.3423 H   0  0  0  0  0  0  0  0  0  0  0  0
    0.0964   -2.1389    1.9873 H   0  0  0  0  0  0  0  0  0  0  0  0
   -1.2688   -1.9275   -0.0912 H   0  0  0  0  0  0  0  0  0  0  0  0
  1  7  1  0
  1  5  1  0
  2 12  1  0
  2  6  1  0
  3  8  1  0
  3  5  1  0
  3 13  1  0
  3 14  1  0
  4  9  1  0
  4  6  1  0
  4 15  1  0
  4 16  1  0
  5 19  1  0
  5 20  1  0
  6 21  1  0
  6 22  1  0
  7 10  1  0
  7 17  1  0
  7 18  1  0
  8 26  1  0
  8 27  1  0
  8 28  1  0
  9 29  1  0
  9 30  1  0
  9 31  1  0
 10 23  1  0
 10 24  1  0
 10 25  1  0
 11 12  1  0
 11 32  1  0
 11 33  1  0
 11 34  1  0
 12 35  1  0
M  RAD  1  12   2
M  END
>  <reaction>  (17) 
rmg_rxn_290

>  <mol_properties>  (17) 
{"1": {"label": "*3", "atom_type": "Cs"}, "2": {"label": "*4", "atom_type": "Cs"}, "20": {"label": "*0", "atom_type": "O2s"}, "21": {"label": "*1", "atom_type": "Cs"}, "30": {"label": "*2", "atom_type": "H0"}}

>  <type>  (17) 
unop_13

>  <geom_source>  (17) 
AutoTST

$$$$

     RDKit          3D

 35 33  0  0  0  0  0  0  0  0999 V2000
    1.0841   -0.5284    1.2013 C   0  0  0  0  0  0  0  0  0  0  0  0
    0.2467    0.6509    0.7245 C   0  0  0  0  0  0  0  0  0  0  0  0
   -0.9780    0.8969    1.5817 C   0  0  0  0  0  0  0  0  0  0  0  0
   -0.5742    1.2356    2.8845 O   0  0  0  0  0  0  0  0  0  0  0  0
   -1.6500    1.4478    3.7627 C   0  0  0  0  0  0  0  0  0  0  0  0
   -1.1069    1.8030    5.1274 C   0  0  0  0  0  0  0  0  0  0  0  0
    0.4980   -1.4507    1.1938 H   0  0  0  0  0  0  0  0  0  0  0  0
    1.9527   -0.6786    0.5585 H   0  0  0  0  0  0  0  0  0  0  0  0
    1.4375   -0.3644    2.2193 H   0  0  0  0  0  0  0  0  0  0  0  0
    0.8519    1.5611    0.7144 H   0  0  0  0  0  0  0  0  0  0  0  0
   -1.6087   -0.0059    1.6077 H   0  0  0  0  0  0  0  0  0  0  0  0
   -1.5857    1.7081    1.1546 H   0  0  0  0  0  0  0  0  0  0  0  0
   -2.2712    0.5419    3.8199 H   0  0  0  0  0  0  0  0  0  0  0  0
   -2.2913    2.2565    3.3818 H   0  0  0  0  0  0  0  0  0  0  0  0
   -0.5021    2.7090    5.0741 H   0  0  0  0  0  0  0  0  0  0  0  0
   -1.9261    1.9733    5.8277 H   0  0  0  0  0  0  0  0  0  0  0  0
   -0.4835    0.9953    5.5127 H   0  0  0  0  0  0  0  0  0  0  0  0
    1.3395   -2.7306   -4.1347 C   0  0  0  0  0  0  0  0  0  0  0  0
    1.3395   -2.7306   -2.6118 C   0  0  0  0  0  0  0  0  0  0  0  0
    1.3395   -1.3376   -2.0162 C   0  0  0  0  0  0  0  0  0  0  0  0
    0.1565   -0.6740   -2.3838 O   0  0  0  0  0  0  0  0  0  0  0  0
    0.0858    0.6441   -1.9029 C   0  0  0  0  0  3  0  0  0  0  0  0
   -1.2175    1.2619   -2.3538 C   0  0  0  0  0  0  0  0  0  0  0  0
    2.2216   -2.2163   -4.5243 H   0  0  0  0  0  0  0  0  0  0  0  0
    0.4568   -2.2209   -4.5207 H   0  0  0  0  0  0  0  0  0  0  0  0
    1.3450   -3.7485   -4.5273 H   0  0  0  0  0  0  0  0  0  0  0  0
    2.2211   -3.2571   -2.2355 H   0  0  0  0  0  0  0  0  0  0  0  0
    0.4652   -3.2686   -2.2365 H   0  0  0  0  0  0  0  0  0  0  0  0
    2.2137   -0.7725   -2.3766 H   0  0  0  0  0  0  0  0  0  0  0  0
    1.4143   -1.3915   -0.9202 H   0  0  0  0  0  0  0  0  0  0  0  0
    0.1665    0.6475   -0.5853 H   0  0  0  0  0  0  0  0  0  0  0  0
    0.9387    1.2271   -2.2808 H   0  0  0  0  0  0  0  0  0  0  0  0
   -2.0639    0.6925   -1.9681 H   0  0  0  0  0  0  0  0  0  0  0  0
   -1.2783    1.2737   -3.4426 H   0  0  0  0  0  0  0  0  0  0  0  0
   -1.2951    2.2879   -1.9907 H   0  0  0  0  0  0  0  0  0  0  0  0
  1  2  1  0
  1  7  1  0
  1  8  1  0
  1  9  1  0
  2  3  1  0
  2 10  1  0
  2 31  1  0
  3  4  1  0
  3 11  1  0
  3 12  1  0
  4  5  1  0
  5  6  1  0
  5 13  1  0
  5 14  1  0
  6 15  1  0
  6 16  1  0
  6 17  1  0
 18 19  1  0
 18 24  1  0
 18 25  1  0
 18 26  1  0
 19 20  1  0
 19 27  1  0
 19 28  1  0
 20 21  1  0
 20 29  1  0
 20 30  1  0
 21 22  1  0
 22 23  1  0
 22 32  1  0
 23 33  1  0
 23 34  1  0
 23 35  1  0
M  RAD  1  22   2
M  END
>  <reaction>  (18) 
rmg_rxn_290

>  <mol_properties>  (18) 
{"1": {"label": "*3", "atom_type": "Cs"}, "2": {"label": "*4", "atom_type": "Cs"}, "20": {"label": "*0", "atom_type": "O2s"}, "21": {"label": "*1", "atom_type": "Cs"}, "30": {"label": "*2", "atom_type": "H0"}}

>  <type>  (18) 
unop_14

>  <geom_source>  (18) 
gaussian_log

$$$$
