
     RDKit          3D

 18 17  0  0  0  0  0  0  0  0999 V2000
    2.2026   -0.7213   -0.2612 C   0  0  0  0  0  0  0  0  0  0  0  0
    1.5384    0.2638    0.6915 C   0  0  0  0  0  0  0  0  0  0  0  0
    2.2584    1.5946    0.7694 C   0  0  0  0  0  0  0  0  0  0  0  0
    2.2212    2.2185   -0.4893 O   0  0  0  0  0  0  0  0  0  0  0  0
    2.8988    3.4488   -0.5204 C   0  0  0  0  0  0  0  0  0  0  0  0
    2.7981    4.0296   -1.9118 C   0  0  0  0  0  0  0  0  0  0  0  0
    3.2294   -0.9309    0.0486 H   0  0  0  0  0  0  0  0  0  0  0  0
    2.2338   -0.3181   -1.2734 H   0  0  0  0  0  0  0  0  0  0  0  0
    1.6610   -1.6680   -0.2875 H   0  0  0  0  0  0  0  0  0  0  0  0
    1.4990   -0.1566    1.7002 H   0  0  0  0  0  0  0  0  0  0  0  0
    0.5055    0.4455    0.3835 H   0  0  0  0  0  0  0  0  0  0  0  0
    3.3038    1.4410    1.0808 H   0  0  0  0  0  0  0  0  0  0  0  0
    1.7844    2.2410    1.5226 H   0  0  0  0  0  0  0  0  0  0  0  0
    2.4596    4.1376    0.2164 H   0  0  0  0  0  0  0  0  0  0  0  0
    3.9524    3.3035   -0.2397 H   0  0  0  0  0  0  0  0  0  0  0  0
    1.7543    4.1869   -2.1856 H   0  0  0  0  0  0  0  0  0  0  0  0
    3.2472    3.3545   -2.6411 H   0  0  0  0  0  0  0  0  0  0  0  0
    3.3178    4.9878   -1.9600 H   0  0  0  0  0  0  0  0  0  0  0  0
  1  2  1  0
  1  7  1  0
  1  8  1  0
  1  9  1  0
  2  3  1  0
  2 10  1  0
  2 11  1  0
  3  4  1  0
  3 12  1  0
  3 13  1  0
  4  5  1  0
  5  6  1  0
  5 14  1  0
  5 15  1  0
  6 16  1  0
  6 17  1  0
  6 18  1  0
M  END
>  <reaction>  (1) 
rmg_rxn_279

>  <mol_properties>  (1) 
{"4": {"label": "donator", "atom_type": "Cs"}, "13": {"label": "d_hydrogen", "atom_type": "H0"}}

>  <type>  (1) 
r1h

$$$$

     RDKit          3D

 13 12  0  0  0  0  0  0  0  0999 V2000
    2.0654   -0.2739   -0.0844 C   0  0  0  0  0  3  0  0  0  0  0  0
    0.6326   -0.4110   -0.4406 C   0  0  0  0  0  0  0  0  0  0  0  0
   -0.3055    0.4151    0.4359 C   0  0  0  0  0  0  0  0  0  0  0  0
   -1.7714    0.2357    0.0671 C   0  0  0  0  0  0  0  0  0  0  0  0
    2.3610    0.0676    0.8995 H   0  0  0  0  0  0  0  0  0  0  0  0
    2.8408   -0.6127   -0.7582 H   0  0  0  0  0  0  0  0  0  0  0  0
    0.3313   -1.4695   -0.3768 H   0  0  0  0  0  0  0  0  0  0  0  0
    0.4826   -0.1432   -1.4940 H   0  0  0  0  0  0  0  0  0  0  0  0
   -0.1518    0.1351    1.4826 H   0  0  0  0  0  0  0  0  0  0  0  0
   -0.0303    1.4705    0.3565 H   0  0  0  0  0  0  0  0  0  0  0  0
   -2.0768   -0.8084    0.1692 H   0  0  0  0  0  0  0  0  0  0  0  0
   -1.9546    0.5339   -0.9679 H   0  0  0  0  0  0  0  0  0  0  0  0
   -2.4194    0.8370    0.7066 H   0  0  0  0  0  0  0  0  0  0  0  0
  1  2  1  0
  1  5  1  0
  1  6  1  0
  2  3  1  0
  2  7  1  0
  2  8  1  0
  3  4  1  0
  3  9  1  0
  3 10  1  0
  4 11  1  0
  4 12  1  0
  4 13  1  0
M  RAD  1   1   2
M  END
>  <reaction>  (2) 
rmg_rxn_279

>  <mol_properties>  (2) 
{"0": {"label": "acceptor", "atom_type": "Cs"}}

>  <type>  (2) 
r2

$$$$

     RDKit          3D

 14 13  0  0  0  0  0  0  0  0999 V2000
    1.8106   -0.5953    0.5577 C   0  0  0  0  0  0  0  0  0  0  0  0
    0.5197    0.2064    0.6554 C   0  0  0  0  0  0  0  0  0  0  0  0
   -0.5206   -0.2080   -0.3788 C   0  0  0  0  0  0  0  0  0  0  0  0
   -1.8114    0.5937   -0.2812 C   0  0  0  0  0  0  0  0  0  0  0  0
    2.2725   -0.4752   -0.4251 H   0  0  0  0  0  0  0  0  0  0  0  0
    1.6214   -1.6612    0.7052 H   0  0  0  0  0  0  0  0  0  0  0  0
    2.5364   -0.2784    1.3084 H   0  0  0  0  0  0  0  0  0  0  0  0
    0.0930    0.0950    1.6574 H   0  0  0  0  0  0  0  0  0  0  0  0
    0.7393    1.2723    0.5354 H   0  0  0  0  0  0  0  0  0  0  0  0
   -0.7402   -1.2739   -0.2588 H   0  0  0  0  0  0  0  0  0  0  0  0
   -0.0938   -0.0965   -1.3808 H   0  0  0  0  0  0  0  0  0  0  0  0
   -1.6222    1.6596   -0.4287 H   0  0  0  0  0  0  0  0  0  0  0  0
   -2.2734    0.4736    0.7017 H   0  0  0  0  0  0  0  0  0  0  0  0
   -2.5373    0.2768   -1.0318 H   0  0  0  0  0  0  0  0  0  0  0  0
  1  2  1  0
  1  5  1  0
  1  6  1  0
  1  7  1  0
  2  3  1  0
  2  8  1  0
  2  9  1  0
  3  4  1  0
  3 10  1  0
  3 11  1  0
  4 12  1  0
  4 13  1  0
  4 14  1  0
M  END
>  <reaction>  (3) 
rmg_rxn_279

>  <mol_properties>  (3) 
{"0": {"label": "acceptor", "atom_type": "Cs"}, "13": {"label": "a_hydrogen", "atom_type": "H0"}}

>  <type>  (3) 
r2h

$$$$

     RDKit          3D

 31 29  0  0  0  0  0  0  0  0999 V2000
    0.2927    1.7662    1.2841 C   0  0  0  0  0  3  0  0  0  0  0  0
    0.1326    0.4075    1.9100 C   0  0  0  0  0  0  0  0  0  0  0  0
    0.6753    0.3190    3.3382 C   0  0  0  0  0  0  0  0  0  0  0  0
    0.5053   -1.0667    3.9474 C   0  0  0  0  0  0  0  0  0  0  0  0
    1.3224    2.0804    1.1165 H   0  0  0  0  0  0  0  0  0  0  0  0
   -0.3019    2.5579    1.7387 H   0  0  0  0  0  0  0  0  0  0  0  0
    0.6358   -0.3451    1.2934 H   0  0  0  0  0  0  0  0  0  0  0  0
   -0.9263    0.1280    1.9157 H   0  0  0  0  0  0  0  0  0  0  0  0
    1.7344    0.5943    3.3357 H   0  0  0  0  0  0  0  0  0  0  0  0
    0.1677    1.0618    3.9609 H   0  0  0  0  0  0  0  0  0  0  0  0
    1.0291   -1.8210    3.3554 H   0  0  0  0  0  0  0  0  0  0  0  0
   -0.5490   -1.3507    3.9849 H   0  0  0  0  0  0  0  0  0  0  0  0
    0.8989   -1.1075    4.9644 H   0  0  0  0  0  0  0  0  0  0  0  0
    0.4657   -2.2043   -3.1144 C   0  0  0  0  0  0  0  0  0  0  0  0
    1.2190   -1.6030   -1.9354 C   0  0  0  0  0  0  0  0  0  0  0  0
    0.9133   -0.1364   -1.7168 C   0  0  0  0  0  0  0  0  0  0  0  0
   -0.4553    0.0114   -1.4112 O   0  0  0  0  0  0  0  0  0  0  0  0
   -0.8308    1.3135   -1.1324 C   0  0  0  0  0  0  0  0  0  0  0  0
   -2.3099    1.4102   -0.9042 C   0  0  0  0  0  0  0  0  0  0  0  0
    0.7152   -1.6840   -4.0424 H   0  0  0  0  0  0  0  0  0  0  0  0
   -0.6112   -2.1262   -2.9656 H   0  0  0  0  0  0  0  0  0  0  0  0
    0.7165   -3.2581   -3.2436 H   0  0  0  0  0  0  0  0  0  0  0  0
    2.2973   -1.7010   -2.0878 H   0  0  0  0  0  0  0  0  0  0  0  0
    0.9779   -2.1475   -1.0185 H   0  0  0  0  0  0  0  0  0  0  0  0
    1.1539    0.4457   -2.6190 H   0  0  0  0  0  0  0  0  0  0  0  0
    1.5204    0.2632   -0.8943 H   0  0  0  0  0  0  0  0  0  0  0  0
   -0.2538    1.6479   -0.0090 H   0  0  0  0  0  0  0  0  0  0  0  0
   -0.4441    2.0249   -1.8741 H   0  0  0  0  0  0  0  0  0  0  0  0
   -2.6113    0.7512   -0.0880 H   0  0  0  0  0  0  0  0  0  0  0  0
   -2.8708    1.1232   -1.7976 H   0  0  0  0  0  0  0  0  0  0  0  0
   -2.5808    2.4333   -0.6399 H   0  0  0  0  0  0  0  0  0  0  0  0
  1  2  1  0
  1  5  1  0
  1  6  1  0
  2  3  1  0
  2  7  1  0
  2  8  1  0
  3  4  1  0
  3  9  1  0
  3 10  1  0
  4 11  1  0
  4 12  1  0
  4 13  1  0
 14 15  1  0
 14 20  1  0
 14 21  1  0
 14 22  1  0
 15 16  1  0
 15 23  1  0
 15 24  1  0
 16 17  1  0
 16 25  1  0
 16 26  1  0
 17 18  1  0
 18 19  1  0
 18 27  1  0
 18 28  1  0
 19 29  1  0
 19 30  1  0
 19 31  1  0
M  RAD  1   1   2
M  END
>  <reaction>  (4) 
rmg_rxn_279

>  <mol_properties>  (4) 
{"0": {"label": "*3", "atom_type": "Cs"}, "1": {"label": "*4", "atom_type": "Cs"}, "16": {"label": "*0", "atom_type": "O2s"}, "17": {"label": "*1", "atom_type": "Cs"}, "26": {"label": "*2", "atom_type": "H0"}}

>  <type>  (4) 
ts

$$$$

     RDKit          3D

 31 29  0  0  0  0  0  0  0  0999 V2000
   -0.5726    0.4565    1.5489 C   0  0  0  0  0  0  0  0  0  0  0  0
    0.6288    1.2570    2.0330 C   0  0  0  0  0  0  0  0  0  0  0  0
    0.3292    2.0943    3.2710 C   0  0  0  0  0  0  0  0  0  0  0  0
    1.5306    2.8948    3.7551 C   0  0  0  0  0  0  0  0  0  0  0  0
   -1.4054    1.1161    1.2939 H   0  0  0  0  0  0  0  0  0  0  0  0
   -0.9218   -0.2316    2.3224 H   0  0  0  0  0  0  0  0  0  0  0  0
    0.9787    1.9154    1.2313 H   0  0  0  0  0  0  0  0  0  0  0  0
    1.4588    0.5775    2.2522 H   0  0  0  0  0  0  0  0  0  0  0  0
   -0.5007    2.7738    3.0517 H   0  0  0  0  0  0  0  0  0  0  0  0
   -0.0206    1.4359    4.0727 H   0  0  0  0  0  0  0  0  0  0  0  0
    1.8798    3.5830    2.9815 H   0  0  0  0  0  0  0  0  0  0  0  0
    2.3635    2.2352    4.0101 H   0  0  0  0  0  0  0  0  0  0  0  0
    1.2885    3.4840    4.6410 H   0  0  0  0  0  0  0  0  0  0  0  0
    0.5204   -2.9251   -3.3075 C   0  0  0  0  0  0  0  0  0  0  0  0
    0.5204   -2.9251   -1.7846 C   0  0  0  0  0  0  0  0  0  0  0  0
    0.5204   -1.5320   -1.1891 C   0  0  0  0  0  0  0  0  0  0  0  0
   -0.6626   -0.8684   -1.5567 O   0  0  0  0  0  0  0  0  0  0  0  0
   -0.7333    0.4497   -1.0758 C   0  0  0  0  0  3  0  0  0  0  0  0
   -2.0367    1.0674   -1.5266 C   0  0  0  0  0  0  0  0  0  0  0  0
    1.4024   -2.4107   -3.6971 H   0  0  0  0  0  0  0  0  0  0  0  0
   -0.3624   -2.4154   -3.6936 H   0  0  0  0  0  0  0  0  0  0  0  0
    0.5258   -3.9429   -3.7002 H   0  0  0  0  0  0  0  0  0  0  0  0
    1.4019   -3.4515   -1.4083 H   0  0  0  0  0  0  0  0  0  0  0  0
   -0.3540   -3.4630   -1.4093 H   0  0  0  0  0  0  0  0  0  0  0  0
    1.3946   -0.9669   -1.5495 H   0  0  0  0  0  0  0  0  0  0  0  0
    0.5952   -1.5859   -0.0930 H   0  0  0  0  0  0  0  0  0  0  0  0
   -0.6526    0.4531    0.2419 H   0  0  0  0  0  0  0  0  0  0  0  0
    0.1195    1.0326   -1.4537 H   0  0  0  0  0  0  0  0  0  0  0  0
   -2.8830    0.4980   -1.1409 H   0  0  0  0  0  0  0  0  0  0  0  0
   -2.0975    1.0793   -2.6154 H   0  0  0  0  0  0  0  0  0  0  0  0
   -2.1143    2.0935   -1.1636 H   0  0  0  0  0  0  0  0  0  0  0  0
  1  2  1  0
  1  5  1  0
  1  6  1  0
  1 27  1  0
  2  3  1  0
  2  7  1  0
  2  8  1  0
  3  4  1  0
  3  9  1  0
  3 10  1  0
  4 11  1  0
  4 12  1  0
  4 13  1  0
 14 15  1  0
 14 20  1  0
 14 21  1  0
 14 22  1  0
 15 16  1  0
 15 23  1  0
 15 24  1  0
 16 17  1  0
 16 25  1  0
 16 26  1  0
 17 18  1  0
 18 19  1  0
 18 28  1  0
 19 29  1  0
 19 30  1  0
 19 31  1  0
M  RAD  1  18   2
M  END
>  <reaction>  (5) 
rmg_rxn_279

>  <mol_properties>  (5) 
{"0": {"label": "*3", "atom_type": "Cs"}, "1": {"label": "*4", "atom_type": "Cs"}, "16": {"label": "*0", "atom_type": "O2s"}, "17": {"label": "*1", "atom_type": "Cs"}, "26": {"label": "*2", "atom_type": "H0"}}

>  <type>  (5) 
unop_1

>  <geom_source>  (5) 
Heuristics

$$$$

     RDKit          3D

 31 29  0  0  0  0  0  0  0  0999 V2000
   -0.5856    1.3758    1.4980 C   0  0  0  0  0  0  0  0  0  0  0  0
    0.2463    0.2077    2.0098 C   0  0  0  0  0  0  0  0  0  0  0  0
    0.7307    0.4015    3.4420 C   0  0  0  0  0  0  0  0  0  0  0  0
    1.5627   -0.7666    3.9539 C   0  0  0  0  0  0  0  0  0  0  0  0
   -0.0100    2.3043    1.5171 H   0  0  0  0  0  0  0  0  0  0  0  0
   -1.4732    1.5252    2.1174 H   0  0  0  0  0  0  0  0  0  0  0  0
    1.1117    0.0587    1.3560 H   0  0  0  0  0  0  0  0  0  0  0  0
   -0.3407   -0.7146    1.9518 H   0  0  0  0  0  0  0  0  0  0  0  0
    1.3178    1.3238    3.5000 H   0  0  0  0  0  0  0  0  0  0  0  0
   -0.1347    0.5505    4.0959 H   0  0  0  0  0  0  0  0  0  0  0  0
    2.4503   -0.9160    3.3345 H   0  0  0  0  0  0  0  0  0  0  0  0
    0.9870   -1.6951    3.9348 H   0  0  0  0  0  0  0  0  0  0  0  0
    1.8958   -0.6017    4.9798 H   0  0  0  0  0  0  0  0  0  0  0  0
    0.5074   -2.0057   -3.3584 C   0  0  0  0  0  0  0  0  0  0  0  0
    0.5074   -2.0057   -1.8355 C   0  0  0  0  0  0  0  0  0  0  0  0
    0.5074   -0.6127   -1.2400 C   0  0  0  0  0  0  0  0  0  0  0  0
   -0.6756    0.0509   -1.6076 O   0  0  0  0  0  0  0  0  0  0  0  0
   -0.7463    1.3690   -1.1267 C   0  0  0  0  0  3  0  0  0  0  0  0
   -2.0497    1.9868   -1.5775 C   0  0  0  0  0  0  0  0  0  0  0  0
    1.3894   -1.4914   -3.7481 H   0  0  0  0  0  0  0  0  0  0  0  0
   -0.3754   -1.4960   -3.7445 H   0  0  0  0  0  0  0  0  0  0  0  0
    0.5128   -3.0236   -3.7511 H   0  0  0  0  0  0  0  0  0  0  0  0
    1.3889   -2.5322   -1.4592 H   0  0  0  0  0  0  0  0  0  0  0  0
   -0.3670   -2.5437   -1.4603 H   0  0  0  0  0  0  0  0  0  0  0  0
    1.3816   -0.0476   -1.6004 H   0  0  0  0  0  0  0  0  0  0  0  0
    0.5822   -0.6666   -0.1440 H   0  0  0  0  0  0  0  0  0  0  0  0
   -0.6656    1.3724    0.1910 H   0  0  0  0  0  0  0  0  0  0  0  0
    0.1065    1.9520   -1.5046 H   0  0  0  0  0  0  0  0  0  0  0  0
   -2.8960    1.4174   -1.1919 H   0  0  0  0  0  0  0  0  0  0  0  0
   -2.1105    1.9986   -2.6664 H   0  0  0  0  0  0  0  0  0  0  0  0
   -2.1273    3.0128   -1.2145 H   0  0  0  0  0  0  0  0  0  0  0  0
  1  2  1  0
  1  5  1  0
  1  6  1  0
  1 27  1  0
  2  3  1  0
  2  7  1  0
  2  8  1  0
  3  4  1  0
  3  9  1  0
  3 10  1  0
  4 11  1  0
  4 12  1  0
  4 13  1  0
 14 15  1  0
 14 20  1  0
 14 21  1  0
 14 22  1  0
 15 16  1  0
 15 23  1  0
 15 24  1  0
 16 17  1  0
 16 25  1  0
 16 26  1  0
 17 18  1  0
 18 19  1  0
 18 28  1  0
 19 29  1  0
 19 30  1  0
 19 31  1  0
M  RAD  1  18   2
M  END
>  <reaction>  (6) 
rmg_rxn_279

>  <mol_properties>  (6) 
{"0": {"label": "*3", "atom_type": "Cs"}, "1": {"label": "*4", "atom_type": "Cs"}, "16": {"label": "*0", "atom_type": "O2s"}, "17": {"label": "*1", "atom_type": "Cs"}, "26": {"label": "*2", "atom_type": "H0"}}

>  <type>  (6) 
unop_2

>  <geom_source>  (6) 
Heuristics

$$$$

     RDKit          3D

 31 29  0  0  0  0  0  0  0  0999 V2000
   -0.3128    0.3564    1.5045 C   0  0  0  0  0  0  0  0  0  0  0  0
    0.3334    1.6346    2.0213 C   0  0  0  0  0  0  0  0  0  0  0  0
   -0.1503    2.0284    3.4121 C   0  0  0  0  0  0  0  0  0  0  0  0
    0.4958    3.3067    3.9290 C   0  0  0  0  0  0  0  0  0  0  0  0
   -1.3986    0.4626    1.4462 H   0  0  0  0  0  0  0  0  0  0  0  0
   -0.0988   -0.4858    2.1668 H   0  0  0  0  0  0  0  0  0  0  0  0
    0.1311    2.4556    1.3258 H   0  0  0  0  0  0  0  0  0  0  0  0
    1.4214    1.5142    2.0411 H   0  0  0  0  0  0  0  0  0  0  0  0
   -1.2383    2.1488    3.3923 H   0  0  0  0  0  0  0  0  0  0  0  0
    0.0520    1.2074    4.1076 H   0  0  0  0  0  0  0  0  0  0  0  0
    0.2818    4.1489    3.2666 H   0  0  0  0  0  0  0  0  0  0  0  0
    1.5817    3.2004    3.9872 H   0  0  0  0  0  0  0  0  0  0  0  0
    0.1321    3.5648    4.9249 H   0  0  0  0  0  0  0  0  0  0  0  0
    0.7802   -3.0252   -3.3520 C   0  0  0  0  0  0  0  0  0  0  0  0
    0.7802   -3.0252   -1.8290 C   0  0  0  0  0  0  0  0  0  0  0  0
    0.7802   -1.6321   -1.2335 C   0  0  0  0  0  0  0  0  0  0  0  0
   -0.4028   -0.9685   -1.6011 O   0  0  0  0  0  0  0  0  0  0  0  0
   -0.4735    0.3495   -1.1202 C   0  0  0  0  0  3  0  0  0  0  0  0
   -1.7768    0.9673   -1.5711 C   0  0  0  0  0  0  0  0  0  0  0  0
    1.6623   -2.5109   -3.7416 H   0  0  0  0  0  0  0  0  0  0  0  0
   -0.1025   -2.5155   -3.7380 H   0  0  0  0  0  0  0  0  0  0  0  0
    0.7857   -4.0430   -3.7446 H   0  0  0  0  0  0  0  0  0  0  0  0
    1.6617   -3.5517   -1.4528 H   0  0  0  0  0  0  0  0  0  0  0  0
   -0.0942   -3.5632   -1.4538 H   0  0  0  0  0  0  0  0  0  0  0  0
    1.6544   -1.0670   -1.5939 H   0  0  0  0  0  0  0  0  0  0  0  0
    0.8550   -1.6860   -0.1375 H   0  0  0  0  0  0  0  0  0  0  0  0
   -0.3928    0.3530    0.1975 H   0  0  0  0  0  0  0  0  0  0  0  0
    0.3794    0.9325   -1.4981 H   0  0  0  0  0  0  0  0  0  0  0  0
   -2.6232    0.3979   -1.1854 H   0  0  0  0  0  0  0  0  0  0  0  0
   -1.8376    0.9792   -2.6599 H   0  0  0  0  0  0  0  0  0  0  0  0
   -1.8544    1.9933   -1.2080 H   0  0  0  0  0  0  0  0  0  0  0  0
  1  2  1  0
  1  5  1  0
  1  6  1  0
  1 27  1  0
  2  3  1  0
  2  7  1  0
  2  8  1  0
  3  4  1  0
  3  9  1  0
  3 10  1  0
  4 11  1  0
  4 12  1  0
  4 13  1  0
 14 15  1  0
 14 20  1  0
 14 21  1  0
 14 22  1  0
 15 16  1  0
 15 23  1  0
 15 24  1  0
 16 17  1  0
 16 25  1  0
 16 26  1  0
 17 18  1  0
 18 19  1  0
 18 28  1  0
 19 29  1  0
 19 30  1  0
 19 31  1  0
M  RAD  1  18   2
M  END
>  <reaction>  (7) 
rmg_rxn_279

>  <mol_properties>  (7) 
{"0": {"label": "*3", "atom_type": "Cs"}, "1": {"label": "*4", "atom_type": "Cs"}, "16": {"label": "*0", "atom_type": "O2s"}, "17": {"label": "*1", "atom_type": "Cs"}, "26": {"label": "*2", "atom_type": "H0"}}

>  <type>  (7) 
unop_3

>  <geom_source>  (7) 
Heuristics

$$$$

     RDKit          3D

 31 29  0  0  0  0  0  0  0  0999 V2000
    0.3881    1.1555    1.4658 C   0  0  0  0  0  0  0  0  0  0  0  0
   -0.7450    0.3579    2.0970 C   0  0  0  0  0  0  0  0  0  0  0  0
   -1.1762    0.9034    3.4534 C   0  0  0  0  0  0  0  0  0  0  0  0
   -2.3093    0.1058    4.0846 C   0  0  0  0  0  0  0  0  0  0  0  0
    1.2730    1.1526    2.1066 H   0  0  0  0  0  0  0  0  0  0  0  0
    0.0954    2.1969    1.3123 H   0  0  0  0  0  0  0  0  0  0  0  0
   -0.4391   -0.6870    2.2118 H   0  0  0  0  0  0  0  0  0  0  0  0
   -1.6080    0.3496    1.4234 H   0  0  0  0  0  0  0  0  0  0  0  0
   -0.3132    0.9117    4.1270 H   0  0  0  0  0  0  0  0  0  0  0  0
   -1.4821    1.9483    3.3386 H   0  0  0  0  0  0  0  0  0  0  0  0
   -2.0166   -0.9357    4.2381 H   0  0  0  0  0  0  0  0  0  0  0  0
   -3.1943    0.1087    3.4438 H   0  0  0  0  0  0  0  0  0  0  0  0
   -2.5976    0.5174    5.0532 H   0  0  0  0  0  0  0  0  0  0  0  0
    1.4811   -2.2260   -3.3906 C   0  0  0  0  0  0  0  0  0  0  0  0
    1.4811   -2.2260   -1.8677 C   0  0  0  0  0  0  0  0  0  0  0  0
    1.4811   -0.8330   -1.2722 C   0  0  0  0  0  0  0  0  0  0  0  0
    0.2981   -0.1694   -1.6398 O   0  0  0  0  0  0  0  0  0  0  0  0
    0.2273    1.1487   -1.1589 C   0  0  0  0  0  3  0  0  0  0  0  0
   -1.0760    1.7665   -1.6098 C   0  0  0  0  0  0  0  0  0  0  0  0
    2.3631   -1.7117   -3.7803 H   0  0  0  0  0  0  0  0  0  0  0  0
    0.5983   -1.7164   -3.7767 H   0  0  0  0  0  0  0  0  0  0  0  0
    1.4865   -3.2439   -3.7833 H   0  0  0  0  0  0  0  0  0  0  0  0
    2.3626   -2.7525   -1.4915 H   0  0  0  0  0  0  0  0  0  0  0  0
    0.6067   -2.7640   -1.4925 H   0  0  0  0  0  0  0  0  0  0  0  0
    2.3553   -0.2679   -1.6326 H   0  0  0  0  0  0  0  0  0  0  0  0
    1.5558   -0.8869   -0.1762 H   0  0  0  0  0  0  0  0  0  0  0  0
    0.3080    1.1521    0.1588 H   0  0  0  0  0  0  0  0  0  0  0  0
    1.0802    1.7317   -1.5368 H   0  0  0  0  0  0  0  0  0  0  0  0
   -1.9223    1.1971   -1.2241 H   0  0  0  0  0  0  0  0  0  0  0  0
   -1.1368    1.7783   -2.6986 H   0  0  0  0  0  0  0  0  0  0  0  0
   -1.1536    2.7925   -1.2467 H   0  0  0  0  0  0  0  0  0  0  0  0
  1  2  1  0
  1  5  1  0
  1  6  1  0
  1 27  1  0
  2  3  1  0
  2  7  1  0
  2  8  1  0
  3  4  1  0
  3  9  1  0
  3 10  1  0
  4 11  1  0
  4 12  1  0
  4 13  1  0
 14 15  1  0
 14 20  1  0
 14 21  1  0
 14 22  1  0
 15 16  1  0
 15 23  1  0
 15 24  1  0
 16 17  1  0
 16 25  1  0
 16 26  1  0
 17 18  1  0
 18 19  1  0
 18 28  1  0
 19 29  1  0
 19 30  1  0
 19 31  1  0
M  RAD  1  18   2
M  END
>  <reaction>  (8) 
rmg_rxn_279

>  <mol_properties>  (8) 
{"0": {"label": "*3", "atom_type": "Cs"}, "1": {"label": "*4", "atom_type": "Cs"}, "16": {"label": "*0", "atom_type": "O2s"}, "17": {"label": "*1", "atom_type": "Cs"}, "26": {"label": "*2", "atom_type": "H0"}}

>  <type>  (8) 
unop_4

>  <geom_source>  (8) 
Heuristics

$$$$

     RDKit          3D

 31 29  0  0  0  0  0  0  0  0999 V2000
   -0.1427    0.3736    1.4603 C   0  0  0  0  0  0  0  0  0  0  0  0
   -0.2159    1.7875    2.0208 C   0  0  0  0  0  0  0  0  0  0  0  0
   -0.1258    1.8325    3.5418 C   0  0  0  0  0  0  0  0  0  0  0  0
   -0.1989    3.2464    4.1023 C   0  0  0  0  0  0  0  0  0  0  0  0
   -0.9578   -0.2431    1.8464 H   0  0  0  0  0  0  0  0  0  0  0  0
    0.7968   -0.1096    1.7386 H   0  0  0  0  0  0  0  0  0  0  0  0
   -1.1506    2.2607    1.7031 H   0  0  0  0  0  0  0  0  0  0  0  0
    0.5912    2.3932    1.5961 H   0  0  0  0  0  0  0  0  0  0  0  0
   -0.9329    1.2268    3.9666 H   0  0  0  0  0  0  0  0  0  0  0  0
    0.8089    1.3593    3.8595 H   0  0  0  0  0  0  0  0  0  0  0  0
   -1.1385    3.7297    3.8240 H   0  0  0  0  0  0  0  0  0  0  0  0
    0.6161    3.8631    3.7162 H   0  0  0  0  0  0  0  0  0  0  0  0
   -0.1322    3.2493    5.1915 H   0  0  0  0  0  0  0  0  0  0  0  0
    0.9502   -3.0079   -3.3961 C   0  0  0  0  0  0  0  0  0  0  0  0
    0.9502   -3.0079   -1.8732 C   0  0  0  0  0  0  0  0  0  0  0  0
    0.9502   -1.6148   -1.2777 C   0  0  0  0  0  0  0  0  0  0  0  0
   -0.2328   -0.9512   -1.6453 O   0  0  0  0  0  0  0  0  0  0  0  0
   -0.3035    0.3668   -1.1644 C   0  0  0  0  0  3  0  0  0  0  0  0
   -1.6068    0.9846   -1.6152 C   0  0  0  0  0  0  0  0  0  0  0  0
    1.8323   -2.4936   -3.7857 H   0  0  0  0  0  0  0  0  0  0  0  0
    0.0675   -2.4982   -3.7822 H   0  0  0  0  0  0  0  0  0  0  0  0
    0.9557   -4.0258   -3.7888 H   0  0  0  0  0  0  0  0  0  0  0  0
    1.8317   -3.5344   -1.4969 H   0  0  0  0  0  0  0  0  0  0  0  0
    0.0758   -3.5459   -1.4979 H   0  0  0  0  0  0  0  0  0  0  0  0
    1.8244   -1.0498   -1.6381 H   0  0  0  0  0  0  0  0  0  0  0  0
    1.0250   -1.6688   -0.1816 H   0  0  0  0  0  0  0  0  0  0  0  0
   -0.2228    0.3702    0.1533 H   0  0  0  0  0  0  0  0  0  0  0  0
    0.5494    0.9498   -1.5423 H   0  0  0  0  0  0  0  0  0  0  0  0
   -2.4532    0.4152   -1.2295 H   0  0  0  0  0  0  0  0  0  0  0  0
   -1.6676    0.9965   -2.7041 H   0  0  0  0  0  0  0  0  0  0  0  0
   -1.6844    2.0106   -1.2522 H   0  0  0  0  0  0  0  0  0  0  0  0
  1  2  1  0
  1  5  1  0
  1  6  1  0
  1 27  1  0
  2  3  1  0
  2  7  1  0
  2  8  1  0
  3  4  1  0
  3  9  1  0
  3 10  1  0
  4 11  1  0
  4 12  1  0
  4 13  1  0
 14 15  1  0
 14 20  1  0
 14 21  1  0
 14 22  1  0
 15 16  1  0
 15 23  1  0
 15 24  1  0
 16 17  1  0
 16 25  1  0
 16 26  1  0
 17 18  1  0
 18 19  1  0
 18 28  1  0
 19 29  1  0
 19 30  1  0
 19 31  1  0
M  RAD  1  18   2
M  END
>  <reaction>  (9) 
rmg_rxn_279

>  <mol_properties>  (9) 
{"0": {"label": "*3", "atom_type": "Cs"}, "1": {"label": "*4", "atom_type": "Cs"}, "16": {"label": "*0", "atom_type": "O2s"}, "17": {"label": "*1", "atom_type": "Cs"}, "26": {"label": "*2", "atom_type": "H0"}}

>  <type>  (9) 
unop_5

>  <geom_source>  (9) 
Heuristics

$$$$

     RDKit          3D

 31 29  0  0  0  0  0  0  0  0999 V2000
    0.4273    0.8105    1.4851 C   0  0  0  0  0  0  0  0  0  0  0  0
   -0.9483    0.7047    2.1294 C   0  0  0  0  0  0  0  0  0  0  0  0
   -1.0979    1.5832    3.3660 C   0  0  0  0  0  0  0  0  0  0  0  0
   -2.4735    1.4774    4.0103 C   0  0  0  0  0  0  0  0  0  0  0  0
    1.2113    0.5120    2.1851 H   0  0  0  0  0  0  0  0  0  0  0  0
    0.6360    1.8370    1.1743 H   0  0  0  0  0  0  0  0  0  0  0  0
   -1.1464   -0.3365    2.4035 H   0  0  0  0  0  0  0  0  0  0  0  0
   -1.7175    0.9787    1.4001 H   0  0  0  0  0  0  0  0  0  0  0  0
   -0.3287    1.3092    4.0953 H   0  0  0  0  0  0  0  0  0  0  0  0
   -0.8998    2.6245    3.0920 H   0  0  0  0  0  0  0  0  0  0  0  0
   -2.6822    0.4510    4.3211 H   0  0  0  0  0  0  0  0  0  0  0  0
   -3.2575    1.7760    3.3103 H   0  0  0  0  0  0  0  0  0  0  0  0
   -2.5529    2.1155    4.8919 H   0  0  0  0  0  0  0  0  0  0  0  0
    1.5203   -2.5710   -3.3713 C   0  0  0  0  0  0  0  0  0  0  0  0
    1.5203   -2.5710   -1.8484 C   0  0  0  0  0  0  0  0  0  0  0  0
    1.5203   -1.1780   -1.2529 C   0  0  0  0  0  0  0  0  0  0  0  0
    0.3373   -0.5144   -1.6205 O   0  0  0  0  0  0  0  0  0  0  0  0
    0.2666    0.8037   -1.1396 C   0  0  0  0  0  3  0  0  0  0  0  0
   -1.0367    1.4215   -1.5904 C   0  0  0  0  0  0  0  0  0  0  0  0
    2.4024   -2.0567   -3.7609 H   0  0  0  0  0  0  0  0  0  0  0  0
    0.6376   -2.0613   -3.7574 H   0  0  0  0  0  0  0  0  0  0  0  0
    1.5258   -3.5889   -3.7640 H   0  0  0  0  0  0  0  0  0  0  0  0
    2.4018   -3.0975   -1.4721 H   0  0  0  0  0  0  0  0  0  0  0  0
    0.6459   -3.1090   -1.4731 H   0  0  0  0  0  0  0  0  0  0  0  0
    2.3945   -0.6129   -1.6133 H   0  0  0  0  0  0  0  0  0  0  0  0
    1.5951   -1.2319   -0.1568 H   0  0  0  0  0  0  0  0  0  0  0  0
    0.3473    0.8071    0.1781 H   0  0  0  0  0  0  0  0  0  0  0  0
    1.1195    1.3867   -1.5175 H   0  0  0  0  0  0  0  0  0  0  0  0
   -1.8831    0.8521   -1.2047 H   0  0  0  0  0  0  0  0  0  0  0  0
   -1.0975    1.4333   -2.6792 H   0  0  0  0  0  0  0  0  0  0  0  0
   -1.1143    2.4475   -1.2274 H   0  0  0  0  0  0  0  0  0  0  0  0
  1  2  1  0
  1  5  1  0
  1  6  1  0
  1 27  1  0
  2  3  1  0
  2  7  1  0
  2  8  1  0
  3  4  1  0
  3  9  1  0
  3 10  1  0
  4 11  1  0
  4 12  1  0
  4 13  1  0
 14 15  1  0
 14 20  1  0
 14 21  1  0
 14 22  1  0
 15 16  1  0
 15 23  1  0
 15 24  1  0
 16 17  1  0
 16 25  1  0
 16 26  1  0
 17 18  1  0
 18 19  1  0
 18 28  1  0
 19 29  1  0
 19 30  1  0
 19 31  1  0
M  RAD  1  18   2
M  END
>  <reaction>  (10) 
rmg_rxn_279

>  <mol_properties>  (10) 
{"0": {"label": "*3", "atom_type": "Cs"}, "1": {"label": "*4", "atom_type": "Cs"}, "16": {"label": "*0", "atom_type": "O2s"}, "17": {"label": "*1", "atom_type": "Cs"}, "26": {"label": "*2", "atom_type": "H0"}}

>  <type>  (10) 
unop_6

>  <geom_source>  (10) 
Heuristics

$$$$

     RDKit          3D

 31 29  0  0  0  0  0  0  0  0999 V2000
    0.2773    0.5211    1.4967 C   0  0  0  0  0  0  0  0  0  0  0  0
   -0.9631    1.1359    2.1308 C   0  0  0  0  0  0  0  0  0  0  0  0
   -0.6447    2.0202    3.3308 C   0  0  0  0  0  0  0  0  0  0  0  0
   -1.8851    2.6350    3.9649 C   0  0  0  0  0  0  0  0  0  0  0  0
    0.8177   -0.0993    2.2156 H   0  0  0  0  0  0  0  0  0  0  0  0
    0.9639    1.2964    1.1483 H   0  0  0  0  0  0  0  0  0  0  0  0
   -1.6483    0.3412    2.4431 H   0  0  0  0  0  0  0  0  0  0  0  0
   -1.5032    1.7266    1.3838 H   0  0  0  0  0  0  0  0  0  0  0  0
   -0.1046    1.4295    4.0779 H   0  0  0  0  0  0  0  0  0  0  0  0
    0.0405    2.8150    3.0185 H   0  0  0  0  0  0  0  0  0  0  0  0
   -2.5717    1.8598    4.3133 H   0  0  0  0  0  0  0  0  0  0  0  0
   -2.4255    3.2555    3.2461 H   0  0  0  0  0  0  0  0  0  0  0  0
   -1.6285    3.2622    4.8203 H   0  0  0  0  0  0  0  0  0  0  0  0
    1.3702   -2.8604   -3.3597 C   0  0  0  0  0  0  0  0  0  0  0  0
    1.3702   -2.8604   -1.8368 C   0  0  0  0  0  0  0  0  0  0  0  0
    1.3702   -1.4674   -1.2413 C   0  0  0  0  0  0  0  0  0  0  0  0
    0.1872   -0.8038   -1.6089 O   0  0  0  0  0  0  0  0  0  0  0  0
    0.1165    0.5143   -1.1280 C   0  0  0  0  0  3  0  0  0  0  0  0
   -1.1868    1.1321   -1.5788 C   0  0  0  0  0  0  0  0  0  0  0  0
    2.2523   -2.3461   -3.7493 H   0  0  0  0  0  0  0  0  0  0  0  0
    0.4875   -2.3507   -3.7458 H   0  0  0  0  0  0  0  0  0  0  0  0
    1.3757   -3.8783   -3.7524 H   0  0  0  0  0  0  0  0  0  0  0  0
    2.2518   -3.3869   -1.4605 H   0  0  0  0  0  0  0  0  0  0  0  0
    0.4959   -3.3984   -1.4615 H   0  0  0  0  0  0  0  0  0  0  0  0
    2.2444   -0.9023   -1.6017 H   0  0  0  0  0  0  0  0  0  0  0  0
    1.4450   -1.5213   -0.1453 H   0  0  0  0  0  0  0  0  0  0  0  0
    0.1972    0.5177    0.1897 H   0  0  0  0  0  0  0  0  0  0  0  0
    0.9694    1.0973   -1.5059 H   0  0  0  0  0  0  0  0  0  0  0  0
   -2.0332    0.5627   -1.1932 H   0  0  0  0  0  0  0  0  0  0  0  0
   -1.2476    1.1439   -2.6677 H   0  0  0  0  0  0  0  0  0  0  0  0
   -1.2644    2.1581   -1.2158 H   0  0  0  0  0  0  0  0  0  0  0  0
  1  2  1  0
  1  5  1  0
  1  6  1  0
  1 27  1  0
  2  3  1  0
  2  7  1  0
  2  8  1  0
  3  4  1  0
  3  9  1  0
  3 10  1  0
  4 11  1  0
  4 12  1  0
  4 13  1  0
 14 15  1  0
 14 20  1  0
 14 21  1  0
 14 22  1  0
 15 16  1  0
 15 23  1  0
 15 24  1  0
 16 17  1  0
 16 25  1  0
 16 26  1  0
 17 18  1  0
 18 19  1  0
 18 28  1  0
 19 29  1  0
 19 30  1  0
 19 31  1  0
M  RAD  1  18   2
M  END
>  <reaction>  (11) 
rmg_rxn_279

>  <mol_properties>  (11) 
{"0": {"label": "*3", "atom_type": "Cs"}, "1": {"label": "*4", "atom_type": "Cs"}, "16": {"label": "*0", "atom_type": "O2s"}, "17": {"label": "*1", "atom_type": "Cs"}, "26": {"label": "*2", "atom_type": "H0"}}

>  <type>  (11) 
unop_7

>  <geom_source>  (11) 
Heuristics

$$$$

     RDKit          3D

 31 29  0  0  0  0  0  0  0  0999 V2000
   -0.7649    0.7198    1.5584 C   0  0  0  0  0  0  0  0  0  0  0  0
    0.6791    0.8285    2.0294 C   0  0  0  0  0  0  0  0  0  0  0  0
    0.8440    1.7309    3.2467 C   0  0  0  0  0  0  0  0  0  0  0  0
    2.2879    1.8396    3.7178 C   0  0  0  0  0  0  0  0  0  0  0  0
   -1.1621    1.7002    1.2848 H   0  0  0  0  0  0  0  0  0  0  0  0
   -1.4038    0.3131    2.3458 H   0  0  0  0  0  0  0  0  0  0  0  0
    1.3036    1.2085    1.2145 H   0  0  0  0  0  0  0  0  0  0  0  0
    1.0637   -0.1684    2.2677 H   0  0  0  0  0  0  0  0  0  0  0  0
    0.4593    2.7279    3.0084 H   0  0  0  0  0  0  0  0  0  0  0  0
    0.2194    1.3509    4.0617 H   0  0  0  0  0  0  0  0  0  0  0  0
    2.9269    2.2464    2.9303 H   0  0  0  0  0  0  0  0  0  0  0  0
    2.6852    0.8593    3.9913 H   0  0  0  0  0  0  0  0  0  0  0  0
    2.3769    2.4906    4.5890 H   0  0  0  0  0  0  0  0  0  0  0  0
    0.3281   -2.6617   -3.2980 C   0  0  0  0  0  0  0  0  0  0  0  0
    0.3281   -2.6617   -1.7751 C   0  0  0  0  0  0  0  0  0  0  0  0
    0.3281   -1.2687   -1.1796 C   0  0  0  0  0  0  0  0  0  0  0  0
   -0.8549   -0.6051   -1.5472 O   0  0  0  0  0  0  0  0  0  0  0  0
   -0.9256    0.7130   -1.0663 C   0  0  0  0  0  3  0  0  0  0  0  0
   -2.2289    1.3308   -1.5172 C   0  0  0  0  0  0  0  0  0  0  0  0
    1.2102   -2.1474   -3.6877 H   0  0  0  0  0  0  0  0  0  0  0  0
   -0.5546   -2.1520   -3.6841 H   0  0  0  0  0  0  0  0  0  0  0  0
    0.3336   -3.6796   -3.6907 H   0  0  0  0  0  0  0  0  0  0  0  0
    1.2096   -3.1882   -1.3989 H   0  0  0  0  0  0  0  0  0  0  0  0
   -0.5463   -3.1997   -1.3999 H   0  0  0  0  0  0  0  0  0  0  0  0
    1.2023   -0.7036   -1.5400 H   0  0  0  0  0  0  0  0  0  0  0  0
    0.4029   -1.3226   -0.0836 H   0  0  0  0  0  0  0  0  0  0  0  0
   -0.8449    0.7164    0.2514 H   0  0  0  0  0  0  0  0  0  0  0  0
   -0.0727    1.2960   -1.4442 H   0  0  0  0  0  0  0  0  0  0  0  0
   -3.0753    0.7614   -1.1315 H   0  0  0  0  0  0  0  0  0  0  0  0
   -2.2897    1.3426   -2.6060 H   0  0  0  0  0  0  0  0  0  0  0  0
   -2.3065    2.3568   -1.1541 H   0  0  0  0  0  0  0  0  0  0  0  0
  1  2  1  0
  1  5  1  0
  1  6  1  0
  1 27  1  0
  2  3  1  0
  2  7  1  0
  2  8  1  0
  3  4  1  0
  3  9  1  0
  3 10  1  0
  4 11  1  0
  4 12  1  0
  4 13  1  0
 14 15  1  0
 14 20  1  0
 14 21  1  0
 14 22  1  0
 15 16  1  0
 15 23  1  0
 15 24  1  0
 16 17  1  0
 16 25  1  0
 16 26  1  0
 17 18  1  0
 18 19  1  0
 18 28  1  0
 19 29  1  0
 19 30  1  0
 19 31  1  0
M  RAD  1  18   2
M  END
>  <reaction>  (12) 
rmg_rxn_279

>  <mol_properties>  (12) 
{"0": {"label": "*3", "atom_type": "Cs"}, "1": {"label": "*4", "atom_type": "Cs"}, "16": {"label": "*0", "atom_type": "O2s"}, "17": {"label": "*1", "atom_type": "Cs"}, "26": {"label": "*2", "atom_type": "H0"}}

>  <type>  (12) 
unop_8

>  <geom_source>  (12) 
Heuristics

$$$$

     RDKit          3D

 31 29  0  0  0  0  0  0  0  0999 V2000
    0.1453    1.4314    1.4531 C   0  0  0  0  0  0  0  0  0  0  0  0
   -0.4326    0.1560    2.0515 C   0  0  0  0  0  0  0  0  0  0  0  0
   -0.7627    0.2879    3.5338 C   0  0  0  0  0  0  0  0  0  0  0  0
   -1.3405   -0.9875    4.1322 C   0  0  0  0  0  0  0  0  0  0  0  0
    1.0689    1.7186    1.9612 H   0  0  0  0  0  0  0  0  0  0  0  0
   -0.5570    2.2627    1.5507 H   0  0  0  0  0  0  0  0  0  0  0  0
    0.2753   -0.6677    1.9140 H   0  0  0  0  0  0  0  0  0  0  0  0
   -1.3387   -0.1277    1.5065 H   0  0  0  0  0  0  0  0  0  0  0  0
    0.1435    0.5716    4.0788 H   0  0  0  0  0  0  0  0  0  0  0  0
   -1.4705    1.1117    3.6713 H   0  0  0  0  0  0  0  0  0  0  0  0
   -0.6382   -1.8187    4.0346 H   0  0  0  0  0  0  0  0  0  0  0  0
   -2.2642   -1.2746    3.6241 H   0  0  0  0  0  0  0  0  0  0  0  0
   -1.5673   -0.8652    5.1926 H   0  0  0  0  0  0  0  0  0  0  0  0
    1.2382   -1.9501   -3.4033 C   0  0  0  0  0  0  0  0  0  0  0  0
    1.2382   -1.9501   -1.8804 C   0  0  0  0  0  0  0  0  0  0  0  0
    1.2382   -0.5571   -1.2849 C   0  0  0  0  0  0  0  0  0  0  0  0
    0.0552    0.1065   -1.6525 O   0  0  0  0  0  0  0  0  0  0  0  0
   -0.0155    1.4246   -1.1716 C   0  0  0  0  0  3  0  0  0  0  0  0
   -1.3188    2.0424   -1.6224 C   0  0  0  0  0  0  0  0  0  0  0  0
    2.1203   -1.4358   -3.7930 H   0  0  0  0  0  0  0  0  0  0  0  0
    0.3555   -1.4404   -3.7894 H   0  0  0  0  0  0  0  0  0  0  0  0
    1.2437   -2.9680   -3.7960 H   0  0  0  0  0  0  0  0  0  0  0  0
    2.1198   -2.4766   -1.5042 H   0  0  0  0  0  0  0  0  0  0  0  0
    0.3639   -2.4881   -1.5052 H   0  0  0  0  0  0  0  0  0  0  0  0
    2.1124    0.0080   -1.6453 H   0  0  0  0  0  0  0  0  0  0  0  0
    1.3130   -0.6110   -0.1889 H   0  0  0  0  0  0  0  0  0  0  0  0
    0.0652    1.4280    0.1461 H   0  0  0  0  0  0  0  0  0  0  0  0
    0.8374    2.0076   -1.5495 H   0  0  0  0  0  0  0  0  0  0  0  0
   -2.1652    1.4730   -1.2368 H   0  0  0  0  0  0  0  0  0  0  0  0
   -1.3796    2.0542   -2.7113 H   0  0  0  0  0  0  0  0  0  0  0  0
   -1.3964    3.0684   -1.2594 H   0  0  0  0  0  0  0  0  0  0  0  0
  1  2  1  0
  1  5  1  0
  1  6  1  0
  1 27  1  0
  2  3  1  0
  2  7  1  0
  2  8  1  0
  3  4  1  0
  3  9  1  0
  3 10  1  0
  4 11  1  0
  4 12  1  0
  4 13  1  0
 14 15  1  0
 14 20  1  0
 14 21  1  0
 14 22  1  0
 15 16  1  0
 15 23  1  0
 15 24  1  0
 16 17  1  0
 16 25  1  0
 16 26  1  0
 17 18  1  0
 18 19  1  0
 18 28  1  0
 19 29  1  0
 19 30  1  0
 19 31  1  0
M  RAD  1  18   2
M  END
>  <reaction>  (13) 
rmg_rxn_279

>  <mol_properties>  (13) 
{"0": {"label": "*3", "atom_type": "Cs"}, "1": {"label": "*4", "atom_type": "Cs"}, "16": {"label": "*0", "atom_type": "O2s"}, "17": {"label": "*1", "atom_type": "Cs"}, "26": {"label": "*2", "atom_type": "H0"}}

>  <type>  (13) 
unop_9

>  <geom_source>  (13) 
Heuristics

$$$$

     RDKit          3D

 31 29  0  0  0  0  0  0  0  0999 V2000
   -0.7807    1.0666    1.5376 C   0  0  0  0  0  0  0  0  0  0  0  0
    0.5280    0.4547    2.0188 C   0  0  0  0  0  0  0  0  0  0  0  0
    1.0339    1.0715    3.3176 C   0  0  0  0  0  0  0  0  0  0  0  0
    2.3426    0.4596    3.7988 C   0  0  0  0  0  0  0  0  0  0  0  0
   -0.6692    2.1388    1.3593 H   0  0  0  0  0  0  0  0  0  0  0  0
   -1.5704    0.9363    2.2813 H   0  0  0  0  0  0  0  0  0  0  0  0
    1.2939    0.5704    1.2451 H   0  0  0  0  0  0  0  0  0  0  0  0
    0.3993   -0.6233    2.1603 H   0  0  0  0  0  0  0  0  0  0  0  0
    1.1626    2.1495    3.1761 H   0  0  0  0  0  0  0  0  0  0  0  0
    0.2680    0.9559    4.0913 H   0  0  0  0  0  0  0  0  0  0  0  0
    3.1323    0.5899    3.0551 H   0  0  0  0  0  0  0  0  0  0  0  0
    2.2311   -0.6125    3.9771 H   0  0  0  0  0  0  0  0  0  0  0  0
    2.6812    0.9190    4.7289 H   0  0  0  0  0  0  0  0  0  0  0  0
    0.3123   -2.3150   -3.3188 C   0  0  0  0  0  0  0  0  0  0  0  0
    0.3123   -2.3150   -1.7959 C   0  0  0  0  0  0  0  0  0  0  0  0
    0.3123   -0.9219   -1.2004 C   0  0  0  0  0  0  0  0  0  0  0  0
   -0.8707   -0.2583   -1.5680 O   0  0  0  0  0  0  0  0  0  0  0  0
   -0.9414    1.0598   -1.0871 C   0  0  0  0  0  3  0  0  0  0  0  0
   -2.2448    1.6776   -1.5379 C   0  0  0  0  0  0  0  0  0  0  0  0
    1.1944   -1.8006   -3.7085 H   0  0  0  0  0  0  0  0  0  0  0  0
   -0.5704   -1.8053   -3.7049 H   0  0  0  0  0  0  0  0  0  0  0  0
    0.3178   -3.3328   -3.7115 H   0  0  0  0  0  0  0  0  0  0  0  0
    1.1938   -2.8414   -1.4196 H   0  0  0  0  0  0  0  0  0  0  0  0
   -0.5621   -2.8529   -1.4206 H   0  0  0  0  0  0  0  0  0  0  0  0
    1.1865   -0.3568   -1.5608 H   0  0  0  0  0  0  0  0  0  0  0  0
    0.3871   -0.9758   -0.1044 H   0  0  0  0  0  0  0  0  0  0  0  0
   -0.8607    1.0632    0.2306 H   0  0  0  0  0  0  0  0  0  0  0  0
   -0.0886    1.6427   -1.4650 H   0  0  0  0  0  0  0  0  0  0  0  0
   -3.0911    1.1081   -1.1523 H   0  0  0  0  0  0  0  0  0  0  0  0
   -2.3056    1.6894   -2.6268 H   0  0  0  0  0  0  0  0  0  0  0  0
   -2.3224    2.7036   -1.1749 H   0  0  0  0  0  0  0  0  0  0  0  0
  1  2  1  0
  1  5  1  0
  1  6  1  0
  1 27  1  0
  2  3  1  0
  2  7  1  0
  2  8  1  0
  3  4  1  0
  3  9  1  0
  3 10  1  0
  4 11  1  0
  4 12  1  0
  4 13  1  0
 14 15  1  0
 14 20  1  0
 14 21  1  0
 14 22  1  0
 15 16  1  0
 15 23  1  0
 15 24  1  0
 16 17  1  0
 16 25  1  0
 16 26  1  0
 17 18  1  0
 18 19  1  0
 18 28  1  0
 19 29  1  0
 19 30  1  0
 19 31  1  0
M  RAD  1  18   2
M  END
>  <reaction>  (14) 
rmg_rxn_279

>  <mol_properties>  (14) 
{"0": {"label": "*3", "atom_type": "Cs"}, "1": {"label": "*4", "atom_type": "Cs"}, "16": {"label": "*0", "atom_type": "O2s"}, "17": {"label": "*1", "atom_type": "Cs"}, "26": {"label": "*2", "atom_type": "H0"}}

>  <type>  (14) 
unop_10

>  <geom_source>  (14) 
Heuristics

$$$$

     RDKit          3D

 31 29  0  0  0  0  0  0  0  0999 V2000
    0.0320    0.3826    1.4833 C   0  0  0  0  0  0  0  0  0  0  0  0
   -0.7316    1.5536    2.0867 C   0  0  0  0  0  0  0  0  0  0  0  0
   -0.1471    2.0287    3.4119 C   0  0  0  0  0  0  0  0  0  0  0  0
   -0.9107    3.1997    4.0154 C   0  0  0  0  0  0  0  0  0  0  0  0
    0.0296   -0.4760    2.1589 H   0  0  0  0  0  0  0  0  0  0  0  0
    1.0742    0.6507    1.2943 H   0  0  0  0  0  0  0  0  0  0  0  0
   -1.7784    1.2708    2.2377 H   0  0  0  0  0  0  0  0  0  0  0  0
   -0.7415    2.3893    1.3795 H   0  0  0  0  0  0  0  0  0  0  0  0
   -0.1372    1.1930    4.1192 H   0  0  0  0  0  0  0  0  0  0  0  0
    0.8997    2.3115    3.2609 H   0  0  0  0  0  0  0  0  0  0  0  0
   -1.9529    2.9316    4.2044 H   0  0  0  0  0  0  0  0  0  0  0  0
   -0.9083    4.0583    3.3397 H   0  0  0  0  0  0  0  0  0  0  0  0
   -0.4715    3.5189    4.9619 H   0  0  0  0  0  0  0  0  0  0  0  0
    1.1250   -2.9990   -3.3731 C   0  0  0  0  0  0  0  0  0  0  0  0
    1.1250   -2.9990   -1.8502 C   0  0  0  0  0  0  0  0  0  0  0  0
    1.1250   -1.6059   -1.2547 C   0  0  0  0  0  0  0  0  0  0  0  0
   -0.0580   -0.9423   -1.6223 O   0  0  0  0  0  0  0  0  0  0  0  0
   -0.1287    0.3758   -1.1414 C   0  0  0  0  0  3  0  0  0  0  0  0
   -1.4321    0.9935   -1.5922 C   0  0  0  0  0  0  0  0  0  0  0  0
    2.0071   -2.4846   -3.7628 H   0  0  0  0  0  0  0  0  0  0  0  0
    0.2423   -2.4893   -3.7592 H   0  0  0  0  0  0  0  0  0  0  0  0
    1.1305   -4.0168   -3.7658 H   0  0  0  0  0  0  0  0  0  0  0  0
    2.0065   -3.5254   -1.4739 H   0  0  0  0  0  0  0  0  0  0  0  0
    0.2506   -3.5369   -1.4750 H   0  0  0  0  0  0  0  0  0  0  0  0
    1.9992   -1.0408   -1.6151 H   0  0  0  0  0  0  0  0  0  0  0  0
    1.1998   -1.6598   -0.1587 H   0  0  0  0  0  0  0  0  0  0  0  0
   -0.0480    0.3792    0.1763 H   0  0  0  0  0  0  0  0  0  0  0  0
    0.7241    0.9587   -1.5193 H   0  0  0  0  0  0  0  0  0  0  0  0
   -2.2784    0.4241   -1.2066 H   0  0  0  0  0  0  0  0  0  0  0  0
   -1.4929    1.0054   -2.6811 H   0  0  0  0  0  0  0  0  0  0  0  0
   -1.5097    2.0196   -1.2292 H   0  0  0  0  0  0  0  0  0  0  0  0
  1  2  1  0
  1  5  1  0
  1  6  1  0
  1 27  1  0
  2  3  1  0
  2  7  1  0
  2  8  1  0
  3  4  1  0
  3  9  1  0
  3 10  1  0
  4 11  1  0
  4 12  1  0
  4 13  1  0
 14 15  1  0
 14 20  1  0
 14 21  1  0
 14 22  1  0
 15 16  1  0
 15 23  1  0
 15 24  1  0
 16 17  1  0
 16 25  1  0
 16 26  1  0
 17 18  1  0
 18 19  1  0
 18 28  1  0
 19 29  1  0
 19 30  1  0
 19 31  1  0
M  RAD  1  18   2
M  END
>  <reaction>  (15) 
rmg_rxn_279

>  <mol_properties>  (15) 
{"0": {"label": "*3", "atom_type": "Cs"}, "1": {"label": "*4", "atom_type": "Cs"}, "16": {"label": "*0", "atom_type": "O2s"}, "17": {"label": "*1", "atom_type": "Cs"}, "26": {"label": "*2", "atom_type": "H0"}}

>  <type>  (15) 
unop_11

>  <geom_source>  (15) 
Heuristics

$$$$

     RDKit          3D

 31 29  0  0  0  0  0  0  0  0999 V2000
   -0.2298    1.5203    1.4626 C   0  0  0  0  0  0  0  0  0  0  0  0
   -0.0884    0.1093    2.0174 C   0  0  0  0  0  0  0  0  0  0  0  0
    0.0078    0.0722    3.5382 C   0  0  0  0  0  0  0  0  0  0  0  0
    0.1493   -1.3388    4.0929 C   0  0  0  0  0  0  0  0  0  0  0  0
    0.6261    2.1387    1.7432 H   0  0  0  0  0  0  0  0  0  0  0  0
   -1.1286    2.0053    1.8510 H   0  0  0  0  0  0  0  0  0  0  0  0
    0.8007   -0.3658    1.5904 H   0  0  0  0  0  0  0  0  0  0  0  0
   -0.9411   -0.4983    1.6974 H   0  0  0  0  0  0  0  0  0  0  0  0
    0.8605    0.6799    3.8581 H   0  0  0  0  0  0  0  0  0  0  0  0
   -0.8813    0.5474    3.9652 H   0  0  0  0  0  0  0  0  0  0  0  0
    1.0480   -1.8237    3.7046 H   0  0  0  0  0  0  0  0  0  0  0  0
   -0.7067   -1.9572    3.8124 H   0  0  0  0  0  0  0  0  0  0  0  0
    0.2160   -1.3359    5.1821 H   0  0  0  0  0  0  0  0  0  0  0  0
    0.8631   -1.8612   -3.3938 C   0  0  0  0  0  0  0  0  0  0  0  0
    0.8631   -1.8612   -1.8709 C   0  0  0  0  0  0  0  0  0  0  0  0
    0.8631   -0.4682   -1.2753 C   0  0  0  0  0  0  0  0  0  0  0  0
   -0.3199    0.1954   -1.6429 O   0  0  0  0  0  0  0  0  0  0  0  0
   -0.3906    1.5135   -1.1620 C   0  0  0  0  0  3  0  0  0  0  0  0
   -1.6939    2.1313   -1.6129 C   0  0  0  0  0  0  0  0  0  0  0  0
    1.7452   -1.3469   -3.7834 H   0  0  0  0  0  0  0  0  0  0  0  0
   -0.0196   -1.3516   -3.7798 H   0  0  0  0  0  0  0  0  0  0  0  0
    0.8686   -2.8791   -3.7864 H   0  0  0  0  0  0  0  0  0  0  0  0
    1.7447   -2.3877   -1.4946 H   0  0  0  0  0  0  0  0  0  0  0  0
   -0.0112   -2.3992   -1.4956 H   0  0  0  0  0  0  0  0  0  0  0  0
    1.7373    0.0969   -1.6357 H   0  0  0  0  0  0  0  0  0  0  0  0
    0.9379   -0.5221   -0.1793 H   0  0  0  0  0  0  0  0  0  0  0  0
   -0.3099    1.5169    0.1556 H   0  0  0  0  0  0  0  0  0  0  0  0
    0.4623    2.0965   -1.5399 H   0  0  0  0  0  0  0  0  0  0  0  0
   -2.5403    1.5619   -1.2272 H   0  0  0  0  0  0  0  0  0  0  0  0
   -1.7547    2.1431   -2.7017 H   0  0  0  0  0  0  0  0  0  0  0  0
   -1.7715    3.1573   -1.2498 H   0  0  0  0  0  0  0  0  0  0  0  0
  1  2  1  0
  1  5  1  0
  1  6  1  0
  1 27  1  0
  2  3  1  0
  2  7  1  0
  2  8  1  0
  3  4  1  0
  3  9  1  0
  3 10  1  0
  4 11  1  0
  4 12  1  0
  4 13  1  0
 14 15  1  0
 14 20  1  0
 14 21  1  0
 14 22  1  0
 15 16  1  0
 15 23  1  0
 15 24  1  0
 16 17  1  0
 16 25  1  0
 16 26  1  0
 17 18  1  0
 18 19  1  0
 18 28  1  0
 19 29  1  0
 19 30  1  0
 19 31  1  0
M  RAD  1  18   2
M  END
>  <reaction>  (16) 
rmg_rxn_279

>  <mol_properties>  (16) 
{"0": {"label": "*3", "atom_type": "Cs"}, "1": {"label": "*4", "atom_type": "Cs"}, "16": {"label": "*0", "atom_type": "O2s"}, "17": {"label": "*1", "atom_type": "Cs"}, "26": {"label": "*2", "atom_type": "H0"}}

>  <type>  (16) 
unop_12

>  <geom_source>  (16) 
Heuristics

$$$$

     RDKit          3D

 31 29  0  0  0  0  0  0  0  0999 V2000
    2.3689   -0.3805   -0.4316 O   0  0  0  0  0  0  0  0  0  0  0  0
   -3.7180    0.1112   -0.3041 C   0  0  0  0  0  0  0  0  0  0  0  0
   -2.2402    0.0327    0.0940 C   0  0  0  0  0  0  0  0  0  0  0  0
    3.3156    0.7362    1.4737 C   0  0  0  0  0  0  0  0  0  0  0  0
    2.0492    0.1824    0.8188 C   0  0  0  0  0  0  0  0  0  0  0  0
   -4.5855    0.5290    0.8795 C   0  0  0  0  0  0  0  0  0  0  0  0
   -1.3722   -0.3847   -1.0882 C   0  0  0  0  0  0  0  0  0  0  0  0
    3.9059    1.8993    0.6789 C   0  0  0  0  0  0  0  0  0  0  0  0
    1.3617   -2.3138   -1.4209 C   0  0  0  0  0  0  0  0  0  0  0  0
    1.1770   -0.8698   -0.9867 C   0  0  0  0  0  3  0  0  0  0  0  0
   -3.8468    0.8518   -1.1235 H   0  0  0  0  0  0  0  0  0  0  0  0
   -4.0614   -0.8814   -0.6691 H   0  0  0  0  0  0  0  0  0  0  0  0
   -1.8955    1.0248    0.4583 H   0  0  0  0  0  0  0  0  0  0  0  0
   -2.1099   -0.7080    0.9126 H   0  0  0  0  0  0  0  0  0  0  0  0
    3.0685    1.0901    2.4981 H   0  0  0  0  0  0  0  0  0  0  0  0
    4.0729   -0.0729    1.5614 H   0  0  0  0  0  0  0  0  0  0  0  0
    1.3084    1.0092    0.7081 H   0  0  0  0  0  0  0  0  0  0  0  0
    1.6257   -0.5949    1.4970 H   0  0  0  0  0  0  0  0  0  0  0  0
   -5.6486    0.5774    0.5624 H   0  0  0  0  0  0  0  0  0  0  0  0
   -4.2788    1.5310    1.2481 H   0  0  0  0  0  0  0  0  0  0  0  0
   -4.4942   -0.2094    1.7045 H   0  0  0  0  0  0  0  0  0  0  0  0
   -1.4619    0.3537   -1.9133 H   0  0  0  0  0  0  0  0  0  0  0  0
   -1.6773   -1.3872   -1.4568 H   0  0  0  0  0  0  0  0  0  0  0  0
   -0.1408   -0.4392   -0.7149 H   0  0  0  0  0  0  0  0  0  0  0  0
    4.2022    1.5649   -0.3379 H   0  0  0  0  0  0  0  0  0  0  0  0
    4.8073    2.2847    1.2003 H   0  0  0  0  0  0  0  0  0  0  0  0
    3.1662    2.7236    0.5935 H   0  0  0  0  0  0  0  0  0  0  0  0
    1.6354   -2.9370   -0.5439 H   0  0  0  0  0  0  0  0  0  0  0  0
    2.1629   -2.3827   -2.1870 H   0  0  0  0  0  0  0  0  0  0  0  0
    0.4123   -2.6951   -1.8511 H   0  0  0  0  0  0  0  0  0  0  0  0
    0.8909   -0.2456   -1.8600 H   0  0  0  0  0  0  0  0  0  0  0  0
  1 10  1  0
  1  5  1  0
  2  6  1  0
  2  3  1  0
  2 11  1  0
  2 12  1  0
  3  7  1  0
  3 13  1  0
  3 14  1  0
  4  8  1  0
  4  5  1  0
  4 15  1  0
  4 16  1  0
  5 17  1  0
  5 18  1  0
  6 19  1  0
  6 20  1  0
  6 21  1  0
  7 22  1  0
  7 23  1  0
  7 24  1  0
  8 25  1  0
  8 26  1  0
  8 27  1  0
  9 10  1  0
  9 28  1  0
  9 29  1  0
  9 30  1  0
 10 31  1  0
M  RAD  1  10   2
M  END
>  <reaction>  (17) 
rmg_rxn_279

>  <mol_properties>  (17) 
{"0": {"label": "*3", "atom_type": "Cs"}, "1": {"label": "*4", "atom_type": "Cs"}, "16": {"label": "*0", "atom_type": "O2s"}, "17": {"label": "*1", "atom_type": "Cs"}, "26": {"label": "*2", "atom_type": "H0"}}

>  <type>  (17) 
unop_13

>  <geom_source>  (17) 
AutoTST

$$$$

     RDKit          3D

 31 29  0  0  0  0  0  0  0  0999 V2000
   -0.5856    1.3758    1.4980 C   0  0  0  0  0  0  0  0  0  0  0  0
    0.2463    0.2077    2.0098 C   0  0  0  0  0  0  0  0  0  0  0  0
    0.7307    0.4015    3.4420 C   0  0  0  0  0  0  0  0  0  0  0  0
    1.5627   -0.7666    3.9539 C   0  0  0  0  0  0  0  0  0  0  0  0
   -0.0100    2.3043    1.5171 H   0  0  0  0  0  0  0  0  0  0  0  0
   -1.4732    1.5252    2.1174 H   0  0  0  0  0  0  0  0  0  0  0  0
    1.1117    0.0587    1.3560 H   0  0  0  0  0  0  0  0  0  0  0  0
   -0.3407   -0.7146    1.9519 H   0  0  0  0  0  0  0  0  0  0  0  0
    1.3178    1.3238    3.5000 H   0  0  0  0  0  0  0  0  0  0  0  0
   -0.1347    0.5504    4.0959 H   0  0  0  0  0  0  0  0  0  0  0  0
    2.4503   -0.9160    3.3345 H   0  0  0  0  0  0  0  0  0  0  0  0
    0.9870   -1.6951    3.9348 H   0  0  0  0  0  0  0  0  0  0  0  0
    1.8958   -0.6018    4.9798 H   0  0  0  0  0  0  0  0  0  0  0  0
    0.5074   -2.0057   -3.3584 C   0  0  0  0  0  0  0  0  0  0  0  0
    0.5074   -2.0057   -1.8355 C   0  0  0  0  0  0  0  0  0  0  0  0
    0.5074   -0.6127   -1.2400 C   0  0  0  0  0  0  0  0  0  0  0  0
   -0.6756    0.0509   -1.6076 O   0  0  0  0  0  0  0  0  0  0  0  0
   -0.7463    1.3690   -1.1267 C   0  0  0  0  0  3  0  0  0  0  0  0
   -2.0497    1.9868   -1.5775 C   0  0  0  0  0  0  0  0  0  0  0  0
    1.3894   -1.4914   -3.7481 H   0  0  0  0  0  0  0  0  0  0  0  0
   -0.3754   -1.4960   -3.7445 H   0  0  0  0  0  0  0  0  0  0  0  0
    0.5129   -3.0236   -3.7511 H   0  0  0  0  0  0  0  0  0  0  0  0
    1.3889   -2.5322   -1.4592 H   0  0  0  0  0  0  0  0  0  0  0  0
   -0.3670   -2.5437   -1.4603 H   0  0  0  0  0  0  0  0  0  0  0  0
    1.3816   -0.0476   -1.6004 H   0  0  0  0  0  0  0  0  0  0  0  0
    0.5822   -0.6666   -0.1440 H   0  0  0  0  0  0  0  0  0  0  0  0
   -0.6656    1.3724    0.1910 H   0  0  0  0  0  0  0  0  0  0  0  0
    0.1065    1.9520   -1.5046 H   0  0  0  0  0  0  0  0  0  0  0  0
   -2.8960    1.4174   -1.1919 H   0  0  0  0  0  0  0  0  0  0  0  0
   -2.1105    1.9986   -2.6664 H   0  0  0  0  0  0  0  0  0  0  0  0
   -2.1273    3.0128   -1.2145 H   0  0  0  0  0  0  0  0  0  0  0  0
  1  2  1  0
  1  5  1  0
  1  6  1  0
  1 27  1  0
  2  3  1  0
  2  7  1  0
  2  8  1  0
  3  4  1  0
  3  9  1  0
  3 10  1  0
  4 11  1  0
  4 12  1  0
  4 13  1  0
 14 15  1  0
 14 20  1  0
 14 21  1  0
 14 22  1  0
 15 16  1  0
 15 23  1  0
 15 24  1  0
 16 17  1  0
 16 25  1  0
 16 26  1  0
 17 18  1  0
 18 19  1  0
 18 28  1  0
 19 29  1  0
 19 30  1  0
 19 31  1  0
M  RAD  1  18   2
M  END
>  <reaction>  (18) 
rmg_rxn_279

>  <mol_properties>  (18) 
{"0": {"label": "*3", "atom_type": "Cs"}, "1": {"label": "*4", "atom_type": "Cs"}, "16": {"label": "*0", "atom_type": "O2s"}, "17": {"label": "*1", "atom_type": "Cs"}, "26": {"label": "*2", "atom_type": "H0"}}

>  <type>  (18) 
unop_14

>  <geom_source>  (18) 
gaussian_log

$$$$
