
     RDKit          3D

 14 13  0  0  0  0  0  0  0  0999 V2000
    1.8106   -0.5953    0.5577 C   0  0  0  0  0  0  0  0  0  0  0  0
    0.5197    0.2064    0.6554 C   0  0  0  0  0  0  0  0  0  0  0  0
   -0.5206   -0.2080   -0.3788 C   0  0  0  0  0  0  0  0  0  0  0  0
   -1.8114    0.5937   -0.2812 C   0  0  0  0  0  0  0  0  0  0  0  0
    2.2725   -0.4752   -0.4251 H   0  0  0  0  0  0  0  0  0  0  0  0
    1.6214   -1.6612    0.7052 H   0  0  0  0  0  0  0  0  0  0  0  0
    2.5364   -0.2784    1.3084 H   0  0  0  0  0  0  0  0  0  0  0  0
    0.0930    0.0950    1.6574 H   0  0  0  0  0  0  0  0  0  0  0  0
    0.7393    1.2723    0.5354 H   0  0  0  0  0  0  0  0  0  0  0  0
   -0.7402   -1.2739   -0.2588 H   0  0  0  0  0  0  0  0  0  0  0  0
   -0.0938   -0.0965   -1.3808 H   0  0  0  0  0  0  0  0  0  0  0  0
   -1.6222    1.6596   -0.4287 H   0  0  0  0  0  0  0  0  0  0  0  0
   -2.2734    0.4736    0.7017 H   0  0  0  0  0  0  0  0  0  0  0  0
   -2.5373    0.2768   -1.0318 H   0  0  0  0  0  0  0  0  0  0  0  0
  1  2  1  0
  1  5  1  0
  1  6  1  0
  1  7  1  0
  2  3  1  0
  2  8  1  0
  2  9  1  0
  3  4  1  0
  3 10  1  0
  3 11  1  0
  4 12  1  0
  4 13  1  0
  4 14  1  0
M  END
>  <reaction>  (1) 
rmg_rxn_215

>  <mol_properties>  (1) 
{"2": {"label": "donator", "atom_type": "Cs"}, "10": {"label": "d_hydrogen", "atom_type": "H0"}}

>  <type>  (1) 
r1h

$$$$

     RDKit          3D

 17 16  0  0  0  0  0  0  0  0999 V2000
    2.3993   -0.7259   -0.8796 C   0  0  0  0  0  0  0  0  0  0  0  0
    1.8173   -0.7170    0.4851 C   0  0  0  0  0  3  0  0  0  0  0  0
    2.6779   -0.5182    1.6852 C   0  0  0  0  0  0  0  0  0  0  0  0
    3.8710   -1.2723    1.6674 O   0  0  0  0  0  0  0  0  0  0  0  0
    3.6589   -2.6587    1.8015 C   0  0  0  0  0  0  0  0  0  0  0  0
    4.9969   -3.3586    1.7556 C   0  0  0  0  0  0  0  0  0  0  0  0
    3.3755   -1.2152   -0.8894 H   0  0  0  0  0  0  0  0  0  0  0  0
    1.7457   -1.2284   -1.5943 H   0  0  0  0  0  0  0  0  0  0  0  0
    2.5578    0.2962   -1.2545 H   0  0  0  0  0  0  0  0  0  0  0  0
    0.7445   -0.6275    0.6059 H   0  0  0  0  0  0  0  0  0  0  0  0
    2.1057   -0.7316    2.5992 H   0  0  0  0  0  0  0  0  0  0  0  0
    3.0103    0.5272    1.7516 H   0  0  0  0  0  0  0  0  0  0  0  0
    3.0050   -3.0235    0.9977 H   0  0  0  0  0  0  0  0  0  0  0  0
    3.1469   -2.8645    2.7531 H   0  0  0  0  0  0  0  0  0  0  0  0
    5.6430   -3.0039    2.5594 H   0  0  0  0  0  0  0  0  0  0  0  0
    4.8641   -4.4360    1.8660 H   0  0  0  0  0  0  0  0  0  0  0  0
    5.4957   -3.1672    0.8046 H   0  0  0  0  0  0  0  0  0  0  0  0
  1  2  1  0
  1  7  1  0
  1  8  1  0
  1  9  1  0
  2  3  1  0
  2 10  1  0
  3  4  1  0
  3 11  1  0
  3 12  1  0
  4  5  1  0
  5  6  1  0
  5 13  1  0
  5 14  1  0
  6 15  1  0
  6 16  1  0
  6 17  1  0
M  RAD  1   2   2
M  END
>  <reaction>  (2) 
rmg_rxn_215

>  <mol_properties>  (2) 
{"1": {"label": "acceptor", "atom_type": "Cs"}}

>  <type>  (2) 
r2

$$$$

     RDKit          3D

 18 17  0  0  0  0  0  0  0  0999 V2000
    2.2026   -0.7213   -0.2612 C   0  0  0  0  0  0  0  0  0  0  0  0
    1.5384    0.2638    0.6915 C   0  0  0  0  0  0  0  0  0  0  0  0
    2.2584    1.5946    0.7694 C   0  0  0  0  0  0  0  0  0  0  0  0
    2.2212    2.2185   -0.4893 O   0  0  0  0  0  0  0  0  0  0  0  0
    2.8988    3.4488   -0.5204 C   0  0  0  0  0  0  0  0  0  0  0  0
    2.7981    4.0296   -1.9118 C   0  0  0  0  0  0  0  0  0  0  0  0
    3.2294   -0.9309    0.0486 H   0  0  0  0  0  0  0  0  0  0  0  0
    2.2338   -0.3181   -1.2734 H   0  0  0  0  0  0  0  0  0  0  0  0
    1.6610   -1.6680   -0.2875 H   0  0  0  0  0  0  0  0  0  0  0  0
    1.4990   -0.1566    1.7002 H   0  0  0  0  0  0  0  0  0  0  0  0
    0.5055    0.4455    0.3835 H   0  0  0  0  0  0  0  0  0  0  0  0
    3.3038    1.4410    1.0808 H   0  0  0  0  0  0  0  0  0  0  0  0
    1.7844    2.2410    1.5226 H   0  0  0  0  0  0  0  0  0  0  0  0
    2.4596    4.1376    0.2164 H   0  0  0  0  0  0  0  0  0  0  0  0
    3.9524    3.3035   -0.2397 H   0  0  0  0  0  0  0  0  0  0  0  0
    1.7543    4.1869   -2.1856 H   0  0  0  0  0  0  0  0  0  0  0  0
    3.2472    3.3545   -2.6411 H   0  0  0  0  0  0  0  0  0  0  0  0
    3.3178    4.9878   -1.9600 H   0  0  0  0  0  0  0  0  0  0  0  0
  1  2  1  0
  1  7  1  0
  1  8  1  0
  1  9  1  0
  2  3  1  0
  2 10  1  0
  2 11  1  0
  3  4  1  0
  3 12  1  0
  3 13  1  0
  4  5  1  0
  5  6  1  0
  5 14  1  0
  5 15  1  0
  6 16  1  0
  6 17  1  0
  6 18  1  0
M  END
>  <reaction>  (3) 
rmg_rxn_215

>  <mol_properties>  (3) 
{"0": {"label": "a_hydrogen", "atom_type": "H0"}, "2": {"label": "acceptor", "atom_type": "Cs"}}

>  <type>  (3) 
r2h

$$$$

     RDKit          3D

 31 29  0  0  0  0  0  0  0  0999 V2000
   -2.7651   -1.8901   -2.0364 C   0  0  0  0  0  0  0  0  0  0  0  0
   -2.4228   -2.3106   -0.6131 C   0  0  0  0  0  0  0  0  0  0  0  0
   -2.1747   -1.1428    0.3088 C   0  0  0  0  0  0  0  0  0  0  0  0
   -1.7819   -1.4884    1.7216 C   0  0  0  0  0  0  0  0  0  0  0  0
   -1.9552   -1.3044   -2.4763 H   0  0  0  0  0  0  0  0  0  0  0  0
   -3.6660   -1.2726   -2.0545 H   0  0  0  0  0  0  0  0  0  0  0  0
   -2.9397   -2.7559   -2.6768 H   0  0  0  0  0  0  0  0  0  0  0  0
   -3.2359   -2.9278   -0.2084 H   0  0  0  0  0  0  0  0  0  0  0  0
   -1.5363   -2.9541   -0.6201 H   0  0  0  0  0  0  0  0  0  0  0  0
   -2.9615   -0.3874    0.2535 H   0  0  0  0  0  0  0  0  0  0  0  0
   -1.1185   -0.5099   -0.2108 H   0  0  0  0  0  0  0  0  0  0  0  0
   -0.8855   -2.1145    1.7355 H   0  0  0  0  0  0  0  0  0  0  0  0
   -2.5748   -2.0459    2.2325 H   0  0  0  0  0  0  0  0  0  0  0  0
   -1.5757   -0.5938    2.3119 H   0  0  0  0  0  0  0  0  0  0  0  0
    0.9124   -1.1550   -1.0560 C   0  0  0  0  0  0  0  0  0  0  0  0
    0.0429    0.0157   -0.6836 C   0  0  0  0  0  3  0  0  0  0  0  0
    0.5354    0.8670    0.4480 C   0  0  0  0  0  0  0  0  0  0  0  0
    1.7136    1.5437    0.0640 O   0  0  0  0  0  0  0  0  0  0  0  0
    2.2511    2.3400    1.0899 C   0  0  0  0  0  0  0  0  0  0  0  0
    3.5036    3.0155    0.5813 C   0  0  0  0  0  0  0  0  0  0  0  0
    1.0861   -1.8019   -0.1913 H   0  0  0  0  0  0  0  0  0  0  0  0
    0.4534   -1.7588   -1.8410 H   0  0  0  0  0  0  0  0  0  0  0  0
    1.8896   -0.8215   -1.4172 H   0  0  0  0  0  0  0  0  0  0  0  0
   -0.2837    0.6097   -1.5374 H   0  0  0  0  0  0  0  0  0  0  0  0
    0.7416    0.2384    1.3287 H   0  0  0  0  0  0  0  0  0  0  0  0
   -0.2339    1.5972    0.7404 H   0  0  0  0  0  0  0  0  0  0  0  0
    2.4794    1.7171    1.9675 H   0  0  0  0  0  0  0  0  0  0  0  0
    1.5123    3.0901    1.4092 H   0  0  0  0  0  0  0  0  0  0  0  0
    3.2755    3.6448   -0.2796 H   0  0  0  0  0  0  0  0  0  0  0  0
    3.9404    3.6402    1.3621 H   0  0  0  0  0  0  0  0  0  0  0  0
    4.2420    2.2724    0.2781 H   0  0  0  0  0  0  0  0  0  0  0  0
  1  2  1  0
  1  5  1  0
  1  6  1  0
  1  7  1  0
  2  3  1  0
  2  8  1  0
  2  9  1  0
  3  4  1  0
  3 10  1  0
  3 11  1  0
  4 12  1  0
  4 13  1  0
  4 14  1  0
 15 16  1  0
 15 21  1  0
 15 22  1  0
 15 23  1  0
 16 17  1  0
 16 24  1  0
 17 18  1  0
 17 25  1  0
 17 26  1  0
 18 19  1  0
 19 20  1  0
 19 27  1  0
 19 28  1  0
 20 29  1  0
 20 30  1  0
 20 31  1  0
M  RAD  1  16   2
M  END
>  <reaction>  (4) 
rmg_rxn_215

>  <mol_properties>  (4) 
{"1": {"label": "*0", "atom_type": "Cs"}, "2": {"label": "*1", "atom_type": "Cs"}, "10": {"label": "*2", "atom_type": "H0"}, "15": {"label": "*3", "atom_type": "Cs"}, "16": {"label": "*4", "atom_type": "Cs"}}

>  <type>  (4) 
ts

$$$$

     RDKit          3D

 31 29  0  0  0  0  0  0  0  0999 V2000
   -2.4343   -2.2287   -1.3621 C   0  0  0  0  0  0  0  0  0  0  0  0
   -2.4343   -2.2287    0.1606 C   0  0  0  0  0  0  0  0  0  0  0  0
   -2.4343   -0.8263    0.7579 C   0  0  0  0  0  3  0  0  0  0  0  0
   -2.4343   -0.8263    2.2806 C   0  0  0  0  0  0  0  0  0  0  0  0
   -1.5528   -1.7153   -1.7535 H   0  0  0  0  0  0  0  0  0  0  0  0
   -3.3158   -1.7153   -1.7535 H   0  0  0  0  0  0  0  0  0  0  0  0
   -2.4343   -3.2438   -1.7625 H   0  0  0  0  0  0  0  0  0  0  0  0
   -3.3093   -2.7745    0.5279 H   0  0  0  0  0  0  0  0  0  0  0  0
   -1.5593   -2.7745    0.5279 H   0  0  0  0  0  0  0  0  0  0  0  0
   -3.3093   -0.2804    0.3906 H   0  0  0  0  0  0  0  0  0  0  0  0
   -1.3843   -0.1712    0.3172 H   0  0  0  0  0  0  0  0  0  0  0  0
   -1.5528   -1.3396    2.6720 H   0  0  0  0  0  0  0  0  0  0  0  0
   -3.3158   -1.3396    2.6720 H   0  0  0  0  0  0  0  0  0  0  0  0
   -2.4343    0.1888    2.6810 H   0  0  0  0  0  0  0  0  0  0  0  0
   -0.7751    1.7275   -0.8830 C   0  0  0  0  0  0  0  0  0  0  0  0
   -0.3354    0.4831   -0.1231 C   0  0  0  0  0  0  0  0  0  0  0  0
    1.0772    0.0494   -0.4571 C   0  0  0  0  0  0  0  0  0  0  0  0
    1.9777    1.0555   -0.0672 O   0  0  0  0  0  0  0  0  0  0  0  0
    3.3153    0.7533   -0.3722 C   0  0  0  0  0  0  0  0  0  0  0  0
    4.1932    1.8949    0.0858 C   0  0  0  0  0  0  0  0  0  0  0  0
   -0.7393    1.5580   -1.9621 H   0  0  0  0  0  0  0  0  0  0  0  0
   -1.7969    2.0065   -0.6218 H   0  0  0  0  0  0  0  0  0  0  0  0
   -0.1225    2.5701   -0.6544 H   0  0  0  0  0  0  0  0  0  0  0  0
   -0.3991    0.6589    0.9538 H   0  0  0  0  0  0  0  0  0  0  0  0
    1.1694   -0.1375   -1.5388 H   0  0  0  0  0  0  0  0  0  0  0  0
    1.3194   -0.8913    0.0589 H   0  0  0  0  0  0  0  0  0  0  0  0
    3.4259    0.5937   -1.4550 H   0  0  0  0  0  0  0  0  0  0  0  0
    3.6112   -0.1825    0.1247 H   0  0  0  0  0  0  0  0  0  0  0  0
    4.0947    2.0449    1.1614 H   0  0  0  0  0  0  0  0  0  0  0  0
    5.2391    1.6818   -0.1406 H   0  0  0  0  0  0  0  0  0  0  0  0
    3.9108    2.8200   -0.4180 H   0  0  0  0  0  0  0  0  0  0  0  0
  1  2  1  0
  1  5  1  0
  1  6  1  0
  1  7  1  0
  2  3  1  0
  2  8  1  0
  2  9  1  0
  3  4  1  0
  3 10  1  0
  4 12  1  0
  4 13  1  0
  4 14  1  0
 11 16  1  0
 15 16  1  0
 15 21  1  0
 15 22  1  0
 15 23  1  0
 16 17  1  0
 16 24  1  0
 17 18  1  0
 17 25  1  0
 17 26  1  0
 18 19  1  0
 19 20  1  0
 19 27  1  0
 19 28  1  0
 20 29  1  0
 20 30  1  0
 20 31  1  0
M  RAD  1   3   2
M  END
>  <reaction>  (5) 
rmg_rxn_215

>  <mol_properties>  (5) 
{"1": {"label": "*0", "atom_type": "Cs"}, "2": {"label": "*1", "atom_type": "Cs"}, "10": {"label": "*2", "atom_type": "H0"}, "15": {"label": "*3", "atom_type": "Cs"}, "16": {"label": "*4", "atom_type": "Cs"}}

>  <type>  (5) 
unop_1

>  <geom_source>  (5) 
Heuristics

$$$$

     RDKit          3D

 31 29  0  0  0  0  0  0  0  0999 V2000
   -2.3497   -2.4456   -1.6032 C   0  0  0  0  0  0  0  0  0  0  0  0
   -2.3497   -2.4456   -0.0805 C   0  0  0  0  0  0  0  0  0  0  0  0
   -2.3497   -1.0432    0.5169 C   0  0  0  0  0  3  0  0  0  0  0  0
   -2.3497   -1.0432    2.0396 C   0  0  0  0  0  0  0  0  0  0  0  0
   -1.4682   -1.9322   -1.9946 H   0  0  0  0  0  0  0  0  0  0  0  0
   -3.2312   -1.9322   -1.9946 H   0  0  0  0  0  0  0  0  0  0  0  0
   -2.3497   -3.4607   -2.0036 H   0  0  0  0  0  0  0  0  0  0  0  0
   -3.2247   -2.9914    0.2868 H   0  0  0  0  0  0  0  0  0  0  0  0
   -1.4747   -2.9914    0.2868 H   0  0  0  0  0  0  0  0  0  0  0  0
   -3.2247   -0.4973    0.1495 H   0  0  0  0  0  0  0  0  0  0  0  0
   -1.2996   -0.3881    0.0761 H   0  0  0  0  0  0  0  0  0  0  0  0
   -1.4682   -1.5565    2.4309 H   0  0  0  0  0  0  0  0  0  0  0  0
   -3.2312   -1.5565    2.4309 H   0  0  0  0  0  0  0  0  0  0  0  0
   -2.3497   -0.0281    2.4399 H   0  0  0  0  0  0  0  0  0  0  0  0
    0.1294   -0.2274   -1.7538 C   0  0  0  0  0  0  0  0  0  0  0  0
   -0.2508    0.2662   -0.3642 C   0  0  0  0  0  0  0  0  0  0  0  0
    0.9479    0.5127    0.5289 C   0  0  0  0  0  0  0  0  0  0  0  0
    1.7363    1.5373   -0.0222 O   0  0  0  0  0  0  0  0  0  0  0  0
    2.8944    1.8106    0.7246 C   0  0  0  0  0  0  0  0  0  0  0  0
    3.6648    2.9202    0.0473 C   0  0  0  0  0  0  0  0  0  0  0  0
    0.6833   -1.1677   -1.6953 H   0  0  0  0  0  0  0  0  0  0  0  0
   -0.7573   -0.3989   -2.3658 H   0  0  0  0  0  0  0  0  0  0  0  0
    0.7596    0.5015   -2.2633 H   0  0  0  0  0  0  0  0  0  0  0  0
   -0.8244    1.1937   -0.4392 H   0  0  0  0  0  0  0  0  0  0  0  0
    1.5440   -0.4087    0.6243 H   0  0  0  0  0  0  0  0  0  0  0  0
    0.6187    0.7951    1.5396 H   0  0  0  0  0  0  0  0  0  0  0  0
    3.5131    0.9043    0.8017 H   0  0  0  0  0  0  0  0  0  0  0  0
    2.6199    2.1030    1.7491 H   0  0  0  0  0  0  0  0  0  0  0  0
    3.0570    3.8233   -0.0171 H   0  0  0  0  0  0  0  0  0  0  0  0
    4.5702    3.1506    0.6110 H   0  0  0  0  0  0  0  0  0  0  0  0
    3.9509    2.6252   -0.9629 H   0  0  0  0  0  0  0  0  0  0  0  0
  1  2  1  0
  1  5  1  0
  1  6  1  0
  1  7  1  0
  2  3  1  0
  2  8  1  0
  2  9  1  0
  3  4  1  0
  3 10  1  0
  4 12  1  0
  4 13  1  0
  4 14  1  0
 11 16  1  0
 15 16  1  0
 15 21  1  0
 15 22  1  0
 15 23  1  0
 16 17  1  0
 16 24  1  0
 17 18  1  0
 17 25  1  0
 17 26  1  0
 18 19  1  0
 19 20  1  0
 19 27  1  0
 19 28  1  0
 20 29  1  0
 20 30  1  0
 20 31  1  0
M  RAD  1   3   2
M  END
>  <reaction>  (6) 
rmg_rxn_215

>  <mol_properties>  (6) 
{"1": {"label": "*0", "atom_type": "Cs"}, "2": {"label": "*1", "atom_type": "Cs"}, "10": {"label": "*2", "atom_type": "H0"}, "15": {"label": "*3", "atom_type": "Cs"}, "16": {"label": "*4", "atom_type": "Cs"}}

>  <type>  (6) 
unop_2

>  <geom_source>  (6) 
Heuristics

$$$$

     RDKit          3D

 31 29  0  0  0  0  0  0  0  0999 V2000
   -2.3469   -2.0812   -0.9401 C   0  0  0  0  0  0  0  0  0  0  0  0
   -2.3469   -2.0812    0.5826 C   0  0  0  0  0  0  0  0  0  0  0  0
   -2.3469   -0.6788    1.1799 C   0  0  0  0  0  3  0  0  0  0  0  0
   -2.3469   -0.6788    2.7026 C   0  0  0  0  0  0  0  0  0  0  0  0
   -1.4654   -1.5678   -1.3315 H   0  0  0  0  0  0  0  0  0  0  0  0
   -3.2284   -1.5678   -1.3315 H   0  0  0  0  0  0  0  0  0  0  0  0
   -2.3469   -3.0963   -1.3405 H   0  0  0  0  0  0  0  0  0  0  0  0
   -3.2219   -2.6271    0.9499 H   0  0  0  0  0  0  0  0  0  0  0  0
   -1.4718   -2.6271    0.9499 H   0  0  0  0  0  0  0  0  0  0  0  0
   -3.2219   -0.1329    0.8126 H   0  0  0  0  0  0  0  0  0  0  0  0
   -1.2968   -0.0238    0.7392 H   0  0  0  0  0  0  0  0  0  0  0  0
   -1.4654   -1.1922    3.0940 H   0  0  0  0  0  0  0  0  0  0  0  0
   -3.2284   -1.1922    3.0940 H   0  0  0  0  0  0  0  0  0  0  0  0
   -2.3469    0.3363    3.1030 H   0  0  0  0  0  0  0  0  0  0  0  0
   -0.5533    2.1207    0.2242 C   0  0  0  0  0  0  0  0  0  0  0  0
   -0.2480    0.6306    0.2989 C   0  0  0  0  0  0  0  0  0  0  0  0
    0.7435    0.1724   -0.7510 C   0  0  0  0  0  0  0  0  0  0  0  0
    1.9767    0.8115   -0.5372 O   0  0  0  0  0  0  0  0  0  0  0  0
    2.9516    0.4720   -1.4900 C   0  0  0  0  0  0  0  0  0  0  0  0
    4.2301    1.2108   -1.1690 C   0  0  0  0  0  0  0  0  0  0  0  0
   -0.9741    2.3838   -0.7495 H   0  0  0  0  0  0  0  0  0  0  0  0
   -1.2734    2.4128    0.9899 H   0  0  0  0  0  0  0  0  0  0  0  0
    0.3536    2.7082    0.3670 H   0  0  0  0  0  0  0  0  0  0  0  0
    0.1493    0.3779    1.2853 H   0  0  0  0  0  0  0  0  0  0  0  0
    0.3663    0.4130   -1.7576 H   0  0  0  0  0  0  0  0  0  0  0  0
    0.8732   -0.9187   -0.7026 H   0  0  0  0  0  0  0  0  0  0  0  0
    2.5981    0.7353   -2.4979 H   0  0  0  0  0  0  0  0  0  0  0  0
    3.1229   -0.6147   -1.4808 H   0  0  0  0  0  0  0  0  0  0  0  0
    4.5888    0.9400   -0.1753 H   0  0  0  0  0  0  0  0  0  0  0  0
    5.0038    0.9618   -1.8970 H   0  0  0  0  0  0  0  0  0  0  0  0
    4.0651    2.2886   -1.1932 H   0  0  0  0  0  0  0  0  0  0  0  0
  1  2  1  0
  1  5  1  0
  1  6  1  0
  1  7  1  0
  2  3  1  0
  2  8  1  0
  2  9  1  0
  3  4  1  0
  3 10  1  0
  4 12  1  0
  4 13  1  0
  4 14  1  0
 11 16  1  0
 15 16  1  0
 15 21  1  0
 15 22  1  0
 15 23  1  0
 16 17  1  0
 16 24  1  0
 17 18  1  0
 17 25  1  0
 17 26  1  0
 18 19  1  0
 19 20  1  0
 19 27  1  0
 19 28  1  0
 20 29  1  0
 20 30  1  0
 20 31  1  0
M  RAD  1   3   2
M  END
>  <reaction>  (7) 
rmg_rxn_215

>  <mol_properties>  (7) 
{"1": {"label": "*0", "atom_type": "Cs"}, "2": {"label": "*1", "atom_type": "Cs"}, "10": {"label": "*2", "atom_type": "H0"}, "15": {"label": "*3", "atom_type": "Cs"}, "16": {"label": "*4", "atom_type": "Cs"}}

>  <type>  (7) 
unop_3

>  <geom_source>  (7) 
Heuristics

$$$$

     RDKit          3D

 31 29  0  0  0  0  0  0  0  0999 V2000
   -1.5436   -2.8595   -2.1839 C   0  0  0  0  0  0  0  0  0  0  0  0
   -1.5436   -2.8595   -0.6612 C   0  0  0  0  0  0  0  0  0  0  0  0
   -1.5436   -1.4571   -0.0638 C   0  0  0  0  0  3  0  0  0  0  0  0
   -1.5436   -1.4571    1.4589 C   0  0  0  0  0  0  0  0  0  0  0  0
   -0.6621   -2.3462   -2.5752 H   0  0  0  0  0  0  0  0  0  0  0  0
   -2.4252   -2.3462   -2.5752 H   0  0  0  0  0  0  0  0  0  0  0  0
   -1.5436   -3.8746   -2.5842 H   0  0  0  0  0  0  0  0  0  0  0  0
   -2.4187   -3.4054   -0.2939 H   0  0  0  0  0  0  0  0  0  0  0  0
   -0.6686   -3.4054   -0.2939 H   0  0  0  0  0  0  0  0  0  0  0  0
   -2.4187   -0.9113   -0.4311 H   0  0  0  0  0  0  0  0  0  0  0  0
   -0.4936   -0.8021   -0.5046 H   0  0  0  0  0  0  0  0  0  0  0  0
   -0.6621   -1.9705    1.8503 H   0  0  0  0  0  0  0  0  0  0  0  0
   -2.4252   -1.9705    1.8503 H   0  0  0  0  0  0  0  0  0  0  0  0
   -1.5436   -0.4420    1.8593 H   0  0  0  0  0  0  0  0  0  0  0  0
    1.8325   -0.8696   -0.5366 C   0  0  0  0  0  0  0  0  0  0  0  0
    0.5552   -0.1478   -0.9448 C   0  0  0  0  0  0  0  0  0  0  0  0
    0.0826    0.8558    0.0870 C   0  0  0  0  0  0  0  0  0  0  0  0
    1.0474    1.8677    0.2286 O   0  0  0  0  0  0  0  0  0  0  0  0
    0.7079    2.8285    1.1956 C   0  0  0  0  0  0  0  0  0  0  0  0
    1.8072    3.8629    1.2670 C   0  0  0  0  0  0  0  0  0  0  0  0
    1.6892   -1.4162    0.3989 H   0  0  0  0  0  0  0  0  0  0  0  0
    2.1393   -1.5867   -1.2995 H   0  0  0  0  0  0  0  0  0  0  0  0
    2.6465   -0.1600   -0.3886 H   0  0  0  0  0  0  0  0  0  0  0  0
    0.7060    0.3743   -1.8933 H   0  0  0  0  0  0  0  0  0  0  0  0
   -0.0800    0.3550    1.0545 H   0  0  0  0  0  0  0  0  0  0  0  0
   -0.8785    1.2941   -0.2198 H   0  0  0  0  0  0  0  0  0  0  0  0
    0.5720    2.3438    2.1737 H   0  0  0  0  0  0  0  0  0  0  0  0
   -0.2496    3.3025    0.9335 H   0  0  0  0  0  0  0  0  0  0  0  0
    1.9334    4.3537    0.3013 H   0  0  0  0  0  0  0  0  0  0  0  0
    1.5647    4.6215    2.0128 H   0  0  0  0  0  0  0  0  0  0  0  0
    2.7538    3.3963    1.5420 H   0  0  0  0  0  0  0  0  0  0  0  0
  1  2  1  0
  1  5  1  0
  1  6  1  0
  1  7  1  0
  2  3  1  0
  2  8  1  0
  2  9  1  0
  3  4  1  0
  3 10  1  0
  4 12  1  0
  4 13  1  0
  4 14  1  0
 11 16  1  0
 15 16  1  0
 15 21  1  0
 15 22  1  0
 15 23  1  0
 16 17  1  0
 16 24  1  0
 17 18  1  0
 17 25  1  0
 17 26  1  0
 18 19  1  0
 19 20  1  0
 19 27  1  0
 19 28  1  0
 20 29  1  0
 20 30  1  0
 20 31  1  0
M  RAD  1   3   2
M  END
>  <reaction>  (8) 
rmg_rxn_215

>  <mol_properties>  (8) 
{"1": {"label": "*0", "atom_type": "Cs"}, "2": {"label": "*1", "atom_type": "Cs"}, "10": {"label": "*2", "atom_type": "H0"}, "15": {"label": "*3", "atom_type": "Cs"}, "16": {"label": "*4", "atom_type": "Cs"}}

>  <type>  (8) 
unop_4

>  <geom_source>  (8) 
Heuristics

$$$$

     RDKit          3D

 31 29  0  0  0  0  0  0  0  0999 V2000
   -1.7488   -2.3095   -0.4259 C   0  0  0  0  0  0  0  0  0  0  0  0
   -1.7488   -2.3095    1.0968 C   0  0  0  0  0  0  0  0  0  0  0  0
   -1.7488   -0.9071    1.6941 C   0  0  0  0  0  3  0  0  0  0  0  0
   -1.7488   -0.9071    3.2168 C   0  0  0  0  0  0  0  0  0  0  0  0
   -0.8672   -1.7961   -0.8173 H   0  0  0  0  0  0  0  0  0  0  0  0
   -2.6303   -1.7961   -0.8173 H   0  0  0  0  0  0  0  0  0  0  0  0
   -1.7488   -3.3246   -0.8263 H   0  0  0  0  0  0  0  0  0  0  0  0
   -2.6238   -2.8554    1.4641 H   0  0  0  0  0  0  0  0  0  0  0  0
   -0.8737   -2.8554    1.4641 H   0  0  0  0  0  0  0  0  0  0  0  0
   -2.6238   -0.3612    1.3268 H   0  0  0  0  0  0  0  0  0  0  0  0
   -0.6987   -0.2521    1.2534 H   0  0  0  0  0  0  0  0  0  0  0  0
   -0.8672   -1.4205    3.6082 H   0  0  0  0  0  0  0  0  0  0  0  0
   -2.6303   -1.4205    3.6082 H   0  0  0  0  0  0  0  0  0  0  0  0
   -1.7488    0.1080    3.6172 H   0  0  0  0  0  0  0  0  0  0  0  0
    0.3732    1.8088    1.3964 C   0  0  0  0  0  0  0  0  0  0  0  0
    0.3501    0.4023    0.8131 C   0  0  0  0  0  0  0  0  0  0  0  0
    0.3072    0.3862   -0.7012 C   0  0  0  0  0  0  0  0  0  0  0  0
    1.4791    0.9746   -1.2066 O   0  0  0  0  0  0  0  0  0  0  0  0
    1.5104    1.0354   -2.6098 C   0  0  0  0  0  0  0  0  0  0  0  0
    2.8050    1.6825   -3.0443 C   0  0  0  0  0  0  0  0  0  0  0  0
   -0.5152    2.3699    1.0958 H   0  0  0  0  0  0  0  0  0  0  0  0
    0.3984    1.7813    2.4868 H   0  0  0  0  0  0  0  0  0  0  0  0
    1.2489    2.3567    1.0488 H   0  0  0  0  0  0  0  0  0  0  0  0
    1.2316   -0.1546    1.1413 H   0  0  0  0  0  0  0  0  0  0  0  0
   -0.5750    0.9397   -1.0602 H   0  0  0  0  0  0  0  0  0  0  0  0
    0.2172   -0.6464   -1.0692 H   0  0  0  0  0  0  0  0  0  0  0  0
    0.6494    1.6118   -2.9791 H   0  0  0  0  0  0  0  0  0  0  0  0
    1.4265    0.0226   -3.0311 H   0  0  0  0  0  0  0  0  0  0  0  0
    3.6590    1.1041   -2.6903 H   0  0  0  0  0  0  0  0  0  0  0  0
    2.8521    1.7402   -4.1329 H   0  0  0  0  0  0  0  0  0  0  0  0
    2.8819    2.6924   -2.6399 H   0  0  0  0  0  0  0  0  0  0  0  0
  1  2  1  0
  1  5  1  0
  1  6  1  0
  1  7  1  0
  2  3  1  0
  2  8  1  0
  2  9  1  0
  3  4  1  0
  3 10  1  0
  4 12  1  0
  4 13  1  0
  4 14  1  0
 11 16  1  0
 15 16  1  0
 15 21  1  0
 15 22  1  0
 15 23  1  0
 16 17  1  0
 16 24  1  0
 17 18  1  0
 17 25  1  0
 17 26  1  0
 18 19  1  0
 19 20  1  0
 19 27  1  0
 19 28  1  0
 20 29  1  0
 20 30  1  0
 20 31  1  0
M  RAD  1   3   2
M  END
>  <reaction>  (9) 
rmg_rxn_215

>  <mol_properties>  (9) 
{"1": {"label": "*0", "atom_type": "Cs"}, "2": {"label": "*1", "atom_type": "Cs"}, "10": {"label": "*2", "atom_type": "H0"}, "15": {"label": "*3", "atom_type": "Cs"}, "16": {"label": "*4", "atom_type": "Cs"}}

>  <type>  (9) 
unop_5

>  <geom_source>  (9) 
Heuristics

$$$$

     RDKit          3D

 31 29  0  0  0  0  0  0  0  0999 V2000
   -1.1190   -3.0533   -1.8734 C   0  0  0  0  0  0  0  0  0  0  0  0
   -1.1190   -3.0533   -0.3507 C   0  0  0  0  0  0  0  0  0  0  0  0
   -1.1190   -1.6509    0.2467 C   0  0  0  0  0  3  0  0  0  0  0  0
   -1.1190   -1.6509    1.7694 C   0  0  0  0  0  0  0  0  0  0  0  0
   -0.2374   -2.5399   -2.2648 H   0  0  0  0  0  0  0  0  0  0  0  0
   -2.0005   -2.5399   -2.2648 H   0  0  0  0  0  0  0  0  0  0  0  0
   -1.1190   -4.0684   -2.2738 H   0  0  0  0  0  0  0  0  0  0  0  0
   -1.9940   -3.5991    0.0166 H   0  0  0  0  0  0  0  0  0  0  0  0
   -0.2439   -3.5991    0.0166 H   0  0  0  0  0  0  0  0  0  0  0  0
   -1.9940   -1.1050   -0.1207 H   0  0  0  0  0  0  0  0  0  0  0  0
   -0.0689   -0.9958   -0.1941 H   0  0  0  0  0  0  0  0  0  0  0  0
   -0.2374   -2.1642    2.1607 H   0  0  0  0  0  0  0  0  0  0  0  0
   -2.0005   -2.1642    2.1607 H   0  0  0  0  0  0  0  0  0  0  0  0
   -1.1190   -0.6358    2.1697 H   0  0  0  0  0  0  0  0  0  0  0  0
    2.1615   -0.5542    0.3025 C   0  0  0  0  0  0  0  0  0  0  0  0
    0.9799   -0.3415   -0.6344 C   0  0  0  0  0  0  0  0  0  0  0  0
    0.0234    0.7301   -0.1527 C   0  0  0  0  0  0  0  0  0  0  0  0
    0.6900    1.9667   -0.1152 O   0  0  0  0  0  0  0  0  0  0  0  0
   -0.1141    3.0178    0.3559 C   0  0  0  0  0  0  0  0  0  0  0  0
    0.6961    4.2934    0.3565 C   0  0  0  0  0  0  0  0  0  0  0  0
    1.8212   -0.8530    1.2972 H   0  0  0  0  0  0  0  0  0  0  0  0
    2.8246   -1.3350   -0.0728 H   0  0  0  0  0  0  0  0  0  0  0  0
    2.7405    0.3632    0.4081 H   0  0  0  0  0  0  0  0  0  0  0  0
    1.3357   -0.0668   -1.6308 H   0  0  0  0  0  0  0  0  0  0  0  0
   -0.3535    0.4768    0.8509 H   0  0  0  0  0  0  0  0  0  0  0  0
   -0.8469    0.7932   -0.8224 H   0  0  0  0  0  0  0  0  0  0  0  0
   -0.4727    2.7896    1.3705 H   0  0  0  0  0  0  0  0  0  0  0  0
   -1.0022    3.1268   -0.2842 H   0  0  0  0  0  0  0  0  0  0  0  0
    1.0403    4.5279   -0.6514 H   0  0  0  0  0  0  0  0  0  0  0  0
    0.0906    5.1257    0.7189 H   0  0  0  0  0  0  0  0  0  0  0  0
    1.5684    4.1918    1.0031 H   0  0  0  0  0  0  0  0  0  0  0  0
  1  2  1  0
  1  5  1  0
  1  6  1  0
  1  7  1  0
  2  3  1  0
  2  8  1  0
  2  9  1  0
  3  4  1  0
  3 10  1  0
  4 12  1  0
  4 13  1  0
  4 14  1  0
 11 16  1  0
 15 16  1  0
 15 21  1  0
 15 22  1  0
 15 23  1  0
 16 17  1  0
 16 24  1  0
 17 18  1  0
 17 25  1  0
 17 26  1  0
 18 19  1  0
 19 20  1  0
 19 27  1  0
 19 28  1  0
 20 29  1  0
 20 30  1  0
 20 31  1  0
M  RAD  1   3   2
M  END
>  <reaction>  (10) 
rmg_rxn_215

>  <mol_properties>  (10) 
{"1": {"label": "*0", "atom_type": "Cs"}, "2": {"label": "*1", "atom_type": "Cs"}, "10": {"label": "*2", "atom_type": "H0"}, "15": {"label": "*3", "atom_type": "Cs"}, "16": {"label": "*4", "atom_type": "Cs"}}

>  <type>  (10) 
unop_6

>  <geom_source>  (10) 
Heuristics

$$$$

     RDKit          3D

 31 29  0  0  0  0  0  0  0  0999 V2000
   -0.8772   -3.0577   -1.3146 C   0  0  0  0  0  0  0  0  0  0  0  0
   -0.8772   -3.0577    0.2081 C   0  0  0  0  0  0  0  0  0  0  0  0
   -0.8772   -1.6553    0.8054 C   0  0  0  0  0  3  0  0  0  0  0  0
   -0.8772   -1.6553    2.3281 C   0  0  0  0  0  0  0  0  0  0  0  0
    0.0043   -2.5443   -1.7060 H   0  0  0  0  0  0  0  0  0  0  0  0
   -1.7588   -2.5443   -1.7060 H   0  0  0  0  0  0  0  0  0  0  0  0
   -0.8772   -4.0728   -1.7150 H   0  0  0  0  0  0  0  0  0  0  0  0
   -1.7523   -3.6036    0.5754 H   0  0  0  0  0  0  0  0  0  0  0  0
   -0.0022   -3.6036    0.5754 H   0  0  0  0  0  0  0  0  0  0  0  0
   -1.7523   -1.1094    0.4381 H   0  0  0  0  0  0  0  0  0  0  0  0
    0.1728   -1.0002    0.3647 H   0  0  0  0  0  0  0  0  0  0  0  0
    0.0043   -2.1686    2.7195 H   0  0  0  0  0  0  0  0  0  0  0  0
   -1.7588   -2.1686    2.7195 H   0  0  0  0  0  0  0  0  0  0  0  0
   -0.8772   -0.6402    2.7285 H   0  0  0  0  0  0  0  0  0  0  0  0
    2.1032    0.0775    1.0918 C   0  0  0  0  0  0  0  0  0  0  0  0
    1.2216   -0.3459   -0.0756 C   0  0  0  0  0  0  0  0  0  0  0  0
    0.0489    0.5855   -0.3048 C   0  0  0  0  0  0  0  0  0  0  0  0
    0.5277    1.8610   -0.6494 O   0  0  0  0  0  0  0  0  0  0  0  0
   -0.4946    2.8041   -0.8469 C   0  0  0  0  0  0  0  0  0  0  0  0
    0.1268    4.1329   -1.2100 C   0  0  0  0  0  0  0  0  0  0  0  0
    1.5306    0.1056    2.0223 H   0  0  0  0  0  0  0  0  0  0  0  0
    2.9324   -0.6178    1.2301 H   0  0  0  0  0  0  0  0  0  0  0  0
    2.5165    1.0718    0.9227 H   0  0  0  0  0  0  0  0  0  0  0  0
    1.8123   -0.3929   -0.9941 H   0  0  0  0  0  0  0  0  0  0  0  0
   -0.5664    0.6498    0.6066 H   0  0  0  0  0  0  0  0  0  0  0  0
   -0.5952    0.1971   -1.1073 H   0  0  0  0  0  0  0  0  0  0  0  0
   -1.0985    2.8991    0.0676 H   0  0  0  0  0  0  0  0  0  0  0  0
   -1.1694    2.4640   -1.6464 H   0  0  0  0  0  0  0  0  0  0  0  0
    0.7145    4.0428   -2.1242 H   0  0  0  0  0  0  0  0  0  0  0  0
   -0.6499    4.8826   -1.3690 H   0  0  0  0  0  0  0  0  0  0  0  0
    0.7840    4.4784   -0.4111 H   0  0  0  0  0  0  0  0  0  0  0  0
  1  2  1  0
  1  5  1  0
  1  6  1  0
  1  7  1  0
  2  3  1  0
  2  8  1  0
  2  9  1  0
  3  4  1  0
  3 10  1  0
  4 12  1  0
  4 13  1  0
  4 14  1  0
 11 16  1  0
 15 16  1  0
 15 21  1  0
 15 22  1  0
 15 23  1  0
 16 17  1  0
 16 24  1  0
 17 18  1  0
 17 25  1  0
 17 26  1  0
 18 19  1  0
 19 20  1  0
 19 27  1  0
 19 28  1  0
 20 29  1  0
 20 30  1  0
 20 31  1  0
M  RAD  1   3   2
M  END
>  <reaction>  (11) 
rmg_rxn_215

>  <mol_properties>  (11) 
{"1": {"label": "*0", "atom_type": "Cs"}, "2": {"label": "*1", "atom_type": "Cs"}, "10": {"label": "*2", "atom_type": "H0"}, "15": {"label": "*3", "atom_type": "Cs"}, "16": {"label": "*4", "atom_type": "Cs"}}

>  <type>  (11) 
unop_7

>  <geom_source>  (11) 
Heuristics

$$$$

     RDKit          3D

 31 29  0  0  0  0  0  0  0  0999 V2000
   -2.3734   -2.4117   -1.4883 C   0  0  0  0  0  0  0  0  0  0  0  0
   -2.3734   -2.4117    0.0344 C   0  0  0  0  0  0  0  0  0  0  0  0
   -2.3734   -1.0094    0.6318 C   0  0  0  0  0  3  0  0  0  0  0  0
   -2.3734   -1.0094    2.1545 C   0  0  0  0  0  0  0  0  0  0  0  0
   -1.4919   -1.8984   -1.8796 H   0  0  0  0  0  0  0  0  0  0  0  0
   -3.2550   -1.8984   -1.8796 H   0  0  0  0  0  0  0  0  0  0  0  0
   -2.3734   -3.4268   -1.8886 H   0  0  0  0  0  0  0  0  0  0  0  0
   -3.2485   -2.9576    0.4018 H   0  0  0  0  0  0  0  0  0  0  0  0
   -1.4984   -2.9576    0.4018 H   0  0  0  0  0  0  0  0  0  0  0  0
   -3.2485   -0.4635    0.2645 H   0  0  0  0  0  0  0  0  0  0  0  0
   -1.3234   -0.3543    0.1910 H   0  0  0  0  0  0  0  0  0  0  0  0
   -1.4919   -1.5227    2.5459 H   0  0  0  0  0  0  0  0  0  0  0  0
   -3.2550   -1.5227    2.5459 H   0  0  0  0  0  0  0  0  0  0  0  0
   -2.3734    0.0058    2.5549 H   0  0  0  0  0  0  0  0  0  0  0  0
   -0.6185    1.0353   -1.5378 C   0  0  0  0  0  0  0  0  0  0  0  0
   -0.2746    0.3000   -0.2492 C   0  0  0  0  0  0  0  0  0  0  0  0
    1.2144    0.0925   -0.0612 C   0  0  0  0  0  0  0  0  0  0  0  0
    1.8485    1.3418    0.0480 O   0  0  0  0  0  0  0  0  0  0  0  0
    3.2430    1.2472    0.1901 C   0  0  0  0  0  0  0  0  0  0  0  0
    3.8211    2.6392    0.2973 C   0  0  0  0  0  0  0  0  0  0  0  0
   -0.2601    0.4822   -2.4095 H   0  0  0  0  0  0  0  0  0  0  0  0
   -1.6971    1.1616   -1.6418 H   0  0  0  0  0  0  0  0  0  0  0  0
   -0.1564    2.0223   -1.5542 H   0  0  0  0  0  0  0  0  0  0  0  0
   -0.6596    0.8520    0.6121 H   0  0  0  0  0  0  0  0  0  0  0  0
    1.6292   -0.4649   -0.9160 H   0  0  0  0  0  0  0  0  0  0  0  0
    1.4049   -0.5051    0.8423 H   0  0  0  0  0  0  0  0  0  0  0  0
    3.6725    0.7178   -0.6732 H   0  0  0  0  0  0  0  0  0  0  0  0
    3.4896    0.6584    1.0861 H   0  0  0  0  0  0  0  0  0  0  0  0
    3.4061    3.1599    1.1610 H   0  0  0  0  0  0  0  0  0  0  0  0
    4.9054    2.5907    0.4092 H   0  0  0  0  0  0  0  0  0  0  0  0
    3.5904    3.2187   -0.5973 H   0  0  0  0  0  0  0  0  0  0  0  0
  1  2  1  0
  1  5  1  0
  1  6  1  0
  1  7  1  0
  2  3  1  0
  2  8  1  0
  2  9  1  0
  3  4  1  0
  3 10  1  0
  4 12  1  0
  4 13  1  0
  4 14  1  0
 11 16  1  0
 15 16  1  0
 15 21  1  0
 15 22  1  0
 15 23  1  0
 16 17  1  0
 16 24  1  0
 17 18  1  0
 17 25  1  0
 17 26  1  0
 18 19  1  0
 19 20  1  0
 19 27  1  0
 19 28  1  0
 20 29  1  0
 20 30  1  0
 20 31  1  0
M  RAD  1   3   2
M  END
>  <reaction>  (12) 
rmg_rxn_215

>  <mol_properties>  (12) 
{"1": {"label": "*0", "atom_type": "Cs"}, "2": {"label": "*1", "atom_type": "Cs"}, "10": {"label": "*2", "atom_type": "H0"}, "15": {"label": "*3", "atom_type": "Cs"}, "16": {"label": "*4", "atom_type": "Cs"}}

>  <type>  (12) 
unop_8

>  <geom_source>  (12) 
Heuristics

$$$$

     RDKit          3D

 31 29  0  0  0  0  0  0  0  0999 V2000
   -1.9869   -2.6030   -2.1659 C   0  0  0  0  0  0  0  0  0  0  0  0
   -1.9869   -2.6030   -0.6432 C   0  0  0  0  0  0  0  0  0  0  0  0
   -1.9869   -1.2006   -0.0458 C   0  0  0  0  0  3  0  0  0  0  0  0
   -1.9869   -1.2006    1.4769 C   0  0  0  0  0  0  0  0  0  0  0  0
   -1.1054   -2.0896   -2.5572 H   0  0  0  0  0  0  0  0  0  0  0  0
   -2.8685   -2.0896   -2.5572 H   0  0  0  0  0  0  0  0  0  0  0  0
   -1.9869   -3.6181   -2.5662 H   0  0  0  0  0  0  0  0  0  0  0  0
   -2.8620   -3.1488   -0.2759 H   0  0  0  0  0  0  0  0  0  0  0  0
   -1.1119   -3.1488   -0.2759 H   0  0  0  0  0  0  0  0  0  0  0  0
   -2.8620   -0.6547   -0.4131 H   0  0  0  0  0  0  0  0  0  0  0  0
   -0.9369   -0.5455   -0.4866 H   0  0  0  0  0  0  0  0  0  0  0  0
   -1.1054   -1.7139    1.8683 H   0  0  0  0  0  0  0  0  0  0  0  0
   -2.8685   -1.7139    1.8683 H   0  0  0  0  0  0  0  0  0  0  0  0
   -1.9869   -0.1855    1.8773 H   0  0  0  0  0  0  0  0  0  0  0  0
    1.2549   -0.8587   -1.2038 C   0  0  0  0  0  0  0  0  0  0  0  0
    0.1119    0.1088   -0.9268 C   0  0  0  0  0  0  0  0  0  0  0  0
    0.2818    0.8761    0.3684 C   0  0  0  0  0  0  0  0  0  0  0  0
    1.4318    1.6796    0.2863 O   0  0  0  0  0  0  0  0  0  0  0  0
    1.6892    2.4040    1.4621 C   0  0  0  0  0  0  0  0  0  0  0  0
    2.9405    3.2285    1.2668 C   0  0  0  0  0  0  0  0  0  0  0  0
    1.3424   -1.5978   -0.4034 H   0  0  0  0  0  0  0  0  0  0  0  0
    1.0963   -1.3963   -2.1397 H   0  0  0  0  0  0  0  0  0  0  0  0
    2.2034   -0.3262   -1.2729 H   0  0  0  0  0  0  0  0  0  0  0  0
    0.0210    0.8266   -1.7462 H   0  0  0  0  0  0  0  0  0  0  0  0
    0.3736    0.1755    1.2135 H   0  0  0  0  0  0  0  0  0  0  0  0
   -0.6014    1.5035    0.5585 H   0  0  0  0  0  0  0  0  0  0  0  0
    1.8125    1.7126    2.3088 H   0  0  0  0  0  0  0  0  0  0  0  0
    0.8333    3.0540    1.6972 H   0  0  0  0  0  0  0  0  0  0  0  0
    2.8141    3.9239    0.4363 H   0  0  0  0  0  0  0  0  0  0  0  0
    3.1603    3.8015    2.1690 H   0  0  0  0  0  0  0  0  0  0  0  0
    3.7927    2.5838    1.0491 H   0  0  0  0  0  0  0  0  0  0  0  0
  1  2  1  0
  1  5  1  0
  1  6  1  0
  1  7  1  0
  2  3  1  0
  2  8  1  0
  2  9  1  0
  3  4  1  0
  3 10  1  0
  4 12  1  0
  4 13  1  0
  4 14  1  0
 11 16  1  0
 15 16  1  0
 15 21  1  0
 15 22  1  0
 15 23  1  0
 16 17  1  0
 16 24  1  0
 17 18  1  0
 17 25  1  0
 17 26  1  0
 18 19  1  0
 19 20  1  0
 19 27  1  0
 19 28  1  0
 20 29  1  0
 20 30  1  0
 20 31  1  0
M  RAD  1   3   2
M  END
>  <reaction>  (13) 
rmg_rxn_215

>  <mol_properties>  (13) 
{"1": {"label": "*0", "atom_type": "Cs"}, "2": {"label": "*1", "atom_type": "Cs"}, "10": {"label": "*2", "atom_type": "H0"}, "15": {"label": "*3", "atom_type": "Cs"}, "16": {"label": "*4", "atom_type": "Cs"}}

>  <type>  (13) 
unop_9

>  <geom_source>  (13) 
Heuristics

$$$$

     RDKit          3D

 31 29  0  0  0  0  0  0  0  0999 V2000
   -2.3398   -2.4797   -1.5001 C   0  0  0  0  0  0  0  0  0  0  0  0
   -2.3398   -2.4797    0.0226 C   0  0  0  0  0  0  0  0  0  0  0  0
   -2.3398   -1.0773    0.6200 C   0  0  0  0  0  3  0  0  0  0  0  0
   -2.3398   -1.0773    2.1427 C   0  0  0  0  0  0  0  0  0  0  0  0
   -1.4583   -1.9664   -1.8915 H   0  0  0  0  0  0  0  0  0  0  0  0
   -3.2214   -1.9664   -1.8915 H   0  0  0  0  0  0  0  0  0  0  0  0
   -2.3398   -3.4948   -1.9005 H   0  0  0  0  0  0  0  0  0  0  0  0
   -3.2149   -3.0256    0.3899 H   0  0  0  0  0  0  0  0  0  0  0  0
   -1.4648   -3.0256    0.3899 H   0  0  0  0  0  0  0  0  0  0  0  0
   -3.2149   -0.5314    0.2527 H   0  0  0  0  0  0  0  0  0  0  0  0
   -1.2898   -0.4223    0.1792 H   0  0  0  0  0  0  0  0  0  0  0  0
   -1.4583   -1.5907    2.5340 H   0  0  0  0  0  0  0  0  0  0  0  0
   -3.2214   -1.5907    2.5340 H   0  0  0  0  0  0  0  0  0  0  0  0
   -2.3398   -0.0622    2.5430 H   0  0  0  0  0  0  0  0  0  0  0  0
   -0.2848    0.3312   -1.7801 C   0  0  0  0  0  0  0  0  0  0  0  0
   -0.2410    0.2320   -0.2611 C   0  0  0  0  0  0  0  0  0  0  0  0
    1.1668    0.2675    0.2976 C   0  0  0  0  0  0  0  0  0  0  0  0
    1.7578    1.5055   -0.0072 O   0  0  0  0  0  0  0  0  0  0  0  0
    3.0838    1.6149    0.4438 C   0  0  0  0  0  0  0  0  0  0  0  0
    3.6204    2.9758    0.0652 C   0  0  0  0  0  0  0  0  0  0  0  0
    0.2628   -0.4950   -2.2404 H   0  0  0  0  0  0  0  0  0  0  0  0
   -1.3119    0.2971   -2.1464 H   0  0  0  0  0  0  0  0  0  0  0  0
    0.1674    1.2630   -2.1194 H   0  0  0  0  0  0  0  0  0  0  0  0
   -0.8122    1.0502    0.1851 H   0  0  0  0  0  0  0  0  0  0  0  0
    1.7655   -0.5501   -0.1343 H   0  0  0  0  0  0  0  0  0  0  0  0
    1.1484    0.1187    1.3873 H   0  0  0  0  0  0  0  0  0  0  0  0
    3.6987    0.8207   -0.0046 H   0  0  0  0  0  0  0  0  0  0  0  0
    3.1217    1.4766    1.5346 H   0  0  0  0  0  0  0  0  0  0  0  0
    3.0195    3.7638    0.5206 H   0  0  0  0  0  0  0  0  0  0  0  0
    4.6511    3.0842    0.4065 H   0  0  0  0  0  0  0  0  0  0  0  0
    3.5978    3.1079   -1.0171 H   0  0  0  0  0  0  0  0  0  0  0  0
  1  2  1  0
  1  5  1  0
  1  6  1  0
  1  7  1  0
  2  3  1  0
  2  8  1  0
  2  9  1  0
  3  4  1  0
  3 10  1  0
  4 12  1  0
  4 13  1  0
  4 14  1  0
 11 16  1  0
 15 16  1  0
 15 21  1  0
 15 22  1  0
 15 23  1  0
 16 17  1  0
 16 24  1  0
 17 18  1  0
 17 25  1  0
 17 26  1  0
 18 19  1  0
 19 20  1  0
 19 27  1  0
 19 28  1  0
 20 29  1  0
 20 30  1  0
 20 31  1  0
M  RAD  1   3   2
M  END
>  <reaction>  (14) 
rmg_rxn_215

>  <mol_properties>  (14) 
{"1": {"label": "*0", "atom_type": "Cs"}, "2": {"label": "*1", "atom_type": "Cs"}, "10": {"label": "*2", "atom_type": "H0"}, "15": {"label": "*3", "atom_type": "Cs"}, "16": {"label": "*4", "atom_type": "Cs"}}

>  <type>  (14) 
unop_10

>  <geom_source>  (14) 
Heuristics

$$$$

     RDKit          3D

 31 29  0  0  0  0  0  0  0  0999 V2000
   -1.0245   -2.7996   -0.6699 C   0  0  0  0  0  0  0  0  0  0  0  0
   -1.0245   -2.7996    0.8528 C   0  0  0  0  0  0  0  0  0  0  0  0
   -1.0245   -1.3972    1.4502 C   0  0  0  0  0  3  0  0  0  0  0  0
   -1.0245   -1.3972    2.9729 C   0  0  0  0  0  0  0  0  0  0  0  0
   -0.1430   -2.2862   -1.0613 H   0  0  0  0  0  0  0  0  0  0  0  0
   -1.9060   -2.2862   -1.0613 H   0  0  0  0  0  0  0  0  0  0  0  0
   -1.0245   -3.8147   -1.0703 H   0  0  0  0  0  0  0  0  0  0  0  0
   -1.8996   -3.3455    1.2201 H   0  0  0  0  0  0  0  0  0  0  0  0
   -0.1495   -3.3455    1.2201 H   0  0  0  0  0  0  0  0  0  0  0  0
   -1.8995   -0.8513    1.0828 H   0  0  0  0  0  0  0  0  0  0  0  0
    0.0255   -0.7421    1.0094 H   0  0  0  0  0  0  0  0  0  0  0  0
   -0.1430   -1.9105    3.3642 H   0  0  0  0  0  0  0  0  0  0  0  0
   -1.9060   -1.9105    3.3642 H   0  0  0  0  0  0  0  0  0  0  0  0
   -1.0245   -0.3821    3.3732 H   0  0  0  0  0  0  0  0  0  0  0  0
    1.5318    0.9283    1.6071 C   0  0  0  0  0  0  0  0  0  0  0  0
    1.0744   -0.0878    0.5691 C   0  0  0  0  0  0  0  0  0  0  0  0
    0.1085    0.4903   -0.4448 C   0  0  0  0  0  0  0  0  0  0  0  0
    0.7531    1.5006   -1.1787 O   0  0  0  0  0  0  0  0  0  0  0  0
   -0.0816    2.1207   -2.1233 C   0  0  0  0  0  0  0  0  0  0  0  0
    0.7064    3.1851   -2.8511 C   0  0  0  0  0  0  0  0  0  0  0  0
    0.6804    1.3244    2.1662 H   0  0  0  0  0  0  0  0  0  0  0  0
    2.2206    0.4762    2.3223 H   0  0  0  0  0  0  0  0  0  0  0  0
    2.0382    1.7670    1.1294 H   0  0  0  0  0  0  0  0  0  0  0  0
    1.9375   -0.4929    0.0346 H   0  0  0  0  0  0  0  0  0  0  0  0
   -0.7743    0.9044    0.0676 H   0  0  0  0  0  0  0  0  0  0  0  0
   -0.2478   -0.2978   -1.1244 H   0  0  0  0  0  0  0  0  0  0  0  0
   -0.9529    2.5644   -1.6193 H   0  0  0  0  0  0  0  0  0  0  0  0
   -0.4648    1.3729   -2.8335 H   0  0  0  0  0  0  0  0  0  0  0  0
    1.5627    2.7440   -3.3625 H   0  0  0  0  0  0  0  0  0  0  0  0
    0.0773    3.6810   -3.5920 H   0  0  0  0  0  0  0  0  0  0  0  0
    1.0735    3.9353   -2.1499 H   0  0  0  0  0  0  0  0  0  0  0  0
  1  2  1  0
  1  5  1  0
  1  6  1  0
  1  7  1  0
  2  3  1  0
  2  8  1  0
  2  9  1  0
  3  4  1  0
  3 10  1  0
  4 12  1  0
  4 13  1  0
  4 14  1  0
 11 16  1  0
 15 16  1  0
 15 21  1  0
 15 22  1  0
 15 23  1  0
 16 17  1  0
 16 24  1  0
 17 18  1  0
 17 25  1  0
 17 26  1  0
 18 19  1  0
 19 20  1  0
 19 27  1  0
 19 28  1  0
 20 29  1  0
 20 30  1  0
 20 31  1  0
M  RAD  1   3   2
M  END
>  <reaction>  (15) 
rmg_rxn_215

>  <mol_properties>  (15) 
{"1": {"label": "*0", "atom_type": "Cs"}, "2": {"label": "*1", "atom_type": "Cs"}, "10": {"label": "*2", "atom_type": "H0"}, "15": {"label": "*3", "atom_type": "Cs"}, "16": {"label": "*4", "atom_type": "Cs"}}

>  <type>  (15) 
unop_11

>  <geom_source>  (15) 
Heuristics

$$$$

     RDKit          3D

 31 29  0  0  0  0  0  0  0  0999 V2000
   -2.2766   -2.4454   -1.8855 C   0  0  0  0  0  0  0  0  0  0  0  0
   -2.2766   -2.4454   -0.3628 C   0  0  0  0  0  0  0  0  0  0  0  0
   -2.2766   -1.0430    0.2346 C   0  0  0  0  0  3  0  0  0  0  0  0
   -2.2766   -1.0430    1.7573 C   0  0  0  0  0  0  0  0  0  0  0  0
   -1.3951   -1.9320   -2.2768 H   0  0  0  0  0  0  0  0  0  0  0  0
   -3.1582   -1.9320   -2.2768 H   0  0  0  0  0  0  0  0  0  0  0  0
   -2.2766   -3.4605   -2.2858 H   0  0  0  0  0  0  0  0  0  0  0  0
   -3.1517   -2.9913    0.0045 H   0  0  0  0  0  0  0  0  0  0  0  0
   -1.4016   -2.9913    0.0045 H   0  0  0  0  0  0  0  0  0  0  0  0
   -3.1517   -0.4971   -0.1327 H   0  0  0  0  0  0  0  0  0  0  0  0
   -1.2266   -0.3879   -0.2062 H   0  0  0  0  0  0  0  0  0  0  0  0
   -1.3951   -1.5564    2.1487 H   0  0  0  0  0  0  0  0  0  0  0  0
   -3.1582   -1.5564    2.1487 H   0  0  0  0  0  0  0  0  0  0  0  0
   -2.2766   -0.0279    2.1577 H   0  0  0  0  0  0  0  0  0  0  0  0
    0.6369   -0.6176   -1.5814 C   0  0  0  0  0  0  0  0  0  0  0  0
   -0.1778    0.2664   -0.6464 C   0  0  0  0  0  0  0  0  0  0  0  0
    0.6097    0.7468    0.5554 C   0  0  0  0  0  0  0  0  0  0  0  0
    1.6751    1.5542    0.1216 O   0  0  0  0  0  0  0  0  0  0  0  0
    2.4847    2.0180    1.1717 C   0  0  0  0  0  0  0  0  0  0  0  0
    3.5930    2.8699    0.5977 C   0  0  0  0  0  0  0  0  0  0  0  0
    0.9987   -1.5072   -1.0597 H   0  0  0  0  0  0  0  0  0  0  0  0
    0.0372   -0.9485   -2.4307 H   0  0  0  0  0  0  0  0  0  0  0  0
    1.5032   -0.0787   -1.9650 H   0  0  0  0  0  0  0  0  0  0  0  0
   -0.5529    1.1391   -1.1872 H   0  0  0  0  0  0  0  0  0  0  0  0
    0.9985   -0.1145    1.1214 H   0  0  0  0  0  0  0  0  0  0  0  0
   -0.0410    1.3174    1.2343 H   0  0  0  0  0  0  0  0  0  0  0  0
    2.9032    1.1655    1.7269 H   0  0  0  0  0  0  0  0  0  0  0  0
    1.8802    2.6013    1.8821 H   0  0  0  0  0  0  0  0  0  0  0  0
    3.1793    3.7230    0.0588 H   0  0  0  0  0  0  0  0  0  0  0  0
    4.2359    3.2427    1.3967 H   0  0  0  0  0  0  0  0  0  0  0  0
    4.2025    2.2882   -0.0949 H   0  0  0  0  0  0  0  0  0  0  0  0
  1  2  1  0
  1  5  1  0
  1  6  1  0
  1  7  1  0
  2  3  1  0
  2  8  1  0
  2  9  1  0
  3  4  1  0
  3 10  1  0
  4 12  1  0
  4 13  1  0
  4 14  1  0
 11 16  1  0
 15 16  1  0
 15 21  1  0
 15 22  1  0
 15 23  1  0
 16 17  1  0
 16 24  1  0
 17 18  1  0
 17 25  1  0
 17 26  1  0
 18 19  1  0
 19 20  1  0
 19 27  1  0
 19 28  1  0
 20 29  1  0
 20 30  1  0
 20 31  1  0
M  RAD  1   3   2
M  END
>  <reaction>  (16) 
rmg_rxn_215

>  <mol_properties>  (16) 
{"1": {"label": "*0", "atom_type": "Cs"}, "2": {"label": "*1", "atom_type": "Cs"}, "10": {"label": "*2", "atom_type": "H0"}, "15": {"label": "*3", "atom_type": "Cs"}, "16": {"label": "*4", "atom_type": "Cs"}}

>  <type>  (16) 
unop_12

>  <geom_source>  (16) 
Heuristics

$$$$

     RDKit          3D

 31 29  0  0  0  0  0  0  0  0999 V2000
    2.3017    0.6411    1.1001 O   0  0  0  0  0  0  0  0  0  0  0  0
    0.0407    0.2291    0.3865 C   0  0  0  0  0  0  0  0  0  0  0  0
   -3.2246   -0.0044   -0.5634 C   0  0  0  0  0  0  0  0  0  0  0  0
    1.4771    0.5259   -0.0420 C   0  0  0  0  0  0  0  0  0  0  0  0
    3.6574    0.7881    0.7216 C   0  0  0  0  0  0  0  0  0  0  0  0
   -0.5700    1.3841    1.1757 C   0  0  0  0  0  0  0  0  0  0  0  0
   -3.1616   -0.9084    0.6645 C   0  0  0  0  0  0  0  0  0  0  0  0
    4.3706   -0.5580    0.7802 C   0  0  0  0  0  0  0  0  0  0  0  0
   -1.6093   -1.2317   -2.1054 C   0  0  0  0  0  0  0  0  0  0  0  0
   -1.8854    0.0392   -1.3061 C   0  0  0  0  0  3  0  0  0  0  0  0
    0.0198   -0.6944    1.0052 H   0  0  0  0  0  0  0  0  0  0  0  0
   -0.6943    0.0191   -0.6971 H   0  0  0  0  0  0  0  0  0  0  0  0
   -4.0373   -0.3422   -1.2427 H   0  0  0  0  0  0  0  0  0  0  0  0
   -3.4707    1.0249   -0.2243 H   0  0  0  0  0  0  0  0  0  0  0  0
    1.8156   -0.3113   -0.6931 H   0  0  0  0  0  0  0  0  0  0  0  0
    1.4900    1.4705   -0.6321 H   0  0  0  0  0  0  0  0  0  0  0  0
    3.7980    1.2501   -0.2847 H   0  0  0  0  0  0  0  0  0  0  0  0
    4.1446    1.4692    1.4508 H   0  0  0  0  0  0  0  0  0  0  0  0
   -1.6187    1.1345    1.4407 H   0  0  0  0  0  0  0  0  0  0  0  0
    0.0002    1.5610    2.1122 H   0  0  0  0  0  0  0  0  0  0  0  0
   -0.5704    2.3104    0.5632 H   0  0  0  0  0  0  0  0  0  0  0  0
    3.9386   -1.2570    0.0341 H   0  0  0  0  0  0  0  0  0  0  0  0
    4.2676   -0.9988    1.7944 H   0  0  0  0  0  0  0  0  0  0  0  0
    5.4494   -0.4199    0.5563 H   0  0  0  0  0  0  0  0  0  0  0  0
   -3.0364   -1.9696    0.3652 H   0  0  0  0  0  0  0  0  0  0  0  0
   -2.3185   -0.6077    1.3225 H   0  0  0  0  0  0  0  0  0  0  0  0
   -4.1083   -0.8192    1.2380 H   0  0  0  0  0  0  0  0  0  0  0  0
   -1.5052   -2.1037   -1.4280 H   0  0  0  0  0  0  0  0  0  0  0  0
   -2.4281   -1.4195   -2.8321 H   0  0  0  0  0  0  0  0  0  0  0  0
   -0.6579   -1.1117   -2.6640 H   0  0  0  0  0  0  0  0  0  0  0  0
   -1.8747    0.9102   -1.9965 H   0  0  0  0  0  0  0  0  0  0  0  0
  1  5  1  0
  1  4  1  0
  2  6  1  0
  2  4  1  0
  2 11  1  0
  2 12  1  0
  3  7  1  0
  3 10  1  0
  3 13  1  0
  3 14  1  0
  4 15  1  0
  4 16  1  0
  5  8  1  0
  5 17  1  0
  5 18  1  0
  6 19  1  0
  6 20  1  0
  6 21  1  0
  7 25  1  0
  7 26  1  0
  7 27  1  0
  8 22  1  0
  8 23  1  0
  8 24  1  0
  9 10  1  0
  9 28  1  0
  9 29  1  0
  9 30  1  0
 10 31  1  0
M  RAD  1  10   2
M  END
>  <reaction>  (17) 
rmg_rxn_215

>  <mol_properties>  (17) 
{"1": {"label": "*0", "atom_type": "Cs"}, "2": {"label": "*1", "atom_type": "Cs"}, "10": {"label": "*2", "atom_type": "H0"}, "15": {"label": "*3", "atom_type": "Cs"}, "16": {"label": "*4", "atom_type": "Cs"}}

>  <type>  (17) 
unop_13

>  <geom_source>  (17) 
AutoTST

$$$$

     RDKit          3D

 31 29  0  0  0  0  0  0  0  0999 V2000
   -2.3497   -2.4456   -1.6032 C   0  0  0  0  0  0  0  0  0  0  0  0
   -2.3497   -2.4456   -0.0805 C   0  0  0  0  0  0  0  0  0  0  0  0
   -2.3497   -1.0432    0.5169 C   0  0  0  0  0  3  0  0  0  0  0  0
   -2.3497   -1.0432    2.0396 C   0  0  0  0  0  0  0  0  0  0  0  0
   -1.4682   -1.9322   -1.9946 H   0  0  0  0  0  0  0  0  0  0  0  0
   -3.2312   -1.9322   -1.9946 H   0  0  0  0  0  0  0  0  0  0  0  0
   -2.3497   -3.4607   -2.0036 H   0  0  0  0  0  0  0  0  0  0  0  0
   -3.2247   -2.9914    0.2868 H   0  0  0  0  0  0  0  0  0  0  0  0
   -1.4747   -2.9914    0.2868 H   0  0  0  0  0  0  0  0  0  0  0  0
   -3.2247   -0.4973    0.1495 H   0  0  0  0  0  0  0  0  0  0  0  0
   -1.2996   -0.3881    0.0761 H   0  0  0  0  0  0  0  0  0  0  0  0
   -1.4682   -1.5565    2.4309 H   0  0  0  0  0  0  0  0  0  0  0  0
   -3.2312   -1.5565    2.4309 H   0  0  0  0  0  0  0  0  0  0  0  0
   -2.3497   -0.0281    2.4399 H   0  0  0  0  0  0  0  0  0  0  0  0
    0.1294   -0.2274   -1.7538 C   0  0  0  0  0  0  0  0  0  0  0  0
   -0.2508    0.2662   -0.3642 C   0  0  0  0  0  0  0  0  0  0  0  0
    0.9479    0.5127    0.5289 C   0  0  0  0  0  0  0  0  0  0  0  0
    1.7363    1.5373   -0.0221 O   0  0  0  0  0  0  0  0  0  0  0  0
    2.8944    1.8106    0.7247 C   0  0  0  0  0  0  0  0  0  0  0  0
    3.6648    2.9202    0.0473 C   0  0  0  0  0  0  0  0  0  0  0  0
    0.6833   -1.1677   -1.6953 H   0  0  0  0  0  0  0  0  0  0  0  0
   -0.7573   -0.3989   -2.3658 H   0  0  0  0  0  0  0  0  0  0  0  0
    0.7597    0.5015   -2.2633 H   0  0  0  0  0  0  0  0  0  0  0  0
   -0.8244    1.1937   -0.4392 H   0  0  0  0  0  0  0  0  0  0  0  0
    1.5440   -0.4087    0.6243 H   0  0  0  0  0  0  0  0  0  0  0  0
    0.6187    0.7951    1.5396 H   0  0  0  0  0  0  0  0  0  0  0  0
    3.5131    0.9043    0.8017 H   0  0  0  0  0  0  0  0  0  0  0  0
    2.6199    2.1030    1.7491 H   0  0  0  0  0  0  0  0  0  0  0  0
    3.0570    3.8233   -0.0171 H   0  0  0  0  0  0  0  0  0  0  0  0
    4.5702    3.1506    0.6110 H   0  0  0  0  0  0  0  0  0  0  0  0
    3.9509    2.6252   -0.9629 H   0  0  0  0  0  0  0  0  0  0  0  0
  1  2  1  0
  1  5  1  0
  1  6  1  0
  1  7  1  0
  2  3  1  0
  2  8  1  0
  2  9  1  0
  3  4  1  0
  3 10  1  0
  4 12  1  0
  4 13  1  0
  4 14  1  0
 11 16  1  0
 15 16  1  0
 15 21  1  0
 15 22  1  0
 15 23  1  0
 16 17  1  0
 16 24  1  0
 17 18  1  0
 17 25  1  0
 17 26  1  0
 18 19  1  0
 19 20  1  0
 19 27  1  0
 19 28  1  0
 20 29  1  0
 20 30  1  0
 20 31  1  0
M  RAD  1   3   2
M  END
>  <reaction>  (18) 
rmg_rxn_215

>  <mol_properties>  (18) 
{"1": {"label": "*0", "atom_type": "Cs"}, "2": {"label": "*1", "atom_type": "Cs"}, "10": {"label": "*2", "atom_type": "H0"}, "15": {"label": "*3", "atom_type": "Cs"}, "16": {"label": "*4", "atom_type": "Cs"}}

>  <type>  (18) 
unop_14

>  <geom_source>  (18) 
gaussian_log

$$$$
