
     RDKit          3D

  8  7  0  0  0  0  0  0  0  0999 V2000
    0.9548    0.1194   -0.0790 C   0  0  0  0  0  0  0  0  0  0  0  0
   -0.4838   -0.2649    0.0193 C   0  0  0  0  0  0  0  0  0  0  0  0
   -0.8933   -1.1081    0.8664 N   0  0  0  0  0  0  0  0  0  0  0  0
    1.3360   -0.0983   -1.0800 H   0  0  0  0  0  0  0  0  0  0  0  0
    1.0698    1.1948    0.0786 H   0  0  0  0  0  0  0  0  0  0  0  0
    1.5426   -0.4219    0.6602 H   0  0  0  0  0  0  0  0  0  0  0  0
   -1.1575    0.2324   -0.6905 H   0  0  0  0  0  0  0  0  0  0  0  0
   -1.8989   -1.2455    0.7886 H   0  0  0  0  0  0  0  0  0  0  0  0
  1  2  1  0
  1  4  1  0
  1  5  1  0
  1  6  1  0
  2  3  2  3
  2  7  1  0
  3  8  1  0
M  END
>  <reaction>  (1) 
rmg_rxn_16460

>  <mol_properties>  (1) 
{"2": {"label": "donator", "atom_type": "N3d"}, "7": {"label": "d_hydrogen", "atom_type": "H0"}}

>  <type>  (1) 
r1h

$$$$

     RDKit          3D

 13 12  0  0  0  0  0  0  0  0999 V2000
    1.9060    0.2628    0.3980 C   0  0  0  0  0  0  0  0  0  0  0  0
    0.6330   -0.4250    0.0685 C   0  0  0  0  0  3  0  0  0  0  0  0
   -0.2610   -0.9325    1.1416 C   0  0  0  0  0  0  0  0  0  0  0  0
   -1.4364   -1.7546    0.6268 C   0  0  0  0  0  0  0  0  0  0  0  0
    2.4899   -0.3070    1.1292 H   0  0  0  0  0  0  0  0  0  0  0  0
    1.7297    1.2496    0.8515 H   0  0  0  0  0  0  0  0  0  0  0  0
    2.5269    0.4197   -0.4845 H   0  0  0  0  0  0  0  0  0  0  0  0
    0.2597   -0.3936   -0.9489 H   0  0  0  0  0  0  0  0  0  0  0  0
   -0.6439   -0.0868    1.7356 H   0  0  0  0  0  0  0  0  0  0  0  0
    0.3260   -1.5277    1.8536 H   0  0  0  0  0  0  0  0  0  0  0  0
   -1.0872   -2.6320    0.0792 H   0  0  0  0  0  0  0  0  0  0  0  0
   -2.0701   -2.0976    1.4459 H   0  0  0  0  0  0  0  0  0  0  0  0
   -2.0561   -1.1637   -0.0512 H   0  0  0  0  0  0  0  0  0  0  0  0
  1  2  1  0
  1  5  1  0
  1  6  1  0
  1  7  1  0
  2  3  1  0
  2  8  1  0
  3  4  1  0
  3  9  1  0
  3 10  1  0
  4 11  1  0
  4 12  1  0
  4 13  1  0
M  RAD  1   2   2
M  END
>  <reaction>  (2) 
rmg_rxn_16460

>  <mol_properties>  (2) 
{"1": {"label": "acceptor", "atom_type": "Cs"}}

>  <type>  (2) 
r2

$$$$

     RDKit          3D

 14 13  0  0  0  0  0  0  0  0999 V2000
    1.8106   -0.5953    0.5577 C   0  0  0  0  0  0  0  0  0  0  0  0
    0.5197    0.2064    0.6554 C   0  0  0  0  0  0  0  0  0  0  0  0
   -0.5206   -0.2080   -0.3788 C   0  0  0  0  0  0  0  0  0  0  0  0
   -1.8114    0.5937   -0.2812 C   0  0  0  0  0  0  0  0  0  0  0  0
    2.2725   -0.4752   -0.4251 H   0  0  0  0  0  0  0  0  0  0  0  0
    1.6214   -1.6612    0.7052 H   0  0  0  0  0  0  0  0  0  0  0  0
    2.5364   -0.2784    1.3084 H   0  0  0  0  0  0  0  0  0  0  0  0
    0.0930    0.0950    1.6574 H   0  0  0  0  0  0  0  0  0  0  0  0
    0.7393    1.2723    0.5354 H   0  0  0  0  0  0  0  0  0  0  0  0
   -0.7402   -1.2739   -0.2588 H   0  0  0  0  0  0  0  0  0  0  0  0
   -0.0938   -0.0965   -1.3808 H   0  0  0  0  0  0  0  0  0  0  0  0
   -1.6222    1.6596   -0.4287 H   0  0  0  0  0  0  0  0  0  0  0  0
   -2.2734    0.4736    0.7017 H   0  0  0  0  0  0  0  0  0  0  0  0
   -2.5373    0.2768   -1.0318 H   0  0  0  0  0  0  0  0  0  0  0  0
  1  2  1  0
  1  5  1  0
  1  6  1  0
  1  7  1  0
  2  3  1  0
  2  8  1  0
  2  9  1  0
  3  4  1  0
  3 10  1  0
  3 11  1  0
  4 12  1  0
  4 13  1  0
  4 14  1  0
M  END
>  <reaction>  (3) 
rmg_rxn_16460

>  <mol_properties>  (3) 
{"0": {"label": "a_hydrogen", "atom_type": "H0"}, "2": {"label": "acceptor", "atom_type": "Cs"}}

>  <type>  (3) 
r2h

$$$$

     RDKit          3D

 21 19  0  0  0  0  0  0  0  0999 V2000
   -0.5938   -0.4989   -3.2793 C   0  0  0  0  0  0  0  0  0  0  0  0
   -0.5281   -0.2637   -1.8005 C   0  0  0  0  0  0  0  0  0  0  0  0
    0.3111    0.5103   -1.2770 N   0  0  0  0  0  0  0  0  0  0  0  0
   -0.4485   -1.5602   -3.4947 H   0  0  0  0  0  0  0  0  0  0  0  0
   -1.5812   -0.2237   -3.6576 H   0  0  0  0  0  0  0  0  0  0  0  0
    0.1675    0.0835   -3.7950 H   0  0  0  0  0  0  0  0  0  0  0  0
   -1.2621   -0.8139   -1.1948 H   0  0  0  0  0  0  0  0  0  0  0  0
    0.1156    0.5019   -0.0477 H   0  0  0  0  0  0  0  0  0  0  0  0
   -0.2610    1.8884    1.6836 C   0  0  0  0  0  0  0  0  0  0  0  0
   -0.1733    0.4452    1.2693 C   0  0  0  0  0  3  0  0  0  0  0  0
    0.9389   -0.3663    1.8802 C   0  0  0  0  0  0  0  0  0  0  0  0
    0.9815   -1.8068    1.3869 C   0  0  0  0  0  0  0  0  0  0  0  0
    0.6857    2.4033    1.5045 H   0  0  0  0  0  0  0  0  0  0  0  0
   -0.4871    1.9783    2.7524 H   0  0  0  0  0  0  0  0  0  0  0  0
   -1.0409    2.4166    1.1335 H   0  0  0  0  0  0  0  0  0  0  0  0
   -1.1363   -0.0719    1.2777 H   0  0  0  0  0  0  0  0  0  0  0  0
    0.8280   -0.3558    2.9731 H   0  0  0  0  0  0  0  0  0  0  0  0
    1.8948    0.1255    1.6727 H   0  0  0  0  0  0  0  0  0  0  0  0
    1.1479   -1.8422    0.3089 H   0  0  0  0  0  0  0  0  0  0  0  0
    1.7829   -2.3677    1.8696 H   0  0  0  0  0  0  0  0  0  0  0  0
    0.0401   -2.3198    1.5988 H   0  0  0  0  0  0  0  0  0  0  0  0
  1  2  1  0
  1  4  1  0
  1  5  1  0
  1  6  1  0
  2  3  2  3
  2  7  1  0
  3  8  1  0
  9 10  1  0
  9 13  1  0
  9 14  1  0
  9 15  1  0
 10 11  1  0
 10 16  1  0
 11 12  1  0
 11 17  1  0
 11 18  1  0
 12 19  1  0
 12 20  1  0
 12 21  1  0
M  RAD  1  10   2
M  END
>  <reaction>  (4) 
rmg_rxn_16460

>  <mol_properties>  (4) 
{"1": {"label": "*0", "atom_type": "Cd"}, "2": {"label": "*1", "atom_type": "N3d"}, "7": {"label": "*2", "atom_type": "H0"}, "9": {"label": "*3", "atom_type": "Cs"}, "10": {"label": "*4", "atom_type": "Cs"}}

>  <type>  (4) 
ts

$$$$

     RDKit          3D

 21 19  0  0  0  0  0  0  0  0999 V2000
   -3.4023   -0.3676   -0.1945 C   0  0  0  0  0  0  0  0  0  0  0  0
   -1.9942    0.1347   -0.0730 C   0  0  0  0  0  0  0  0  0  0  0  0
   -1.0753   -0.5593    0.3851 N   0  0  0  0  0  0  0  0  0  0  0  0
   -3.4714   -1.3884    0.1706 H   0  0  0  0  0  0  0  0  0  0  0  0
   -4.0661    0.2749    0.3821 H   0  0  0  0  0  0  0  0  0  0  0  0
   -3.7111   -0.3285   -1.2381 H   0  0  0  0  0  0  0  0  0  0  0  0
   -1.8661    1.1693   -0.4284 H   0  0  0  0  0  0  0  0  0  0  0  0
    0.0425   -0.0046    0.4203 H   0  0  0  0  0  0  0  0  0  0  0  0
    0.9483    2.0215   -0.0504 C   0  0  0  0  0  0  0  0  0  0  0  0
    1.1900    0.6109    0.4218 C   0  0  0  0  0  3  0  0  0  0  0  0
    2.0910   -0.2145   -0.4655 C   0  0  0  0  0  0  0  0  0  0  0  0
    2.2043   -1.6546    0.0209 C   0  0  0  0  0  0  0  0  0  0  0  0
    0.5694    2.0292   -1.0717 H   0  0  0  0  0  0  0  0  0  0  0  0
    1.8768    2.5983   -0.0390 H   0  0  0  0  0  0  0  0  0  0  0  0
    0.2338    2.5312    0.5938 H   0  0  0  0  0  0  0  0  0  0  0  0
    1.4911    0.5698    1.4674 H   0  0  0  0  0  0  0  0  0  0  0  0
    3.0906    0.2386   -0.4929 H   0  0  0  0  0  0  0  0  0  0  0  0
    1.7045   -0.2035   -1.4882 H   0  0  0  0  0  0  0  0  0  0  0  0
    2.6271   -1.6858    1.0226 H   0  0  0  0  0  0  0  0  0  0  0  0
    1.2203   -2.1151    0.0501 H   0  0  0  0  0  0  0  0  0  0  0  0
    2.8438   -2.2343   -0.6409 H   0  0  0  0  0  0  0  0  0  0  0  0
  1  2  1  0
  1  4  1  0
  1  5  1  0
  1  6  1  0
  2  3  2  3
  2  7  1  0
  3  8  1  0
  9 10  1  0
  9 13  1  0
  9 14  1  0
  9 15  1  0
 10 11  1  0
 10 16  1  0
 11 12  1  0
 11 17  1  0
 11 18  1  0
 12 19  1  0
 12 20  1  0
 12 21  1  0
M  RAD  1  10   2
M  END
>  <reaction>  (5) 
rmg_rxn_16460

>  <mol_properties>  (5) 
{"1": {"label": "*0", "atom_type": "Cd"}, "2": {"label": "*1", "atom_type": "N3d"}, "7": {"label": "*2", "atom_type": "H0"}, "9": {"label": "*3", "atom_type": "Cs"}, "10": {"label": "*4", "atom_type": "Cs"}}

>  <type>  (5) 
unop_1

>  <geom_source>  (5) 
crest_best.xyz

$$$$

     RDKit          3D

 21 19  0  0  0  0  0  0  0  0999 V2000
   -0.3592   -0.6694   -3.3652 C   0  0  0  0  0  0  0  0  0  0  0  0
   -0.3592   -0.6694   -1.8729 C   0  0  0  0  0  0  0  0  0  0  0  0
   -0.3592    0.4032   -1.2052 N   0  0  0  0  0  0  0  0  0  0  0  0
    0.5190   -1.1994   -3.7426 H   0  0  0  0  0  0  0  0  0  0  0  0
   -1.2375   -1.1994   -3.7426 H   0  0  0  0  0  0  0  0  0  0  0  0
   -0.3592    0.3512   -3.7438 H   0  0  0  0  0  0  0  0  0  0  0  0
   -0.3592   -1.6591   -1.3982 H   0  0  0  0  0  0  0  0  0  0  0  0
   -0.3592    0.1730   -0.0056 H   0  0  0  0  0  0  0  0  0  0  0  0
   -1.4982    0.9232    1.1236 C   0  0  0  0  0  0  0  0  0  0  0  0
   -0.3592   -0.0745    1.2846 C   0  0  0  0  0  3  0  0  0  0  0  0
    0.8882    0.5388    1.9102 C   0  0  0  0  0  0  0  0  0  0  0  0
    2.0272   -0.4589    2.0713 C   0  0  0  0  0  0  0  0  0  0  0  0
   -1.1994    1.7586    0.4860 H   0  0  0  0  0  0  0  0  0  0  0  0
   -1.7963    1.3362    2.0902 H   0  0  0  0  0  0  0  0  0  0  0  0
   -2.3772    0.4583    0.6742 H   0  0  0  0  0  0  0  0  0  0  0  0
   -0.6923   -0.9160    1.9008 H   0  0  0  0  0  0  0  0  0  0  0  0
    0.6288    0.9608    2.8865 H   0  0  0  0  0  0  0  0  0  0  0  0
    1.2213    1.3802    1.2941 H   0  0  0  0  0  0  0  0  0  0  0  0
    2.3253   -0.8719    1.1046 H   0  0  0  0  0  0  0  0  0  0  0  0
    2.9061    0.0060    2.5207 H   0  0  0  0  0  0  0  0  0  0  0  0
    1.7284   -1.2944    2.7089 H   0  0  0  0  0  0  0  0  0  0  0  0
  1  2  1  0
  1  4  1  0
  1  5  1  0
  1  6  1  0
  2  3  2  3
  2  7  1  0
  3  8  1  0
  9 10  1  0
  9 13  1  0
  9 14  1  0
  9 15  1  0
 10 11  1  0
 10 16  1  0
 11 12  1  0
 11 17  1  0
 11 18  1  0
 12 19  1  0
 12 20  1  0
 12 21  1  0
M  RAD  1  10   2
M  END
>  <reaction>  (6) 
rmg_rxn_16460

>  <mol_properties>  (6) 
{"1": {"label": "*0", "atom_type": "Cd"}, "2": {"label": "*1", "atom_type": "N3d"}, "7": {"label": "*2", "atom_type": "H0"}, "9": {"label": "*3", "atom_type": "Cs"}, "10": {"label": "*4", "atom_type": "Cs"}}

>  <type>  (6) 
unop_2

>  <geom_source>  (6) 
Heuristics

$$$$

     RDKit          3D

 21 19  0  0  0  0  0  0  0  0999 V2000
   -0.2118   -0.1041   -3.2585 C   0  0  0  0  0  0  0  0  0  0  0  0
   -0.2118   -0.1041   -1.7661 C   0  0  0  0  0  0  0  0  0  0  0  0
   -0.2118    0.9685   -1.0984 N   0  0  0  0  0  0  0  0  0  0  0  0
    0.6665   -0.6341   -3.6359 H   0  0  0  0  0  0  0  0  0  0  0  0
   -1.0901   -0.6341   -3.6359 H   0  0  0  0  0  0  0  0  0  0  0  0
   -0.2118    0.9165   -3.6370 H   0  0  0  0  0  0  0  0  0  0  0  0
   -0.2118   -1.0938   -1.2915 H   0  0  0  0  0  0  0  0  0  0  0  0
   -0.2118    0.7383    0.1012 H   0  0  0  0  0  0  0  0  0  0  0  0
    0.6272    1.7086    1.7542 C   0  0  0  0  0  0  0  0  0  0  0  0
   -0.2118    0.4908    1.3914 C   0  0  0  0  0  3  0  0  0  0  0  0
    0.5084   -0.8283    1.6462 C   0  0  0  0  0  0  0  0  0  0  0  0
   -0.3306   -2.0461    1.2834 C   0  0  0  0  0  0  0  0  0  0  0  0
    1.5527    1.7332    1.1739 H   0  0  0  0  0  0  0  0  0  0  0  0
    0.9013    1.6940    2.8118 H   0  0  0  0  0  0  0  0  0  0  0  0
    0.0883    2.6377    1.5621 H   0  0  0  0  0  0  0  0  0  0  0  0
   -1.1459    0.5050    1.9622 H   0  0  0  0  0  0  0  0  0  0  0  0
    0.7960   -0.8815    2.7012 H   0  0  0  0  0  0  0  0  0  0  0  0
    1.4425   -0.8426    1.0754 H   0  0  0  0  0  0  0  0  0  0  0  0
   -0.6047   -2.0315    0.2258 H   0  0  0  0  0  0  0  0  0  0  0  0
    0.2083   -2.9753    1.4755 H   0  0  0  0  0  0  0  0  0  0  0  0
   -1.2561   -2.0707    1.8637 H   0  0  0  0  0  0  0  0  0  0  0  0
  1  2  1  0
  1  4  1  0
  1  5  1  0
  1  6  1  0
  2  3  2  3
  2  7  1  0
  3  8  1  0
  9 10  1  0
  9 13  1  0
  9 14  1  0
  9 15  1  0
 10 11  1  0
 10 16  1  0
 11 12  1  0
 11 17  1  0
 11 18  1  0
 12 19  1  0
 12 20  1  0
 12 21  1  0
M  RAD  1  10   2
M  END
>  <reaction>  (7) 
rmg_rxn_16460

>  <mol_properties>  (7) 
{"1": {"label": "*0", "atom_type": "Cd"}, "2": {"label": "*1", "atom_type": "N3d"}, "7": {"label": "*2", "atom_type": "H0"}, "9": {"label": "*3", "atom_type": "Cs"}, "10": {"label": "*4", "atom_type": "Cs"}}

>  <type>  (7) 
unop_3

>  <geom_source>  (7) 
Heuristics

$$$$

     RDKit          3D

 21 19  0  0  0  0  0  0  0  0999 V2000
   -0.2049   -0.8162   -3.3944 C   0  0  0  0  0  0  0  0  0  0  0  0
   -0.2049   -0.8162   -1.9021 C   0  0  0  0  0  0  0  0  0  0  0  0
   -0.2049    0.2564   -1.2344 N   0  0  0  0  0  0  0  0  0  0  0  0
    0.6733   -1.3462   -3.7719 H   0  0  0  0  0  0  0  0  0  0  0  0
   -1.0832   -1.3462   -3.7719 H   0  0  0  0  0  0  0  0  0  0  0  0
   -0.2049    0.2044   -3.7730 H   0  0  0  0  0  0  0  0  0  0  0  0
   -0.2049   -1.8059   -1.4275 H   0  0  0  0  0  0  0  0  0  0  0  0
   -0.2049    0.0263   -0.0348 H   0  0  0  0  0  0  0  0  0  0  0  0
   -1.7147   -0.0306    1.2031 C   0  0  0  0  0  0  0  0  0  0  0  0
   -0.2049   -0.2213    1.2554 C   0  0  0  0  0  3  0  0  0  0  0  0
    0.5153    0.9098    1.9803 C   0  0  0  0  0  0  0  0  0  0  0  0
    2.0251    0.7191    2.0327 C   0  0  0  0  0  0  0  0  0  0  0  0
   -1.9745    0.8961    0.6858 H   0  0  0  0  0  0  0  0  0  0  0  0
   -2.1375    0.0235    2.2091 H   0  0  0  0  0  0  0  0  0  0  0  0
   -2.2043   -0.8533    0.6794 H   0  0  0  0  0  0  0  0  0  0  0  0
    0.0286   -1.1697    1.7499 H   0  0  0  0  0  0  0  0  0  0  0  0
    0.1199    0.9921    2.9980 H   0  0  0  0  0  0  0  0  0  0  0  0
    0.2817    1.8582    1.4859 H   0  0  0  0  0  0  0  0  0  0  0  0
    2.4478    0.6649    1.0266 H   0  0  0  0  0  0  0  0  0  0  0  0
    2.5146    1.5418    2.5563 H   0  0  0  0  0  0  0  0  0  0  0  0
    2.2848   -0.2076    2.5499 H   0  0  0  0  0  0  0  0  0  0  0  0
  1  2  1  0
  1  4  1  0
  1  5  1  0
  1  6  1  0
  2  3  2  3
  2  7  1  0
  3  8  1  0
  9 10  1  0
  9 13  1  0
  9 14  1  0
  9 15  1  0
 10 11  1  0
 10 16  1  0
 11 12  1  0
 11 17  1  0
 11 18  1  0
 12 19  1  0
 12 20  1  0
 12 21  1  0
M  RAD  1  10   2
M  END
>  <reaction>  (8) 
rmg_rxn_16460

>  <mol_properties>  (8) 
{"1": {"label": "*0", "atom_type": "Cd"}, "2": {"label": "*1", "atom_type": "N3d"}, "7": {"label": "*2", "atom_type": "H0"}, "9": {"label": "*3", "atom_type": "Cs"}, "10": {"label": "*4", "atom_type": "Cs"}}

>  <type>  (8) 
unop_4

>  <geom_source>  (8) 
Heuristics

$$$$

     RDKit          3D

 21 19  0  0  0  0  0  0  0  0999 V2000
    0.3650   -0.2575   -3.2869 C   0  0  0  0  0  0  0  0  0  0  0  0
    0.3650   -0.2575   -1.7946 C   0  0  0  0  0  0  0  0  0  0  0  0
    0.3650    0.8152   -1.1269 N   0  0  0  0  0  0  0  0  0  0  0  0
    1.2433   -0.7874   -3.6643 H   0  0  0  0  0  0  0  0  0  0  0  0
   -0.5133   -0.7874   -3.6643 H   0  0  0  0  0  0  0  0  0  0  0  0
    0.3650    0.7632   -3.6655 H   0  0  0  0  0  0  0  0  0  0  0  0
    0.3650   -1.2471   -1.3199 H   0  0  0  0  0  0  0  0  0  0  0  0
    0.3650    0.5850    0.0727 H   0  0  0  0  0  0  0  0  0  0  0  0
    1.5181    0.1049    2.3298 C   0  0  0  0  0  0  0  0  0  0  0  0
    0.3650    0.3374    1.3630 C   0  0  0  0  0  3  0  0  0  0  0  0
   -0.8824   -0.4638    1.7171 C   0  0  0  0  0  0  0  0  0  0  0  0
   -2.0355   -0.2313    0.7503 C   0  0  0  0  0  0  0  0  0  0  0  0
    1.8093   -0.9481    2.3456 H   0  0  0  0  0  0  0  0  0  0  0  0
    1.2377    0.3848    3.3480 H   0  0  0  0  0  0  0  0  0  0  0  0
    2.3968    0.6898    2.0531 H   0  0  0  0  0  0  0  0  0  0  0  0
    0.1126    1.4025    1.3417 H   0  0  0  0  0  0  0  0  0  0  0  0
   -1.1974   -0.2058    2.7334 H   0  0  0  0  0  0  0  0  0  0  0  0
   -0.6300   -1.5289    1.7384 H   0  0  0  0  0  0  0  0  0  0  0  0
   -1.7551   -0.5112   -0.2679 H   0  0  0  0  0  0  0  0  0  0  0  0
   -2.9142   -0.8162    1.0270 H   0  0  0  0  0  0  0  0  0  0  0  0
   -2.3267    0.8217    0.7345 H   0  0  0  0  0  0  0  0  0  0  0  0
  1  2  1  0
  1  4  1  0
  1  5  1  0
  1  6  1  0
  2  3  2  3
  2  7  1  0
  3  8  1  0
  9 10  1  0
  9 13  1  0
  9 14  1  0
  9 15  1  0
 10 11  1  0
 10 16  1  0
 11 12  1  0
 11 17  1  0
 11 18  1  0
 12 19  1  0
 12 20  1  0
 12 21  1  0
M  RAD  1  10   2
M  END
>  <reaction>  (9) 
rmg_rxn_16460

>  <mol_properties>  (9) 
{"1": {"label": "*0", "atom_type": "Cd"}, "2": {"label": "*1", "atom_type": "N3d"}, "7": {"label": "*2", "atom_type": "H0"}, "9": {"label": "*3", "atom_type": "Cs"}, "10": {"label": "*4", "atom_type": "Cs"}}

>  <type>  (9) 
unop_5

>  <geom_source>  (9) 
Heuristics

$$$$

     RDKit          3D

 21 19  0  0  0  0  0  0  0  0999 V2000
    0.0000   -0.8683   -3.4056 C   0  0  0  0  0  0  0  0  0  0  0  0
    0.0000   -0.8683   -1.9132 C   0  0  0  0  0  0  0  0  0  0  0  0
    0.0000    0.2044   -1.2456 N   0  0  0  0  0  0  0  0  0  0  0  0
    0.8783   -1.3983   -3.7830 H   0  0  0  0  0  0  0  0  0  0  0  0
   -0.8783   -1.3983   -3.7830 H   0  0  0  0  0  0  0  0  0  0  0  0
   -0.0000    0.1524   -3.7842 H   0  0  0  0  0  0  0  0  0  0  0  0
    0.0000   -1.8580   -1.4386 H   0  0  0  0  0  0  0  0  0  0  0  0
    0.0000   -0.0258   -0.0460 H   0  0  0  0  0  0  0  0  0  0  0  0
   -1.1849   -1.1636    1.5937 C   0  0  0  0  0  0  0  0  0  0  0  0
   -0.0000   -0.2734    1.2443 C   0  0  0  0  0  3  0  0  0  0  0  0
   -0.0000    1.0472    2.0056 C   0  0  0  0  0  0  0  0  0  0  0  0
    1.1849    1.9374    1.6562 C   0  0  0  0  0  0  0  0  0  0  0  0
   -2.1299   -0.6644    1.3663 H   0  0  0  0  0  0  0  0  0  0  0  0
   -1.1894   -1.4092    2.6583 H   0  0  0  0  0  0  0  0  0  0  0  0
   -1.1600   -2.1007    1.0352 H   0  0  0  0  0  0  0  0  0  0  0  0
    0.9336   -0.8064    1.4515 H   0  0  0  0  0  0  0  0  0  0  0  0
   -0.0000    0.8409    3.0808 H   0  0  0  0  0  0  0  0  0  0  0  0
   -0.9336    1.5802    1.7983 H   0  0  0  0  0  0  0  0  0  0  0  0
    1.1894    2.1831    0.5916 H   0  0  0  0  0  0  0  0  0  0  0  0
    1.1600    2.8746    2.2146 H   0  0  0  0  0  0  0  0  0  0  0  0
    2.1299    1.4383    1.8835 H   0  0  0  0  0  0  0  0  0  0  0  0
  1  2  1  0
  1  4  1  0
  1  5  1  0
  1  6  1  0
  2  3  2  3
  2  7  1  0
  3  8  1  0
  9 10  1  0
  9 13  1  0
  9 14  1  0
  9 15  1  0
 10 11  1  0
 10 16  1  0
 11 12  1  0
 11 17  1  0
 11 18  1  0
 12 19  1  0
 12 20  1  0
 12 21  1  0
M  RAD  1  10   2
M  END
>  <reaction>  (10) 
rmg_rxn_16460

>  <mol_properties>  (10) 
{"1": {"label": "*0", "atom_type": "Cd"}, "2": {"label": "*1", "atom_type": "N3d"}, "7": {"label": "*2", "atom_type": "H0"}, "9": {"label": "*3", "atom_type": "Cs"}, "10": {"label": "*4", "atom_type": "Cs"}}

>  <type>  (10) 
unop_6

>  <geom_source>  (10) 
Heuristics

$$$$

     RDKit          3D

 21 19  0  0  0  0  0  0  0  0999 V2000
    0.4186   -0.4648   -3.3259 C   0  0  0  0  0  0  0  0  0  0  0  0
    0.4186   -0.4648   -1.8336 C   0  0  0  0  0  0  0  0  0  0  0  0
    0.4186    0.6079   -1.1659 N   0  0  0  0  0  0  0  0  0  0  0  0
    1.2968   -0.9948   -3.7033 H   0  0  0  0  0  0  0  0  0  0  0  0
   -0.4597   -0.9948   -3.7033 H   0  0  0  0  0  0  0  0  0  0  0  0
    0.4186    0.5558   -3.7045 H   0  0  0  0  0  0  0  0  0  0  0  0
    0.4186   -1.4545   -1.3590 H   0  0  0  0  0  0  0  0  0  0  0  0
    0.4186    0.3777    0.0337 H   0  0  0  0  0  0  0  0  0  0  0  0
    1.4161   -0.5149    2.2765 C   0  0  0  0  0  0  0  0  0  0  0  0
    0.4186    0.1301    1.3239 C   0  0  0  0  0  3  0  0  0  0  0  0
   -1.0218    0.0361    1.8138 C   0  0  0  0  0  0  0  0  0  0  0  0
   -2.0194    0.6812    0.8612 C   0  0  0  0  0  0  0  0  0  0  0  0
    1.1950   -1.5759    2.4152 H   0  0  0  0  0  0  0  0  0  0  0  0
    1.3820   -0.0396    3.2597 H   0  0  0  0  0  0  0  0  0  0  0  0
    2.4378   -0.4333    1.9018 H   0  0  0  0  0  0  0  0  0  0  0  0
    0.6791    1.1833    1.1771 H   0  0  0  0  0  0  0  0  0  0  0  0
   -1.0967    0.5079    2.7989 H   0  0  0  0  0  0  0  0  0  0  0  0
   -1.2823   -1.0170    1.9606 H   0  0  0  0  0  0  0  0  0  0  0  0
   -1.9853    0.2059   -0.1220 H   0  0  0  0  0  0  0  0  0  0  0  0
   -3.0410    0.5996    1.2359 H   0  0  0  0  0  0  0  0  0  0  0  0
   -1.7983    1.7422    0.7225 H   0  0  0  0  0  0  0  0  0  0  0  0
  1  2  1  0
  1  4  1  0
  1  5  1  0
  1  6  1  0
  2  3  2  3
  2  7  1  0
  3  8  1  0
  9 10  1  0
  9 13  1  0
  9 14  1  0
  9 15  1  0
 10 11  1  0
 10 16  1  0
 11 12  1  0
 11 17  1  0
 11 18  1  0
 12 19  1  0
 12 20  1  0
 12 21  1  0
M  RAD  1  10   2
M  END
>  <reaction>  (11) 
rmg_rxn_16460

>  <mol_properties>  (11) 
{"1": {"label": "*0", "atom_type": "Cd"}, "2": {"label": "*1", "atom_type": "N3d"}, "7": {"label": "*2", "atom_type": "H0"}, "9": {"label": "*3", "atom_type": "Cs"}, "10": {"label": "*4", "atom_type": "Cs"}}

>  <type>  (11) 
unop_7

>  <geom_source>  (11) 
Heuristics

$$$$

     RDKit          3D

 21 19  0  0  0  0  0  0  0  0999 V2000
    0.3592   -0.6694   -3.3652 C   0  0  0  0  0  0  0  0  0  0  0  0
    0.3592   -0.6694   -1.8729 C   0  0  0  0  0  0  0  0  0  0  0  0
    0.3592    0.4032   -1.2052 N   0  0  0  0  0  0  0  0  0  0  0  0
    1.2375   -1.1994   -3.7426 H   0  0  0  0  0  0  0  0  0  0  0  0
   -0.5190   -1.1994   -3.7426 H   0  0  0  0  0  0  0  0  0  0  0  0
    0.3592    0.3512   -3.7438 H   0  0  0  0  0  0  0  0  0  0  0  0
    0.3592   -1.6591   -1.3982 H   0  0  0  0  0  0  0  0  0  0  0  0
    0.3592    0.1730   -0.0056 H   0  0  0  0  0  0  0  0  0  0  0  0
    0.9952   -1.1509    2.1539 C   0  0  0  0  0  0  0  0  0  0  0  0
    0.3592   -0.0745    1.2846 C   0  0  0  0  0  3  0  0  0  0  0  0
   -0.8882    0.5388    1.9102 C   0  0  0  0  0  0  0  0  0  0  0  0
   -1.5242    1.6151    1.0410 C   0  0  0  0  0  0  0  0  0  0  0  0
    0.2953   -1.9695    2.3379 H   0  0  0  0  0  0  0  0  0  0  0  0
    1.2914   -0.7457    3.1244 H   0  0  0  0  0  0  0  0  0  0  0  0
    1.8847   -1.5722    1.6828 H   0  0  0  0  0  0  0  0  0  0  0  0
    1.0886    0.7181    1.0890 H   0  0  0  0  0  0  0  0  0  0  0  0
   -0.6288    0.9608    2.8865 H   0  0  0  0  0  0  0  0  0  0  0  0
   -1.6176   -0.2539    2.1058 H   0  0  0  0  0  0  0  0  0  0  0  0
   -1.8204    1.2100    0.0704 H   0  0  0  0  0  0  0  0  0  0  0  0
   -2.4137    2.0364    1.5121 H   0  0  0  0  0  0  0  0  0  0  0  0
   -0.8243    2.4337    0.8570 H   0  0  0  0  0  0  0  0  0  0  0  0
  1  2  1  0
  1  4  1  0
  1  5  1  0
  1  6  1  0
  2  3  2  3
  2  7  1  0
  3  8  1  0
  9 10  1  0
  9 13  1  0
  9 14  1  0
  9 15  1  0
 10 11  1  0
 10 16  1  0
 11 12  1  0
 11 17  1  0
 11 18  1  0
 12 19  1  0
 12 20  1  0
 12 21  1  0
M  RAD  1  10   2
M  END
>  <reaction>  (12) 
rmg_rxn_16460

>  <mol_properties>  (12) 
{"1": {"label": "*0", "atom_type": "Cd"}, "2": {"label": "*1", "atom_type": "N3d"}, "7": {"label": "*2", "atom_type": "H0"}, "9": {"label": "*3", "atom_type": "Cs"}, "10": {"label": "*4", "atom_type": "Cs"}}

>  <type>  (12) 
unop_8

>  <geom_source>  (12) 
Heuristics

$$$$

     RDKit          3D

 21 19  0  0  0  0  0  0  0  0999 V2000
   -0.4186   -0.4648   -3.3259 C   0  0  0  0  0  0  0  0  0  0  0  0
   -0.4186   -0.4648   -1.8336 C   0  0  0  0  0  0  0  0  0  0  0  0
   -0.4186    0.6079   -1.1659 N   0  0  0  0  0  0  0  0  0  0  0  0
    0.4597   -0.9948   -3.7033 H   0  0  0  0  0  0  0  0  0  0  0  0
   -1.2968   -0.9948   -3.7033 H   0  0  0  0  0  0  0  0  0  0  0  0
   -0.4186    0.5558   -3.7045 H   0  0  0  0  0  0  0  0  0  0  0  0
   -0.4186   -1.4545   -1.3590 H   0  0  0  0  0  0  0  0  0  0  0  0
   -0.4186    0.3777    0.0337 H   0  0  0  0  0  0  0  0  0  0  0  0
   -0.9296    1.5623    1.2446 C   0  0  0  0  0  0  0  0  0  0  0  0
   -0.4186    0.1301    1.3239 C   0  0  0  0  0  3  0  0  0  0  0  0
    1.0218    0.0361    1.8138 C   0  0  0  0  0  0  0  0  0  0  0  0
    1.5329   -1.3960    1.8931 C   0  0  0  0  0  0  0  0  0  0  0  0
   -0.3206    2.1579    0.5604 H   0  0  0  0  0  0  0  0  0  0  0  0
   -0.8937    2.0455    2.2239 H   0  0  0  0  0  0  0  0  0  0  0  0
   -1.9615    1.6002    0.8917 H   0  0  0  0  0  0  0  0  0  0  0  0
   -1.0623   -0.4533    1.9901 H   0  0  0  0  0  0  0  0  0  0  0  0
    1.0967    0.5079    2.7989 H   0  0  0  0  0  0  0  0  0  0  0  0
    1.6656    0.6195    1.1476 H   0  0  0  0  0  0  0  0  0  0  0  0
    1.4969   -1.8792    0.9138 H   0  0  0  0  0  0  0  0  0  0  0  0
    2.5648   -1.4339    2.2460 H   0  0  0  0  0  0  0  0  0  0  0  0
    0.9238   -1.9916    2.5773 H   0  0  0  0  0  0  0  0  0  0  0  0
  1  2  1  0
  1  4  1  0
  1  5  1  0
  1  6  1  0
  2  3  2  3
  2  7  1  0
  3  8  1  0
  9 10  1  0
  9 13  1  0
  9 14  1  0
  9 15  1  0
 10 11  1  0
 10 16  1  0
 11 12  1  0
 11 17  1  0
 11 18  1  0
 12 19  1  0
 12 20  1  0
 12 21  1  0
M  RAD  1  10   2
M  END
>  <reaction>  (13) 
rmg_rxn_16460

>  <mol_properties>  (13) 
{"1": {"label": "*0", "atom_type": "Cd"}, "2": {"label": "*1", "atom_type": "N3d"}, "7": {"label": "*2", "atom_type": "H0"}, "9": {"label": "*3", "atom_type": "Cs"}, "10": {"label": "*4", "atom_type": "Cs"}}

>  <type>  (13) 
unop_9

>  <geom_source>  (13) 
Heuristics

$$$$

     RDKit          3D

 21 19  0  0  0  0  0  0  0  0999 V2000
   -3.4023   -0.3676   -0.1945 C   0  0  0  0  0  0  0  0  0  0  0  0
   -1.9942    0.1347   -0.0730 C   0  0  0  0  0  0  0  0  0  0  0  0
   -1.0753   -0.5593    0.3851 N   0  0  0  0  0  0  0  0  0  0  0  0
   -3.4714   -1.3884    0.1706 H   0  0  0  0  0  0  0  0  0  0  0  0
   -4.0661    0.2749    0.3821 H   0  0  0  0  0  0  0  0  0  0  0  0
   -3.7111   -0.3285   -1.2381 H   0  0  0  0  0  0  0  0  0  0  0  0
   -1.8661    1.1693   -0.4284 H   0  0  0  0  0  0  0  0  0  0  0  0
    0.0425   -0.0046    0.4203 H   0  0  0  0  0  0  0  0  0  0  0  0
    0.9483    2.0215   -0.0504 C   0  0  0  0  0  0  0  0  0  0  0  0
    1.1900    0.6109    0.4218 C   0  0  0  0  0  3  0  0  0  0  0  0
    2.0910   -0.2145   -0.4655 C   0  0  0  0  0  0  0  0  0  0  0  0
    2.2043   -1.6546    0.0209 C   0  0  0  0  0  0  0  0  0  0  0  0
    0.5694    2.0292   -1.0717 H   0  0  0  0  0  0  0  0  0  0  0  0
    1.8768    2.5983   -0.0390 H   0  0  0  0  0  0  0  0  0  0  0  0
    0.2338    2.5312    0.5938 H   0  0  0  0  0  0  0  0  0  0  0  0
    1.4911    0.5698    1.4674 H   0  0  0  0  0  0  0  0  0  0  0  0
    3.0906    0.2386   -0.4929 H   0  0  0  0  0  0  0  0  0  0  0  0
    1.7045   -0.2035   -1.4882 H   0  0  0  0  0  0  0  0  0  0  0  0
    2.6271   -1.6858    1.0226 H   0  0  0  0  0  0  0  0  0  0  0  0
    1.2203   -2.1151    0.0501 H   0  0  0  0  0  0  0  0  0  0  0  0
    2.8438   -2.2343   -0.6409 H   0  0  0  0  0  0  0  0  0  0  0  0
  1  2  1  0
  1  4  1  0
  1  5  1  0
  1  6  1  0
  2  3  2  3
  2  7  1  0
  3  8  1  0
  9 10  1  0
  9 13  1  0
  9 14  1  0
  9 15  1  0
 10 11  1  0
 10 16  1  0
 11 12  1  0
 11 17  1  0
 11 18  1  0
 12 19  1  0
 12 20  1  0
 12 21  1  0
M  RAD  1  10   2
M  END
>  <reaction>  (14) 
rmg_rxn_16460

>  <mol_properties>  (14) 
{"1": {"label": "*0", "atom_type": "Cd"}, "2": {"label": "*1", "atom_type": "N3d"}, "7": {"label": "*2", "atom_type": "H0"}, "9": {"label": "*3", "atom_type": "Cs"}, "10": {"label": "*4", "atom_type": "Cs"}}

>  <type>  (14) 
unop_10

>  <geom_source>  (14) 
Heuristics

$$$$

     RDKit          3D

 21 19  0  0  0  0  0  0  0  0999 V2000
    0.2118   -0.1041   -3.2585 C   0  0  0  0  0  0  0  0  0  0  0  0
    0.2118   -0.1041   -1.7661 C   0  0  0  0  0  0  0  0  0  0  0  0
    0.2118    0.9685   -1.0984 N   0  0  0  0  0  0  0  0  0  0  0  0
    1.0901   -0.6341   -3.6359 H   0  0  0  0  0  0  0  0  0  0  0  0
   -0.6665   -0.6341   -3.6359 H   0  0  0  0  0  0  0  0  0  0  0  0
    0.2118    0.9165   -3.6370 H   0  0  0  0  0  0  0  0  0  0  0  0
    0.2118   -1.0938   -1.2915 H   0  0  0  0  0  0  0  0  0  0  0  0
    0.2118    0.7383    0.1012 H   0  0  0  0  0  0  0  0  0  0  0  0
    1.4438    0.6768    2.2667 C   0  0  0  0  0  0  0  0  0  0  0  0
    0.2118    0.4908    1.3914 C   0  0  0  0  0  3  0  0  0  0  0  0
   -0.5084   -0.8283    1.6462 C   0  0  0  0  0  0  0  0  0  0  0  0
   -1.7404   -1.0143    0.7709 C   0  0  0  0  0  0  0  0  0  0  0  0
    2.1699   -0.1213    2.0952 H   0  0  0  0  0  0  0  0  0  0  0  0
    1.1775    0.6583    3.3262 H   0  0  0  0  0  0  0  0  0  0  0  0
    1.9392    1.6277    2.0638 H   0  0  0  0  0  0  0  0  0  0  0  0
   -0.4857    1.3179    1.5584 H   0  0  0  0  0  0  0  0  0  0  0  0
   -0.7960   -0.8815    2.7012 H   0  0  0  0  0  0  0  0  0  0  0  0
    0.1892   -1.6554    1.4792 H   0  0  0  0  0  0  0  0  0  0  0  0
   -1.4741   -0.9959   -0.2886 H   0  0  0  0  0  0  0  0  0  0  0  0
   -2.2358   -1.9652    0.9738 H   0  0  0  0  0  0  0  0  0  0  0  0
   -2.4665   -0.2162    0.9424 H   0  0  0  0  0  0  0  0  0  0  0  0
  1  2  1  0
  1  4  1  0
  1  5  1  0
  1  6  1  0
  2  3  2  3
  2  7  1  0
  3  8  1  0
  9 10  1  0
  9 13  1  0
  9 14  1  0
  9 15  1  0
 10 11  1  0
 10 16  1  0
 11 12  1  0
 11 17  1  0
 11 18  1  0
 12 19  1  0
 12 20  1  0
 12 21  1  0
M  RAD  1  10   2
M  END
>  <reaction>  (15) 
rmg_rxn_16460

>  <mol_properties>  (15) 
{"1": {"label": "*0", "atom_type": "Cd"}, "2": {"label": "*1", "atom_type": "N3d"}, "7": {"label": "*2", "atom_type": "H0"}, "9": {"label": "*3", "atom_type": "Cs"}, "10": {"label": "*4", "atom_type": "Cs"}}

>  <type>  (15) 
unop_11

>  <geom_source>  (15) 
Heuristics

$$$$

     RDKit          3D

 21 19  0  0  0  0  0  0  0  0999 V2000
   -0.3650   -0.2575   -3.2869 C   0  0  0  0  0  0  0  0  0  0  0  0
   -0.3650   -0.2575   -1.7946 C   0  0  0  0  0  0  0  0  0  0  0  0
   -0.3650    0.8152   -1.1269 N   0  0  0  0  0  0  0  0  0  0  0  0
    0.5133   -0.7874   -3.6643 H   0  0  0  0  0  0  0  0  0  0  0  0
   -1.2433   -0.7874   -3.6643 H   0  0  0  0  0  0  0  0  0  0  0  0
   -0.3650    0.7632   -3.6655 H   0  0  0  0  0  0  0  0  0  0  0  0
   -0.3650   -1.2471   -1.3199 H   0  0  0  0  0  0  0  0  0  0  0  0
   -0.3650    0.5850    0.0727 H   0  0  0  0  0  0  0  0  0  0  0  0
   -0.1570    1.8423    1.4667 C   0  0  0  0  0  0  0  0  0  0  0  0
   -0.3650    0.3374    1.3630 C   0  0  0  0  0  3  0  0  0  0  0  0
    0.8824   -0.4638    1.7171 C   0  0  0  0  0  0  0  0  0  0  0  0
    0.6744   -1.9687    1.6134 C   0  0  0  0  0  0  0  0  0  0  0  0
    0.6373    2.1749    0.7942 H   0  0  0  0  0  0  0  0  0  0  0  0
    0.1286    2.1288    2.4817 H   0  0  0  0  0  0  0  0  0  0  0  0
   -1.0643    2.3906    1.2082 H   0  0  0  0  0  0  0  0  0  0  0  0
   -1.1850    0.0337    2.0217 H   0  0  0  0  0  0  0  0  0  0  0  0
    1.1974   -0.2058    2.7334 H   0  0  0  0  0  0  0  0  0  0  0  0
    1.7024   -0.1601    1.0584 H   0  0  0  0  0  0  0  0  0  0  0  0
    0.3888   -2.2552    0.5984 H   0  0  0  0  0  0  0  0  0  0  0  0
    1.5817   -2.5170    1.8719 H   0  0  0  0  0  0  0  0  0  0  0  0
   -0.1199   -2.3013    2.2858 H   0  0  0  0  0  0  0  0  0  0  0  0
  1  2  1  0
  1  4  1  0
  1  5  1  0
  1  6  1  0
  2  3  2  3
  2  7  1  0
  3  8  1  0
  9 10  1  0
  9 13  1  0
  9 14  1  0
  9 15  1  0
 10 11  1  0
 10 16  1  0
 11 12  1  0
 11 17  1  0
 11 18  1  0
 12 19  1  0
 12 20  1  0
 12 21  1  0
M  RAD  1  10   2
M  END
>  <reaction>  (16) 
rmg_rxn_16460

>  <mol_properties>  (16) 
{"1": {"label": "*0", "atom_type": "Cd"}, "2": {"label": "*1", "atom_type": "N3d"}, "7": {"label": "*2", "atom_type": "H0"}, "9": {"label": "*3", "atom_type": "Cs"}, "10": {"label": "*4", "atom_type": "Cs"}}

>  <type>  (16) 
unop_12

>  <geom_source>  (16) 
Heuristics

$$$$

     RDKit          3D

 21 19  0  0  0  0  0  0  0  0999 V2000
    0.2049   -0.8162   -3.3944 C   0  0  0  0  0  0  0  0  0  0  0  0
    0.2049   -0.8162   -1.9021 C   0  0  0  0  0  0  0  0  0  0  0  0
    0.2049    0.2564   -1.2344 N   0  0  0  0  0  0  0  0  0  0  0  0
    1.0832   -1.3462   -3.7719 H   0  0  0  0  0  0  0  0  0  0  0  0
   -0.6733   -1.3462   -3.7719 H   0  0  0  0  0  0  0  0  0  0  0  0
    0.2049    0.2044   -3.7730 H   0  0  0  0  0  0  0  0  0  0  0  0
    0.2049   -1.8059   -1.4275 H   0  0  0  0  0  0  0  0  0  0  0  0
    0.2049    0.0263   -0.0348 H   0  0  0  0  0  0  0  0  0  0  0  0
    0.0747   -1.5627    1.9641 C   0  0  0  0  0  0  0  0  0  0  0  0
    0.2049   -0.2213    1.2554 C   0  0  0  0  0  3  0  0  0  0  0  0
   -0.5153    0.9098    1.9803 C   0  0  0  0  0  0  0  0  0  0  0  0
   -0.3850    2.2512    1.2716 C   0  0  0  0  0  0  0  0  0  0  0  0
   -0.9735   -1.8578    2.0538 H   0  0  0  0  0  0  0  0  0  0  0  0
    0.4912   -1.5143    2.9731 H   0  0  0  0  0  0  0  0  0  0  0  0
    0.5987   -2.3532    1.4245 H   0  0  0  0  0  0  0  0  0  0  0  0
    1.2635    0.0373    1.1503 H   0  0  0  0  0  0  0  0  0  0  0  0
   -0.1199    0.9921    2.9980 H   0  0  0  0  0  0  0  0  0  0  0  0
   -1.5739    0.6512    2.0855 H   0  0  0  0  0  0  0  0  0  0  0  0
   -0.8016    2.2028    0.2627 H   0  0  0  0  0  0  0  0  0  0  0  0
   -0.9091    3.0417    1.8113 H   0  0  0  0  0  0  0  0  0  0  0  0
    0.6631    2.5463    1.1819 H   0  0  0  0  0  0  0  0  0  0  0  0
  1  2  1  0
  1  4  1  0
  1  5  1  0
  1  6  1  0
  2  3  2  3
  2  7  1  0
  3  8  1  0
  9 10  1  0
  9 13  1  0
  9 14  1  0
  9 15  1  0
 10 11  1  0
 10 16  1  0
 11 12  1  0
 11 17  1  0
 11 18  1  0
 12 19  1  0
 12 20  1  0
 12 21  1  0
M  RAD  1  10   2
M  END
>  <reaction>  (17) 
rmg_rxn_16460

>  <mol_properties>  (17) 
{"1": {"label": "*0", "atom_type": "Cd"}, "2": {"label": "*1", "atom_type": "N3d"}, "7": {"label": "*2", "atom_type": "H0"}, "9": {"label": "*3", "atom_type": "Cs"}, "10": {"label": "*4", "atom_type": "Cs"}}

>  <type>  (17) 
unop_13

>  <geom_source>  (17) 
Heuristics

$$$$

     RDKit          3D

 21 19  0  0  0  0  0  0  0  0999 V2000
    0.0000   -0.0476   -3.2481 C   0  0  0  0  0  0  0  0  0  0  0  0
    0.0000   -0.0476   -1.7558 C   0  0  0  0  0  0  0  0  0  0  0  0
    0.0000    1.0250   -1.0881 N   0  0  0  0  0  0  0  0  0  0  0  0
    0.8783   -0.5776   -3.6255 H   0  0  0  0  0  0  0  0  0  0  0  0
   -0.8783   -0.5776   -3.6255 H   0  0  0  0  0  0  0  0  0  0  0  0
   -0.0000    0.9730   -3.6267 H   0  0  0  0  0  0  0  0  0  0  0  0
    0.0000   -1.0373   -1.2811 H   0  0  0  0  0  0  0  0  0  0  0  0
    0.0000    0.7948    0.1115 H   0  0  0  0  0  0  0  0  0  0  0  0
    1.1849    1.2450    2.0558 C   0  0  0  0  0  0  0  0  0  0  0  0
   -0.0000    0.5473    1.4017 C   0  0  0  0  0  3  0  0  0  0  0  0
   -0.0000   -0.9613    1.6202 C   0  0  0  0  0  0  0  0  0  0  0  0
   -1.1849   -1.6590    0.9661 C   0  0  0  0  0  0  0  0  0  0  0  0
    2.1299    0.8654    1.6599 H   0  0  0  0  0  0  0  0  0  0  0  0
    1.1894    1.0791    3.1357 H   0  0  0  0  0  0  0  0  0  0  0  0
    1.1600    2.3223    1.8839 H   0  0  0  0  0  0  0  0  0  0  0  0
   -0.9336    0.9657    1.7915 H   0  0  0  0  0  0  0  0  0  0  0  0
    0.0000   -1.1676    2.6954 H   0  0  0  0  0  0  0  0  0  0  0  0
    0.9336   -1.3798    1.2304 H   0  0  0  0  0  0  0  0  0  0  0  0
   -1.1894   -1.4931   -0.1138 H   0  0  0  0  0  0  0  0  0  0  0  0
   -1.1600   -2.7363    1.1380 H   0  0  0  0  0  0  0  0  0  0  0  0
   -2.1299   -1.2794    1.3621 H   0  0  0  0  0  0  0  0  0  0  0  0
  1  2  1  0
  1  4  1  0
  1  5  1  0
  1  6  1  0
  2  3  2  3
  2  7  1  0
  3  8  1  0
  9 10  1  0
  9 13  1  0
  9 14  1  0
  9 15  1  0
 10 11  1  0
 10 16  1  0
 11 12  1  0
 11 17  1  0
 11 18  1  0
 12 19  1  0
 12 20  1  0
 12 21  1  0
M  RAD  1  10   2
M  END
>  <reaction>  (18) 
rmg_rxn_16460

>  <mol_properties>  (18) 
{"1": {"label": "*0", "atom_type": "Cd"}, "2": {"label": "*1", "atom_type": "N3d"}, "7": {"label": "*2", "atom_type": "H0"}, "9": {"label": "*3", "atom_type": "Cs"}, "10": {"label": "*4", "atom_type": "Cs"}}

>  <type>  (18) 
unop_14

>  <geom_source>  (18) 
Heuristics

$$$$

     RDKit          3D

 21 19  0  0  0  0  0  0  0  0999 V2000
   -0.2118   -0.1041   -3.2585 C   0  0  0  0  0  0  0  0  0  0  0  0
   -0.2118   -0.1041   -1.7661 C   0  0  0  0  0  0  0  0  0  0  0  0
   -0.2118    0.9685   -1.0984 N   0  0  0  0  0  0  0  0  0  0  0  0
    0.6665   -0.6341   -3.6359 H   0  0  0  0  0  0  0  0  0  0  0  0
   -1.0901   -0.6341   -3.6359 H   0  0  0  0  0  0  0  0  0  0  0  0
   -0.2118    0.9165   -3.6370 H   0  0  0  0  0  0  0  0  0  0  0  0
   -0.2118   -1.0938   -1.2915 H   0  0  0  0  0  0  0  0  0  0  0  0
   -0.2118    0.7383    0.1012 H   0  0  0  0  0  0  0  0  0  0  0  0
    0.6272    1.7086    1.7542 C   0  0  0  0  0  0  0  0  0  0  0  0
   -0.2118    0.4908    1.3914 C   0  0  0  0  0  3  0  0  0  0  0  0
    0.5084   -0.8283    1.6462 C   0  0  0  0  0  0  0  0  0  0  0  0
   -0.3306   -2.0461    1.2834 C   0  0  0  0  0  0  0  0  0  0  0  0
    1.5527    1.7332    1.1739 H   0  0  0  0  0  0  0  0  0  0  0  0
    0.9013    1.6940    2.8118 H   0  0  0  0  0  0  0  0  0  0  0  0
    0.0883    2.6377    1.5621 H   0  0  0  0  0  0  0  0  0  0  0  0
   -1.1459    0.5050    1.9622 H   0  0  0  0  0  0  0  0  0  0  0  0
    0.7960   -0.8815    2.7012 H   0  0  0  0  0  0  0  0  0  0  0  0
    1.4425   -0.8426    1.0754 H   0  0  0  0  0  0  0  0  0  0  0  0
   -0.6047   -2.0315    0.2258 H   0  0  0  0  0  0  0  0  0  0  0  0
    0.2083   -2.9752    1.4755 H   0  0  0  0  0  0  0  0  0  0  0  0
   -1.2561   -2.0707    1.8637 H   0  0  0  0  0  0  0  0  0  0  0  0
  1  2  1  0
  1  4  1  0
  1  5  1  0
  1  6  1  0
  2  3  2  3
  2  7  1  0
  3  8  1  0
  9 10  1  0
  9 13  1  0
  9 14  1  0
  9 15  1  0
 10 11  1  0
 10 16  1  0
 11 12  1  0
 11 17  1  0
 11 18  1  0
 12 19  1  0
 12 20  1  0
 12 21  1  0
M  RAD  1  10   2
M  END
>  <reaction>  (19) 
rmg_rxn_16460

>  <mol_properties>  (19) 
{"1": {"label": "*0", "atom_type": "Cd"}, "2": {"label": "*1", "atom_type": "N3d"}, "7": {"label": "*2", "atom_type": "H0"}, "9": {"label": "*3", "atom_type": "Cs"}, "10": {"label": "*4", "atom_type": "Cs"}}

>  <type>  (19) 
unop_15

>  <geom_source>  (19) 
gaussian_log

$$$$
