
     RDKit          3D

  9  8  0  0  0  0  0  0  0  0999 V2000
   -1.2461    0.5037    0.0950 C   0  0  0  0  0  0  0  0  0  0  0  0
   -0.0155   -0.3334    0.0640 C   0  0  0  0  0  0  0  0  0  0  0  0
    1.0697    0.1457   -0.3733 N   0  0  0  0  0  0  0  0  0  0  0  0
    2.1001   -0.7834   -0.3224 O   0  0  0  0  0  0  0  0  0  0  0  0
   -2.0357    0.0440   -0.5039 H   0  0  0  0  0  0  0  0  0  0  0  0
   -1.6237    0.5897    1.1166 H   0  0  0  0  0  0  0  0  0  0  0  0
   -1.0397    1.4998   -0.2929 H   0  0  0  0  0  0  0  0  0  0  0  0
   -0.0537   -1.3634    0.4205 H   0  0  0  0  0  0  0  0  0  0  0  0
    2.8478   -0.2985   -0.6758 H   0  0  0  0  0  0  0  0  0  0  0  0
  1  2  1  0
  1  5  1  0
  1  6  1  0
  1  7  1  0
  2  3  2  3
  2  8  1  0
  3  4  1  0
  4  9  1  0
M  END
>  <reaction>  (1) 
rmg_rxn_212

>  <mol_properties>  (1) 
{"3": {"label": "donator", "atom_type": "O2s"}, "8": {"label": "d_hydrogen", "atom_type": "H0"}}

>  <type>  (1) 
r1h

$$$$

     RDKit          3D

 17 16  0  0  0  0  0  0  0  0999 V2000
    2.3993   -0.7259   -0.8796 C   0  0  0  0  0  0  0  0  0  0  0  0
    1.8173   -0.7170    0.4851 C   0  0  0  0  0  3  0  0  0  0  0  0
    2.6779   -0.5182    1.6852 C   0  0  0  0  0  0  0  0  0  0  0  0
    3.8710   -1.2723    1.6674 O   0  0  0  0  0  0  0  0  0  0  0  0
    3.6589   -2.6587    1.8015 C   0  0  0  0  0  0  0  0  0  0  0  0
    4.9969   -3.3586    1.7556 C   0  0  0  0  0  0  0  0  0  0  0  0
    3.3755   -1.2152   -0.8894 H   0  0  0  0  0  0  0  0  0  0  0  0
    1.7457   -1.2284   -1.5943 H   0  0  0  0  0  0  0  0  0  0  0  0
    2.5578    0.2962   -1.2545 H   0  0  0  0  0  0  0  0  0  0  0  0
    0.7445   -0.6275    0.6059 H   0  0  0  0  0  0  0  0  0  0  0  0
    2.1057   -0.7316    2.5992 H   0  0  0  0  0  0  0  0  0  0  0  0
    3.0103    0.5272    1.7516 H   0  0  0  0  0  0  0  0  0  0  0  0
    3.0050   -3.0235    0.9977 H   0  0  0  0  0  0  0  0  0  0  0  0
    3.1469   -2.8645    2.7531 H   0  0  0  0  0  0  0  0  0  0  0  0
    5.6430   -3.0039    2.5594 H   0  0  0  0  0  0  0  0  0  0  0  0
    4.8641   -4.4360    1.8660 H   0  0  0  0  0  0  0  0  0  0  0  0
    5.4957   -3.1672    0.8046 H   0  0  0  0  0  0  0  0  0  0  0  0
  1  2  1  0
  1  7  1  0
  1  8  1  0
  1  9  1  0
  2  3  1  0
  2 10  1  0
  3  4  1  0
  3 11  1  0
  3 12  1  0
  4  5  1  0
  5  6  1  0
  5 13  1  0
  5 14  1  0
  6 15  1  0
  6 16  1  0
  6 17  1  0
M  RAD  1   2   2
M  END
>  <reaction>  (2) 
rmg_rxn_212

>  <mol_properties>  (2) 
{"1": {"label": "acceptor", "atom_type": "Cs"}}

>  <type>  (2) 
r2

$$$$

     RDKit          3D

 18 17  0  0  0  0  0  0  0  0999 V2000
    2.2026   -0.7213   -0.2612 C   0  0  0  0  0  0  0  0  0  0  0  0
    1.5384    0.2638    0.6915 C   0  0  0  0  0  0  0  0  0  0  0  0
    2.2584    1.5946    0.7694 C   0  0  0  0  0  0  0  0  0  0  0  0
    2.2212    2.2185   -0.4893 O   0  0  0  0  0  0  0  0  0  0  0  0
    2.8988    3.4488   -0.5204 C   0  0  0  0  0  0  0  0  0  0  0  0
    2.7981    4.0296   -1.9118 C   0  0  0  0  0  0  0  0  0  0  0  0
    3.2294   -0.9309    0.0486 H   0  0  0  0  0  0  0  0  0  0  0  0
    2.2338   -0.3181   -1.2734 H   0  0  0  0  0  0  0  0  0  0  0  0
    1.6610   -1.6680   -0.2875 H   0  0  0  0  0  0  0  0  0  0  0  0
    1.4990   -0.1566    1.7002 H   0  0  0  0  0  0  0  0  0  0  0  0
    0.5055    0.4455    0.3835 H   0  0  0  0  0  0  0  0  0  0  0  0
    3.3038    1.4410    1.0808 H   0  0  0  0  0  0  0  0  0  0  0  0
    1.7844    2.2410    1.5226 H   0  0  0  0  0  0  0  0  0  0  0  0
    2.4596    4.1376    0.2164 H   0  0  0  0  0  0  0  0  0  0  0  0
    3.9524    3.3035   -0.2397 H   0  0  0  0  0  0  0  0  0  0  0  0
    1.7543    4.1869   -2.1856 H   0  0  0  0  0  0  0  0  0  0  0  0
    3.2472    3.3545   -2.6411 H   0  0  0  0  0  0  0  0  0  0  0  0
    3.3178    4.9878   -1.9600 H   0  0  0  0  0  0  0  0  0  0  0  0
  1  2  1  0
  1  7  1  0
  1  8  1  0
  1  9  1  0
  2  3  1  0
  2 10  1  0
  2 11  1  0
  3  4  1  0
  3 12  1  0
  3 13  1  0
  4  5  1  0
  5  6  1  0
  5 14  1  0
  5 15  1  0
  6 16  1  0
  6 17  1  0
  6 18  1  0
M  END
>  <reaction>  (3) 
rmg_rxn_212

>  <mol_properties>  (3) 
{"0": {"label": "a_hydrogen", "atom_type": "H0"}, "2": {"label": "acceptor", "atom_type": "Cs"}}

>  <type>  (3) 
r2h

$$$$

     RDKit          3D

 26 24  0  0  0  0  0  0  0  0999 V2000
    0.9378   -3.2001   -1.2570 C   0  0  0  0  0  0  0  0  0  0  0  0
    0.7727   -1.9051   -1.9751 C   0  0  0  0  0  0  0  0  0  0  0  0
    0.8603   -0.8082   -1.3440 N   0  0  0  0  0  0  0  0  0  0  0  0
    0.6978    0.2949   -2.0710 O   0  0  0  0  0  0  0  0  0  0  0  0
    0.0394   -3.8143   -1.3571 H   0  0  0  0  0  0  0  0  0  0  0  0
    1.7685   -3.7729   -1.6765 H   0  0  0  0  0  0  0  0  0  0  0  0
    1.1294   -3.0249   -0.1992 H   0  0  0  0  0  0  0  0  0  0  0  0
    0.5743   -1.9075   -3.0472 H   0  0  0  0  0  0  0  0  0  0  0  0
    0.7726    1.2138   -1.2673 H   0  0  0  0  0  0  0  0  0  0  0  0
   -0.0653    3.2224   -0.7441 C   0  0  0  0  0  0  0  0  0  0  0  0
    0.8448    2.1033   -0.3205 C   0  0  0  0  0  3  0  0  0  0  0  0
    0.4785    1.3318    0.9102 C   0  0  0  0  0  0  0  0  0  0  0  0
   -0.8879    1.0253    0.8959 O   0  0  0  0  0  0  0  0  0  0  0  0
   -1.2550    0.0807    1.8707 C   0  0  0  0  0  0  0  0  0  0  0  0
   -2.7358   -0.1921    1.7500 C   0  0  0  0  0  0  0  0  0  0  0  0
   -0.0611    4.0196    0.0082 H   0  0  0  0  0  0  0  0  0  0  0  0
    0.2587    3.6555   -1.6906 H   0  0  0  0  0  0  0  0  0  0  0  0
   -1.0908    2.8710   -0.8477 H   0  0  0  0  0  0  0  0  0  0  0  0
    1.9059    2.3553   -0.3336 H   0  0  0  0  0  0  0  0  0  0  0  0
    0.7282    1.9269    1.8078 H   0  0  0  0  0  0  0  0  0  0  0  0
    1.0769    0.4108    0.9519 H   0  0  0  0  0  0  0  0  0  0  0  0
   -1.0134    0.4616    2.8740 H   0  0  0  0  0  0  0  0  0  0  0  0
   -0.6792   -0.8435    1.7219 H   0  0  0  0  0  0  0  0  0  0  0  0
   -2.9700   -0.5793    0.7578 H   0  0  0  0  0  0  0  0  0  0  0  0
   -3.0460   -0.9283    2.4932 H   0  0  0  0  0  0  0  0  0  0  0  0
   -3.3091    0.7221    1.9078 H   0  0  0  0  0  0  0  0  0  0  0  0
  1  2  1  0
  1  5  1  0
  1  6  1  0
  1  7  1  0
  2  3  2  3
  2  8  1  0
  3  4  1  0
  4  9  1  0
 10 11  1  0
 10 16  1  0
 10 17  1  0
 10 18  1  0
 11 12  1  0
 11 19  1  0
 12 13  1  0
 12 20  1  0
 12 21  1  0
 13 14  1  0
 14 15  1  0
 14 22  1  0
 14 23  1  0
 15 24  1  0
 15 25  1  0
 15 26  1  0
M  RAD  1  11   2
M  END
>  <reaction>  (4) 
rmg_rxn_212

>  <mol_properties>  (4) 
{"2": {"label": "*0", "atom_type": "N3d"}, "3": {"label": "*1", "atom_type": "O2s"}, "8": {"label": "*2", "atom_type": "H0"}, "10": {"label": "*3", "atom_type": "Cs"}, "11": {"label": "*4", "atom_type": "Cs"}}

>  <type>  (4) 
ts

$$$$

     RDKit          3D

 26 24  0  0  0  0  0  0  0  0999 V2000
   -0.3391   -1.1707   -4.0596 C   0  0  0  0  0  0  0  0  0  0  0  0
   -0.3391   -1.1707   -2.5709 C   0  0  0  0  0  0  0  0  0  0  0  0
   -0.3391   -0.0786   -1.9341 N   0  0  0  0  0  0  0  0  0  0  0  0
   -0.3391   -0.2833   -0.5610 O   0  0  0  0  0  0  0  0  0  0  0  0
    0.5404   -1.6946   -4.4414 H   0  0  0  0  0  0  0  0  0  0  0  0
   -1.2185   -1.6945   -4.4414 H   0  0  0  0  0  0  0  0  0  0  0  0
   -0.3391   -0.1510   -4.4410 H   0  0  0  0  0  0  0  0  0  0  0  0
   -0.3391   -2.1182   -2.0308 H   0  0  0  0  0  0  0  0  0  0  0  0
   -0.3391    0.7863   -0.1376 H   0  0  0  0  0  0  0  0  0  0  0  0
   -1.5778    2.2289    1.2025 C   0  0  0  0  0  0  0  0  0  0  0  0
   -0.3391    2.0060    0.3451 C   0  0  0  0  0  3  0  0  0  0  0  0
    0.7806    1.3053    1.0872 C   0  0  0  0  0  0  0  0  0  0  0  0
    0.3570    0.0190    1.4626 O   0  0  0  0  0  0  0  0  0  0  0  0
    1.3237   -0.6945    2.1906 C   0  0  0  0  0  0  0  0  0  0  0  0
    0.7680   -2.0550    2.5424 C   0  0  0  0  0  0  0  0  0  0  0  0
   -1.3416    2.8408    2.0767 H   0  0  0  0  0  0  0  0  0  0  0  0
   -2.3594    2.7395    0.6380 H   0  0  0  0  0  0  0  0  0  0  0  0
   -1.9782    1.2791    1.5568 H   0  0  0  0  0  0  0  0  0  0  0  0
    0.0453    2.9636   -0.0170 H   0  0  0  0  0  0  0  0  0  0  0  0
    1.0609    1.8836    1.9819 H   0  0  0  0  0  0  0  0  0  0  0  0
    1.6745    1.2348    0.4502 H   0  0  0  0  0  0  0  0  0  0  0  0
    1.5902   -0.1404    3.1028 H   0  0  0  0  0  0  0  0  0  0  0  0
    2.2424   -0.7969    1.5942 H   0  0  0  0  0  0  0  0  0  0  0  0
    0.5164   -2.6104    1.6382 H   0  0  0  0  0  0  0  0  0  0  0  0
    1.5032   -2.6287    3.1089 H   0  0  0  0  0  0  0  0  0  0  0  0
   -0.1342   -1.9547    3.1468 H   0  0  0  0  0  0  0  0  0  0  0  0
  1  2  1  0
  1  5  1  0
  1  6  1  0
  1  7  1  0
  2  3  2  3
  2  8  1  0
  3  4  1  0
  4  9  1  0
 10 11  1  0
 10 16  1  0
 10 17  1  0
 10 18  1  0
 11 12  1  0
 11 19  1  0
 12 13  1  0
 12 20  1  0
 12 21  1  0
 13 14  1  0
 14 15  1  0
 14 22  1  0
 14 23  1  0
 15 24  1  0
 15 25  1  0
 15 26  1  0
M  RAD  1  11   2
M  END
>  <reaction>  (5) 
rmg_rxn_212

>  <mol_properties>  (5) 
{"2": {"label": "*0", "atom_type": "N3d"}, "3": {"label": "*1", "atom_type": "O2s"}, "8": {"label": "*2", "atom_type": "H0"}, "10": {"label": "*3", "atom_type": "Cs"}, "11": {"label": "*4", "atom_type": "Cs"}}

>  <type>  (5) 
unop_1

>  <geom_source>  (5) 
Heuristics

$$$$

     RDKit          3D

 26 24  0  0  0  0  0  0  0  0999 V2000
    1.0566   -1.6941   -3.7898 C   0  0  0  0  0  0  0  0  0  0  0  0
    1.0566   -1.6941   -2.3011 C   0  0  0  0  0  0  0  0  0  0  0  0
    1.0566   -0.6020   -1.6643 N   0  0  0  0  0  0  0  0  0  0  0  0
    1.0566   -0.8067   -0.2911 O   0  0  0  0  0  0  0  0  0  0  0  0
    1.9360   -2.2179   -4.1716 H   0  0  0  0  0  0  0  0  0  0  0  0
    0.1772   -2.2179   -4.1716 H   0  0  0  0  0  0  0  0  0  0  0  0
    1.0566   -0.6744   -4.1712 H   0  0  0  0  0  0  0  0  0  0  0  0
    1.0566   -2.6416   -1.7610 H   0  0  0  0  0  0  0  0  0  0  0  0
    1.0566    0.2630    0.1322 H   0  0  0  0  0  0  0  0  0  0  0  0
    0.3415    2.4246   -0.3444 C   0  0  0  0  0  0  0  0  0  0  0  0
    1.0566    1.4826    0.6149 C   0  0  0  0  0  3  0  0  0  0  0  0
    0.2190    1.1134    1.8221 C   0  0  0  0  0  0  0  0  0  0  0  0
   -0.9224    0.4108    1.3996 O   0  0  0  0  0  0  0  0  0  0  0  0
   -1.7799    0.0569    2.4547 C   0  0  0  0  0  0  0  0  0  0  0  0
   -2.9680   -0.6887    1.8927 C   0  0  0  0  0  0  0  0  0  0  0  0
    0.0715    3.3584    0.1552 H   0  0  0  0  0  0  0  0  0  0  0  0
    0.9754    2.6725   -1.1970 H   0  0  0  0  0  0  0  0  0  0  0  0
   -0.5744    1.9695   -0.7214 H   0  0  0  0  0  0  0  0  0  0  0  0
    1.9809    1.9428    0.9751 H   0  0  0  0  0  0  0  0  0  0  0  0
   -0.0809    2.0228    2.3665 H   0  0  0  0  0  0  0  0  0  0  0  0
    0.8045    0.4942    2.5175 H   0  0  0  0  0  0  0  0  0  0  0  0
   -2.1101    0.9604    2.9882 H   0  0  0  0  0  0  0  0  0  0  0  0
   -1.2417   -0.5695    3.1815 H   0  0  0  0  0  0  0  0  0  0  0  0
   -2.6426   -1.5919    1.3754 H   0  0  0  0  0  0  0  0  0  0  0  0
   -3.6491   -0.9749    2.6957 H   0  0  0  0  0  0  0  0  0  0  0  0
   -3.5113   -0.0629    1.1837 H   0  0  0  0  0  0  0  0  0  0  0  0
  1  2  1  0
  1  5  1  0
  1  6  1  0
  1  7  1  0
  2  3  2  3
  2  8  1  0
  3  4  1  0
  4  9  1  0
 10 11  1  0
 10 16  1  0
 10 17  1  0
 10 18  1  0
 11 12  1  0
 11 19  1  0
 12 13  1  0
 12 20  1  0
 12 21  1  0
 13 14  1  0
 14 15  1  0
 14 22  1  0
 14 23  1  0
 15 24  1  0
 15 25  1  0
 15 26  1  0
M  RAD  1  11   2
M  END
>  <reaction>  (6) 
rmg_rxn_212

>  <mol_properties>  (6) 
{"2": {"label": "*0", "atom_type": "N3d"}, "3": {"label": "*1", "atom_type": "O2s"}, "8": {"label": "*2", "atom_type": "H0"}, "10": {"label": "*3", "atom_type": "Cs"}, "11": {"label": "*4", "atom_type": "Cs"}}

>  <type>  (6) 
unop_2

>  <geom_source>  (6) 
Heuristics

$$$$

     RDKit          3D

 26 24  0  0  0  0  0  0  0  0999 V2000
   -0.9132   -1.4680   -3.8421 C   0  0  0  0  0  0  0  0  0  0  0  0
   -0.9132   -1.4680   -2.3534 C   0  0  0  0  0  0  0  0  0  0  0  0
   -0.9132   -0.3759   -1.7166 N   0  0  0  0  0  0  0  0  0  0  0  0
   -0.9132   -0.5806   -0.3435 O   0  0  0  0  0  0  0  0  0  0  0  0
   -0.0338   -1.9918   -4.2239 H   0  0  0  0  0  0  0  0  0  0  0  0
   -1.7927   -1.9918   -4.2239 H   0  0  0  0  0  0  0  0  0  0  0  0
   -0.9132   -0.4483   -4.2235 H   0  0  0  0  0  0  0  0  0  0  0  0
   -0.9132   -2.4155   -1.8133 H   0  0  0  0  0  0  0  0  0  0  0  0
   -0.9132    0.4891    0.0799 H   0  0  0  0  0  0  0  0  0  0  0  0
   -1.6284    1.7390    1.9068 C   0  0  0  0  0  0  0  0  0  0  0  0
   -0.9132    1.7087    0.5626 C   0  0  0  0  0  3  0  0  0  0  0  0
    0.5851    1.5235    0.6893 C   0  0  0  0  0  0  0  0  0  0  0  0
    0.8520    0.2747    1.2759 O   0  0  0  0  0  0  0  0  0  0  0  0
    2.2225    0.0310    1.4657 C   0  0  0  0  0  0  0  0  0  0  0  0
    2.3959   -1.3298    2.0994 C   0  0  0  0  0  0  0  0  0  0  0  0
   -1.2564    2.5578    2.5277 H   0  0  0  0  0  0  0  0  0  0  0  0
   -2.7026    1.8789    1.7770 H   0  0  0  0  0  0  0  0  0  0  0  0
   -1.4690    0.8076    2.4500 H   0  0  0  0  0  0  0  0  0  0  0  0
   -1.0921    2.6412    0.0201 H   0  0  0  0  0  0  0  0  0  0  0  0
    1.0143    2.3276    1.3078 H   0  0  0  0  0  0  0  0  0  0  0  0
    1.0615    1.5826   -0.3003 H   0  0  0  0  0  0  0  0  0  0  0  0
    2.6566    0.8120    2.1072 H   0  0  0  0  0  0  0  0  0  0  0  0
    2.7486    0.0755    0.5006 H   0  0  0  0  0  0  0  0  0  0  0  0
    1.9781   -2.1063    1.4577 H   0  0  0  0  0  0  0  0  0  0  0  0
    3.4547   -1.5417    2.2562 H   0  0  0  0  0  0  0  0  0  0  0  0
    1.8877   -1.3700    3.0636 H   0  0  0  0  0  0  0  0  0  0  0  0
  1  2  1  0
  1  5  1  0
  1  6  1  0
  1  7  1  0
  2  3  2  3
  2  8  1  0
  3  4  1  0
  4  9  1  0
 10 11  1  0
 10 16  1  0
 10 17  1  0
 10 18  1  0
 11 12  1  0
 11 19  1  0
 12 13  1  0
 12 20  1  0
 12 21  1  0
 13 14  1  0
 14 15  1  0
 14 22  1  0
 14 23  1  0
 15 24  1  0
 15 25  1  0
 15 26  1  0
M  RAD  1  11   2
M  END
>  <reaction>  (7) 
rmg_rxn_212

>  <mol_properties>  (7) 
{"2": {"label": "*0", "atom_type": "N3d"}, "3": {"label": "*1", "atom_type": "O2s"}, "8": {"label": "*2", "atom_type": "H0"}, "10": {"label": "*3", "atom_type": "Cs"}, "11": {"label": "*4", "atom_type": "Cs"}}

>  <type>  (7) 
unop_3

>  <geom_source>  (7) 
Heuristics

$$$$

     RDKit          3D

 26 24  0  0  0  0  0  0  0  0999 V2000
    0.7142   -3.0047   -2.9985 C   0  0  0  0  0  0  0  0  0  0  0  0
    0.7142   -3.0047   -1.5098 C   0  0  0  0  0  0  0  0  0  0  0  0
    0.7142   -1.9126   -0.8730 N   0  0  0  0  0  0  0  0  0  0  0  0
    0.7142   -2.1173    0.5002 O   0  0  0  0  0  0  0  0  0  0  0  0
    1.5936   -3.5285   -3.3803 H   0  0  0  0  0  0  0  0  0  0  0  0
   -0.1652   -3.5285   -3.3803 H   0  0  0  0  0  0  0  0  0  0  0  0
    0.7142   -1.9850   -3.3799 H   0  0  0  0  0  0  0  0  0  0  0  0
    0.7142   -3.9522   -0.9697 H   0  0  0  0  0  0  0  0  0  0  0  0
    0.7142   -1.0476    0.9235 H   0  0  0  0  0  0  0  0  0  0  0  0
    1.9529    0.9213    0.9337 C   0  0  0  0  0  0  0  0  0  0  0  0
    0.7142    0.1720    1.4062 C   0  0  0  0  0  3  0  0  0  0  0  0
   -0.4534    1.0866    1.7153 C   0  0  0  0  0  0  0  0  0  0  0  0
   -0.8499    1.7486    0.5407 O   0  0  0  0  0  0  0  0  0  0  0  0
   -1.9096    2.6490    0.7406 C   0  0  0  0  0  0  0  0  0  0  0  0
   -2.2537    3.3026   -0.5778 C   0  0  0  0  0  0  0  0  0  0  0  0
    2.2936    1.6292    1.6935 H   0  0  0  0  0  0  0  0  0  0  0  0
    2.7732    0.2326    0.7262 H   0  0  0  0  0  0  0  0  0  0  0  0
    1.7408    1.4829    0.0239 H   0  0  0  0  0  0  0  0  0  0  0  0
    0.9422   -0.3994    2.3103 H   0  0  0  0  0  0  0  0  0  0  0  0
   -0.1638    1.8235    2.4812 H   0  0  0  0  0  0  0  0  0  0  0  0
   -1.2950    0.5065    2.1213 H   0  0  0  0  0  0  0  0  0  0  0  0
   -1.6213    3.4082    1.4825 H   0  0  0  0  0  0  0  0  0  0  0  0
   -2.7831    2.1165    1.1452 H   0  0  0  0  0  0  0  0  0  0  0  0
   -2.5530    2.5518   -1.3099 H   0  0  0  0  0  0  0  0  0  0  0  0
   -3.0764    4.0072   -0.4471 H   0  0  0  0  0  0  0  0  0  0  0  0
   -1.3929    3.8438   -0.9721 H   0  0  0  0  0  0  0  0  0  0  0  0
  1  2  1  0
  1  5  1  0
  1  6  1  0
  1  7  1  0
  2  3  2  3
  2  8  1  0
  3  4  1  0
  4  9  1  0
 10 11  1  0
 10 16  1  0
 10 17  1  0
 10 18  1  0
 11 12  1  0
 11 19  1  0
 12 13  1  0
 12 20  1  0
 12 21  1  0
 13 14  1  0
 14 15  1  0
 14 22  1  0
 14 23  1  0
 15 24  1  0
 15 25  1  0
 15 26  1  0
M  RAD  1  11   2
M  END
>  <reaction>  (8) 
rmg_rxn_212

>  <mol_properties>  (8) 
{"2": {"label": "*0", "atom_type": "N3d"}, "3": {"label": "*1", "atom_type": "O2s"}, "8": {"label": "*2", "atom_type": "H0"}, "10": {"label": "*3", "atom_type": "Cs"}, "11": {"label": "*4", "atom_type": "Cs"}}

>  <type>  (8) 
unop_4

>  <geom_source>  (8) 
Heuristics

$$$$

     RDKit          3D

 26 24  0  0  0  0  0  0  0  0999 V2000
   -1.1993   -2.2526   -3.3489 C   0  0  0  0  0  0  0  0  0  0  0  0
   -1.1993   -2.2526   -1.8602 C   0  0  0  0  0  0  0  0  0  0  0  0
   -1.1993   -1.1605   -1.2234 N   0  0  0  0  0  0  0  0  0  0  0  0
   -1.1993   -1.3652    0.1498 O   0  0  0  0  0  0  0  0  0  0  0  0
   -0.3199   -2.7764   -3.7307 H   0  0  0  0  0  0  0  0  0  0  0  0
   -2.0787   -2.7764   -3.7307 H   0  0  0  0  0  0  0  0  0  0  0  0
   -1.1993   -1.2329   -3.7303 H   0  0  0  0  0  0  0  0  0  0  0  0
   -1.1993   -3.2001   -1.3201 H   0  0  0  0  0  0  0  0  0  0  0  0
   -1.1993   -0.2955    0.5732 H   0  0  0  0  0  0  0  0  0  0  0  0
   -1.1993    0.8839    2.5782 C   0  0  0  0  0  0  0  0  0  0  0  0
   -1.1993    0.9241    1.0559 C   0  0  0  0  0  3  0  0  0  0  0  0
   -0.0128    1.6696    0.4798 C   0  0  0  0  0  0  0  0  0  0  0  0
    1.1723    1.0003    0.8299 O   0  0  0  0  0  0  0  0  0  0  0  0
    2.3320    1.6432    0.3658 C   0  0  0  0  0  0  0  0  0  0  0  0
    3.5411    0.8453    0.7957 C   0  0  0  0  0  0  0  0  0  0  0  0
   -1.2234    1.8941    2.9947 H   0  0  0  0  0  0  0  0  0  0  0  0
   -2.0691    0.3450    2.9568 H   0  0  0  0  0  0  0  0  0  0  0  0
   -0.3026    0.3892    2.9514 H   0  0  0  0  0  0  0  0  0  0  0  0
   -2.1096    1.4088    0.6922 H   0  0  0  0  0  0  0  0  0  0  0  0
    0.0104    2.7004    0.8676 H   0  0  0  0  0  0  0  0  0  0  0  0
   -0.0979    1.7340   -0.6149 H   0  0  0  0  0  0  0  0  0  0  0  0
    2.3816    2.6648    0.7708 H   0  0  0  0  0  0  0  0  0  0  0  0
    2.2992    1.7310   -0.7304 H   0  0  0  0  0  0  0  0  0  0  0  0
    3.4997   -0.1634    0.3832 H   0  0  0  0  0  0  0  0  0  0  0  0
    4.4557    1.3262    0.4452 H   0  0  0  0  0  0  0  0  0  0  0  0
    3.5831    0.7709    1.8829 H   0  0  0  0  0  0  0  0  0  0  0  0
  1  2  1  0
  1  5  1  0
  1  6  1  0
  1  7  1  0
  2  3  2  3
  2  8  1  0
  3  4  1  0
  4  9  1  0
 10 11  1  0
 10 16  1  0
 10 17  1  0
 10 18  1  0
 11 12  1  0
 11 19  1  0
 12 13  1  0
 12 20  1  0
 12 21  1  0
 13 14  1  0
 14 15  1  0
 14 22  1  0
 14 23  1  0
 15 24  1  0
 15 25  1  0
 15 26  1  0
M  RAD  1  11   2
M  END
>  <reaction>  (9) 
rmg_rxn_212

>  <mol_properties>  (9) 
{"2": {"label": "*0", "atom_type": "N3d"}, "3": {"label": "*1", "atom_type": "O2s"}, "8": {"label": "*2", "atom_type": "H0"}, "10": {"label": "*3", "atom_type": "Cs"}, "11": {"label": "*4", "atom_type": "Cs"}}

>  <type>  (9) 
unop_5

>  <geom_source>  (9) 
Heuristics

$$$$

     RDKit          3D

 26 24  0  0  0  0  0  0  0  0999 V2000
    0.3204   -3.1644   -2.8882 C   0  0  0  0  0  0  0  0  0  0  0  0
    0.3204   -3.1644   -1.3995 C   0  0  0  0  0  0  0  0  0  0  0  0
    0.3204   -2.0723   -0.7627 N   0  0  0  0  0  0  0  0  0  0  0  0
    0.3204   -2.2770    0.6105 O   0  0  0  0  0  0  0  0  0  0  0  0
    1.1998   -3.6882   -3.2700 H   0  0  0  0  0  0  0  0  0  0  0  0
   -0.5590   -3.6882   -3.2700 H   0  0  0  0  0  0  0  0  0  0  0  0
    0.3204   -2.1447   -3.2696 H   0  0  0  0  0  0  0  0  0  0  0  0
    0.3204   -4.1119   -0.8594 H   0  0  0  0  0  0  0  0  0  0  0  0
    0.3204   -1.2073    1.0339 H   0  0  0  0  0  0  0  0  0  0  0  0
    1.7508    0.4984    1.7090 C   0  0  0  0  0  0  0  0  0  0  0  0
    0.3204    0.0123    1.5166 C   0  0  0  0  0  3  0  0  0  0  0  0
   -0.6902    1.1399    1.4669 C   0  0  0  0  0  0  0  0  0  0  0  0
   -0.4255    1.9537    0.3522 O   0  0  0  0  0  0  0  0  0  0  0  0
   -1.2961    3.0511    0.2455 C   0  0  0  0  0  0  0  0  0  0  0  0
   -0.9247    3.8552   -0.9788 C   0  0  0  0  0  0  0  0  0  0  0  0
    1.8498    1.0580    2.6425 H   0  0  0  0  0  0  0  0  0  0  0  0
    2.4487   -0.3393    1.7453 H   0  0  0  0  0  0  0  0  0  0  0  0
    2.0486    1.1552    0.8916 H   0  0  0  0  0  0  0  0  0  0  0  0
    0.0374   -0.6571    2.3337 H   0  0  0  0  0  0  0  0  0  0  0  0
   -0.6341    1.7386    2.3898 H   0  0  0  0  0  0  0  0  0  0  0  0
   -1.7107    0.7346    1.4016 H   0  0  0  0  0  0  0  0  0  0  0  0
   -1.2270    3.6735    1.1498 H   0  0  0  0  0  0  0  0  0  0  0  0
   -2.3360    2.6993    0.1735 H   0  0  0  0  0  0  0  0  0  0  0  0
   -1.0063    3.2427   -1.8775 H   0  0  0  0  0  0  0  0  0  0  0  0
   -1.5893    4.7143   -1.0829 H   0  0  0  0  0  0  0  0  0  0  0  0
    0.1010    4.2175   -0.9014 H   0  0  0  0  0  0  0  0  0  0  0  0
  1  2  1  0
  1  5  1  0
  1  6  1  0
  1  7  1  0
  2  3  2  3
  2  8  1  0
  3  4  1  0
  4  9  1  0
 10 11  1  0
 10 16  1  0
 10 17  1  0
 10 18  1  0
 11 12  1  0
 11 19  1  0
 12 13  1  0
 12 20  1  0
 12 21  1  0
 13 14  1  0
 14 15  1  0
 14 22  1  0
 14 23  1  0
 15 24  1  0
 15 25  1  0
 15 26  1  0
M  RAD  1  11   2
M  END
>  <reaction>  (10) 
rmg_rxn_212

>  <mol_properties>  (10) 
{"2": {"label": "*0", "atom_type": "N3d"}, "3": {"label": "*1", "atom_type": "O2s"}, "8": {"label": "*2", "atom_type": "H0"}, "10": {"label": "*3", "atom_type": "Cs"}, "11": {"label": "*4", "atom_type": "Cs"}}

>  <type>  (10) 
unop_6

>  <geom_source>  (10) 
Heuristics

$$$$

     RDKit          3D

 26 24  0  0  0  0  0  0  0  0999 V2000
   -0.1386   -3.1837   -2.8460 C   0  0  0  0  0  0  0  0  0  0  0  0
   -0.1386   -3.1837   -1.3573 C   0  0  0  0  0  0  0  0  0  0  0  0
   -0.1386   -2.0916   -0.7205 N   0  0  0  0  0  0  0  0  0  0  0  0
   -0.1386   -2.2963    0.6527 O   0  0  0  0  0  0  0  0  0  0  0  0
    0.7408   -3.7075   -3.2278 H   0  0  0  0  0  0  0  0  0  0  0  0
   -1.0180   -3.7075   -3.2278 H   0  0  0  0  0  0  0  0  0  0  0  0
   -0.1386   -2.1640   -3.2274 H   0  0  0  0  0  0  0  0  0  0  0  0
   -0.1386   -4.1312   -0.8172 H   0  0  0  0  0  0  0  0  0  0  0  0
   -0.1386   -1.2266    1.0760 H   0  0  0  0  0  0  0  0  0  0  0  0
    1.1001    0.2160    2.4161 C   0  0  0  0  0  0  0  0  0  0  0  0
   -0.1386   -0.0070    1.5587 C   0  0  0  0  0  3  0  0  0  0  0  0
   -0.7857    1.2839    1.1001 C   0  0  0  0  0  0  0  0  0  0  0  0
    0.1100    1.9867    0.2763 O   0  0  0  0  0  0  0  0  0  0  0  0
   -0.3948    3.2197   -0.1693 C   0  0  0  0  0  0  0  0  0  0  0  0
    0.6425    3.8887   -1.0411 C   0  0  0  0  0  0  0  0  0  0  0  0
    0.8543    0.7873    3.3147 H   0  0  0  0  0  0  0  0  0  0  0  0
    1.5352   -0.7333    2.7318 H   0  0  0  0  0  0  0  0  0  0  0  0
    1.8576    0.7712    1.8630 H   0  0  0  0  0  0  0  0  0  0  0  0
   -0.8856   -0.5773    2.1178 H   0  0  0  0  0  0  0  0  0  0  0  0
   -1.0567    1.9011    1.9713 H   0  0  0  0  0  0  0  0  0  0  0  0
   -1.7135    1.0705    0.5493 H   0  0  0  0  0  0  0  0  0  0  0  0
   -0.6416    3.8570    0.6927 H   0  0  0  0  0  0  0  0  0  0  0  0
   -1.3266    3.0622   -0.7325 H   0  0  0  0  0  0  0  0  0  0  0  0
    0.8776    3.2637   -1.9033 H   0  0  0  0  0  0  0  0  0  0  0  0
    0.2716    4.8500   -1.4001 H   0  0  0  0  0  0  0  0  0  0  0  0
    1.5614    4.0594   -0.4791 H   0  0  0  0  0  0  0  0  0  0  0  0
  1  2  1  0
  1  5  1  0
  1  6  1  0
  1  7  1  0
  2  3  2  3
  2  8  1  0
  3  4  1  0
  4  9  1  0
 10 11  1  0
 10 16  1  0
 10 17  1  0
 10 18  1  0
 11 12  1  0
 11 19  1  0
 12 13  1  0
 12 20  1  0
 12 21  1  0
 13 14  1  0
 14 15  1  0
 14 22  1  0
 14 23  1  0
 15 24  1  0
 15 25  1  0
 15 26  1  0
M  RAD  1  11   2
M  END
>  <reaction>  (11) 
rmg_rxn_212

>  <mol_properties>  (11) 
{"2": {"label": "*0", "atom_type": "N3d"}, "3": {"label": "*1", "atom_type": "O2s"}, "8": {"label": "*2", "atom_type": "H0"}, "10": {"label": "*3", "atom_type": "Cs"}, "11": {"label": "*4", "atom_type": "Cs"}}

>  <type>  (11) 
unop_7

>  <geom_source>  (11) 
Heuristics

$$$$

     RDKit          3D

 26 24  0  0  0  0  0  0  0  0999 V2000
    0.1985   -1.1590   -4.0972 C   0  0  0  0  0  0  0  0  0  0  0  0
    0.1985   -1.1590   -2.6086 C   0  0  0  0  0  0  0  0  0  0  0  0
    0.1985   -0.0669   -1.9718 N   0  0  0  0  0  0  0  0  0  0  0  0
    0.1985   -0.2716   -0.5986 O   0  0  0  0  0  0  0  0  0  0  0  0
    1.0780   -1.6828   -4.4790 H   0  0  0  0  0  0  0  0  0  0  0  0
   -0.6809   -1.6828   -4.4790 H   0  0  0  0  0  0  0  0  0  0  0  0
    0.1985   -0.1393   -4.4787 H   0  0  0  0  0  0  0  0  0  0  0  0
    0.1985   -2.1065   -2.0684 H   0  0  0  0  0  0  0  0  0  0  0  0
    0.1985    0.7981   -0.1752 H   0  0  0  0  0  0  0  0  0  0  0  0
   -1.2318    2.5039    0.4999 C   0  0  0  0  0  0  0  0  0  0  0  0
    0.1985    2.0177    0.3075 C   0  0  0  0  0  3  0  0  0  0  0  0
    0.6957    1.1612    1.4540 C   0  0  0  0  0  0  0  0  0  0  0  0
   -0.0818   -0.0067    1.5341 O   0  0  0  0  0  0  0  0  0  0  0  0
    0.2870   -0.8485    2.5966 C   0  0  0  0  0  0  0  0  0  0  0  0
   -0.6077   -2.0663    2.5912 C   0  0  0  0  0  0  0  0  0  0  0  0
   -1.3204    3.1038    1.4091 H   0  0  0  0  0  0  0  0  0  0  0  0
   -1.5533    3.1206   -0.3407 H   0  0  0  0  0  0  0  0  0  0  0  0
   -1.9176    1.6612    0.5865 H   0  0  0  0  0  0  0  0  0  0  0  0
    0.8755    2.8706    0.2068 H   0  0  0  0  0  0  0  0  0  0  0  0
    0.6296    1.7211    2.4003 H   0  0  0  0  0  0  0  0  0  0  0  0
    1.7530    0.8983    1.3029 H   0  0  0  0  0  0  0  0  0  0  0  0
    0.1964   -0.3090    3.5509 H   0  0  0  0  0  0  0  0  0  0  0  0
    1.3411   -1.1454    2.4915 H   0  0  0  0  0  0  0  0  0  0  0  0
   -0.5082   -2.6095    1.6508 H   0  0  0  0  0  0  0  0  0  0  0  0
   -0.3389   -2.7365    3.4093 H   0  0  0  0  0  0  0  0  0  0  0  0
   -1.6516   -1.7742    2.7110 H   0  0  0  0  0  0  0  0  0  0  0  0
  1  2  1  0
  1  5  1  0
  1  6  1  0
  1  7  1  0
  2  3  2  3
  2  8  1  0
  3  4  1  0
  4  9  1  0
 10 11  1  0
 10 16  1  0
 10 17  1  0
 10 18  1  0
 11 12  1  0
 11 19  1  0
 12 13  1  0
 12 20  1  0
 12 21  1  0
 13 14  1  0
 14 15  1  0
 14 22  1  0
 14 23  1  0
 15 24  1  0
 15 25  1  0
 15 26  1  0
M  RAD  1  11   2
M  END
>  <reaction>  (12) 
rmg_rxn_212

>  <mol_properties>  (12) 
{"2": {"label": "*0", "atom_type": "N3d"}, "3": {"label": "*1", "atom_type": "O2s"}, "8": {"label": "*2", "atom_type": "H0"}, "10": {"label": "*3", "atom_type": "Cs"}, "11": {"label": "*4", "atom_type": "Cs"}}

>  <type>  (12) 
unop_8

>  <geom_source>  (12) 
Heuristics

$$$$

     RDKit          3D

 26 24  0  0  0  0  0  0  0  0999 V2000
    1.0457   -2.6830   -3.1936 C   0  0  0  0  0  0  0  0  0  0  0  0
    1.0457   -2.6830   -1.7049 C   0  0  0  0  0  0  0  0  0  0  0  0
    1.0457   -1.5909   -1.0682 N   0  0  0  0  0  0  0  0  0  0  0  0
    1.0457   -1.7956    0.3050 O   0  0  0  0  0  0  0  0  0  0  0  0
    1.9251   -3.2068   -3.5754 H   0  0  0  0  0  0  0  0  0  0  0  0
    0.1663   -3.2068   -3.5754 H   0  0  0  0  0  0  0  0  0  0  0  0
    1.0457   -1.6633   -3.5750 H   0  0  0  0  0  0  0  0  0  0  0  0
    1.0457   -3.6305   -1.1648 H   0  0  0  0  0  0  0  0  0  0  0  0
    1.0457   -0.7259    0.7284 H   0  0  0  0  0  0  0  0  0  0  0  0
    1.7608    1.4358    0.2518 C   0  0  0  0  0  0  0  0  0  0  0  0
    1.0457    0.4937    1.2111 C   0  0  0  0  0  3  0  0  0  0  0  0
   -0.1966    1.1028    1.8285 C   0  0  0  0  0  0  0  0  0  0  0  0
   -1.1326    1.3774    0.8168 O   0  0  0  0  0  0  0  0  0  0  0  0
   -2.3081    1.9798    1.2954 C   0  0  0  0  0  0  0  0  0  0  0  0
   -3.2395    2.2312    0.1323 C   0  0  0  0  0  0  0  0  0  0  0  0
    2.0732    2.3496    0.7634 H   0  0  0  0  0  0  0  0  0  0  0  0
    2.6516    0.9664   -0.1684 H   0  0  0  0  0  0  0  0  0  0  0  0
    1.1048    1.7200   -0.5710 H   0  0  0  0  0  0  0  0  0  0  0  0
    1.7172    0.2033    2.0239 H   0  0  0  0  0  0  0  0  0  0  0  0
    0.0626    2.0314    2.3614 H   0  0  0  0  0  0  0  0  0  0  0  0
   -0.6329    0.4135    2.5662 H   0  0  0  0  0  0  0  0  0  0  0  0
   -2.0648    2.9242    1.8042 H   0  0  0  0  0  0  0  0  0  0  0  0
   -2.7888    1.3263    2.0385 H   0  0  0  0  0  0  0  0  0  0  0  0
   -3.4923    1.2938   -0.3644 H   0  0  0  0  0  0  0  0  0  0  0  0
   -4.1616    2.6991    0.4806 H   0  0  0  0  0  0  0  0  0  0  0  0
   -2.7698    2.8915   -0.5976 H   0  0  0  0  0  0  0  0  0  0  0  0
  1  2  1  0
  1  5  1  0
  1  6  1  0
  1  7  1  0
  2  3  2  3
  2  8  1  0
  3  4  1  0
  4  9  1  0
 10 11  1  0
 10 16  1  0
 10 17  1  0
 10 18  1  0
 11 12  1  0
 11 19  1  0
 12 13  1  0
 12 20  1  0
 12 21  1  0
 13 14  1  0
 14 15  1  0
 14 22  1  0
 14 23  1  0
 15 24  1  0
 15 25  1  0
 15 26  1  0
M  RAD  1  11   2
M  END
>  <reaction>  (13) 
rmg_rxn_212

>  <mol_properties>  (13) 
{"2": {"label": "*0", "atom_type": "N3d"}, "3": {"label": "*1", "atom_type": "O2s"}, "8": {"label": "*2", "atom_type": "H0"}, "10": {"label": "*3", "atom_type": "Cs"}, "11": {"label": "*4", "atom_type": "Cs"}}

>  <type>  (13) 
unop_9

>  <geom_source>  (13) 
Heuristics

$$$$

     RDKit          3D

 26 24  0  0  0  0  0  0  0  0999 V2000
    0.6809   -1.3338   -4.0059 C   0  0  0  0  0  0  0  0  0  0  0  0
    0.6809   -1.3338   -2.5172 C   0  0  0  0  0  0  0  0  0  0  0  0
    0.6809   -0.2418   -1.8804 N   0  0  0  0  0  0  0  0  0  0  0  0
    0.6809   -0.4464   -0.5072 O   0  0  0  0  0  0  0  0  0  0  0  0
    1.5603   -1.8577   -4.3877 H   0  0  0  0  0  0  0  0  0  0  0  0
   -0.1985   -1.8577   -4.3877 H   0  0  0  0  0  0  0  0  0  0  0  0
    0.6809   -0.3141   -4.3873 H   0  0  0  0  0  0  0  0  0  0  0  0
    0.6809   -2.2813   -1.9771 H   0  0  0  0  0  0  0  0  0  0  0  0
    0.6809    0.6232   -0.0839 H   0  0  0  0  0  0  0  0  0  0  0  0
   -0.5578    2.5922   -0.0737 C   0  0  0  0  0  0  0  0  0  0  0  0
    0.6809    1.8429    0.3988 C   0  0  0  0  0  3  0  0  0  0  0  0
    0.4682    1.1044    1.7045 C   0  0  0  0  0  0  0  0  0  0  0  0
   -0.5138    0.1152    1.5255 O   0  0  0  0  0  0  0  0  0  0  0  0
   -0.8032   -0.6001    2.6994 C   0  0  0  0  0  0  0  0  0  0  0  0
   -1.8657   -1.6311    2.3968 C   0  0  0  0  0  0  0  0  0  0  0  0
   -0.8704    3.3337    0.6658 H   0  0  0  0  0  0  0  0  0  0  0  0
   -0.3663    3.1153   -1.0118 H   0  0  0  0  0  0  0  0  0  0  0  0
   -1.3888    1.9045   -0.2303 H   0  0  0  0  0  0  0  0  0  0  0  0
    1.5119    2.5398    0.5383 H   0  0  0  0  0  0  0  0  0  0  0  0
    0.1517    1.8089    2.4899 H   0  0  0  0  0  0  0  0  0  0  0  0
    1.4089    0.6429    2.0391 H   0  0  0  0  0  0  0  0  0  0  0  0
   -1.1492    0.0901    3.4830 H   0  0  0  0  0  0  0  0  0  0  0  0
    0.1085   -1.0869    3.0765 H   0  0  0  0  0  0  0  0  0  0  0  0
   -1.5182   -2.3241    1.6298 H   0  0  0  0  0  0  0  0  0  0  0  0
   -2.1068   -2.2006    3.2957 H   0  0  0  0  0  0  0  0  0  0  0  0
   -2.7753   -1.1484    2.0376 H   0  0  0  0  0  0  0  0  0  0  0  0
  1  2  1  0
  1  5  1  0
  1  6  1  0
  1  7  1  0
  2  3  2  3
  2  8  1  0
  3  4  1  0
  4  9  1  0
 10 11  1  0
 10 16  1  0
 10 17  1  0
 10 18  1  0
 11 12  1  0
 11 19  1  0
 12 13  1  0
 12 20  1  0
 12 21  1  0
 13 14  1  0
 14 15  1  0
 14 22  1  0
 14 23  1  0
 15 24  1  0
 15 25  1  0
 15 26  1  0
M  RAD  1  11   2
M  END
>  <reaction>  (14) 
rmg_rxn_212

>  <mol_properties>  (14) 
{"2": {"label": "*0", "atom_type": "N3d"}, "3": {"label": "*1", "atom_type": "O2s"}, "8": {"label": "*2", "atom_type": "H0"}, "10": {"label": "*3", "atom_type": "Cs"}, "11": {"label": "*4", "atom_type": "Cs"}}

>  <type>  (14) 
unop_10

>  <geom_source>  (14) 
Heuristics

$$$$

     RDKit          3D

 26 24  0  0  0  0  0  0  0  0999 V2000
   -0.7241   -2.9690   -2.9371 C   0  0  0  0  0  0  0  0  0  0  0  0
   -0.7241   -2.9690   -1.4485 C   0  0  0  0  0  0  0  0  0  0  0  0
   -0.7241   -1.8769   -0.8117 N   0  0  0  0  0  0  0  0  0  0  0  0
   -0.7241   -2.0816    0.5615 O   0  0  0  0  0  0  0  0  0  0  0  0
    0.1553   -3.4928   -3.3189 H   0  0  0  0  0  0  0  0  0  0  0  0
   -1.6035   -3.4928   -3.3189 H   0  0  0  0  0  0  0  0  0  0  0  0
   -0.7241   -1.9493   -3.3186 H   0  0  0  0  0  0  0  0  0  0  0  0
   -0.7241   -3.9165   -0.9083 H   0  0  0  0  0  0  0  0  0  0  0  0
   -0.7241   -1.0119    0.9849 H   0  0  0  0  0  0  0  0  0  0  0  0
   -0.0089    0.2380    2.8118 C   0  0  0  0  0  0  0  0  0  0  0  0
   -0.7241    0.2077    1.4676 C   0  0  0  0  0  3  0  0  0  0  0  0
   -0.6025    1.5075    0.6989 C   0  0  0  0  0  0  0  0  0  0  0  0
    0.7485    1.7420    0.3913 O   0  0  0  0  0  0  0  0  0  0  0  0
    0.9614    2.9498   -0.2940 C   0  0  0  0  0  0  0  0  0  0  0  0
    2.4387    3.1023   -0.5727 C   0  0  0  0  0  0  0  0  0  0  0  0
   -0.4140    1.0266    3.4509 H   0  0  0  0  0  0  0  0  0  0  0  0
   -0.1223   -0.7108    3.3383 H   0  0  0  0  0  0  0  0  0  0  0  0
    1.0559    0.4289    2.6784 H   0  0  0  0  0  0  0  0  0  0  0  0
   -1.7881    0.0008    1.6121 H   0  0  0  0  0  0  0  0  0  0  0  0
   -1.0001    2.3407    1.3000 H   0  0  0  0  0  0  0  0  0  0  0  0
   -1.1952    1.4601   -0.2265 H   0  0  0  0  0  0  0  0  0  0  0  0
    0.5949    3.7929    0.3100 H   0  0  0  0  0  0  0  0  0  0  0  0
    0.3904    2.9532   -1.2344 H   0  0  0  0  0  0  0  0  0  0  0  0
    2.8000    2.2740   -1.1832 H   0  0  0  0  0  0  0  0  0  0  0  0
    2.6285    4.0351   -1.1060 H   0  0  0  0  0  0  0  0  0  0  0  0
    3.0042    3.1147    0.3597 H   0  0  0  0  0  0  0  0  0  0  0  0
  1  2  1  0
  1  5  1  0
  1  6  1  0
  1  7  1  0
  2  3  2  3
  2  8  1  0
  3  4  1  0
  4  9  1  0
 10 11  1  0
 10 16  1  0
 10 17  1  0
 10 18  1  0
 11 12  1  0
 11 19  1  0
 12 13  1  0
 12 20  1  0
 12 21  1  0
 13 14  1  0
 14 15  1  0
 14 22  1  0
 14 23  1  0
 15 24  1  0
 15 25  1  0
 15 26  1  0
M  RAD  1  11   2
M  END
>  <reaction>  (15) 
rmg_rxn_212

>  <mol_properties>  (15) 
{"2": {"label": "*0", "atom_type": "N3d"}, "3": {"label": "*1", "atom_type": "O2s"}, "8": {"label": "*2", "atom_type": "H0"}, "10": {"label": "*3", "atom_type": "Cs"}, "11": {"label": "*4", "atom_type": "Cs"}}

>  <type>  (15) 
unop_11

>  <geom_source>  (15) 
Heuristics

$$$$

     RDKit          3D

 26 24  0  0  0  0  0  0  0  0999 V2000
    1.1993   -2.1992   -3.4837 C   0  0  0  0  0  0  0  0  0  0  0  0
    1.1993   -2.1992   -1.9950 C   0  0  0  0  0  0  0  0  0  0  0  0
    1.1993   -1.1071   -1.3582 N   0  0  0  0  0  0  0  0  0  0  0  0
    1.1993   -1.3118    0.0150 O   0  0  0  0  0  0  0  0  0  0  0  0
    2.0787   -2.7230   -3.8655 H   0  0  0  0  0  0  0  0  0  0  0  0
    0.3198   -2.7230   -3.8655 H   0  0  0  0  0  0  0  0  0  0  0  0
    1.1993   -1.1795   -3.8651 H   0  0  0  0  0  0  0  0  0  0  0  0
    1.1993   -3.1467   -1.4549 H   0  0  0  0  0  0  0  0  0  0  0  0
    1.1993   -0.2421    0.4384 H   0  0  0  0  0  0  0  0  0  0  0  0
    1.1993    1.9900   -0.2165 C   0  0  0  0  0  0  0  0  0  0  0  0
    1.1993    0.9775    0.9211 C   0  0  0  0  0  3  0  0  0  0  0  0
    0.0128    1.1268    1.8512 C   0  0  0  0  0  0  0  0  0  0  0  0
   -1.1723    0.8783    1.1380 O   0  0  0  0  0  0  0  0  0  0  0  0
   -2.3320    1.0295    1.9163 C   0  0  0  0  0  0  0  0  0  0  0  0
   -3.5411    0.7419    1.0568 C   0  0  0  0  0  0  0  0  0  0  0  0
    1.2234    3.0115    0.1712 H   0  0  0  0  0  0  0  0  0  0  0  0
    2.0691    1.8562   -0.8613 H   0  0  0  0  0  0  0  0  0  0  0  0
    0.3026    1.8846   -0.8271 H   0  0  0  0  0  0  0  0  0  0  0  0
    2.1096    1.0820    1.5179 H   0  0  0  0  0  0  0  0  0  0  0  0
   -0.0104    2.1438    2.2740 H   0  0  0  0  0  0  0  0  0  0  0  0
    0.0979    0.4245    2.6935 H   0  0  0  0  0  0  0  0  0  0  0  0
   -2.3816    2.0515    2.3201 H   0  0  0  0  0  0  0  0  0  0  0  0
   -2.2992    0.3434    2.7756 H   0  0  0  0  0  0  0  0  0  0  0  0
   -3.4997   -0.2758    0.6672 H   0  0  0  0  0  0  0  0  0  0  0  0
   -4.4557    0.8528    1.6415 H   0  0  0  0  0  0  0  0  0  0  0  0
   -3.5831    1.4318    0.2132 H   0  0  0  0  0  0  0  0  0  0  0  0
  1  2  1  0
  1  5  1  0
  1  6  1  0
  1  7  1  0
  2  3  2  3
  2  8  1  0
  3  4  1  0
  4  9  1  0
 10 11  1  0
 10 16  1  0
 10 17  1  0
 10 18  1  0
 11 12  1  0
 11 19  1  0
 12 13  1  0
 12 20  1  0
 12 21  1  0
 13 14  1  0
 14 15  1  0
 14 22  1  0
 14 23  1  0
 15 24  1  0
 15 25  1  0
 15 26  1  0
M  RAD  1  11   2
M  END
>  <reaction>  (16) 
rmg_rxn_212

>  <mol_properties>  (16) 
{"2": {"label": "*0", "atom_type": "N3d"}, "3": {"label": "*1", "atom_type": "O2s"}, "8": {"label": "*2", "atom_type": "H0"}, "10": {"label": "*3", "atom_type": "Cs"}, "11": {"label": "*4", "atom_type": "Cs"}}

>  <type>  (16) 
unop_12

>  <geom_source>  (16) 
Heuristics

$$$$

     RDKit          3D

 26 24  0  0  0  0  0  0  0  0999 V2000
   -1.8225    0.7504   -0.5658 O   0  0  0  0  0  0  0  0  0  0  0  0
    1.2998   -0.4737   -0.6234 O   0  0  0  0  0  1  0  0  0  0  0  0
    2.0702    0.6181   -0.2985 N   0  0  0  0  0  2  0  0  0  0  0  0
   -0.8561   -1.3458   -1.2833 C   0  0  0  0  0  0  0  0  0  0  0  0
   -2.0328   -0.6494   -0.5938 C   0  0  0  0  0  0  0  0  0  0  0  0
   -1.2160    1.1588    0.6466 C   0  0  0  0  0  0  0  0  0  0  0  0
   -1.0853   -2.8502   -1.3869 C   0  0  0  0  0  0  0  0  0  0  0  0
   -2.2788    1.5706    1.6595 C   0  0  0  0  0  0  0  0  0  0  0  0
    4.0712    1.6533    0.5669 C   0  0  0  0  0  0  0  0  0  0  0  0
    3.2450    0.4626    0.2187 C   0  0  0  0  0  3  0  0  0  0  0  0
   -0.7258   -0.9265   -2.3045 H   0  0  0  0  0  0  0  0  0  0  0  0
    0.1757   -1.1456   -0.6490 H   0  0  0  0  0  0  0  0  0  0  0  0
   -2.9534   -0.8400   -1.1858 H   0  0  0  0  0  0  0  0  0  0  0  0
   -2.2115   -1.0889    0.4160 H   0  0  0  0  0  0  0  0  0  0  0  0
   -0.5821    2.0447    0.4312 H   0  0  0  0  0  0  0  0  0  0  0  0
   -0.5413    0.3886    1.0883 H   0  0  0  0  0  0  0  0  0  0  0  0
   -0.2161   -3.3231   -1.8903 H   0  0  0  0  0  0  0  0  0  0  0  0
   -1.1929   -3.2931   -0.3740 H   0  0  0  0  0  0  0  0  0  0  0  0
   -1.9998   -3.0623   -1.9808 H   0  0  0  0  0  0  0  0  0  0  0  0
   -2.9155    0.7017    1.9273 H   0  0  0  0  0  0  0  0  0  0  0  0
   -1.7897    1.9519    2.5806 H   0  0  0  0  0  0  0  0  0  0  0  0
   -2.9184    2.3725    1.2338 H   0  0  0  0  0  0  0  0  0  0  0  0
    4.2648    2.2563   -0.3450 H   0  0  0  0  0  0  0  0  0  0  0  0
    5.0410    1.3255    0.9963 H   0  0  0  0  0  0  0  0  0  0  0  0
    3.5368    2.2762    1.3146 H   0  0  0  0  0  0  0  0  0  0  0  0
    3.6335   -0.5325    0.4012 H   0  0  0  0  0  0  0  0  0  0  0  0
  1  5  1  0
  1  6  1  0
  2  3  1  0
  3 10  1  0
  4  5  1  0
  4 12  1  0
  4 11  1  0
  4  7  1  0
  5 13  1  0
  5 14  1  0
  6 16  1  0
  6  8  1  0
  6 15  1  0
  7 18  1  0
  7 19  1  0
  7 17  1  0
  8 22  1  0
  8 21  1  0
  8 20  1  0
  9 25  1  0
  9 23  1  0
  9 24  1  0
  9 10  1  0
 10 26  1  0
M  RAD  3   2   2   3   2  10   2
M  END
>  <reaction>  (17) 
rmg_rxn_212

>  <mol_properties>  (17) 
{"2": {"label": "*0", "atom_type": "N3d"}, "3": {"label": "*1", "atom_type": "O2s"}, "8": {"label": "*2", "atom_type": "H0"}, "10": {"label": "*3", "atom_type": "Cs"}, "11": {"label": "*4", "atom_type": "Cs"}}

>  <type>  (17) 
unop_13

>  <geom_source>  (17) 
AutoTST

$$$$

     RDKit          3D

 26 24  0  0  0  0  0  0  0  0999 V2000
    1.0566   -1.6941   -3.7898 C   0  0  0  0  0  0  0  0  0  0  0  0
    1.0566   -1.6941   -2.3011 C   0  0  0  0  0  0  0  0  0  0  0  0
    1.0566   -0.6020   -1.6643 N   0  0  0  0  0  0  0  0  0  0  0  0
    1.0566   -0.8067   -0.2911 O   0  0  0  0  0  0  0  0  0  0  0  0
    1.9360   -2.2179   -4.1716 H   0  0  0  0  0  0  0  0  0  0  0  0
    0.1772   -2.2179   -4.1716 H   0  0  0  0  0  0  0  0  0  0  0  0
    1.0566   -0.6744   -4.1712 H   0  0  0  0  0  0  0  0  0  0  0  0
    1.0566   -2.6416   -1.7610 H   0  0  0  0  0  0  0  0  0  0  0  0
    1.0566    0.2630    0.1322 H   0  0  0  0  0  0  0  0  0  0  0  0
    0.3415    2.4246   -0.3444 C   0  0  0  0  0  0  0  0  0  0  0  0
    1.0566    1.4826    0.6149 C   0  0  0  0  0  3  0  0  0  0  0  0
    0.2190    1.1134    1.8221 C   0  0  0  0  0  0  0  0  0  0  0  0
   -0.9224    0.4108    1.3996 O   0  0  0  0  0  0  0  0  0  0  0  0
   -1.7799    0.0569    2.4547 C   0  0  0  0  0  0  0  0  0  0  0  0
   -2.9680   -0.6887    1.8927 C   0  0  0  0  0  0  0  0  0  0  0  0
    0.0715    3.3584    0.1552 H   0  0  0  0  0  0  0  0  0  0  0  0
    0.9755    2.6725   -1.1970 H   0  0  0  0  0  0  0  0  0  0  0  0
   -0.5744    1.9695   -0.7214 H   0  0  0  0  0  0  0  0  0  0  0  0
    1.9809    1.9428    0.9751 H   0  0  0  0  0  0  0  0  0  0  0  0
   -0.0809    2.0228    2.3665 H   0  0  0  0  0  0  0  0  0  0  0  0
    0.8045    0.4942    2.5175 H   0  0  0  0  0  0  0  0  0  0  0  0
   -2.1101    0.9604    2.9882 H   0  0  0  0  0  0  0  0  0  0  0  0
   -1.2417   -0.5695    3.1815 H   0  0  0  0  0  0  0  0  0  0  0  0
   -2.6426   -1.5919    1.3754 H   0  0  0  0  0  0  0  0  0  0  0  0
   -3.6491   -0.9749    2.6957 H   0  0  0  0  0  0  0  0  0  0  0  0
   -3.5113   -0.0629    1.1837 H   0  0  0  0  0  0  0  0  0  0  0  0
  1  2  1  0
  1  5  1  0
  1  6  1  0
  1  7  1  0
  2  3  2  3
  2  8  1  0
  3  4  1  0
  4  9  1  0
 10 11  1  0
 10 16  1  0
 10 17  1  0
 10 18  1  0
 11 12  1  0
 11 19  1  0
 12 13  1  0
 12 20  1  0
 12 21  1  0
 13 14  1  0
 14 15  1  0
 14 22  1  0
 14 23  1  0
 15 24  1  0
 15 25  1  0
 15 26  1  0
M  RAD  1  11   2
M  END
>  <reaction>  (18) 
rmg_rxn_212

>  <mol_properties>  (18) 
{"2": {"label": "*0", "atom_type": "N3d"}, "3": {"label": "*1", "atom_type": "O2s"}, "8": {"label": "*2", "atom_type": "H0"}, "10": {"label": "*3", "atom_type": "Cs"}, "11": {"label": "*4", "atom_type": "Cs"}}

>  <type>  (18) 
unop_14

>  <geom_source>  (18) 
gaussian_log

$$$$
