
     RDKit          3D

  4  3  0  0  0  0  0  0  0  0999 V2000
   -0.5192    0.5067    0.5114 O   0  0  0  0  0  0  0  0  0  0  0  0
    0.5296    0.4929   -0.3599 N   0  0  0  0  0  0  0  0  0  0  0  0
    0.7996   -0.5796   -0.7553 O   0  0  0  0  0  0  0  0  0  0  0  0
   -0.8100   -0.4200    0.6039 H   0  0  0  0  0  0  0  0  0  0  0  0
  1  2  1  0
  1  4  1  0
  2  3  2  0
M  END
>  <reaction>  (1) 
rmg_rxn_1493

>  <mol_properties>  (1) 
{"0": {"label": "donator", "atom_type": "O2s"}, "3": {"label": "d_hydrogen", "atom_type": "H0"}}

>  <type>  (1) 
r1h

$$$$

     RDKit          3D

  4  3  0  0  0  0  0  0  0  0999 V2000
   -0.8019    0.4189    0.0192 N   0  0  0  0  0  0  0  0  0  0  0  0
    0.3609    0.8266    0.0061 N   0  0  0  0  0  0  0  0  0  0  0  0
    0.8339    1.9183    0.0142 O   0  0  0  0  0  1  0  0  0  0  0  0
   -0.7779   -0.6002    0.0040 H   0  0  0  0  0  0  0  0  0  0  0  0
  1  2  2  3
  1  4  1  0
  2  3  1  0
M  RAD  1   3   2
M  END
>  <reaction>  (2) 
rmg_rxn_1493

>  <mol_properties>  (2) 
{"0": {"label": "acceptor", "atom_type": "N3s"}}

>  <type>  (2) 
r2

$$$$

     RDKit          3D

  5  4  0  0  0  0  0  0  0  0999 V2000
   -0.4583    0.0384    0.1517 N   0  0  0  0  0  0  0  0  0  0  0  0
    0.7454   -0.3487    0.5322 N   0  0  0  0  0  0  0  0  0  0  0  0
    0.7566   -1.0388    1.5193 O   0  0  0  0  0  0  0  0  0  0  0  0
   -1.2688   -0.2521    0.6850 H   0  0  0  0  0  0  0  0  0  0  0  0
   -0.5137    0.6154   -0.6670 H   0  0  0  0  0  0  0  0  0  0  0  0
  1  2  1  0
  1  4  1  0
  1  5  1  0
  2  3  2  0
M  END
>  <reaction>  (3) 
rmg_rxn_1493

>  <mol_properties>  (3) 
{"0": {"label": "a_hydrogen", "atom_type": "H0"}, "1": {"label": "acceptor", "atom_type": "N3s"}}

>  <type>  (3) 
r2h

$$$$

     RDKit          3D

  8  6  0  0  0  0  0  0  0  0999 V2000
    0.4113   -0.1299    1.6763 O   0  0  0  0  0  0  0  0  0  0  0  0
    0.2500   -1.3246    1.2964 N   0  0  0  0  0  0  0  0  0  0  0  0
   -0.0287   -1.5559    0.1564 O   0  0  0  0  0  1  0  0  0  0  0  0
    0.2512    0.7001    0.7373 H   0  0  0  0  0  0  0  0  0  0  0  0
    0.1073    1.5441   -0.1411 N   0  0  0  0  0  0  0  0  0  0  0  0
   -0.2304    1.2444   -1.3215 N   0  0  0  0  0  0  0  0  0  0  0  0
   -0.4345    0.1245   -1.6816 O   0  0  0  0  0  0  0  0  0  0  0  0
    0.2353    2.5406   -0.0258 H   0  0  0  0  0  0  0  0  0  0  0  0
  1  2  2  0
  2  3  1  0
  4  5  1  0
  5  6  1  0
  5  8  1  0
  6  7  2  0
M  RAD  1   3   2
M  END
>  <reaction>  (4) 
rmg_rxn_1493

>  <mol_properties>  (4) 
{"0": {"label": "*3", "atom_type": "O2d"}, "1": {"label": "*4", "atom_type": "N3d"}, "3": {"label": "*2", "atom_type": "H0"}, "4": {"label": "*1", "atom_type": "N3s"}, "5": {"label": "*0", "atom_type": "N3d"}}

>  <type>  (4) 
ts

$$$$

     RDKit          3D

  8  6  0  0  0  0  0  0  0  0999 V2000
    1.0005   -0.9677    0.0010 O   0  0  0  0  0  0  0  0  0  0  0  0
    2.1279   -0.4207   -0.0003 N   0  0  0  0  0  0  0  0  0  0  0  0
    2.2541    0.7742   -0.0010 O   0  0  0  0  0  0  0  0  0  0  0  0
    0.0700   -0.2443    0.0013 H   0  0  0  0  0  0  0  0  0  0  0  0
   -0.7775    0.6346    0.0013 N   0  0  0  0  0  0  0  0  0  0  0  0
   -2.0183    0.5023    0.0002 N   0  0  0  0  0  0  0  0  0  0  0  0
   -2.6460   -0.5187   -0.0012 O   0  0  0  0  0  1  0  0  0  0  0  0
   -0.4491    1.5955    0.0023 H   0  0  0  0  0  0  0  0  0  0  0  0
  1  2  1  0
  1  4  1  0
  2  3  2  0
  5  6  2  3
  5  8  1  0
  6  7  1  0
M  RAD  1   7   2
M  END
>  <reaction>  (5) 
rmg_rxn_1493

>  <mol_properties>  (5) 
{"0": {"label": "*3", "atom_type": "O2d"}, "1": {"label": "*4", "atom_type": "N3d"}, "3": {"label": "*2", "atom_type": "H0"}, "4": {"label": "*1", "atom_type": "N3s"}, "5": {"label": "*0", "atom_type": "N3d"}}

>  <type>  (5) 
unop_1

>  <geom_source>  (5) 
crest_best.xyz

$$$$

     RDKit          3D

  8  6  0  0  0  0  0  0  0  0999 V2000
    0.5044   -0.5496    1.3100 O   0  0  0  0  0  0  0  0  0  0  0  0
    0.5044   -1.7987    0.7631 N   0  0  0  0  0  0  0  0  0  0  0  0
    0.5044   -1.7987   -0.4115 O   0  0  0  0  0  0  0  0  0  0  0  0
    0.5044    0.2018    0.4120 H   0  0  0  0  0  0  0  0  0  0  0  0
    0.5044    0.9817   -0.5201 N   0  0  0  0  0  0  0  0  0  0  0  0
   -0.4900    1.8403   -0.6517 N   0  0  0  0  0  0  0  0  0  0  0  0
   -1.5854    1.3549   -0.5279 O   0  0  0  0  0  1  0  0  0  0  0  0
    1.4350    1.3440   -0.6159 H   0  0  0  0  0  0  0  0  0  0  0  0
  1  2  1  0
  1  4  1  0
  2  3  2  0
  5  6  2  3
  5  8  1  0
  6  7  1  0
M  RAD  1   7   2
M  END
>  <reaction>  (6) 
rmg_rxn_1493

>  <mol_properties>  (6) 
{"0": {"label": "*3", "atom_type": "O2d"}, "1": {"label": "*4", "atom_type": "N3d"}, "3": {"label": "*2", "atom_type": "H0"}, "4": {"label": "*1", "atom_type": "N3s"}, "5": {"label": "*0", "atom_type": "N3d"}}

>  <type>  (6) 
unop_2

>  <geom_source>  (6) 
Heuristics

$$$$

     RDKit          3D

  8  6  0  0  0  0  0  0  0  0999 V2000
    1.0005    0.9676   -0.0028 O   0  0  0  0  0  0  0  0  0  0  0  0
    2.1279    0.4207    0.0007 N   0  0  0  0  0  0  0  0  0  0  0  0
    2.2542   -0.7741    0.0031 O   0  0  0  0  0  0  0  0  0  0  0  0
    0.0699    0.2442   -0.0031 H   0  0  0  0  0  0  0  0  0  0  0  0
   -0.7775   -0.6347   -0.0039 N   0  0  0  0  0  0  0  0  0  0  0  0
   -2.0183   -0.5023   -0.0005 N   0  0  0  0  0  0  0  0  0  0  0  0
   -2.6460    0.5187    0.0035 O   0  0  0  0  0  1  0  0  0  0  0  0
   -0.4492   -1.5956   -0.0067 H   0  0  0  0  0  0  0  0  0  0  0  0
  1  2  1  0
  1  4  1  0
  2  3  2  0
  5  6  2  3
  5  8  1  0
  6  7  1  0
M  RAD  1   7   2
M  END
>  <reaction>  (7) 
rmg_rxn_1493

>  <mol_properties>  (7) 
{"0": {"label": "*3", "atom_type": "O2d"}, "1": {"label": "*4", "atom_type": "N3d"}, "3": {"label": "*2", "atom_type": "H0"}, "4": {"label": "*1", "atom_type": "N3s"}, "5": {"label": "*0", "atom_type": "N3d"}}

>  <type>  (7) 
unop_3

>  <geom_source>  (7) 
Heuristics

$$$$

     RDKit          3D

  8  6  0  0  0  0  0  0  0  0999 V2000
    0.2149   -0.0425    1.6800 O   0  0  0  0  0  0  0  0  0  0  0  0
    0.2149   -1.2916    1.1331 N   0  0  0  0  0  0  0  0  0  0  0  0
    0.2149   -1.2916   -0.0415 O   0  0  0  0  0  0  0  0  0  0  0  0
    0.2149    0.7089    0.7820 H   0  0  0  0  0  0  0  0  0  0  0  0
    0.2149    1.4888   -0.1501 N   0  0  0  0  0  0  0  0  0  0  0  0
   -0.3592    1.1444   -1.2882 N   0  0  0  0  0  0  0  0  0  0  0  0
   -0.5287   -0.0407   -1.4207 O   0  0  0  0  0  1  0  0  0  0  0  0
    0.3750    2.4674    0.0017 H   0  0  0  0  0  0  0  0  0  0  0  0
  1  2  1  0
  1  4  1  0
  2  3  2  0
  5  6  2  3
  5  8  1  0
  6  7  1  0
M  RAD  1   7   2
M  END
>  <reaction>  (8) 
rmg_rxn_1493

>  <mol_properties>  (8) 
{"0": {"label": "*3", "atom_type": "O2d"}, "1": {"label": "*4", "atom_type": "N3d"}, "3": {"label": "*2", "atom_type": "H0"}, "4": {"label": "*1", "atom_type": "N3s"}, "5": {"label": "*0", "atom_type": "N3d"}}

>  <type>  (8) 
unop_4

>  <geom_source>  (8) 
Heuristics

$$$$

     RDKit          3D

  8  6  0  0  0  0  0  0  0  0999 V2000
    0.3550   -0.7321    1.1368 O   0  0  0  0  0  0  0  0  0  0  0  0
    0.3550   -1.9812    0.5898 N   0  0  0  0  0  0  0  0  0  0  0  0
    0.3550   -1.9812   -0.5847 O   0  0  0  0  0  0  0  0  0  0  0  0
    0.3550    0.0192    0.2388 H   0  0  0  0  0  0  0  0  0  0  0  0
    0.3550    0.7991   -0.6933 N   0  0  0  0  0  0  0  0  0  0  0  0
   -0.2191    1.9801   -0.5552 N   0  0  0  0  0  0  0  0  0  0  0  0
   -1.2383    1.9652    0.0865 O   0  0  0  0  0  1  0  0  0  0  0  0
    1.2074    0.7658   -1.2213 H   0  0  0  0  0  0  0  0  0  0  0  0
  1  2  1  0
  1  4  1  0
  2  3  2  0
  5  6  2  3
  5  8  1  0
  6  7  1  0
M  RAD  1   7   2
M  END
>  <reaction>  (9) 
rmg_rxn_1493

>  <mol_properties>  (9) 
{"0": {"label": "*3", "atom_type": "O2d"}, "1": {"label": "*4", "atom_type": "N3d"}, "3": {"label": "*2", "atom_type": "H0"}, "4": {"label": "*1", "atom_type": "N3s"}, "5": {"label": "*0", "atom_type": "N3d"}}

>  <type>  (9) 
unop_5

>  <geom_source>  (9) 
Heuristics

$$$$

     RDKit          3D

  8  6  0  0  0  0  0  0  0  0999 V2000
   -0.3999   -0.1623    1.6032 O   0  0  0  0  0  0  0  0  0  0  0  0
   -0.3999   -1.4115    1.0563 N   0  0  0  0  0  0  0  0  0  0  0  0
   -0.3999   -1.4115   -0.1183 O   0  0  0  0  0  0  0  0  0  0  0  0
   -0.3999    0.5890    0.7053 H   0  0  0  0  0  0  0  0  0  0  0  0
   -0.3999    1.3689   -0.2269 N   0  0  0  0  0  0  0  0  0  0  0  0
    0.5945    1.3469   -1.0953 N   0  0  0  0  0  0  0  0  0  0  0  0
    1.0560    0.2523   -1.2947 O   0  0  0  0  0  1  0  0  0  0  0  0
   -0.8141    2.2613   -0.0310 H   0  0  0  0  0  0  0  0  0  0  0  0
  1  2  1  0
  1  4  1  0
  2  3  2  0
  5  6  2  3
  5  8  1  0
  6  7  1  0
M  RAD  1   7   2
M  END
>  <reaction>  (10) 
rmg_rxn_1493

>  <mol_properties>  (10) 
{"0": {"label": "*3", "atom_type": "O2d"}, "1": {"label": "*4", "atom_type": "N3d"}, "3": {"label": "*2", "atom_type": "H0"}, "4": {"label": "*1", "atom_type": "N3s"}, "5": {"label": "*0", "atom_type": "N3d"}}

>  <type>  (10) 
unop_6

>  <geom_source>  (10) 
Heuristics

$$$$

     RDKit          3D

  8  6  0  0  0  0  0  0  0  0999 V2000
    1.0006   -0.9677   -0.0001 O   0  0  0  0  0  0  0  0  0  0  0  0
    2.1280   -0.4206    0.0001 N   0  0  0  0  0  0  0  0  0  0  0  0
    2.2541    0.7742   -0.0000 O   0  0  0  0  0  0  0  0  0  0  0  0
    0.0700   -0.2443   -0.0001 H   0  0  0  0  0  0  0  0  0  0  0  0
   -0.7775    0.6346   -0.0001 N   0  0  0  0  0  0  0  0  0  0  0  0
   -2.0183    0.5022    0.0001 N   0  0  0  0  0  0  0  0  0  0  0  0
   -2.6461   -0.5186    0.0000 O   0  0  0  0  0  1  0  0  0  0  0  0
   -0.4490    1.5954   -0.0000 H   0  0  0  0  0  0  0  0  0  0  0  0
  1  2  1  0
  1  4  1  0
  2  3  2  0
  5  6  2  3
  5  8  1  0
  6  7  1  0
M  RAD  1   7   2
M  END
>  <reaction>  (11) 
rmg_rxn_1493

>  <mol_properties>  (11) 
{"0": {"label": "*3", "atom_type": "O2d"}, "1": {"label": "*4", "atom_type": "N3d"}, "3": {"label": "*2", "atom_type": "H0"}, "4": {"label": "*1", "atom_type": "N3s"}, "5": {"label": "*0", "atom_type": "N3d"}}

>  <type>  (11) 
unop_7

>  <geom_source>  (11) 
Heuristics

$$$$

     RDKit          3D

  8  6  0  0  0  0  0  0  0  0999 V2000
    0.0000   -0.8212    1.0177 O   0  0  0  0  0  0  0  0  0  0  0  0
    0.0000   -2.0703    0.4708 N   0  0  0  0  0  0  0  0  0  0  0  0
    0.0000   -2.0703   -0.7038 O   0  0  0  0  0  0  0  0  0  0  0  0
   -0.0000   -0.0698    0.1198 H   0  0  0  0  0  0  0  0  0  0  0  0
   -0.0000    0.7101   -0.8124 N   0  0  0  0  0  0  0  0  0  0  0  0
   -0.0000    2.0091   -0.5755 N   0  0  0  0  0  0  0  0  0  0  0  0
    0.0000    2.3011    0.5931 O   0  0  0  0  0  1  0  0  0  0  0  0
   -0.0000    0.4221   -1.7733 H   0  0  0  0  0  0  0  0  0  0  0  0
  1  2  1  0
  1  4  1  0
  2  3  2  0
  5  6  2  3
  5  8  1  0
  6  7  1  0
M  RAD  1   7   2
M  END
>  <reaction>  (12) 
rmg_rxn_1493

>  <mol_properties>  (12) 
{"0": {"label": "*3", "atom_type": "O2d"}, "1": {"label": "*4", "atom_type": "N3d"}, "3": {"label": "*2", "atom_type": "H0"}, "4": {"label": "*1", "atom_type": "N3s"}, "5": {"label": "*0", "atom_type": "N3d"}}

>  <type>  (12) 
unop_8

>  <geom_source>  (12) 
Heuristics

$$$$

     RDKit          3D

  8  6  0  0  0  0  0  0  0  0999 V2000
    1.0006   -0.9676    0.0003 O   0  0  0  0  0  0  0  0  0  0  0  0
    2.1279   -0.4206   -0.0001 N   0  0  0  0  0  0  0  0  0  0  0  0
    2.2540    0.7741   -0.0004 O   0  0  0  0  0  0  0  0  0  0  0  0
    0.0700   -0.2443    0.0008 H   0  0  0  0  0  0  0  0  0  0  0  0
   -0.7775    0.6346    0.0005 N   0  0  0  0  0  0  0  0  0  0  0  0
   -2.0183    0.5022    0.0000 N   0  0  0  0  0  0  0  0  0  0  0  0
   -2.6460   -0.5187   -0.0004 O   0  0  0  0  0  1  0  0  0  0  0  0
   -0.4491    1.5955    0.0009 H   0  0  0  0  0  0  0  0  0  0  0  0
  1  2  1  0
  1  4  1  0
  2  3  2  0
  5  6  2  3
  5  8  1  0
  6  7  1  0
M  RAD  1   7   2
M  END
>  <reaction>  (13) 
rmg_rxn_1493

>  <mol_properties>  (13) 
{"0": {"label": "*3", "atom_type": "O2d"}, "1": {"label": "*4", "atom_type": "N3d"}, "3": {"label": "*2", "atom_type": "H0"}, "4": {"label": "*1", "atom_type": "N3s"}, "5": {"label": "*0", "atom_type": "N3d"}}

>  <type>  (13) 
unop_9

>  <geom_source>  (13) 
Heuristics

$$$$

     RDKit          3D

  8  6  0  0  0  0  0  0  0  0999 V2000
   -0.5100   -0.3435    1.4736 O   0  0  0  0  0  0  0  0  0  0  0  0
   -0.5100   -1.5926    0.9266 N   0  0  0  0  0  0  0  0  0  0  0  0
   -0.5100   -1.5926   -0.2479 O   0  0  0  0  0  0  0  0  0  0  0  0
   -0.5100    0.4079    0.5756 H   0  0  0  0  0  0  0  0  0  0  0  0
   -0.5100    1.1878   -0.3565 N   0  0  0  0  0  0  0  0  0  0  0  0
    0.6382    1.6061   -0.8565 N   0  0  0  0  0  0  0  0  0  0  0  0
    1.4639    0.7404   -0.9970 O   0  0  0  0  0  1  0  0  0  0  0  0
   -1.2268    1.8768   -0.2228 H   0  0  0  0  0  0  0  0  0  0  0  0
  1  2  1  0
  1  4  1  0
  2  3  2  0
  5  6  2  3
  5  8  1  0
  6  7  1  0
M  RAD  1   7   2
M  END
>  <reaction>  (14) 
rmg_rxn_1493

>  <mol_properties>  (14) 
{"0": {"label": "*3", "atom_type": "O2d"}, "1": {"label": "*4", "atom_type": "N3d"}, "3": {"label": "*2", "atom_type": "H0"}, "4": {"label": "*1", "atom_type": "N3s"}, "5": {"label": "*0", "atom_type": "N3d"}}

>  <type>  (14) 
unop_10

>  <geom_source>  (14) 
Heuristics

$$$$

     RDKit          3D

  8  6  0  0  0  0  0  0  0  0999 V2000
    1.0005    0.9677    0.0003 O   0  0  0  0  0  0  0  0  0  0  0  0
    2.1279    0.4206   -0.0001 N   0  0  0  0  0  0  0  0  0  0  0  0
    2.2541   -0.7742   -0.0004 O   0  0  0  0  0  0  0  0  0  0  0  0
    0.0700    0.2443    0.0002 H   0  0  0  0  0  0  0  0  0  0  0  0
   -0.7775   -0.6346    0.0005 N   0  0  0  0  0  0  0  0  0  0  0  0
   -2.0183   -0.5023    0.0001 N   0  0  0  0  0  0  0  0  0  0  0  0
   -2.6460    0.5187   -0.0004 O   0  0  0  0  0  1  0  0  0  0  0  0
   -0.4491   -1.5955    0.0007 H   0  0  0  0  0  0  0  0  0  0  0  0
  1  2  1  0
  1  4  1  0
  2  3  2  0
  5  6  2  3
  5  8  1  0
  6  7  1  0
M  RAD  1   7   2
M  END
>  <reaction>  (15) 
rmg_rxn_1493

>  <mol_properties>  (15) 
{"0": {"label": "*3", "atom_type": "O2d"}, "1": {"label": "*4", "atom_type": "N3d"}, "3": {"label": "*2", "atom_type": "H0"}, "4": {"label": "*1", "atom_type": "N3s"}, "5": {"label": "*0", "atom_type": "N3d"}}

>  <type>  (15) 
unop_11

>  <geom_source>  (15) 
Heuristics

$$$$

     RDKit          3D

  8  6  0  0  0  0  0  0  0  0999 V2000
   -0.5044   -0.5496    1.3100 O   0  0  0  0  0  0  0  0  0  0  0  0
   -0.5044   -1.7987    0.7631 N   0  0  0  0  0  0  0  0  0  0  0  0
   -0.5044   -1.7987   -0.4115 O   0  0  0  0  0  0  0  0  0  0  0  0
   -0.5044    0.2018    0.4120 H   0  0  0  0  0  0  0  0  0  0  0  0
   -0.5044    0.9817   -0.5201 N   0  0  0  0  0  0  0  0  0  0  0  0
    0.4900    1.8403   -0.6517 N   0  0  0  0  0  0  0  0  0  0  0  0
    1.5854    1.3549   -0.5279 O   0  0  0  0  0  1  0  0  0  0  0  0
   -1.4350    1.3440   -0.6159 H   0  0  0  0  0  0  0  0  0  0  0  0
  1  2  1  0
  1  4  1  0
  2  3  2  0
  5  6  2  3
  5  8  1  0
  6  7  1  0
M  RAD  1   7   2
M  END
>  <reaction>  (16) 
rmg_rxn_1493

>  <mol_properties>  (16) 
{"0": {"label": "*3", "atom_type": "O2d"}, "1": {"label": "*4", "atom_type": "N3d"}, "3": {"label": "*2", "atom_type": "H0"}, "4": {"label": "*1", "atom_type": "N3s"}, "5": {"label": "*0", "atom_type": "N3d"}}

>  <type>  (16) 
unop_12

>  <geom_source>  (16) 
Heuristics

$$$$

     RDKit          3D

  8  6  0  0  0  0  0  0  0  0999 V2000
    0.5100   -0.3435    1.4736 O   0  0  0  0  0  0  0  0  0  0  0  0
    0.5100   -1.5926    0.9266 N   0  0  0  0  0  0  0  0  0  0  0  0
    0.5100   -1.5926   -0.2479 O   0  0  0  0  0  0  0  0  0  0  0  0
    0.5100    0.4079    0.5756 H   0  0  0  0  0  0  0  0  0  0  0  0
    0.5100    1.1878   -0.3565 N   0  0  0  0  0  0  0  0  0  0  0  0
   -0.6382    1.6061   -0.8565 N   0  0  0  0  0  0  0  0  0  0  0  0
   -1.4639    0.7404   -0.9970 O   0  0  0  0  0  1  0  0  0  0  0  0
    1.2268    1.8768   -0.2228 H   0  0  0  0  0  0  0  0  0  0  0  0
  1  2  1  0
  1  4  1  0
  2  3  2  0
  5  6  2  3
  5  8  1  0
  6  7  1  0
M  RAD  1   7   2
M  END
>  <reaction>  (17) 
rmg_rxn_1493

>  <mol_properties>  (17) 
{"0": {"label": "*3", "atom_type": "O2d"}, "1": {"label": "*4", "atom_type": "N3d"}, "3": {"label": "*2", "atom_type": "H0"}, "4": {"label": "*1", "atom_type": "N3s"}, "5": {"label": "*0", "atom_type": "N3d"}}

>  <type>  (17) 
unop_13

>  <geom_source>  (17) 
Heuristics

$$$$

     RDKit          3D

  8  6  0  0  0  0  0  0  0  0999 V2000
    1.0005   -0.9677    0.0010 O   0  0  0  0  0  0  0  0  0  0  0  0
    2.1279   -0.4207   -0.0003 N   0  0  0  0  0  0  0  0  0  0  0  0
    2.2541    0.7742   -0.0010 O   0  0  0  0  0  0  0  0  0  0  0  0
    0.0700   -0.2443    0.0013 H   0  0  0  0  0  0  0  0  0  0  0  0
   -0.7775    0.6346    0.0013 N   0  0  0  0  0  0  0  0  0  0  0  0
   -2.0183    0.5023    0.0002 N   0  0  0  0  0  0  0  0  0  0  0  0
   -2.6460   -0.5187   -0.0012 O   0  0  0  0  0  1  0  0  0  0  0  0
   -0.4491    1.5955    0.0023 H   0  0  0  0  0  0  0  0  0  0  0  0
  1  2  1  0
  1  4  1  0
  2  3  2  0
  5  6  2  3
  5  8  1  0
  6  7  1  0
M  RAD  1   7   2
M  END
>  <reaction>  (18) 
rmg_rxn_1493

>  <mol_properties>  (18) 
{"0": {"label": "*3", "atom_type": "O2d"}, "1": {"label": "*4", "atom_type": "N3d"}, "3": {"label": "*2", "atom_type": "H0"}, "4": {"label": "*1", "atom_type": "N3s"}, "5": {"label": "*0", "atom_type": "N3d"}}

>  <type>  (18) 
unop_14

>  <geom_source>  (18) 
Heuristics

$$$$

     RDKit          3D

  8  6  0  0  0  0  0  0  0  0999 V2000
   -0.2149   -0.0425    1.6800 O   0  0  0  0  0  0  0  0  0  0  0  0
   -0.2149   -1.2916    1.1331 N   0  0  0  0  0  0  0  0  0  0  0  0
   -0.2149   -1.2916   -0.0415 O   0  0  0  0  0  0  0  0  0  0  0  0
   -0.2149    0.7089    0.7820 H   0  0  0  0  0  0  0  0  0  0  0  0
   -0.2149    1.4888   -0.1501 N   0  0  0  0  0  0  0  0  0  0  0  0
    0.3592    1.1444   -1.2882 N   0  0  0  0  0  0  0  0  0  0  0  0
    0.5287   -0.0407   -1.4207 O   0  0  0  0  0  1  0  0  0  0  0  0
   -0.3750    2.4674    0.0017 H   0  0  0  0  0  0  0  0  0  0  0  0
  1  2  1  0
  1  4  1  0
  2  3  2  0
  5  6  2  3
  5  8  1  0
  6  7  1  0
M  RAD  1   7   2
M  END
>  <reaction>  (19) 
rmg_rxn_1493

>  <mol_properties>  (19) 
{"0": {"label": "*3", "atom_type": "O2d"}, "1": {"label": "*4", "atom_type": "N3d"}, "3": {"label": "*2", "atom_type": "H0"}, "4": {"label": "*1", "atom_type": "N3s"}, "5": {"label": "*0", "atom_type": "N3d"}}

>  <type>  (19) 
unop_15

>  <geom_source>  (19) 
Heuristics

$$$$

     RDKit          3D

  8  6  0  0  0  0  0  0  0  0999 V2000
    0.3999   -0.1623    1.6032 O   0  0  0  0  0  0  0  0  0  0  0  0
    0.3999   -1.4115    1.0563 N   0  0  0  0  0  0  0  0  0  0  0  0
    0.3999   -1.4115   -0.1183 O   0  0  0  0  0  0  0  0  0  0  0  0
    0.3999    0.5890    0.7053 H   0  0  0  0  0  0  0  0  0  0  0  0
    0.3999    1.3689   -0.2269 N   0  0  0  0  0  0  0  0  0  0  0  0
   -0.5945    1.3469   -1.0953 N   0  0  0  0  0  0  0  0  0  0  0  0
   -1.0560    0.2523   -1.2947 O   0  0  0  0  0  1  0  0  0  0  0  0
    0.8141    2.2613   -0.0310 H   0  0  0  0  0  0  0  0  0  0  0  0
  1  2  1  0
  1  4  1  0
  2  3  2  0
  5  6  2  3
  5  8  1  0
  6  7  1  0
M  RAD  1   7   2
M  END
>  <reaction>  (20) 
rmg_rxn_1493

>  <mol_properties>  (20) 
{"0": {"label": "*3", "atom_type": "O2d"}, "1": {"label": "*4", "atom_type": "N3d"}, "3": {"label": "*2", "atom_type": "H0"}, "4": {"label": "*1", "atom_type": "N3s"}, "5": {"label": "*0", "atom_type": "N3d"}}

>  <type>  (20) 
unop_16

>  <geom_source>  (20) 
Heuristics

$$$$

     RDKit          3D

  8  6  0  0  0  0  0  0  0  0999 V2000
   -0.3550   -0.7321    1.1368 O   0  0  0  0  0  0  0  0  0  0  0  0
   -0.3550   -1.9812    0.5898 N   0  0  0  0  0  0  0  0  0  0  0  0
   -0.3550   -1.9812   -0.5847 O   0  0  0  0  0  0  0  0  0  0  0  0
   -0.3550    0.0192    0.2388 H   0  0  0  0  0  0  0  0  0  0  0  0
   -0.3550    0.7991   -0.6933 N   0  0  0  0  0  0  0  0  0  0  0  0
    0.2191    1.9801   -0.5552 N   0  0  0  0  0  0  0  0  0  0  0  0
    1.2383    1.9652    0.0865 O   0  0  0  0  0  1  0  0  0  0  0  0
   -1.2074    0.7658   -1.2213 H   0  0  0  0  0  0  0  0  0  0  0  0
  1  2  1  0
  1  4  1  0
  2  3  2  0
  5  6  2  3
  5  8  1  0
  6  7  1  0
M  RAD  1   7   2
M  END
>  <reaction>  (21) 
rmg_rxn_1493

>  <mol_properties>  (21) 
{"0": {"label": "*3", "atom_type": "O2d"}, "1": {"label": "*4", "atom_type": "N3d"}, "3": {"label": "*2", "atom_type": "H0"}, "4": {"label": "*1", "atom_type": "N3s"}, "5": {"label": "*0", "atom_type": "N3d"}}

>  <type>  (21) 
unop_17

>  <geom_source>  (21) 
Heuristics

$$$$

     RDKit          3D

  8  6  0  0  0  0  0  0  0  0999 V2000
    0.0000   -0.0013    1.7037 O   0  0  0  0  0  0  0  0  0  0  0  0
    0.0000   -1.2504    1.1568 N   0  0  0  0  0  0  0  0  0  0  0  0
    0.0000   -1.2504   -0.0178 O   0  0  0  0  0  0  0  0  0  0  0  0
    0.0000    0.7500    0.8057 H   0  0  0  0  0  0  0  0  0  0  0  0
   -0.0000    1.5299   -0.1264 N   0  0  0  0  0  0  0  0  0  0  0  0
   -0.0000    1.0676   -1.3632 N   0  0  0  0  0  0  0  0  0  0  0  0
   -0.0000   -0.1341   -1.4445 O   0  0  0  0  0  1  0  0  0  0  0  0
    0.0000    2.5266   -0.0125 H   0  0  0  0  0  0  0  0  0  0  0  0
  1  2  1  0
  1  4  1  0
  2  3  2  0
  5  6  2  3
  5  8  1  0
  6  7  1  0
M  RAD  1   7   2
M  END
>  <reaction>  (22) 
rmg_rxn_1493

>  <mol_properties>  (22) 
{"0": {"label": "*3", "atom_type": "O2d"}, "1": {"label": "*4", "atom_type": "N3d"}, "3": {"label": "*2", "atom_type": "H0"}, "4": {"label": "*1", "atom_type": "N3s"}, "5": {"label": "*0", "atom_type": "N3d"}}

>  <type>  (22) 
unop_18

>  <geom_source>  (22) 
Heuristics

$$$$

     RDKit          3D

  8  6  0  0  0  0  0  0  0  0999 V2000
    0.2149   -0.0425    1.6800 O   0  0  0  0  0  0  0  0  0  0  0  0
    0.2149   -1.2916    1.1331 N   0  0  0  0  0  0  0  0  0  0  0  0
    0.2149   -1.2916   -0.0415 O   0  0  0  0  0  0  0  0  0  0  0  0
    0.2149    0.7089    0.7820 H   0  0  0  0  0  0  0  0  0  0  0  0
    0.2149    1.4888   -0.1501 N   0  0  0  0  0  0  0  0  0  0  0  0
   -0.3593    1.1444   -1.2882 N   0  0  0  0  0  0  0  0  0  0  0  0
   -0.5287   -0.0407   -1.4207 O   0  0  0  0  0  1  0  0  0  0  0  0
    0.3750    2.4674    0.0017 H   0  0  0  0  0  0  0  0  0  0  0  0
  1  2  1  0
  1  4  1  0
  2  3  2  0
  5  6  2  3
  5  8  1  0
  6  7  1  0
M  RAD  1   7   2
M  END
>  <reaction>  (23) 
rmg_rxn_1493

>  <mol_properties>  (23) 
{"0": {"label": "*3", "atom_type": "O2d"}, "1": {"label": "*4", "atom_type": "N3d"}, "3": {"label": "*2", "atom_type": "H0"}, "4": {"label": "*1", "atom_type": "N3s"}, "5": {"label": "*0", "atom_type": "N3d"}}

>  <type>  (23) 
unop_19

>  <geom_source>  (23) 
gaussian_log

$$$$
