
     RDKit          3D

  8  7  0  0  0  0  0  0  0  0999 V2000
    0.9548    0.1194   -0.0790 C   0  0  0  0  0  0  0  0  0  0  0  0
   -0.4838   -0.2649    0.0193 C   0  0  0  0  0  0  0  0  0  0  0  0
   -0.8933   -1.1081    0.8664 N   0  0  0  0  0  0  0  0  0  0  0  0
    1.3360   -0.0983   -1.0800 H   0  0  0  0  0  0  0  0  0  0  0  0
    1.0698    1.1948    0.0786 H   0  0  0  0  0  0  0  0  0  0  0  0
    1.5426   -0.4219    0.6602 H   0  0  0  0  0  0  0  0  0  0  0  0
   -1.1575    0.2324   -0.6905 H   0  0  0  0  0  0  0  0  0  0  0  0
   -1.8989   -1.2455    0.7886 H   0  0  0  0  0  0  0  0  0  0  0  0
  1  2  1  0
  1  4  1  0
  1  5  1  0
  1  6  1  0
  2  3  2  3
  2  7  1  0
  3  8  1  0
M  END
>  <reaction>  (1) 
rmg_rxn_16533

>  <mol_properties>  (1) 
{"2": {"label": "donator", "atom_type": "N3d"}, "7": {"label": "d_hydrogen", "atom_type": "H0"}}

>  <type>  (1) 
r1h

$$$$

     RDKit          3D

 14 13  0  0  0  0  0  0  0  0999 V2000
   -1.9167    0.6959   -0.2757 C   0  0  0  0  0  3  0  0  0  0  0  0
   -1.2132   -0.5025    0.2432 C   0  0  0  0  0  0  0  0  0  0  0  0
   -2.1451   -1.6324    0.6428 C   0  0  0  0  0  0  0  0  0  0  0  0
   -2.9617   -1.2014    1.7018 O   0  0  0  0  0  0  0  0  0  0  0  0
   -3.8940   -2.1678    2.0979 C   0  0  0  0  0  0  0  0  0  0  0  0
   -2.9039    0.9452    0.0878 H   0  0  0  0  0  0  0  0  0  0  0  0
   -1.3969    1.4143   -0.8945 H   0  0  0  0  0  0  0  0  0  0  0  0
   -0.5037   -0.8823   -0.4987 H   0  0  0  0  0  0  0  0  0  0  0  0
   -0.6099   -0.2396    1.1256 H   0  0  0  0  0  0  0  0  0  0  0  0
   -2.7665   -1.9311   -0.2146 H   0  0  0  0  0  0  0  0  0  0  0  0
   -1.5607   -2.5114    0.9518 H   0  0  0  0  0  0  0  0  0  0  0  0
   -3.4000   -3.0856    2.4446 H   0  0  0  0  0  0  0  0  0  0  0  0
   -4.4753   -1.7487    2.9180 H   0  0  0  0  0  0  0  0  0  0  0  0
   -4.5741   -2.4312    1.2767 H   0  0  0  0  0  0  0  0  0  0  0  0
  1  2  1  0
  1  6  1  0
  1  7  1  0
  2  3  1  0
  2  8  1  0
  2  9  1  0
  3  4  1  0
  3 10  1  0
  3 11  1  0
  4  5  1  0
  5 12  1  0
  5 13  1  0
  5 14  1  0
M  RAD  1   1   2
M  END
>  <reaction>  (2) 
rmg_rxn_16533

>  <mol_properties>  (2) 
{"0": {"label": "acceptor", "atom_type": "Cs"}}

>  <type>  (2) 
r2

$$$$

     RDKit          3D

 15 14  0  0  0  0  0  0  0  0999 V2000
   -1.2811   -0.4129    1.0228 C   0  0  0  0  0  0  0  0  0  0  0  0
   -1.0023   -0.5809   -0.4650 C   0  0  0  0  0  0  0  0  0  0  0  0
   -2.0576    0.0568   -1.3449 C   0  0  0  0  0  0  0  0  0  0  0  0
   -2.0663    1.4464   -1.1307 O   0  0  0  0  0  0  0  0  0  0  0  0
   -3.0424    2.1072   -1.8849 C   0  0  0  0  0  0  0  0  0  0  0  0
   -2.2382   -0.8657    1.2935 H   0  0  0  0  0  0  0  0  0  0  0  0
   -1.3219    0.6426    1.2914 H   0  0  0  0  0  0  0  0  0  0  0  0
   -0.5042   -0.8881    1.6236 H   0  0  0  0  0  0  0  0  0  0  0  0
   -0.0316   -0.1460   -0.7167 H   0  0  0  0  0  0  0  0  0  0  0  0
   -0.9494   -1.6429   -0.7203 H   0  0  0  0  0  0  0  0  0  0  0  0
   -1.8518   -0.1570   -2.4041 H   0  0  0  0  0  0  0  0  0  0  0  0
   -3.0491   -0.3636   -1.1124 H   0  0  0  0  0  0  0  0  0  0  0  0
   -4.0521    1.7545   -1.6343 H   0  0  0  0  0  0  0  0  0  0  0  0
   -2.8850    1.9634   -2.9626 H   0  0  0  0  0  0  0  0  0  0  0  0
   -2.9730    3.1700   -1.6570 H   0  0  0  0  0  0  0  0  0  0  0  0
  1  2  1  0
  1  6  1  0
  1  7  1  0
  1  8  1  0
  2  3  1  0
  2  9  1  0
  2 10  1  0
  3  4  1  0
  3 11  1  0
  3 12  1  0
  4  5  1  0
  5 13  1  0
  5 14  1  0
  5 15  1  0
M  END
>  <reaction>  (3) 
rmg_rxn_16533

>  <mol_properties>  (3) 
{"0": {"label": "a_hydrogen", "atom_type": "H0"}, "1": {"label": "acceptor", "atom_type": "Cs"}}

>  <type>  (3) 
r2h

$$$$

     RDKit          3D

 22 20  0  0  0  0  0  0  0  0999 V2000
   -3.2565    0.2611    0.1355 C   0  0  0  0  0  0  0  0  0  0  0  0
   -1.8978   -0.3611    0.2363 C   0  0  0  0  0  0  0  0  0  0  0  0
   -1.3811   -0.9960   -0.7175 N   0  0  0  0  0  0  0  0  0  0  0  0
   -3.6957    0.0748   -0.8429 H   0  0  0  0  0  0  0  0  0  0  0  0
   -3.9110   -0.1424    0.9118 H   0  0  0  0  0  0  0  0  0  0  0  0
   -3.1826    1.3383    0.3041 H   0  0  0  0  0  0  0  0  0  0  0  0
   -1.3666   -0.2141    1.1836 H   0  0  0  0  0  0  0  0  0  0  0  0
   -0.2852   -1.3795   -0.3632 H   0  0  0  0  0  0  0  0  0  0  0  0
    0.9307   -1.7996    0.1467 C   0  0  0  0  0  3  0  0  0  0  0  0
    2.0023   -0.8457   -0.3040 C   0  0  0  0  0  0  0  0  0  0  0  0
    2.0881    0.4286    0.5278 C   0  0  0  0  0  0  0  0  0  0  0  0
    0.9047    1.1897    0.5678 O   0  0  0  0  0  0  0  0  0  0  0  0
    0.5927    1.8281   -0.6436 C   0  0  0  0  0  0  0  0  0  0  0  0
    0.9754   -2.7890   -0.3033 H   0  0  0  0  0  0  0  0  0  0  0  0
    0.7611   -1.8384    1.2222 H   0  0  0  0  0  0  0  0  0  0  0  0
    2.9843   -1.3323   -0.2388 H   0  0  0  0  0  0  0  0  0  0  0  0
    1.8695   -0.6038   -1.3632 H   0  0  0  0  0  0  0  0  0  0  0  0
    2.3012    0.1681    1.5673 H   0  0  0  0  0  0  0  0  0  0  0  0
    2.9178    1.0503    0.1617 H   0  0  0  0  0  0  0  0  0  0  0  0
    1.4384    2.4296   -1.0024 H   0  0  0  0  0  0  0  0  0  0  0  0
    0.3020    1.1180   -1.4248 H   0  0  0  0  0  0  0  0  0  0  0  0
   -0.2517    2.4890   -0.4505 H   0  0  0  0  0  0  0  0  0  0  0  0
  1  2  1  0
  1  4  1  0
  1  5  1  0
  1  6  1  0
  2  3  2  3
  2  7  1  0
  3  8  1  0
  9 10  1  0
  9 14  1  0
  9 15  1  0
 10 11  1  0
 10 16  1  0
 10 17  1  0
 11 12  1  0
 11 18  1  0
 11 19  1  0
 12 13  1  0
 13 20  1  0
 13 21  1  0
 13 22  1  0
M  RAD  1   9   2
M  END
>  <reaction>  (4) 
rmg_rxn_16533

>  <mol_properties>  (4) 
{"1": {"label": "*0", "atom_type": "Cd"}, "2": {"label": "*1", "atom_type": "N3d"}, "7": {"label": "*2", "atom_type": "H0"}, "8": {"label": "*3", "atom_type": "Cs"}, "9": {"label": "*4", "atom_type": "Cs"}}

>  <type>  (4) 
ts

$$$$

     RDKit          3D

 22 20  0  0  0  0  0  0  0  0999 V2000
   -3.2375    0.3141    0.1772 C   0  0  0  0  0  0  0  0  0  0  0  0
   -1.8869   -0.3178    0.3372 C   0  0  0  0  0  0  0  0  0  0  0  0
   -1.3280   -0.9369   -0.5789 N   0  0  0  0  0  0  0  0  0  0  0  0
   -3.6188    0.1484   -0.8266 H   0  0  0  0  0  0  0  0  0  0  0  0
   -3.9243   -0.1127    0.9064 H   0  0  0  0  0  0  0  0  0  0  0  0
   -3.1557    1.3825    0.3695 H   0  0  0  0  0  0  0  0  0  0  0  0
   -1.4461   -0.1688    1.3313 H   0  0  0  0  0  0  0  0  0  0  0  0
   -0.1883   -1.3807   -0.2863 H   0  0  0  0  0  0  0  0  0  0  0  0
    0.9618   -1.8456    0.0579 C   0  0  0  0  0  3  0  0  0  0  0  0
    2.0295   -0.8452   -0.3044 C   0  0  0  0  0  0  0  0  0  0  0  0
    1.9844    0.4195    0.5616 C   0  0  0  0  0  0  0  0  0  0  0  0
    0.7883    1.1603    0.4880 O   0  0  0  0  0  0  0  0  0  0  0  0
    0.5666    1.7942   -0.7475 C   0  0  0  0  0  0  0  0  0  0  0  0
    1.0449   -2.7711   -0.5008 H   0  0  0  0  0  0  0  0  0  0  0  0
    0.8930   -2.0278    1.1252 H   0  0  0  0  0  0  0  0  0  0  0  0
    3.0217   -1.2920   -0.1638 H   0  0  0  0  0  0  0  0  0  0  0  0
    1.9446   -0.5774   -1.3598 H   0  0  0  0  0  0  0  0  0  0  0  0
    2.0726    0.1430    1.6163 H   0  0  0  0  0  0  0  0  0  0  0  0
    2.8367    1.0665    0.2967 H   0  0  0  0  0  0  0  0  0  0  0  0
    1.4531    2.3563   -1.0667 H   0  0  0  0  0  0  0  0  0  0  0  0
    0.2893    1.0800   -1.5293 H   0  0  0  0  0  0  0  0  0  0  0  0
   -0.2607    2.4849   -0.5929 H   0  0  0  0  0  0  0  0  0  0  0  0
  1  2  1  0
  1  4  1  0
  1  5  1  0
  1  6  1  0
  2  3  2  3
  2  7  1  0
  3  8  1  0
  9 10  1  0
  9 14  1  0
  9 15  1  0
 10 11  1  0
 10 16  1  0
 10 17  1  0
 11 12  1  0
 11 18  1  0
 11 19  1  0
 12 13  1  0
 13 20  1  0
 13 21  1  0
 13 22  1  0
M  RAD  1   9   2
M  END
>  <reaction>  (5) 
rmg_rxn_16533

>  <mol_properties>  (5) 
{"1": {"label": "*0", "atom_type": "Cd"}, "2": {"label": "*1", "atom_type": "N3d"}, "7": {"label": "*2", "atom_type": "H0"}, "8": {"label": "*3", "atom_type": "Cs"}, "9": {"label": "*4", "atom_type": "Cs"}}

>  <type>  (5) 
unop_1

>  <geom_source>  (5) 
crest_best.xyz

$$$$

     RDKit          3D

 22 20  0  0  0  0  0  0  0  0999 V2000
   -1.3053   -0.1546   -3.5116 C   0  0  0  0  0  0  0  0  0  0  0  0
   -1.3053   -0.1546   -2.0193 C   0  0  0  0  0  0  0  0  0  0  0  0
   -1.3053    0.9180   -1.3516 N   0  0  0  0  0  0  0  0  0  0  0  0
   -0.4271   -0.6846   -3.8890 H   0  0  0  0  0  0  0  0  0  0  0  0
   -2.1836   -0.6846   -3.8890 H   0  0  0  0  0  0  0  0  0  0  0  0
   -1.3053    0.8660   -3.8902 H   0  0  0  0  0  0  0  0  0  0  0  0
   -1.3053   -1.1443   -1.5446 H   0  0  0  0  0  0  0  0  0  0  0  0
   -1.3053    0.6879   -0.1520 H   0  0  0  0  0  0  0  0  0  0  0  0
   -1.3053    0.4414    1.1325 C   0  0  0  0  0  3  0  0  0  0  0  0
   -0.0721    1.0389    1.7969 C   0  0  0  0  0  0  0  0  0  0  0  0
    1.0257    0.0235    2.0386 C   0  0  0  0  0  0  0  0  0  0  0  0
    1.4815   -0.4734    0.8048 O   0  0  0  0  0  0  0  0  0  0  0  0
    2.4770   -1.4468    0.9444 C   0  0  0  0  0  0  0  0  0  0  0  0
   -1.7348   -0.3518    1.7496 H   0  0  0  0  0  0  0  0  0  0  0  0
   -2.0746    1.1997    0.9792 H   0  0  0  0  0  0  0  0  0  0  0  0
    0.3319    1.8468    1.1814 H   0  0  0  0  0  0  0  0  0  0  0  0
   -0.3403    1.4791    2.7613 H   0  0  0  0  0  0  0  0  0  0  0  0
    1.8599    0.4861    2.5866 H   0  0  0  0  0  0  0  0  0  0  0  0
    0.6460   -0.8047    2.6580 H   0  0  0  0  0  0  0  0  0  0  0  0
    2.1131   -2.3172    1.5072 H   0  0  0  0  0  0  0  0  0  0  0  0
    2.7673   -1.7687   -0.0548 H   0  0  0  0  0  0  0  0  0  0  0  0
    3.3611   -1.0482    1.4607 H   0  0  0  0  0  0  0  0  0  0  0  0
  1  2  1  0
  1  4  1  0
  1  5  1  0
  1  6  1  0
  2  3  2  3
  2  7  1  0
  3  8  1  0
  9 10  1  0
  9 14  1  0
  9 15  1  0
 10 11  1  0
 10 16  1  0
 10 17  1  0
 11 12  1  0
 11 18  1  0
 11 19  1  0
 12 13  1  0
 13 20  1  0
 13 21  1  0
 13 22  1  0
M  RAD  1   9   2
M  END
>  <reaction>  (6) 
rmg_rxn_16533

>  <mol_properties>  (6) 
{"1": {"label": "*0", "atom_type": "Cd"}, "2": {"label": "*1", "atom_type": "N3d"}, "7": {"label": "*2", "atom_type": "H0"}, "8": {"label": "*3", "atom_type": "Cs"}, "9": {"label": "*4", "atom_type": "Cs"}}

>  <type>  (6) 
unop_2

>  <geom_source>  (6) 
Heuristics

$$$$

     RDKit          3D

 22 20  0  0  0  0  0  0  0  0999 V2000
    0.1518    0.7983   -3.0155 C   0  0  0  0  0  0  0  0  0  0  0  0
    0.1518    0.7983   -1.5232 C   0  0  0  0  0  0  0  0  0  0  0  0
    0.1518    1.8709   -0.8555 N   0  0  0  0  0  0  0  0  0  0  0  0
    1.0301    0.2683   -3.3929 H   0  0  0  0  0  0  0  0  0  0  0  0
   -0.7264    0.2683   -3.3929 H   0  0  0  0  0  0  0  0  0  0  0  0
    0.1518    1.8189   -3.3941 H   0  0  0  0  0  0  0  0  0  0  0  0
    0.1518   -0.1914   -1.0485 H   0  0  0  0  0  0  0  0  0  0  0  0
    0.1518    1.6408    0.3441 H   0  0  0  0  0  0  0  0  0  0  0  0
    0.1518    1.3943    1.6286 C   0  0  0  0  0  3  0  0  0  0  0  0
    0.8638    0.0814    1.9265 C   0  0  0  0  0  0  0  0  0  0  0  0
    0.0135   -1.1375    1.6338 C   0  0  0  0  0  0  0  0  0  0  0  0
   -0.2770   -1.1846    0.2589 O   0  0  0  0  0  0  0  0  0  0  0  0
   -1.0917   -2.2680   -0.0884 C   0  0  0  0  0  0  0  0  0  0  0  0
   -0.7577    1.4888    2.2271 H   0  0  0  0  0  0  0  0  0  0  0  0
    0.7920    2.2480    1.8557 H   0  0  0  0  0  0  0  0  0  0  0  0
    1.7837    0.0116    1.3402 H   0  0  0  0  0  0  0  0  0  0  0  0
    1.1556    0.0421    2.9796 H   0  0  0  0  0  0  0  0  0  0  0  0
    0.5424   -2.0536    1.9358 H   0  0  0  0  0  0  0  0  0  0  0  0
   -0.9229   -1.0939    2.2126 H   0  0  0  0  0  0  0  0  0  0  0  0
   -2.0613   -2.2240    0.4261 H   0  0  0  0  0  0  0  0  0  0  0  0
   -1.2602   -2.2238   -1.1636 H   0  0  0  0  0  0  0  0  0  0  0  0
   -0.6146   -3.2265    0.1579 H   0  0  0  0  0  0  0  0  0  0  0  0
  1  2  1  0
  1  4  1  0
  1  5  1  0
  1  6  1  0
  2  3  2  3
  2  7  1  0
  3  8  1  0
  9 10  1  0
  9 14  1  0
  9 15  1  0
 10 11  1  0
 10 16  1  0
 10 17  1  0
 11 12  1  0
 11 18  1  0
 11 19  1  0
 12 13  1  0
 13 20  1  0
 13 21  1  0
 13 22  1  0
M  RAD  1   9   2
M  END
>  <reaction>  (7) 
rmg_rxn_16533

>  <mol_properties>  (7) 
{"1": {"label": "*0", "atom_type": "Cd"}, "2": {"label": "*1", "atom_type": "N3d"}, "7": {"label": "*2", "atom_type": "H0"}, "8": {"label": "*3", "atom_type": "Cs"}, "9": {"label": "*4", "atom_type": "Cs"}}

>  <type>  (7) 
unop_3

>  <geom_source>  (7) 
Heuristics

$$$$

     RDKit          3D

 22 20  0  0  0  0  0  0  0  0999 V2000
   -1.2786   -0.9433   -3.4974 C   0  0  0  0  0  0  0  0  0  0  0  0
   -1.2786   -0.9433   -2.0050 C   0  0  0  0  0  0  0  0  0  0  0  0
   -1.2786    0.1294   -1.3374 N   0  0  0  0  0  0  0  0  0  0  0  0
   -0.4004   -1.4733   -3.8748 H   0  0  0  0  0  0  0  0  0  0  0  0
   -2.1569   -1.4733   -3.8748 H   0  0  0  0  0  0  0  0  0  0  0  0
   -1.2786    0.0774   -3.8760 H   0  0  0  0  0  0  0  0  0  0  0  0
   -1.2786   -1.9330   -1.5304 H   0  0  0  0  0  0  0  0  0  0  0  0
   -1.2786   -0.1008   -0.1378 H   0  0  0  0  0  0  0  0  0  0  0  0
   -1.2786   -0.3473    1.1468 C   0  0  0  0  0  3  0  0  0  0  0  0
   -0.5666    0.7621    1.9094 C   0  0  0  0  0  0  0  0  0  0  0  0
    0.9237    0.5289    2.0476 C   0  0  0  0  0  0  0  0  0  0  0  0
    1.5158    0.5257    0.7722 O   0  0  0  0  0  0  0  0  0  0  0  0
    2.8929    0.2805    0.8121 C   0  0  0  0  0  0  0  0  0  0  0  0
   -1.1517   -1.3093    1.6495 H   0  0  0  0  0  0  0  0  0  0  0  0
   -2.3485   -0.1475    1.0717 H   0  0  0  0  0  0  0  0  0  0  0  0
   -0.7227    1.7216    1.4095 H   0  0  0  0  0  0  0  0  0  0  0  0
   -0.9862    0.8568    2.9148 H   0  0  0  0  0  0  0  0  0  0  0  0
    1.3774    1.3154    2.6685 H   0  0  0  0  0  0  0  0  0  0  0  0
    1.1115   -0.4338    2.5493 H   0  0  0  0  0  0  0  0  0  0  0  0
    3.1145   -0.7010    1.2528 H   0  0  0  0  0  0  0  0  0  0  0  0
    3.2618    0.2989   -0.2125 H   0  0  0  0  0  0  0  0  0  0  0  0
    3.4221    1.0469    1.3947 H   0  0  0  0  0  0  0  0  0  0  0  0
  1  2  1  0
  1  4  1  0
  1  5  1  0
  1  6  1  0
  2  3  2  3
  2  7  1  0
  3  8  1  0
  9 10  1  0
  9 14  1  0
  9 15  1  0
 10 11  1  0
 10 16  1  0
 10 17  1  0
 11 12  1  0
 11 18  1  0
 11 19  1  0
 12 13  1  0
 13 20  1  0
 13 21  1  0
 13 22  1  0
M  RAD  1   9   2
M  END
>  <reaction>  (8) 
rmg_rxn_16533

>  <mol_properties>  (8) 
{"1": {"label": "*0", "atom_type": "Cd"}, "2": {"label": "*1", "atom_type": "N3d"}, "7": {"label": "*2", "atom_type": "H0"}, "8": {"label": "*3", "atom_type": "Cs"}, "9": {"label": "*4", "atom_type": "Cs"}}

>  <type>  (8) 
unop_4

>  <geom_source>  (8) 
Heuristics

$$$$

     RDKit          3D

 22 20  0  0  0  0  0  0  0  0999 V2000
    1.1527   -0.1144   -2.7697 C   0  0  0  0  0  0  0  0  0  0  0  0
    1.1527   -0.1144   -1.2774 C   0  0  0  0  0  0  0  0  0  0  0  0
    1.1527    0.9582   -0.6097 N   0  0  0  0  0  0  0  0  0  0  0  0
    2.0309   -0.6444   -3.1471 H   0  0  0  0  0  0  0  0  0  0  0  0
    0.2744   -0.6444   -3.1471 H   0  0  0  0  0  0  0  0  0  0  0  0
    1.1527    0.9062   -3.1483 H   0  0  0  0  0  0  0  0  0  0  0  0
    1.1527   -1.1041   -0.8028 H   0  0  0  0  0  0  0  0  0  0  0  0
    1.1527    0.7280    0.5899 H   0  0  0  0  0  0  0  0  0  0  0  0
    1.1527    0.4816    1.8744 C   0  0  0  0  0  3  0  0  0  0  0  0
   -0.0805   -0.3194    2.2704 C   0  0  0  0  0  0  0  0  0  0  0  0
   -1.2694   -0.0698    1.3655 C   0  0  0  0  0  0  0  0  0  0  0  0
   -0.9611   -0.4968    0.0617 O   0  0  0  0  0  0  0  0  0  0  0  0
   -2.0009   -0.2673   -0.8462 C   0  0  0  0  0  0  0  0  0  0  0  0
    0.9473    1.5545    1.9063 H   0  0  0  0  0  0  0  0  0  0  0  0
    1.9851    0.2800    2.5502 H   0  0  0  0  0  0  0  0  0  0  0  0
    0.1462   -1.3886    2.2584 H   0  0  0  0  0  0  0  0  0  0  0  0
   -0.3787   -0.0703    3.2926 H   0  0  0  0  0  0  0  0  0  0  0  0
   -2.1524   -0.6105    1.7370 H   0  0  0  0  0  0  0  0  0  0  0  0
   -1.5211    1.0027    1.3580 H   0  0  0  0  0  0  0  0  0  0  0  0
   -2.2384    0.8023   -0.9246 H   0  0  0  0  0  0  0  0  0  0  0  0
   -1.6749   -0.6289   -1.8205 H   0  0  0  0  0  0  0  0  0  0  0  0
   -2.9152   -0.8025   -0.5557 H   0  0  0  0  0  0  0  0  0  0  0  0
  1  2  1  0
  1  4  1  0
  1  5  1  0
  1  6  1  0
  2  3  2  3
  2  7  1  0
  3  8  1  0
  9 10  1  0
  9 14  1  0
  9 15  1  0
 10 11  1  0
 10 16  1  0
 10 17  1  0
 11 12  1  0
 11 18  1  0
 11 19  1  0
 12 13  1  0
 13 20  1  0
 13 21  1  0
 13 22  1  0
M  RAD  1   9   2
M  END
>  <reaction>  (9) 
rmg_rxn_16533

>  <mol_properties>  (9) 
{"1": {"label": "*0", "atom_type": "Cd"}, "2": {"label": "*1", "atom_type": "N3d"}, "7": {"label": "*2", "atom_type": "H0"}, "8": {"label": "*3", "atom_type": "Cs"}, "9": {"label": "*4", "atom_type": "Cs"}}

>  <type>  (9) 
unop_5

>  <geom_source>  (9) 
Heuristics

$$$$

     RDKit          3D

 22 20  0  0  0  0  0  0  0  0999 V2000
   -0.6135   -1.7109   -3.2820 C   0  0  0  0  0  0  0  0  0  0  0  0
   -0.6135   -1.7109   -1.7897 C   0  0  0  0  0  0  0  0  0  0  0  0
   -0.6135   -0.6382   -1.1220 N   0  0  0  0  0  0  0  0  0  0  0  0
    0.2648   -2.2409   -3.6594 H   0  0  0  0  0  0  0  0  0  0  0  0
   -1.4917   -2.2409   -3.6594 H   0  0  0  0  0  0  0  0  0  0  0  0
   -0.6135   -0.6903   -3.6606 H   0  0  0  0  0  0  0  0  0  0  0  0
   -0.6135   -2.7006   -1.3150 H   0  0  0  0  0  0  0  0  0  0  0  0
   -0.6135   -0.8684    0.0776 H   0  0  0  0  0  0  0  0  0  0  0  0
   -0.6135   -1.1149    1.3621 C   0  0  0  0  0  3  0  0  0  0  0  0
   -0.6135    0.1819    2.1607 C   0  0  0  0  0  0  0  0  0  0  0  0
    0.5923    1.0548    1.8800 C   0  0  0  0  0  0  0  0  0  0  0  0
    0.5739    1.4568    0.5327 O   0  0  0  0  0  0  0  0  0  0  0  0
    1.6786    2.2414    0.1838 C   0  0  0  0  0  0  0  0  0  0  0  0
    0.2728   -1.7126    1.5895 H   0  0  0  0  0  0  0  0  0  0  0  0
   -1.4924   -1.7182    1.5937 H   0  0  0  0  0  0  0  0  0  0  0  0
   -1.5167    0.7574    1.9425 H   0  0  0  0  0  0  0  0  0  0  0  0
   -0.6279   -0.0361    3.2322 H   0  0  0  0  0  0  0  0  0  0  0  0
    0.5842    1.9391    2.5342 H   0  0  0  0  0  0  0  0  0  0  0  0
    1.5197    0.4990    2.0917 H   0  0  0  0  0  0  0  0  0  0  0  0
    2.6212    1.6955    0.3254 H   0  0  0  0  0  0  0  0  0  0  0  0
    1.5779    2.5051   -0.8683 H   0  0  0  0  0  0  0  0  0  0  0  0
    1.7223    3.1637    0.7791 H   0  0  0  0  0  0  0  0  0  0  0  0
  1  2  1  0
  1  4  1  0
  1  5  1  0
  1  6  1  0
  2  3  2  3
  2  7  1  0
  3  8  1  0
  9 10  1  0
  9 14  1  0
  9 15  1  0
 10 11  1  0
 10 16  1  0
 10 17  1  0
 11 12  1  0
 11 18  1  0
 11 19  1  0
 12 13  1  0
 13 20  1  0
 13 21  1  0
 13 22  1  0
M  RAD  1   9   2
M  END
>  <reaction>  (10) 
rmg_rxn_16533

>  <mol_properties>  (10) 
{"1": {"label": "*0", "atom_type": "Cd"}, "2": {"label": "*1", "atom_type": "N3d"}, "7": {"label": "*2", "atom_type": "H0"}, "8": {"label": "*3", "atom_type": "Cs"}, "9": {"label": "*4", "atom_type": "Cs"}}

>  <type>  (10) 
unop_6

>  <geom_source>  (10) 
Heuristics

$$$$

     RDKit          3D

 22 20  0  0  0  0  0  0  0  0999 V2000
    1.2499   -0.6268   -2.8573 C   0  0  0  0  0  0  0  0  0  0  0  0
    1.2499   -0.6268   -1.3649 C   0  0  0  0  0  0  0  0  0  0  0  0
    1.2499    0.4458   -0.6973 N   0  0  0  0  0  0  0  0  0  0  0  0
    2.1281   -1.1568   -3.2347 H   0  0  0  0  0  0  0  0  0  0  0  0
    0.3716   -1.1568   -3.2347 H   0  0  0  0  0  0  0  0  0  0  0  0
    1.2499    0.3938   -3.2359 H   0  0  0  0  0  0  0  0  0  0  0  0
    1.2499   -1.6165   -0.8903 H   0  0  0  0  0  0  0  0  0  0  0  0
    1.2499    0.2156    0.5023 H   0  0  0  0  0  0  0  0  0  0  0  0
    1.2499   -0.0309    1.7869 C   0  0  0  0  0  3  0  0  0  0  0  0
   -0.1741   -0.1326    2.3171 C   0  0  0  0  0  0  0  0  0  0  0  0
   -1.1933    0.5407    1.4212 C   0  0  0  0  0  0  0  0  0  0  0  0
   -1.2213   -0.1100    0.1751 O   0  0  0  0  0  0  0  0  0  0  0  0
   -2.1174    0.4769   -0.7253 C   0  0  0  0  0  0  0  0  0  0  0  0
    1.5545    1.0138    1.6862 H   0  0  0  0  0  0  0  0  0  0  0  0
    1.9549   -0.5217    2.4593 H   0  0  0  0  0  0  0  0  0  0  0  0
   -0.4565   -1.1818    2.4364 H   0  0  0  0  0  0  0  0  0  0  0  0
   -0.2410    0.3279    3.3067 H   0  0  0  0  0  0  0  0  0  0  0  0
   -2.1907    0.5058    1.8838 H   0  0  0  0  0  0  0  0  0  0  0  0
   -0.9333    1.6023    1.2829 H   0  0  0  0  0  0  0  0  0  0  0  0
   -1.8520    1.5222   -0.9339 H   0  0  0  0  0  0  0  0  0  0  0  0
   -2.0727   -0.0908   -1.6538 H   0  0  0  0  0  0  0  0  0  0  0  0
   -3.1470    0.4529   -0.3429 H   0  0  0  0  0  0  0  0  0  0  0  0
  1  2  1  0
  1  4  1  0
  1  5  1  0
  1  6  1  0
  2  3  2  3
  2  7  1  0
  3  8  1  0
  9 10  1  0
  9 14  1  0
  9 15  1  0
 10 11  1  0
 10 16  1  0
 10 17  1  0
 11 12  1  0
 11 18  1  0
 11 19  1  0
 12 13  1  0
 13 20  1  0
 13 21  1  0
 13 22  1  0
M  RAD  1   9   2
M  END
>  <reaction>  (11) 
rmg_rxn_16533

>  <mol_properties>  (11) 
{"1": {"label": "*0", "atom_type": "Cd"}, "2": {"label": "*1", "atom_type": "N3d"}, "7": {"label": "*2", "atom_type": "H0"}, "8": {"label": "*3", "atom_type": "Cs"}, "9": {"label": "*4", "atom_type": "Cs"}}

>  <type>  (11) 
unop_7

>  <geom_source>  (11) 
Heuristics

$$$$

     RDKit          3D

 22 20  0  0  0  0  0  0  0  0999 V2000
    1.0731   -1.2324   -2.9733 C   0  0  0  0  0  0  0  0  0  0  0  0
    1.0731   -1.2324   -1.4810 C   0  0  0  0  0  0  0  0  0  0  0  0
    1.0731   -0.1598   -0.8133 N   0  0  0  0  0  0  0  0  0  0  0  0
    1.9514   -1.7624   -3.3507 H   0  0  0  0  0  0  0  0  0  0  0  0
    0.1949   -1.7624   -3.3507 H   0  0  0  0  0  0  0  0  0  0  0  0
    1.0731   -0.2118   -3.3519 H   0  0  0  0  0  0  0  0  0  0  0  0
    1.0731   -2.2221   -1.0063 H   0  0  0  0  0  0  0  0  0  0  0  0
    1.0731   -0.3899    0.3863 H   0  0  0  0  0  0  0  0  0  0  0  0
    1.0731   -0.6364    1.6708 C   0  0  0  0  0  3  0  0  0  0  0  0
   -0.1601   -0.0389    2.3352 C   0  0  0  0  0  0  0  0  0  0  0  0
   -0.8015    1.0642    1.5189 C   0  0  0  0  0  0  0  0  0  0  0  0
   -1.2643    0.5348    0.3012 O   0  0  0  0  0  0  0  0  0  0  0  0
   -1.8416    1.5024   -0.5285 C   0  0  0  0  0  0  0  0  0  0  0  0
    1.8380    0.1275    1.5103 H   0  0  0  0  0  0  0  0  0  0  0  0
    1.5097   -1.4224    2.2887 H   0  0  0  0  0  0  0  0  0  0  0  0
   -0.9060   -0.8180    2.5123 H   0  0  0  0  0  0  0  0  0  0  0  0
    0.1027    0.3760    3.3122 H   0  0  0  0  0  0  0  0  0  0  0  0
   -1.6387    1.5126    2.0739 H   0  0  0  0  0  0  0  0  0  0  0  0
   -0.0707    1.8654    1.3245 H   0  0  0  0  0  0  0  0  0  0  0  0
   -1.1209    2.2881   -0.7928 H   0  0  0  0  0  0  0  0  0  0  0  0
   -2.1700    1.0036   -1.4394 H   0  0  0  0  0  0  0  0  0  0  0  0
   -2.7091    1.9777   -0.0505 H   0  0  0  0  0  0  0  0  0  0  0  0
  1  2  1  0
  1  4  1  0
  1  5  1  0
  1  6  1  0
  2  3  2  3
  2  7  1  0
  3  8  1  0
  9 10  1  0
  9 14  1  0
  9 15  1  0
 10 11  1  0
 10 16  1  0
 10 17  1  0
 11 12  1  0
 11 18  1  0
 11 19  1  0
 12 13  1  0
 13 20  1  0
 13 21  1  0
 13 22  1  0
M  RAD  1   9   2
M  END
>  <reaction>  (12) 
rmg_rxn_16533

>  <mol_properties>  (12) 
{"1": {"label": "*0", "atom_type": "Cd"}, "2": {"label": "*1", "atom_type": "N3d"}, "7": {"label": "*2", "atom_type": "H0"}, "8": {"label": "*3", "atom_type": "Cs"}, "9": {"label": "*4", "atom_type": "Cs"}}

>  <type>  (12) 
unop_8

>  <geom_source>  (12) 
Heuristics

$$$$

     RDKit          3D

 22 20  0  0  0  0  0  0  0  0999 V2000
   -0.9745    0.4428   -3.3915 C   0  0  0  0  0  0  0  0  0  0  0  0
   -0.9745    0.4428   -1.8991 C   0  0  0  0  0  0  0  0  0  0  0  0
   -0.9745    1.5154   -1.2315 N   0  0  0  0  0  0  0  0  0  0  0  0
   -0.0963   -0.0872   -3.7689 H   0  0  0  0  0  0  0  0  0  0  0  0
   -1.8528   -0.0872   -3.7689 H   0  0  0  0  0  0  0  0  0  0  0  0
   -0.9745    1.4634   -3.7701 H   0  0  0  0  0  0  0  0  0  0  0  0
   -0.9745   -0.5469   -1.4245 H   0  0  0  0  0  0  0  0  0  0  0  0
   -0.9745    1.2853   -0.0319 H   0  0  0  0  0  0  0  0  0  0  0  0
   -0.9745    1.0388    1.2527 C   0  0  0  0  0  3  0  0  0  0  0  0
    0.4495    0.9371    1.7829 C   0  0  0  0  0  0  0  0  0  0  0  0
    0.9274   -0.4921    1.9370 C   0  0  0  0  0  0  0  0  0  0  0  0
    0.9638   -1.1106    0.6748 O   0  0  0  0  0  0  0  0  0  0  0  0
    1.3640   -2.4500    0.7365 C   0  0  0  0  0  0  0  0  0  0  0  0
   -1.6769    0.5382    1.9238 H   0  0  0  0  0  0  0  0  0  0  0  0
   -1.2850    2.0805    1.1597 H   0  0  0  0  0  0  0  0  0  0  0  0
    1.1372    1.4629    1.1156 H   0  0  0  0  0  0  0  0  0  0  0  0
    0.5227    1.4227    2.7599 H   0  0  0  0  0  0  0  0  0  0  0  0
    1.9285   -0.5129    2.3926 H   0  0  0  0  0  0  0  0  0  0  0  0
    0.2512   -1.0475    2.6062 H   0  0  0  0  0  0  0  0  0  0  0  0
    0.6755   -3.0483    1.3487 H   0  0  0  0  0  0  0  0  0  0  0  0
    1.3645   -2.8422   -0.2797 H   0  0  0  0  0  0  0  0  0  0  0  0
    2.3740   -2.5501    1.1569 H   0  0  0  0  0  0  0  0  0  0  0  0
  1  2  1  0
  1  4  1  0
  1  5  1  0
  1  6  1  0
  2  3  2  3
  2  7  1  0
  3  8  1  0
  9 10  1  0
  9 14  1  0
  9 15  1  0
 10 11  1  0
 10 16  1  0
 10 17  1  0
 11 12  1  0
 11 18  1  0
 11 19  1  0
 12 13  1  0
 13 20  1  0
 13 21  1  0
 13 22  1  0
M  RAD  1   9   2
M  END
>  <reaction>  (13) 
rmg_rxn_16533

>  <mol_properties>  (13) 
{"1": {"label": "*0", "atom_type": "Cd"}, "2": {"label": "*1", "atom_type": "N3d"}, "7": {"label": "*2", "atom_type": "H0"}, "8": {"label": "*3", "atom_type": "Cs"}, "9": {"label": "*4", "atom_type": "Cs"}}

>  <type>  (13) 
unop_9

>  <geom_source>  (13) 
Heuristics

$$$$

     RDKit          3D

 22 20  0  0  0  0  0  0  0  0999 V2000
   -3.2375    0.3141    0.1772 C   0  0  0  0  0  0  0  0  0  0  0  0
   -1.8869   -0.3178    0.3372 C   0  0  0  0  0  0  0  0  0  0  0  0
   -1.3280   -0.9369   -0.5789 N   0  0  0  0  0  0  0  0  0  0  0  0
   -3.6188    0.1484   -0.8266 H   0  0  0  0  0  0  0  0  0  0  0  0
   -3.9243   -0.1127    0.9064 H   0  0  0  0  0  0  0  0  0  0  0  0
   -3.1557    1.3825    0.3695 H   0  0  0  0  0  0  0  0  0  0  0  0
   -1.4461   -0.1688    1.3313 H   0  0  0  0  0  0  0  0  0  0  0  0
   -0.1883   -1.3807   -0.2863 H   0  0  0  0  0  0  0  0  0  0  0  0
    0.9618   -1.8456    0.0579 C   0  0  0  0  0  3  0  0  0  0  0  0
    2.0295   -0.8452   -0.3044 C   0  0  0  0  0  0  0  0  0  0  0  0
    1.9844    0.4195    0.5616 C   0  0  0  0  0  0  0  0  0  0  0  0
    0.7883    1.1603    0.4880 O   0  0  0  0  0  0  0  0  0  0  0  0
    0.5666    1.7942   -0.7475 C   0  0  0  0  0  0  0  0  0  0  0  0
    1.0449   -2.7711   -0.5008 H   0  0  0  0  0  0  0  0  0  0  0  0
    0.8930   -2.0278    1.1252 H   0  0  0  0  0  0  0  0  0  0  0  0
    3.0217   -1.2920   -0.1638 H   0  0  0  0  0  0  0  0  0  0  0  0
    1.9446   -0.5774   -1.3598 H   0  0  0  0  0  0  0  0  0  0  0  0
    2.0726    0.1430    1.6163 H   0  0  0  0  0  0  0  0  0  0  0  0
    2.8367    1.0665    0.2967 H   0  0  0  0  0  0  0  0  0  0  0  0
    1.4531    2.3563   -1.0667 H   0  0  0  0  0  0  0  0  0  0  0  0
    0.2893    1.0800   -1.5293 H   0  0  0  0  0  0  0  0  0  0  0  0
   -0.2607    2.4849   -0.5929 H   0  0  0  0  0  0  0  0  0  0  0  0
  1  2  1  0
  1  4  1  0
  1  5  1  0
  1  6  1  0
  2  3  2  3
  2  7  1  0
  3  8  1  0
  9 10  1  0
  9 14  1  0
  9 15  1  0
 10 11  1  0
 10 16  1  0
 10 17  1  0
 11 12  1  0
 11 18  1  0
 11 19  1  0
 12 13  1  0
 13 20  1  0
 13 21  1  0
 13 22  1  0
M  RAD  1   9   2
M  END
>  <reaction>  (14) 
rmg_rxn_16533

>  <mol_properties>  (14) 
{"1": {"label": "*0", "atom_type": "Cd"}, "2": {"label": "*1", "atom_type": "N3d"}, "7": {"label": "*2", "atom_type": "H0"}, "8": {"label": "*3", "atom_type": "Cs"}, "9": {"label": "*4", "atom_type": "Cs"}}

>  <type>  (14) 
unop_10

>  <geom_source>  (14) 
Heuristics

$$$$

     RDKit          3D

 22 20  0  0  0  0  0  0  0  0999 V2000
    0.9257    0.2734   -2.7533 C   0  0  0  0  0  0  0  0  0  0  0  0
    0.9257    0.2734   -1.2610 C   0  0  0  0  0  0  0  0  0  0  0  0
    0.9257    1.3460   -0.5933 N   0  0  0  0  0  0  0  0  0  0  0  0
    1.8040   -0.2566   -3.1308 H   0  0  0  0  0  0  0  0  0  0  0  0
    0.0474   -0.2566   -3.1308 H   0  0  0  0  0  0  0  0  0  0  0  0
    0.9257    1.2940   -3.1319 H   0  0  0  0  0  0  0  0  0  0  0  0
    0.9257   -0.7163   -0.7864 H   0  0  0  0  0  0  0  0  0  0  0  0
    0.9257    1.1158    0.6063 H   0  0  0  0  0  0  0  0  0  0  0  0
    0.9257    0.8694    1.8908 C   0  0  0  0  0  3  0  0  0  0  0  0
    0.2137   -0.4435    2.1886 C   0  0  0  0  0  0  0  0  0  0  0  0
   -1.0539   -0.6307    1.3807 C   0  0  0  0  0  0  0  0  0  0  0  0
   -0.7309   -0.6936    0.0137 O   0  0  0  0  0  0  0  0  0  0  0  0
   -1.8568   -0.8317   -0.8057 C   0  0  0  0  0  0  0  0  0  0  0  0
    0.2786    1.7222    2.1105 H   0  0  0  0  0  0  0  0  0  0  0  0
    1.8294    0.9711    2.4934 H   0  0  0  0  0  0  0  0  0  0  0  0
    0.8804   -1.2862    1.9884 H   0  0  0  0  0  0  0  0  0  0  0  0
   -0.0528   -0.4951    3.2480 H   0  0  0  0  0  0  0  0  0  0  0  0
   -1.5686   -1.5537    1.6862 H   0  0  0  0  0  0  0  0  0  0  0  0
   -1.7465    0.2064    1.5632 H   0  0  0  0  0  0  0  0  0  0  0  0
   -2.5429    0.0188   -0.6941 H   0  0  0  0  0  0  0  0  0  0  0  0
   -1.5115   -0.8737   -1.8379 H   0  0  0  0  0  0  0  0  0  0  0  0
   -2.4106   -1.7528   -0.5781 H   0  0  0  0  0  0  0  0  0  0  0  0
  1  2  1  0
  1  4  1  0
  1  5  1  0
  1  6  1  0
  2  3  2  3
  2  7  1  0
  3  8  1  0
  9 10  1  0
  9 14  1  0
  9 15  1  0
 10 11  1  0
 10 16  1  0
 10 17  1  0
 11 12  1  0
 11 18  1  0
 11 19  1  0
 12 13  1  0
 13 20  1  0
 13 21  1  0
 13 22  1  0
M  RAD  1   9   2
M  END
>  <reaction>  (15) 
rmg_rxn_16533

>  <mol_properties>  (15) 
{"1": {"label": "*0", "atom_type": "Cd"}, "2": {"label": "*1", "atom_type": "N3d"}, "7": {"label": "*2", "atom_type": "H0"}, "8": {"label": "*3", "atom_type": "Cs"}, "9": {"label": "*4", "atom_type": "Cs"}}

>  <type>  (15) 
unop_11

>  <geom_source>  (15) 
Heuristics

$$$$

     RDKit          3D

 22 20  0  0  0  0  0  0  0  0999 V2000
   -0.4328    0.7744   -3.2136 C   0  0  0  0  0  0  0  0  0  0  0  0
   -0.4328    0.7744   -1.7213 C   0  0  0  0  0  0  0  0  0  0  0  0
   -0.4328    1.8470   -1.0536 N   0  0  0  0  0  0  0  0  0  0  0  0
    0.4455    0.2444   -3.5911 H   0  0  0  0  0  0  0  0  0  0  0  0
   -1.3111    0.2444   -3.5911 H   0  0  0  0  0  0  0  0  0  0  0  0
   -0.4328    1.7950   -3.5922 H   0  0  0  0  0  0  0  0  0  0  0  0
   -0.4328   -0.2153   -1.2467 H   0  0  0  0  0  0  0  0  0  0  0  0
   -0.4328    1.6169    0.1460 H   0  0  0  0  0  0  0  0  0  0  0  0
   -0.4328    1.3704    1.4305 C   0  0  0  0  0  3  0  0  0  0  0  0
    0.8004    0.5694    1.8265 C   0  0  0  0  0  0  0  0  0  0  0  0
    0.5743   -0.9280    1.7941 C   0  0  0  0  0  0  0  0  0  0  0  0
    0.2877   -1.3282    0.4770 O   0  0  0  0  0  0  0  0  0  0  0  0
    0.0310   -2.6995    0.3685 C   0  0  0  0  0  0  0  0  0  0  0  0
   -1.2674    1.1593    2.1037 H   0  0  0  0  0  0  0  0  0  0  0  0
   -0.2338    2.4423    1.4702 H   0  0  0  0  0  0  0  0  0  0  0  0
    1.6337    0.8090    1.1609 H   0  0  0  0  0  0  0  0  0  0  0  0
    1.1155    0.8394    2.8383 H   0  0  0  0  0  0  0  0  0  0  0  0
    1.4668   -1.4571    2.1598 H   0  0  0  0  0  0  0  0  0  0  0  0
   -0.2622   -1.1993    2.4577 H   0  0  0  0  0  0  0  0  0  0  0  0
   -0.8376   -2.9956    0.9722 H   0  0  0  0  0  0  0  0  0  0  0  0
   -0.1767   -2.9152   -0.6787 H   0  0  0  0  0  0  0  0  0  0  0  0
    0.8942   -3.2980    0.6906 H   0  0  0  0  0  0  0  0  0  0  0  0
  1  2  1  0
  1  4  1  0
  1  5  1  0
  1  6  1  0
  2  3  2  3
  2  7  1  0
  3  8  1  0
  9 10  1  0
  9 14  1  0
  9 15  1  0
 10 11  1  0
 10 16  1  0
 10 17  1  0
 11 12  1  0
 11 18  1  0
 11 19  1  0
 12 13  1  0
 13 20  1  0
 13 21  1  0
 13 22  1  0
M  RAD  1   9   2
M  END
>  <reaction>  (16) 
rmg_rxn_16533

>  <mol_properties>  (16) 
{"1": {"label": "*0", "atom_type": "Cd"}, "2": {"label": "*1", "atom_type": "N3d"}, "7": {"label": "*2", "atom_type": "H0"}, "8": {"label": "*3", "atom_type": "Cs"}, "9": {"label": "*4", "atom_type": "Cs"}}

>  <type>  (16) 
unop_12

>  <geom_source>  (16) 
Heuristics

$$$$

     RDKit          3D

 22 20  0  0  0  0  0  0  0  0999 V2000
    0.4502   -1.7529   -3.0930 C   0  0  0  0  0  0  0  0  0  0  0  0
    0.4502   -1.7529   -1.6007 C   0  0  0  0  0  0  0  0  0  0  0  0
    0.4502   -0.6803   -0.9330 N   0  0  0  0  0  0  0  0  0  0  0  0
    1.3284   -2.2829   -3.4704 H   0  0  0  0  0  0  0  0  0  0  0  0
   -0.4281   -2.2829   -3.4704 H   0  0  0  0  0  0  0  0  0  0  0  0
    0.4502   -0.7323   -3.4716 H   0  0  0  0  0  0  0  0  0  0  0  0
    0.4502   -2.7426   -1.1260 H   0  0  0  0  0  0  0  0  0  0  0  0
    0.4502   -0.9104    0.2666 H   0  0  0  0  0  0  0  0  0  0  0  0
    0.4502   -1.1569    1.5511 C   0  0  0  0  0  3  0  0  0  0  0  0
   -0.2618   -0.0475    2.3137 C   0  0  0  0  0  0  0  0  0  0  0  0
   -0.1238    1.3106    1.6571 C   0  0  0  0  0  0  0  0  0  0  0  0
   -0.7408    1.2831    0.3940 O   0  0  0  0  0  0  0  0  0  0  0  0
   -0.6260    2.4960   -0.2943 C   0  0  0  0  0  0  0  0  0  0  0  0
    1.5200   -0.9493    1.4697 H   0  0  0  0  0  0  0  0  0  0  0  0
    0.3331   -2.1172    2.0554 H   0  0  0  0  0  0  0  0  0  0  0  0
   -1.3255   -0.2802    2.4092 H   0  0  0  0  0  0  0  0  0  0  0  0
    0.1383    0.0281    3.3286 H   0  0  0  0  0  0  0  0  0  0  0  0
   -0.5884    2.0865    2.2834 H   0  0  0  0  0  0  0  0  0  0  0  0
    0.9408    1.5719    1.5476 H   0  0  0  0  0  0  0  0  0  0  0  0
    0.4253    2.7585   -0.4749 H   0  0  0  0  0  0  0  0  0  0  0  0
   -1.1309    2.3815   -1.2526 H   0  0  0  0  0  0  0  0  0  0  0  0
   -1.0963    3.3199    0.2595 H   0  0  0  0  0  0  0  0  0  0  0  0
  1  2  1  0
  1  4  1  0
  1  5  1  0
  1  6  1  0
  2  3  2  3
  2  7  1  0
  3  8  1  0
  9 10  1  0
  9 14  1  0
  9 15  1  0
 10 11  1  0
 10 16  1  0
 10 17  1  0
 11 12  1  0
 11 18  1  0
 11 19  1  0
 12 13  1  0
 13 20  1  0
 13 21  1  0
 13 22  1  0
M  RAD  1   9   2
M  END
>  <reaction>  (17) 
rmg_rxn_16533

>  <mol_properties>  (17) 
{"1": {"label": "*0", "atom_type": "Cd"}, "2": {"label": "*1", "atom_type": "N3d"}, "7": {"label": "*2", "atom_type": "H0"}, "8": {"label": "*3", "atom_type": "Cs"}, "9": {"label": "*4", "atom_type": "Cs"}}

>  <type>  (17) 
unop_13

>  <geom_source>  (17) 
Heuristics

$$$$

     RDKit          3D

 22 20  0  0  0  0  0  0  0  0999 V2000
    0.6135    0.5856   -2.8414 C   0  0  0  0  0  0  0  0  0  0  0  0
    0.6135    0.5856   -1.3490 C   0  0  0  0  0  0  0  0  0  0  0  0
    0.6135    1.6582   -0.6813 N   0  0  0  0  0  0  0  0  0  0  0  0
    1.4917    0.0556   -3.2188 H   0  0  0  0  0  0  0  0  0  0  0  0
   -0.2648    0.0556   -3.2188 H   0  0  0  0  0  0  0  0  0  0  0  0
    0.6135    1.6062   -3.2200 H   0  0  0  0  0  0  0  0  0  0  0  0
    0.6135   -0.4041   -0.8744 H   0  0  0  0  0  0  0  0  0  0  0  0
    0.6135    1.4280    0.5182 H   0  0  0  0  0  0  0  0  0  0  0  0
    0.6135    1.1816    1.8028 C   0  0  0  0  0  3  0  0  0  0  0  0
    0.6135   -0.3187    2.0647 C   0  0  0  0  0  0  0  0  0  0  0  0
   -0.5923   -1.0257    1.4808 C   0  0  0  0  0  0  0  0  0  0  0  0
   -0.5739   -0.9005    0.0804 O   0  0  0  0  0  0  0  0  0  0  0  0
   -1.6786   -1.5003   -0.5342 C   0  0  0  0  0  0  0  0  0  0  0  0
   -0.2728    1.6526    2.2352 H   0  0  0  0  0  0  0  0  0  0  0  0
    1.4924    1.6563    2.2412 H   0  0  0  0  0  0  0  0  0  0  0  0
    1.5167   -0.7725    1.6489 H   0  0  0  0  0  0  0  0  0  0  0  0
    0.6279   -0.5128    3.1407 H   0  0  0  0  0  0  0  0  0  0  0  0
   -0.5842   -2.0893    1.7613 H   0  0  0  0  0  0  0  0  0  0  0  0
   -1.5197   -0.5878    1.8831 H   0  0  0  0  0  0  0  0  0  0  0  0
   -2.6212   -1.0455   -0.2005 H   0  0  0  0  0  0  0  0  0  0  0  0
   -1.5779   -1.3558   -1.6091 H   0  0  0  0  0  0  0  0  0  0  0  0
   -1.7223   -2.5774   -0.3225 H   0  0  0  0  0  0  0  0  0  0  0  0
  1  2  1  0
  1  4  1  0
  1  5  1  0
  1  6  1  0
  2  3  2  3
  2  7  1  0
  3  8  1  0
  9 10  1  0
  9 14  1  0
  9 15  1  0
 10 11  1  0
 10 16  1  0
 10 17  1  0
 11 12  1  0
 11 18  1  0
 11 19  1  0
 12 13  1  0
 13 20  1  0
 13 21  1  0
 13 22  1  0
M  RAD  1   9   2
M  END
>  <reaction>  (18) 
rmg_rxn_16533

>  <mol_properties>  (18) 
{"1": {"label": "*0", "atom_type": "Cd"}, "2": {"label": "*1", "atom_type": "N3d"}, "7": {"label": "*2", "atom_type": "H0"}, "8": {"label": "*3", "atom_type": "Cs"}, "9": {"label": "*4", "atom_type": "Cs"}}

>  <type>  (18) 
unop_14

>  <geom_source>  (18) 
Heuristics

$$$$

     RDKit          3D

 22 20  0  0  0  0  0  0  0  0999 V2000
    0.1518    0.7983   -3.0155 C   0  0  0  0  0  0  0  0  0  0  0  0
    0.1518    0.7983   -1.5232 C   0  0  0  0  0  0  0  0  0  0  0  0
    0.1518    1.8709   -0.8555 N   0  0  0  0  0  0  0  0  0  0  0  0
    1.0301    0.2683   -3.3929 H   0  0  0  0  0  0  0  0  0  0  0  0
   -0.7264    0.2683   -3.3929 H   0  0  0  0  0  0  0  0  0  0  0  0
    0.1518    1.8189   -3.3941 H   0  0  0  0  0  0  0  0  0  0  0  0
    0.1518   -0.1914   -1.0485 H   0  0  0  0  0  0  0  0  0  0  0  0
    0.1518    1.6407    0.3441 H   0  0  0  0  0  0  0  0  0  0  0  0
    0.1518    1.3943    1.6286 C   0  0  0  0  0  3  0  0  0  0  0  0
    0.8638    0.0814    1.9265 C   0  0  0  0  0  0  0  0  0  0  0  0
    0.0135   -1.1375    1.6338 C   0  0  0  0  0  0  0  0  0  0  0  0
   -0.2770   -1.1846    0.2589 O   0  0  0  0  0  0  0  0  0  0  0  0
   -1.0917   -2.2680   -0.0884 C   0  0  0  0  0  0  0  0  0  0  0  0
   -0.7577    1.4888    2.2271 H   0  0  0  0  0  0  0  0  0  0  0  0
    0.7920    2.2480    1.8557 H   0  0  0  0  0  0  0  0  0  0  0  0
    1.7837    0.0116    1.3402 H   0  0  0  0  0  0  0  0  0  0  0  0
    1.1556    0.0421    2.9796 H   0  0  0  0  0  0  0  0  0  0  0  0
    0.5424   -2.0536    1.9358 H   0  0  0  0  0  0  0  0  0  0  0  0
   -0.9229   -1.0939    2.2126 H   0  0  0  0  0  0  0  0  0  0  0  0
   -2.0613   -2.2240    0.4261 H   0  0  0  0  0  0  0  0  0  0  0  0
   -1.2602   -2.2238   -1.1636 H   0  0  0  0  0  0  0  0  0  0  0  0
   -0.6146   -3.2265    0.1579 H   0  0  0  0  0  0  0  0  0  0  0  0
  1  2  1  0
  1  4  1  0
  1  5  1  0
  1  6  1  0
  2  3  2  3
  2  7  1  0
  3  8  1  0
  9 10  1  0
  9 14  1  0
  9 15  1  0
 10 11  1  0
 10 16  1  0
 10 17  1  0
 11 12  1  0
 11 18  1  0
 11 19  1  0
 12 13  1  0
 13 20  1  0
 13 21  1  0
 13 22  1  0
M  RAD  1   9   2
M  END
>  <reaction>  (19) 
rmg_rxn_16533

>  <mol_properties>  (19) 
{"1": {"label": "*0", "atom_type": "Cd"}, "2": {"label": "*1", "atom_type": "N3d"}, "7": {"label": "*2", "atom_type": "H0"}, "8": {"label": "*3", "atom_type": "Cs"}, "9": {"label": "*4", "atom_type": "Cs"}}

>  <type>  (19) 
unop_15

>  <geom_source>  (19) 
gaussian_log

$$$$
