
     RDKit          3D

 14 14  0  0  0  0  0  0  0  0999 V2000
   -1.1778    0.2241    0.1818 C   0  0  0  0  0  0  0  0  0  0  0  0
   -0.5633   -1.1636    0.0678 C   0  0  0  0  0  0  0  0  0  0  0  0
    0.6943   -1.1996    0.7146 O   0  0  0  0  0  0  0  0  0  0  0  0
    1.5547   -0.2288    0.2011 C   0  0  0  0  0  0  0  0  0  0  0  0
    1.0729    1.0696    0.3698 O   0  0  0  0  0  0  0  0  0  0  0  0
   -0.1607    1.2493   -0.2989 C   0  0  0  0  0  0  0  0  0  0  0  0
   -2.0927    0.2866   -0.4117 H   0  0  0  0  0  0  0  0  0  0  0  0
   -1.4303    0.4248    1.2248 H   0  0  0  0  0  0  0  0  0  0  0  0
   -1.1822   -1.9235    0.5431 H   0  0  0  0  0  0  0  0  0  0  0  0
   -0.4389   -1.4347   -0.9919 H   0  0  0  0  0  0  0  0  0  0  0  0
    1.7250   -0.4207   -0.8742 H   0  0  0  0  0  0  0  0  0  0  0  0
    2.4896   -0.3010    0.7524 H   0  0  0  0  0  0  0  0  0  0  0  0
   -0.0080    1.1481   -1.3844 H   0  0  0  0  0  0  0  0  0  0  0  0
   -0.4826    2.2695   -0.0942 H   0  0  0  0  0  0  0  0  0  0  0  0
  1  2  1  0
  1  6  1  0
  1  7  1  0
  1  8  1  0
  2  3  1  0
  2  9  1  0
  2 10  1  0
  3  4  1  0
  4  5  1  0
  4 11  1  0
  4 12  1  0
  5  6  1  0
  6 13  1  0
  6 14  1  0
M  END
>  <reaction>  (1) 
rmg_rxn_44

>  <mol_properties>  (1) 
{"3": {"label": "donator", "atom_type": "Cs"}, "10": {"label": "d_hydrogen", "atom_type": "H0"}}

>  <type>  (1) 
r1h

$$$$

     RDKit          3D

 13 12  0  0  0  0  0  0  0  0999 V2000
    2.0654   -0.2739   -0.0844 C   0  0  0  0  0  3  0  0  0  0  0  0
    0.6326   -0.4110   -0.4406 C   0  0  0  0  0  0  0  0  0  0  0  0
   -0.3055    0.4151    0.4359 C   0  0  0  0  0  0  0  0  0  0  0  0
   -1.7714    0.2357    0.0671 C   0  0  0  0  0  0  0  0  0  0  0  0
    2.3610    0.0676    0.8995 H   0  0  0  0  0  0  0  0  0  0  0  0
    2.8408   -0.6127   -0.7582 H   0  0  0  0  0  0  0  0  0  0  0  0
    0.3313   -1.4695   -0.3768 H   0  0  0  0  0  0  0  0  0  0  0  0
    0.4826   -0.1432   -1.4940 H   0  0  0  0  0  0  0  0  0  0  0  0
   -0.1518    0.1351    1.4826 H   0  0  0  0  0  0  0  0  0  0  0  0
   -0.0303    1.4705    0.3565 H   0  0  0  0  0  0  0  0  0  0  0  0
   -2.0768   -0.8084    0.1692 H   0  0  0  0  0  0  0  0  0  0  0  0
   -1.9546    0.5339   -0.9679 H   0  0  0  0  0  0  0  0  0  0  0  0
   -2.4194    0.8370    0.7066 H   0  0  0  0  0  0  0  0  0  0  0  0
  1  2  1  0
  1  5  1  0
  1  6  1  0
  2  3  1  0
  2  7  1  0
  2  8  1  0
  3  4  1  0
  3  9  1  0
  3 10  1  0
  4 11  1  0
  4 12  1  0
  4 13  1  0
M  RAD  1   1   2
M  END
>  <reaction>  (2) 
rmg_rxn_44

>  <mol_properties>  (2) 
{"0": {"label": "acceptor", "atom_type": "Cs"}}

>  <type>  (2) 
r2

$$$$

     RDKit          3D

 14 13  0  0  0  0  0  0  0  0999 V2000
    1.8106   -0.5953    0.5577 C   0  0  0  0  0  0  0  0  0  0  0  0
    0.5197    0.2064    0.6554 C   0  0  0  0  0  0  0  0  0  0  0  0
   -0.5206   -0.2080   -0.3788 C   0  0  0  0  0  0  0  0  0  0  0  0
   -1.8114    0.5937   -0.2812 C   0  0  0  0  0  0  0  0  0  0  0  0
    2.2725   -0.4752   -0.4251 H   0  0  0  0  0  0  0  0  0  0  0  0
    1.6214   -1.6612    0.7052 H   0  0  0  0  0  0  0  0  0  0  0  0
    2.5364   -0.2784    1.3084 H   0  0  0  0  0  0  0  0  0  0  0  0
    0.0930    0.0950    1.6574 H   0  0  0  0  0  0  0  0  0  0  0  0
    0.7393    1.2723    0.5354 H   0  0  0  0  0  0  0  0  0  0  0  0
   -0.7402   -1.2739   -0.2588 H   0  0  0  0  0  0  0  0  0  0  0  0
   -0.0938   -0.0965   -1.3808 H   0  0  0  0  0  0  0  0  0  0  0  0
   -1.6222    1.6596   -0.4287 H   0  0  0  0  0  0  0  0  0  0  0  0
   -2.2734    0.4736    0.7017 H   0  0  0  0  0  0  0  0  0  0  0  0
   -2.5373    0.2768   -1.0318 H   0  0  0  0  0  0  0  0  0  0  0  0
  1  2  1  0
  1  5  1  0
  1  6  1  0
  1  7  1  0
  2  3  1  0
  2  8  1  0
  2  9  1  0
  3  4  1  0
  3 10  1  0
  3 11  1  0
  4 12  1  0
  4 13  1  0
  4 14  1  0
M  END
>  <reaction>  (3) 
rmg_rxn_44

>  <mol_properties>  (3) 
{"0": {"label": "a_hydrogen", "atom_type": "H0"}, "1": {"label": "acceptor", "atom_type": "Cs"}}

>  <type>  (3) 
r2h

$$$$

     RDKit          3D

 27 26  0  0  0  0  0  0  0  0999 V2000
   -1.1132   -1.5693   -2.1654 C   0  0  0  0  0  0  0  0  0  0  0  0
   -0.5483   -1.7996   -0.7727 C   0  0  0  0  0  0  0  0  0  0  0  0
   -1.3664   -1.1732    0.2011 O   0  0  0  0  0  0  0  0  0  0  0  0
   -1.5619    0.1704   -0.0578 C   0  0  0  0  0  0  0  0  0  0  0  0
   -2.1033    0.4517   -1.2963 O   0  0  0  0  0  0  0  0  0  0  0  0
   -1.3304   -0.0773   -2.3609 C   0  0  0  0  0  0  0  0  0  0  0  0
   -0.4275   -1.9561   -2.9223 H   0  0  0  0  0  0  0  0  0  0  0  0
   -2.0657   -2.0938   -2.2648 H   0  0  0  0  0  0  0  0  0  0  0  0
   -0.5168   -2.8569   -0.5144 H   0  0  0  0  0  0  0  0  0  0  0  0
    0.4709   -1.3955   -0.7055 H   0  0  0  0  0  0  0  0  0  0  0  0
   -0.3943    0.7695    0.0389 H   0  0  0  0  0  0  0  0  0  0  0  0
   -2.2074    0.5867    0.7123 H   0  0  0  0  0  0  0  0  0  0  0  0
   -0.3656    0.4451   -2.4032 H   0  0  0  0  0  0  0  0  0  0  0  0
   -1.8794    0.1382   -3.2762 H   0  0  0  0  0  0  0  0  0  0  0  0
    0.8845    1.3317    0.2465 C   0  0  0  0  0  3  0  0  0  0  0  0
    1.4145    0.6692    1.4895 C   0  0  0  0  0  0  0  0  0  0  0  0
    2.8058    1.1568    1.9001 C   0  0  0  0  0  0  0  0  0  0  0  0
    3.3230    0.4717    3.1584 C   0  0  0  0  0  0  0  0  0  0  0  0
    1.4465    1.1177   -0.6625 H   0  0  0  0  0  0  0  0  0  0  0  0
    0.6701    2.3955    0.3426 H   0  0  0  0  0  0  0  0  0  0  0  0
    1.4490   -0.4161    1.3439 H   0  0  0  0  0  0  0  0  0  0  0  0
    0.7208    0.8378    2.3198 H   0  0  0  0  0  0  0  0  0  0  0  0
    3.5025    0.9865    1.0736 H   0  0  0  0  0  0  0  0  0  0  0  0
    2.7739    2.2394    2.0548 H   0  0  0  0  0  0  0  0  0  0  0  0
    3.3899   -0.6096    3.0160 H   0  0  0  0  0  0  0  0  0  0  0  0
    2.6558    0.6522    4.0044 H   0  0  0  0  0  0  0  0  0  0  0  0
    4.3151    0.8347    3.4318 H   0  0  0  0  0  0  0  0  0  0  0  0
  1  2  1  0
  1  6  1  0
  1  7  1  0
  1  8  1  0
  2  3  1  0
  2  9  1  0
  2 10  1  0
  3  4  1  0
  4  5  1  0
  4 11  1  0
  4 12  1  0
  5  6  1  0
  6 13  1  0
  6 14  1  0
 15 16  1  0
 15 19  1  0
 15 20  1  0
 16 17  1  0
 16 21  1  0
 16 22  1  0
 17 18  1  0
 17 23  1  0
 17 24  1  0
 18 25  1  0
 18 26  1  0
 18 27  1  0
M  RAD  1  15   2
M  END
>  <reaction>  (4) 
rmg_rxn_44

>  <mol_properties>  (4) 
{"2": {"label": "*0", "atom_type": "O2s"}, "3": {"label": "*1", "atom_type": "Cs"}, "10": {"label": "*2", "atom_type": "H0"}, "14": {"label": "*3", "atom_type": "Cs"}, "15": {"label": "*4", "atom_type": "Cs"}}

>  <type>  (4) 
ts

$$$$

     RDKit          3D

 27 26  0  0  0  0  0  0  0  0999 V2000
   -0.7000   -2.3590   -0.9460 C   0  0  0  0  0  0  0  0  0  0  0  0
   -0.7000   -2.3590    0.5760 C   0  0  0  0  0  0  0  0  0  0  0  0
   -1.7483   -1.5464    1.0681 O   0  0  0  0  0  0  0  0  0  0  0  0
   -1.6574   -0.2469    0.5688 C   0  0  0  0  0  3  0  0  0  0  0  0
   -1.7483   -0.1907   -0.8222 O   0  0  0  0  0  0  0  0  0  0  0  0
   -0.7000   -0.9174   -1.4341 C   0  0  0  0  0  0  0  0  0  0  0  0
    0.1740   -2.8915   -1.3279 H   0  0  0  0  0  0  0  0  0  0  0  0
   -1.5966   -2.8652   -1.3090 H   0  0  0  0  0  0  0  0  0  0  0  0
   -0.8590   -3.3566    0.9834 H   0  0  0  0  0  0  0  0  0  0  0  0
    0.2636   -1.9831    0.9528 H   0  0  0  0  0  0  0  0  0  0  0  0
   -0.5110    0.2956    0.9579 H   0  0  0  0  0  0  0  0  0  0  0  0
   -2.4985    0.3136    0.9708 H   0  0  0  0  0  0  0  0  0  0  0  0
    0.2636   -0.4400   -1.1988 H   0  0  0  0  0  0  0  0  0  0  0  0
   -0.8590   -0.8515   -2.5096 H   0  0  0  0  0  0  0  0  0  0  0  0
    0.6206    0.8311    1.3419 C   0  0  0  0  0  0  0  0  0  0  0  0
    1.4823    1.2299    0.1516 C   0  0  0  0  0  0  0  0  0  0  0  0
    2.1957    2.5622    0.3502 C   0  0  0  0  0  0  0  0  0  0  0  0
    3.0575    2.9610   -0.8401 C   0  0  0  0  0  0  0  0  0  0  0  0
   -0.1509    1.5803    1.5350 H   0  0  0  0  0  0  0  0  0  0  0  0
    1.2239    0.7378    2.2481 H   0  0  0  0  0  0  0  0  0  0  0  0
    0.8618    1.2865   -0.7486 H   0  0  0  0  0  0  0  0  0  0  0  0
    2.2265    0.4502   -0.0408 H   0  0  0  0  0  0  0  0  0  0  0  0
    1.4516    3.3418    0.5426 H   0  0  0  0  0  0  0  0  0  0  0  0
    2.8163    2.5056    1.2504 H   0  0  0  0  0  0  0  0  0  0  0  0
    2.4542    3.0543   -1.7463 H   0  0  0  0  0  0  0  0  0  0  0  0
    3.8290    2.2118   -1.0332 H   0  0  0  0  0  0  0  0  0  0  0  0
    3.5558    3.9170   -0.6713 H   0  0  0  0  0  0  0  0  0  0  0  0
  1  2  1  0
  1  6  1  0
  1  7  1  0
  1  8  1  0
  2  3  1  0
  2  9  1  0
  2 10  1  0
  3  4  1  0
  4  5  1  0
  4 12  1  0
  5  6  1  0
  6 13  1  0
  6 14  1  0
 11 15  1  0
 15 16  1  0
 15 19  1  0
 15 20  1  0
 16 17  1  0
 16 21  1  0
 16 22  1  0
 17 18  1  0
 17 23  1  0
 17 24  1  0
 18 25  1  0
 18 26  1  0
 18 27  1  0
M  RAD  1   4   2
M  END
>  <reaction>  (5) 
rmg_rxn_44

>  <mol_properties>  (5) 
{"2": {"label": "*0", "atom_type": "O2s"}, "3": {"label": "*1", "atom_type": "Cs"}, "10": {"label": "*2", "atom_type": "H0"}, "14": {"label": "*3", "atom_type": "Cs"}, "15": {"label": "*4", "atom_type": "Cs"}}

>  <type>  (5) 
unop_1

>  <geom_source>  (5) 
Heuristics

$$$$

     RDKit          3D

 27 26  0  0  0  0  0  0  0  0999 V2000
   -0.9320   -1.6258   -1.4529 C   0  0  0  0  0  0  0  0  0  0  0  0
   -0.9320   -1.6258    0.0692 C   0  0  0  0  0  0  0  0  0  0  0  0
   -1.9803   -0.8132    0.5613 O   0  0  0  0  0  0  0  0  0  0  0  0
   -1.8894    0.4864    0.0620 C   0  0  0  0  0  3  0  0  0  0  0  0
   -1.9803    0.5426   -1.3291 O   0  0  0  0  0  0  0  0  0  0  0  0
   -0.9320   -0.1841   -1.9410 C   0  0  0  0  0  0  0  0  0  0  0  0
   -0.0580   -2.1582   -1.8347 H   0  0  0  0  0  0  0  0  0  0  0  0
   -1.8286   -2.1319   -1.8159 H   0  0  0  0  0  0  0  0  0  0  0  0
   -1.0909   -2.6233    0.4765 H   0  0  0  0  0  0  0  0  0  0  0  0
    0.0316   -1.2498    0.4459 H   0  0  0  0  0  0  0  0  0  0  0  0
   -0.7429    1.0289    0.4510 H   0  0  0  0  0  0  0  0  0  0  0  0
   -2.7304    1.0469    0.4639 H   0  0  0  0  0  0  0  0  0  0  0  0
    0.0316    0.2933   -1.7057 H   0  0  0  0  0  0  0  0  0  0  0  0
   -1.0909   -0.1182   -3.0164 H   0  0  0  0  0  0  0  0  0  0  0  0
    0.3886    1.5643    0.8350 C   0  0  0  0  0  0  0  0  0  0  0  0
    1.4751    0.5114    1.0067 C   0  0  0  0  0  0  0  0  0  0  0  0
    2.8810    1.1004    1.0201 C   0  0  0  0  0  0  0  0  0  0  0  0
    3.9675    0.0474    1.1917 C   0  0  0  0  0  0  0  0  0  0  0  0
    0.5155    2.1082   -0.1041 H   0  0  0  0  0  0  0  0  0  0  0  0
    0.4204    2.2953    1.6464 H   0  0  0  0  0  0  0  0  0  0  0  0
    1.4031   -0.2256    0.2002 H   0  0  0  0  0  0  0  0  0  0  0  0
    1.3087   -0.0398    1.9379 H   0  0  0  0  0  0  0  0  0  0  0  0
    3.0474    1.6515    0.0889 H   0  0  0  0  0  0  0  0  0  0  0  0
    2.9530    1.8373    1.8265 H   0  0  0  0  0  0  0  0  0  0  0  0
    3.9357   -0.6836    0.3803 H   0  0  0  0  0  0  0  0  0  0  0  0
    3.8406   -0.4964    2.1308 H   0  0  0  0  0  0  0  0  0  0  0  0
    4.9623    0.4959    1.1978 H   0  0  0  0  0  0  0  0  0  0  0  0
  1  2  1  0
  1  6  1  0
  1  7  1  0
  1  8  1  0
  2  3  1  0
  2  9  1  0
  2 10  1  0
  3  4  1  0
  4  5  1  0
  4 12  1  0
  5  6  1  0
  6 13  1  0
  6 14  1  0
 11 15  1  0
 15 16  1  0
 15 19  1  0
 15 20  1  0
 16 17  1  0
 16 21  1  0
 16 22  1  0
 17 18  1  0
 17 23  1  0
 17 24  1  0
 18 25  1  0
 18 26  1  0
 18 27  1  0
M  RAD  1   4   2
M  END
>  <reaction>  (6) 
rmg_rxn_44

>  <mol_properties>  (6) 
{"2": {"label": "*0", "atom_type": "O2s"}, "3": {"label": "*1", "atom_type": "Cs"}, "10": {"label": "*2", "atom_type": "H0"}, "14": {"label": "*3", "atom_type": "Cs"}, "15": {"label": "*4", "atom_type": "Cs"}}

>  <type>  (6) 
unop_2

>  <geom_source>  (6) 
Heuristics

$$$$

     RDKit          3D

 27 26  0  0  0  0  0  0  0  0999 V2000
   -0.5838   -2.5601   -1.1061 C   0  0  0  0  0  0  0  0  0  0  0  0
   -0.5838   -2.5601    0.4159 C   0  0  0  0  0  0  0  0  0  0  0  0
   -1.6321   -1.7475    0.9080 O   0  0  0  0  0  0  0  0  0  0  0  0
   -1.5412   -0.4479    0.4087 C   0  0  0  0  0  3  0  0  0  0  0  0
   -1.6321   -0.3917   -0.9823 O   0  0  0  0  0  0  0  0  0  0  0  0
   -0.5838   -1.1184   -1.5942 C   0  0  0  0  0  0  0  0  0  0  0  0
    0.2902   -3.0925   -1.4880 H   0  0  0  0  0  0  0  0  0  0  0  0
   -1.4804   -3.0662   -1.4691 H   0  0  0  0  0  0  0  0  0  0  0  0
   -0.7428   -3.5576    0.8233 H   0  0  0  0  0  0  0  0  0  0  0  0
    0.3798   -2.1841    0.7926 H   0  0  0  0  0  0  0  0  0  0  0  0
   -0.3948    0.0946    0.7978 H   0  0  0  0  0  0  0  0  0  0  0  0
   -2.3823    0.1126    0.8107 H   0  0  0  0  0  0  0  0  0  0  0  0
    0.3798   -0.6410   -1.3589 H   0  0  0  0  0  0  0  0  0  0  0  0
   -0.7428   -1.0525   -2.6697 H   0  0  0  0  0  0  0  0  0  0  0  0
    0.7368    0.6300    1.1818 C   0  0  0  0  0  0  0  0  0  0  0  0
    1.2459    1.6467    0.1690 C   0  0  0  0  0  0  0  0  0  0  0  0
    2.0805    2.7541    0.8020 C   0  0  0  0  0  0  0  0  0  0  0  0
    2.5897    3.7707   -0.2108 C   0  0  0  0  0  0  0  0  0  0  0  0
    0.1097    1.1101    1.9368 H   0  0  0  0  0  0  0  0  0  0  0  0
    1.5670    0.1461    1.7017 H   0  0  0  0  0  0  0  0  0  0  0  0
    0.3983    2.0946   -0.3598 H   0  0  0  0  0  0  0  0  0  0  0  0
    1.8449    1.1377   -0.5931 H   0  0  0  0  0  0  0  0  0  0  0  0
    1.4815    3.2631    1.5640 H   0  0  0  0  0  0  0  0  0  0  0  0
    2.9281    2.3062    1.3307 H   0  0  0  0  0  0  0  0  0  0  0  0
    1.7595    4.2547   -0.7308 H   0  0  0  0  0  0  0  0  0  0  0  0
    3.2168    3.2907   -0.9658 H   0  0  0  0  0  0  0  0  0  0  0  0
    3.1831    4.5509    0.2687 H   0  0  0  0  0  0  0  0  0  0  0  0
  1  2  1  0
  1  6  1  0
  1  7  1  0
  1  8  1  0
  2  3  1  0
  2  9  1  0
  2 10  1  0
  3  4  1  0
  4  5  1  0
  4 12  1  0
  5  6  1  0
  6 13  1  0
  6 14  1  0
 11 15  1  0
 15 16  1  0
 15 19  1  0
 15 20  1  0
 16 17  1  0
 16 21  1  0
 16 22  1  0
 17 18  1  0
 17 23  1  0
 17 24  1  0
 18 25  1  0
 18 26  1  0
 18 27  1  0
M  RAD  1   4   2
M  END
>  <reaction>  (7) 
rmg_rxn_44

>  <mol_properties>  (7) 
{"2": {"label": "*0", "atom_type": "O2s"}, "3": {"label": "*1", "atom_type": "Cs"}, "10": {"label": "*2", "atom_type": "H0"}, "14": {"label": "*3", "atom_type": "Cs"}, "15": {"label": "*4", "atom_type": "Cs"}}

>  <type>  (7) 
unop_3

>  <geom_source>  (7) 
Heuristics

$$$$

     RDKit          3D

 27 26  0  0  0  0  0  0  0  0999 V2000
   -0.4151   -2.1948   -2.0910 C   0  0  0  0  0  0  0  0  0  0  0  0
   -0.4151   -2.1948   -0.5690 C   0  0  0  0  0  0  0  0  0  0  0  0
   -1.4634   -1.3822   -0.0769 O   0  0  0  0  0  0  0  0  0  0  0  0
   -1.3725   -0.0826   -0.5762 C   0  0  0  0  0  3  0  0  0  0  0  0
   -1.4634   -0.0265   -1.9672 O   0  0  0  0  0  0  0  0  0  0  0  0
   -0.4151   -0.7532   -2.5791 C   0  0  0  0  0  0  0  0  0  0  0  0
    0.4589   -2.7273   -2.4729 H   0  0  0  0  0  0  0  0  0  0  0  0
   -1.3117   -2.7010   -2.4540 H   0  0  0  0  0  0  0  0  0  0  0  0
   -0.5741   -3.1923   -0.1616 H   0  0  0  0  0  0  0  0  0  0  0  0
    0.5485   -1.8188   -0.1922 H   0  0  0  0  0  0  0  0  0  0  0  0
   -0.2261    0.4598   -0.1871 H   0  0  0  0  0  0  0  0  0  0  0  0
   -2.2136    0.4779   -0.1742 H   0  0  0  0  0  0  0  0  0  0  0  0
    0.5485   -0.2758   -2.3438 H   0  0  0  0  0  0  0  0  0  0  0  0
   -0.5741   -0.6872   -3.6546 H   0  0  0  0  0  0  0  0  0  0  0  0
    0.9055    0.9953    0.1969 C   0  0  0  0  0  0  0  0  0  0  0  0
    1.0093    1.0534    1.7149 C   0  0  0  0  0  0  0  0  0  0  0  0
    1.8120    2.2495    2.2134 C   0  0  0  0  0  0  0  0  0  0  0  0
    1.9158    2.3077    3.7315 C   0  0  0  0  0  0  0  0  0  0  0  0
    1.8953    0.9282   -0.2608 H   0  0  0  0  0  0  0  0  0  0  0  0
    0.4201    1.8915   -0.1968 H   0  0  0  0  0  0  0  0  0  0  0  0
    1.4699    0.1326    2.0871 H   0  0  0  0  0  0  0  0  0  0  0  0
    0.0056    1.0889    2.1507 H   0  0  0  0  0  0  0  0  0  0  0  0
    2.8157    2.2141    1.7777 H   0  0  0  0  0  0  0  0  0  0  0  0
    1.3514    3.1703    1.8412 H   0  0  0  0  0  0  0  0  0  0  0  0
    2.4012    1.4114    4.1252 H   0  0  0  0  0  0  0  0  0  0  0  0
    0.9260    2.3748    4.1892 H   0  0  0  0  0  0  0  0  0  0  0  0
    2.4947    3.1722    4.0604 H   0  0  0  0  0  0  0  0  0  0  0  0
  1  2  1  0
  1  6  1  0
  1  7  1  0
  1  8  1  0
  2  3  1  0
  2  9  1  0
  2 10  1  0
  3  4  1  0
  4  5  1  0
  4 12  1  0
  5  6  1  0
  6 13  1  0
  6 14  1  0
 11 15  1  0
 15 16  1  0
 15 19  1  0
 15 20  1  0
 16 17  1  0
 16 21  1  0
 16 22  1  0
 17 18  1  0
 17 23  1  0
 17 24  1  0
 18 25  1  0
 18 26  1  0
 18 27  1  0
M  RAD  1   4   2
M  END
>  <reaction>  (8) 
rmg_rxn_44

>  <mol_properties>  (8) 
{"2": {"label": "*0", "atom_type": "O2s"}, "3": {"label": "*1", "atom_type": "Cs"}, "10": {"label": "*2", "atom_type": "H0"}, "14": {"label": "*3", "atom_type": "Cs"}, "15": {"label": "*4", "atom_type": "Cs"}}

>  <type>  (8) 
unop_4

>  <geom_source>  (8) 
Heuristics

$$$$

     RDKit          3D

 27 26  0  0  0  0  0  0  0  0999 V2000
   -0.5368   -2.6305   -1.2610 C   0  0  0  0  0  0  0  0  0  0  0  0
   -0.5368   -2.6305    0.2610 C   0  0  0  0  0  0  0  0  0  0  0  0
   -1.5851   -1.8179    0.7531 O   0  0  0  0  0  0  0  0  0  0  0  0
   -1.4942   -0.5184    0.2538 C   0  0  0  0  0  3  0  0  0  0  0  0
   -1.5851   -0.4622   -1.1372 O   0  0  0  0  0  0  0  0  0  0  0  0
   -0.5368   -1.1889   -1.7491 C   0  0  0  0  0  0  0  0  0  0  0  0
    0.3372   -3.1630   -1.6429 H   0  0  0  0  0  0  0  0  0  0  0  0
   -1.4334   -3.1367   -1.6240 H   0  0  0  0  0  0  0  0  0  0  0  0
   -0.6958   -3.6281    0.6684 H   0  0  0  0  0  0  0  0  0  0  0  0
    0.4268   -2.2546    0.6378 H   0  0  0  0  0  0  0  0  0  0  0  0
   -0.3478    0.0241    0.6429 H   0  0  0  0  0  0  0  0  0  0  0  0
   -2.3353    0.0421    0.6558 H   0  0  0  0  0  0  0  0  0  0  0  0
    0.4268   -0.7115   -1.5138 H   0  0  0  0  0  0  0  0  0  0  0  0
   -0.6958   -1.1230   -2.8246 H   0  0  0  0  0  0  0  0  0  0  0  0
    0.7838    0.5596    1.0269 C   0  0  0  0  0  0  0  0  0  0  0  0
    0.9332    1.9829    0.5069 C   0  0  0  0  0  0  0  0  0  0  0  0
    2.2403    2.6407    0.9339 C   0  0  0  0  0  0  0  0  0  0  0  0
    2.3897    4.0640    0.4139 C   0  0  0  0  0  0  0  0  0  0  0  0
    0.8103    0.5370    2.1189 H   0  0  0  0  0  0  0  0  0  0  0  0
    1.5945   -0.0768    0.6641 H   0  0  0  0  0  0  0  0  0  0  0  0
    0.0941    2.5922    0.8579 H   0  0  0  0  0  0  0  0  0  0  0  0
    0.8725    1.9829   -0.5862 H   0  0  0  0  0  0  0  0  0  0  0  0
    2.3010    2.6407    2.0270 H   0  0  0  0  0  0  0  0  0  0  0  0
    3.0794    2.0314    0.5829 H   0  0  0  0  0  0  0  0  0  0  0  0
    1.5791    4.7004    0.7767 H   0  0  0  0  0  0  0  0  0  0  0  0
    2.3633    4.0866   -0.6781 H   0  0  0  0  0  0  0  0  0  0  0  0
    3.3327    4.5103    0.7339 H   0  0  0  0  0  0  0  0  0  0  0  0
  1  2  1  0
  1  6  1  0
  1  7  1  0
  1  8  1  0
  2  3  1  0
  2  9  1  0
  2 10  1  0
  3  4  1  0
  4  5  1  0
  4 12  1  0
  5  6  1  0
  6 13  1  0
  6 14  1  0
 11 15  1  0
 15 16  1  0
 15 19  1  0
 15 20  1  0
 16 17  1  0
 16 21  1  0
 16 22  1  0
 17 18  1  0
 17 23  1  0
 17 24  1  0
 18 25  1  0
 18 26  1  0
 18 27  1  0
M  RAD  1   4   2
M  END
>  <reaction>  (9) 
rmg_rxn_44

>  <mol_properties>  (9) 
{"2": {"label": "*0", "atom_type": "O2s"}, "3": {"label": "*1", "atom_type": "Cs"}, "10": {"label": "*2", "atom_type": "H0"}, "14": {"label": "*3", "atom_type": "Cs"}, "15": {"label": "*4", "atom_type": "Cs"}}

>  <type>  (9) 
unop_5

>  <geom_source>  (9) 
Heuristics

$$$$

     RDKit          3D

 27 26  0  0  0  0  0  0  0  0999 V2000
   -0.3102   -2.4831   -1.9271 C   0  0  0  0  0  0  0  0  0  0  0  0
   -0.3102   -2.4831   -0.4050 C   0  0  0  0  0  0  0  0  0  0  0  0
   -1.3585   -1.6705    0.0871 O   0  0  0  0  0  0  0  0  0  0  0  0
   -1.2676   -0.3710   -0.4123 C   0  0  0  0  0  3  0  0  0  0  0  0
   -1.3585   -0.3148   -1.8033 O   0  0  0  0  0  0  0  0  0  0  0  0
   -0.3102   -1.0415   -2.4152 C   0  0  0  0  0  0  0  0  0  0  0  0
    0.5638   -3.0156   -2.3090 H   0  0  0  0  0  0  0  0  0  0  0  0
   -1.2068   -2.9893   -2.2901 H   0  0  0  0  0  0  0  0  0  0  0  0
   -0.4692   -3.4806    0.0023 H   0  0  0  0  0  0  0  0  0  0  0  0
    0.6534   -2.1071   -0.0283 H   0  0  0  0  0  0  0  0  0  0  0  0
   -0.1212    0.1715   -0.0232 H   0  0  0  0  0  0  0  0  0  0  0  0
   -2.1087    0.1896   -0.0103 H   0  0  0  0  0  0  0  0  0  0  0  0
    0.6534   -0.5641   -2.1799 H   0  0  0  0  0  0  0  0  0  0  0  0
   -0.4692   -0.9755   -3.4906 H   0  0  0  0  0  0  0  0  0  0  0  0
    1.0104    0.7070    0.3608 C   0  0  0  0  0  0  0  0  0  0  0  0
    0.8631    1.4286    1.6935 C   0  0  0  0  0  0  0  0  0  0  0  0
    1.6442    2.7362    1.7543 C   0  0  0  0  0  0  0  0  0  0  0  0
    1.4969    3.4578    3.0871 C   0  0  0  0  0  0  0  0  0  0  0  0
    2.0565    0.4631    0.1613 H   0  0  0  0  0  0  0  0  0  0  0  0
    0.6540    1.3299   -0.4630 H   0  0  0  0  0  0  0  0  0  0  0  0
    1.1972    0.7737    2.5048 H   0  0  0  0  0  0  0  0  0  0  0  0
   -0.1951    1.6342    1.8850 H   0  0  0  0  0  0  0  0  0  0  0  0
    2.7023    2.5307    1.5629 H   0  0  0  0  0  0  0  0  0  0  0  0
    1.3101    3.3911    0.9431 H   0  0  0  0  0  0  0  0  0  0  0  0
    1.8533    2.8349    3.9109 H   0  0  0  0  0  0  0  0  0  0  0  0
    0.4507    3.7017    3.2866 H   0  0  0  0  0  0  0  0  0  0  0  0
    2.0654    4.3891    3.1030 H   0  0  0  0  0  0  0  0  0  0  0  0
  1  2  1  0
  1  6  1  0
  1  7  1  0
  1  8  1  0
  2  3  1  0
  2  9  1  0
  2 10  1  0
  3  4  1  0
  4  5  1  0
  4 12  1  0
  5  6  1  0
  6 13  1  0
  6 14  1  0
 11 15  1  0
 15 16  1  0
 15 19  1  0
 15 20  1  0
 16 17  1  0
 16 21  1  0
 16 22  1  0
 17 18  1  0
 17 23  1  0
 17 24  1  0
 18 25  1  0
 18 26  1  0
 18 27  1  0
M  RAD  1   4   2
M  END
>  <reaction>  (10) 
rmg_rxn_44

>  <mol_properties>  (10) 
{"2": {"label": "*0", "atom_type": "O2s"}, "3": {"label": "*1", "atom_type": "Cs"}, "10": {"label": "*2", "atom_type": "H0"}, "14": {"label": "*3", "atom_type": "Cs"}, "15": {"label": "*4", "atom_type": "Cs"}}

>  <type>  (10) 
unop_6

>  <geom_source>  (10) 
Heuristics

$$$$

     RDKit          3D

 27 26  0  0  0  0  0  0  0  0999 V2000
   -0.3201   -2.6564   -1.6508 C   0  0  0  0  0  0  0  0  0  0  0  0
   -0.3201   -2.6564   -0.1288 C   0  0  0  0  0  0  0  0  0  0  0  0
   -1.3684   -1.8438    0.3633 O   0  0  0  0  0  0  0  0  0  0  0  0
   -1.2775   -0.5443   -0.1360 C   0  0  0  0  0  3  0  0  0  0  0  0
   -1.3684   -0.4881   -1.5270 O   0  0  0  0  0  0  0  0  0  0  0  0
   -0.3201   -1.2148   -2.1389 C   0  0  0  0  0  0  0  0  0  0  0  0
    0.5539   -3.1889   -2.0327 H   0  0  0  0  0  0  0  0  0  0  0  0
   -1.2167   -3.1626   -2.0138 H   0  0  0  0  0  0  0  0  0  0  0  0
   -0.4791   -3.6539    0.2786 H   0  0  0  0  0  0  0  0  0  0  0  0
    0.6435   -2.2805    0.2480 H   0  0  0  0  0  0  0  0  0  0  0  0
   -0.1311   -0.0018    0.2531 H   0  0  0  0  0  0  0  0  0  0  0  0
   -2.1185    0.0163    0.2660 H   0  0  0  0  0  0  0  0  0  0  0  0
    0.6435   -0.7374   -1.9036 H   0  0  0  0  0  0  0  0  0  0  0  0
   -0.4791   -1.1488   -3.2144 H   0  0  0  0  0  0  0  0  0  0  0  0
    1.0005    0.5337    0.6371 C   0  0  0  0  0  0  0  0  0  0  0  0
    0.7710    1.7867    1.4713 C   0  0  0  0  0  0  0  0  0  0  0  0
    1.7606    2.9028    1.1575 C   0  0  0  0  0  0  0  0  0  0  0  0
    1.5311    4.1558    1.9917 C   0  0  0  0  0  0  0  0  0  0  0  0
    2.0014    0.1292    0.8057 H   0  0  0  0  0  0  0  0  0  0  0  0
    0.9080    0.7513   -0.4296 H   0  0  0  0  0  0  0  0  0  0  0  0
    0.8380    1.5371    2.5352 H   0  0  0  0  0  0  0  0  0  0  0  0
   -0.2473    2.1546    1.3090 H   0  0  0  0  0  0  0  0  0  0  0  0
    2.7789    2.5349    1.3199 H   0  0  0  0  0  0  0  0  0  0  0  0
    1.6936    3.1524    0.0937 H   0  0  0  0  0  0  0  0  0  0  0  0
    1.6235    3.9382    3.0584 H   0  0  0  0  0  0  0  0  0  0  0  0
    0.5302    4.5603    1.8231 H   0  0  0  0  0  0  0  0  0  0  0  0
    2.2522    4.9374    1.7470 H   0  0  0  0  0  0  0  0  0  0  0  0
  1  2  1  0
  1  6  1  0
  1  7  1  0
  1  8  1  0
  2  3  1  0
  2  9  1  0
  2 10  1  0
  3  4  1  0
  4  5  1  0
  4 12  1  0
  5  6  1  0
  6 13  1  0
  6 14  1  0
 11 15  1  0
 15 16  1  0
 15 19  1  0
 15 20  1  0
 16 17  1  0
 16 21  1  0
 16 22  1  0
 17 18  1  0
 17 23  1  0
 17 24  1  0
 18 25  1  0
 18 26  1  0
 18 27  1  0
M  RAD  1   4   2
M  END
>  <reaction>  (11) 
rmg_rxn_44

>  <mol_properties>  (11) 
{"2": {"label": "*0", "atom_type": "O2s"}, "3": {"label": "*1", "atom_type": "Cs"}, "10": {"label": "*2", "atom_type": "H0"}, "14": {"label": "*3", "atom_type": "Cs"}, "15": {"label": "*4", "atom_type": "Cs"}}

>  <type>  (11) 
unop_7

>  <geom_source>  (11) 
Heuristics

$$$$

     RDKit          3D

 27 26  0  0  0  0  0  0  0  0999 V2000
   -0.8432   -2.0659   -0.9384 C   0  0  0  0  0  0  0  0  0  0  0  0
   -0.8432   -2.0659    0.5837 C   0  0  0  0  0  0  0  0  0  0  0  0
   -1.8915   -1.2533    1.0758 O   0  0  0  0  0  0  0  0  0  0  0  0
   -1.8006    0.0462    0.5765 C   0  0  0  0  0  3  0  0  0  0  0  0
   -1.8915    0.1024   -0.8146 O   0  0  0  0  0  0  0  0  0  0  0  0
   -0.8432   -0.6243   -1.4265 C   0  0  0  0  0  0  0  0  0  0  0  0
    0.0308   -2.5984   -1.3202 H   0  0  0  0  0  0  0  0  0  0  0  0
   -1.7398   -2.5721   -1.3014 H   0  0  0  0  0  0  0  0  0  0  0  0
   -1.0021   -3.0635    0.9910 H   0  0  0  0  0  0  0  0  0  0  0  0
    0.1204   -1.6900    0.9604 H   0  0  0  0  0  0  0  0  0  0  0  0
   -0.6542    0.5887    0.9655 H   0  0  0  0  0  0  0  0  0  0  0  0
   -2.6416    0.6067    0.9784 H   0  0  0  0  0  0  0  0  0  0  0  0
    0.1204   -0.1469   -1.1912 H   0  0  0  0  0  0  0  0  0  0  0  0
   -1.0021   -0.5584   -2.5019 H   0  0  0  0  0  0  0  0  0  0  0  0
    0.4774    1.1242    1.3495 C   0  0  0  0  0  0  0  0  0  0  0  0
    1.5903    0.8594    0.3445 C   0  0  0  0  0  0  0  0  0  0  0  0
    2.5119    2.0570    0.1445 C   0  0  0  0  0  0  0  0  0  0  0  0
    3.6248    1.7922   -0.8605 C   0  0  0  0  0  0  0  0  0  0  0  0
   -0.1498    1.9591    1.0281 H   0  0  0  0  0  0  0  0  0  0  0  0
    0.8876    1.3781    2.3299 H   0  0  0  0  0  0  0  0  0  0  0  0
    1.1550    0.5774   -0.6196 H   0  0  0  0  0  0  0  0  0  0  0  0
    2.1848    0.0006    0.6725 H   0  0  0  0  0  0  0  0  0  0  0  0
    1.9174    2.9158   -0.1835 H   0  0  0  0  0  0  0  0  0  0  0  0
    2.9472    2.3390    1.1087 H   0  0  0  0  0  0  0  0  0  0  0  0
    3.2145    1.5383   -1.8408 H   0  0  0  0  0  0  0  0  0  0  0  0
    4.2519    0.9573   -0.5391 H   0  0  0  0  0  0  0  0  0  0  0  0
    4.2685    2.6646   -0.9841 H   0  0  0  0  0  0  0  0  0  0  0  0
  1  2  1  0
  1  6  1  0
  1  7  1  0
  1  8  1  0
  2  3  1  0
  2  9  1  0
  2 10  1  0
  3  4  1  0
  4  5  1  0
  4 12  1  0
  5  6  1  0
  6 13  1  0
  6 14  1  0
 11 15  1  0
 15 16  1  0
 15 19  1  0
 15 20  1  0
 16 17  1  0
 16 21  1  0
 16 22  1  0
 17 18  1  0
 17 23  1  0
 17 24  1  0
 18 25  1  0
 18 26  1  0
 18 27  1  0
M  RAD  1   4   2
M  END
>  <reaction>  (12) 
rmg_rxn_44

>  <mol_properties>  (12) 
{"2": {"label": "*0", "atom_type": "O2s"}, "3": {"label": "*1", "atom_type": "Cs"}, "10": {"label": "*2", "atom_type": "H0"}, "14": {"label": "*3", "atom_type": "Cs"}, "15": {"label": "*4", "atom_type": "Cs"}}

>  <type>  (12) 
unop_8

>  <geom_source>  (12) 
Heuristics

$$$$

     RDKit          3D

 27 26  0  0  0  0  0  0  0  0999 V2000
   -0.6052   -1.8815   -2.0590 C   0  0  0  0  0  0  0  0  0  0  0  0
   -0.6052   -1.8815   -0.5370 C   0  0  0  0  0  0  0  0  0  0  0  0
   -1.6535   -1.0689   -0.0449 O   0  0  0  0  0  0  0  0  0  0  0  0
   -1.5626    0.2306   -0.5442 C   0  0  0  0  0  3  0  0  0  0  0  0
   -1.6535    0.2868   -1.9352 O   0  0  0  0  0  0  0  0  0  0  0  0
   -0.6052   -0.4399   -2.5471 C   0  0  0  0  0  0  0  0  0  0  0  0
    0.2687   -2.4140   -2.4409 H   0  0  0  0  0  0  0  0  0  0  0  0
   -1.5018   -2.3877   -2.4220 H   0  0  0  0  0  0  0  0  0  0  0  0
   -0.7642   -2.8791   -0.1296 H   0  0  0  0  0  0  0  0  0  0  0  0
    0.3584   -1.5056   -0.1602 H   0  0  0  0  0  0  0  0  0  0  0  0
   -0.4162    0.7731   -0.1551 H   0  0  0  0  0  0  0  0  0  0  0  0
   -2.4037    0.7911   -0.1422 H   0  0  0  0  0  0  0  0  0  0  0  0
    0.3584    0.0375   -2.3118 H   0  0  0  0  0  0  0  0  0  0  0  0
   -0.7642   -0.3740   -3.6226 H   0  0  0  0  0  0  0  0  0  0  0  0
    0.7154    1.3086    0.2289 C   0  0  0  0  0  0  0  0  0  0  0  0
    1.1718    0.7488    1.5694 C   0  0  0  0  0  0  0  0  0  0  0  0
    2.2136    1.6227    2.2581 C   0  0  0  0  0  0  0  0  0  0  0  0
    2.6701    1.0630    3.5986 C   0  0  0  0  0  0  0  0  0  0  0  0
    1.5566    1.4060   -0.4614 H   0  0  0  0  0  0  0  0  0  0  0  0
    0.2711    2.2995    0.3494 H   0  0  0  0  0  0  0  0  0  0  0  0
    1.5841   -0.2553    1.4270 H   0  0  0  0  0  0  0  0  0  0  0  0
    0.3080    0.6316    2.2318 H   0  0  0  0  0  0  0  0  0  0  0  0
    3.0774    1.7399    1.5957 H   0  0  0  0  0  0  0  0  0  0  0  0
    1.8014    2.6269    2.4006 H   0  0  0  0  0  0  0  0  0  0  0  0
    3.1143    0.0721    3.4782 H   0  0  0  0  0  0  0  0  0  0  0  0
    1.8288    0.9656    4.2890 H   0  0  0  0  0  0  0  0  0  0  0  0
    3.4146    1.7073    4.0690 H   0  0  0  0  0  0  0  0  0  0  0  0
  1  2  1  0
  1  6  1  0
  1  7  1  0
  1  8  1  0
  2  3  1  0
  2  9  1  0
  2 10  1  0
  3  4  1  0
  4  5  1  0
  4 12  1  0
  5  6  1  0
  6 13  1  0
  6 14  1  0
 11 15  1  0
 15 16  1  0
 15 19  1  0
 15 20  1  0
 16 17  1  0
 16 21  1  0
 16 22  1  0
 17 18  1  0
 17 23  1  0
 17 24  1  0
 18 25  1  0
 18 26  1  0
 18 27  1  0
M  RAD  1   4   2
M  END
>  <reaction>  (13) 
rmg_rxn_44

>  <mol_properties>  (13) 
{"2": {"label": "*0", "atom_type": "O2s"}, "3": {"label": "*1", "atom_type": "Cs"}, "10": {"label": "*2", "atom_type": "H0"}, "14": {"label": "*3", "atom_type": "Cs"}, "15": {"label": "*4", "atom_type": "Cs"}}

>  <type>  (13) 
unop_9

>  <geom_source>  (13) 
Heuristics

$$$$

     RDKit          3D

 27 26  0  0  0  0  0  0  0  0999 V2000
   -0.9376   -1.7858   -1.1217 C   0  0  0  0  0  0  0  0  0  0  0  0
   -0.9376   -1.7858    0.4003 C   0  0  0  0  0  0  0  0  0  0  0  0
   -1.9859   -0.9732    0.8924 O   0  0  0  0  0  0  0  0  0  0  0  0
   -1.8950    0.3263    0.3931 C   0  0  0  0  0  3  0  0  0  0  0  0
   -1.9859    0.3825   -0.9979 O   0  0  0  0  0  0  0  0  0  0  0  0
   -0.9376   -0.3442   -1.6098 C   0  0  0  0  0  0  0  0  0  0  0  0
   -0.0636   -2.3183   -1.5036 H   0  0  0  0  0  0  0  0  0  0  0  0
   -1.8342   -2.2920   -1.4847 H   0  0  0  0  0  0  0  0  0  0  0  0
   -1.0966   -2.7833    0.8077 H   0  0  0  0  0  0  0  0  0  0  0  0
    0.0260   -1.4099    0.7771 H   0  0  0  0  0  0  0  0  0  0  0  0
   -0.7486    0.8688    0.7822 H   0  0  0  0  0  0  0  0  0  0  0  0
   -2.7360    0.8868    0.7951 H   0  0  0  0  0  0  0  0  0  0  0  0
    0.0260    0.1332   -1.3745 H   0  0  0  0  0  0  0  0  0  0  0  0
   -1.0966   -0.2783   -2.6853 H   0  0  0  0  0  0  0  0  0  0  0  0
    0.3830    1.4043    1.1662 C   0  0  0  0  0  0  0  0  0  0  0  0
    1.5781    0.6082    0.6597 C   0  0  0  0  0  0  0  0  0  0  0  0
    2.7996    1.4765    0.3813 C   0  0  0  0  0  0  0  0  0  0  0  0
    3.9947    0.6804   -0.1252 C   0  0  0  0  0  0  0  0  0  0  0  0
    0.0783    2.1591    0.4374 H   0  0  0  0  0  0  0  0  0  0  0  0
    0.6244    1.9230    2.0970 H   0  0  0  0  0  0  0  0  0  0  0  0
    1.3024    0.0738   -0.2552 H   0  0  0  0  0  0  0  0  0  0  0  0
    1.8445   -0.1606    1.3922 H   0  0  0  0  0  0  0  0  0  0  0  0
    2.5332    2.2452   -0.3513 H   0  0  0  0  0  0  0  0  0  0  0  0
    3.0753    2.0109    1.2961 H   0  0  0  0  0  0  0  0  0  0  0  0
    3.7533    0.1616   -1.0561 H   0  0  0  0  0  0  0  0  0  0  0  0
    4.2994   -0.0745    0.6036 H   0  0  0  0  0  0  0  0  0  0  0  0
    4.8538    1.3256   -0.3161 H   0  0  0  0  0  0  0  0  0  0  0  0
  1  2  1  0
  1  6  1  0
  1  7  1  0
  1  8  1  0
  2  3  1  0
  2  9  1  0
  2 10  1  0
  3  4  1  0
  4  5  1  0
  4 12  1  0
  5  6  1  0
  6 13  1  0
  6 14  1  0
 11 15  1  0
 15 16  1  0
 15 19  1  0
 15 20  1  0
 16 17  1  0
 16 21  1  0
 16 22  1  0
 17 18  1  0
 17 23  1  0
 17 24  1  0
 18 25  1  0
 18 26  1  0
 18 27  1  0
M  RAD  1   4   2
M  END
>  <reaction>  (14) 
rmg_rxn_44

>  <mol_properties>  (14) 
{"2": {"label": "*0", "atom_type": "O2s"}, "3": {"label": "*1", "atom_type": "Cs"}, "10": {"label": "*2", "atom_type": "H0"}, "14": {"label": "*3", "atom_type": "Cs"}, "15": {"label": "*4", "atom_type": "Cs"}}

>  <type>  (14) 
unop_10

>  <geom_source>  (14) 
Heuristics

$$$$

     RDKit          3D

 27 26  0  0  0  0  0  0  0  0999 V2000
   -0.4297   -2.6807   -1.3920 C   0  0  0  0  0  0  0  0  0  0  0  0
   -0.4297   -2.6807    0.1300 C   0  0  0  0  0  0  0  0  0  0  0  0
   -1.4780   -1.8681    0.6221 O   0  0  0  0  0  0  0  0  0  0  0  0
   -1.3871   -0.5685    0.1228 C   0  0  0  0  0  3  0  0  0  0  0  0
   -1.4780   -0.5124   -1.2683 O   0  0  0  0  0  0  0  0  0  0  0  0
   -0.4297   -1.2391   -1.8801 C   0  0  0  0  0  0  0  0  0  0  0  0
    0.4443   -3.2132   -1.7739 H   0  0  0  0  0  0  0  0  0  0  0  0
   -1.3263   -3.1869   -1.7551 H   0  0  0  0  0  0  0  0  0  0  0  0
   -0.5886   -3.6782    0.5373 H   0  0  0  0  0  0  0  0  0  0  0  0
    0.5339   -2.3047    0.5067 H   0  0  0  0  0  0  0  0  0  0  0  0
   -0.2407   -0.0261    0.5118 H   0  0  0  0  0  0  0  0  0  0  0  0
   -2.2281   -0.0080    0.5248 H   0  0  0  0  0  0  0  0  0  0  0  0
    0.5339   -0.7617   -1.6448 H   0  0  0  0  0  0  0  0  0  0  0  0
   -0.5886   -1.1731   -2.9556 H   0  0  0  0  0  0  0  0  0  0  0  0
    0.8909    0.5094    0.8959 C   0  0  0  0  0  0  0  0  0  0  0  0
    0.7700    2.0192    1.0519 C   0  0  0  0  0  0  0  0  0  0  0  0
    2.0820    2.7529    0.7992 C   0  0  0  0  0  0  0  0  0  0  0  0
    1.9611    4.2627    0.9553 C   0  0  0  0  0  0  0  0  0  0  0  0
    1.6244    0.1011    1.5952 H   0  0  0  0  0  0  0  0  0  0  0  0
    1.2149    0.2450   -0.1136 H   0  0  0  0  0  0  0  0  0  0  0  0
    0.4149    2.2571    2.0599 H   0  0  0  0  0  0  0  0  0  0  0  0
    0.0084    2.3998    0.3637 H   0  0  0  0  0  0  0  0  0  0  0  0
    2.8436    2.3723    1.4875 H   0  0  0  0  0  0  0  0  0  0  0  0
    2.4371    2.5151   -0.2087 H   0  0  0  0  0  0  0  0  0  0  0  0
    1.6372    4.5271    1.9647 H   0  0  0  0  0  0  0  0  0  0  0  0
    1.2276    4.6710    0.2559 H   0  0  0  0  0  0  0  0  0  0  0  0
    2.9133    4.7620    0.7691 H   0  0  0  0  0  0  0  0  0  0  0  0
  1  2  1  0
  1  6  1  0
  1  7  1  0
  1  8  1  0
  2  3  1  0
  2  9  1  0
  2 10  1  0
  3  4  1  0
  4  5  1  0
  4 12  1  0
  5  6  1  0
  6 13  1  0
  6 14  1  0
 11 15  1  0
 15 16  1  0
 15 19  1  0
 15 20  1  0
 16 17  1  0
 16 21  1  0
 16 22  1  0
 17 18  1  0
 17 23  1  0
 17 24  1  0
 18 25  1  0
 18 26  1  0
 18 27  1  0
M  RAD  1   4   2
M  END
>  <reaction>  (15) 
rmg_rxn_44

>  <mol_properties>  (15) 
{"2": {"label": "*0", "atom_type": "O2s"}, "3": {"label": "*1", "atom_type": "Cs"}, "10": {"label": "*2", "atom_type": "H0"}, "14": {"label": "*3", "atom_type": "Cs"}, "15": {"label": "*4", "atom_type": "Cs"}}

>  <type>  (15) 
unop_11

>  <geom_source>  (15) 
Heuristics

$$$$

     RDKit          3D

 27 26  0  0  0  0  0  0  0  0999 V2000
   -0.8075   -1.6603   -1.8163 C   0  0  0  0  0  0  0  0  0  0  0  0
   -0.8075   -1.6603   -0.2943 C   0  0  0  0  0  0  0  0  0  0  0  0
   -1.8558   -0.8477    0.1978 O   0  0  0  0  0  0  0  0  0  0  0  0
   -1.7649    0.4519   -0.3015 C   0  0  0  0  0  3  0  0  0  0  0  0
   -1.8558    0.5081   -1.6925 O   0  0  0  0  0  0  0  0  0  0  0  0
   -0.8075   -0.2186   -2.3044 C   0  0  0  0  0  0  0  0  0  0  0  0
    0.0665   -2.1927   -2.1982 H   0  0  0  0  0  0  0  0  0  0  0  0
   -1.7041   -2.1664   -2.1793 H   0  0  0  0  0  0  0  0  0  0  0  0
   -0.9665   -2.6578    0.1131 H   0  0  0  0  0  0  0  0  0  0  0  0
    0.1561   -1.2843    0.0825 H   0  0  0  0  0  0  0  0  0  0  0  0
   -0.6185    0.9944    0.0876 H   0  0  0  0  0  0  0  0  0  0  0  0
   -2.6060    1.0124    0.1005 H   0  0  0  0  0  0  0  0  0  0  0  0
    0.1561    0.2588   -2.0691 H   0  0  0  0  0  0  0  0  0  0  0  0
   -0.9665   -0.1527   -3.3799 H   0  0  0  0  0  0  0  0  0  0  0  0
    0.5131    1.5298    0.4716 C   0  0  0  0  0  0  0  0  0  0  0  0
    1.3292    0.5634    1.3193 C   0  0  0  0  0  0  0  0  0  0  0  0
    2.6557    1.1518    1.7860 C   0  0  0  0  0  0  0  0  0  0  0  0
    3.4718    0.1854    2.6337 C   0  0  0  0  0  0  0  0  0  0  0  0
    1.0638    1.8255   -0.4246 H   0  0  0  0  0  0  0  0  0  0  0  0
    0.2796    2.4393    1.0303 H   0  0  0  0  0  0  0  0  0  0  0  0
    1.5236   -0.3510    0.7495 H   0  0  0  0  0  0  0  0  0  0  0  0
    0.7452    0.2583    2.1936 H   0  0  0  0  0  0  0  0  0  0  0  0
    3.2397    1.4568    0.9117 H   0  0  0  0  0  0  0  0  0  0  0  0
    2.4613    2.0662    2.3558 H   0  0  0  0  0  0  0  0  0  0  0  0
    3.7053   -0.7241    2.0750 H   0  0  0  0  0  0  0  0  0  0  0  0
    2.9211   -0.1103    3.5299 H   0  0  0  0  0  0  0  0  0  0  0  0
    4.4148    0.6316    2.9537 H   0  0  0  0  0  0  0  0  0  0  0  0
  1  2  1  0
  1  6  1  0
  1  7  1  0
  1  8  1  0
  2  3  1  0
  2  9  1  0
  2 10  1  0
  3  4  1  0
  4  5  1  0
  4 12  1  0
  5  6  1  0
  6 13  1  0
  6 14  1  0
 11 15  1  0
 15 16  1  0
 15 19  1  0
 15 20  1  0
 16 17  1  0
 16 21  1  0
 16 22  1  0
 17 18  1  0
 17 23  1  0
 17 24  1  0
 18 25  1  0
 18 26  1  0
 18 27  1  0
M  RAD  1   4   2
M  END
>  <reaction>  (16) 
rmg_rxn_44

>  <mol_properties>  (16) 
{"2": {"label": "*0", "atom_type": "O2s"}, "3": {"label": "*1", "atom_type": "Cs"}, "10": {"label": "*2", "atom_type": "H0"}, "14": {"label": "*3", "atom_type": "Cs"}, "15": {"label": "*4", "atom_type": "Cs"}}

>  <type>  (16) 
unop_12

>  <geom_source>  (16) 
Heuristics

$$$$

     RDKit          3D

 27 26  0  0  0  0  0  0  0  0999 V2000
    1.9642   -0.7385    0.9980 O   0  0  0  0  0  0  0  0  0  0  0  0
    2.2536   -0.4013   -1.3617 O   0  0  0  0  0  0  0  0  0  0  0  0
   -2.0460    0.2006    0.1741 C   0  0  0  0  0  0  0  0  0  0  0  0
   -3.5218   -0.0075   -0.1828 C   0  0  0  0  0  0  0  0  0  0  0  0
    3.8624    0.4986    0.1894 C   0  0  0  0  0  0  0  0  0  0  0  0
    2.6186    0.5072    1.0806 C   0  0  0  0  0  0  0  0  0  0  0  0
    3.6159   -0.4364   -0.9967 C   0  0  0  0  0  0  0  0  0  0  0  0
   -1.1531   -0.7789   -0.5801 C   0  0  0  0  0  0  0  0  0  0  0  0
   -4.4143    0.9730    0.5724 C   0  0  0  0  0  0  0  0  0  0  0  0
    1.4415   -0.9217   -0.3127 C   0  0  0  0  0  3  0  0  0  0  0  0
   -1.8985    0.0517    1.2659 H   0  0  0  0  0  0  0  0  0  0  0  0
   -1.7390    1.2372   -0.0848 H   0  0  0  0  0  0  0  0  0  0  0  0
   -3.8276   -1.0448    0.0759 H   0  0  0  0  0  0  0  0  0  0  0  0
   -3.6681    0.1409   -1.2750 H   0  0  0  0  0  0  0  0  0  0  0  0
    4.7454    0.1415    0.7628 H   0  0  0  0  0  0  0  0  0  0  0  0
    4.0671    1.5305   -0.1701 H   0  0  0  0  0  0  0  0  0  0  0  0
    1.9298    1.3332    0.7865 H   0  0  0  0  0  0  0  0  0  0  0  0
    2.9206    0.6888    2.1337 H   0  0  0  0  0  0  0  0  0  0  0  0
    3.9254   -1.4775   -0.7460 H   0  0  0  0  0  0  0  0  0  0  0  0
    4.2315   -0.1067   -1.8600 H   0  0  0  0  0  0  0  0  0  0  0  0
   -1.4205   -1.8251   -0.3194 H   0  0  0  0  0  0  0  0  0  0  0  0
   -1.2603   -0.6341   -1.6763 H   0  0  0  0  0  0  0  0  0  0  0  0
    0.0558   -0.5770   -0.2602 H   0  0  0  0  0  0  0  0  0  0  0  0
   -5.4753    0.7994    0.2948 H   0  0  0  0  0  0  0  0  0  0  0  0
   -4.1455    2.0189    0.3118 H   0  0  0  0  0  0  0  0  0  0  0  0
   -4.3057    0.8281    1.6685 H   0  0  0  0  0  0  0  0  0  0  0  0
    1.2439   -2.0000   -0.4886 H   0  0  0  0  0  0  0  0  0  0  0  0
  1  6  1  0
  1 10  1  0
  2  7  1  0
  2 10  1  0
  3  8  1  0
  3  4  1  0
  3 11  1  0
  3 12  1  0
  4  9  1  0
  4 13  1  0
  4 14  1  0
  5  6  1  0
  5  7  1  0
  5 15  1  0
  5 16  1  0
  6 17  1  0
  6 18  1  0
  7 19  1  0
  7 20  1  0
  8 21  1  0
  8 22  1  0
  8 23  1  0
  9 24  1  0
  9 25  1  0
  9 26  1  0
 10 27  1  0
M  RAD  1  10   2
M  END
>  <reaction>  (17) 
rmg_rxn_44

>  <mol_properties>  (17) 
{"2": {"label": "*0", "atom_type": "O2s"}, "3": {"label": "*1", "atom_type": "Cs"}, "10": {"label": "*2", "atom_type": "H0"}, "14": {"label": "*3", "atom_type": "Cs"}, "15": {"label": "*4", "atom_type": "Cs"}}

>  <type>  (17) 
unop_13

>  <geom_source>  (17) 
AutoTST

$$$$

     RDKit          3D

 27 26  0  0  0  0  0  0  0  0999 V2000
   -0.9320   -1.6258   -1.4529 C   0  0  0  0  0  0  0  0  0  0  0  0
   -0.9320   -1.6258    0.0692 C   0  0  0  0  0  0  0  0  0  0  0  0
   -1.9803   -0.8132    0.5613 O   0  0  0  0  0  0  0  0  0  0  0  0
   -1.8894    0.4864    0.0620 C   0  0  0  0  0  3  0  0  0  0  0  0
   -1.9803    0.5426   -1.3291 O   0  0  0  0  0  0  0  0  0  0  0  0
   -0.9320   -0.1841   -1.9410 C   0  0  0  0  0  0  0  0  0  0  0  0
   -0.0580   -2.1582   -1.8347 H   0  0  0  0  0  0  0  0  0  0  0  0
   -1.8285   -2.1319   -1.8159 H   0  0  0  0  0  0  0  0  0  0  0  0
   -1.0909   -2.6233    0.4765 H   0  0  0  0  0  0  0  0  0  0  0  0
    0.0316   -1.2498    0.4459 H   0  0  0  0  0  0  0  0  0  0  0  0
   -0.7429    1.0289    0.4510 H   0  0  0  0  0  0  0  0  0  0  0  0
   -2.7304    1.0469    0.4639 H   0  0  0  0  0  0  0  0  0  0  0  0
    0.0316    0.2933   -1.7057 H   0  0  0  0  0  0  0  0  0  0  0  0
   -1.0909   -0.1182   -3.0164 H   0  0  0  0  0  0  0  0  0  0  0  0
    0.3886    1.5643    0.8350 C   0  0  0  0  0  0  0  0  0  0  0  0
    1.4751    0.5114    1.0067 C   0  0  0  0  0  0  0  0  0  0  0  0
    2.8810    1.1004    1.0201 C   0  0  0  0  0  0  0  0  0  0  0  0
    3.9675    0.0474    1.1917 C   0  0  0  0  0  0  0  0  0  0  0  0
    0.5155    2.1082   -0.1041 H   0  0  0  0  0  0  0  0  0  0  0  0
    0.4204    2.2953    1.6464 H   0  0  0  0  0  0  0  0  0  0  0  0
    1.4031   -0.2256    0.2002 H   0  0  0  0  0  0  0  0  0  0  0  0
    1.3087   -0.0398    1.9379 H   0  0  0  0  0  0  0  0  0  0  0  0
    3.0474    1.6515    0.0889 H   0  0  0  0  0  0  0  0  0  0  0  0
    2.9530    1.8373    1.8265 H   0  0  0  0  0  0  0  0  0  0  0  0
    3.9357   -0.6836    0.3803 H   0  0  0  0  0  0  0  0  0  0  0  0
    3.8406   -0.4964    2.1308 H   0  0  0  0  0  0  0  0  0  0  0  0
    4.9623    0.4959    1.1978 H   0  0  0  0  0  0  0  0  0  0  0  0
  1  2  1  0
  1  6  1  0
  1  7  1  0
  1  8  1  0
  2  3  1  0
  2  9  1  0
  2 10  1  0
  3  4  1  0
  4  5  1  0
  4 12  1  0
  5  6  1  0
  6 13  1  0
  6 14  1  0
 11 15  1  0
 15 16  1  0
 15 19  1  0
 15 20  1  0
 16 17  1  0
 16 21  1  0
 16 22  1  0
 17 18  1  0
 17 23  1  0
 17 24  1  0
 18 25  1  0
 18 26  1  0
 18 27  1  0
M  RAD  1   4   2
M  END
>  <reaction>  (18) 
rmg_rxn_44

>  <mol_properties>  (18) 
{"2": {"label": "*0", "atom_type": "O2s"}, "3": {"label": "*1", "atom_type": "Cs"}, "10": {"label": "*2", "atom_type": "H0"}, "14": {"label": "*3", "atom_type": "Cs"}, "15": {"label": "*4", "atom_type": "Cs"}}

>  <type>  (18) 
unop_14

>  <geom_source>  (18) 
gaussian_log

$$$$
