
     RDKit          3D

  9  8  0  0  0  0  0  0  0  0999 V2000
   -1.2461    0.5037    0.0950 C   0  0  0  0  0  0  0  0  0  0  0  0
   -0.0155   -0.3334    0.0640 C   0  0  0  0  0  0  0  0  0  0  0  0
    1.0697    0.1457   -0.3733 N   0  0  0  0  0  0  0  0  0  0  0  0
    2.1001   -0.7834   -0.3224 O   0  0  0  0  0  0  0  0  0  0  0  0
   -2.0357    0.0440   -0.5039 H   0  0  0  0  0  0  0  0  0  0  0  0
   -1.6237    0.5897    1.1166 H   0  0  0  0  0  0  0  0  0  0  0  0
   -1.0397    1.4998   -0.2929 H   0  0  0  0  0  0  0  0  0  0  0  0
   -0.0537   -1.3634    0.4205 H   0  0  0  0  0  0  0  0  0  0  0  0
    2.8478   -0.2985   -0.6758 H   0  0  0  0  0  0  0  0  0  0  0  0
  1  2  1  0
  1  5  1  0
  1  6  1  0
  1  7  1  0
  2  3  2  3
  2  8  1  0
  3  4  1  0
  4  9  1  0
M  END
>  <reaction>  (1) 
rmg_rxn_253

>  <mol_properties>  (1) 
{"3": {"label": "donator", "atom_type": "O2s"}, "8": {"label": "d_hydrogen", "atom_type": "H0"}}

>  <type>  (1) 
r1h

$$$$

     RDKit          3D

 13 13  0  0  0  0  0  0  0  0999 V2000
   -0.9087    1.0135    0.2744 C   0  0  0  0  0  3  0  0  0  0  0  0
   -1.1528   -0.4306   -0.0132 C   0  0  0  0  0  0  0  0  0  0  0  0
    0.1597   -1.1985    0.0580 C   0  0  0  0  0  0  0  0  0  0  0  0
    1.1497   -0.5125   -0.6902 O   0  0  0  0  0  0  0  0  0  0  0  0
    1.3593    0.7608   -0.1866 C   0  0  0  0  0  0  0  0  0  0  0  0
    0.2092    1.5798   -0.2538 O   0  0  0  0  0  0  0  0  0  0  0  0
   -1.7260    1.7182    0.3534 H   0  0  0  0  0  0  0  0  0  0  0  0
   -1.8796   -0.8393    0.6913 H   0  0  0  0  0  0  0  0  0  0  0  0
   -1.5725   -0.5507   -1.0227 H   0  0  0  0  0  0  0  0  0  0  0  0
    0.4914   -1.2968    1.1007 H   0  0  0  0  0  0  0  0  0  0  0  0
    0.0732   -2.1931   -0.3758 H   0  0  0  0  0  0  0  0  0  0  0  0
    1.6805    0.7077    0.8652 H   0  0  0  0  0  0  0  0  0  0  0  0
    2.1167    1.2415   -0.8007 H   0  0  0  0  0  0  0  0  0  0  0  0
  1  2  1  0
  1  6  1  0
  1  7  1  0
  2  3  1  0
  2  8  1  0
  2  9  1  0
  3  4  1  0
  3 10  1  0
  3 11  1  0
  4  5  1  0
  5  6  1  0
  5 12  1  0
  5 13  1  0
M  RAD  1   1   2
M  END
>  <reaction>  (2) 
rmg_rxn_253

>  <mol_properties>  (2) 
{"0": {"label": "acceptor", "atom_type": "Cs"}}

>  <type>  (2) 
r2

$$$$

     RDKit          3D

 14 14  0  0  0  0  0  0  0  0999 V2000
   -1.1778    0.2241    0.1818 C   0  0  0  0  0  0  0  0  0  0  0  0
   -0.5633   -1.1636    0.0678 C   0  0  0  0  0  0  0  0  0  0  0  0
    0.6943   -1.1996    0.7146 O   0  0  0  0  0  0  0  0  0  0  0  0
    1.5547   -0.2288    0.2011 C   0  0  0  0  0  0  0  0  0  0  0  0
    1.0729    1.0696    0.3698 O   0  0  0  0  0  0  0  0  0  0  0  0
   -0.1607    1.2493   -0.2989 C   0  0  0  0  0  0  0  0  0  0  0  0
   -2.0927    0.2866   -0.4117 H   0  0  0  0  0  0  0  0  0  0  0  0
   -1.4303    0.4248    1.2248 H   0  0  0  0  0  0  0  0  0  0  0  0
   -1.1822   -1.9235    0.5431 H   0  0  0  0  0  0  0  0  0  0  0  0
   -0.4389   -1.4347   -0.9919 H   0  0  0  0  0  0  0  0  0  0  0  0
    1.7250   -0.4207   -0.8742 H   0  0  0  0  0  0  0  0  0  0  0  0
    2.4896   -0.3010    0.7524 H   0  0  0  0  0  0  0  0  0  0  0  0
   -0.0080    1.1481   -1.3844 H   0  0  0  0  0  0  0  0  0  0  0  0
   -0.4826    2.2695   -0.0942 H   0  0  0  0  0  0  0  0  0  0  0  0
  1  2  1  0
  1  6  1  0
  1  7  1  0
  1  8  1  0
  2  3  1  0
  2  9  1  0
  2 10  1  0
  3  4  1  0
  4  5  1  0
  4 11  1  0
  4 12  1  0
  5  6  1  0
  6 13  1  0
  6 14  1  0
M  END
>  <reaction>  (3) 
rmg_rxn_253

>  <mol_properties>  (3) 
{"0": {"label": "a_hydrogen", "atom_type": "H0"}, "1": {"label": "acceptor", "atom_type": "Cs"}}

>  <type>  (3) 
r2h

$$$$

     RDKit          3D

 22 21  0  0  0  0  0  0  0  0999 V2000
   -0.0634   -2.5875   -3.3249 C   0  0  0  0  0  0  0  0  0  0  0  0
    0.4187   -2.7344   -1.9231 C   0  0  0  0  0  0  0  0  0  0  0  0
    0.4399   -1.7332   -1.1447 N   0  0  0  0  0  0  0  0  0  0  0  0
    0.8886   -1.9619    0.0872 O   0  0  0  0  0  0  0  0  0  0  0  0
    0.7198   -2.8662   -4.0342 H   0  0  0  0  0  0  0  0  0  0  0  0
   -0.9155   -3.2461   -3.5096 H   0  0  0  0  0  0  0  0  0  0  0  0
   -0.3649   -1.5588   -3.5169 H   0  0  0  0  0  0  0  0  0  0  0  0
    0.7519   -3.7104   -1.5695 H   0  0  0  0  0  0  0  0  0  0  0  0
    0.7767   -0.9014    0.6616 H   0  0  0  0  0  0  0  0  0  0  0  0
    0.6132    0.3035    1.1424 C   0  0  0  0  0  3  0  0  0  0  0  0
    0.8790    1.2387   -0.0034 C   0  0  0  0  0  0  0  0  0  0  0  0
    0.3053    2.6154    0.3351 C   0  0  0  0  0  0  0  0  0  0  0  0
   -1.0396    2.4863    0.7505 O   0  0  0  0  0  0  0  0  0  0  0  0
   -1.1475    1.6543    1.8538 C   0  0  0  0  0  0  0  0  0  0  0  0
   -0.6894    0.3435    1.5983 O   0  0  0  0  0  0  0  0  0  0  0  0
    1.3474    0.3164    1.9587 H   0  0  0  0  0  0  0  0  0  0  0  0
    1.9492    1.3003   -0.2047 H   0  0  0  0  0  0  0  0  0  0  0  0
    0.3834    0.8510   -0.8972 H   0  0  0  0  0  0  0  0  0  0  0  0
    0.8942    3.0917    1.1321 H   0  0  0  0  0  0  0  0  0  0  0  0
    0.3060    3.2711   -0.5341 H   0  0  0  0  0  0  0  0  0  0  0  0
   -0.5734    2.0707    2.6987 H   0  0  0  0  0  0  0  0  0  0  0  0
   -2.2010    1.5715    2.1080 H   0  0  0  0  0  0  0  0  0  0  0  0
  1  2  1  0
  1  5  1  0
  1  6  1  0
  1  7  1  0
  2  3  2  3
  2  8  1  0
  3  4  1  0
  4  9  1  0
 10 11  1  0
 10 15  1  0
 10 16  1  0
 11 12  1  0
 11 17  1  0
 11 18  1  0
 12 13  1  0
 12 19  1  0
 12 20  1  0
 13 14  1  0
 14 15  1  0
 14 21  1  0
 14 22  1  0
M  RAD  1  10   2
M  END
>  <reaction>  (4) 
rmg_rxn_253

>  <mol_properties>  (4) 
{"2": {"label": "*0", "atom_type": "N3d"}, "3": {"label": "*1", "atom_type": "O2s"}, "8": {"label": "*2", "atom_type": "H0"}, "9": {"label": "*3", "atom_type": "Cs"}, "14": {"label": "*4", "atom_type": "O2s"}}

>  <type>  (4) 
ts

$$$$

     RDKit          3D

 22 21  0  0  0  0  0  0  0  0999 V2000
   -0.0674   -2.1422   -4.2249 C   0  0  0  0  0  0  0  0  0  0  0  0
   -0.0674   -2.1422   -2.7362 C   0  0  0  0  0  0  0  0  0  0  0  0
   -0.0674   -1.0501   -2.0994 N   0  0  0  0  0  0  0  0  0  0  0  0
   -0.0674   -1.2548   -0.7262 O   0  0  0  0  0  0  0  0  0  0  0  0
    0.8120   -2.6660   -4.6067 H   0  0  0  0  0  0  0  0  0  0  0  0
   -0.9468   -2.6660   -4.6067 H   0  0  0  0  0  0  0  0  0  0  0  0
   -0.0674   -1.1225   -4.6063 H   0  0  0  0  0  0  0  0  0  0  0  0
   -0.0674   -3.0897   -2.1961 H   0  0  0  0  0  0  0  0  0  0  0  0
   -0.0674   -0.1851   -0.3028 H   0  0  0  0  0  0  0  0  0  0  0  0
   -0.0674    1.0302    0.1781 C   0  0  0  0  0  3  0  0  0  0  0  0
   -1.2899    1.2997    1.0439 C   0  0  0  0  0  0  0  0  0  0  0  0
   -0.8311    1.9145    2.3585 C   0  0  0  0  0  0  0  0  0  0  0  0
    0.1743    1.1149    2.9513 O   0  0  0  0  0  0  0  0  0  0  0  0
    1.2510    0.9310    2.0833 C   0  0  0  0  0  0  0  0  0  0  0  0
    0.8924    0.2833    0.9008 O   0  0  0  0  0  0  0  0  0  0  0  0
    0.3789    1.9814   -0.1501 H   0  0  0  0  0  0  0  0  0  0  0  0
   -1.9817    1.9705    0.5295 H   0  0  0  0  0  0  0  0  0  0  0  0
   -1.8075    0.3596    1.2439 H   0  0  0  0  0  0  0  0  0  0  0  0
   -0.4384    2.9280    2.1836 H   0  0  0  0  0  0  0  0  0  0  0  0
   -1.6431    1.9839    3.0810 H   0  0  0  0  0  0  0  0  0  0  0  0
    1.7008    1.9119    1.8430 H   0  0  0  0  0  0  0  0  0  0  0  0
    1.9728    0.2970    2.5933 H   0  0  0  0  0  0  0  0  0  0  0  0
  1  2  1  0
  1  5  1  0
  1  6  1  0
  1  7  1  0
  2  3  2  3
  2  8  1  0
  3  4  1  0
  4  9  1  0
 10 11  1  0
 10 15  1  0
 10 16  1  0
 11 12  1  0
 11 17  1  0
 11 18  1  0
 12 13  1  0
 12 19  1  0
 12 20  1  0
 13 14  1  0
 14 15  1  0
 14 21  1  0
 14 22  1  0
M  RAD  1  10   2
M  END
>  <reaction>  (5) 
rmg_rxn_253

>  <mol_properties>  (5) 
{"2": {"label": "*0", "atom_type": "N3d"}, "3": {"label": "*1", "atom_type": "O2s"}, "8": {"label": "*2", "atom_type": "H0"}, "9": {"label": "*3", "atom_type": "Cs"}, "14": {"label": "*4", "atom_type": "O2s"}}

>  <type>  (5) 
unop_1

>  <geom_source>  (5) 
Heuristics

$$$$

     RDKit          3D

 22 21  0  0  0  0  0  0  0  0999 V2000
    0.6227   -2.6176   -3.6618 C   0  0  0  0  0  0  0  0  0  0  0  0
    0.6227   -2.6176   -2.1731 C   0  0  0  0  0  0  0  0  0  0  0  0
    0.6227   -1.5255   -1.5363 N   0  0  0  0  0  0  0  0  0  0  0  0
    0.6227   -1.7302   -0.1631 O   0  0  0  0  0  0  0  0  0  0  0  0
    1.5021   -3.1414   -4.0436 H   0  0  0  0  0  0  0  0  0  0  0  0
   -0.2568   -3.1414   -4.0436 H   0  0  0  0  0  0  0  0  0  0  0  0
    0.6227   -1.5979   -4.0432 H   0  0  0  0  0  0  0  0  0  0  0  0
    0.6227   -3.5651   -1.6330 H   0  0  0  0  0  0  0  0  0  0  0  0
    0.6227   -0.6605    0.2602 H   0  0  0  0  0  0  0  0  0  0  0  0
    0.6227    0.5548    0.7412 C   0  0  0  0  0  3  0  0  0  0  0  0
   -0.0831    1.5339   -0.1860 C   0  0  0  0  0  0  0  0  0  0  0  0
   -0.6379    2.6810    0.6464 C   0  0  0  0  0  0  0  0  0  0  0  0
   -1.4172    2.1809    1.7160 O   0  0  0  0  0  0  0  0  0  0  0  0
   -0.6816    1.2992    2.5083 C   0  0  0  0  0  0  0  0  0  0  0  0
   -0.2318    0.1813    1.8051 O   0  0  0  0  0  0  0  0  0  0  0  0
    1.5368    1.0136    1.1483 H   0  0  0  0  0  0  0  0  0  0  0  0
    0.6094    1.9108   -0.9420 H   0  0  0  0  0  0  0  0  0  0  0  0
   -0.9038    1.0247   -0.6950 H   0  0  0  0  0  0  0  0  0  0  0  0
    0.1875    3.2894    1.0469 H   0  0  0  0  0  0  0  0  0  0  0  0
   -1.2877    3.3312    0.0623 H   0  0  0  0  0  0  0  0  0  0  0  0
    0.1838    1.8316    2.9441 H   0  0  0  0  0  0  0  0  0  0  0  0
   -1.3429    0.9421    3.2946 H   0  0  0  0  0  0  0  0  0  0  0  0
  1  2  1  0
  1  5  1  0
  1  6  1  0
  1  7  1  0
  2  3  2  3
  2  8  1  0
  3  4  1  0
  4  9  1  0
 10 11  1  0
 10 15  1  0
 10 16  1  0
 11 12  1  0
 11 17  1  0
 11 18  1  0
 12 13  1  0
 12 19  1  0
 12 20  1  0
 13 14  1  0
 14 15  1  0
 14 21  1  0
 14 22  1  0
M  RAD  1  10   2
M  END
>  <reaction>  (6) 
rmg_rxn_253

>  <mol_properties>  (6) 
{"2": {"label": "*0", "atom_type": "N3d"}, "3": {"label": "*1", "atom_type": "O2s"}, "8": {"label": "*2", "atom_type": "H0"}, "9": {"label": "*3", "atom_type": "Cs"}, "14": {"label": "*4", "atom_type": "O2s"}}

>  <type>  (6) 
unop_2

>  <geom_source>  (6) 
Heuristics

$$$$

     RDKit          3D

 22 21  0  0  0  0  0  0  0  0999 V2000
   -0.4297   -2.3301   -4.0774 C   0  0  0  0  0  0  0  0  0  0  0  0
   -0.4297   -2.3301   -2.5887 C   0  0  0  0  0  0  0  0  0  0  0  0
   -0.4297   -1.2380   -1.9519 N   0  0  0  0  0  0  0  0  0  0  0  0
   -0.4297   -1.4427   -0.5787 O   0  0  0  0  0  0  0  0  0  0  0  0
    0.4497   -2.8539   -4.4592 H   0  0  0  0  0  0  0  0  0  0  0  0
   -1.3091   -2.8539   -4.4592 H   0  0  0  0  0  0  0  0  0  0  0  0
   -0.4297   -1.3104   -4.4588 H   0  0  0  0  0  0  0  0  0  0  0  0
   -0.4297   -3.2776   -2.0486 H   0  0  0  0  0  0  0  0  0  0  0  0
   -0.4297   -0.3730   -0.1554 H   0  0  0  0  0  0  0  0  0  0  0  0
   -0.4297    0.8423    0.3256 C   0  0  0  0  0  3  0  0  0  0  0  0
   -1.1355    0.9217    1.6718 C   0  0  0  0  0  0  0  0  0  0  0  0
   -0.3746    1.8908    2.5654 C   0  0  0  0  0  0  0  0  0  0  0  0
    0.9961    1.5439    2.6127 O   0  0  0  0  0  0  0  0  0  0  0  0
    1.5516    1.5031    1.3336 C   0  0  0  0  0  0  0  0  0  0  0  0
    0.9443    0.5578    0.5064 O   0  0  0  0  0  0  0  0  0  0  0  0
   -0.5393    1.7955   -0.2140 H   0  0  0  0  0  0  0  0  0  0  0  0
   -2.1685    1.2523    1.5424 H   0  0  0  0  0  0  0  0  0  0  0  0
   -1.1463   -0.0669    2.1348 H   0  0  0  0  0  0  0  0  0  0  0  0
   -0.4803    2.9177    2.1833 H   0  0  0  0  0  0  0  0  0  0  0  0
   -0.7388    1.8701    3.5916 H   0  0  0  0  0  0  0  0  0  0  0  0
    1.4744    2.5026    0.8676 H   0  0  0  0  0  0  0  0  0  0  0  0
    2.5946    1.2146    1.4429 H   0  0  0  0  0  0  0  0  0  0  0  0
  1  2  1  0
  1  5  1  0
  1  6  1  0
  1  7  1  0
  2  3  2  3
  2  8  1  0
  3  4  1  0
  4  9  1  0
 10 11  1  0
 10 15  1  0
 10 16  1  0
 11 12  1  0
 11 17  1  0
 11 18  1  0
 12 13  1  0
 12 19  1  0
 12 20  1  0
 13 14  1  0
 14 15  1  0
 14 21  1  0
 14 22  1  0
M  RAD  1  10   2
M  END
>  <reaction>  (7) 
rmg_rxn_253

>  <mol_properties>  (7) 
{"2": {"label": "*0", "atom_type": "N3d"}, "3": {"label": "*1", "atom_type": "O2s"}, "8": {"label": "*2", "atom_type": "H0"}, "9": {"label": "*3", "atom_type": "Cs"}, "14": {"label": "*4", "atom_type": "O2s"}}

>  <type>  (7) 
unop_3

>  <geom_source>  (7) 
Heuristics

$$$$

     RDKit          3D

 22 21  0  0  0  0  0  0  0  0999 V2000
   -0.1029   -2.9235   -3.5976 C   0  0  0  0  0  0  0  0  0  0  0  0
   -0.1029   -2.9235   -2.1089 C   0  0  0  0  0  0  0  0  0  0  0  0
   -0.1029   -1.8314   -1.4721 N   0  0  0  0  0  0  0  0  0  0  0  0
   -0.1029   -2.0361   -0.0989 O   0  0  0  0  0  0  0  0  0  0  0  0
    0.7765   -3.4473   -3.9794 H   0  0  0  0  0  0  0  0  0  0  0  0
   -0.9823   -3.4473   -3.9794 H   0  0  0  0  0  0  0  0  0  0  0  0
   -0.1029   -1.9038   -3.9790 H   0  0  0  0  0  0  0  0  0  0  0  0
   -0.1029   -3.8710   -1.5688 H   0  0  0  0  0  0  0  0  0  0  0  0
   -0.1029   -0.9665    0.3244 H   0  0  0  0  0  0  0  0  0  0  0  0
   -0.1029    0.2488    0.8054 C   0  0  0  0  0  3  0  0  0  0  0  0
    1.1195    1.0378    0.3586 C   0  0  0  0  0  0  0  0  0  0  0  0
    1.3590    2.1689    1.3485 C   0  0  0  0  0  0  0  0  0  0  0  0
    0.1761    2.9235    1.5291 O   0  0  0  0  0  0  0  0  0  0  0  0
   -0.8819    2.1136    1.9427 C   0  0  0  0  0  0  0  0  0  0  0  0
   -1.1987    1.1179    1.0183 O   0  0  0  0  0  0  0  0  0  0  0  0
    0.1197   -0.2960    1.7357 H   0  0  0  0  0  0  0  0  0  0  0  0
    1.9950    0.3869    0.3034 H   0  0  0  0  0  0  0  0  0  0  0  0
    0.9390    1.4559   -0.6336 H   0  0  0  0  0  0  0  0  0  0  0  0
    1.6845    1.7592    2.3171 H   0  0  0  0  0  0  0  0  0  0  0  0
    2.1227    2.8620    0.9982 H   0  0  0  0  0  0  0  0  0  0  0  0
   -0.6301    1.6474    2.9129 H   0  0  0  0  0  0  0  0  0  0  0  0
   -1.7572    2.7515    2.0437 H   0  0  0  0  0  0  0  0  0  0  0  0
  1  2  1  0
  1  5  1  0
  1  6  1  0
  1  7  1  0
  2  3  2  3
  2  8  1  0
  3  4  1  0
  4  9  1  0
 10 11  1  0
 10 15  1  0
 10 16  1  0
 11 12  1  0
 11 17  1  0
 11 18  1  0
 12 13  1  0
 12 19  1  0
 12 20  1  0
 13 14  1  0
 14 15  1  0
 14 21  1  0
 14 22  1  0
M  RAD  1  10   2
M  END
>  <reaction>  (8) 
rmg_rxn_253

>  <mol_properties>  (8) 
{"2": {"label": "*0", "atom_type": "N3d"}, "3": {"label": "*1", "atom_type": "O2s"}, "8": {"label": "*2", "atom_type": "H0"}, "9": {"label": "*3", "atom_type": "Cs"}, "14": {"label": "*4", "atom_type": "O2s"}}

>  <type>  (8) 
unop_4

>  <geom_source>  (8) 
Heuristics

$$$$

     RDKit          3D

 22 21  0  0  0  0  0  0  0  0999 V2000
   -0.4107   -2.7183   -3.8040 C   0  0  0  0  0  0  0  0  0  0  0  0
   -0.4107   -2.7183   -2.3153 C   0  0  0  0  0  0  0  0  0  0  0  0
   -0.4107   -1.6262   -1.6785 N   0  0  0  0  0  0  0  0  0  0  0  0
   -0.4107   -1.8309   -0.3053 O   0  0  0  0  0  0  0  0  0  0  0  0
    0.4687   -3.2421   -4.1858 H   0  0  0  0  0  0  0  0  0  0  0  0
   -1.2901   -3.2421   -4.1858 H   0  0  0  0  0  0  0  0  0  0  0  0
   -0.4107   -1.6986   -4.1854 H   0  0  0  0  0  0  0  0  0  0  0  0
   -0.4107   -3.6658   -1.7752 H   0  0  0  0  0  0  0  0  0  0  0  0
   -0.4107   -0.7612    0.1180 H   0  0  0  0  0  0  0  0  0  0  0  0
   -0.4107    0.4540    0.5990 C   0  0  0  0  0  3  0  0  0  0  0  0
   -0.4107    0.4638    2.1210 C   0  0  0  0  0  0  0  0  0  0  0  0
   -0.1839    1.8906    2.5999 C   0  0  0  0  0  0  0  0  0  0  0  0
    0.9657    2.4394    1.9845 O   0  0  0  0  0  0  0  0  0  0  0  0
    0.8671    2.3892    0.5937 C   0  0  0  0  0  0  0  0  0  0  0  0
    0.7524    1.0884    0.1028 O   0  0  0  0  0  0  0  0  0  0  0  0
   -1.3032    0.9745    0.2189 H   0  0  0  0  0  0  0  0  0  0  0  0
   -1.3576    0.0780    2.5054 H   0  0  0  0  0  0  0  0  0  0  0  0
    0.3950   -0.1747    2.4882 H   0  0  0  0  0  0  0  0  0  0  0  0
   -1.0604    2.5122    2.3606 H   0  0  0  0  0  0  0  0  0  0  0  0
   -0.0165    1.9377    3.6751 H   0  0  0  0  0  0  0  0  0  0  0  0
   -0.0052    2.9839    0.2657 H   0  0  0  0  0  0  0  0  0  0  0  0
    1.7859    2.8078    0.1891 H   0  0  0  0  0  0  0  0  0  0  0  0
  1  2  1  0
  1  5  1  0
  1  6  1  0
  1  7  1  0
  2  3  2  3
  2  8  1  0
  3  4  1  0
  4  9  1  0
 10 11  1  0
 10 15  1  0
 10 16  1  0
 11 12  1  0
 11 17  1  0
 11 18  1  0
 12 13  1  0
 12 19  1  0
 12 20  1  0
 13 14  1  0
 14 15  1  0
 14 21  1  0
 14 22  1  0
M  RAD  1  10   2
M  END
>  <reaction>  (9) 
rmg_rxn_253

>  <mol_properties>  (9) 
{"2": {"label": "*0", "atom_type": "N3d"}, "3": {"label": "*1", "atom_type": "O2s"}, "8": {"label": "*2", "atom_type": "H0"}, "9": {"label": "*3", "atom_type": "Cs"}, "14": {"label": "*4", "atom_type": "O2s"}}

>  <type>  (9) 
unop_5

>  <geom_source>  (9) 
Heuristics

$$$$

     RDKit          3D

 22 21  0  0  0  0  0  0  0  0999 V2000
   -0.1344   -2.8604   -3.7485 C   0  0  0  0  0  0  0  0  0  0  0  0
   -0.1344   -2.8604   -2.2598 C   0  0  0  0  0  0  0  0  0  0  0  0
   -0.1344   -1.7683   -1.6230 N   0  0  0  0  0  0  0  0  0  0  0  0
   -0.1344   -1.9730   -0.2498 O   0  0  0  0  0  0  0  0  0  0  0  0
    0.7450   -3.3842   -4.1303 H   0  0  0  0  0  0  0  0  0  0  0  0
   -1.0138   -3.3842   -4.1303 H   0  0  0  0  0  0  0  0  0  0  0  0
   -0.1344   -1.8407   -4.1299 H   0  0  0  0  0  0  0  0  0  0  0  0
   -0.1344   -3.8079   -1.7197 H   0  0  0  0  0  0  0  0  0  0  0  0
   -0.1344   -0.9033    0.1735 H   0  0  0  0  0  0  0  0  0  0  0  0
   -0.1344    0.3120    0.6545 C   0  0  0  0  0  3  0  0  0  0  0  0
    1.2772    0.8412    0.8640 C   0  0  0  0  0  0  0  0  0  0  0  0
    1.2651    1.8135    2.0350 C   0  0  0  0  0  0  0  0  0  0  0  0
    0.2646    2.7961    1.8485 O   0  0  0  0  0  0  0  0  0  0  0  0
   -0.9901    2.2125    1.6711 C   0  0  0  0  0  0  0  0  0  0  0  0
   -1.0515    1.3841    0.5503 O   0  0  0  0  0  0  0  0  0  0  0  0
   -0.4222   -0.3368    1.4960 H   0  0  0  0  0  0  0  0  0  0  0  0
    1.9687    0.0182    1.0580 H   0  0  0  0  0  0  0  0  0  0  0  0
    1.6070    1.3622   -0.0370 H   0  0  0  0  0  0  0  0  0  0  0  0
    1.0758    1.2704    2.9736 H   0  0  0  0  0  0  0  0  0  0  0  0
    2.2112    2.3441    2.1336 H   0  0  0  0  0  0  0  0  0  0  0  0
   -1.2554    1.6306    2.5729 H   0  0  0  0  0  0  0  0  0  0  0  0
   -1.7031    3.0193    1.5165 H   0  0  0  0  0  0  0  0  0  0  0  0
  1  2  1  0
  1  5  1  0
  1  6  1  0
  1  7  1  0
  2  3  2  3
  2  8  1  0
  3  4  1  0
  4  9  1  0
 10 11  1  0
 10 15  1  0
 10 16  1  0
 11 12  1  0
 11 17  1  0
 11 18  1  0
 12 13  1  0
 12 19  1  0
 12 20  1  0
 13 14  1  0
 14 15  1  0
 14 21  1  0
 14 22  1  0
M  RAD  1  10   2
M  END
>  <reaction>  (10) 
rmg_rxn_253

>  <mol_properties>  (10) 
{"2": {"label": "*0", "atom_type": "N3d"}, "3": {"label": "*1", "atom_type": "O2s"}, "8": {"label": "*2", "atom_type": "H0"}, "9": {"label": "*3", "atom_type": "Cs"}, "14": {"label": "*4", "atom_type": "O2s"}}

>  <type>  (10) 
unop_6

>  <geom_source>  (10) 
Heuristics

$$$$

     RDKit          3D

 22 21  0  0  0  0  0  0  0  0999 V2000
   -0.0746   -2.8358   -3.8083 C   0  0  0  0  0  0  0  0  0  0  0  0
   -0.0746   -2.8358   -2.3197 C   0  0  0  0  0  0  0  0  0  0  0  0
   -0.0746   -1.7437   -1.6829 N   0  0  0  0  0  0  0  0  0  0  0  0
   -0.0746   -1.9484   -0.3097 O   0  0  0  0  0  0  0  0  0  0  0  0
    0.8048   -3.3596   -4.1901 H   0  0  0  0  0  0  0  0  0  0  0  0
   -0.9540   -3.3596   -4.1901 H   0  0  0  0  0  0  0  0  0  0  0  0
   -0.0746   -1.8161   -4.1897 H   0  0  0  0  0  0  0  0  0  0  0  0
   -0.0746   -3.7833   -1.7795 H   0  0  0  0  0  0  0  0  0  0  0  0
   -0.0746   -0.8787    0.1137 H   0  0  0  0  0  0  0  0  0  0  0  0
   -0.0746    0.3366    0.5947 C   0  0  0  0  0  3  0  0  0  0  0  0
    1.1478    0.6061    1.4604 C   0  0  0  0  0  0  0  0  0  0  0  0
    0.7675    1.6040    2.5449 C   0  0  0  0  0  0  0  0  0  0  0  0
    0.1597    2.7458    1.9719 O   0  0  0  0  0  0  0  0  0  0  0  0
   -0.9511    2.3953    1.2040 C   0  0  0  0  0  0  0  0  0  0  0  0
   -0.6322    1.5539    0.1378 O   0  0  0  0  0  0  0  0  0  0  0  0
   -0.8296   -0.2193    1.1715 H   0  0  0  0  0  0  0  0  0  0  0  0
    1.5122   -0.3221    1.9063 H   0  0  0  0  0  0  0  0  0  0  0  0
    1.9441    1.0267    0.8433 H   0  0  0  0  0  0  0  0  0  0  0  0
    0.0717    1.1373    3.2590 H   0  0  0  0  0  0  0  0  0  0  0  0
    1.6373    1.9560    3.0978 H   0  0  0  0  0  0  0  0  0  0  0  0
   -1.7026    1.9031    1.8483 H   0  0  0  0  0  0  0  0  0  0  0  0
   -1.3552    3.3129    0.7822 H   0  0  0  0  0  0  0  0  0  0  0  0
  1  2  1  0
  1  5  1  0
  1  6  1  0
  1  7  1  0
  2  3  2  3
  2  8  1  0
  3  4  1  0
  4  9  1  0
 10 11  1  0
 10 15  1  0
 10 16  1  0
 11 12  1  0
 11 17  1  0
 11 18  1  0
 12 13  1  0
 12 19  1  0
 12 20  1  0
 13 14  1  0
 14 15  1  0
 14 21  1  0
 14 22  1  0
M  RAD  1  10   2
M  END
>  <reaction>  (11) 
rmg_rxn_253

>  <mol_properties>  (11) 
{"2": {"label": "*0", "atom_type": "N3d"}, "3": {"label": "*1", "atom_type": "O2s"}, "8": {"label": "*2", "atom_type": "H0"}, "9": {"label": "*3", "atom_type": "Cs"}, "14": {"label": "*4", "atom_type": "O2s"}}

>  <type>  (11) 
unop_7

>  <geom_source>  (11) 
Heuristics

$$$$

     RDKit          3D

 22 21  0  0  0  0  0  0  0  0999 V2000
    0.3299   -2.1764   -4.1592 C   0  0  0  0  0  0  0  0  0  0  0  0
    0.3299   -2.1764   -2.6706 C   0  0  0  0  0  0  0  0  0  0  0  0
    0.3299   -1.0843   -2.0338 N   0  0  0  0  0  0  0  0  0  0  0  0
    0.3299   -1.2890   -0.6606 O   0  0  0  0  0  0  0  0  0  0  0  0
    1.2093   -2.7002   -4.5410 H   0  0  0  0  0  0  0  0  0  0  0  0
   -0.5495   -2.7002   -4.5410 H   0  0  0  0  0  0  0  0  0  0  0  0
    0.3299   -1.1567   -4.5407 H   0  0  0  0  0  0  0  0  0  0  0  0
    0.3299   -3.1239   -2.1304 H   0  0  0  0  0  0  0  0  0  0  0  0
    0.3299   -0.2193   -0.2372 H   0  0  0  0  0  0  0  0  0  0  0  0
    0.3299    0.9959    0.2438 C   0  0  0  0  0  3  0  0  0  0  0  0
   -1.0817    1.5252    0.4532 C   0  0  0  0  0  0  0  0  0  0  0  0
   -1.1776    2.1197    1.8511 C   0  0  0  0  0  0  0  0  0  0  0  0
   -0.7243    1.1879    2.8143 O   0  0  0  0  0  0  0  0  0  0  0  0
    0.5774    0.7685    2.5383 C   0  0  0  0  0  0  0  0  0  0  0  0
    0.6934    0.1311    1.3027 O   0  0  0  0  0  0  0  0  0  0  0  0
    1.0426    1.8334    0.1927 H   0  0  0  0  0  0  0  0  0  0  0  0
   -1.3225    2.2791   -0.2997 H   0  0  0  0  0  0  0  0  0  0  0  0
   -1.7950    0.7043    0.3581 H   0  0  0  0  0  0  0  0  0  0  0  0
   -0.5710    3.0362    1.9131 H   0  0  0  0  0  0  0  0  0  0  0  0
   -2.2033    2.3716    2.1171 H   0  0  0  0  0  0  0  0  0  0  0  0
    1.2578    1.6393    2.5677 H   0  0  0  0  0  0  0  0  0  0  0  0
    0.8530    0.0452    3.3025 H   0  0  0  0  0  0  0  0  0  0  0  0
  1  2  1  0
  1  5  1  0
  1  6  1  0
  1  7  1  0
  2  3  2  3
  2  8  1  0
  3  4  1  0
  4  9  1  0
 10 11  1  0
 10 15  1  0
 10 16  1  0
 11 12  1  0
 11 17  1  0
 11 18  1  0
 12 13  1  0
 12 19  1  0
 12 20  1  0
 13 14  1  0
 14 15  1  0
 14 21  1  0
 14 22  1  0
M  RAD  1  10   2
M  END
>  <reaction>  (12) 
rmg_rxn_253

>  <mol_properties>  (12) 
{"2": {"label": "*0", "atom_type": "N3d"}, "3": {"label": "*1", "atom_type": "O2s"}, "8": {"label": "*2", "atom_type": "H0"}, "9": {"label": "*3", "atom_type": "Cs"}, "14": {"label": "*4", "atom_type": "O2s"}}

>  <type>  (12) 
unop_8

>  <geom_source>  (12) 
Heuristics

$$$$

     RDKit          3D

 22 21  0  0  0  0  0  0  0  0999 V2000
    0.1013   -2.9503   -3.4620 C   0  0  0  0  0  0  0  0  0  0  0  0
    0.1013   -2.9503   -1.9733 C   0  0  0  0  0  0  0  0  0  0  0  0
    0.1013   -1.8582   -1.3366 N   0  0  0  0  0  0  0  0  0  0  0  0
    0.1013   -2.0629    0.0366 O   0  0  0  0  0  0  0  0  0  0  0  0
    0.9807   -3.4741   -3.8438 H   0  0  0  0  0  0  0  0  0  0  0  0
   -0.7781   -3.4741   -3.8438 H   0  0  0  0  0  0  0  0  0  0  0  0
    0.1013   -1.9306   -3.8434 H   0  0  0  0  0  0  0  0  0  0  0  0
    0.1013   -3.8978   -1.4332 H   0  0  0  0  0  0  0  0  0  0  0  0
    0.1013   -0.9932    0.4600 H   0  0  0  0  0  0  0  0  0  0  0  0
    0.1013    0.2221    0.9410 C   0  0  0  0  0  3  0  0  0  0  0  0
    0.8071    1.2012    0.0138 C   0  0  0  0  0  0  0  0  0  0  0  0
    0.9620    2.5321    0.7359 C   0  0  0  0  0  0  0  0  0  0  0  0
   -0.2851    2.9631    1.2462 O   0  0  0  0  0  0  0  0  0  0  0  0
   -0.8469    2.0015    2.0865 C   0  0  0  0  0  0  0  0  0  0  0  0
   -1.0945    0.7907    1.4391 O   0  0  0  0  0  0  0  0  0  0  0  0
    0.7604   -0.0420    1.7822 H   0  0  0  0  0  0  0  0  0  0  0  0
    1.7837    0.8111   -0.2816 H   0  0  0  0  0  0  0  0  0  0  0  0
    0.2074    1.3447   -0.8871 H   0  0  0  0  0  0  0  0  0  0  0  0
    1.6817    2.4306    1.5627 H   0  0  0  0  0  0  0  0  0  0  0  0
    1.3169    3.3178    0.0703 H   0  0  0  0  0  0  0  0  0  0  0  0
   -0.1746    1.8274    2.9466 H   0  0  0  0  0  0  0  0  0  0  0  0
   -1.8051    2.3887    2.4259 H   0  0  0  0  0  0  0  0  0  0  0  0
  1  2  1  0
  1  5  1  0
  1  6  1  0
  1  7  1  0
  2  3  2  3
  2  8  1  0
  3  4  1  0
  4  9  1  0
 10 11  1  0
 10 15  1  0
 10 16  1  0
 11 12  1  0
 11 17  1  0
 11 18  1  0
 12 13  1  0
 12 19  1  0
 12 20  1  0
 13 14  1  0
 14 15  1  0
 14 21  1  0
 14 22  1  0
M  RAD  1  10   2
M  END
>  <reaction>  (13) 
rmg_rxn_253

>  <mol_properties>  (13) 
{"2": {"label": "*0", "atom_type": "N3d"}, "3": {"label": "*1", "atom_type": "O2s"}, "8": {"label": "*2", "atom_type": "H0"}, "9": {"label": "*3", "atom_type": "Cs"}, "14": {"label": "*4", "atom_type": "O2s"}}

>  <type>  (13) 
unop_9

>  <geom_source>  (13) 
Heuristics

$$$$

     RDKit          3D

 22 21  0  0  0  0  0  0  0  0999 V2000
    0.5922   -2.3579   -3.9373 C   0  0  0  0  0  0  0  0  0  0  0  0
    0.5922   -2.3579   -2.4487 C   0  0  0  0  0  0  0  0  0  0  0  0
    0.5922   -1.2658   -1.8119 N   0  0  0  0  0  0  0  0  0  0  0  0
    0.5922   -1.4705   -0.4387 O   0  0  0  0  0  0  0  0  0  0  0  0
    1.4716   -2.8817   -4.3191 H   0  0  0  0  0  0  0  0  0  0  0  0
   -0.2872   -2.8817   -4.3191 H   0  0  0  0  0  0  0  0  0  0  0  0
    0.5922   -1.3382   -4.3187 H   0  0  0  0  0  0  0  0  0  0  0  0
    0.5922   -3.3054   -1.9085 H   0  0  0  0  0  0  0  0  0  0  0  0
    0.5922   -0.4008   -0.0153 H   0  0  0  0  0  0  0  0  0  0  0  0
    0.5922    0.8145    0.4657 C   0  0  0  0  0  3  0  0  0  0  0  0
   -0.6303    1.6035    0.0189 C   0  0  0  0  0  0  0  0  0  0  0  0
   -1.1400    2.4221    1.1965 C   0  0  0  0  0  0  0  0  0  0  0  0
   -1.3265    1.5935    2.3278 O   0  0  0  0  0  0  0  0  0  0  0  0
   -0.1510    0.9194    2.6599 C   0  0  0  0  0  0  0  0  0  0  0  0
    0.3025    0.0816    1.6406 O   0  0  0  0  0  0  0  0  0  0  0  0
    1.4327    1.4989    0.6579 H   0  0  0  0  0  0  0  0  0  0  0  0
   -0.3778    2.2567   -0.8194 H   0  0  0  0  0  0  0  0  0  0  0  0
   -1.4096    0.9119   -0.3068 H   0  0  0  0  0  0  0  0  0  0  0  0
   -0.4213    3.2196    1.4401 H   0  0  0  0  0  0  0  0  0  0  0  0
   -2.1030    2.8847    0.9845 H   0  0  0  0  0  0  0  0  0  0  0  0
    0.6363    1.6546    2.9086 H   0  0  0  0  0  0  0  0  0  0  0  0
   -0.3702    0.2918    3.5208 H   0  0  0  0  0  0  0  0  0  0  0  0
  1  2  1  0
  1  5  1  0
  1  6  1  0
  1  7  1  0
  2  3  2  3
  2  8  1  0
  3  4  1  0
  4  9  1  0
 10 11  1  0
 10 15  1  0
 10 16  1  0
 11 12  1  0
 11 17  1  0
 11 18  1  0
 12 13  1  0
 12 19  1  0
 12 20  1  0
 13 14  1  0
 14 15  1  0
 14 21  1  0
 14 22  1  0
M  RAD  1  10   2
M  END
>  <reaction>  (14) 
rmg_rxn_253

>  <mol_properties>  (14) 
{"2": {"label": "*0", "atom_type": "N3d"}, "3": {"label": "*1", "atom_type": "O2s"}, "8": {"label": "*2", "atom_type": "H0"}, "9": {"label": "*3", "atom_type": "Cs"}, "14": {"label": "*4", "atom_type": "O2s"}}

>  <type>  (14) 
unop_10

>  <geom_source>  (14) 
Heuristics

$$$$

     RDKit          3D

 22 21  0  0  0  0  0  0  0  0999 V2000
   -0.1149   -2.8573   -3.7607 C   0  0  0  0  0  0  0  0  0  0  0  0
   -0.1149   -2.8573   -2.2721 C   0  0  0  0  0  0  0  0  0  0  0  0
   -0.1149   -1.7652   -1.6353 N   0  0  0  0  0  0  0  0  0  0  0  0
   -0.1149   -1.9699   -0.2621 O   0  0  0  0  0  0  0  0  0  0  0  0
    0.7645   -3.3811   -4.1425 H   0  0  0  0  0  0  0  0  0  0  0  0
   -0.9943   -3.3811   -4.1425 H   0  0  0  0  0  0  0  0  0  0  0  0
   -0.1149   -1.8376   -4.1422 H   0  0  0  0  0  0  0  0  0  0  0  0
   -0.1149   -3.8048   -1.7319 H   0  0  0  0  0  0  0  0  0  0  0  0
   -0.1149   -0.9002    0.1613 H   0  0  0  0  0  0  0  0  0  0  0  0
   -0.1149    0.3150    0.6422 C   0  0  0  0  0  3  0  0  0  0  0  0
    0.5909    0.3944    1.9884 C   0  0  0  0  0  0  0  0  0  0  0  0
    0.1308    1.6547    2.7071 C   0  0  0  0  0  0  0  0  0  0  0  0
    0.2843    2.7835    1.8683 O   0  0  0  0  0  0  0  0  0  0  0  0
   -0.4019    2.6161    0.6651 C   0  0  0  0  0  0  0  0  0  0  0  0
    0.0533    1.5236   -0.0736 O   0  0  0  0  0  0  0  0  0  0  0  0
   -1.1886    0.1226    0.7906 H   0  0  0  0  0  0  0  0  0  0  0  0
    0.3685   -0.4905    2.5890 H   0  0  0  0  0  0  0  0  0  0  0  0
    1.6701    0.4402    1.8303 H   0  0  0  0  0  0  0  0  0  0  0  0
   -0.9256    1.5566    3.0008 H   0  0  0  0  0  0  0  0  0  0  0  0
    0.7169    1.8489    3.6044 H   0  0  0  0  0  0  0  0  0  0  0  0
   -1.4813    2.4959    0.8716 H   0  0  0  0  0  0  0  0  0  0  0  0
   -0.2268    3.5071    0.0662 H   0  0  0  0  0  0  0  0  0  0  0  0
  1  2  1  0
  1  5  1  0
  1  6  1  0
  1  7  1  0
  2  3  2  3
  2  8  1  0
  3  4  1  0
  4  9  1  0
 10 11  1  0
 10 15  1  0
 10 16  1  0
 11 12  1  0
 11 17  1  0
 11 18  1  0
 12 13  1  0
 12 19  1  0
 12 20  1  0
 13 14  1  0
 14 15  1  0
 14 21  1  0
 14 22  1  0
M  RAD  1  10   2
M  END
>  <reaction>  (15) 
rmg_rxn_253

>  <mol_properties>  (15) 
{"2": {"label": "*0", "atom_type": "N3d"}, "3": {"label": "*1", "atom_type": "O2s"}, "8": {"label": "*2", "atom_type": "H0"}, "9": {"label": "*3", "atom_type": "Cs"}, "14": {"label": "*4", "atom_type": "O2s"}}

>  <type>  (15) 
unop_11

>  <geom_source>  (15) 
Heuristics

$$$$

     RDKit          3D

 22 21  0  0  0  0  0  0  0  0999 V2000
    0.4107   -2.8504   -3.4703 C   0  0  0  0  0  0  0  0  0  0  0  0
    0.4107   -2.8504   -1.9816 C   0  0  0  0  0  0  0  0  0  0  0  0
    0.4107   -1.7583   -1.3448 N   0  0  0  0  0  0  0  0  0  0  0  0
    0.4107   -1.9630    0.0284 O   0  0  0  0  0  0  0  0  0  0  0  0
    1.2901   -3.3742   -3.8521 H   0  0  0  0  0  0  0  0  0  0  0  0
   -0.4687   -3.3742   -3.8521 H   0  0  0  0  0  0  0  0  0  0  0  0
    0.4107   -1.8307   -3.8517 H   0  0  0  0  0  0  0  0  0  0  0  0
    0.4107   -3.7979   -1.4415 H   0  0  0  0  0  0  0  0  0  0  0  0
    0.4107   -0.8933    0.4517 H   0  0  0  0  0  0  0  0  0  0  0  0
    0.4107    0.3219    0.9327 C   0  0  0  0  0  3  0  0  0  0  0  0
    0.4107    1.3707   -0.1703 C   0  0  0  0  0  0  0  0  0  0  0  0
    0.1839    2.7388    0.4569 C   0  0  0  0  0  0  0  0  0  0  0  0
   -0.9657    2.7177    1.2812 O   0  0  0  0  0  0  0  0  0  0  0  0
   -0.8671    1.7294    2.2609 C   0  0  0  0  0  0  0  0  0  0  0  0
   -0.7524    0.4449    1.7286 O   0  0  0  0  0  0  0  0  0  0  0  0
    1.3032    0.4413    1.5660 H   0  0  0  0  0  0  0  0  0  0  0  0
    1.3576    1.3524   -0.7146 H   0  0  0  0  0  0  0  0  0  0  0  0
   -0.3950    1.1563   -0.8750 H   0  0  0  0  0  0  0  0  0  0  0  0
    1.0604    3.0282    1.0568 H   0  0  0  0  0  0  0  0  0  0  0  0
    0.0165    3.5089   -0.2948 H   0  0  0  0  0  0  0  0  0  0  0  0
    0.0052    1.9385    2.9071 H   0  0  0  0  0  0  0  0  0  0  0  0
   -1.7859    1.7576    2.8425 H   0  0  0  0  0  0  0  0  0  0  0  0
  1  2  1  0
  1  5  1  0
  1  6  1  0
  1  7  1  0
  2  3  2  3
  2  8  1  0
  3  4  1  0
  4  9  1  0
 10 11  1  0
 10 15  1  0
 10 16  1  0
 11 12  1  0
 11 17  1  0
 11 18  1  0
 12 13  1  0
 12 19  1  0
 12 20  1  0
 13 14  1  0
 14 15  1  0
 14 21  1  0
 14 22  1  0
M  RAD  1  10   2
M  END
>  <reaction>  (16) 
rmg_rxn_253

>  <mol_properties>  (16) 
{"2": {"label": "*0", "atom_type": "N3d"}, "3": {"label": "*1", "atom_type": "O2s"}, "8": {"label": "*2", "atom_type": "H0"}, "9": {"label": "*3", "atom_type": "Cs"}, "14": {"label": "*4", "atom_type": "O2s"}}

>  <type>  (16) 
unop_12

>  <geom_source>  (16) 
Heuristics

$$$$

     RDKit          3D

 22 21  0  0  0  0  0  0  0  0999 V2000
   -1.0736   -0.7666   -0.9195 O   0  0  0  0  0  0  0  0  0  0  0  0
   -2.7738    0.7477   -1.6734 O   0  0  0  0  0  0  0  0  0  0  0  0
    1.0006    0.0722    1.5684 O   0  0  0  0  0  1  0  0  0  0  0  0
    2.3311   -0.2482    1.7029 N   0  0  0  0  0  2  0  0  0  0  0  0
   -2.1966    0.6588    0.6618 C   0  0  0  0  0  0  0  0  0  0  0  0
   -0.8619    0.2427    0.0431 C   0  0  0  0  0  0  0  0  0  0  0  0
   -3.2991    0.5037   -0.3871 C   0  0  0  0  0  0  0  0  0  0  0  0
   -1.8214   -0.2543   -2.0188 C   0  0  0  0  0  0  0  0  0  0  0  0
    4.5381   -0.6700    0.8218 C   0  0  0  0  0  0  0  0  0  0  0  0
    3.0973   -0.3219    0.6640 C   0  0  0  0  0  3  0  0  0  0  0  0
   -2.1329    1.7153    1.0016 H   0  0  0  0  0  0  0  0  0  0  0  0
   -2.4270    0.0169    1.5393 H   0  0  0  0  0  0  0  0  0  0  0  0
   -0.3505    1.1206   -0.4156 H   0  0  0  0  0  0  0  0  0  0  0  0
   -0.1053   -0.2040    0.9496 H   0  0  0  0  0  0  0  0  0  0  0  0
   -3.7498   -0.5146   -0.3351 H   0  0  0  0  0  0  0  0  0  0  0  0
   -4.1093    1.2347   -0.1815 H   0  0  0  0  0  0  0  0  0  0  0  0
   -1.1170    0.1690   -2.7659 H   0  0  0  0  0  0  0  0  0  0  0  0
   -2.3504   -1.0978   -2.5108 H   0  0  0  0  0  0  0  0  0  0  0  0
    5.0322   -0.6854   -0.1721 H   0  0  0  0  0  0  0  0  0  0  0  0
    4.6336   -1.6727    1.2887 H   0  0  0  0  0  0  0  0  0  0  0  0
    5.0392    0.0850    1.4632 H   0  0  0  0  0  0  0  0  0  0  0  0
    2.6962   -0.1312   -0.3245 H   0  0  0  0  0  0  0  0  0  0  0  0
  1  8  1  0
  1  6  1  0
  2  8  1  0
  2  7  1  0
  3  4  1  0
  4 10  1  0
  5  7  1  0
  5 12  1  0
  5 11  1  0
  5  6  1  0
  6 13  1  0
  6 14  1  0
  7 16  1  0
  7 15  1  0
  8 17  1  0
  8 18  1  0
  9 19  1  0
  9 10  1  0
  9 21  1  0
  9 20  1  0
 10 22  1  0
M  RAD  3   3   2   4   2  10   2
M  END
>  <reaction>  (17) 
rmg_rxn_253

>  <mol_properties>  (17) 
{"2": {"label": "*0", "atom_type": "N3d"}, "3": {"label": "*1", "atom_type": "O2s"}, "8": {"label": "*2", "atom_type": "H0"}, "9": {"label": "*3", "atom_type": "Cs"}, "14": {"label": "*4", "atom_type": "O2s"}}

>  <type>  (17) 
unop_13

>  <geom_source>  (17) 
AutoTST

$$$$

     RDKit          3D

 22 21  0  0  0  0  0  0  0  0999 V2000
    0.6227   -2.6176   -3.6618 C   0  0  0  0  0  0  0  0  0  0  0  0
    0.6227   -2.6176   -2.1731 C   0  0  0  0  0  0  0  0  0  0  0  0
    0.6227   -1.5255   -1.5363 N   0  0  0  0  0  0  0  0  0  0  0  0
    0.6227   -1.7302   -0.1631 O   0  0  0  0  0  0  0  0  0  0  0  0
    1.5021   -3.1414   -4.0436 H   0  0  0  0  0  0  0  0  0  0  0  0
   -0.2567   -3.1414   -4.0436 H   0  0  0  0  0  0  0  0  0  0  0  0
    0.6227   -1.5979   -4.0432 H   0  0  0  0  0  0  0  0  0  0  0  0
    0.6227   -3.5651   -1.6330 H   0  0  0  0  0  0  0  0  0  0  0  0
    0.6227   -0.6605    0.2602 H   0  0  0  0  0  0  0  0  0  0  0  0
    0.6227    0.5547    0.7412 C   0  0  0  0  0  3  0  0  0  0  0  0
   -0.0831    1.5339   -0.1860 C   0  0  0  0  0  0  0  0  0  0  0  0
   -0.6379    2.6810    0.6464 C   0  0  0  0  0  0  0  0  0  0  0  0
   -1.4172    2.1809    1.7160 O   0  0  0  0  0  0  0  0  0  0  0  0
   -0.6816    1.2992    2.5083 C   0  0  0  0  0  0  0  0  0  0  0  0
   -0.2318    0.1813    1.8051 O   0  0  0  0  0  0  0  0  0  0  0  0
    1.5368    1.0136    1.1483 H   0  0  0  0  0  0  0  0  0  0  0  0
    0.6094    1.9108   -0.9420 H   0  0  0  0  0  0  0  0  0  0  0  0
   -0.9038    1.0247   -0.6949 H   0  0  0  0  0  0  0  0  0  0  0  0
    0.1875    3.2894    1.0469 H   0  0  0  0  0  0  0  0  0  0  0  0
   -1.2877    3.3312    0.0623 H   0  0  0  0  0  0  0  0  0  0  0  0
    0.1838    1.8316    2.9441 H   0  0  0  0  0  0  0  0  0  0  0  0
   -1.3430    0.9421    3.2946 H   0  0  0  0  0  0  0  0  0  0  0  0
  1  2  1  0
  1  5  1  0
  1  6  1  0
  1  7  1  0
  2  3  2  3
  2  8  1  0
  3  4  1  0
  4  9  1  0
 10 11  1  0
 10 15  1  0
 10 16  1  0
 11 12  1  0
 11 17  1  0
 11 18  1  0
 12 13  1  0
 12 19  1  0
 12 20  1  0
 13 14  1  0
 14 15  1  0
 14 21  1  0
 14 22  1  0
M  RAD  1  10   2
M  END
>  <reaction>  (18) 
rmg_rxn_253

>  <mol_properties>  (18) 
{"2": {"label": "*0", "atom_type": "N3d"}, "3": {"label": "*1", "atom_type": "O2s"}, "8": {"label": "*2", "atom_type": "H0"}, "9": {"label": "*3", "atom_type": "Cs"}, "14": {"label": "*4", "atom_type": "O2s"}}

>  <type>  (18) 
unop_14

>  <geom_source>  (18) 
gaussian_log

$$$$
