
     RDKit          3D

 14 14  0  0  0  0  0  0  0  0999 V2000
   -1.1778    0.2241    0.1818 C   0  0  0  0  0  0  0  0  0  0  0  0
   -0.5633   -1.1636    0.0678 C   0  0  0  0  0  0  0  0  0  0  0  0
    0.6943   -1.1996    0.7146 O   0  0  0  0  0  0  0  0  0  0  0  0
    1.5547   -0.2288    0.2011 C   0  0  0  0  0  0  0  0  0  0  0  0
    1.0729    1.0696    0.3698 O   0  0  0  0  0  0  0  0  0  0  0  0
   -0.1607    1.2493   -0.2989 C   0  0  0  0  0  0  0  0  0  0  0  0
   -2.0927    0.2866   -0.4117 H   0  0  0  0  0  0  0  0  0  0  0  0
   -1.4303    0.4248    1.2248 H   0  0  0  0  0  0  0  0  0  0  0  0
   -1.1822   -1.9235    0.5431 H   0  0  0  0  0  0  0  0  0  0  0  0
   -0.4389   -1.4347   -0.9919 H   0  0  0  0  0  0  0  0  0  0  0  0
    1.7250   -0.4207   -0.8742 H   0  0  0  0  0  0  0  0  0  0  0  0
    2.4896   -0.3010    0.7524 H   0  0  0  0  0  0  0  0  0  0  0  0
   -0.0080    1.1481   -1.3844 H   0  0  0  0  0  0  0  0  0  0  0  0
   -0.4826    2.2695   -0.0942 H   0  0  0  0  0  0  0  0  0  0  0  0
  1  2  1  0
  1  6  1  0
  1  7  1  0
  1  8  1  0
  2  3  1  0
  2  9  1  0
  2 10  1  0
  3  4  1  0
  4  5  1  0
  4 11  1  0
  4 12  1  0
  5  6  1  0
  6 13  1  0
  6 14  1  0
M  END
>  <reaction>  (1) 
rmg_rxn_269

>  <mol_properties>  (1) 
{"1": {"label": "donator", "atom_type": "Cs"}, "8": {"label": "d_hydrogen", "atom_type": "H0"}}

>  <type>  (1) 
r1h

$$$$

     RDKit          3D

 17 16  0  0  0  0  0  0  0  0999 V2000
    2.3128   -0.1525    1.1777 C   0  0  0  0  0  3  0  0  0  0  0  0
    1.7469    0.7266    0.1254 C   0  0  0  0  0  0  0  0  0  0  0  0
    1.6374    2.1830    0.5408 C   0  0  0  0  0  0  0  0  0  0  0  0
    2.9245    2.6874    0.7877 O   0  0  0  0  0  0  0  0  0  0  0  0
    2.9227    4.0197    1.2361 C   0  0  0  0  0  0  0  0  0  0  0  0
    4.3491    4.4603    1.4693 C   0  0  0  0  0  0  0  0  0  0  0  0
    2.1393   -1.2196    1.1557 H   0  0  0  0  0  0  0  0  0  0  0  0
    3.0313    0.2400    1.8838 H   0  0  0  0  0  0  0  0  0  0  0  0
    0.7555    0.3746   -0.1764 H   0  0  0  0  0  0  0  0  0  0  0  0
    2.3678    0.6841   -0.7826 H   0  0  0  0  0  0  0  0  0  0  0  0
    1.0170    2.2718    1.4449 H   0  0  0  0  0  0  0  0  0  0  0  0
    1.1499    2.7653   -0.2546 H   0  0  0  0  0  0  0  0  0  0  0  0
    2.4379    4.6655    0.4891 H   0  0  0  0  0  0  0  0  0  0  0  0
    2.3377    4.1015    2.1638 H   0  0  0  0  0  0  0  0  0  0  0  0
    4.9261    4.3920    0.5465 H   0  0  0  0  0  0  0  0  0  0  0  0
    4.3728    5.4939    1.8180 H   0  0  0  0  0  0  0  0  0  0  0  0
    4.8260    3.8299    2.2206 H   0  0  0  0  0  0  0  0  0  0  0  0
  1  2  1  0
  1  7  1  0
  1  8  1  0
  2  3  1  0
  2  9  1  0
  2 10  1  0
  3  4  1  0
  3 11  1  0
  3 12  1  0
  4  5  1  0
  5  6  1  0
  5 13  1  0
  5 14  1  0
  6 15  1  0
  6 16  1  0
  6 17  1  0
M  RAD  1   1   2
M  END
>  <reaction>  (2) 
rmg_rxn_269

>  <mol_properties>  (2) 
{"0": {"label": "acceptor", "atom_type": "Cs"}}

>  <type>  (2) 
r2

$$$$

     RDKit          3D

 18 17  0  0  0  0  0  0  0  0999 V2000
    2.2026   -0.7213   -0.2612 C   0  0  0  0  0  0  0  0  0  0  0  0
    1.5384    0.2638    0.6915 C   0  0  0  0  0  0  0  0  0  0  0  0
    2.2584    1.5946    0.7694 C   0  0  0  0  0  0  0  0  0  0  0  0
    2.2212    2.2185   -0.4893 O   0  0  0  0  0  0  0  0  0  0  0  0
    2.8988    3.4488   -0.5204 C   0  0  0  0  0  0  0  0  0  0  0  0
    2.7981    4.0296   -1.9118 C   0  0  0  0  0  0  0  0  0  0  0  0
    3.2294   -0.9309    0.0486 H   0  0  0  0  0  0  0  0  0  0  0  0
    2.2338   -0.3181   -1.2734 H   0  0  0  0  0  0  0  0  0  0  0  0
    1.6610   -1.6680   -0.2875 H   0  0  0  0  0  0  0  0  0  0  0  0
    1.4990   -0.1566    1.7002 H   0  0  0  0  0  0  0  0  0  0  0  0
    0.5055    0.4455    0.3835 H   0  0  0  0  0  0  0  0  0  0  0  0
    3.3038    1.4410    1.0808 H   0  0  0  0  0  0  0  0  0  0  0  0
    1.7844    2.2410    1.5226 H   0  0  0  0  0  0  0  0  0  0  0  0
    2.4596    4.1376    0.2164 H   0  0  0  0  0  0  0  0  0  0  0  0
    3.9524    3.3035   -0.2397 H   0  0  0  0  0  0  0  0  0  0  0  0
    1.7543    4.1869   -2.1856 H   0  0  0  0  0  0  0  0  0  0  0  0
    3.2472    3.3545   -2.6411 H   0  0  0  0  0  0  0  0  0  0  0  0
    3.3178    4.9878   -1.9600 H   0  0  0  0  0  0  0  0  0  0  0  0
  1  2  1  0
  1  7  1  0
  1  8  1  0
  1  9  1  0
  2  3  1  0
  2 10  1  0
  2 11  1  0
  3  4  1  0
  3 12  1  0
  3 13  1  0
  4  5  1  0
  5  6  1  0
  5 14  1  0
  5 15  1  0
  6 16  1  0
  6 17  1  0
  6 18  1  0
M  END
>  <reaction>  (3) 
rmg_rxn_269

>  <mol_properties>  (3) 
{"0": {"label": "a_hydrogen", "atom_type": "H0"}, "1": {"label": "acceptor", "atom_type": "Cs"}}

>  <type>  (3) 
r2h

$$$$

     RDKit          3D

 31 30  0  0  0  0  0  0  0  0999 V2000
    2.1254    2.1794   -0.5126 C   0  0  0  0  0  0  0  0  0  0  0  0
    0.6862    1.8004   -0.2737 C   0  0  0  0  0  0  0  0  0  0  0  0
   -0.0764    1.8775   -1.4426 O   0  0  0  0  0  0  0  0  0  0  0  0
    0.0223    3.1405   -2.0454 C   0  0  0  0  0  0  0  0  0  0  0  0
    1.3303    3.4710   -2.3880 O   0  0  0  0  0  0  0  0  0  0  0  0
    2.1668    3.5171   -1.2477 C   0  0  0  0  0  0  0  0  0  0  0  0
    2.6675    2.2433    0.4328 H   0  0  0  0  0  0  0  0  0  0  0  0
    2.6040    1.4175   -1.1332 H   0  0  0  0  0  0  0  0  0  0  0  0
    0.6345    0.5089    0.0494 H   0  0  0  0  0  0  0  0  0  0  0  0
    0.2101    2.3333    0.5591 H   0  0  0  0  0  0  0  0  0  0  0  0
   -0.3872    3.9024   -1.3591 H   0  0  0  0  0  0  0  0  0  0  0  0
   -0.5567    3.1032   -2.9655 H   0  0  0  0  0  0  0  0  0  0  0  0
    1.8354    4.3260   -0.5799 H   0  0  0  0  0  0  0  0  0  0  0  0
    3.1686    3.7542   -1.6043 H   0  0  0  0  0  0  0  0  0  0  0  0
    0.5013   -0.8224    0.2066 C   0  0  0  0  0  3  0  0  0  0  0  0
   -0.9548   -1.1223   -0.0322 C   0  0  0  0  0  0  0  0  0  0  0  0
   -1.2846   -2.6034    0.0398 C   0  0  0  0  0  0  0  0  0  0  0  0
   -1.0192   -3.0763    1.3361 O   0  0  0  0  0  0  0  0  0  0  0  0
   -1.2721   -4.4496    1.4886 C   0  0  0  0  0  0  0  0  0  0  0  0
   -0.9535   -4.8524    2.9098 C   0  0  0  0  0  0  0  0  0  0  0  0
    0.8498   -1.0167    1.2184 H   0  0  0  0  0  0  0  0  0  0  0  0
    1.1774   -1.2308   -0.5444 H   0  0  0  0  0  0  0  0  0  0  0  0
   -1.2502   -0.7548   -1.0184 H   0  0  0  0  0  0  0  0  0  0  0  0
   -1.5714   -0.5961    0.7014 H   0  0  0  0  0  0  0  0  0  0  0  0
   -0.6834   -3.1606   -0.6950 H   0  0  0  0  0  0  0  0  0  0  0  0
   -2.3436   -2.7659   -0.2105 H   0  0  0  0  0  0  0  0  0  0  0  0
   -2.3252   -4.6657    1.2547 H   0  0  0  0  0  0  0  0  0  0  0  0
   -0.6587   -5.0248    0.7794 H   0  0  0  0  0  0  0  0  0  0  0  0
   -1.5710   -4.2927    3.6132 H   0  0  0  0  0  0  0  0  0  0  0  0
   -1.1432   -5.9174    3.0527 H   0  0  0  0  0  0  0  0  0  0  0  0
    0.0943   -4.6532    3.1375 H   0  0  0  0  0  0  0  0  0  0  0  0
  1  2  1  0
  1  6  1  0
  1  7  1  0
  1  8  1  0
  2  3  1  0
  2  9  1  0
  2 10  1  0
  3  4  1  0
  4  5  1  0
  4 11  1  0
  4 12  1  0
  5  6  1  0
  6 13  1  0
  6 14  1  0
 15 16  1  0
 15 21  1  0
 15 22  1  0
 16 17  1  0
 16 23  1  0
 16 24  1  0
 17 18  1  0
 17 25  1  0
 17 26  1  0
 18 19  1  0
 19 20  1  0
 19 27  1  0
 19 28  1  0
 20 29  1  0
 20 30  1  0
 20 31  1  0
M  RAD  1  15   2
M  END
>  <reaction>  (4) 
rmg_rxn_269

>  <mol_properties>  (4) 
{"1": {"label": "*1", "atom_type": "Cs"}, "2": {"label": "*0", "atom_type": "O2s"}, "8": {"label": "*2", "atom_type": "H0"}, "14": {"label": "*3", "atom_type": "Cs"}, "15": {"label": "*4", "atom_type": "Cs"}}

>  <type>  (4) 
ts

$$$$

     RDKit          3D

 31 30  0  0  0  0  0  0  0  0999 V2000
    0.4016    1.6053   -2.4839 C   0  0  0  0  0  0  0  0  0  0  0  0
    0.4016    1.6053   -0.9619 C   0  0  0  0  0  0  0  0  0  0  0  0
   -0.6467    2.4179   -0.4698 O   0  0  0  0  0  0  0  0  0  0  0  0
   -0.5558    3.7175   -0.9691 C   0  0  0  0  0  0  0  0  0  0  0  0
   -0.6467    3.7737   -2.3601 O   0  0  0  0  0  0  0  0  0  0  0  0
    0.4016    3.0470   -2.9720 C   0  0  0  0  0  0  0  0  0  0  0  0
    1.2756    1.0729   -2.8658 H   0  0  0  0  0  0  0  0  0  0  0  0
   -0.4950    1.0992   -2.8469 H   0  0  0  0  0  0  0  0  0  0  0  0
    0.2109    0.4083   -0.4731 H   0  0  0  0  0  0  0  0  0  0  0  0
    1.3652    1.9813   -0.5851 H   0  0  0  0  0  0  0  0  0  0  0  0
    0.3996    4.1695   -0.6449 H   0  0  0  0  0  0  0  0  0  0  0  0
   -1.3968    4.2780   -0.5671 H   0  0  0  0  0  0  0  0  0  0  0  0
    1.3652    3.5244   -2.7367 H   0  0  0  0  0  0  0  0  0  0  0  0
    0.2427    3.1129   -4.0475 H   0  0  0  0  0  0  0  0  0  0  0  0
    0.0198   -0.7908    0.0166 C   0  0  0  0  0  3  0  0  0  0  0  0
    1.1968   -1.2240    0.8804 C   0  0  0  0  0  0  0  0  0  0  0  0
    0.7754   -1.9659    2.1323 C   0  0  0  0  0  0  0  0  0  0  0  0
    0.1263   -3.1587    1.7705 O   0  0  0  0  0  0  0  0  0  0  0  0
   -0.3330   -3.8984    2.8730 C   0  0  0  0  0  0  0  0  0  0  0  0
   -1.0119   -5.1529    2.3740 C   0  0  0  0  0  0  0  0  0  0  0  0
   -0.5601   -1.6549   -0.3073 H   0  0  0  0  0  0  0  0  0  0  0  0
   -0.6478   -0.1273    0.5720 H   0  0  0  0  0  0  0  0  0  0  0  0
    1.7799   -0.3512    1.1871 H   0  0  0  0  0  0  0  0  0  0  0  0
    1.8679   -1.8670    0.3052 H   0  0  0  0  0  0  0  0  0  0  0  0
    0.0986   -1.3384    2.7337 H   0  0  0  0  0  0  0  0  0  0  0  0
    1.6531   -2.1908    2.7559 H   0  0  0  0  0  0  0  0  0  0  0  0
    0.5107   -4.1537    3.5312 H   0  0  0  0  0  0  0  0  0  0  0  0
   -1.0336   -3.2918    3.4656 H   0  0  0  0  0  0  0  0  0  0  0  0
   -0.3141   -5.7617    1.7980 H   0  0  0  0  0  0  0  0  0  0  0  0
   -1.3770   -5.7450    3.2146 H   0  0  0  0  0  0  0  0  0  0  0  0
   -1.8580   -4.9007    1.7339 H   0  0  0  0  0  0  0  0  0  0  0  0
  1  2  1  0
  1  6  1  0
  1  7  1  0
  1  8  1  0
  2  3  1  0
  2  9  1  0
  2 10  1  0
  3  4  1  0
  4  5  1  0
  4 11  1  0
  4 12  1  0
  5  6  1  0
  6 13  1  0
  6 14  1  0
 15 16  1  0
 15 21  1  0
 15 22  1  0
 16 17  1  0
 16 23  1  0
 16 24  1  0
 17 18  1  0
 17 25  1  0
 17 26  1  0
 18 19  1  0
 19 20  1  0
 19 27  1  0
 19 28  1  0
 20 29  1  0
 20 30  1  0
 20 31  1  0
M  RAD  1  15   2
M  END
>  <reaction>  (5) 
rmg_rxn_269

>  <mol_properties>  (5) 
{"1": {"label": "*1", "atom_type": "Cs"}, "2": {"label": "*0", "atom_type": "O2s"}, "8": {"label": "*2", "atom_type": "H0"}, "14": {"label": "*3", "atom_type": "Cs"}, "15": {"label": "*4", "atom_type": "Cs"}}

>  <type>  (5) 
unop_1

>  <geom_source>  (5) 
Heuristics

$$$$

     RDKit          3D

 31 30  0  0  0  0  0  0  0  0999 V2000
    0.5595    1.9113   -1.7486 C   0  0  0  0  0  0  0  0  0  0  0  0
    0.5595    1.9113   -0.2265 C   0  0  0  0  0  0  0  0  0  0  0  0
   -0.4888    2.7239    0.2656 O   0  0  0  0  0  0  0  0  0  0  0  0
   -0.3979    4.0234   -0.2337 C   0  0  0  0  0  0  0  0  0  0  0  0
   -0.4888    4.0796   -1.6248 O   0  0  0  0  0  0  0  0  0  0  0  0
    0.5595    3.3529   -2.2367 C   0  0  0  0  0  0  0  0  0  0  0  0
    1.4335    1.3788   -2.1304 H   0  0  0  0  0  0  0  0  0  0  0  0
   -0.3371    1.4051   -2.1116 H   0  0  0  0  0  0  0  0  0  0  0  0
    0.3688    0.7142    0.2623 H   0  0  0  0  0  0  0  0  0  0  0  0
    1.5231    2.2872    0.1502 H   0  0  0  0  0  0  0  0  0  0  0  0
    0.5575    4.4755    0.0905 H   0  0  0  0  0  0  0  0  0  0  0  0
   -1.2389    4.5839    0.1682 H   0  0  0  0  0  0  0  0  0  0  0  0
    1.5231    3.8303   -2.0014 H   0  0  0  0  0  0  0  0  0  0  0  0
    0.4006    3.4188   -3.3121 H   0  0  0  0  0  0  0  0  0  0  0  0
    0.1777   -0.4848    0.7519 C   0  0  0  0  0  3  0  0  0  0  0  0
    0.7269   -1.5531   -0.1843 C   0  0  0  0  0  0  0  0  0  0  0  0
    0.9393   -2.8896    0.4967 C   0  0  0  0  0  0  0  0  0  0  0  0
   -0.2977   -3.3889    0.9387 O   0  0  0  0  0  0  0  0  0  0  0  0
   -0.1924   -4.6147    1.6169 C   0  0  0  0  0  0  0  0  0  0  0  0
   -1.5717   -5.0578    2.0469 C   0  0  0  0  0  0  0  0  0  0  0  0
   -0.7857   -0.7885    1.1614 H   0  0  0  0  0  0  0  0  0  0  0  0
    0.8591   -0.3125    1.5888 H   0  0  0  0  0  0  0  0  0  0  0  0
    1.6857   -1.2318   -0.6006 H   0  0  0  0  0  0  0  0  0  0  0  0
    0.0476   -1.6976   -1.0283 H   0  0  0  0  0  0  0  0  0  0  0  0
    1.6238   -2.7735    1.3519 H   0  0  0  0  0  0  0  0  0  0  0  0
    1.4044   -3.6027   -0.1997 H   0  0  0  0  0  0  0  0  0  0  0  0
    0.2662   -5.3687    0.9601 H   0  0  0  0  0  0  0  0  0  0  0  0
    0.4658   -4.5038    2.4913 H   0  0  0  0  0  0  0  0  0  0  0  0
   -2.2211   -5.1814    1.1796 H   0  0  0  0  0  0  0  0  0  0  0  0
   -1.5148   -6.0102    2.5764 H   0  0  0  0  0  0  0  0  0  0  0  0
   -2.0210   -4.3183    2.7107 H   0  0  0  0  0  0  0  0  0  0  0  0
  1  2  1  0
  1  6  1  0
  1  7  1  0
  1  8  1  0
  2  3  1  0
  2  9  1  0
  2 10  1  0
  3  4  1  0
  4  5  1  0
  4 11  1  0
  4 12  1  0
  5  6  1  0
  6 13  1  0
  6 14  1  0
 15 16  1  0
 15 21  1  0
 15 22  1  0
 16 17  1  0
 16 23  1  0
 16 24  1  0
 17 18  1  0
 17 25  1  0
 17 26  1  0
 18 19  1  0
 19 20  1  0
 19 27  1  0
 19 28  1  0
 20 29  1  0
 20 30  1  0
 20 31  1  0
M  RAD  1  15   2
M  END
>  <reaction>  (6) 
rmg_rxn_269

>  <mol_properties>  (6) 
{"1": {"label": "*1", "atom_type": "Cs"}, "2": {"label": "*0", "atom_type": "O2s"}, "8": {"label": "*2", "atom_type": "H0"}, "14": {"label": "*3", "atom_type": "Cs"}, "15": {"label": "*4", "atom_type": "Cs"}}

>  <type>  (6) 
unop_2

>  <geom_source>  (6) 
Heuristics

$$$$

     RDKit          3D

 31 30  0  0  0  0  0  0  0  0999 V2000
    0.4892    1.6445   -2.4368 C   0  0  0  0  0  0  0  0  0  0  0  0
    0.4892    1.6445   -0.9148 C   0  0  0  0  0  0  0  0  0  0  0  0
   -0.5591    2.4571   -0.4227 O   0  0  0  0  0  0  0  0  0  0  0  0
   -0.4682    3.7567   -0.9220 C   0  0  0  0  0  0  0  0  0  0  0  0
   -0.5591    3.8129   -2.3131 O   0  0  0  0  0  0  0  0  0  0  0  0
    0.4892    3.0862   -2.9249 C   0  0  0  0  0  0  0  0  0  0  0  0
    1.3632    1.1121   -2.8187 H   0  0  0  0  0  0  0  0  0  0  0  0
   -0.4074    1.1384   -2.7999 H   0  0  0  0  0  0  0  0  0  0  0  0
    0.2984    0.4475   -0.4260 H   0  0  0  0  0  0  0  0  0  0  0  0
    1.4528    2.0205   -0.5381 H   0  0  0  0  0  0  0  0  0  0  0  0
    0.4871    4.2087   -0.5978 H   0  0  0  0  0  0  0  0  0  0  0  0
   -1.3093    4.3172   -0.5200 H   0  0  0  0  0  0  0  0  0  0  0  0
    1.4528    3.5636   -2.6897 H   0  0  0  0  0  0  0  0  0  0  0  0
    0.3302    3.1521   -4.0004 H   0  0  0  0  0  0  0  0  0  0  0  0
    0.1074   -0.7516    0.0636 C   0  0  0  0  0  3  0  0  0  0  0  0
    0.8014   -0.9109    1.4098 C   0  0  0  0  0  0  0  0  0  0  0  0
    0.1089   -1.9015    2.3233 C   0  0  0  0  0  0  0  0  0  0  0  0
    0.1447   -3.1786    1.7378 O   0  0  0  0  0  0  0  0  0  0  0  0
   -0.5086   -4.1594    2.5025 C   0  0  0  0  0  0  0  0  0  0  0  0
   -0.4117   -5.4861    1.7855 C   0  0  0  0  0  0  0  0  0  0  0  0
    0.0731   -1.7025   -0.4680 H   0  0  0  0  0  0  0  0  0  0  0  0
   -0.9200   -0.4024    0.1938 H   0  0  0  0  0  0  0  0  0  0  0  0
    0.8435    0.0513    1.9277 H   0  0  0  0  0  0  0  0  0  0  0  0
    1.8343   -1.2372    1.2633 H   0  0  0  0  0  0  0  0  0  0  0  0
   -0.9359   -1.5950    2.4904 H   0  0  0  0  0  0  0  0  0  0  0  0
    0.6038   -1.9250    3.3053 H   0  0  0  0  0  0  0  0  0  0  0  0
   -0.0478   -4.2266    3.4992 H   0  0  0  0  0  0  0  0  0  0  0  0
   -1.5618   -3.8788    2.6512 H   0  0  0  0  0  0  0  0  0  0  0  0
    0.6320   -5.7718    1.6499 H   0  0  0  0  0  0  0  0  0  0  0  0
   -0.9127   -6.2651    2.3623 H   0  0  0  0  0  0  0  0  0  0  0  0
   -0.8820   -5.4250    0.8034 H   0  0  0  0  0  0  0  0  0  0  0  0
  1  2  1  0
  1  6  1  0
  1  7  1  0
  1  8  1  0
  2  3  1  0
  2  9  1  0
  2 10  1  0
  3  4  1  0
  4  5  1  0
  4 11  1  0
  4 12  1  0
  5  6  1  0
  6 13  1  0
  6 14  1  0
 15 16  1  0
 15 21  1  0
 15 22  1  0
 16 17  1  0
 16 23  1  0
 16 24  1  0
 17 18  1  0
 17 25  1  0
 17 26  1  0
 18 19  1  0
 19 20  1  0
 19 27  1  0
 19 28  1  0
 20 29  1  0
 20 30  1  0
 20 31  1  0
M  RAD  1  15   2
M  END
>  <reaction>  (7) 
rmg_rxn_269

>  <mol_properties>  (7) 
{"1": {"label": "*1", "atom_type": "Cs"}, "2": {"label": "*0", "atom_type": "O2s"}, "8": {"label": "*2", "atom_type": "H0"}, "14": {"label": "*3", "atom_type": "Cs"}, "15": {"label": "*4", "atom_type": "Cs"}}

>  <type>  (7) 
unop_3

>  <geom_source>  (7) 
Heuristics

$$$$

     RDKit          3D

 31 30  0  0  0  0  0  0  0  0999 V2000
    1.4100    1.0707   -2.3742 C   0  0  0  0  0  0  0  0  0  0  0  0
    1.4100    1.0707   -0.8522 C   0  0  0  0  0  0  0  0  0  0  0  0
    0.3617    1.8833   -0.3601 O   0  0  0  0  0  0  0  0  0  0  0  0
    0.4527    3.1828   -0.8594 C   0  0  0  0  0  0  0  0  0  0  0  0
    0.3617    3.2390   -2.2504 O   0  0  0  0  0  0  0  0  0  0  0  0
    1.4100    2.5123   -2.8623 C   0  0  0  0  0  0  0  0  0  0  0  0
    2.2840    0.5382   -2.7561 H   0  0  0  0  0  0  0  0  0  0  0  0
    0.5135    0.5645   -2.7372 H   0  0  0  0  0  0  0  0  0  0  0  0
    1.2193   -0.1264   -0.3634 H   0  0  0  0  0  0  0  0  0  0  0  0
    2.3737    1.4466   -0.4754 H   0  0  0  0  0  0  0  0  0  0  0  0
    1.4080    3.6349   -0.5352 H   0  0  0  0  0  0  0  0  0  0  0  0
   -0.3884    3.7433   -0.4574 H   0  0  0  0  0  0  0  0  0  0  0  0
    2.3737    2.9897   -2.6270 H   0  0  0  0  0  0  0  0  0  0  0  0
    1.2511    2.5782   -3.9378 H   0  0  0  0  0  0  0  0  0  0  0  0
    1.0283   -1.3254    0.1263 C   0  0  0  0  0  3  0  0  0  0  0  0
   -0.3087   -1.8962   -0.3276 C   0  0  0  0  0  0  0  0  0  0  0  0
   -0.9363   -2.8253    0.6913 C   0  0  0  0  0  0  0  0  0  0  0  0
   -1.2229   -2.1054    1.8637 O   0  0  0  0  0  0  0  0  0  0  0  0
   -1.7776   -2.8987    2.8818 C   0  0  0  0  0  0  0  0  0  0  0  0
   -2.0446   -2.0310    4.0898 C   0  0  0  0  0  0  0  0  0  0  0  0
    0.9114   -0.7537    1.0469 H   0  0  0  0  0  0  0  0  0  0  0  0
    1.7488   -2.1248    0.3165 H   0  0  0  0  0  0  0  0  0  0  0  0
   -0.1826   -2.4548   -1.2592 H   0  0  0  0  0  0  0  0  0  0  0  0
   -1.0112   -1.0854   -0.5371 H   0  0  0  0  0  0  0  0  0  0  0  0
   -0.2490   -3.6553    0.9197 H   0  0  0  0  0  0  0  0  0  0  0  0
   -1.8591   -3.2669    0.2872 H   0  0  0  0  0  0  0  0  0  0  0  0
   -2.7100   -3.3639    2.5290 H   0  0  0  0  0  0  0  0  0  0  0  0
   -1.0864   -3.7146    3.1397 H   0  0  0  0  0  0  0  0  0  0  0  0
   -2.7407   -1.2299    3.8385 H   0  0  0  0  0  0  0  0  0  0  0  0
   -2.4772   -2.6267    4.8951 H   0  0  0  0  0  0  0  0  0  0  0  0
   -1.1184   -1.5817    4.4498 H   0  0  0  0  0  0  0  0  0  0  0  0
  1  2  1  0
  1  6  1  0
  1  7  1  0
  1  8  1  0
  2  3  1  0
  2  9  1  0
  2 10  1  0
  3  4  1  0
  4  5  1  0
  4 11  1  0
  4 12  1  0
  5  6  1  0
  6 13  1  0
  6 14  1  0
 15 16  1  0
 15 21  1  0
 15 22  1  0
 16 17  1  0
 16 23  1  0
 16 24  1  0
 17 18  1  0
 17 25  1  0
 17 26  1  0
 18 19  1  0
 19 20  1  0
 19 27  1  0
 19 28  1  0
 20 29  1  0
 20 30  1  0
 20 31  1  0
M  RAD  1  15   2
M  END
>  <reaction>  (8) 
rmg_rxn_269

>  <mol_properties>  (8) 
{"1": {"label": "*1", "atom_type": "Cs"}, "2": {"label": "*0", "atom_type": "O2s"}, "8": {"label": "*2", "atom_type": "H0"}, "14": {"label": "*3", "atom_type": "Cs"}, "15": {"label": "*4", "atom_type": "Cs"}}

>  <type>  (8) 
unop_4

>  <geom_source>  (8) 
Heuristics

$$$$

     RDKit          3D

 31 30  0  0  0  0  0  0  0  0999 V2000
    0.1792    1.6017   -2.4454 C   0  0  0  0  0  0  0  0  0  0  0  0
    0.1792    1.6017   -0.9234 C   0  0  0  0  0  0  0  0  0  0  0  0
   -0.8691    2.4143   -0.4313 O   0  0  0  0  0  0  0  0  0  0  0  0
   -0.7782    3.7139   -0.9306 C   0  0  0  0  0  0  0  0  0  0  0  0
   -0.8691    3.7701   -2.3216 O   0  0  0  0  0  0  0  0  0  0  0  0
    0.1792    3.0434   -2.9335 C   0  0  0  0  0  0  0  0  0  0  0  0
    1.0532    1.0693   -2.8273 H   0  0  0  0  0  0  0  0  0  0  0  0
   -0.7174    1.0956   -2.8084 H   0  0  0  0  0  0  0  0  0  0  0  0
   -0.0115    0.4047   -0.4346 H   0  0  0  0  0  0  0  0  0  0  0  0
    1.1428    1.9777   -0.5466 H   0  0  0  0  0  0  0  0  0  0  0  0
    0.1772    4.1660   -0.6064 H   0  0  0  0  0  0  0  0  0  0  0  0
   -1.6192    4.2744   -0.5286 H   0  0  0  0  0  0  0  0  0  0  0  0
    1.1428    3.5208   -2.6982 H   0  0  0  0  0  0  0  0  0  0  0  0
    0.0203    3.1093   -4.0090 H   0  0  0  0  0  0  0  0  0  0  0  0
   -0.2026   -0.7943    0.0551 C   0  0  0  0  0  3  0  0  0  0  0  0
   -0.1989   -0.7716    1.5778 C   0  0  0  0  0  0  0  0  0  0  0  0
   -0.4241   -2.1370    2.1943 C   0  0  0  0  0  0  0  0  0  0  0  0
    0.6343   -2.9897    1.8369 O   0  0  0  0  0  0  0  0  0  0  0  0
    0.4909   -4.2943    2.3377 C   0  0  0  0  0  0  0  0  0  0  0  0
    1.6753   -5.1226    1.8964 C   0  0  0  0  0  0  0  0  0  0  0  0
    0.5846   -1.4466   -0.3232 H   0  0  0  0  0  0  0  0  0  0  0  0
   -1.1575   -1.1641   -0.3268 H   0  0  0  0  0  0  0  0  0  0  0  0
   -0.9822   -0.1032    1.9460 H   0  0  0  0  0  0  0  0  0  0  0  0
    0.7522   -0.3775    1.9450 H   0  0  0  0  0  0  0  0  0  0  0  0
   -1.3794   -2.5577    1.8425 H   0  0  0  0  0  0  0  0  0  0  0  0
   -0.4865   -2.0553    3.2894 H   0  0  0  0  0  0  0  0  0  0  0  0
    0.4267   -4.2698    3.4357 H   0  0  0  0  0  0  0  0  0  0  0  0
   -0.4464   -4.7364    1.9686 H   0  0  0  0  0  0  0  0  0  0  0  0
    2.6039   -4.6927    2.2735 H   0  0  0  0  0  0  0  0  0  0  0  0
    1.5858   -6.1420    2.2749 H   0  0  0  0  0  0  0  0  0  0  0  0
    1.7308   -5.1604    0.8079 H   0  0  0  0  0  0  0  0  0  0  0  0
  1  2  1  0
  1  6  1  0
  1  7  1  0
  1  8  1  0
  2  3  1  0
  2  9  1  0
  2 10  1  0
  3  4  1  0
  4  5  1  0
  4 11  1  0
  4 12  1  0
  5  6  1  0
  6 13  1  0
  6 14  1  0
 15 16  1  0
 15 21  1  0
 15 22  1  0
 16 17  1  0
 16 23  1  0
 16 24  1  0
 17 18  1  0
 17 25  1  0
 17 26  1  0
 18 19  1  0
 19 20  1  0
 19 27  1  0
 19 28  1  0
 20 29  1  0
 20 30  1  0
 20 31  1  0
M  RAD  1  15   2
M  END
>  <reaction>  (9) 
rmg_rxn_269

>  <mol_properties>  (9) 
{"1": {"label": "*1", "atom_type": "Cs"}, "2": {"label": "*0", "atom_type": "O2s"}, "8": {"label": "*2", "atom_type": "H0"}, "14": {"label": "*3", "atom_type": "Cs"}, "15": {"label": "*4", "atom_type": "Cs"}}

>  <type>  (9) 
unop_5

>  <geom_source>  (9) 
Heuristics

$$$$

     RDKit          3D

 31 30  0  0  0  0  0  0  0  0999 V2000
    1.0647    0.8551   -2.7476 C   0  0  0  0  0  0  0  0  0  0  0  0
    1.0647    0.8551   -1.2255 C   0  0  0  0  0  0  0  0  0  0  0  0
    0.0164    1.6677   -0.7334 O   0  0  0  0  0  0  0  0  0  0  0  0
    0.1073    2.9672   -1.2327 C   0  0  0  0  0  0  0  0  0  0  0  0
    0.0164    3.0234   -2.6238 O   0  0  0  0  0  0  0  0  0  0  0  0
    1.0647    2.2967   -3.2357 C   0  0  0  0  0  0  0  0  0  0  0  0
    1.9387    0.3226   -3.1294 H   0  0  0  0  0  0  0  0  0  0  0  0
    0.1681    0.3489   -3.1106 H   0  0  0  0  0  0  0  0  0  0  0  0
    0.8740   -0.3420   -0.7367 H   0  0  0  0  0  0  0  0  0  0  0  0
    2.0283    1.2310   -0.8488 H   0  0  0  0  0  0  0  0  0  0  0  0
    1.0626    3.4193   -0.9085 H   0  0  0  0  0  0  0  0  0  0  0  0
   -0.7337    3.5277   -0.8308 H   0  0  0  0  0  0  0  0  0  0  0  0
    2.0283    2.7741   -3.0004 H   0  0  0  0  0  0  0  0  0  0  0  0
    0.9057    2.3626   -4.3111 H   0  0  0  0  0  0  0  0  0  0  0  0
    0.6829   -1.5410   -0.2471 C   0  0  0  0  0  3  0  0  0  0  0  0
   -0.8002   -1.8195   -0.0421 C   0  0  0  0  0  0  0  0  0  0  0  0
   -1.0912   -2.5910    1.2289 C   0  0  0  0  0  0  0  0  0  0  0  0
   -0.7047   -1.8216    2.3395 O   0  0  0  0  0  0  0  0  0  0  0  0
   -0.9061   -2.4756    3.5664 C   0  0  0  0  0  0  0  0  0  0  0  0
   -0.4591   -1.5656    4.6870 C   0  0  0  0  0  0  0  0  0  0  0  0
    1.0832   -0.9534    0.5790 H   0  0  0  0  0  0  0  0  0  0  0  0
    1.2504   -2.4734   -0.3019 H   0  0  0  0  0  0  0  0  0  0  0  0
   -1.1946   -2.3963   -0.8833 H   0  0  0  0  0  0  0  0  0  0  0  0
   -1.3580   -0.8799   -0.0132 H   0  0  0  0  0  0  0  0  0  0  0  0
   -0.5423   -3.5460    1.2253 H   0  0  0  0  0  0  0  0  0  0  0  0
   -2.1629   -2.8301    1.2929 H   0  0  0  0  0  0  0  0  0  0  0  0
   -1.9687   -2.7356    3.6830 H   0  0  0  0  0  0  0  0  0  0  0  0
   -0.3385   -3.4176    3.5864 H   0  0  0  0  0  0  0  0  0  0  0  0
   -1.0310   -0.6371    4.6764 H   0  0  0  0  0  0  0  0  0  0  0  0
   -0.6070   -2.0533    5.6518 H   0  0  0  0  0  0  0  0  0  0  0  0
    0.5981   -1.3199    4.5810 H   0  0  0  0  0  0  0  0  0  0  0  0
  1  2  1  0
  1  6  1  0
  1  7  1  0
  1  8  1  0
  2  3  1  0
  2  9  1  0
  2 10  1  0
  3  4  1  0
  4  5  1  0
  4 11  1  0
  4 12  1  0
  5  6  1  0
  6 13  1  0
  6 14  1  0
 15 16  1  0
 15 21  1  0
 15 22  1  0
 16 17  1  0
 16 23  1  0
 16 24  1  0
 17 18  1  0
 17 25  1  0
 17 26  1  0
 18 19  1  0
 19 20  1  0
 19 27  1  0
 19 28  1  0
 20 29  1  0
 20 30  1  0
 20 31  1  0
M  RAD  1  15   2
M  END
>  <reaction>  (10) 
rmg_rxn_269

>  <mol_properties>  (10) 
{"1": {"label": "*1", "atom_type": "Cs"}, "2": {"label": "*0", "atom_type": "O2s"}, "8": {"label": "*2", "atom_type": "H0"}, "14": {"label": "*3", "atom_type": "Cs"}, "15": {"label": "*4", "atom_type": "Cs"}}

>  <type>  (10) 
unop_6

>  <geom_source>  (10) 
Heuristics

$$$$

     RDKit          3D

 31 30  0  0  0  0  0  0  0  0999 V2000
    0.5300    0.8699   -2.9025 C   0  0  0  0  0  0  0  0  0  0  0  0
    0.5300    0.8699   -1.3805 C   0  0  0  0  0  0  0  0  0  0  0  0
   -0.5183    1.6825   -0.8884 O   0  0  0  0  0  0  0  0  0  0  0  0
   -0.4274    2.9821   -1.3877 C   0  0  0  0  0  0  0  0  0  0  0  0
   -0.5183    3.0382   -2.7788 O   0  0  0  0  0  0  0  0  0  0  0  0
    0.5300    2.3115   -3.3906 C   0  0  0  0  0  0  0  0  0  0  0  0
    1.4040    0.3374   -3.2844 H   0  0  0  0  0  0  0  0  0  0  0  0
   -0.3666    0.3637   -3.2655 H   0  0  0  0  0  0  0  0  0  0  0  0
    0.3392   -0.3271   -0.8917 H   0  0  0  0  0  0  0  0  0  0  0  0
    1.4936    1.2459   -1.0038 H   0  0  0  0  0  0  0  0  0  0  0  0
    0.5279    3.4341   -1.0635 H   0  0  0  0  0  0  0  0  0  0  0  0
   -1.2685    3.5426   -0.9857 H   0  0  0  0  0  0  0  0  0  0  0  0
    1.4936    2.7889   -3.1553 H   0  0  0  0  0  0  0  0  0  0  0  0
    0.3710    2.3775   -4.4661 H   0  0  0  0  0  0  0  0  0  0  0  0
    0.1482   -1.5262   -0.4021 C   0  0  0  0  0  3  0  0  0  0  0  0
   -1.1051   -1.5722    0.4618 C   0  0  0  0  0  0  0  0  0  0  0  0
   -0.9399   -2.4204    1.7062 C   0  0  0  0  0  0  0  0  0  0  0  0
    0.0515   -1.8555    2.5266 O   0  0  0  0  0  0  0  0  0  0  0  0
    0.2983   -2.5988    3.6928 C   0  0  0  0  0  0  0  0  0  0  0  0
    1.3749   -1.9075    4.4969 C   0  0  0  0  0  0  0  0  0  0  0  0
    0.9868   -1.1100    0.1561 H   0  0  0  0  0  0  0  0  0  0  0  0
    0.4300   -2.5287   -0.7335 H   0  0  0  0  0  0  0  0  0  0  0  0
   -1.9432   -1.9772   -0.1123 H   0  0  0  0  0  0  0  0  0  0  0  0
   -1.3887   -0.5613    0.7659 H   0  0  0  0  0  0  0  0  0  0  0  0
   -0.6558   -3.4478    1.4283 H   0  0  0  0  0  0  0  0  0  0  0  0
   -1.8911   -2.4814    2.2551 H   0  0  0  0  0  0  0  0  0  0  0  0
   -0.6255   -2.6876    4.2836 H   0  0  0  0  0  0  0  0  0  0  0  0
    0.6119   -3.6192    3.4274 H   0  0  0  0  0  0  0  0  0  0  0  0
    1.0591   -0.9007    4.7723 H   0  0  0  0  0  0  0  0  0  0  0  0
    1.5835   -2.4677    5.4097 H   0  0  0  0  0  0  0  0  0  0  0  0
    2.2959   -1.8329    3.9177 H   0  0  0  0  0  0  0  0  0  0  0  0
  1  2  1  0
  1  6  1  0
  1  7  1  0
  1  8  1  0
  2  3  1  0
  2  9  1  0
  2 10  1  0
  3  4  1  0
  4  5  1  0
  4 11  1  0
  4 12  1  0
  5  6  1  0
  6 13  1  0
  6 14  1  0
 15 16  1  0
 15 21  1  0
 15 22  1  0
 16 17  1  0
 16 23  1  0
 16 24  1  0
 17 18  1  0
 17 25  1  0
 17 26  1  0
 18 19  1  0
 19 20  1  0
 19 27  1  0
 19 28  1  0
 20 29  1  0
 20 30  1  0
 20 31  1  0
M  RAD  1  15   2
M  END
>  <reaction>  (11) 
rmg_rxn_269

>  <mol_properties>  (11) 
{"1": {"label": "*1", "atom_type": "Cs"}, "2": {"label": "*0", "atom_type": "O2s"}, "8": {"label": "*2", "atom_type": "H0"}, "14": {"label": "*3", "atom_type": "Cs"}, "15": {"label": "*4", "atom_type": "Cs"}}

>  <type>  (11) 
unop_7

>  <geom_source>  (11) 
Heuristics

$$$$

     RDKit          3D

 31 30  0  0  0  0  0  0  0  0999 V2000
    0.2286    1.6967   -2.3328 C   0  0  0  0  0  0  0  0  0  0  0  0
    0.2286    1.6967   -0.8107 C   0  0  0  0  0  0  0  0  0  0  0  0
   -0.8197    2.5093   -0.3186 O   0  0  0  0  0  0  0  0  0  0  0  0
   -0.7288    3.8088   -0.8180 C   0  0  0  0  0  0  0  0  0  0  0  0
   -0.8197    3.8650   -2.2090 O   0  0  0  0  0  0  0  0  0  0  0  0
    0.2286    3.1383   -2.8209 C   0  0  0  0  0  0  0  0  0  0  0  0
    1.1026    1.1642   -2.7147 H   0  0  0  0  0  0  0  0  0  0  0  0
   -0.6680    1.1905   -2.6958 H   0  0  0  0  0  0  0  0  0  0  0  0
    0.0378    0.4996   -0.3219 H   0  0  0  0  0  0  0  0  0  0  0  0
    1.1922    2.0726   -0.4340 H   0  0  0  0  0  0  0  0  0  0  0  0
    0.2265    4.2609   -0.4938 H   0  0  0  0  0  0  0  0  0  0  0  0
   -1.5699    4.3693   -0.4160 H   0  0  0  0  0  0  0  0  0  0  0  0
    1.1922    3.6157   -2.5856 H   0  0  0  0  0  0  0  0  0  0  0  0
    0.0696    3.2042   -3.8963 H   0  0  0  0  0  0  0  0  0  0  0  0
   -0.1532   -0.6994    0.1677 C   0  0  0  0  0  3  0  0  0  0  0  0
    1.1699   -1.4250    0.3727 C   0  0  0  0  0  0  0  0  0  0  0  0
    1.2121   -2.2369    1.6511 C   0  0  0  0  0  0  0  0  0  0  0  0
    0.2418   -3.2517    1.5904 O   0  0  0  0  0  0  0  0  0  0  0  0
    0.1846   -4.0367    2.7541 C   0  0  0  0  0  0  0  0  0  0  0  0
   -0.8855   -5.0900    2.5837 C   0  0  0  0  0  0  0  0  0  0  0  0
   -0.9793   -1.4089    0.1199 H   0  0  0  0  0  0  0  0  0  0  0  0
   -0.3507   -0.0091    0.9916 H   0  0  0  0  0  0  0  0  0  0  0  0
    1.9928   -0.7054    0.4042 H   0  0  0  0  0  0  0  0  0  0  0  0
    1.3658   -2.0935   -0.4697 H   0  0  0  0  0  0  0  0  0  0  0  0
    1.0198   -1.5859    2.5187 H   0  0  0  0  0  0  0  0  0  0  0  0
    2.2096   -2.6793    1.7891 H   0  0  0  0  0  0  0  0  0  0  0  0
    1.1618   -4.5076    2.9375 H   0  0  0  0  0  0  0  0  0  0  0  0
   -0.0366   -3.4011    3.6243 H   0  0  0  0  0  0  0  0  0  0  0  0
   -0.6598   -5.7292    1.7294 H   0  0  0  0  0  0  0  0  0  0  0  0
   -0.9479   -5.7135    3.4769 H   0  0  0  0  0  0  0  0  0  0  0  0
   -1.8573   -4.6239    2.4174 H   0  0  0  0  0  0  0  0  0  0  0  0
  1  2  1  0
  1  6  1  0
  1  7  1  0
  1  8  1  0
  2  3  1  0
  2  9  1  0
  2 10  1  0
  3  4  1  0
  4  5  1  0
  4 11  1  0
  4 12  1  0
  5  6  1  0
  6 13  1  0
  6 14  1  0
 15 16  1  0
 15 21  1  0
 15 22  1  0
 16 17  1  0
 16 23  1  0
 16 24  1  0
 17 18  1  0
 17 25  1  0
 17 26  1  0
 18 19  1  0
 19 20  1  0
 19 27  1  0
 19 28  1  0
 20 29  1  0
 20 30  1  0
 20 31  1  0
M  RAD  1  15   2
M  END
>  <reaction>  (12) 
rmg_rxn_269

>  <mol_properties>  (12) 
{"1": {"label": "*1", "atom_type": "Cs"}, "2": {"label": "*0", "atom_type": "O2s"}, "8": {"label": "*2", "atom_type": "H0"}, "14": {"label": "*3", "atom_type": "Cs"}, "15": {"label": "*4", "atom_type": "Cs"}}

>  <type>  (12) 
unop_8

>  <geom_source>  (12) 
Heuristics

$$$$

     RDKit          3D

 31 30  0  0  0  0  0  0  0  0999 V2000
    1.4101    1.4290   -1.9516 C   0  0  0  0  0  0  0  0  0  0  0  0
    1.4101    1.4290   -0.4295 C   0  0  0  0  0  0  0  0  0  0  0  0
    0.3618    2.2416    0.0626 O   0  0  0  0  0  0  0  0  0  0  0  0
    0.4528    3.5412   -0.4368 C   0  0  0  0  0  0  0  0  0  0  0  0
    0.3619    3.5974   -1.8278 O   0  0  0  0  0  0  0  0  0  0  0  0
    1.4101    2.8707   -2.4397 C   0  0  0  0  0  0  0  0  0  0  0  0
    2.2841    0.8966   -2.3334 H   0  0  0  0  0  0  0  0  0  0  0  0
    0.5136    0.9228   -2.3146 H   0  0  0  0  0  0  0  0  0  0  0  0
    1.2194    0.2320    0.0593 H   0  0  0  0  0  0  0  0  0  0  0  0
    2.3738    1.8050   -0.0528 H   0  0  0  0  0  0  0  0  0  0  0  0
    1.4081    3.9932   -0.1125 H   0  0  0  0  0  0  0  0  0  0  0  0
   -0.3883    4.1017   -0.0348 H   0  0  0  0  0  0  0  0  0  0  0  0
    2.3738    3.3481   -2.2044 H   0  0  0  0  0  0  0  0  0  0  0  0
    1.2512    2.9366   -3.5151 H   0  0  0  0  0  0  0  0  0  0  0  0
    1.0284   -0.9671    0.5489 C   0  0  0  0  0  3  0  0  0  0  0  0
    0.1744   -1.8118   -0.3873 C   0  0  0  0  0  0  0  0  0  0  0  0
   -0.4309   -3.0242    0.2901 C   0  0  0  0  0  0  0  0  0  0  0  0
   -1.3060   -2.6021    1.3054 O   0  0  0  0  0  0  0  0  0  0  0  0
   -1.8893   -3.6653    2.0145 C   0  0  0  0  0  0  0  0  0  0  0  0
   -2.8057   -3.1030    3.0764 C   0  0  0  0  0  0  0  0  0  0  0  0
    0.4352   -0.5992    1.3861 H   0  0  0  0  0  0  0  0  0  0  0  0
    1.8565   -1.5528    0.9557 H   0  0  0  0  0  0  0  0  0  0  0  0
    0.7753   -2.1629   -1.2308 H   0  0  0  0  0  0  0  0  0  0  0  0
   -0.6349   -1.2073   -0.8049 H   0  0  0  0  0  0  0  0  0  0  0  0
    0.3647   -3.6540    0.7189 H   0  0  0  0  0  0  0  0  0  0  0  0
   -0.9748   -3.6384   -0.4426 H   0  0  0  0  0  0  0  0  0  0  0  0
   -2.4515   -4.3125    1.3250 H   0  0  0  0  0  0  0  0  0  0  0  0
   -1.1046   -4.2852    2.4727 H   0  0  0  0  0  0  0  0  0  0  0  0
   -3.5921   -2.4995    2.6219 H   0  0  0  0  0  0  0  0  0  0  0  0
   -3.2715   -3.9122    3.6409 H   0  0  0  0  0  0  0  0  0  0  0  0
   -2.2463   -2.4738    3.7697 H   0  0  0  0  0  0  0  0  0  0  0  0
  1  2  1  0
  1  6  1  0
  1  7  1  0
  1  8  1  0
  2  3  1  0
  2  9  1  0
  2 10  1  0
  3  4  1  0
  4  5  1  0
  4 11  1  0
  4 12  1  0
  5  6  1  0
  6 13  1  0
  6 14  1  0
 15 16  1  0
 15 21  1  0
 15 22  1  0
 16 17  1  0
 16 23  1  0
 16 24  1  0
 17 18  1  0
 17 25  1  0
 17 26  1  0
 18 19  1  0
 19 20  1  0
 19 27  1  0
 19 28  1  0
 20 29  1  0
 20 30  1  0
 20 31  1  0
M  RAD  1  15   2
M  END
>  <reaction>  (13) 
rmg_rxn_269

>  <mol_properties>  (13) 
{"1": {"label": "*1", "atom_type": "Cs"}, "2": {"label": "*0", "atom_type": "O2s"}, "8": {"label": "*2", "atom_type": "H0"}, "14": {"label": "*3", "atom_type": "Cs"}, "15": {"label": "*4", "atom_type": "Cs"}}

>  <type>  (13) 
unop_9

>  <geom_source>  (13) 
Heuristics

$$$$

     RDKit          3D

 31 30  0  0  0  0  0  0  0  0999 V2000
    0.2465    1.8439   -2.0300 C   0  0  0  0  0  0  0  0  0  0  0  0
    0.2465    1.8439   -0.5080 C   0  0  0  0  0  0  0  0  0  0  0  0
   -0.8018    2.6565   -0.0159 O   0  0  0  0  0  0  0  0  0  0  0  0
   -0.7108    3.9561   -0.5152 C   0  0  0  0  0  0  0  0  0  0  0  0
   -0.8018    4.0123   -1.9062 O   0  0  0  0  0  0  0  0  0  0  0  0
    0.2465    3.2855   -2.5181 C   0  0  0  0  0  0  0  0  0  0  0  0
    1.1205    1.3114   -2.4119 H   0  0  0  0  0  0  0  0  0  0  0  0
   -0.6500    1.3377   -2.3930 H   0  0  0  0  0  0  0  0  0  0  0  0
    0.0558    0.6469   -0.0192 H   0  0  0  0  0  0  0  0  0  0  0  0
    1.2102    2.2199   -0.1312 H   0  0  0  0  0  0  0  0  0  0  0  0
    0.2445    4.4081   -0.1910 H   0  0  0  0  0  0  0  0  0  0  0  0
   -1.5519    4.5166   -0.1132 H   0  0  0  0  0  0  0  0  0  0  0  0
    1.2102    3.7629   -2.2828 H   0  0  0  0  0  0  0  0  0  0  0  0
    0.0876    3.3515   -3.5936 H   0  0  0  0  0  0  0  0  0  0  0  0
   -0.1353   -0.5522    0.4705 C   0  0  0  0  0  3  0  0  0  0  0  0
    0.9581   -1.5102    0.0166 C   0  0  0  0  0  0  0  0  0  0  0  0
    1.2762   -2.5795    1.0417 C   0  0  0  0  0  0  0  0  0  0  0  0
    0.1419   -3.3846    1.2421 O   0  0  0  0  0  0  0  0  0  0  0  0
    0.3347   -4.3865    2.2077 C   0  0  0  0  0  0  0  0  0  0  0  0
   -0.9390   -5.1882    2.3444 C   0  0  0  0  0  0  0  0  0  0  0  0
   -1.0630   -1.0899    0.6659 H   0  0  0  0  0  0  0  0  0  0  0  0
    0.1547   -0.0375    1.3900 H   0  0  0  0  0  0  0  0  0  0  0  0
    1.8793   -0.9587   -0.1908 H   0  0  0  0  0  0  0  0  0  0  0  0
    0.6650   -1.9994   -0.9159 H   0  0  0  0  0  0  0  0  0  0  0  0
    1.5777   -2.1132    1.9931 H   0  0  0  0  0  0  0  0  0  0  0  0
    2.1190   -3.1975    0.6989 H   0  0  0  0  0  0  0  0  0  0  0  0
    1.1693   -5.0386    1.9103 H   0  0  0  0  0  0  0  0  0  0  0  0
    0.6074   -3.9309    3.1711 H   0  0  0  0  0  0  0  0  0  0  0  0
   -1.2027   -5.6516    1.3931 H   0  0  0  0  0  0  0  0  0  0  0  0
   -0.8127   -5.9745    3.0902 H   0  0  0  0  0  0  0  0  0  0  0  0
   -1.7637   -4.5454    2.6543 H   0  0  0  0  0  0  0  0  0  0  0  0
  1  2  1  0
  1  6  1  0
  1  7  1  0
  1  8  1  0
  2  3  1  0
  2  9  1  0
  2 10  1  0
  3  4  1  0
  4  5  1  0
  4 11  1  0
  4 12  1  0
  5  6  1  0
  6 13  1  0
  6 14  1  0
 15 16  1  0
 15 21  1  0
 15 22  1  0
 16 17  1  0
 16 23  1  0
 16 24  1  0
 17 18  1  0
 17 25  1  0
 17 26  1  0
 18 19  1  0
 19 20  1  0
 19 27  1  0
 19 28  1  0
 20 29  1  0
 20 30  1  0
 20 31  1  0
M  RAD  1  15   2
M  END
>  <reaction>  (14) 
rmg_rxn_269

>  <mol_properties>  (14) 
{"1": {"label": "*1", "atom_type": "Cs"}, "2": {"label": "*0", "atom_type": "O2s"}, "8": {"label": "*2", "atom_type": "H0"}, "14": {"label": "*3", "atom_type": "Cs"}, "15": {"label": "*4", "atom_type": "Cs"}}

>  <type>  (14) 
unop_10

>  <geom_source>  (14) 
Heuristics

$$$$

     RDKit          3D

 31 30  0  0  0  0  0  0  0  0999 V2000
    0.0846    1.1704   -2.7522 C   0  0  0  0  0  0  0  0  0  0  0  0
    0.0846    1.1704   -1.2302 C   0  0  0  0  0  0  0  0  0  0  0  0
   -0.9637    1.9830   -0.7381 O   0  0  0  0  0  0  0  0  0  0  0  0
   -0.8728    3.2825   -1.2374 C   0  0  0  0  0  0  0  0  0  0  0  0
   -0.9637    3.3387   -2.6284 O   0  0  0  0  0  0  0  0  0  0  0  0
    0.0846    2.6120   -3.2403 C   0  0  0  0  0  0  0  0  0  0  0  0
    0.9586    0.6379   -3.1341 H   0  0  0  0  0  0  0  0  0  0  0  0
   -0.8120    0.6642   -3.1152 H   0  0  0  0  0  0  0  0  0  0  0  0
   -0.1062   -0.0266   -0.7414 H   0  0  0  0  0  0  0  0  0  0  0  0
    1.0482    1.5463   -0.8534 H   0  0  0  0  0  0  0  0  0  0  0  0
    0.0825    3.7346   -0.9132 H   0  0  0  0  0  0  0  0  0  0  0  0
   -1.7139    3.8430   -0.8354 H   0  0  0  0  0  0  0  0  0  0  0  0
    1.0482    3.0894   -3.0050 H   0  0  0  0  0  0  0  0  0  0  0  0
   -0.0744    2.6779   -4.3158 H   0  0  0  0  0  0  0  0  0  0  0  0
   -0.2972   -1.2257   -0.2517 C   0  0  0  0  0  3  0  0  0  0  0  0
   -1.0064   -1.1615    1.0945 C   0  0  0  0  0  0  0  0  0  0  0  0
   -0.6675   -2.3261    2.0022 C   0  0  0  0  0  0  0  0  0  0  0  0
    0.7040   -2.2950    2.3074 O   0  0  0  0  0  0  0  0  0  0  0  0
    1.1173   -3.3637    3.1201 C   0  0  0  0  0  0  0  0  0  0  0  0
    2.5994   -3.2346    3.3847 C   0  0  0  0  0  0  0  0  0  0  0  0
    0.7846   -1.2196   -0.1189 H   0  0  0  0  0  0  0  0  0  0  0  0
   -0.5644   -2.1387   -0.7897 H   0  0  0  0  0  0  0  0  0  0  0  0
   -2.0901   -1.1530    0.9488 H   0  0  0  0  0  0  0  0  0  0  0  0
   -0.7489   -0.2328    1.6103 H   0  0  0  0  0  0  0  0  0  0  0  0
   -0.9198   -3.2771    1.5070 H   0  0  0  0  0  0  0  0  0  0  0  0
   -1.2590   -2.2726    2.9280 H   0  0  0  0  0  0  0  0  0  0  0  0
    0.5557   -3.3547    4.0661 H   0  0  0  0  0  0  0  0  0  0  0  0
    0.8974   -4.3197    2.6224 H   0  0  0  0  0  0  0  0  0  0  0  0
    2.8167   -2.2932    3.8906 H   0  0  0  0  0  0  0  0  0  0  0  0
    2.9437   -4.0553    4.0159 H   0  0  0  0  0  0  0  0  0  0  0  0
    3.1583   -3.2591    2.4485 H   0  0  0  0  0  0  0  0  0  0  0  0
  1  2  1  0
  1  6  1  0
  1  7  1  0
  1  8  1  0
  2  3  1  0
  2  9  1  0
  2 10  1  0
  3  4  1  0
  4  5  1  0
  4 11  1  0
  4 12  1  0
  5  6  1  0
  6 13  1  0
  6 14  1  0
 15 16  1  0
 15 21  1  0
 15 22  1  0
 16 17  1  0
 16 23  1  0
 16 24  1  0
 17 18  1  0
 17 25  1  0
 17 26  1  0
 18 19  1  0
 19 20  1  0
 19 27  1  0
 19 28  1  0
 20 29  1  0
 20 30  1  0
 20 31  1  0
M  RAD  1  15   2
M  END
>  <reaction>  (15) 
rmg_rxn_269

>  <mol_properties>  (15) 
{"1": {"label": "*1", "atom_type": "Cs"}, "2": {"label": "*0", "atom_type": "O2s"}, "8": {"label": "*2", "atom_type": "H0"}, "14": {"label": "*3", "atom_type": "Cs"}, "15": {"label": "*4", "atom_type": "Cs"}}

>  <type>  (15) 
unop_11

>  <geom_source>  (15) 
Heuristics

$$$$

     RDKit          3D

 31 30  0  0  0  0  0  0  0  0999 V2000
    1.0516    1.7687   -1.6962 C   0  0  0  0  0  0  0  0  0  0  0  0
    1.0516    1.7687   -0.1742 C   0  0  0  0  0  0  0  0  0  0  0  0
    0.0033    2.5813    0.3179 O   0  0  0  0  0  0  0  0  0  0  0  0
    0.0943    3.8808   -0.1814 C   0  0  0  0  0  0  0  0  0  0  0  0
    0.0033    3.9370   -1.5724 O   0  0  0  0  0  0  0  0  0  0  0  0
    1.0516    3.2103   -2.1843 C   0  0  0  0  0  0  0  0  0  0  0  0
    1.9256    1.2362   -2.0781 H   0  0  0  0  0  0  0  0  0  0  0  0
    0.1551    1.2625   -2.0592 H   0  0  0  0  0  0  0  0  0  0  0  0
    0.8609    0.5716    0.3146 H   0  0  0  0  0  0  0  0  0  0  0  0
    2.0153    2.1446    0.2026 H   0  0  0  0  0  0  0  0  0  0  0  0
    1.0496    4.3329    0.1428 H   0  0  0  0  0  0  0  0  0  0  0  0
   -0.7468    4.4413    0.2206 H   0  0  0  0  0  0  0  0  0  0  0  0
    2.0153    3.6877   -1.9490 H   0  0  0  0  0  0  0  0  0  0  0  0
    0.8927    3.2762   -3.2598 H   0  0  0  0  0  0  0  0  0  0  0  0
    0.6698   -0.6274    0.8043 C   0  0  0  0  0  3  0  0  0  0  0  0
    0.5062   -1.6542   -0.3085 C   0  0  0  0  0  0  0  0  0  0  0  0
    0.2895   -3.0621    0.2075 C   0  0  0  0  0  0  0  0  0  0  0  0
   -0.9128   -3.1121    0.9335 O   0  0  0  0  0  0  0  0  0  0  0  0
   -1.1788   -4.3776    1.4822 C   0  0  0  0  0  0  0  0  0  0  0  0
   -2.4860   -4.3199    2.2382 C   0  0  0  0  0  0  0  0  0  0  0  0
   -0.2168   -0.5999    1.4376 H   0  0  0  0  0  0  0  0  0  0  0  0
    1.5269   -0.8716    1.4369 H   0  0  0  0  0  0  0  0  0  0  0  0
    1.3946   -1.6629   -0.9461 H   0  0  0  0  0  0  0  0  0  0  0  0
   -0.3391   -1.3844   -0.9467 H   0  0  0  0  0  0  0  0  0  0  0  0
    1.1301   -3.3615    0.8534 H   0  0  0  0  0  0  0  0  0  0  0  0
    0.2516   -3.7736   -0.6304 H   0  0  0  0  0  0  0  0  0  0  0  0
   -1.2307   -5.1303    0.6816 H   0  0  0  0  0  0  0  0  0  0  0  0
   -0.3594   -4.6749    2.1532 H   0  0  0  0  0  0  0  0  0  0  0  0
   -3.3013   -4.0387    1.5708 H   0  0  0  0  0  0  0  0  0  0  0  0
   -2.7142   -5.2940    2.6737 H   0  0  0  0  0  0  0  0  0  0  0  0
   -2.4304   -3.5850    3.0421 H   0  0  0  0  0  0  0  0  0  0  0  0
  1  2  1  0
  1  6  1  0
  1  7  1  0
  1  8  1  0
  2  3  1  0
  2  9  1  0
  2 10  1  0
  3  4  1  0
  4  5  1  0
  4 11  1  0
  4 12  1  0
  5  6  1  0
  6 13  1  0
  6 14  1  0
 15 16  1  0
 15 21  1  0
 15 22  1  0
 16 17  1  0
 16 23  1  0
 16 24  1  0
 17 18  1  0
 17 25  1  0
 17 26  1  0
 18 19  1  0
 19 20  1  0
 19 27  1  0
 19 28  1  0
 20 29  1  0
 20 30  1  0
 20 31  1  0
M  RAD  1  15   2
M  END
>  <reaction>  (16) 
rmg_rxn_269

>  <mol_properties>  (16) 
{"1": {"label": "*1", "atom_type": "Cs"}, "2": {"label": "*0", "atom_type": "O2s"}, "8": {"label": "*2", "atom_type": "H0"}, "14": {"label": "*3", "atom_type": "Cs"}, "15": {"label": "*4", "atom_type": "Cs"}}

>  <type>  (16) 
unop_12

>  <geom_source>  (16) 
Heuristics

$$$$

     RDKit          3D

 31 30  0  0  0  0  0  0  0  0999 V2000
    3.6520   -0.2650   -0.6793 O   0  0  0  0  0  0  0  0  0  0  0  0
   -4.6144   -0.8661    0.7997 O   0  0  0  0  0  0  0  0  0  0  0  0
   -3.3652   -0.5442   -1.2210 O   0  0  0  0  0  0  0  0  0  0  0  0
    1.2532   -0.0842   -0.4523 C   0  0  0  0  0  0  0  0  0  0  0  0
   -3.1573    1.0416    0.5612 C   0  0  0  0  0  0  0  0  0  0  0  0
    2.4989   -0.9437   -0.2176 C   0  0  0  0  0  0  0  0  0  0  0  0
   -4.5857    0.5461    0.8017 C   0  0  0  0  0  0  0  0  0  0  0  0
    4.3024    0.3914    0.3891 C   0  0  0  0  0  0  0  0  0  0  0  0
   -0.0164   -0.8223   -0.0412 C   0  0  0  0  0  0  0  0  0  0  0  0
    5.4485    1.2262   -0.1608 C   0  0  0  0  0  0  0  0  0  0  0  0
   -4.2480   -1.3777   -0.4812 C   0  0  0  0  0  0  0  0  0  0  0  0
   -2.4430    0.0334   -0.3324 C   0  0  0  0  0  3  0  0  0  0  0  0
    1.3270    0.8554    0.1353 H   0  0  0  0  0  0  0  0  0  0  0  0
    1.1841    0.1817   -1.5292 H   0  0  0  0  0  0  0  0  0  0  0  0
   -3.1831    2.0415    0.0762 H   0  0  0  0  0  0  0  0  0  0  0  0
   -2.6080    1.1179    1.5235 H   0  0  0  0  0  0  0  0  0  0  0  0
    2.4000   -1.8792   -0.8088 H   0  0  0  0  0  0  0  0  0  0  0  0
    2.5619   -1.2533    0.8536 H   0  0  0  0  0  0  0  0  0  0  0  0
    4.7224   -0.3539    1.1018 H   0  0  0  0  0  0  0  0  0  0  0  0
    3.6050    1.0705    0.9303 H   0  0  0  0  0  0  0  0  0  0  0  0
   -4.9435    0.9154    1.7859 H   0  0  0  0  0  0  0  0  0  0  0  0
   -5.2753    0.9489    0.0243 H   0  0  0  0  0  0  0  0  0  0  0  0
    0.0179   -1.0776    1.0394 H   0  0  0  0  0  0  0  0  0  0  0  0
   -0.1323   -1.7535   -0.6359 H   0  0  0  0  0  0  0  0  0  0  0  0
   -1.0370   -0.0665   -0.2548 H   0  0  0  0  0  0  0  0  0  0  0  0
    5.9708    1.7424    0.6723 H   0  0  0  0  0  0  0  0  0  0  0  0
    6.1738    0.5736   -0.6915 H   0  0  0  0  0  0  0  0  0  0  0  0
    5.0577    1.9880   -0.8683 H   0  0  0  0  0  0  0  0  0  0  0  0
   -3.7760   -2.3743   -0.3447 H   0  0  0  0  0  0  0  0  0  0  0  0
   -5.1704   -1.5329   -1.0796 H   0  0  0  0  0  0  0  0  0  0  0  0
   -1.6198    0.5207   -0.8960 H   0  0  0  0  0  0  0  0  0  0  0  0
  1  8  1  0
  1  6  1  0
  2  7  1  0
  2 11  1  0
  3 12  1  0
  3 11  1  0
  4  9  1  0
  4  6  1  0
  4 13  1  0
  4 14  1  0
  5 12  1  0
  5  7  1  0
  5 15  1  0
  5 16  1  0
  6 17  1  0
  6 18  1  0
  7 21  1  0
  7 22  1  0
  8 10  1  0
  8 19  1  0
  8 20  1  0
  9 23  1  0
  9 24  1  0
  9 25  1  0
 10 26  1  0
 10 27  1  0
 10 28  1  0
 11 29  1  0
 11 30  1  0
 12 31  1  0
M  RAD  1  12   2
M  END
>  <reaction>  (17) 
rmg_rxn_269

>  <mol_properties>  (17) 
{"1": {"label": "*1", "atom_type": "Cs"}, "2": {"label": "*0", "atom_type": "O2s"}, "8": {"label": "*2", "atom_type": "H0"}, "14": {"label": "*3", "atom_type": "Cs"}, "15": {"label": "*4", "atom_type": "Cs"}}

>  <type>  (17) 
unop_13

>  <geom_source>  (17) 
AutoTST

$$$$

     RDKit          3D

 31 30  0  0  0  0  0  0  0  0999 V2000
    0.5595    1.9113   -1.7486 C   0  0  0  0  0  0  0  0  0  0  0  0
    0.5595    1.9113   -0.2265 C   0  0  0  0  0  0  0  0  0  0  0  0
   -0.4888    2.7239    0.2656 O   0  0  0  0  0  0  0  0  0  0  0  0
   -0.3979    4.0234   -0.2338 C   0  0  0  0  0  0  0  0  0  0  0  0
   -0.4888    4.0796   -1.6248 O   0  0  0  0  0  0  0  0  0  0  0  0
    0.5595    3.3529   -2.2367 C   0  0  0  0  0  0  0  0  0  0  0  0
    1.4335    1.3788   -2.1304 H   0  0  0  0  0  0  0  0  0  0  0  0
   -0.3371    1.4051   -2.1116 H   0  0  0  0  0  0  0  0  0  0  0  0
    0.3688    0.7142    0.2623 H   0  0  0  0  0  0  0  0  0  0  0  0
    1.5231    2.2872    0.1502 H   0  0  0  0  0  0  0  0  0  0  0  0
    0.5575    4.4755    0.0905 H   0  0  0  0  0  0  0  0  0  0  0  0
   -1.2389    4.5839    0.1682 H   0  0  0  0  0  0  0  0  0  0  0  0
    1.5231    3.8303   -2.0014 H   0  0  0  0  0  0  0  0  0  0  0  0
    0.4006    3.4188   -3.3121 H   0  0  0  0  0  0  0  0  0  0  0  0
    0.1777   -0.4848    0.7519 C   0  0  0  0  0  3  0  0  0  0  0  0
    0.7269   -1.5531   -0.1843 C   0  0  0  0  0  0  0  0  0  0  0  0
    0.9393   -2.8896    0.4967 C   0  0  0  0  0  0  0  0  0  0  0  0
   -0.2977   -3.3889    0.9387 O   0  0  0  0  0  0  0  0  0  0  0  0
   -0.1925   -4.6147    1.6169 C   0  0  0  0  0  0  0  0  0  0  0  0
   -1.5717   -5.0578    2.0469 C   0  0  0  0  0  0  0  0  0  0  0  0
   -0.7857   -0.7885    1.1614 H   0  0  0  0  0  0  0  0  0  0  0  0
    0.8591   -0.3125    1.5888 H   0  0  0  0  0  0  0  0  0  0  0  0
    1.6857   -1.2317   -0.6006 H   0  0  0  0  0  0  0  0  0  0  0  0
    0.0476   -1.6976   -1.0283 H   0  0  0  0  0  0  0  0  0  0  0  0
    1.6238   -2.7735    1.3519 H   0  0  0  0  0  0  0  0  0  0  0  0
    1.4044   -3.6027   -0.1997 H   0  0  0  0  0  0  0  0  0  0  0  0
    0.2662   -5.3687    0.9601 H   0  0  0  0  0  0  0  0  0  0  0  0
    0.4658   -4.5038    2.4913 H   0  0  0  0  0  0  0  0  0  0  0  0
   -2.2211   -5.1814    1.1796 H   0  0  0  0  0  0  0  0  0  0  0  0
   -1.5148   -6.0102    2.5764 H   0  0  0  0  0  0  0  0  0  0  0  0
   -2.0210   -4.3183    2.7106 H   0  0  0  0  0  0  0  0  0  0  0  0
  1  2  1  0
  1  6  1  0
  1  7  1  0
  1  8  1  0
  2  3  1  0
  2  9  1  0
  2 10  1  0
  3  4  1  0
  4  5  1  0
  4 11  1  0
  4 12  1  0
  5  6  1  0
  6 13  1  0
  6 14  1  0
 15 16  1  0
 15 21  1  0
 15 22  1  0
 16 17  1  0
 16 23  1  0
 16 24  1  0
 17 18  1  0
 17 25  1  0
 17 26  1  0
 18 19  1  0
 19 20  1  0
 19 27  1  0
 19 28  1  0
 20 29  1  0
 20 30  1  0
 20 31  1  0
M  RAD  1  15   2
M  END
>  <reaction>  (18) 
rmg_rxn_269

>  <mol_properties>  (18) 
{"1": {"label": "*1", "atom_type": "Cs"}, "2": {"label": "*0", "atom_type": "O2s"}, "8": {"label": "*2", "atom_type": "H0"}, "14": {"label": "*3", "atom_type": "Cs"}, "15": {"label": "*4", "atom_type": "Cs"}}

>  <type>  (18) 
unop_14

>  <geom_source>  (18) 
gaussian_log

$$$$
