
     RDKit          3D

  9  8  0  0  0  0  0  0  0  0999 V2000
   -1.0314    0.2323   -0.1227 C   0  0  0  0  0  0  0  0  0  0  0  0
    0.3094   -0.4511    0.0063 C   0  0  0  0  0  0  0  0  0  0  0  0
    0.3197   -1.7698    0.6841 N   0  0  0  0  0  0  0  0  0  0  0  0
   -0.7498   -2.1455    1.0557 O   0  0  0  0  0  0  0  0  0  0  0  0
   -1.4744    0.4198    0.8552 H   0  0  0  0  0  0  0  0  0  0  0  0
   -0.9073    1.1865   -0.6350 H   0  0  0  0  0  0  0  0  0  0  0  0
   -1.7319   -0.3778   -0.6927 H   0  0  0  0  0  0  0  0  0  0  0  0
    1.0375    0.1401    0.5713 H   0  0  0  0  0  0  0  0  0  0  0  0
    0.7826   -0.6494   -0.9609 H   0  0  0  0  0  0  0  0  0  0  0  0
  1  2  1  0
  1  5  1  0
  1  6  1  0
  1  7  1  0
  2  3  1  0
  2  8  1  0
  2  9  1  0
  3  4  2  0
M  END
>  <reaction>  (1) 
rmg_rxn_41

>  <mol_properties>  (1) 
{"1": {"label": "donator", "atom_type": "Cs"}, "7": {"label": "d_hydrogen", "atom_type": "H0"}}

>  <type>  (1) 
r1h

$$$$

     RDKit          3D

 13 13  0  0  0  0  0  0  0  0999 V2000
    0.5794    1.5990    0.2108 C   0  0  0  0  0  3  0  0  0  0  0  0
    1.4528    0.6621   -0.2496 O   0  0  0  0  0  0  0  0  0  0  0  0
    1.0751   -0.6763    0.0423 C   0  0  0  0  0  0  0  0  0  0  0  0
   -0.3579   -0.9282   -0.3924 C   0  0  0  0  0  0  0  0  0  0  0  0
   -1.2426    0.1393    0.2269 C   0  0  0  0  0  0  0  0  0  0  0  0
   -0.7410    1.4341   -0.0749 O   0  0  0  0  0  0  0  0  0  0  0  0
    0.9183    2.6078    0.0084 H   0  0  0  0  0  0  0  0  0  0  0  0
    1.1839   -0.8508    1.1199 H   0  0  0  0  0  0  0  0  0  0  0  0
    1.7816   -1.3130   -0.4874 H   0  0  0  0  0  0  0  0  0  0  0  0
   -0.6818   -1.9210   -0.0736 H   0  0  0  0  0  0  0  0  0  0  0  0
   -0.4271   -0.8785   -1.4810 H   0  0  0  0  0  0  0  0  0  0  0  0
   -1.2832    0.0173    1.3164 H   0  0  0  0  0  0  0  0  0  0  0  0
   -2.2575    0.1083   -0.1657 H   0  0  0  0  0  0  0  0  0  0  0  0
  1  2  1  0
  1  6  1  0
  1  7  1  0
  2  3  1  0
  3  4  1  0
  3  8  1  0
  3  9  1  0
  4  5  1  0
  4 10  1  0
  4 11  1  0
  5  6  1  0
  5 12  1  0
  5 13  1  0
M  RAD  1   1   2
M  END
>  <reaction>  (2) 
rmg_rxn_41

>  <mol_properties>  (2) 
{"0": {"label": "acceptor", "atom_type": "Cs"}}

>  <type>  (2) 
r2

$$$$

     RDKit          3D

 14 14  0  0  0  0  0  0  0  0999 V2000
   -1.1778    0.2241    0.1818 C   0  0  0  0  0  0  0  0  0  0  0  0
   -0.5633   -1.1636    0.0678 C   0  0  0  0  0  0  0  0  0  0  0  0
    0.6943   -1.1996    0.7146 O   0  0  0  0  0  0  0  0  0  0  0  0
    1.5547   -0.2288    0.2011 C   0  0  0  0  0  0  0  0  0  0  0  0
    1.0729    1.0696    0.3698 O   0  0  0  0  0  0  0  0  0  0  0  0
   -0.1607    1.2493   -0.2989 C   0  0  0  0  0  0  0  0  0  0  0  0
   -2.0927    0.2866   -0.4117 H   0  0  0  0  0  0  0  0  0  0  0  0
   -1.4303    0.4248    1.2248 H   0  0  0  0  0  0  0  0  0  0  0  0
   -1.1822   -1.9235    0.5431 H   0  0  0  0  0  0  0  0  0  0  0  0
   -0.4389   -1.4347   -0.9919 H   0  0  0  0  0  0  0  0  0  0  0  0
    1.7250   -0.4207   -0.8742 H   0  0  0  0  0  0  0  0  0  0  0  0
    2.4896   -0.3010    0.7524 H   0  0  0  0  0  0  0  0  0  0  0  0
   -0.0080    1.1481   -1.3844 H   0  0  0  0  0  0  0  0  0  0  0  0
   -0.4826    2.2695   -0.0942 H   0  0  0  0  0  0  0  0  0  0  0  0
  1  2  1  0
  1  6  1  0
  1  7  1  0
  1  8  1  0
  2  3  1  0
  2  9  1  0
  2 10  1  0
  3  4  1  0
  4  5  1  0
  4 11  1  0
  4 12  1  0
  5  6  1  0
  6 13  1  0
  6 14  1  0
M  END
>  <reaction>  (3) 
rmg_rxn_41

>  <mol_properties>  (3) 
{"0": {"label": "a_hydrogen", "atom_type": "H0"}, "1": {"label": "acceptor", "atom_type": "Cs"}}

>  <type>  (3) 
r2h

$$$$

     RDKit          3D

 22 21  0  0  0  0  0  0  0  0999 V2000
   -1.8946    0.1061   -1.7554 C   0  0  0  0  0  0  0  0  0  0  0  0
   -1.3108    0.7758   -0.5377 C   0  0  0  0  0  0  0  0  0  0  0  0
   -0.2554    1.6883   -0.6895 N   0  0  0  0  0  0  0  0  0  0  0  0
    0.4040    1.5535   -1.7186 O   0  0  0  0  0  0  0  0  0  0  0  0
   -1.1234   -0.4167   -2.3189 H   0  0  0  0  0  0  0  0  0  0  0  0
   -2.6628   -0.6082   -1.4576 H   0  0  0  0  0  0  0  0  0  0  0  0
   -2.3491    0.8450   -2.4182 H   0  0  0  0  0  0  0  0  0  0  0  0
   -0.7908   -0.1964    0.1310 H   0  0  0  0  0  0  0  0  0  0  0  0
   -2.0216    1.1562    0.1944 H   0  0  0  0  0  0  0  0  0  0  0  0
   -0.3366   -1.4518    0.6708 C   0  0  0  0  0  3  0  0  0  0  0  0
    0.5180   -1.9655   -0.2364 O   0  0  0  0  0  0  0  0  0  0  0  0
    1.7057   -1.1895   -0.4833 C   0  0  0  0  0  0  0  0  0  0  0  0
    2.0447   -0.3046    0.7088 C   0  0  0  0  0  0  0  0  0  0  0  0
    1.5561   -0.9760    1.9761 C   0  0  0  0  0  0  0  0  0  0  0  0
    0.1450   -1.1893    1.9126 O   0  0  0  0  0  0  0  0  0  0  0  0
   -1.2631   -2.0201    0.7153 H   0  0  0  0  0  0  0  0  0  0  0  0
    2.4867   -1.9256   -0.6709 H   0  0  0  0  0  0  0  0  0  0  0  0
    1.5425   -0.5948   -1.3848 H   0  0  0  0  0  0  0  0  0  0  0  0
    3.1213   -0.1405    0.7586 H   0  0  0  0  0  0  0  0  0  0  0  0
    1.5683    0.6726    0.6137 H   0  0  0  0  0  0  0  0  0  0  0  0
    1.7275   -0.3618    2.8576 H   0  0  0  0  0  0  0  0  0  0  0  0
    2.0466   -1.9443    2.1211 H   0  0  0  0  0  0  0  0  0  0  0  0
  1  2  1  0
  1  5  1  0
  1  6  1  0
  1  7  1  0
  2  3  1  0
  2  8  1  0
  2  9  1  0
  3  4  2  0
 10 11  1  0
 10 15  1  0
 10 16  1  0
 11 12  1  0
 12 13  1  0
 12 17  1  0
 12 18  1  0
 13 14  1  0
 13 19  1  0
 13 20  1  0
 14 15  1  0
 14 21  1  0
 14 22  1  0
M  RAD  1  10   2
M  END
>  <reaction>  (4) 
rmg_rxn_41

>  <mol_properties>  (4) 
{"1": {"label": "*1", "atom_type": "Cs"}, "2": {"label": "*0", "atom_type": "N3d"}, "7": {"label": "*2", "atom_type": "H0"}, "9": {"label": "*3", "atom_type": "Cs"}, "10": {"label": "*4", "atom_type": "O2s"}}

>  <type>  (4) 
ts

$$$$

     RDKit          3D

 22 21  0  0  0  0  0  0  0  0999 V2000
   -1.2528    0.4353   -2.8122 C   0  0  0  0  0  0  0  0  0  0  0  0
   -1.2528    0.4353   -1.3018 C   0  0  0  0  0  0  0  0  0  0  0  0
   -1.2528    1.7613   -0.6382 N   0  0  0  0  0  0  0  0  0  0  0  0
   -1.2528    2.6908   -1.3859 O   0  0  0  0  0  1  0  0  0  0  0  0
   -0.3727    0.9427   -3.2067 H   0  0  0  0  0  0  0  0  0  0  0  0
   -1.2528   -0.5918   -3.1775 H   0  0  0  0  0  0  0  0  0  0  0  0
   -2.1330    0.9427   -3.2067 H   0  0  0  0  0  0  0  0  0  0  0  0
   -0.2074   -0.1735   -0.7892 H   0  0  0  0  0  0  0  0  0  0  0  0
   -2.1240   -0.0720   -0.8746 H   0  0  0  0  0  0  0  0  0  0  0  0
    0.8312   -0.7782   -0.2799 C   0  0  0  0  0  0  0  0  0  0  0  0
    1.5172    0.1572    0.4951 O   0  0  0  0  0  0  0  0  0  0  0  0
    2.0098   -0.4265    1.6860 C   0  0  0  0  0  0  0  0  0  0  0  0
    0.8725   -1.0589    2.4754 C   0  0  0  0  0  0  0  0  0  0  0  0
    0.0999   -1.9931    1.5551 C   0  0  0  0  0  0  0  0  0  0  0  0
   -0.2788   -1.3161    0.3720 O   0  0  0  0  0  0  0  0  0  0  0  0
    1.5201   -1.5941   -0.5662 H   0  0  0  0  0  0  0  0  0  0  0  0
    2.7644   -1.1882    1.4367 H   0  0  0  0  0  0  0  0  0  0  0  0
    2.5007    0.3689    2.2452 H   0  0  0  0  0  0  0  0  0  0  0  0
    1.2633   -1.6072    3.3355 H   0  0  0  0  0  0  0  0  0  0  0  0
    0.2052   -0.2760    2.8412 H   0  0  0  0  0  0  0  0  0  0  0  0
   -0.8179   -2.3534    2.0176 H   0  0  0  0  0  0  0  0  0  0  0  0
    0.7202   -2.8650    1.2965 H   0  0  0  0  0  0  0  0  0  0  0  0
  1  2  1  0
  1  5  1  0
  1  6  1  0
  1  7  1  0
  2  3  2  3
  2  9  1  0
  3  4  1  0
  8 10  1  0
 10 11  1  0
 10 15  1  0
 10 16  1  0
 11 12  1  0
 12 13  1  0
 12 17  1  0
 12 18  1  0
 13 14  1  0
 13 19  1  0
 13 20  1  0
 14 15  1  0
 14 21  1  0
 14 22  1  0
M  RAD  1   4   2
M  END
>  <reaction>  (5) 
rmg_rxn_41

>  <mol_properties>  (5) 
{"1": {"label": "*1", "atom_type": "Cs"}, "2": {"label": "*0", "atom_type": "N3d"}, "7": {"label": "*2", "atom_type": "H0"}, "9": {"label": "*3", "atom_type": "Cs"}, "10": {"label": "*4", "atom_type": "O2s"}}

>  <type>  (5) 
unop_1

>  <geom_source>  (5) 
Heuristics

$$$$

     RDKit          3D

 22 21  0  0  0  0  0  0  0  0999 V2000
   -1.9532    0.1036   -2.2820 C   0  0  0  0  0  0  0  0  0  0  0  0
   -1.9532    0.1036   -0.7715 C   0  0  0  0  0  0  0  0  0  0  0  0
   -1.9532    1.4296   -0.1079 N   0  0  0  0  0  0  0  0  0  0  0  0
   -1.9532    2.3592   -0.8556 O   0  0  0  0  0  1  0  0  0  0  0  0
   -1.0731    0.6110   -2.6764 H   0  0  0  0  0  0  0  0  0  0  0  0
   -1.9532   -0.9235   -2.6472 H   0  0  0  0  0  0  0  0  0  0  0  0
   -2.8333    0.6110   -2.6764 H   0  0  0  0  0  0  0  0  0  0  0  0
   -0.9078   -0.5051   -0.2589 H   0  0  0  0  0  0  0  0  0  0  0  0
   -2.8244   -0.4037   -0.3443 H   0  0  0  0  0  0  0  0  0  0  0  0
    0.1308   -1.1099    0.2503 C   0  0  0  0  0  0  0  0  0  0  0  0
    1.1849   -0.9531   -0.6500 O   0  0  0  0  0  0  0  0  0  0  0  0
    2.4331   -1.1719   -0.0209 C   0  0  0  0  0  0  0  0  0  0  0  0
    2.5940   -0.2425    1.1736 C   0  0  0  0  0  0  0  0  0  0  0  0
    1.3717   -0.3829    2.0695 C   0  0  0  0  0  0  0  0  0  0  0  0
    0.1868   -0.2111    1.3159 O   0  0  0  0  0  0  0  0  0  0  0  0
    0.1326   -2.1439    0.6415 H   0  0  0  0  0  0  0  0  0  0  0  0
    2.5003   -2.2209    0.3061 H   0  0  0  0  0  0  0  0  0  0  0  0
    3.1990   -1.0010   -0.7761 H   0  0  0  0  0  0  0  0  0  0  0  0
    3.5035   -0.4864    1.7274 H   0  0  0  0  0  0  0  0  0  0  0  0
    2.6709    0.7887    0.8235 H   0  0  0  0  0  0  0  0  0  0  0  0
    1.3547    0.3699    2.8564 H   0  0  0  0  0  0  0  0  0  0  0  0
    1.3643   -1.3764    2.5437 H   0  0  0  0  0  0  0  0  0  0  0  0
  1  2  1  0
  1  5  1  0
  1  6  1  0
  1  7  1  0
  2  3  2  3
  2  9  1  0
  3  4  1  0
  8 10  1  0
 10 11  1  0
 10 15  1  0
 10 16  1  0
 11 12  1  0
 12 13  1  0
 12 17  1  0
 12 18  1  0
 13 14  1  0
 13 19  1  0
 13 20  1  0
 14 15  1  0
 14 21  1  0
 14 22  1  0
M  RAD  1   4   2
M  END
>  <reaction>  (6) 
rmg_rxn_41

>  <mol_properties>  (6) 
{"1": {"label": "*1", "atom_type": "Cs"}, "2": {"label": "*0", "atom_type": "N3d"}, "7": {"label": "*2", "atom_type": "H0"}, "9": {"label": "*3", "atom_type": "Cs"}, "10": {"label": "*4", "atom_type": "O2s"}}

>  <type>  (6) 
unop_2

>  <geom_source>  (6) 
Heuristics

$$$$

     RDKit          3D

 22 21  0  0  0  0  0  0  0  0999 V2000
   -1.2536    0.7979   -2.6834 C   0  0  0  0  0  0  0  0  0  0  0  0
   -1.2536    0.7979   -1.1729 C   0  0  0  0  0  0  0  0  0  0  0  0
   -1.2536    2.1238   -0.5093 N   0  0  0  0  0  0  0  0  0  0  0  0
   -1.2536    3.0534   -1.2570 O   0  0  0  0  0  1  0  0  0  0  0  0
   -0.3735    1.3052   -3.0779 H   0  0  0  0  0  0  0  0  0  0  0  0
   -1.2536   -0.2293   -3.0487 H   0  0  0  0  0  0  0  0  0  0  0  0
   -2.1338    1.3052   -3.0779 H   0  0  0  0  0  0  0  0  0  0  0  0
   -0.2082    0.1891   -0.6603 H   0  0  0  0  0  0  0  0  0  0  0  0
   -2.1248    0.2905   -0.7457 H   0  0  0  0  0  0  0  0  0  0  0  0
    0.8304   -0.4157   -0.1511 C   0  0  0  0  0  0  0  0  0  0  0  0
    1.1067    0.1941    1.0729 O   0  0  0  0  0  0  0  0  0  0  0  0
    1.7360   -0.7068    1.9638 C   0  0  0  0  0  0  0  0  0  0  0  0
    0.8771   -1.9486    2.1555 C   0  0  0  0  0  0  0  0  0  0  0  0
    0.5246   -2.5143    0.7872 C   0  0  0  0  0  0  0  0  0  0  0  0
   -0.0325   -1.5057   -0.0336 O   0  0  0  0  0  0  0  0  0  0  0  0
    1.7762   -0.7448   -0.6193 H   0  0  0  0  0  0  0  0  0  0  0  0
    2.7224   -0.9889    1.5646 H   0  0  0  0  0  0  0  0  0  0  0  0
    1.8883   -0.1686    2.8984 H   0  0  0  0  0  0  0  0  0  0  0  0
    1.4101   -2.6934    2.7509 H   0  0  0  0  0  0  0  0  0  0  0  0
   -0.0393   -1.6782    2.6836 H   0  0  0  0  0  0  0  0  0  0  0  0
   -0.2167   -3.3094    0.8537 H   0  0  0  0  0  0  0  0  0  0  0  0
    1.4258   -2.9236    0.3052 H   0  0  0  0  0  0  0  0  0  0  0  0
  1  2  1  0
  1  5  1  0
  1  6  1  0
  1  7  1  0
  2  3  2  3
  2  9  1  0
  3  4  1  0
  8 10  1  0
 10 11  1  0
 10 15  1  0
 10 16  1  0
 11 12  1  0
 12 13  1  0
 12 17  1  0
 12 18  1  0
 13 14  1  0
 13 19  1  0
 13 20  1  0
 14 15  1  0
 14 21  1  0
 14 22  1  0
M  RAD  1   4   2
M  END
>  <reaction>  (7) 
rmg_rxn_41

>  <mol_properties>  (7) 
{"1": {"label": "*1", "atom_type": "Cs"}, "2": {"label": "*0", "atom_type": "N3d"}, "7": {"label": "*2", "atom_type": "H0"}, "9": {"label": "*3", "atom_type": "Cs"}, "10": {"label": "*4", "atom_type": "O2s"}}

>  <type>  (7) 
unop_3

>  <geom_source>  (7) 
Heuristics

$$$$

     RDKit          3D

 22 21  0  0  0  0  0  0  0  0999 V2000
   -1.8121    0.8656   -2.2537 C   0  0  0  0  0  0  0  0  0  0  0  0
   -1.8121    0.8656   -0.7433 C   0  0  0  0  0  0  0  0  0  0  0  0
   -1.8121    2.1915   -0.0797 N   0  0  0  0  0  0  0  0  0  0  0  0
   -1.8121    3.1211   -0.8274 O   0  0  0  0  0  1  0  0  0  0  0  0
   -0.9320    1.3729   -2.6482 H   0  0  0  0  0  0  0  0  0  0  0  0
   -1.8121   -0.1616   -2.6190 H   0  0  0  0  0  0  0  0  0  0  0  0
   -2.6923    1.3729   -2.6482 H   0  0  0  0  0  0  0  0  0  0  0  0
   -0.7667    0.2568   -0.2307 H   0  0  0  0  0  0  0  0  0  0  0  0
   -2.6833    0.3582   -0.3161 H   0  0  0  0  0  0  0  0  0  0  0  0
    0.2719   -0.3480    0.2786 C   0  0  0  0  0  0  0  0  0  0  0  0
    0.2460   -1.6679   -0.1728 O   0  0  0  0  0  0  0  0  0  0  0  0
    0.8193   -2.5457    0.7770 C   0  0  0  0  0  0  0  0  0  0  0  0
    2.2397   -2.1115    1.1095 C   0  0  0  0  0  0  0  0  0  0  0  0
    2.2217   -0.6404    1.4995 C   0  0  0  0  0  0  0  0  0  0  0  0
    1.5648    0.1239    0.5066 O   0  0  0  0  0  0  0  0  0  0  0  0
   -0.3184   -0.2667    1.2097 H   0  0  0  0  0  0  0  0  0  0  0  0
    0.2038   -2.5517    1.6896 H   0  0  0  0  0  0  0  0  0  0  0  0
    0.7900   -3.5429    0.3400 H   0  0  0  0  0  0  0  0  0  0  0  0
    2.6435   -2.7175    1.9237 H   0  0  0  0  0  0  0  0  0  0  0  0
    2.8754   -2.2468    0.2324 H   0  0  0  0  0  0  0  0  0  0  0  0
    3.2268   -0.2321    1.5955 H   0  0  0  0  0  0  0  0  0  0  0  0
    1.7048   -0.5123    2.4630 H   0  0  0  0  0  0  0  0  0  0  0  0
  1  2  1  0
  1  5  1  0
  1  6  1  0
  1  7  1  0
  2  3  2  3
  2  9  1  0
  3  4  1  0
  8 10  1  0
 10 11  1  0
 10 15  1  0
 10 16  1  0
 11 12  1  0
 12 13  1  0
 12 17  1  0
 12 18  1  0
 13 14  1  0
 13 19  1  0
 13 20  1  0
 14 15  1  0
 14 21  1  0
 14 22  1  0
M  RAD  1   4   2
M  END
>  <reaction>  (8) 
rmg_rxn_41

>  <mol_properties>  (8) 
{"1": {"label": "*1", "atom_type": "Cs"}, "2": {"label": "*0", "atom_type": "N3d"}, "7": {"label": "*2", "atom_type": "H0"}, "9": {"label": "*3", "atom_type": "Cs"}, "10": {"label": "*4", "atom_type": "O2s"}}

>  <type>  (8) 
unop_4

>  <geom_source>  (8) 
Heuristics

$$$$

     RDKit          3D

 22 21  0  0  0  0  0  0  0  0999 V2000
   -1.5440    0.9439   -2.4680 C   0  0  0  0  0  0  0  0  0  0  0  0
   -1.5440    0.9439   -0.9575 C   0  0  0  0  0  0  0  0  0  0  0  0
   -1.5440    2.2699   -0.2940 N   0  0  0  0  0  0  0  0  0  0  0  0
   -1.5440    3.1994   -1.0417 O   0  0  0  0  0  1  0  0  0  0  0  0
   -0.6639    1.4513   -2.8625 H   0  0  0  0  0  0  0  0  0  0  0  0
   -1.5440   -0.0832   -2.8333 H   0  0  0  0  0  0  0  0  0  0  0  0
   -2.4241    1.4513   -2.8625 H   0  0  0  0  0  0  0  0  0  0  0  0
   -0.4986    0.3351   -0.4450 H   0  0  0  0  0  0  0  0  0  0  0  0
   -2.4152    0.4366   -0.5304 H   0  0  0  0  0  0  0  0  0  0  0  0
    0.5400   -0.2696    0.0643 C   0  0  0  0  0  0  0  0  0  0  0  0
    0.4210   -0.2003    1.4526 O   0  0  0  0  0  0  0  0  0  0  0  0
    1.4994   -0.8551    2.0927 C   0  0  0  0  0  0  0  0  0  0  0  0
    1.5937   -2.3006    1.6255 C   0  0  0  0  0  0  0  0  0  0  0  0
    1.6209   -2.3209    0.1039 C   0  0  0  0  0  0  0  0  0  0  0  0
    0.5353   -1.5789   -0.4177 O   0  0  0  0  0  0  0  0  0  0  0  0
    1.4725    0.2341   -0.2501 H   0  0  0  0  0  0  0  0  0  0  0  0
    2.4371   -0.3243    1.8671 H   0  0  0  0  0  0  0  0  0  0  0  0
    1.3176   -0.7843    3.1643 H   0  0  0  0  0  0  0  0  0  0  0  0
    2.4907   -2.7749    2.0299 H   0  0  0  0  0  0  0  0  0  0  0  0
    0.7223   -2.8543    1.9804 H   0  0  0  0  0  0  0  0  0  0  0  0
    1.5288   -3.3315   -0.2917 H   0  0  0  0  0  0  0  0  0  0  0  0
    2.5672   -1.8933   -0.2617 H   0  0  0  0  0  0  0  0  0  0  0  0
  1  2  1  0
  1  5  1  0
  1  6  1  0
  1  7  1  0
  2  3  2  3
  2  9  1  0
  3  4  1  0
  8 10  1  0
 10 11  1  0
 10 15  1  0
 10 16  1  0
 11 12  1  0
 12 13  1  0
 12 17  1  0
 12 18  1  0
 13 14  1  0
 13 19  1  0
 13 20  1  0
 14 15  1  0
 14 21  1  0
 14 22  1  0
M  RAD  1   4   2
M  END
>  <reaction>  (9) 
rmg_rxn_41

>  <mol_properties>  (9) 
{"1": {"label": "*1", "atom_type": "Cs"}, "2": {"label": "*0", "atom_type": "N3d"}, "7": {"label": "*2", "atom_type": "H0"}, "9": {"label": "*3", "atom_type": "Cs"}, "10": {"label": "*4", "atom_type": "O2s"}}

>  <type>  (9) 
unop_5

>  <geom_source>  (9) 
Heuristics

$$$$

     RDKit          3D

 22 21  0  0  0  0  0  0  0  0999 V2000
   -1.7406    0.8451   -2.4078 C   0  0  0  0  0  0  0  0  0  0  0  0
   -1.7406    0.8451   -0.8973 C   0  0  0  0  0  0  0  0  0  0  0  0
   -1.7406    2.1710   -0.2338 N   0  0  0  0  0  0  0  0  0  0  0  0
   -1.7406    3.1006   -0.9815 O   0  0  0  0  0  1  0  0  0  0  0  0
   -0.8605    1.3524   -2.8023 H   0  0  0  0  0  0  0  0  0  0  0  0
   -1.7406   -0.1821   -2.7731 H   0  0  0  0  0  0  0  0  0  0  0  0
   -2.6207    1.3524   -2.8023 H   0  0  0  0  0  0  0  0  0  0  0  0
   -0.6952    0.2363   -0.3848 H   0  0  0  0  0  0  0  0  0  0  0  0
   -2.6118    0.3377   -0.4702 H   0  0  0  0  0  0  0  0  0  0  0  0
    0.3434   -0.3685    0.1245 C   0  0  0  0  0  0  0  0  0  0  0  0
    0.0032   -1.7118    0.2863 O   0  0  0  0  0  0  0  0  0  0  0  0
    0.5543   -2.2402    1.4773 C   0  0  0  0  0  0  0  0  0  0  0  0
    2.0651   -2.0557    1.4890 C   0  0  0  0  0  0  0  0  0  0  0  0
    2.3803   -0.5930    1.2100 C   0  0  0  0  0  0  0  0  0  0  0  0
    1.7204   -0.1628    0.0350 O   0  0  0  0  0  0  0  0  0  0  0  0
   -0.0613    0.2174    0.9701 H   0  0  0  0  0  0  0  0  0  0  0  0
    0.1061   -1.7332    2.3456 H   0  0  0  0  0  0  0  0  0  0  0  0
    0.2720   -3.2915    1.5139 H   0  0  0  0  0  0  0  0  0  0  0  0
    2.4793   -2.3584    2.4533 H   0  0  0  0  0  0  0  0  0  0  0  0
    2.5128   -2.6781    0.7118 H   0  0  0  0  0  0  0  0  0  0  0  0
    3.4450   -0.4292    1.0495 H   0  0  0  0  0  0  0  0  0  0  0  0
    2.0606    0.0299    2.0595 H   0  0  0  0  0  0  0  0  0  0  0  0
  1  2  1  0
  1  5  1  0
  1  6  1  0
  1  7  1  0
  2  3  2  3
  2  9  1  0
  3  4  1  0
  8 10  1  0
 10 11  1  0
 10 15  1  0
 10 16  1  0
 11 12  1  0
 12 13  1  0
 12 17  1  0
 12 18  1  0
 13 14  1  0
 13 19  1  0
 13 20  1  0
 14 15  1  0
 14 21  1  0
 14 22  1  0
M  RAD  1   4   2
M  END
>  <reaction>  (10) 
rmg_rxn_41

>  <mol_properties>  (10) 
{"1": {"label": "*1", "atom_type": "Cs"}, "2": {"label": "*0", "atom_type": "N3d"}, "7": {"label": "*2", "atom_type": "H0"}, "9": {"label": "*3", "atom_type": "Cs"}, "10": {"label": "*4", "atom_type": "O2s"}}

>  <type>  (10) 
unop_6

>  <geom_source>  (10) 
Heuristics

$$$$

     RDKit          3D

 22 21  0  0  0  0  0  0  0  0999 V2000
   -1.7528    0.7729   -2.4706 C   0  0  0  0  0  0  0  0  0  0  0  0
   -1.7528    0.7729   -0.9601 C   0  0  0  0  0  0  0  0  0  0  0  0
   -1.7528    2.0988   -0.2965 N   0  0  0  0  0  0  0  0  0  0  0  0
   -1.7528    3.0284   -1.0442 O   0  0  0  0  0  1  0  0  0  0  0  0
   -0.8727    1.2802   -2.8651 H   0  0  0  0  0  0  0  0  0  0  0  0
   -1.7528   -0.2543   -2.8359 H   0  0  0  0  0  0  0  0  0  0  0  0
   -2.6329    1.2802   -2.8651 H   0  0  0  0  0  0  0  0  0  0  0  0
   -0.7074    0.1641   -0.4475 H   0  0  0  0  0  0  0  0  0  0  0  0
   -2.6240    0.2656   -0.5329 H   0  0  0  0  0  0  0  0  0  0  0  0
    0.3312   -0.4407    0.0617 C   0  0  0  0  0  0  0  0  0  0  0  0
   -0.1437   -1.4990    0.8368 O   0  0  0  0  0  0  0  0  0  0  0  0
    0.6353   -1.6683    2.0055 C   0  0  0  0  0  0  0  0  0  0  0  0
    2.0987   -1.8739    1.6411 C   0  0  0  0  0  0  0  0  0  0  0  0
    2.5347   -0.7458    0.7170 C   0  0  0  0  0  0  0  0  0  0  0  0
    1.6425   -0.6314   -0.3749 O   0  0  0  0  0  0  0  0  0  0  0  0
    0.2707    0.4971    0.6440 H   0  0  0  0  0  0  0  0  0  0  0  0
    0.5283   -0.7820    2.6495 H   0  0  0  0  0  0  0  0  0  0  0  0
    0.2232   -2.5260    2.5355 H   0  0  0  0  0  0  0  0  0  0  0  0
    2.7175   -1.8911    2.5411 H   0  0  0  0  0  0  0  0  0  0  0  0
    2.2139   -2.8297    1.1265 H   0  0  0  0  0  0  0  0  0  0  0  0
    3.5237   -0.9229    0.2966 H   0  0  0  0  0  0  0  0  0  0  0  0
    2.5614    0.2055    1.2704 H   0  0  0  0  0  0  0  0  0  0  0  0
  1  2  1  0
  1  5  1  0
  1  6  1  0
  1  7  1  0
  2  3  2  3
  2  9  1  0
  3  4  1  0
  8 10  1  0
 10 11  1  0
 10 15  1  0
 10 16  1  0
 11 12  1  0
 12 13  1  0
 12 17  1  0
 12 18  1  0
 13 14  1  0
 13 19  1  0
 13 20  1  0
 14 15  1  0
 14 21  1  0
 14 22  1  0
M  RAD  1   4   2
M  END
>  <reaction>  (11) 
rmg_rxn_41

>  <mol_properties>  (11) 
{"1": {"label": "*1", "atom_type": "Cs"}, "2": {"label": "*0", "atom_type": "N3d"}, "7": {"label": "*2", "atom_type": "H0"}, "9": {"label": "*3", "atom_type": "Cs"}, "10": {"label": "*4", "atom_type": "O2s"}}

>  <type>  (11) 
unop_7

>  <geom_source>  (11) 
Heuristics

$$$$

     RDKit          3D

 22 21  0  0  0  0  0  0  0  0999 V2000
   -1.4543    0.1282   -2.7530 C   0  0  0  0  0  0  0  0  0  0  0  0
   -1.4543    0.1282   -1.2425 C   0  0  0  0  0  0  0  0  0  0  0  0
   -1.4543    1.4542   -0.5790 N   0  0  0  0  0  0  0  0  0  0  0  0
   -1.4543    2.3837   -1.3267 O   0  0  0  0  0  1  0  0  0  0  0  0
   -0.5742    0.6356   -3.1475 H   0  0  0  0  0  0  0  0  0  0  0  0
   -1.4543   -0.8989   -3.1183 H   0  0  0  0  0  0  0  0  0  0  0  0
   -2.3344    0.6356   -3.1475 H   0  0  0  0  0  0  0  0  0  0  0  0
   -0.4089   -0.4806   -0.7300 H   0  0  0  0  0  0  0  0  0  0  0  0
   -2.3255   -0.3791   -0.8154 H   0  0  0  0  0  0  0  0  0  0  0  0
    0.6297   -1.0854   -0.2207 C   0  0  0  0  0  0  0  0  0  0  0  0
    1.6301   -0.1265   -0.0589 O   0  0  0  0  0  0  0  0  0  0  0  0
    2.3318   -0.3177    1.1545 C   0  0  0  0  0  0  0  0  0  0  0  0
    1.3674   -0.3028    2.3319 C   0  0  0  0  0  0  0  0  0  0  0  0
    0.2458   -1.2943    2.0567 C   0  0  0  0  0  0  0  0  0  0  0  0
   -0.3316   -1.0449    0.7896 O   0  0  0  0  0  0  0  0  0  0  0  0
    1.0869   -2.0914   -0.2526 H   0  0  0  0  0  0  0  0  0  0  0  0
    2.8696   -1.2777    1.1202 H   0  0  0  0  0  0  0  0  0  0  0  0
    3.0677    0.4825    1.2206 H   0  0  0  0  0  0  0  0  0  0  0  0
    1.8887   -0.5628    3.2559 H   0  0  0  0  0  0  0  0  0  0  0  0
    0.9472    0.6985    2.4443 H   0  0  0  0  0  0  0  0  0  0  0  0
   -0.5571   -1.2144    2.7883 H   0  0  0  0  0  0  0  0  0  0  0  0
    0.6368   -2.3229    2.0859 H   0  0  0  0  0  0  0  0  0  0  0  0
  1  2  1  0
  1  5  1  0
  1  6  1  0
  1  7  1  0
  2  3  2  3
  2  9  1  0
  3  4  1  0
  8 10  1  0
 10 11  1  0
 10 15  1  0
 10 16  1  0
 11 12  1  0
 12 13  1  0
 12 17  1  0
 12 18  1  0
 13 14  1  0
 13 19  1  0
 13 20  1  0
 14 15  1  0
 14 21  1  0
 14 22  1  0
M  RAD  1   4   2
M  END
>  <reaction>  (12) 
rmg_rxn_41

>  <mol_properties>  (12) 
{"1": {"label": "*1", "atom_type": "Cs"}, "2": {"label": "*0", "atom_type": "N3d"}, "7": {"label": "*2", "atom_type": "H0"}, "9": {"label": "*3", "atom_type": "Cs"}, "10": {"label": "*4", "atom_type": "O2s"}}

>  <type>  (12) 
unop_8

>  <geom_source>  (12) 
Heuristics

$$$$

     RDKit          3D

 22 21  0  0  0  0  0  0  0  0999 V2000
   -1.9494    0.7195   -2.1079 C   0  0  0  0  0  0  0  0  0  0  0  0
   -1.9494    0.7195   -0.5975 C   0  0  0  0  0  0  0  0  0  0  0  0
   -1.9494    2.0455    0.0661 N   0  0  0  0  0  0  0  0  0  0  0  0
   -1.9494    2.9750   -0.6816 O   0  0  0  0  0  1  0  0  0  0  0  0
   -1.0692    1.2269   -2.5024 H   0  0  0  0  0  0  0  0  0  0  0  0
   -1.9494   -0.3076   -2.4732 H   0  0  0  0  0  0  0  0  0  0  0  0
   -2.8295    1.2269   -2.5024 H   0  0  0  0  0  0  0  0  0  0  0  0
   -0.9039    0.1107   -0.0849 H   0  0  0  0  0  0  0  0  0  0  0  0
   -2.8206    0.2122   -0.1703 H   0  0  0  0  0  0  0  0  0  0  0  0
    0.1347   -0.4940    0.4244 C   0  0  0  0  0  0  0  0  0  0  0  0
    0.5185   -1.4883   -0.4760 O   0  0  0  0  0  0  0  0  0  0  0  0
    1.3622   -2.4411    0.1418 C   0  0  0  0  0  0  0  0  0  0  0  0
    2.5787   -1.7566    0.7486 C   0  0  0  0  0  0  0  0  0  0  0  0
    2.1038   -0.6201    1.6427 C   0  0  0  0  0  0  0  0  0  0  0  0
    1.2159    0.2243    0.9355 O   0  0  0  0  0  0  0  0  0  0  0  0
   -0.4295   -0.9513    1.2579 H   0  0  0  0  0  0  0  0  0  0  0  0
    0.8014   -2.9756    0.9239 H   0  0  0  0  0  0  0  0  0  0  0  0
    1.6407   -3.1592   -0.6283 H   0  0  0  0  0  0  0  0  0  0  0  0
    3.1724   -2.4716    1.3227 H   0  0  0  0  0  0  0  0  0  0  0  0
    3.2042   -1.3532   -0.0500 H   0  0  0  0  0  0  0  0  0  0  0  0
    2.9295    0.0052    1.9798 H   0  0  0  0  0  0  0  0  0  0  0  0
    1.5952   -1.0264    2.5304 H   0  0  0  0  0  0  0  0  0  0  0  0
  1  2  1  0
  1  5  1  0
  1  6  1  0
  1  7  1  0
  2  3  2  3
  2  9  1  0
  3  4  1  0
  8 10  1  0
 10 11  1  0
 10 15  1  0
 10 16  1  0
 11 12  1  0
 12 13  1  0
 12 17  1  0
 12 18  1  0
 13 14  1  0
 13 19  1  0
 13 20  1  0
 14 15  1  0
 14 21  1  0
 14 22  1  0
M  RAD  1   4   2
M  END
>  <reaction>  (13) 
rmg_rxn_41

>  <mol_properties>  (13) 
{"1": {"label": "*1", "atom_type": "Cs"}, "2": {"label": "*0", "atom_type": "N3d"}, "7": {"label": "*2", "atom_type": "H0"}, "9": {"label": "*3", "atom_type": "Cs"}, "10": {"label": "*4", "atom_type": "O2s"}}

>  <type>  (13) 
unop_9

>  <geom_source>  (13) 
Heuristics

$$$$

     RDKit          3D

 22 21  0  0  0  0  0  0  0  0999 V2000
   -1.7242   -0.0019   -2.5447 C   0  0  0  0  0  0  0  0  0  0  0  0
   -1.7242   -0.0019   -1.0342 C   0  0  0  0  0  0  0  0  0  0  0  0
   -1.7242    1.3240   -0.3706 N   0  0  0  0  0  0  0  0  0  0  0  0
   -1.7242    2.2536   -1.1183 O   0  0  0  0  0  1  0  0  0  0  0  0
   -0.8441    0.5054   -2.9391 H   0  0  0  0  0  0  0  0  0  0  0  0
   -1.7242   -1.0291   -2.9099 H   0  0  0  0  0  0  0  0  0  0  0  0
   -2.6043    0.5054   -2.9391 H   0  0  0  0  0  0  0  0  0  0  0  0
   -0.6787   -0.6107   -0.5216 H   0  0  0  0  0  0  0  0  0  0  0  0
   -2.5954   -0.5093   -0.6070 H   0  0  0  0  0  0  0  0  0  0  0  0
    0.3598   -1.2155   -0.0124 C   0  0  0  0  0  0  0  0  0  0  0  0
    1.4949   -0.5416   -0.4638 O   0  0  0  0  0  0  0  0  0  0  0  0
    2.5256   -0.5678    0.5049 C   0  0  0  0  0  0  0  0  0  0  0  0
    2.0314    0.0178    1.8199 C   0  0  0  0  0  0  0  0  0  0  0  0
    0.7404   -0.6860    2.2131 C   0  0  0  0  0  0  0  0  0  0  0  0
   -0.1840   -0.6527    1.1426 O   0  0  0  0  0  0  0  0  0  0  0  0
    0.6132   -2.2744    0.1792 H   0  0  0  0  0  0  0  0  0  0  0  0
    2.8602   -1.6055    0.6568 H   0  0  0  0  0  0  0  0  0  0  0  0
    3.3578    0.0013    0.0928 H   0  0  0  0  0  0  0  0  0  0  0  0
    2.7860   -0.1047    2.6002 H   0  0  0  0  0  0  0  0  0  0  0  0
    1.8388    1.0849    1.6925 H   0  0  0  0  0  0  0  0  0  0  0  0
    0.2556   -0.2040    3.0610 H   0  0  0  0  0  0  0  0  0  0  0  0
    0.9493   -1.7320    2.4852 H   0  0  0  0  0  0  0  0  0  0  0  0
  1  2  1  0
  1  5  1  0
  1  6  1  0
  1  7  1  0
  2  3  2  3
  2  9  1  0
  3  4  1  0
  8 10  1  0
 10 11  1  0
 10 15  1  0
 10 16  1  0
 11 12  1  0
 12 13  1  0
 12 17  1  0
 12 18  1  0
 13 14  1  0
 13 19  1  0
 13 20  1  0
 14 15  1  0
 14 21  1  0
 14 22  1  0
M  RAD  1   4   2
M  END
>  <reaction>  (14) 
rmg_rxn_41

>  <mol_properties>  (14) 
{"1": {"label": "*1", "atom_type": "Cs"}, "2": {"label": "*0", "atom_type": "N3d"}, "7": {"label": "*2", "atom_type": "H0"}, "9": {"label": "*3", "atom_type": "Cs"}, "10": {"label": "*4", "atom_type": "O2s"}}

>  <type>  (14) 
unop_10

>  <geom_source>  (14) 
Heuristics

$$$$

     RDKit          3D

 22 21  0  0  0  0  0  0  0  0999 V2000
   -1.7580    0.8032   -2.4345 C   0  0  0  0  0  0  0  0  0  0  0  0
   -1.7580    0.8032   -0.9240 C   0  0  0  0  0  0  0  0  0  0  0  0
   -1.7580    2.1291   -0.2604 N   0  0  0  0  0  0  0  0  0  0  0  0
   -1.7580    3.0587   -1.0081 O   0  0  0  0  0  1  0  0  0  0  0  0
   -0.8779    1.3105   -2.8290 H   0  0  0  0  0  0  0  0  0  0  0  0
   -1.7580   -0.2240   -2.7998 H   0  0  0  0  0  0  0  0  0  0  0  0
   -2.6381    1.3105   -2.8290 H   0  0  0  0  0  0  0  0  0  0  0  0
   -0.7125    0.1944   -0.4114 H   0  0  0  0  0  0  0  0  0  0  0  0
   -2.6292    0.2958   -0.4968 H   0  0  0  0  0  0  0  0  0  0  0  0
    0.3260   -0.4104    0.0978 C   0  0  0  0  0  0  0  0  0  0  0  0
   -0.0680   -0.9517    1.3218 O   0  0  0  0  0  0  0  0  0  0  0  0
    1.0344   -1.0969    2.1966 C   0  0  0  0  0  0  0  0  0  0  0  0
    2.1166   -1.9480    1.5477 C   0  0  0  0  0  0  0  0  0  0  0  0
    2.4360   -1.3694    0.1766 C   0  0  0  0  0  0  0  0  0  0  0  0
    1.2502   -1.2079   -0.5778 O   0  0  0  0  0  0  0  0  0  0  0  0
    0.7583    0.5937    0.2623 H   0  0  0  0  0  0  0  0  0  0  0  0
    1.4366   -0.1036    2.4483 H   0  0  0  0  0  0  0  0  0  0  0  0
    0.6522   -1.5508    3.1099 H   0  0  0  0  0  0  0  0  0  0  0  0
    3.0127   -1.9675    2.1721 H   0  0  0  0  0  0  0  0  0  0  0  0
    1.7543   -2.9715    1.4343 H   0  0  0  0  0  0  0  0  0  0  0  0
    3.0878   -2.0242   -0.4001 H   0  0  0  0  0  0  0  0  0  0  0  0
    2.9368   -0.3952    0.2862 H   0  0  0  0  0  0  0  0  0  0  0  0
  1  2  1  0
  1  5  1  0
  1  6  1  0
  1  7  1  0
  2  3  2  3
  2  9  1  0
  3  4  1  0
  8 10  1  0
 10 11  1  0
 10 15  1  0
 10 16  1  0
 11 12  1  0
 12 13  1  0
 12 17  1  0
 12 18  1  0
 13 14  1  0
 13 19  1  0
 13 20  1  0
 14 15  1  0
 14 21  1  0
 14 22  1  0
M  RAD  1   4   2
M  END
>  <reaction>  (15) 
rmg_rxn_41

>  <mol_properties>  (15) 
{"1": {"label": "*1", "atom_type": "Cs"}, "2": {"label": "*0", "atom_type": "N3d"}, "7": {"label": "*2", "atom_type": "H0"}, "9": {"label": "*3", "atom_type": "Cs"}, "10": {"label": "*4", "atom_type": "O2s"}}

>  <type>  (15) 
unop_11

>  <geom_source>  (15) 
Heuristics

$$$$

     RDKit          3D

 22 21  0  0  0  0  0  0  0  0999 V2000
   -2.0361    0.4069   -2.1023 C   0  0  0  0  0  0  0  0  0  0  0  0
   -2.0361    0.4069   -0.5918 C   0  0  0  0  0  0  0  0  0  0  0  0
   -2.0361    1.7328    0.0718 N   0  0  0  0  0  0  0  0  0  0  0  0
   -2.0361    2.6624   -0.6759 O   0  0  0  0  0  1  0  0  0  0  0  0
   -1.1559    0.9143   -2.4968 H   0  0  0  0  0  0  0  0  0  0  0  0
   -2.0361   -0.6203   -2.4675 H   0  0  0  0  0  0  0  0  0  0  0  0
   -2.9162    0.9143   -2.4968 H   0  0  0  0  0  0  0  0  0  0  0  0
   -0.9906   -0.2019   -0.0792 H   0  0  0  0  0  0  0  0  0  0  0  0
   -2.9073   -0.1004   -0.1646 H   0  0  0  0  0  0  0  0  0  0  0  0
    0.0479   -0.8067    0.4300 C   0  0  0  0  0  0  0  0  0  0  0  0
    0.8271   -1.2604   -0.6346 O   0  0  0  0  0  0  0  0  0  0  0  0
    1.9944   -1.9134   -0.1737 C   0  0  0  0  0  0  0  0  0  0  0  0
    2.7952   -0.9892    0.7324 C   0  0  0  0  0  0  0  0  0  0  0  0
    1.8728   -0.4475    1.8152 C   0  0  0  0  0  0  0  0  0  0  0  0
    0.7128    0.1181    1.2357 O   0  0  0  0  0  0  0  0  0  0  0  0
   -0.2704   -1.6681    1.0455 H   0  0  0  0  0  0  0  0  0  0  0  0
    1.7125   -2.8261    0.3736 H   0  0  0  0  0  0  0  0  0  0  0  0
    2.5590   -2.2071   -1.0575 H   0  0  0  0  0  0  0  0  0  0  0  0
    3.6349   -1.5262    1.1795 H   0  0  0  0  0  0  0  0  0  0  0  0
    3.1919   -0.1590    0.1448 H   0  0  0  0  0  0  0  0  0  0  0  0
    2.3479    0.3401    2.3984 H   0  0  0  0  0  0  0  0  0  0  0  0
    1.5825   -1.2571    2.5023 H   0  0  0  0  0  0  0  0  0  0  0  0
  1  2  1  0
  1  5  1  0
  1  6  1  0
  1  7  1  0
  2  3  2  3
  2  9  1  0
  3  4  1  0
  8 10  1  0
 10 11  1  0
 10 15  1  0
 10 16  1  0
 11 12  1  0
 12 13  1  0
 12 17  1  0
 12 18  1  0
 13 14  1  0
 13 19  1  0
 13 20  1  0
 14 15  1  0
 14 21  1  0
 14 22  1  0
M  RAD  1   4   2
M  END
>  <reaction>  (16) 
rmg_rxn_41

>  <mol_properties>  (16) 
{"1": {"label": "*1", "atom_type": "Cs"}, "2": {"label": "*0", "atom_type": "N3d"}, "7": {"label": "*2", "atom_type": "H0"}, "9": {"label": "*3", "atom_type": "Cs"}, "10": {"label": "*4", "atom_type": "O2s"}}

>  <type>  (16) 
unop_12

>  <geom_source>  (16) 
Heuristics

$$$$

     RDKit          3D

 22 21  0  0  0  0  0  0  0  0999 V2000
   -1.0110    1.6449   -0.5461 O   0  0  0  0  0  0  0  0  0  0  0  0
   -1.1825   -0.3725   -1.6934 O   0  0  0  0  0  0  0  0  0  0  0  0
    3.4391   -2.0288   -0.3620 O   0  0  0  0  0  1  0  0  0  0  0  0
    2.3172   -1.6337   -0.4663 N   0  0  0  0  0  0  0  0  0  0  0  0
   -2.4443   -0.0869    0.3531 C   0  0  0  0  0  0  0  0  0  0  0  0
   -1.5241    1.0975    0.6505 C   0  0  0  0  0  0  0  0  0  0  0  0
   -1.7071   -1.0545   -0.5733 C   0  0  0  0  0  0  0  0  0  0  0  0
   -0.3028    0.6403   -1.2458 C   0  0  0  0  0  0  0  0  0  0  0  0
    2.2383    0.2772    1.0529 C   0  0  0  0  0  0  0  0  0  0  0  0
    2.0206   -0.2259   -0.3675 C   0  0  0  0  0  0  0  0  0  0  0  0
   -3.3659    0.2780   -0.1507 H   0  0  0  0  0  0  0  0  0  0  0  0
   -2.7281   -0.5996    1.2971 H   0  0  0  0  0  0  0  0  0  0  0  0
   -2.1079    1.8808    1.1784 H   0  0  0  0  0  0  0  0  0  0  0  0
   -0.6967    0.7899    1.3301 H   0  0  0  0  0  0  0  0  0  0  0  0
   -2.4229   -1.8251   -0.9292 H   0  0  0  0  0  0  0  0  0  0  0  0
   -0.8988   -1.5863   -0.0213 H   0  0  0  0  0  0  0  0  0  0  0  0
    0.1699    1.1058   -2.1348 H   0  0  0  0  0  0  0  0  0  0  0  0
    0.6984    0.1293   -0.4968 H   0  0  0  0  0  0  0  0  0  0  0  0
    1.9569    1.3492    1.1103 H   0  0  0  0  0  0  0  0  0  0  0  0
    1.6033   -0.2976    1.7595 H   0  0  0  0  0  0  0  0  0  0  0  0
    3.3053    0.1686    1.3418 H   0  0  0  0  0  0  0  0  0  0  0  0
    2.6433    0.3493   -1.0865 H   0  0  0  0  0  0  0  0  0  0  0  0
  1  6  1  0
  1  8  1  0
  2  7  1  0
  2  8  1  0
  3  4  1  0
  4 10  2  3
  5  6  1  0
  5  7  1  0
  5 11  1  0
  5 12  1  0
  6 13  1  0
  6 14  1  0
  7 15  1  0
  7 16  1  0
  8 17  1  0
  8 18  1  0
  9 10  1  0
  9 19  1  0
  9 20  1  0
  9 21  1  0
 10 22  1  0
M  RAD  1   3   2
M  END
>  <reaction>  (17) 
rmg_rxn_41

>  <mol_properties>  (17) 
{"1": {"label": "*1", "atom_type": "Cs"}, "2": {"label": "*0", "atom_type": "N3d"}, "7": {"label": "*2", "atom_type": "H0"}, "9": {"label": "*3", "atom_type": "Cs"}, "10": {"label": "*4", "atom_type": "O2s"}}

>  <type>  (17) 
unop_13

>  <geom_source>  (17) 
AutoTST

$$$$

     RDKit          3D

 22 21  0  0  0  0  0  0  0  0999 V2000
   -1.9532    0.1037   -2.2820 C   0  0  0  0  0  0  0  0  0  0  0  0
   -1.9532    0.1037   -0.7715 C   0  0  0  0  0  0  0  0  0  0  0  0
   -1.9532    1.4296   -0.1079 N   0  0  0  0  0  0  0  0  0  0  0  0
   -1.9532    2.3592   -0.8556 O   0  0  0  0  0  1  0  0  0  0  0  0
   -1.0731    0.6110   -2.6764 H   0  0  0  0  0  0  0  0  0  0  0  0
   -1.9532   -0.9235   -2.6472 H   0  0  0  0  0  0  0  0  0  0  0  0
   -2.8333    0.6110   -2.6764 H   0  0  0  0  0  0  0  0  0  0  0  0
   -0.9078   -0.5051   -0.2589 H   0  0  0  0  0  0  0  0  0  0  0  0
   -2.8244   -0.4037   -0.3443 H   0  0  0  0  0  0  0  0  0  0  0  0
    0.1308   -1.1099    0.2503 C   0  0  0  0  0  0  0  0  0  0  0  0
    1.1849   -0.9531   -0.6500 O   0  0  0  0  0  0  0  0  0  0  0  0
    2.4331   -1.1719   -0.0209 C   0  0  0  0  0  0  0  0  0  0  0  0
    2.5940   -0.2425    1.1736 C   0  0  0  0  0  0  0  0  0  0  0  0
    1.3717   -0.3830    2.0695 C   0  0  0  0  0  0  0  0  0  0  0  0
    0.1868   -0.2111    1.3159 O   0  0  0  0  0  0  0  0  0  0  0  0
    0.1326   -2.1439    0.6415 H   0  0  0  0  0  0  0  0  0  0  0  0
    2.5003   -2.2208    0.3061 H   0  0  0  0  0  0  0  0  0  0  0  0
    3.1990   -1.0010   -0.7761 H   0  0  0  0  0  0  0  0  0  0  0  0
    3.5035   -0.4864    1.7274 H   0  0  0  0  0  0  0  0  0  0  0  0
    2.6709    0.7887    0.8235 H   0  0  0  0  0  0  0  0  0  0  0  0
    1.3547    0.3699    2.8564 H   0  0  0  0  0  0  0  0  0  0  0  0
    1.3643   -1.3764    2.5437 H   0  0  0  0  0  0  0  0  0  0  0  0
  1  2  1  0
  1  5  1  0
  1  6  1  0
  1  7  1  0
  2  3  2  3
  2  9  1  0
  3  4  1  0
  8 10  1  0
 10 11  1  0
 10 15  1  0
 10 16  1  0
 11 12  1  0
 12 13  1  0
 12 17  1  0
 12 18  1  0
 13 14  1  0
 13 19  1  0
 13 20  1  0
 14 15  1  0
 14 21  1  0
 14 22  1  0
M  RAD  1   4   2
M  END
>  <reaction>  (18) 
rmg_rxn_41

>  <mol_properties>  (18) 
{"1": {"label": "*1", "atom_type": "Cs"}, "2": {"label": "*0", "atom_type": "N3d"}, "7": {"label": "*2", "atom_type": "H0"}, "9": {"label": "*3", "atom_type": "Cs"}, "10": {"label": "*4", "atom_type": "O2s"}}

>  <type>  (18) 
unop_14

>  <geom_source>  (18) 
gaussian_log

$$$$
