
     RDKit          3D

  6  5  0  0  0  0  0  0  0  0999 V2000
   -0.4547   -0.0097   -0.0070 C   0  0  0  0  0  0  0  0  0  0  0  0
    0.8695   -0.1987   -0.6218 N   0  0  0  0  0  0  0  0  0  0  0  0
    1.0322   -1.2809   -1.0969 O   0  0  0  0  0  0  0  0  0  0  0  0
   -0.2820    0.2687    1.0347 H   0  0  0  0  0  0  0  0  0  0  0  0
   -1.0716   -0.9051   -0.0916 H   0  0  0  0  0  0  0  0  0  0  0  0
   -0.9130    0.8487   -0.5026 H   0  0  0  0  0  0  0  0  0  0  0  0
  1  2  1  0
  1  4  1  0
  1  5  1  0
  1  6  1  0
  2  3  2  0
M  END
>  <reaction>  (1) 
rmg_rxn_590

>  <mol_properties>  (1) 
{"0": {"label": "donator", "atom_type": "Cs"}, "3": {"label": "d_hydrogen", "atom_type": "H0"}}

>  <type>  (1) 
r1h

$$$$

     RDKit          3D

 17 16  0  0  0  0  0  0  0  0999 V2000
   -3.2378    0.0781    0.0468 C   0  0  0  0  0  0  0  0  0  0  0  0
   -1.9072   -0.5430    0.2348 C   0  0  0  0  0  3  0  0  0  0  0  0
   -1.5607   -0.7743    1.5229 O   0  0  0  0  0  0  0  0  0  0  0  0
   -0.2678   -1.3170    1.7206 C   0  0  0  0  0  0  0  0  0  0  0  0
    0.0055   -1.4164    3.2061 C   0  0  0  0  0  0  0  0  0  0  0  0
    0.0347   -0.0632    3.9042 C   0  0  0  0  0  0  0  0  0  0  0  0
   -3.2816    1.0982    0.4537 H   0  0  0  0  0  0  0  0  0  0  0  0
   -3.4818    0.1310   -1.0144 H   0  0  0  0  0  0  0  0  0  0  0  0
   -4.0139   -0.5033    0.5509 H   0  0  0  0  0  0  0  0  0  0  0  0
   -1.0896   -0.3480   -0.4562 H   0  0  0  0  0  0  0  0  0  0  0  0
   -0.2142   -2.3036    1.2476 H   0  0  0  0  0  0  0  0  0  0  0  0
    0.4751   -0.6679    1.2371 H   0  0  0  0  0  0  0  0  0  0  0  0
   -0.7555   -2.0574    3.6583 H   0  0  0  0  0  0  0  0  0  0  0  0
    0.9642   -1.9267    3.3334 H   0  0  0  0  0  0  0  0  0  0  0  0
   -0.9209    0.4499    3.7952 H   0  0  0  0  0  0  0  0  0  0  0  0
    0.2399   -0.1765    4.9695 H   0  0  0  0  0  0  0  0  0  0  0  0
    0.8109    0.5782    3.4796 H   0  0  0  0  0  0  0  0  0  0  0  0
  1  2  1  0
  1  7  1  0
  1  8  1  0
  1  9  1  0
  2  3  1  0
  2 10  1  0
  3  4  1  0
  4  5  1  0
  4 11  1  0
  4 12  1  0
  5  6  1  0
  5 13  1  0
  5 14  1  0
  6 15  1  0
  6 16  1  0
  6 17  1  0
M  RAD  1   2   2
M  END
>  <reaction>  (2) 
rmg_rxn_590

>  <mol_properties>  (2) 
{"1": {"label": "acceptor", "atom_type": "Cs"}}

>  <type>  (2) 
r2

$$$$

     RDKit          3D

 18 17  0  0  0  0  0  0  0  0999 V2000
    2.2026   -0.7213   -0.2612 C   0  0  0  0  0  0  0  0  0  0  0  0
    1.5384    0.2638    0.6915 C   0  0  0  0  0  0  0  0  0  0  0  0
    2.2584    1.5946    0.7694 C   0  0  0  0  0  0  0  0  0  0  0  0
    2.2212    2.2185   -0.4893 O   0  0  0  0  0  0  0  0  0  0  0  0
    2.8988    3.4488   -0.5204 C   0  0  0  0  0  0  0  0  0  0  0  0
    2.7981    4.0296   -1.9118 C   0  0  0  0  0  0  0  0  0  0  0  0
    3.2294   -0.9309    0.0486 H   0  0  0  0  0  0  0  0  0  0  0  0
    2.2338   -0.3181   -1.2734 H   0  0  0  0  0  0  0  0  0  0  0  0
    1.6610   -1.6680   -0.2875 H   0  0  0  0  0  0  0  0  0  0  0  0
    1.4990   -0.1566    1.7002 H   0  0  0  0  0  0  0  0  0  0  0  0
    0.5055    0.4455    0.3835 H   0  0  0  0  0  0  0  0  0  0  0  0
    3.3038    1.4410    1.0808 H   0  0  0  0  0  0  0  0  0  0  0  0
    1.7844    2.2410    1.5226 H   0  0  0  0  0  0  0  0  0  0  0  0
    2.4596    4.1376    0.2164 H   0  0  0  0  0  0  0  0  0  0  0  0
    3.9524    3.3035   -0.2397 H   0  0  0  0  0  0  0  0  0  0  0  0
    1.7543    4.1869   -2.1856 H   0  0  0  0  0  0  0  0  0  0  0  0
    3.2472    3.3545   -2.6411 H   0  0  0  0  0  0  0  0  0  0  0  0
    3.3178    4.9878   -1.9600 H   0  0  0  0  0  0  0  0  0  0  0  0
  1  2  1  0
  1  7  1  0
  1  8  1  0
  1  9  1  0
  2  3  1  0
  2 10  1  0
  2 11  1  0
  3  4  1  0
  3 12  1  0
  3 13  1  0
  4  5  1  0
  5  6  1  0
  5 14  1  0
  5 15  1  0
  6 16  1  0
  6 17  1  0
  6 18  1  0
M  END
>  <reaction>  (3) 
rmg_rxn_590

>  <mol_properties>  (3) 
{"0": {"label": "a_hydrogen", "atom_type": "H0"}, "2": {"label": "acceptor", "atom_type": "Cs"}}

>  <type>  (3) 
r2h

$$$$

     RDKit          3D

 23 21  0  0  0  0  0  0  0  0999 V2000
    2.2224    1.0035   -0.4999 C   0  0  0  0  0  0  0  0  0  0  0  0
    2.3534   -0.3782   -0.6634 N   0  0  0  0  0  0  0  0  0  0  0  0
    1.7041   -0.8476   -1.5900 O   0  0  0  0  0  0  0  0  0  0  0  0
    1.1371    1.1733    0.2002 H   0  0  0  0  0  0  0  0  0  0  0  0
    1.9970    1.5607   -1.4113 H   0  0  0  0  0  0  0  0  0  0  0  0
    2.9977    1.4236    0.1352 H   0  0  0  0  0  0  0  0  0  0  0  0
    0.4361    1.5354    2.3409 C   0  0  0  0  0  0  0  0  0  0  0  0
   -0.0428    1.2953    0.9456 C   0  0  0  0  0  3  0  0  0  0  0  0
   -0.6803    0.1161    0.7990 O   0  0  0  0  0  0  0  0  0  0  0  0
   -1.2996   -0.0967   -0.4677 C   0  0  0  0  0  0  0  0  0  0  0  0
   -1.9123   -1.4781   -0.4855 C   0  0  0  0  0  0  0  0  0  0  0  0
   -3.0157   -1.6674    0.5466 C   0  0  0  0  0  0  0  0  0  0  0  0
    1.0447    0.6963    2.6804 H   0  0  0  0  0  0  0  0  0  0  0  0
    1.0339    2.4460    2.3837 H   0  0  0  0  0  0  0  0  0  0  0  0
   -0.4094    1.6439    3.0256 H   0  0  0  0  0  0  0  0  0  0  0  0
   -0.5240    2.1382    0.4386 H   0  0  0  0  0  0  0  0  0  0  0  0
   -2.0641    0.6764   -0.6192 H   0  0  0  0  0  0  0  0  0  0  0  0
   -0.5404   -0.0065   -1.2515 H   0  0  0  0  0  0  0  0  0  0  0  0
   -2.3031   -1.6473   -1.4921 H   0  0  0  0  0  0  0  0  0  0  0  0
   -1.1146   -2.2084   -0.3334 H   0  0  0  0  0  0  0  0  0  0  0  0
   -3.8287   -0.9546    0.3870 H   0  0  0  0  0  0  0  0  0  0  0  0
   -3.4360   -2.6720    0.4876 H   0  0  0  0  0  0  0  0  0  0  0  0
   -2.6341   -1.5210    1.5575 H   0  0  0  0  0  0  0  0  0  0  0  0
  1  2  1  0
  1  4  1  0
  1  5  1  0
  1  6  1  0
  2  3  2  0
  7  8  1  0
  7 13  1  0
  7 14  1  0
  7 15  1  0
  8  9  1  0
  8 16  1  0
  9 10  1  0
 10 11  1  0
 10 17  1  0
 10 18  1  0
 11 12  1  0
 11 19  1  0
 11 20  1  0
 12 21  1  0
 12 22  1  0
 12 23  1  0
M  RAD  1   8   2
M  END
>  <reaction>  (4) 
rmg_rxn_590

>  <mol_properties>  (4) 
{"0": {"label": "*1", "atom_type": "Cs"}, "1": {"label": "*0", "atom_type": "N3d"}, "3": {"label": "*2", "atom_type": "H0"}, "7": {"label": "*3", "atom_type": "Cs"}, "8": {"label": "*4", "atom_type": "O2s"}}

>  <type>  (4) 
ts

$$$$

     RDKit          3D

 23 21  0  0  0  0  0  0  0  0999 V2000
    1.2450    0.1362   -1.9005 C   0  0  0  0  0  0  0  0  0  0  0  0
    1.2450   -1.2095   -2.4973 N   0  0  0  0  0  0  0  0  0  0  0  0
    1.2450   -1.2095   -3.6905 O   0  0  0  0  0  0  0  0  0  0  0  0
    0.1889    0.2076   -1.1280 H   0  0  0  0  0  0  0  0  0  0  0  0
    1.2450    0.9167   -2.6623 H   0  0  0  0  0  0  0  0  0  0  0  0
    2.1250    0.1957   -1.2567 H   0  0  0  0  0  0  0  0  0  0  0  0
   -0.9101    1.5842   -1.1114 C   0  0  0  0  0  0  0  0  0  0  0  0
   -0.8749    0.2796   -0.3496 C   0  0  0  0  0  3  0  0  0  0  0  0
   -0.4830    0.5350    0.9750 O   0  0  0  0  0  0  0  0  0  0  0  0
   -0.4206   -0.6223    1.7698 C   0  0  0  0  0  0  0  0  0  0  0  0
   -0.0296   -0.2405    3.1828 C   0  0  0  0  0  0  0  0  0  0  0  0
   -1.0534    0.6568    3.8655 C   0  0  0  0  0  0  0  0  0  0  0  0
    0.0744    2.0531   -1.1118 H   0  0  0  0  0  0  0  0  0  0  0  0
   -1.2121    1.4102   -2.1454 H   0  0  0  0  0  0  0  0  0  0  0  0
   -1.6199    2.2745   -0.6543 H   0  0  0  0  0  0  0  0  0  0  0  0
   -1.8651   -0.1996   -0.3616 H   0  0  0  0  0  0  0  0  0  0  0  0
   -1.3990   -1.1286    1.7721 H   0  0  0  0  0  0  0  0  0  0  0  0
    0.3113   -1.3273    1.3489 H   0  0  0  0  0  0  0  0  0  0  0  0
    0.1039   -1.1626    3.7554 H   0  0  0  0  0  0  0  0  0  0  0  0
    0.9434    0.2565    3.1515 H   0  0  0  0  0  0  0  0  0  0  0  0
   -2.0262    0.1625    3.9254 H   0  0  0  0  0  0  0  0  0  0  0  0
   -0.7417    0.9063    4.8808 H   0  0  0  0  0  0  0  0  0  0  0  0
   -1.1833    1.5859    3.3106 H   0  0  0  0  0  0  0  0  0  0  0  0
  1  2  1  0
  1  4  1  0
  1  5  1  0
  1  6  1  0
  2  3  2  0
  7  8  1  0
  7 13  1  0
  7 14  1  0
  7 15  1  0
  8  9  1  0
  8 16  1  0
  9 10  1  0
 10 11  1  0
 10 17  1  0
 10 18  1  0
 11 12  1  0
 11 19  1  0
 11 20  1  0
 12 21  1  0
 12 22  1  0
 12 23  1  0
M  RAD  1   8   2
M  END
>  <reaction>  (5) 
rmg_rxn_590

>  <mol_properties>  (5) 
{"0": {"label": "*1", "atom_type": "Cs"}, "1": {"label": "*0", "atom_type": "N3d"}, "3": {"label": "*2", "atom_type": "H0"}, "7": {"label": "*3", "atom_type": "Cs"}, "8": {"label": "*4", "atom_type": "O2s"}}

>  <type>  (5) 
unop_1

>  <geom_source>  (5) 
Heuristics

$$$$

     RDKit          3D

 23 21  0  0  0  0  0  0  0  0999 V2000
    1.8567    1.2273   -1.0659 C   0  0  0  0  0  0  0  0  0  0  0  0
    1.8567   -0.1184   -1.6627 N   0  0  0  0  0  0  0  0  0  0  0  0
    1.8567   -0.1184   -2.8558 O   0  0  0  0  0  0  0  0  0  0  0  0
    0.8007    1.2987   -0.2933 H   0  0  0  0  0  0  0  0  0  0  0  0
    1.8567    2.0078   -1.8277 H   0  0  0  0  0  0  0  0  0  0  0  0
    2.7367    1.2868   -0.4221 H   0  0  0  0  0  0  0  0  0  0  0  0
    0.4113    2.1827    1.5663 C   0  0  0  0  0  0  0  0  0  0  0  0
   -0.2632    1.3707    0.4850 C   0  0  0  0  0  3  0  0  0  0  0  0
   -0.5708    0.0982    0.9947 O   0  0  0  0  0  0  0  0  0  0  0  0
   -1.2055   -0.7371    0.0596 C   0  0  0  0  0  0  0  0  0  0  0  0
   -1.5302   -2.0654    0.7120 C   0  0  0  0  0  0  0  0  0  0  0  0
   -2.5147   -1.9402    1.8671 C   0  0  0  0  0  0  0  0  0  0  0  0
    1.3300    1.6947    1.8937 H   0  0  0  0  0  0  0  0  0  0  0  0
    0.6607    3.1770    1.1925 H   0  0  0  0  0  0  0  0  0  0  0  0
   -0.2468    2.2916    2.4291 H   0  0  0  0  0  0  0  0  0  0  0  0
   -1.1824    1.8706    0.1456 H   0  0  0  0  0  0  0  0  0  0  0  0
   -2.1289   -0.2590   -0.3041 H   0  0  0  0  0  0  0  0  0  0  0  0
   -0.5516   -0.8899   -0.8115 H   0  0  0  0  0  0  0  0  0  0  0  0
   -1.9355   -2.7278   -0.0578 H   0  0  0  0  0  0  0  0  0  0  0  0
   -0.5982   -2.5179    1.0606 H   0  0  0  0  0  0  0  0  0  0  0  0
   -3.4607   -1.5108    1.5279 H   0  0  0  0  0  0  0  0  0  0  0  0
   -2.7286   -2.9149    2.3081 H   0  0  0  0  0  0  0  0  0  0  0  0
   -2.1140   -1.2933    2.6475 H   0  0  0  0  0  0  0  0  0  0  0  0
  1  2  1  0
  1  4  1  0
  1  5  1  0
  1  6  1  0
  2  3  2  0
  7  8  1  0
  7 13  1  0
  7 14  1  0
  7 15  1  0
  8  9  1  0
  8 16  1  0
  9 10  1  0
 10 11  1  0
 10 17  1  0
 10 18  1  0
 11 12  1  0
 11 19  1  0
 11 20  1  0
 12 21  1  0
 12 22  1  0
 12 23  1  0
M  RAD  1   8   2
M  END
>  <reaction>  (6) 
rmg_rxn_590

>  <mol_properties>  (6) 
{"0": {"label": "*1", "atom_type": "Cs"}, "1": {"label": "*0", "atom_type": "N3d"}, "3": {"label": "*2", "atom_type": "H0"}, "7": {"label": "*3", "atom_type": "Cs"}, "8": {"label": "*4", "atom_type": "O2s"}}

>  <type>  (6) 
unop_2

>  <geom_source>  (6) 
Heuristics

$$$$

     RDKit          3D

 23 21  0  0  0  0  0  0  0  0999 V2000
    1.2753   -0.3492   -1.7655 C   0  0  0  0  0  0  0  0  0  0  0  0
    1.2753   -1.6950   -2.3623 N   0  0  0  0  0  0  0  0  0  0  0  0
    1.2753   -1.6950   -3.5554 O   0  0  0  0  0  0  0  0  0  0  0  0
    0.2193   -0.2778   -0.9929 H   0  0  0  0  0  0  0  0  0  0  0  0
    1.2753    0.4312   -2.5273 H   0  0  0  0  0  0  0  0  0  0  0  0
    2.1554   -0.2897   -1.1217 H   0  0  0  0  0  0  0  0  0  0  0  0
   -1.5010    0.5659   -1.3357 C   0  0  0  0  0  0  0  0  0  0  0  0
   -0.8445   -0.2059   -0.2146 C   0  0  0  0  0  3  0  0  0  0  0  0
   -0.5961    0.6681    0.8568 O   0  0  0  0  0  0  0  0  0  0  0  0
    0.0158    0.0413    1.9558 C   0  0  0  0  0  0  0  0  0  0  0  0
    0.2057    1.0518    3.0685 C   0  0  0  0  0  0  0  0  0  0  0  0
   -1.1078    1.6045    3.6057 C   0  0  0  0  0  0  0  0  0  0  0  0
   -0.8521    1.3744   -1.6741 H   0  0  0  0  0  0  0  0  0  0  0  0
   -1.7034   -0.0937   -2.1809 H   0  0  0  0  0  0  0  0  0  0  0  0
   -2.4440    0.9992   -1.0003 H   0  0  0  0  0  0  0  0  0  0  0  0
   -1.4938   -1.0297    0.1167 H   0  0  0  0  0  0  0  0  0  0  0  0
   -0.6101   -0.7944    2.3069 H   0  0  0  0  0  0  0  0  0  0  0  0
    0.9858   -0.3809    1.6545 H   0  0  0  0  0  0  0  0  0  0  0  0
    0.7661    0.5657    3.8719 H   0  0  0  0  0  0  0  0  0  0  0  0
    0.8307    1.8667    2.6944 H   0  0  0  0  0  0  0  0  0  0  0  0
   -1.7335    0.8025    4.0053 H   0  0  0  0  0  0  0  0  0  0  0  0
   -0.9326    2.3234    4.4074 H   0  0  0  0  0  0  0  0  0  0  0  0
   -1.6681    2.1045    2.8157 H   0  0  0  0  0  0  0  0  0  0  0  0
  1  2  1  0
  1  4  1  0
  1  5  1  0
  1  6  1  0
  2  3  2  0
  7  8  1  0
  7 13  1  0
  7 14  1  0
  7 15  1  0
  8  9  1  0
  8 16  1  0
  9 10  1  0
 10 11  1  0
 10 17  1  0
 10 18  1  0
 11 12  1  0
 11 19  1  0
 11 20  1  0
 12 21  1  0
 12 22  1  0
 12 23  1  0
M  RAD  1   8   2
M  END
>  <reaction>  (7) 
rmg_rxn_590

>  <mol_properties>  (7) 
{"0": {"label": "*1", "atom_type": "Cs"}, "1": {"label": "*0", "atom_type": "N3d"}, "3": {"label": "*2", "atom_type": "H0"}, "7": {"label": "*3", "atom_type": "Cs"}, "8": {"label": "*4", "atom_type": "O2s"}}

>  <type>  (7) 
unop_3

>  <geom_source>  (7) 
Heuristics

$$$$

     RDKit          3D

 23 21  0  0  0  0  0  0  0  0999 V2000
    2.3182    0.1637   -0.0325 C   0  0  0  0  0  0  0  0  0  0  0  0
    2.3182   -1.1821   -0.6293 N   0  0  0  0  0  0  0  0  0  0  0  0
    2.3182   -1.1821   -1.8224 O   0  0  0  0  0  0  0  0  0  0  0  0
    1.2622    0.2351    0.7401 H   0  0  0  0  0  0  0  0  0  0  0  0
    2.3182    0.9441   -0.7942 H   0  0  0  0  0  0  0  0  0  0  0  0
    3.1982    0.2232    0.6113 H   0  0  0  0  0  0  0  0  0  0  0  0
   -0.0630   -0.1261    2.9424 C   0  0  0  0  0  0  0  0  0  0  0  0
    0.1983    0.3070    1.5185 C   0  0  0  0  0  3  0  0  0  0  0  0
   -0.9658    0.1038    0.7587 O   0  0  0  0  0  0  0  0  0  0  0  0
   -0.8238    0.4794   -0.5880 C   0  0  0  0  0  0  0  0  0  0  0  0
   -2.1368    0.2605   -1.3114 C   0  0  0  0  0  0  0  0  0  0  0  0
   -3.2683    1.1264   -0.7734 C   0  0  0  0  0  0  0  0  0  0  0  0
   -0.3352   -1.1816    2.9769 H   0  0  0  0  0  0  0  0  0  0  0  0
    0.8294    0.0223    3.5525 H   0  0  0  0  0  0  0  0  0  0  0  0
   -0.8791    0.4540    3.3746 H   0  0  0  0  0  0  0  0  0  0  0  0
    0.4864    1.3681    1.4860 H   0  0  0  0  0  0  0  0  0  0  0  0
   -0.5288    1.5388   -0.6525 H   0  0  0  0  0  0  0  0  0  0  0  0
   -0.0253   -0.1116   -1.0601 H   0  0  0  0  0  0  0  0  0  0  0  0
   -1.9750    0.4694   -2.3725 H   0  0  0  0  0  0  0  0  0  0  0  0
   -2.4039   -0.7966   -1.2338 H   0  0  0  0  0  0  0  0  0  0  0  0
   -3.0248    2.1877   -0.8668 H   0  0  0  0  0  0  0  0  0  0  0  0
   -4.1948    0.9462   -1.3205 H   0  0  0  0  0  0  0  0  0  0  0  0
   -3.4482    0.9155    0.2807 H   0  0  0  0  0  0  0  0  0  0  0  0
  1  2  1  0
  1  4  1  0
  1  5  1  0
  1  6  1  0
  2  3  2  0
  7  8  1  0
  7 13  1  0
  7 14  1  0
  7 15  1  0
  8  9  1  0
  8 16  1  0
  9 10  1  0
 10 11  1  0
 10 17  1  0
 10 18  1  0
 11 12  1  0
 11 19  1  0
 11 20  1  0
 12 21  1  0
 12 22  1  0
 12 23  1  0
M  RAD  1   8   2
M  END
>  <reaction>  (8) 
rmg_rxn_590

>  <mol_properties>  (8) 
{"0": {"label": "*1", "atom_type": "Cs"}, "1": {"label": "*0", "atom_type": "N3d"}, "3": {"label": "*2", "atom_type": "H0"}, "7": {"label": "*3", "atom_type": "Cs"}, "8": {"label": "*4", "atom_type": "O2s"}}

>  <type>  (8) 
unop_4

>  <geom_source>  (8) 
Heuristics

$$$$

     RDKit          3D

 23 21  0  0  0  0  0  0  0  0999 V2000
    1.3749   -0.7349   -1.4371 C   0  0  0  0  0  0  0  0  0  0  0  0
    1.3749   -2.0806   -2.0339 N   0  0  0  0  0  0  0  0  0  0  0  0
    1.3749   -2.0806   -3.2270 O   0  0  0  0  0  0  0  0  0  0  0  0
    0.3189   -0.6635   -0.6645 H   0  0  0  0  0  0  0  0  0  0  0  0
    1.3749    0.0456   -2.1989 H   0  0  0  0  0  0  0  0  0  0  0  0
    2.2549   -0.6754   -0.7933 H   0  0  0  0  0  0  0  0  0  0  0  0
   -2.0042   -0.8153   -0.6910 C   0  0  0  0  0  0  0  0  0  0  0  0
   -0.7450   -0.5915    0.1138 C   0  0  0  0  0  3  0  0  0  0  0  0
   -0.8100    0.6738    0.7206 O   0  0  0  0  0  0  0  0  0  0  0  0
    0.3214    0.9773    1.4970 C   0  0  0  0  0  0  0  0  0  0  0  0
    0.1402    2.3381    2.1379 C   0  0  0  0  0  0  0  0  0  0  0  0
   -1.0337    2.3921    3.1065 C   0  0  0  0  0  0  0  0  0  0  0  0
   -2.1054   -0.0513   -1.4626 H   0  0  0  0  0  0  0  0  0  0  0  0
   -1.9760   -1.7938   -1.1731 H   0  0  0  0  0  0  0  0  0  0  0  0
   -2.8827   -0.7716   -0.0462 H   0  0  0  0  0  0  0  0  0  0  0  0
   -0.6366   -1.3707    0.8828 H   0  0  0  0  0  0  0  0  0  0  0  0
    0.4598    0.2090    2.2741 H   0  0  0  0  0  0  0  0  0  0  0  0
    1.2223    0.9700    0.8660 H   0  0  0  0  0  0  0  0  0  0  0  0
    1.0686    2.5914    2.6573 H   0  0  0  0  0  0  0  0  0  0  0  0
    0.0078    3.0799    1.3460 H   0  0  0  0  0  0  0  0  0  0  0  0
   -0.9030    1.6714    3.9176 H   0  0  0  0  0  0  0  0  0  0  0  0
   -1.1301    3.3833    3.5518 H   0  0  0  0  0  0  0  0  0  0  0  0
   -1.9670    2.1556    2.5955 H   0  0  0  0  0  0  0  0  0  0  0  0
  1  2  1  0
  1  4  1  0
  1  5  1  0
  1  6  1  0
  2  3  2  0
  7  8  1  0
  7 13  1  0
  7 14  1  0
  7 15  1  0
  8  9  1  0
  8 16  1  0
  9 10  1  0
 10 11  1  0
 10 17  1  0
 10 18  1  0
 11 12  1  0
 11 19  1  0
 11 20  1  0
 12 21  1  0
 12 22  1  0
 12 23  1  0
M  RAD  1   8   2
M  END
>  <reaction>  (9) 
rmg_rxn_590

>  <mol_properties>  (9) 
{"0": {"label": "*1", "atom_type": "Cs"}, "1": {"label": "*0", "atom_type": "N3d"}, "3": {"label": "*2", "atom_type": "H0"}, "7": {"label": "*3", "atom_type": "Cs"}, "8": {"label": "*4", "atom_type": "O2s"}}

>  <type>  (9) 
unop_5

>  <geom_source>  (9) 
Heuristics

$$$$

     RDKit          3D

 23 21  0  0  0  0  0  0  0  0999 V2000
    2.1854   -0.3838   -0.1200 C   0  0  0  0  0  0  0  0  0  0  0  0
    2.1854   -1.7295   -0.7169 N   0  0  0  0  0  0  0  0  0  0  0  0
    2.1854   -1.7295   -1.9100 O   0  0  0  0  0  0  0  0  0  0  0  0
    1.1294   -0.3124    0.6525 H   0  0  0  0  0  0  0  0  0  0  0  0
    2.1854    0.3967   -0.8818 H   0  0  0  0  0  0  0  0  0  0  0  0
    3.0654   -0.3243    0.5238 H   0  0  0  0  0  0  0  0  0  0  0  0
   -0.4393   -0.9525    2.6644 C   0  0  0  0  0  0  0  0  0  0  0  0
    0.0655   -0.2405    1.4309 C   0  0  0  0  0  3  0  0  0  0  0  0
   -1.0335    0.2363    0.6972 O   0  0  0  0  0  0  0  0  0  0  0  0
   -0.6660    0.9184   -0.4753 C   0  0  0  0  0  0  0  0  0  0  0  0
   -1.9118    1.4253   -1.1726 C   0  0  0  0  0  0  0  0  0  0  0  0
   -2.6883    2.4423   -0.3468 C   0  0  0  0  0  0  0  0  0  0  0  0
   -1.0777   -1.7919    2.3867 H   0  0  0  0  0  0  0  0  0  0  0  0
    0.3984   -1.3327    3.2510 H   0  0  0  0  0  0  0  0  0  0  0  0
   -1.0188   -0.2713    3.2886 H   0  0  0  0  0  0  0  0  0  0  0  0
    0.7205    0.5975    1.7116 H   0  0  0  0  0  0  0  0  0  0  0  0
   -0.0029    1.7619   -0.2259 H   0  0  0  0  0  0  0  0  0  0  0  0
   -0.1039    0.2460   -1.1399 H   0  0  0  0  0  0  0  0  0  0  0  0
   -1.6074    1.8677   -2.1252 H   0  0  0  0  0  0  0  0  0  0  0  0
   -2.5492    0.5696   -1.4102 H   0  0  0  0  0  0  0  0  0  0  0  0
   -2.0702    3.3151   -0.1220 H   0  0  0  0  0  0  0  0  0  0  0  0
   -3.5740    2.7883   -0.8817 H   0  0  0  0  0  0  0  0  0  0  0  0
   -3.0097    2.0068    0.5993 H   0  0  0  0  0  0  0  0  0  0  0  0
  1  2  1  0
  1  4  1  0
  1  5  1  0
  1  6  1  0
  2  3  2  0
  7  8  1  0
  7 13  1  0
  7 14  1  0
  7 15  1  0
  8  9  1  0
  8 16  1  0
  9 10  1  0
 10 11  1  0
 10 17  1  0
 10 18  1  0
 11 12  1  0
 11 19  1  0
 11 20  1  0
 12 21  1  0
 12 22  1  0
 12 23  1  0
M  RAD  1   8   2
M  END
>  <reaction>  (10) 
rmg_rxn_590

>  <mol_properties>  (10) 
{"0": {"label": "*1", "atom_type": "Cs"}, "1": {"label": "*0", "atom_type": "N3d"}, "3": {"label": "*2", "atom_type": "H0"}, "7": {"label": "*3", "atom_type": "Cs"}, "8": {"label": "*4", "atom_type": "O2s"}}

>  <type>  (10) 
unop_6

>  <geom_source>  (10) 
Heuristics

$$$$

     RDKit          3D

 23 21  0  0  0  0  0  0  0  0999 V2000
    1.9214   -0.7918   -0.4425 C   0  0  0  0  0  0  0  0  0  0  0  0
    1.9214   -2.1376   -1.0393 N   0  0  0  0  0  0  0  0  0  0  0  0
    1.9214   -2.1376   -2.2325 O   0  0  0  0  0  0  0  0  0  0  0  0
    0.8654   -0.7204    0.3300 H   0  0  0  0  0  0  0  0  0  0  0  0
    1.9214   -0.0113   -1.2043 H   0  0  0  0  0  0  0  0  0  0  0  0
    2.8014   -0.7323    0.2013 H   0  0  0  0  0  0  0  0  0  0  0  0
   -0.9968   -1.6038    1.9648 C   0  0  0  0  0  0  0  0  0  0  0  0
   -0.1985   -0.6485    1.1084 C   0  0  0  0  0  3  0  0  0  0  0  0
   -1.0415    0.3875    0.6730 O   0  0  0  0  0  0  0  0  0  0  0  0
   -0.3882    1.3341   -0.1346 C   0  0  0  0  0  0  0  0  0  0  0  0
   -1.3655    2.4259   -0.5191 C   0  0  0  0  0  0  0  0  0  0  0  0
   -1.8846    3.2131    0.6768 C   0  0  0  0  0  0  0  0  0  0  0  0
   -1.8236   -2.0287    1.3944 H   0  0  0  0  0  0  0  0  0  0  0  0
   -0.3616   -2.4190    2.3148 H   0  0  0  0  0  0  0  0  0  0  0  0
   -1.4074   -1.0869    2.8329 H   0  0  0  0  0  0  0  0  0  0  0  0
    0.6434   -0.2311    1.6803 H   0  0  0  0  0  0  0  0  0  0  0  0
    0.4659    1.7662    0.4106 H   0  0  0  0  0  0  0  0  0  0  0  0
    0.0121    0.8462   -1.0355 H   0  0  0  0  0  0  0  0  0  0  0  0
   -0.8616    3.0964   -1.2209 H   0  0  0  0  0  0  0  0  0  0  0  0
   -2.1996    1.9707   -1.0594 H   0  0  0  0  0  0  0  0  0  0  0  0
   -1.0627    3.6940    1.2131 H   0  0  0  0  0  0  0  0  0  0  0  0
   -2.5801    3.9925    0.3619 H   0  0  0  0  0  0  0  0  0  0  0  0
   -2.4021    2.5564    1.3760 H   0  0  0  0  0  0  0  0  0  0  0  0
  1  2  1  0
  1  4  1  0
  1  5  1  0
  1  6  1  0
  2  3  2  0
  7  8  1  0
  7 13  1  0
  7 14  1  0
  7 15  1  0
  8  9  1  0
  8 16  1  0
  9 10  1  0
 10 11  1  0
 10 17  1  0
 10 18  1  0
 11 12  1  0
 11 19  1  0
 11 20  1  0
 12 21  1  0
 12 22  1  0
 12 23  1  0
M  RAD  1   8   2
M  END
>  <reaction>  (11) 
rmg_rxn_590

>  <mol_properties>  (11) 
{"0": {"label": "*1", "atom_type": "Cs"}, "1": {"label": "*0", "atom_type": "N3d"}, "3": {"label": "*2", "atom_type": "H0"}, "7": {"label": "*3", "atom_type": "Cs"}, "8": {"label": "*4", "atom_type": "O2s"}}

>  <type>  (11) 
unop_7

>  <geom_source>  (11) 
Heuristics

$$$$

     RDKit          3D

 23 21  0  0  0  0  0  0  0  0999 V2000
    1.3372    0.6516   -1.8216 C   0  0  0  0  0  0  0  0  0  0  0  0
    1.3372   -0.6941   -2.4184 N   0  0  0  0  0  0  0  0  0  0  0  0
    1.3372   -0.6941   -3.6116 O   0  0  0  0  0  0  0  0  0  0  0  0
    0.2812    0.7230   -1.0491 H   0  0  0  0  0  0  0  0  0  0  0  0
    1.3372    1.4321   -2.5834 H   0  0  0  0  0  0  0  0  0  0  0  0
    2.2172    0.7111   -1.1778 H   0  0  0  0  0  0  0  0  0  0  0  0
   -0.3726    2.2403   -0.4325 C   0  0  0  0  0  0  0  0  0  0  0  0
   -0.7827    0.7950   -0.2707 C   0  0  0  0  0  3  0  0  0  0  0  0
   -0.4558    0.3704    1.0279 O   0  0  0  0  0  0  0  0  0  0  0  0
   -0.8007   -0.9687    1.2788 C   0  0  0  0  0  0  0  0  0  0  0  0
   -0.4464   -1.3187    2.7096 C   0  0  0  0  0  0  0  0  0  0  0  0
   -1.2269   -0.5075    3.7352 C   0  0  0  0  0  0  0  0  0  0  0  0
    0.7010    2.3526   -0.2770 H   0  0  0  0  0  0  0  0  0  0  0  0
   -0.6167    2.5926   -1.4359 H   0  0  0  0  0  0  0  0  0  0  0  0
   -0.8927    2.8685    0.2916 H   0  0  0  0  0  0  0  0  0  0  0  0
   -1.8633    0.6805   -0.4415 H   0  0  0  0  0  0  0  0  0  0  0  0
   -1.8792   -1.1159    1.1097 H   0  0  0  0  0  0  0  0  0  0  0  0
   -0.2670   -1.6305    0.5810 H   0  0  0  0  0  0  0  0  0  0  0  0
   -0.6358   -2.3864    2.8512 H   0  0  0  0  0  0  0  0  0  0  0  0
    0.6270   -1.1663    2.8487 H   0  0  0  0  0  0  0  0  0  0  0  0
   -2.3020   -0.6690    3.6233 H   0  0  0  0  0  0  0  0  0  0  0  0
   -0.9502   -0.7897    4.7521 H   0  0  0  0  0  0  0  0  0  0  0  0
   -1.0337    0.5582    3.6126 H   0  0  0  0  0  0  0  0  0  0  0  0
  1  2  1  0
  1  4  1  0
  1  5  1  0
  1  6  1  0
  2  3  2  0
  7  8  1  0
  7 13  1  0
  7 14  1  0
  7 15  1  0
  8  9  1  0
  8 16  1  0
  9 10  1  0
 10 11  1  0
 10 17  1  0
 10 18  1  0
 11 12  1  0
 11 19  1  0
 11 20  1  0
 12 21  1  0
 12 22  1  0
 12 23  1  0
M  RAD  1   8   2
M  END
>  <reaction>  (12) 
rmg_rxn_590

>  <mol_properties>  (12) 
{"0": {"label": "*1", "atom_type": "Cs"}, "1": {"label": "*0", "atom_type": "N3d"}, "3": {"label": "*2", "atom_type": "H0"}, "7": {"label": "*3", "atom_type": "Cs"}, "8": {"label": "*4", "atom_type": "O2s"}}

>  <type>  (12) 
unop_8

>  <geom_source>  (12) 
Heuristics

$$$$

     RDKit          3D

 23 21  0  0  0  0  0  0  0  0999 V2000
    2.2962    0.7033   -0.1965 C   0  0  0  0  0  0  0  0  0  0  0  0
    2.2962   -0.6425   -0.7933 N   0  0  0  0  0  0  0  0  0  0  0  0
    2.2962   -0.6425   -1.9864 O   0  0  0  0  0  0  0  0  0  0  0  0
    1.2402    0.7747    0.5761 H   0  0  0  0  0  0  0  0  0  0  0  0
    2.2962    1.4837   -0.9582 H   0  0  0  0  0  0  0  0  0  0  0  0
    3.1763    0.7628    0.4473 H   0  0  0  0  0  0  0  0  0  0  0  0
    0.2138    0.7120    2.8591 C   0  0  0  0  0  0  0  0  0  0  0  0
    0.1763    0.8466    1.3544 C   0  0  0  0  0  3  0  0  0  0  0  0
   -0.8443    0.0248    0.8480 O   0  0  0  0  0  0  0  0  0  0  0  0
   -0.9608    0.0810   -0.5514 C   0  0  0  0  0  0  0  0  0  0  0  0
   -2.1076   -0.8039   -0.9956 C   0  0  0  0  0  0  0  0  0  0  0  0
   -3.4588   -0.3441   -0.4646 C   0  0  0  0  0  0  0  0  0  0  0  0
    0.4092   -0.3220    3.1455 H   0  0  0  0  0  0  0  0  0  0  0  0
    1.0010    1.3422    3.2757 H   0  0  0  0  0  0  0  0  0  0  0  0
   -0.7395    1.0151    3.2937 H   0  0  0  0  0  0  0  0  0  0  0  0
   -0.0070    1.8923    1.0664 H   0  0  0  0  0  0  0  0  0  0  0  0
   -1.1392    1.1199   -0.8713 H   0  0  0  0  0  0  0  0  0  0  0  0
   -0.0216   -0.2485   -1.0196 H   0  0  0  0  0  0  0  0  0  0  0  0
   -2.1178   -0.8174   -2.0890 H   0  0  0  0  0  0  0  0  0  0  0  0
   -1.9039   -1.8266   -0.6681 H   0  0  0  0  0  0  0  0  0  0  0  0
   -3.6867    0.6693   -0.8044 H   0  0  0  0  0  0  0  0  0  0  0  0
   -4.2597   -1.0003   -0.8084 H   0  0  0  0  0  0  0  0  0  0  0  0
   -3.4646   -0.3412    0.6254 H   0  0  0  0  0  0  0  0  0  0  0  0
  1  2  1  0
  1  4  1  0
  1  5  1  0
  1  6  1  0
  2  3  2  0
  7  8  1  0
  7 13  1  0
  7 14  1  0
  7 15  1  0
  8  9  1  0
  8 16  1  0
  9 10  1  0
 10 11  1  0
 10 17  1  0
 10 18  1  0
 11 12  1  0
 11 19  1  0
 11 20  1  0
 12 21  1  0
 12 22  1  0
 12 23  1  0
M  RAD  1   8   2
M  END
>  <reaction>  (13) 
rmg_rxn_590

>  <mol_properties>  (13) 
{"0": {"label": "*1", "atom_type": "Cs"}, "1": {"label": "*0", "atom_type": "N3d"}, "3": {"label": "*2", "atom_type": "H0"}, "7": {"label": "*3", "atom_type": "Cs"}, "8": {"label": "*4", "atom_type": "O2s"}}

>  <type>  (13) 
unop_9

>  <geom_source>  (13) 
Heuristics

$$$$

     RDKit          3D

 23 21  0  0  0  0  0  0  0  0999 V2000
    1.5605    1.0587   -1.5230 C   0  0  0  0  0  0  0  0  0  0  0  0
    1.5605   -0.2870   -2.1198 N   0  0  0  0  0  0  0  0  0  0  0  0
    1.5605   -0.2870   -3.3129 O   0  0  0  0  0  0  0  0  0  0  0  0
    0.5045    1.1301   -0.7504 H   0  0  0  0  0  0  0  0  0  0  0  0
    1.5605    1.8392   -2.2848 H   0  0  0  0  0  0  0  0  0  0  0  0
    2.4405    1.1182   -0.8792 H   0  0  0  0  0  0  0  0  0  0  0  0
    0.1103    2.4607    0.5289 C   0  0  0  0  0  0  0  0  0  0  0  0
   -0.5594    1.2021    0.0279 C   0  0  0  0  0  3  0  0  0  0  0  0
   -0.4886    0.2183    1.0282 O   0  0  0  0  0  0  0  0  0  0  0  0
   -1.0884   -0.9971    0.6567 C   0  0  0  0  0  0  0  0  0  0  0  0
   -0.9960   -1.9757    1.8096 C   0  0  0  0  0  0  0  0  0  0  0  0
   -1.7573   -1.5173    3.0464 C   0  0  0  0  0  0  0  0  0  0  0  0
    1.1562    2.2671    0.7695 H   0  0  0  0  0  0  0  0  0  0  0  0
    0.0680    3.2404   -0.2332 H   0  0  0  0  0  0  0  0  0  0  0  0
   -0.3875    2.8266    1.4276 H   0  0  0  0  0  0  0  0  0  0  0  0
   -1.6106    1.4015   -0.2277 H   0  0  0  0  0  0  0  0  0  0  0  0
   -2.1433   -0.8278    0.3884 H   0  0  0  0  0  0  0  0  0  0  0  0
   -0.5867   -1.4068   -0.2322 H   0  0  0  0  0  0  0  0  0  0  0  0
   -1.3828   -2.9387    1.4650 H   0  0  0  0  0  0  0  0  0  0  0  0
    0.0589   -2.1268    2.0529 H   0  0  0  0  0  0  0  0  0  0  0  0
   -2.8190   -1.3851    2.8236 H   0  0  0  0  0  0  0  0  0  0  0  0
   -1.6730   -2.2477    3.8524 H   0  0  0  0  0  0  0  0  0  0  0  0
   -1.3696   -0.5647    3.4074 H   0  0  0  0  0  0  0  0  0  0  0  0
  1  2  1  0
  1  4  1  0
  1  5  1  0
  1  6  1  0
  2  3  2  0
  7  8  1  0
  7 13  1  0
  7 14  1  0
  7 15  1  0
  8  9  1  0
  8 16  1  0
  9 10  1  0
 10 11  1  0
 10 17  1  0
 10 18  1  0
 11 12  1  0
 11 19  1  0
 11 20  1  0
 12 21  1  0
 12 22  1  0
 12 23  1  0
M  RAD  1   8   2
M  END
>  <reaction>  (14) 
rmg_rxn_590

>  <mol_properties>  (14) 
{"0": {"label": "*1", "atom_type": "Cs"}, "1": {"label": "*0", "atom_type": "N3d"}, "3": {"label": "*2", "atom_type": "H0"}, "7": {"label": "*3", "atom_type": "Cs"}, "8": {"label": "*4", "atom_type": "O2s"}}

>  <type>  (14) 
unop_10

>  <geom_source>  (14) 
Heuristics

$$$$

     RDKit          3D

 23 21  0  0  0  0  0  0  0  0999 V2000
    1.6030   -0.9283   -0.9314 C   0  0  0  0  0  0  0  0  0  0  0  0
    1.6030   -2.2741   -1.5283 N   0  0  0  0  0  0  0  0  0  0  0  0
    1.6030   -2.2741   -2.7214 O   0  0  0  0  0  0  0  0  0  0  0  0
    0.5470   -0.8569   -0.1589 H   0  0  0  0  0  0  0  0  0  0  0  0
    1.6030   -0.1478   -1.6932 H   0  0  0  0  0  0  0  0  0  0  0  0
    2.4831   -0.8688   -0.2876 H   0  0  0  0  0  0  0  0  0  0  0  0
   -1.6913   -1.7237    0.7711 C   0  0  0  0  0  0  0  0  0  0  0  0
   -0.5168   -0.7850    0.6195 C   0  0  0  0  0  3  0  0  0  0  0  0
   -0.9814    0.5397    0.6747 O   0  0  0  0  0  0  0  0  0  0  0  0
    0.0419    1.4940    0.5432 C   0  0  0  0  0  0  0  0  0  0  0  0
   -0.5506    2.8839    0.6544 C   0  0  0  0  0  0  0  0  0  0  0  0
   -1.1799    3.1594    2.0135 C   0  0  0  0  0  0  0  0  0  0  0  0
   -2.4149   -1.5628   -0.0287 H   0  0  0  0  0  0  0  0  0  0  0  0
   -1.3541   -2.7607    0.7307 H   0  0  0  0  0  0  0  0  0  0  0  0
   -2.1915   -1.5587    1.7261 H   0  0  0  0  0  0  0  0  0  0  0  0
    0.2191   -0.9576    1.4186 H   0  0  0  0  0  0  0  0  0  0  0  0
    0.7993    1.3421    1.3285 H   0  0  0  0  0  0  0  0  0  0  0  0
    0.5469    1.3713   -0.4262 H   0  0  0  0  0  0  0  0  0  0  0  0
    0.2462    3.6059    0.4553 H   0  0  0  0  0  0  0  0  0  0  0  0
   -1.2953    3.0081   -0.1361 H   0  0  0  0  0  0  0  0  0  0  0  0
   -0.4404    3.0622    2.8122 H   0  0  0  0  0  0  0  0  0  0  0  0
   -1.5905    4.1692    2.0587 H   0  0  0  0  0  0  0  0  0  0  0  0
   -1.9860    2.4542    2.2158 H   0  0  0  0  0  0  0  0  0  0  0  0
  1  2  1  0
  1  4  1  0
  1  5  1  0
  1  6  1  0
  2  3  2  0
  7  8  1  0
  7 13  1  0
  7 14  1  0
  7 15  1  0
  8  9  1  0
  8 16  1  0
  9 10  1  0
 10 11  1  0
 10 17  1  0
 10 18  1  0
 11 12  1  0
 11 19  1  0
 11 20  1  0
 12 21  1  0
 12 22  1  0
 12 23  1  0
M  RAD  1   8   2
M  END
>  <reaction>  (15) 
rmg_rxn_590

>  <mol_properties>  (15) 
{"0": {"label": "*1", "atom_type": "Cs"}, "1": {"label": "*0", "atom_type": "N3d"}, "3": {"label": "*2", "atom_type": "H0"}, "7": {"label": "*3", "atom_type": "Cs"}, "8": {"label": "*4", "atom_type": "O2s"}}

>  <type>  (15) 
unop_11

>  <geom_source>  (15) 
Heuristics

$$$$

     RDKit          3D

 23 21  0  0  0  0  0  0  0  0999 V2000
    2.1295    1.0954   -0.5748 C   0  0  0  0  0  0  0  0  0  0  0  0
    2.1295   -0.2504   -1.1716 N   0  0  0  0  0  0  0  0  0  0  0  0
    2.1295   -0.2504   -2.3647 O   0  0  0  0  0  0  0  0  0  0  0  0
    1.0735    1.1668    0.1978 H   0  0  0  0  0  0  0  0  0  0  0  0
    2.1295    1.8759   -1.3366 H   0  0  0  0  0  0  0  0  0  0  0  0
    3.0095    1.1549    0.0690 H   0  0  0  0  0  0  0  0  0  0  0  0
    0.4178    1.5200    2.4036 C   0  0  0  0  0  0  0  0  0  0  0  0
    0.0096    1.2387    0.9761 C   0  0  0  0  0  3  0  0  0  0  0  0
   -0.6975    0.0256    0.9343 O   0  0  0  0  0  0  0  0  0  0  0  0
   -1.1238   -0.3256   -0.3580 C   0  0  0  0  0  0  0  0  0  0  0  0
   -1.9065   -1.6212   -0.2937 C   0  0  0  0  0  0  0  0  0  0  0  0
   -3.1825   -1.5095    0.5300 C   0  0  0  0  0  0  0  0  0  0  0  0
    1.0536    0.7199    2.7840 H   0  0  0  0  0  0  0  0  0  0  0  0
    0.9702    2.4593    2.4608 H   0  0  0  0  0  0  0  0  0  0  0  0
   -0.4613    1.5952    3.0447 H   0  0  0  0  0  0  0  0  0  0  0  0
   -0.6202    2.0531    0.5887 H   0  0  0  0  0  0  0  0  0  0  0  0
   -1.7535    0.4760   -0.7757 H   0  0  0  0  0  0  0  0  0  0  0  0
   -0.2543   -0.4380   -1.0222 H   0  0  0  0  0  0  0  0  0  0  0  0
   -2.1449   -1.9211   -1.3179 H   0  0  0  0  0  0  0  0  0  0  0  0
   -1.2587   -2.3978    0.1211 H   0  0  0  0  0  0  0  0  0  0  0  0
   -3.8509   -0.7525    0.1123 H   0  0  0  0  0  0  0  0  0  0  0  0
   -3.7215   -2.4578    0.5496 H   0  0  0  0  0  0  0  0  0  0  0  0
   -2.9551   -1.2253    1.5575 H   0  0  0  0  0  0  0  0  0  0  0  0
  1  2  1  0
  1  4  1  0
  1  5  1  0
  1  6  1  0
  2  3  2  0
  7  8  1  0
  7 13  1  0
  7 14  1  0
  7 15  1  0
  8  9  1  0
  8 16  1  0
  9 10  1  0
 10 11  1  0
 10 17  1  0
 10 18  1  0
 11 12  1  0
 11 19  1  0
 11 20  1  0
 12 21  1  0
 12 22  1  0
 12 23  1  0
M  RAD  1   8   2
M  END
>  <reaction>  (16) 
rmg_rxn_590

>  <mol_properties>  (16) 
{"0": {"label": "*1", "atom_type": "Cs"}, "1": {"label": "*0", "atom_type": "N3d"}, "3": {"label": "*2", "atom_type": "H0"}, "7": {"label": "*3", "atom_type": "Cs"}, "8": {"label": "*4", "atom_type": "O2s"}}

>  <type>  (16) 
unop_12

>  <geom_source>  (16) 
Heuristics

$$$$

     RDKit          3D

 23 21  0  0  0  0  0  0  0  0999 V2000
    0.3820   -0.2815    0.1083 O   0  0  0  0  0  0  0  0  0  0  0  0
   -3.5538    0.3858    2.7818 O   0  0  0  0  0  0  0  0  0  0  0  0
   -3.2629    1.3121    2.0885 N   0  0  0  0  0  0  0  0  0  0  0  0
    2.7362   -0.2607   -0.3926 C   0  0  0  0  0  0  0  0  0  0  0  0
    1.3155   -0.1200   -0.9406 C   0  0  0  0  0  0  0  0  0  0  0  0
   -0.9394   -0.2820   -0.3982 C   0  0  0  0  0  3  0  0  0  0  0  0
    3.0784    0.8520    0.5963 C   0  0  0  0  0  0  0  0  0  0  0  0
   -1.4350   -1.7111   -0.5790 C   0  0  0  0  0  0  0  0  0  0  0  0
   -2.8261    1.0937    0.7368 C   0  0  0  0  0  0  0  0  0  0  0  0
    2.8444   -1.2466    0.1094 H   0  0  0  0  0  0  0  0  0  0  0  0
    3.4562   -0.2230   -1.2386 H   0  0  0  0  0  0  0  0  0  0  0  0
   -1.0591    0.2872   -1.3508 H   0  0  0  0  0  0  0  0  0  0  0  0
   -1.7451    0.3278    0.5230 H   0  0  0  0  0  0  0  0  0  0  0  0
    1.2063    0.8842   -1.4105 H   0  0  0  0  0  0  0  0  0  0  0  0
    1.1723   -0.9013   -1.7214 H   0  0  0  0  0  0  0  0  0  0  0  0
   -1.3567   -2.2620    0.3818 H   0  0  0  0  0  0  0  0  0  0  0  0
   -2.4977   -1.6973   -0.8993 H   0  0  0  0  0  0  0  0  0  0  0  0
   -0.8342   -2.2349   -1.3514 H   0  0  0  0  0  0  0  0  0  0  0  0
    2.4011    0.8129    1.4756 H   0  0  0  0  0  0  0  0  0  0  0  0
    4.1232    0.7250    0.9500 H   0  0  0  0  0  0  0  0  0  0  0  0
    2.9880    1.8451    0.1068 H   0  0  0  0  0  0  0  0  0  0  0  0
   -3.6446    0.6299    0.1468 H   0  0  0  0  0  0  0  0  0  0  0  0
   -2.5491    2.0647    0.2772 H   0  0  0  0  0  0  0  0  0  0  0  0
  1  6  1  0
  1  5  1  0
  2  3  2  0
  3  9  1  0
  4  7  1  0
  4  5  1  0
  4 10  1  0
  4 11  1  0
  5 14  1  0
  5 15  1  0
  6  8  1  0
  6 12  1  0
  7 19  1  0
  7 20  1  0
  7 21  1  0
  8 16  1  0
  8 17  1  0
  8 18  1  0
  9 13  1  0
  9 22  1  0
  9 23  1  0
M  RAD  1   6   2
M  END
>  <reaction>  (17) 
rmg_rxn_590

>  <mol_properties>  (17) 
{"0": {"label": "*1", "atom_type": "Cs"}, "1": {"label": "*0", "atom_type": "N3d"}, "3": {"label": "*2", "atom_type": "H0"}, "7": {"label": "*3", "atom_type": "Cs"}, "8": {"label": "*4", "atom_type": "O2s"}}

>  <type>  (17) 
unop_13

>  <geom_source>  (17) 
AutoTST

$$$$

     RDKit          3D

 23 21  0  0  0  0  0  0  0  0999 V2000
    1.8567    1.2273   -1.0659 C   0  0  0  0  0  0  0  0  0  0  0  0
    1.8567   -0.1184   -1.6627 N   0  0  0  0  0  0  0  0  0  0  0  0
    1.8567   -0.1184   -2.8558 O   0  0  0  0  0  0  0  0  0  0  0  0
    0.8007    1.2987   -0.2933 H   0  0  0  0  0  0  0  0  0  0  0  0
    1.8567    2.0078   -1.8277 H   0  0  0  0  0  0  0  0  0  0  0  0
    2.7367    1.2868   -0.4221 H   0  0  0  0  0  0  0  0  0  0  0  0
    0.4113    2.1827    1.5663 C   0  0  0  0  0  0  0  0  0  0  0  0
   -0.2632    1.3707    0.4850 C   0  0  0  0  0  3  0  0  0  0  0  0
   -0.5708    0.0982    0.9947 O   0  0  0  0  0  0  0  0  0  0  0  0
   -1.2055   -0.7371    0.0596 C   0  0  0  0  0  0  0  0  0  0  0  0
   -1.5302   -2.0654    0.7120 C   0  0  0  0  0  0  0  0  0  0  0  0
   -2.5147   -1.9402    1.8671 C   0  0  0  0  0  0  0  0  0  0  0  0
    1.3300    1.6947    1.8937 H   0  0  0  0  0  0  0  0  0  0  0  0
    0.6607    3.1770    1.1925 H   0  0  0  0  0  0  0  0  0  0  0  0
   -0.2468    2.2915    2.4291 H   0  0  0  0  0  0  0  0  0  0  0  0
   -1.1824    1.8706    0.1456 H   0  0  0  0  0  0  0  0  0  0  0  0
   -2.1289   -0.2590   -0.3041 H   0  0  0  0  0  0  0  0  0  0  0  0
   -0.5516   -0.8899   -0.8115 H   0  0  0  0  0  0  0  0  0  0  0  0
   -1.9355   -2.7278   -0.0578 H   0  0  0  0  0  0  0  0  0  0  0  0
   -0.5982   -2.5179    1.0606 H   0  0  0  0  0  0  0  0  0  0  0  0
   -3.4607   -1.5108    1.5279 H   0  0  0  0  0  0  0  0  0  0  0  0
   -2.7286   -2.9149    2.3081 H   0  0  0  0  0  0  0  0  0  0  0  0
   -2.1140   -1.2933    2.6475 H   0  0  0  0  0  0  0  0  0  0  0  0
  1  2  1  0
  1  4  1  0
  1  5  1  0
  1  6  1  0
  2  3  2  0
  7  8  1  0
  7 13  1  0
  7 14  1  0
  7 15  1  0
  8  9  1  0
  8 16  1  0
  9 10  1  0
 10 11  1  0
 10 17  1  0
 10 18  1  0
 11 12  1  0
 11 19  1  0
 11 20  1  0
 12 21  1  0
 12 22  1  0
 12 23  1  0
M  RAD  1   8   2
M  END
>  <reaction>  (18) 
rmg_rxn_590

>  <mol_properties>  (18) 
{"0": {"label": "*1", "atom_type": "Cs"}, "1": {"label": "*0", "atom_type": "N3d"}, "3": {"label": "*2", "atom_type": "H0"}, "7": {"label": "*3", "atom_type": "Cs"}, "8": {"label": "*4", "atom_type": "O2s"}}

>  <type>  (18) 
unop_14

>  <geom_source>  (18) 
gaussian_log

$$$$
