
     RDKit          3D

  9  8  0  0  0  0  0  0  0  0999 V2000
   -1.0314    0.2323   -0.1227 C   0  0  0  0  0  0  0  0  0  0  0  0
    0.3094   -0.4511    0.0063 C   0  0  0  0  0  0  0  0  0  0  0  0
    0.3197   -1.7698    0.6841 N   0  0  0  0  0  0  0  0  0  0  0  0
   -0.7498   -2.1455    1.0557 O   0  0  0  0  0  0  0  0  0  0  0  0
   -1.4744    0.4198    0.8552 H   0  0  0  0  0  0  0  0  0  0  0  0
   -0.9073    1.1865   -0.6350 H   0  0  0  0  0  0  0  0  0  0  0  0
   -1.7319   -0.3778   -0.6927 H   0  0  0  0  0  0  0  0  0  0  0  0
    1.0375    0.1401    0.5713 H   0  0  0  0  0  0  0  0  0  0  0  0
    0.7826   -0.6494   -0.9609 H   0  0  0  0  0  0  0  0  0  0  0  0
  1  2  1  0
  1  5  1  0
  1  6  1  0
  1  7  1  0
  2  3  1  0
  2  8  1  0
  2  9  1  0
  3  4  2  0
M  END
>  <reaction>  (1) 
rmg_rxn_26

>  <mol_properties>  (1) 
{"1": {"label": "donator", "atom_type": "Cs"}, "7": {"label": "d_hydrogen", "atom_type": "H0"}}

>  <type>  (1) 
r1h

$$$$

     RDKit          3D

 13 12  0  0  0  0  0  0  0  0999 V2000
    1.9060    0.2628    0.3980 C   0  0  0  0  0  0  0  0  0  0  0  0
    0.6330   -0.4250    0.0685 C   0  0  0  0  0  3  0  0  0  0  0  0
   -0.2610   -0.9325    1.1416 C   0  0  0  0  0  0  0  0  0  0  0  0
   -1.4364   -1.7546    0.6268 C   0  0  0  0  0  0  0  0  0  0  0  0
    2.4899   -0.3070    1.1292 H   0  0  0  0  0  0  0  0  0  0  0  0
    1.7297    1.2496    0.8515 H   0  0  0  0  0  0  0  0  0  0  0  0
    2.5269    0.4197   -0.4845 H   0  0  0  0  0  0  0  0  0  0  0  0
    0.2597   -0.3936   -0.9489 H   0  0  0  0  0  0  0  0  0  0  0  0
   -0.6439   -0.0868    1.7356 H   0  0  0  0  0  0  0  0  0  0  0  0
    0.3260   -1.5277    1.8536 H   0  0  0  0  0  0  0  0  0  0  0  0
   -1.0872   -2.6320    0.0792 H   0  0  0  0  0  0  0  0  0  0  0  0
   -2.0701   -2.0976    1.4459 H   0  0  0  0  0  0  0  0  0  0  0  0
   -2.0561   -1.1637   -0.0512 H   0  0  0  0  0  0  0  0  0  0  0  0
  1  2  1  0
  1  5  1  0
  1  6  1  0
  1  7  1  0
  2  3  1  0
  2  8  1  0
  3  4  1  0
  3  9  1  0
  3 10  1  0
  4 11  1  0
  4 12  1  0
  4 13  1  0
M  RAD  1   2   2
M  END
>  <reaction>  (2) 
rmg_rxn_26

>  <mol_properties>  (2) 
{"1": {"label": "acceptor", "atom_type": "Cs"}}

>  <type>  (2) 
r2

$$$$

     RDKit          3D

 14 13  0  0  0  0  0  0  0  0999 V2000
    1.8106   -0.5953    0.5577 C   0  0  0  0  0  0  0  0  0  0  0  0
    0.5197    0.2064    0.6554 C   0  0  0  0  0  0  0  0  0  0  0  0
   -0.5206   -0.2080   -0.3788 C   0  0  0  0  0  0  0  0  0  0  0  0
   -1.8114    0.5937   -0.2812 C   0  0  0  0  0  0  0  0  0  0  0  0
    2.2725   -0.4752   -0.4251 H   0  0  0  0  0  0  0  0  0  0  0  0
    1.6214   -1.6612    0.7052 H   0  0  0  0  0  0  0  0  0  0  0  0
    2.5364   -0.2784    1.3084 H   0  0  0  0  0  0  0  0  0  0  0  0
    0.0930    0.0950    1.6574 H   0  0  0  0  0  0  0  0  0  0  0  0
    0.7393    1.2723    0.5354 H   0  0  0  0  0  0  0  0  0  0  0  0
   -0.7402   -1.2739   -0.2588 H   0  0  0  0  0  0  0  0  0  0  0  0
   -0.0938   -0.0965   -1.3808 H   0  0  0  0  0  0  0  0  0  0  0  0
   -1.6222    1.6596   -0.4287 H   0  0  0  0  0  0  0  0  0  0  0  0
   -2.2734    0.4736    0.7017 H   0  0  0  0  0  0  0  0  0  0  0  0
   -2.5373    0.2768   -1.0318 H   0  0  0  0  0  0  0  0  0  0  0  0
  1  2  1  0
  1  5  1  0
  1  6  1  0
  1  7  1  0
  2  3  1  0
  2  8  1  0
  2  9  1  0
  3  4  1  0
  3 10  1  0
  3 11  1  0
  4 12  1  0
  4 13  1  0
  4 14  1  0
M  END
>  <reaction>  (3) 
rmg_rxn_26

>  <mol_properties>  (3) 
{"0": {"label": "a_hydrogen", "atom_type": "H0"}, "2": {"label": "acceptor", "atom_type": "Cs"}}

>  <type>  (3) 
r2h

$$$$

     RDKit          3D

 22 20  0  0  0  0  0  0  0  0999 V2000
   -0.7252    0.2931   -2.2026 C   0  0  0  0  0  0  0  0  0  0  0  0
   -1.1267   -0.0237   -0.7855 C   0  0  0  0  0  0  0  0  0  0  0  0
   -1.3338    1.0468    0.1294 N   0  0  0  0  0  0  0  0  0  0  0  0
   -0.7718    2.0845   -0.1610 O   0  0  0  0  0  0  0  0  0  0  0  0
    0.1556    0.9327   -2.2241 H   0  0  0  0  0  0  0  0  0  0  0  0
   -0.5097   -0.6292   -2.7429 H   0  0  0  0  0  0  0  0  0  0  0  0
   -1.5296    0.8166   -2.7232 H   0  0  0  0  0  0  0  0  0  0  0  0
   -0.1617   -0.6227   -0.2601 H   0  0  0  0  0  0  0  0  0  0  0  0
   -1.9325   -0.7474   -0.6700 H   0  0  0  0  0  0  0  0  0  0  0  0
    2.1631   -0.5762   -0.5069 C   0  0  0  0  0  0  0  0  0  0  0  0
    1.0671   -1.2309    0.2753 C   0  0  0  0  0  3  0  0  0  0  0  0
    0.9429   -0.8950    1.7314 C   0  0  0  0  0  0  0  0  0  0  0  0
   -0.2623   -1.5323    2.4097 C   0  0  0  0  0  0  0  0  0  0  0  0
    3.1429   -0.9219   -0.1558 H   0  0  0  0  0  0  0  0  0  0  0  0
    2.1381    0.5088   -0.3856 H   0  0  0  0  0  0  0  0  0  0  0  0
    2.0964   -0.8062   -1.5707 H   0  0  0  0  0  0  0  0  0  0  0  0
    0.8777   -2.2754    0.0282 H   0  0  0  0  0  0  0  0  0  0  0  0
    0.9035    0.1927    1.8470 H   0  0  0  0  0  0  0  0  0  0  0  0
    1.8651   -1.2154    2.2358 H   0  0  0  0  0  0  0  0  0  0  0  0
   -0.2499   -2.6184    2.2936 H   0  0  0  0  0  0  0  0  0  0  0  0
   -0.2728   -1.3089    3.4768 H   0  0  0  0  0  0  0  0  0  0  0  0
   -1.1923   -1.1519    1.9838 H   0  0  0  0  0  0  0  0  0  0  0  0
  1  2  1  0
  1  5  1  0
  1  6  1  0
  1  7  1  0
  2  3  1  0
  2  8  1  0
  2  9  1  0
  3  4  2  0
 10 11  1  0
 10 14  1  0
 10 15  1  0
 10 16  1  0
 11 12  1  0
 11 17  1  0
 12 13  1  0
 12 18  1  0
 12 19  1  0
 13 20  1  0
 13 21  1  0
 13 22  1  0
M  RAD  1  11   2
M  END
>  <reaction>  (4) 
rmg_rxn_26

>  <mol_properties>  (4) 
{"1": {"label": "*1", "atom_type": "Cs"}, "2": {"label": "*0", "atom_type": "N3d"}, "7": {"label": "*2", "atom_type": "H0"}, "10": {"label": "*3", "atom_type": "Cs"}, "11": {"label": "*4", "atom_type": "Cs"}}

>  <type>  (4) 
ts

$$$$

     RDKit          3D

 22 20  0  0  0  0  0  0  0  0999 V2000
   -1.2279   -0.1051   -2.1078 C   0  0  0  0  0  0  0  0  0  0  0  0
   -1.2279   -0.1051   -0.5973 C   0  0  0  0  0  0  0  0  0  0  0  0
   -1.2279    1.2209    0.0663 N   0  0  0  0  0  0  0  0  0  0  0  0
   -1.2279    2.1504   -0.6814 O   0  0  0  0  0  1  0  0  0  0  0  0
   -0.3478    0.4023   -2.5023 H   0  0  0  0  0  0  0  0  0  0  0  0
   -1.2279   -1.1322   -2.4731 H   0  0  0  0  0  0  0  0  0  0  0  0
   -2.1081    0.4023   -2.5023 H   0  0  0  0  0  0  0  0  0  0  0  0
   -0.1825   -0.7139   -0.0847 H   0  0  0  0  0  0  0  0  0  0  0  0
   -2.0991   -0.6124   -0.1701 H   0  0  0  0  0  0  0  0  0  0  0  0
    1.6846   -2.5371    0.0175 C   0  0  0  0  0  0  0  0  0  0  0  0
    0.8629   -1.3226    0.4278 C   0  0  0  0  0  0  0  0  0  0  0  0
    1.6447   -0.3344    1.2856 C   0  0  0  0  0  0  0  0  0  0  0  0
    0.8229    0.8801    1.6959 C   0  0  0  0  0  0  0  0  0  0  0  0
    2.0374   -3.0853    0.8943 H   0  0  0  0  0  0  0  0  0  0  0  0
    2.5627   -2.2385   -0.5601 H   0  0  0  0  0  0  0  0  0  0  0  0
    1.1014   -3.2268   -0.5947 H   0  0  0  0  0  0  0  0  0  0  0  0
   -0.0259   -1.6491    0.9774 H   0  0  0  0  0  0  0  0  0  0  0  0
    2.5334   -0.0079    0.7359 H   0  0  0  0  0  0  0  0  0  0  0  0
    2.0120   -0.8484    2.1797 H   0  0  0  0  0  0  0  0  0  0  0  0
   -0.0551    0.5815    2.2735 H   0  0  0  0  0  0  0  0  0  0  0  0
    1.4061    1.5698    2.3081 H   0  0  0  0  0  0  0  0  0  0  0  0
    0.4701    1.4283    0.8191 H   0  0  0  0  0  0  0  0  0  0  0  0
  1  2  1  0
  1  5  1  0
  1  6  1  0
  1  7  1  0
  2  3  2  3
  2  9  1  0
  3  4  1  0
  8 11  1  0
 10 11  1  0
 10 14  1  0
 10 15  1  0
 10 16  1  0
 11 12  1  0
 11 17  1  0
 12 13  1  0
 12 18  1  0
 12 19  1  0
 13 20  1  0
 13 21  1  0
 13 22  1  0
M  RAD  1   4   2
M  END
>  <reaction>  (5) 
rmg_rxn_26

>  <mol_properties>  (5) 
{"1": {"label": "*1", "atom_type": "Cs"}, "2": {"label": "*0", "atom_type": "N3d"}, "7": {"label": "*2", "atom_type": "H0"}, "10": {"label": "*3", "atom_type": "Cs"}, "11": {"label": "*4", "atom_type": "Cs"}}

>  <type>  (5) 
unop_1

>  <geom_source>  (5) 
Heuristics

$$$$

     RDKit          3D

 22 20  0  0  0  0  0  0  0  0999 V2000
   -1.3323    0.1028   -1.6516 C   0  0  0  0  0  0  0  0  0  0  0  0
   -1.3323    0.1028   -0.1411 C   0  0  0  0  0  0  0  0  0  0  0  0
   -1.3323    1.4288    0.5224 N   0  0  0  0  0  0  0  0  0  0  0  0
   -1.3323    2.3583   -0.2253 O   0  0  0  0  0  1  0  0  0  0  0  0
   -0.4522    0.6102   -2.0461 H   0  0  0  0  0  0  0  0  0  0  0  0
   -1.3323   -0.9243   -2.0169 H   0  0  0  0  0  0  0  0  0  0  0  0
   -2.2125    0.6102   -2.0461 H   0  0  0  0  0  0  0  0  0  0  0  0
   -0.2869   -0.5060    0.3714 H   0  0  0  0  0  0  0  0  0  0  0  0
   -2.2035   -0.4045    0.2860 H   0  0  0  0  0  0  0  0  0  0  0  0
    0.6774   -2.4932    1.5258 C   0  0  0  0  0  0  0  0  0  0  0  0
    0.7584   -1.1147    0.8840 C   0  0  0  0  0  0  0  0  0  0  0  0
    1.9383   -0.9684   -0.0700 C   0  0  0  0  0  0  0  0  0  0  0  0
    2.0194    0.4101   -0.7118 C   0  0  0  0  0  0  0  0  0  0  0  0
    1.5809   -2.7111    2.1002 H   0  0  0  0  0  0  0  0  0  0  0  0
    0.5727   -3.2725    0.7672 H   0  0  0  0  0  0  0  0  0  0  0  0
   -0.1750   -2.5701    2.2028 H   0  0  0  0  0  0  0  0  0  0  0  0
    0.8315   -0.3500    1.6641 H   0  0  0  0  0  0  0  0  0  0  0  0
    1.8653   -1.7330   -0.8501 H   0  0  0  0  0  0  0  0  0  0  0  0
    2.8660   -1.1758    0.4731 H   0  0  0  0  0  0  0  0  0  0  0  0
    2.1240    1.1894    0.0468 H   0  0  0  0  0  0  0  0  0  0  0  0
    2.8717    0.4870   -1.3888 H   0  0  0  0  0  0  0  0  0  0  0  0
    1.1159    0.6281   -1.2862 H   0  0  0  0  0  0  0  0  0  0  0  0
  1  2  1  0
  1  5  1  0
  1  6  1  0
  1  7  1  0
  2  3  2  3
  2  9  1  0
  3  4  1  0
  8 11  1  0
 10 11  1  0
 10 14  1  0
 10 15  1  0
 10 16  1  0
 11 12  1  0
 11 17  1  0
 12 13  1  0
 12 18  1  0
 12 19  1  0
 13 20  1  0
 13 21  1  0
 13 22  1  0
M  RAD  1   4   2
M  END
>  <reaction>  (6) 
rmg_rxn_26

>  <mol_properties>  (6) 
{"1": {"label": "*1", "atom_type": "Cs"}, "2": {"label": "*0", "atom_type": "N3d"}, "7": {"label": "*2", "atom_type": "H0"}, "10": {"label": "*3", "atom_type": "Cs"}, "11": {"label": "*4", "atom_type": "Cs"}}

>  <type>  (6) 
unop_2

>  <geom_source>  (6) 
Heuristics

$$$$

     RDKit          3D

 22 20  0  0  0  0  0  0  0  0999 V2000
   -1.1182   -0.0150   -2.2269 C   0  0  0  0  0  0  0  0  0  0  0  0
   -1.1182   -0.0150   -0.7165 C   0  0  0  0  0  0  0  0  0  0  0  0
   -1.1182    1.3109   -0.0529 N   0  0  0  0  0  0  0  0  0  0  0  0
   -1.1182    2.2405   -0.8006 O   0  0  0  0  0  1  0  0  0  0  0  0
   -0.2381    0.4923   -2.6214 H   0  0  0  0  0  0  0  0  0  0  0  0
   -1.1182   -1.0422   -2.5922 H   0  0  0  0  0  0  0  0  0  0  0  0
   -1.9983    0.4923   -2.6214 H   0  0  0  0  0  0  0  0  0  0  0  0
   -0.0728   -0.6238   -0.2039 H   0  0  0  0  0  0  0  0  0  0  0  0
   -1.9894   -0.5224   -0.2893 H   0  0  0  0  0  0  0  0  0  0  0  0
    2.1922   -1.7920   -0.4112 C   0  0  0  0  0  0  0  0  0  0  0  0
    0.9726   -1.2325    0.3087 C   0  0  0  0  0  0  0  0  0  0  0  0
    1.3114   -0.5964    1.6518 C   0  0  0  0  0  0  0  0  0  0  0  0
    0.0918   -0.0369    2.3717 C   0  0  0  0  0  0  0  0  0  0  0  0
    2.6836   -2.5602    0.1906 H   0  0  0  0  0  0  0  0  0  0  0  0
    2.9260   -1.0064   -0.6064 H   0  0  0  0  0  0  0  0  0  0  0  0
    1.9213   -2.2407   -1.3683 H   0  0  0  0  0  0  0  0  0  0  0  0
    0.2400   -2.0310    0.4650 H   0  0  0  0  0  0  0  0  0  0  0  0
    2.0440    0.2020    1.4955 H   0  0  0  0  0  0  0  0  0  0  0  0
    1.8034   -1.3404    2.2867 H   0  0  0  0  0  0  0  0  0  0  0  0
   -0.6420   -0.8226    2.5669 H   0  0  0  0  0  0  0  0  0  0  0  0
    0.3627    0.4117    3.3288 H   0  0  0  0  0  0  0  0  0  0  0  0
   -0.3997    0.7313    1.7699 H   0  0  0  0  0  0  0  0  0  0  0  0
  1  2  1  0
  1  5  1  0
  1  6  1  0
  1  7  1  0
  2  3  2  3
  2  9  1  0
  3  4  1  0
  8 11  1  0
 10 11  1  0
 10 14  1  0
 10 15  1  0
 10 16  1  0
 11 12  1  0
 11 17  1  0
 12 13  1  0
 12 18  1  0
 12 19  1  0
 13 20  1  0
 13 21  1  0
 13 22  1  0
M  RAD  1   4   2
M  END
>  <reaction>  (7) 
rmg_rxn_26

>  <mol_properties>  (7) 
{"1": {"label": "*1", "atom_type": "Cs"}, "2": {"label": "*0", "atom_type": "N3d"}, "7": {"label": "*2", "atom_type": "H0"}, "10": {"label": "*3", "atom_type": "Cs"}, "11": {"label": "*4", "atom_type": "Cs"}}

>  <type>  (7) 
unop_3

>  <geom_source>  (7) 
Heuristics

$$$$

     RDKit          3D

 22 20  0  0  0  0  0  0  0  0999 V2000
   -1.0361    0.5058   -1.7751 C   0  0  0  0  0  0  0  0  0  0  0  0
   -1.0361    0.5058   -0.2646 C   0  0  0  0  0  0  0  0  0  0  0  0
   -1.0361    1.8318    0.3990 N   0  0  0  0  0  0  0  0  0  0  0  0
   -1.0361    2.7613   -0.3487 O   0  0  0  0  0  1  0  0  0  0  0  0
   -0.1559    1.0132   -2.1696 H   0  0  0  0  0  0  0  0  0  0  0  0
   -1.0361   -0.5213   -2.1404 H   0  0  0  0  0  0  0  0  0  0  0  0
   -1.9162    1.0132   -2.1696 H   0  0  0  0  0  0  0  0  0  0  0  0
    0.0094   -0.1030    0.2480 H   0  0  0  0  0  0  0  0  0  0  0  0
   -1.9073   -0.0015    0.1625 H   0  0  0  0  0  0  0  0  0  0  0  0
    0.3007   -0.5133    2.0684 C   0  0  0  0  0  0  0  0  0  0  0  0
    1.0547   -0.7117    0.7605 C   0  0  0  0  0  0  0  0  0  0  0  0
    1.0667   -2.1622    0.2920 C   0  0  0  0  0  0  0  0  0  0  0  0
    1.8207   -2.3606   -1.0159 C   0  0  0  0  0  0  0  0  0  0  0  0
    0.7477   -1.1041    2.8715 H   0  0  0  0  0  0  0  0  0  0  0  0
   -0.7418   -0.8254    1.9704 H   0  0  0  0  0  0  0  0  0  0  0  0
    0.3079    0.5324    2.3801 H   0  0  0  0  0  0  0  0  0  0  0  0
    2.0864   -0.3636    0.8749 H   0  0  0  0  0  0  0  0  0  0  0  0
    0.0350   -2.5103    0.1777 H   0  0  0  0  0  0  0  0  0  0  0  0
    1.5136   -2.7870    1.0721 H   0  0  0  0  0  0  0  0  0  0  0  0
    2.8632   -2.0485   -0.9179 H   0  0  0  0  0  0  0  0  0  0  0  0
    1.8135   -3.4063   -1.3275 H   0  0  0  0  0  0  0  0  0  0  0  0
    1.3737   -1.7698   -1.8189 H   0  0  0  0  0  0  0  0  0  0  0  0
  1  2  1  0
  1  5  1  0
  1  6  1  0
  1  7  1  0
  2  3  2  3
  2  9  1  0
  3  4  1  0
  8 11  1  0
 10 11  1  0
 10 14  1  0
 10 15  1  0
 10 16  1  0
 11 12  1  0
 11 17  1  0
 12 13  1  0
 12 18  1  0
 12 19  1  0
 13 20  1  0
 13 21  1  0
 13 22  1  0
M  RAD  1   4   2
M  END
>  <reaction>  (8) 
rmg_rxn_26

>  <mol_properties>  (8) 
{"1": {"label": "*1", "atom_type": "Cs"}, "2": {"label": "*0", "atom_type": "N3d"}, "7": {"label": "*2", "atom_type": "H0"}, "10": {"label": "*3", "atom_type": "Cs"}, "11": {"label": "*4", "atom_type": "Cs"}}

>  <type>  (8) 
unop_4

>  <geom_source>  (8) 
Heuristics

$$$$

     RDKit          3D

 22 20  0  0  0  0  0  0  0  0999 V2000
   -1.0146    0.1291   -2.2696 C   0  0  0  0  0  0  0  0  0  0  0  0
   -1.0146    0.1291   -0.7591 C   0  0  0  0  0  0  0  0  0  0  0  0
   -1.0146    1.4550   -0.0955 N   0  0  0  0  0  0  0  0  0  0  0  0
   -1.0146    2.3846   -0.8432 O   0  0  0  0  0  1  0  0  0  0  0  0
   -0.1344    0.6365   -2.6641 H   0  0  0  0  0  0  0  0  0  0  0  0
   -1.0146   -0.8981   -2.6349 H   0  0  0  0  0  0  0  0  0  0  0  0
   -1.8947    0.6365   -2.6641 H   0  0  0  0  0  0  0  0  0  0  0  0
    0.0309   -0.4797   -0.2465 H   0  0  0  0  0  0  0  0  0  0  0  0
   -1.8858   -0.3782   -0.3319 H   0  0  0  0  0  0  0  0  0  0  0  0
    2.3515   -0.4599   -0.2790 C   0  0  0  0  0  0  0  0  0  0  0  0
    1.0762   -1.0884    0.2660 C   0  0  0  0  0  0  0  0  0  0  0  0
    0.9875   -1.0368    1.7869 C   0  0  0  0  0  0  0  0  0  0  0  0
   -0.2878   -1.6653    2.3319 C   0  0  0  0  0  0  0  0  0  0  0  0
    3.2362   -0.9699    0.1095 H   0  0  0  0  0  0  0  0  0  0  0  0
    2.4238    0.5916    0.0091 H   0  0  0  0  0  0  0  0  0  0  0  0
    2.3889   -0.5105   -1.3684 H   0  0  0  0  0  0  0  0  0  0  0  0
    1.0116   -2.1311   -0.0614 H   0  0  0  0  0  0  0  0  0  0  0  0
    1.0521    0.0059    2.1143 H   0  0  0  0  0  0  0  0  0  0  0  0
    1.8586   -1.5440    2.2140 H   0  0  0  0  0  0  0  0  0  0  0  0
   -0.3600   -2.7168    2.0438 H   0  0  0  0  0  0  0  0  0  0  0  0
   -0.3252   -1.6147    3.4213 H   0  0  0  0  0  0  0  0  0  0  0  0
   -1.1725   -1.1553    1.9434 H   0  0  0  0  0  0  0  0  0  0  0  0
  1  2  1  0
  1  5  1  0
  1  6  1  0
  1  7  1  0
  2  3  2  3
  2  9  1  0
  3  4  1  0
  8 11  1  0
 10 11  1  0
 10 14  1  0
 10 15  1  0
 10 16  1  0
 11 12  1  0
 11 17  1  0
 12 13  1  0
 12 18  1  0
 12 19  1  0
 13 20  1  0
 13 21  1  0
 13 22  1  0
M  RAD  1   4   2
M  END
>  <reaction>  (9) 
rmg_rxn_26

>  <mol_properties>  (9) 
{"1": {"label": "*1", "atom_type": "Cs"}, "2": {"label": "*0", "atom_type": "N3d"}, "7": {"label": "*2", "atom_type": "H0"}, "10": {"label": "*3", "atom_type": "Cs"}, "11": {"label": "*4", "atom_type": "Cs"}}

>  <type>  (9) 
unop_5

>  <geom_source>  (9) 
Heuristics

$$$$

     RDKit          3D

 22 20  0  0  0  0  0  0  0  0999 V2000
   -0.9510    0.5097   -1.9423 C   0  0  0  0  0  0  0  0  0  0  0  0
   -0.9510    0.5097   -0.4319 C   0  0  0  0  0  0  0  0  0  0  0  0
   -0.9510    1.8357    0.2317 N   0  0  0  0  0  0  0  0  0  0  0  0
   -0.9510    2.7652   -0.5160 O   0  0  0  0  0  1  0  0  0  0  0  0
   -0.0709    1.0171   -2.3368 H   0  0  0  0  0  0  0  0  0  0  0  0
   -0.9510   -0.5174   -2.3076 H   0  0  0  0  0  0  0  0  0  0  0  0
   -1.8311    1.0171   -2.3368 H   0  0  0  0  0  0  0  0  0  0  0  0
    0.0944   -0.0991    0.0807 H   0  0  0  0  0  0  0  0  0  0  0  0
   -1.8222    0.0024   -0.0047 H   0  0  0  0  0  0  0  0  0  0  0  0
    0.6511    0.1682    1.7389 C   0  0  0  0  0  0  0  0  0  0  0  0
    1.1398   -0.7078    0.5933 C   0  0  0  0  0  0  0  0  0  0  0  0
    0.8118   -2.1836    0.7879 C   0  0  0  0  0  0  0  0  0  0  0  0
    1.3005   -3.0596   -0.3578 C   0  0  0  0  0  0  0  0  0  0  0  0
    1.1036   -0.1370    2.6854 H   0  0  0  0  0  0  0  0  0  0  0  0
   -0.4331    0.0947    1.8528 H   0  0  0  0  0  0  0  0  0  0  0  0
    0.8987    1.2180    1.5739 H   0  0  0  0  0  0  0  0  0  0  0  0
    2.2226   -0.5934    0.4795 H   0  0  0  0  0  0  0  0  0  0  0  0
   -0.2710   -2.2981    0.9017 H   0  0  0  0  0  0  0  0  0  0  0  0
    1.2544   -2.5280    1.7282 H   0  0  0  0  0  0  0  0  0  0  0  0
    2.3847   -2.9862   -0.4717 H   0  0  0  0  0  0  0  0  0  0  0  0
    1.0528   -4.1095   -0.1928 H   0  0  0  0  0  0  0  0  0  0  0  0
    0.8479   -2.7545   -1.3043 H   0  0  0  0  0  0  0  0  0  0  0  0
  1  2  1  0
  1  5  1  0
  1  6  1  0
  1  7  1  0
  2  3  2  3
  2  9  1  0
  3  4  1  0
  8 11  1  0
 10 11  1  0
 10 14  1  0
 10 15  1  0
 10 16  1  0
 11 12  1  0
 11 17  1  0
 12 13  1  0
 12 18  1  0
 12 19  1  0
 13 20  1  0
 13 21  1  0
 13 22  1  0
M  RAD  1   4   2
M  END
>  <reaction>  (10) 
rmg_rxn_26

>  <mol_properties>  (10) 
{"1": {"label": "*1", "atom_type": "Cs"}, "2": {"label": "*0", "atom_type": "N3d"}, "7": {"label": "*2", "atom_type": "H0"}, "10": {"label": "*3", "atom_type": "Cs"}, "11": {"label": "*4", "atom_type": "Cs"}}

>  <type>  (10) 
unop_6

>  <geom_source>  (10) 
Heuristics

$$$$

     RDKit          3D

 22 20  0  0  0  0  0  0  0  0999 V2000
   -0.9162    0.4302   -2.1078 C   0  0  0  0  0  0  0  0  0  0  0  0
   -0.9162    0.4302   -0.5973 C   0  0  0  0  0  0  0  0  0  0  0  0
   -0.9162    1.7562    0.0663 N   0  0  0  0  0  0  0  0  0  0  0  0
   -0.9162    2.6857   -0.6814 O   0  0  0  0  0  1  0  0  0  0  0  0
   -0.0361    0.9376   -2.5023 H   0  0  0  0  0  0  0  0  0  0  0  0
   -0.9162   -0.5969   -2.4731 H   0  0  0  0  0  0  0  0  0  0  0  0
   -1.7963    0.9376   -2.5023 H   0  0  0  0  0  0  0  0  0  0  0  0
    0.1292   -0.1786   -0.0847 H   0  0  0  0  0  0  0  0  0  0  0  0
   -1.7874   -0.0771   -0.1701 H   0  0  0  0  0  0  0  0  0  0  0  0
    1.1522    0.5438    1.1670 C   0  0  0  0  0  0  0  0  0  0  0  0
    1.1746   -0.7873    0.4278 C   0  0  0  0  0  0  0  0  0  0  0  0
    0.7010   -1.9550    1.2856 C   0  0  0  0  0  0  0  0  0  0  0  0
    0.7233   -3.2860    0.5463 C   0  0  0  0  0  0  0  0  0  0  0  0
    1.7975    0.5130    2.0482 H   0  0  0  0  0  0  0  0  0  0  0  0
    0.1423    0.7862    1.5062 H   0  0  0  0  0  0  0  0  0  0  0  0
    1.4955    1.3610    0.5306 H   0  0  0  0  0  0  0  0  0  0  0  0
    2.1893   -0.9927    0.0718 H   0  0  0  0  0  0  0  0  0  0  0  0
   -0.3137   -1.7496    1.6416 H   0  0  0  0  0  0  0  0  0  0  0  0
    1.3293   -2.0208    2.1797 H   0  0  0  0  0  0  0  0  0  0  0  0
    1.7333   -3.5284    0.2072 H   0  0  0  0  0  0  0  0  0  0  0  0
    0.3800   -4.1033    1.1828 H   0  0  0  0  0  0  0  0  0  0  0  0
    0.0780   -3.2552   -0.3348 H   0  0  0  0  0  0  0  0  0  0  0  0
  1  2  1  0
  1  5  1  0
  1  6  1  0
  1  7  1  0
  2  3  2  3
  2  9  1  0
  3  4  1  0
  8 11  1  0
 10 11  1  0
 10 14  1  0
 10 15  1  0
 10 16  1  0
 11 12  1  0
 11 17  1  0
 12 13  1  0
 12 18  1  0
 12 19  1  0
 13 20  1  0
 13 21  1  0
 13 22  1  0
M  RAD  1   4   2
M  END
>  <reaction>  (11) 
rmg_rxn_26

>  <mol_properties>  (11) 
{"1": {"label": "*1", "atom_type": "Cs"}, "2": {"label": "*0", "atom_type": "N3d"}, "7": {"label": "*2", "atom_type": "H0"}, "10": {"label": "*3", "atom_type": "Cs"}, "11": {"label": "*4", "atom_type": "Cs"}}

>  <type>  (11) 
unop_7

>  <geom_source>  (11) 
Heuristics

$$$$

     RDKit          3D

 22 20  0  0  0  0  0  0  0  0999 V2000
   -1.3142   -0.1140   -1.9423 C   0  0  0  0  0  0  0  0  0  0  0  0
   -1.3142   -0.1140   -0.4319 C   0  0  0  0  0  0  0  0  0  0  0  0
   -1.3142    1.2119    0.2317 N   0  0  0  0  0  0  0  0  0  0  0  0
   -1.3142    2.1415   -0.5160 O   0  0  0  0  0  1  0  0  0  0  0  0
   -0.4341    0.3933   -2.3368 H   0  0  0  0  0  0  0  0  0  0  0  0
   -1.3142   -1.1412   -2.3076 H   0  0  0  0  0  0  0  0  0  0  0  0
   -2.1944    0.3933   -2.3368 H   0  0  0  0  0  0  0  0  0  0  0  0
   -0.2688   -0.7228    0.0807 H   0  0  0  0  0  0  0  0  0  0  0  0
   -2.1854   -0.6213   -0.0047 H   0  0  0  0  0  0  0  0  0  0  0  0
    1.2687   -2.7725    0.5876 C   0  0  0  0  0  0  0  0  0  0  0  0
    0.7765   -1.3315    0.5933 C   0  0  0  0  0  0  0  0  0  0  0  0
    1.8983   -0.3180    0.7879 C   0  0  0  0  0  0  0  0  0  0  0  0
    1.4062    1.1230    0.7935 C   0  0  0  0  0  0  0  0  0  0  0  0
    1.7630   -3.0209    1.5298 H   0  0  0  0  0  0  0  0  0  0  0  0
    1.9898   -2.9366   -0.2166 H   0  0  0  0  0  0  0  0  0  0  0  0
    0.4463   -3.4759    0.4469 H   0  0  0  0  0  0  0  0  0  0  0  0
    0.0335   -1.2003    1.3865 H   0  0  0  0  0  0  0  0  0  0  0  0
    2.6413   -0.4492   -0.0053 H   0  0  0  0  0  0  0  0  0  0  0  0
    2.4162   -0.5329    1.7282 H   0  0  0  0  0  0  0  0  0  0  0  0
    0.6850    1.2871    1.5977 H   0  0  0  0  0  0  0  0  0  0  0  0
    2.2285    1.8264    0.9343 H   0  0  0  0  0  0  0  0  0  0  0  0
    0.9118    1.3714   -0.1486 H   0  0  0  0  0  0  0  0  0  0  0  0
  1  2  1  0
  1  5  1  0
  1  6  1  0
  1  7  1  0
  2  3  2  3
  2  9  1  0
  3  4  1  0
  8 11  1  0
 10 11  1  0
 10 14  1  0
 10 15  1  0
 10 16  1  0
 11 12  1  0
 11 17  1  0
 12 13  1  0
 12 18  1  0
 12 19  1  0
 13 20  1  0
 13 21  1  0
 13 22  1  0
M  RAD  1   4   2
M  END
>  <reaction>  (12) 
rmg_rxn_26

>  <mol_properties>  (12) 
{"1": {"label": "*1", "atom_type": "Cs"}, "2": {"label": "*0", "atom_type": "N3d"}, "7": {"label": "*2", "atom_type": "H0"}, "10": {"label": "*3", "atom_type": "Cs"}, "11": {"label": "*4", "atom_type": "Cs"}}

>  <type>  (12) 
unop_8

>  <geom_source>  (12) 
Heuristics

$$$$

     RDKit          3D

 22 20  0  0  0  0  0  0  0  0999 V2000
   -1.1485    0.4184   -1.6516 C   0  0  0  0  0  0  0  0  0  0  0  0
   -1.1485    0.4184   -0.1411 C   0  0  0  0  0  0  0  0  0  0  0  0
   -1.1485    1.7444    0.5224 N   0  0  0  0  0  0  0  0  0  0  0  0
   -1.1485    2.6739   -0.2253 O   0  0  0  0  0  1  0  0  0  0  0  0
   -0.2684    0.9258   -2.0461 H   0  0  0  0  0  0  0  0  0  0  0  0
   -1.1485   -0.6087   -2.0169 H   0  0  0  0  0  0  0  0  0  0  0  0
   -2.0287    0.9258   -2.0461 H   0  0  0  0  0  0  0  0  0  0  0  0
   -0.1031   -0.1904    0.3714 H   0  0  0  0  0  0  0  0  0  0  0  0
   -2.0197   -0.0889    0.2860 H   0  0  0  0  0  0  0  0  0  0  0  0
    0.1947   -1.3347    2.0976 C   0  0  0  0  0  0  0  0  0  0  0  0
    0.9422   -0.7991    0.8840 C   0  0  0  0  0  0  0  0  0  0  0  0
    1.3973   -1.8975   -0.0700 C   0  0  0  0  0  0  0  0  0  0  0  0
    2.1448   -1.3619   -1.2836 C   0  0  0  0  0  0  0  0  0  0  0  0
    0.8230   -2.0177    2.6742 H   0  0  0  0  0  0  0  0  0  0  0  0
   -0.6994   -1.8849    1.7951 H   0  0  0  0  0  0  0  0  0  0  0  0
   -0.1189   -0.5284    2.7626 H   0  0  0  0  0  0  0  0  0  0  0  0
    1.8152   -0.2265    1.2136 H   0  0  0  0  0  0  0  0  0  0  0  0
    0.5243   -2.4701   -0.3995 H   0  0  0  0  0  0  0  0  0  0  0  0
    2.0355   -2.6019    0.4731 H   0  0  0  0  0  0  0  0  0  0  0  0
    3.0390   -0.8116   -0.9811 H   0  0  0  0  0  0  0  0  0  0  0  0
    2.4585   -2.1682   -1.9486 H   0  0  0  0  0  0  0  0  0  0  0  0
    1.5165   -0.6788   -1.8602 H   0  0  0  0  0  0  0  0  0  0  0  0
  1  2  1  0
  1  5  1  0
  1  6  1  0
  1  7  1  0
  2  3  2  3
  2  9  1  0
  3  4  1  0
  8 11  1  0
 10 11  1  0
 10 14  1  0
 10 15  1  0
 10 16  1  0
 11 12  1  0
 11 17  1  0
 12 13  1  0
 12 18  1  0
 12 19  1  0
 13 20  1  0
 13 21  1  0
 13 22  1  0
M  RAD  1   4   2
M  END
>  <reaction>  (13) 
rmg_rxn_26

>  <mol_properties>  (13) 
{"1": {"label": "*1", "atom_type": "Cs"}, "2": {"label": "*0", "atom_type": "N3d"}, "7": {"label": "*2", "atom_type": "H0"}, "10": {"label": "*3", "atom_type": "Cs"}, "11": {"label": "*4", "atom_type": "Cs"}}

>  <type>  (13) 
unop_9

>  <geom_source>  (13) 
Heuristics

$$$$

     RDKit          3D

 22 20  0  0  0  0  0  0  0  0999 V2000
   -1.3528   -0.0381   -1.7751 C   0  0  0  0  0  0  0  0  0  0  0  0
   -1.3528   -0.0381   -0.2646 C   0  0  0  0  0  0  0  0  0  0  0  0
   -1.3528    1.2878    0.3990 N   0  0  0  0  0  0  0  0  0  0  0  0
   -1.3528    2.2174   -0.3487 O   0  0  0  0  0  1  0  0  0  0  0  0
   -0.4727    0.4692   -2.1696 H   0  0  0  0  0  0  0  0  0  0  0  0
   -1.3528   -1.0653   -2.1404 H   0  0  0  0  0  0  0  0  0  0  0  0
   -2.2329    0.4692   -2.1696 H   0  0  0  0  0  0  0  0  0  0  0  0
   -0.3074   -0.6469    0.2480 H   0  0  0  0  0  0  0  0  0  0  0  0
   -2.2240   -0.5454    0.1625 H   0  0  0  0  0  0  0  0  0  0  0  0
    0.9637   -2.7215    1.1055 C   0  0  0  0  0  0  0  0  0  0  0  0
    0.7380   -1.2556    0.7605 C   0  0  0  0  0  0  0  0  0  0  0  0
    2.0054   -0.5502    0.2920 C   0  0  0  0  0  0  0  0  0  0  0  0
    1.7797    0.9156   -0.0530 C   0  0  0  0  0  0  0  0  0  0  0  0
    1.7011   -2.8264    1.9049 H   0  0  0  0  0  0  0  0  0  0  0  0
    1.3350   -3.2746    0.2395 H   0  0  0  0  0  0  0  0  0  0  0  0
    0.0415   -3.2013    1.4374 H   0  0  0  0  0  0  0  0  0  0  0  0
    0.3374   -0.7303    1.6335 H   0  0  0  0  0  0  0  0  0  0  0  0
    2.4060   -1.0756   -0.5810 H   0  0  0  0  0  0  0  0  0  0  0  0
    2.7694   -0.6306    1.0721 H   0  0  0  0  0  0  0  0  0  0  0  0
    1.4084    1.4688    0.8130 H   0  0  0  0  0  0  0  0  0  0  0  0
    2.7019    1.3954   -0.3848 H   0  0  0  0  0  0  0  0  0  0  0  0
    1.0423    1.0205   -0.8523 H   0  0  0  0  0  0  0  0  0  0  0  0
  1  2  1  0
  1  5  1  0
  1  6  1  0
  1  7  1  0
  2  3  2  3
  2  9  1  0
  3  4  1  0
  8 11  1  0
 10 11  1  0
 10 14  1  0
 10 15  1  0
 10 16  1  0
 11 12  1  0
 11 17  1  0
 12 13  1  0
 12 18  1  0
 12 19  1  0
 13 20  1  0
 13 21  1  0
 13 22  1  0
M  RAD  1   4   2
M  END
>  <reaction>  (14) 
rmg_rxn_26

>  <mol_properties>  (14) 
{"1": {"label": "*1", "atom_type": "Cs"}, "2": {"label": "*0", "atom_type": "N3d"}, "7": {"label": "*2", "atom_type": "H0"}, "10": {"label": "*3", "atom_type": "Cs"}, "11": {"label": "*4", "atom_type": "Cs"}}

>  <type>  (14) 
unop_10

>  <geom_source>  (14) 
Heuristics

$$$$

     RDKit          3D

 22 20  0  0  0  0  0  0  0  0999 V2000
   -0.9404    0.2903   -2.2269 C   0  0  0  0  0  0  0  0  0  0  0  0
   -0.9404    0.2903   -0.7165 C   0  0  0  0  0  0  0  0  0  0  0  0
   -0.9404    1.6163   -0.0529 N   0  0  0  0  0  0  0  0  0  0  0  0
   -0.9404    2.5459   -0.8006 O   0  0  0  0  0  1  0  0  0  0  0  0
   -0.0602    0.7977   -2.6214 H   0  0  0  0  0  0  0  0  0  0  0  0
   -0.9404   -0.7368   -2.5922 H   0  0  0  0  0  0  0  0  0  0  0  0
   -1.8205    0.7977   -2.6214 H   0  0  0  0  0  0  0  0  0  0  0  0
    0.1051   -0.3184   -0.2039 H   0  0  0  0  0  0  0  0  0  0  0  0
   -1.8116   -0.2170   -0.2893 H   0  0  0  0  0  0  0  0  0  0  0  0
    1.7809    0.4528    0.4379 C   0  0  0  0  0  0  0  0  0  0  0  0
    1.1504   -0.9272    0.3087 C   0  0  0  0  0  0  0  0  0  0  0  0
    0.7644   -1.5358    1.6518 C   0  0  0  0  0  0  0  0  0  0  0  0
    0.1339   -2.9158    1.5226 C   0  0  0  0  0  0  0  0  0  0  0  0
    2.6898    0.4127    1.0429 H   0  0  0  0  0  0  0  0  0  0  0  0
    1.0945    1.1531    0.9199 H   0  0  0  0  0  0  0  0  0  0  0  0
    2.0471    0.8643   -0.5370 H   0  0  0  0  0  0  0  0  0  0  0  0
    1.8441   -1.6014   -0.2040 H   0  0  0  0  0  0  0  0  0  0  0  0
    0.0707   -0.8616    2.1645 H   0  0  0  0  0  0  0  0  0  0  0  0
    1.6542   -1.5965    2.2867 H   0  0  0  0  0  0  0  0  0  0  0  0
    0.8203   -3.6160    1.0406 H   0  0  0  0  0  0  0  0  0  0  0  0
   -0.1323   -3.3272    2.4975 H   0  0  0  0  0  0  0  0  0  0  0  0
   -0.7751   -2.8757    0.9176 H   0  0  0  0  0  0  0  0  0  0  0  0
  1  2  1  0
  1  5  1  0
  1  6  1  0
  1  7  1  0
  2  3  2  3
  2  9  1  0
  3  4  1  0
  8 11  1  0
 10 11  1  0
 10 14  1  0
 10 15  1  0
 10 16  1  0
 11 12  1  0
 11 17  1  0
 12 13  1  0
 12 18  1  0
 12 19  1  0
 13 20  1  0
 13 21  1  0
 13 22  1  0
M  RAD  1   4   2
M  END
>  <reaction>  (15) 
rmg_rxn_26

>  <mol_properties>  (15) 
{"1": {"label": "*1", "atom_type": "Cs"}, "2": {"label": "*0", "atom_type": "N3d"}, "7": {"label": "*2", "atom_type": "H0"}, "10": {"label": "*3", "atom_type": "Cs"}, "11": {"label": "*4", "atom_type": "Cs"}}

>  <type>  (15) 
unop_11

>  <geom_source>  (15) 
Heuristics

$$$$

     RDKit          3D

 22 20  0  0  0  0  0  0  0  0999 V2000
   -1.2575    0.2705   -1.6062 C   0  0  0  0  0  0  0  0  0  0  0  0
   -1.2575    0.2705   -0.0957 C   0  0  0  0  0  0  0  0  0  0  0  0
   -1.2575    1.5965    0.5679 N   0  0  0  0  0  0  0  0  0  0  0  0
   -1.2575    2.5261   -0.1798 O   0  0  0  0  0  1  0  0  0  0  0  0
   -0.3773    0.7779   -2.0007 H   0  0  0  0  0  0  0  0  0  0  0  0
   -1.2575   -0.7566   -1.9715 H   0  0  0  0  0  0  0  0  0  0  0  0
   -2.1376    0.7779   -2.0007 H   0  0  0  0  0  0  0  0  0  0  0  0
   -0.2120   -0.3382    0.4169 H   0  0  0  0  0  0  0  0  0  0  0  0
   -2.1287   -0.2368    0.3315 H   0  0  0  0  0  0  0  0  0  0  0  0
    0.3710   -2.0489    1.8731 C   0  0  0  0  0  0  0  0  0  0  0  0
    0.8333   -0.9470    0.9294 C   0  0  0  0  0  0  0  0  0  0  0  0
    1.7158   -1.4609   -0.2022 C   0  0  0  0  0  0  0  0  0  0  0  0
    2.1782   -0.3589   -1.1459 C   0  0  0  0  0  0  0  0  0  0  0  0
    1.2238   -2.5507    2.3365 H   0  0  0  0  0  0  0  0  0  0  0  0
   -0.2062   -2.8063    1.3374 H   0  0  0  0  0  0  0  0  0  0  0  0
   -0.2581   -1.6538    2.6724 H   0  0  0  0  0  0  0  0  0  0  0  0
    1.3816   -0.1860    1.4940 H   0  0  0  0  0  0  0  0  0  0  0  0
    1.1675   -2.2219   -0.7668 H   0  0  0  0  0  0  0  0  0  0  0  0
    2.5869   -1.9682    0.2249 H   0  0  0  0  0  0  0  0  0  0  0  0
    2.7553    0.3985   -0.6102 H   0  0  0  0  0  0  0  0  0  0  0  0
    2.8072   -0.7541   -1.9452 H   0  0  0  0  0  0  0  0  0  0  0  0
    1.3253    0.1429   -1.6092 H   0  0  0  0  0  0  0  0  0  0  0  0
  1  2  1  0
  1  5  1  0
  1  6  1  0
  1  7  1  0
  2  3  2  3
  2  9  1  0
  3  4  1  0
  8 11  1  0
 10 11  1  0
 10 14  1  0
 10 15  1  0
 10 16  1  0
 11 12  1  0
 11 17  1  0
 12 13  1  0
 12 18  1  0
 12 19  1  0
 13 20  1  0
 13 21  1  0
 13 22  1  0
M  RAD  1   4   2
M  END
>  <reaction>  (16) 
rmg_rxn_26

>  <mol_properties>  (16) 
{"1": {"label": "*1", "atom_type": "Cs"}, "2": {"label": "*0", "atom_type": "N3d"}, "7": {"label": "*2", "atom_type": "H0"}, "10": {"label": "*3", "atom_type": "Cs"}, "11": {"label": "*4", "atom_type": "Cs"}}

>  <type>  (16) 
unop_12

>  <geom_source>  (16) 
Heuristics

$$$$

     RDKit          3D

 22 20  0  0  0  0  0  0  0  0999 V2000
    3.4044   -0.1495   -0.7801 O   0  0  0  0  0  1  0  0  0  0  0  0
    2.3820   -0.4316   -0.2318 N   0  0  0  0  0  0  0  0  0  0  0  0
   -0.5791   -1.0010   -0.3437 C   0  0  0  0  0  0  0  0  0  0  0  0
   -1.8319   -0.1233   -0.2679 C   0  0  0  0  0  0  0  0  0  0  0  0
   -0.7847   -2.3208    0.3921 C   0  0  0  0  0  0  0  0  0  0  0  0
   -1.6180    1.1999   -0.9959 C   0  0  0  0  0  0  0  0  0  0  0  0
    1.9787    1.4715    1.2452 C   0  0  0  0  0  0  0  0  0  0  0  0
    1.4328    0.5926    0.1281 C   0  0  0  0  0  0  0  0  0  0  0  0
   -0.3334   -1.2150   -1.4069 H   0  0  0  0  0  0  0  0  0  0  0  0
    0.4188   -0.3776    0.1922 H   0  0  0  0  0  0  0  0  0  0  0  0
   -2.0768    0.0873    0.7958 H   0  0  0  0  0  0  0  0  0  0  0  0
   -2.6919   -0.6550   -0.7306 H   0  0  0  0  0  0  0  0  0  0  0  0
   -1.6240   -2.8899   -0.0616 H   0  0  0  0  0  0  0  0  0  0  0  0
   -1.0039   -2.1327    1.4645 H   0  0  0  0  0  0  0  0  0  0  0  0
    0.1398   -2.9313    0.3209 H   0  0  0  0  0  0  0  0  0  0  0  0
   -0.7783    1.7627   -0.5353 H   0  0  0  0  0  0  0  0  0  0  0  0
   -1.3938    1.0184   -2.0687 H   0  0  0  0  0  0  0  0  0  0  0  0
   -2.5391    1.8160   -0.9251 H   0  0  0  0  0  0  0  0  0  0  0  0
    2.8911    2.0060    0.9051 H   0  0  0  0  0  0  0  0  0  0  0  0
    2.2233    0.8488    2.1313 H   0  0  0  0  0  0  0  0  0  0  0  0
    1.2103    2.2183    1.5340 H   0  0  0  0  0  0  0  0  0  0  0  0
    1.1738    1.2063   -0.7618 H   0  0  0  0  0  0  0  0  0  0  0  0
  1  2  1  0
  2  8  2  3
  3  5  1  0
  3  4  1  0
  3  9  1  0
  3 10  1  0
  4  6  1  0
  4 11  1  0
  4 12  1  0
  5 13  1  0
  5 14  1  0
  5 15  1  0
  6 16  1  0
  6 17  1  0
  6 18  1  0
  7  8  1  0
  7 19  1  0
  7 20  1  0
  7 21  1  0
  8 22  1  0
M  RAD  1   1   2
M  END
>  <reaction>  (17) 
rmg_rxn_26

>  <mol_properties>  (17) 
{"1": {"label": "*1", "atom_type": "Cs"}, "2": {"label": "*0", "atom_type": "N3d"}, "7": {"label": "*2", "atom_type": "H0"}, "10": {"label": "*3", "atom_type": "Cs"}, "11": {"label": "*4", "atom_type": "Cs"}}

>  <type>  (17) 
unop_13

>  <geom_source>  (17) 
AutoTST

$$$$

     RDKit          3D

 22 20  0  0  0  0  0  0  0  0999 V2000
   -1.3323    0.1028   -1.6516 C   0  0  0  0  0  0  0  0  0  0  0  0
   -1.3323    0.1028   -0.1411 C   0  0  0  0  0  0  0  0  0  0  0  0
   -1.3323    1.4288    0.5224 N   0  0  0  0  0  0  0  0  0  0  0  0
   -1.3323    2.3583   -0.2253 O   0  0  0  0  0  1  0  0  0  0  0  0
   -0.4522    0.6102   -2.0461 H   0  0  0  0  0  0  0  0  0  0  0  0
   -1.3323   -0.9243   -2.0169 H   0  0  0  0  0  0  0  0  0  0  0  0
   -2.2125    0.6102   -2.0461 H   0  0  0  0  0  0  0  0  0  0  0  0
   -0.2869   -0.5060    0.3714 H   0  0  0  0  0  0  0  0  0  0  0  0
   -2.2035   -0.4045    0.2860 H   0  0  0  0  0  0  0  0  0  0  0  0
    0.6774   -2.4931    1.5258 C   0  0  0  0  0  0  0  0  0  0  0  0
    0.7584   -1.1147    0.8840 C   0  0  0  0  0  0  0  0  0  0  0  0
    1.9383   -0.9684   -0.0700 C   0  0  0  0  0  0  0  0  0  0  0  0
    2.0194    0.4101   -0.7118 C   0  0  0  0  0  0  0  0  0  0  0  0
    1.5809   -2.7111    2.1002 H   0  0  0  0  0  0  0  0  0  0  0  0
    0.5727   -3.2725    0.7672 H   0  0  0  0  0  0  0  0  0  0  0  0
   -0.1749   -2.5701    2.2028 H   0  0  0  0  0  0  0  0  0  0  0  0
    0.8315   -0.3500    1.6641 H   0  0  0  0  0  0  0  0  0  0  0  0
    1.8653   -1.7330   -0.8501 H   0  0  0  0  0  0  0  0  0  0  0  0
    2.8660   -1.1758    0.4731 H   0  0  0  0  0  0  0  0  0  0  0  0
    2.1240    1.1894    0.0468 H   0  0  0  0  0  0  0  0  0  0  0  0
    2.8717    0.4870   -1.3888 H   0  0  0  0  0  0  0  0  0  0  0  0
    1.1159    0.6281   -1.2862 H   0  0  0  0  0  0  0  0  0  0  0  0
  1  2  1  0
  1  5  1  0
  1  6  1  0
  1  7  1  0
  2  3  2  3
  2  9  1  0
  3  4  1  0
  8 11  1  0
 10 11  1  0
 10 14  1  0
 10 15  1  0
 10 16  1  0
 11 12  1  0
 11 17  1  0
 12 13  1  0
 12 18  1  0
 12 19  1  0
 13 20  1  0
 13 21  1  0
 13 22  1  0
M  RAD  1   4   2
M  END
>  <reaction>  (18) 
rmg_rxn_26

>  <mol_properties>  (18) 
{"1": {"label": "*1", "atom_type": "Cs"}, "2": {"label": "*0", "atom_type": "N3d"}, "7": {"label": "*2", "atom_type": "H0"}, "10": {"label": "*3", "atom_type": "Cs"}, "11": {"label": "*4", "atom_type": "Cs"}}

>  <type>  (18) 
unop_14

>  <geom_source>  (18) 
gaussian_log

$$$$
