
     RDKit          3D

 15 14  0  0  0  0  0  0  0  0999 V2000
   -2.0554    0.0723   -0.4910 C   0  0  0  0  0  0  0  0  0  0  0  0
   -0.7461   -0.6266   -0.8178 C   0  0  0  0  0  0  0  0  0  0  0  0
    0.3249    0.2591   -1.9782 S   0  0  0  0  0  0  0  0  0  0  0  0
   -0.7172    0.3642   -3.4551 C   0  0  0  0  0  0  0  0  0  0  0  0
   -1.1375   -0.9737   -4.0409 C   0  0  0  0  0  0  0  0  0  0  0  0
   -2.7005    0.1427   -1.3684 H   0  0  0  0  0  0  0  0  0  0  0  0
   -2.6016   -0.4848    0.2733 H   0  0  0  0  0  0  0  0  0  0  0  0
   -1.8758    1.0825   -0.1213 H   0  0  0  0  0  0  0  0  0  0  0  0
   -0.1320   -0.7246    0.0789 H   0  0  0  0  0  0  0  0  0  0  0  0
   -0.9254   -1.6374   -1.1879 H   0  0  0  0  0  0  0  0  0  0  0  0
   -1.5873    0.9874   -3.2422 H   0  0  0  0  0  0  0  0  0  0  0  0
   -0.1021    0.9161   -4.1678 H   0  0  0  0  0  0  0  0  0  0  0  0
   -1.7876   -1.5224   -3.3574 H   0  0  0  0  0  0  0  0  0  0  0  0
   -0.2676   -1.5962   -4.2534 H   0  0  0  0  0  0  0  0  0  0  0  0
   -1.6916   -0.8229   -4.9700 H   0  0  0  0  0  0  0  0  0  0  0  0
  1  2  1  0
  1  6  1  0
  1  7  1  0
  1  8  1  0
  2  3  1  0
  2  9  1  0
  2 10  1  0
  3  4  1  0
  4  5  1  0
  4 11  1  0
  4 12  1  0
  5 13  1  0
  5 14  1  0
  5 15  1  0
M  END
>  <reaction>  (1) 
rmg_rxn_382

>  <mol_properties>  (1) 
{"0": {"label": "donator", "atom_type": "Cs"}, "5": {"label": "d_hydrogen", "atom_type": "H0"}}

>  <type>  (1) 
r1h

$$$$

     RDKit          3D

  8  7  0  0  0  0  0  0  0  0999 V2000
   -0.7840    0.1126   -0.1155 C   0  0  0  0  0  0  0  0  0  0  0  0
    0.7195   -0.0851   -0.0227 C   0  0  0  0  0  0  0  0  0  0  0  0
    1.2695   -0.8864   -0.9704 O   0  0  0  0  0  1  0  0  0  0  0  0
   -1.2991   -0.8447   -0.0298 H   0  0  0  0  0  0  0  0  0  0  0  0
   -1.1368    0.7683    0.6831 H   0  0  0  0  0  0  0  0  0  0  0  0
   -1.0499    0.5607   -1.0735 H   0  0  0  0  0  0  0  0  0  0  0  0
    1.2598    0.8793   -0.0598 H   0  0  0  0  0  0  0  0  0  0  0  0
    1.0161   -0.4950    0.9608 H   0  0  0  0  0  0  0  0  0  0  0  0
  1  2  1  0
  1  4  1  0
  1  5  1  0
  1  6  1  0
  2  3  1  0
  2  7  1  0
  2  8  1  0
M  RAD  1   3   2
M  END
>  <reaction>  (2) 
rmg_rxn_382

>  <mol_properties>  (2) 
{"2": {"label": "acceptor", "atom_type": "O2s"}}

>  <type>  (2) 
r2

$$$$

     RDKit          3D

  9  8  0  0  0  0  0  0  0  0999 V2000
   -0.9895    0.3048    0.1041 C   0  0  0  0  0  0  0  0  0  0  0  0
    0.3761   -0.3562    0.0721 C   0  0  0  0  0  0  0  0  0  0  0  0
    0.3441   -1.6564   -0.4834 O   0  0  0  0  0  0  0  0  0  0  0  0
   -1.6997   -0.3114    0.6572 H   0  0  0  0  0  0  0  0  0  0  0  0
   -0.9320    1.2848    0.5822 H   0  0  0  0  0  0  0  0  0  0  0  0
   -1.3774    0.4507   -0.9077 H   0  0  0  0  0  0  0  0  0  0  0  0
    0.7581   -0.4813    1.0862 H   0  0  0  0  0  0  0  0  0  0  0  0
    1.0900    0.2787   -0.4681 H   0  0  0  0  0  0  0  0  0  0  0  0
    0.0089   -1.5959   -1.3792 H   0  0  0  0  0  0  0  0  0  0  0  0
  1  2  1  0
  1  4  1  0
  1  5  1  0
  1  6  1  0
  2  3  1  0
  2  7  1  0
  2  8  1  0
  3  9  1  0
M  END
>  <reaction>  (3) 
rmg_rxn_382

>  <mol_properties>  (3) 
{"2": {"label": "acceptor", "atom_type": "O2s"}, "8": {"label": "a_hydrogen", "atom_type": "H0"}}

>  <type>  (3) 
r2h

$$$$

     RDKit          3D

 23 21  0  0  0  0  0  0  0  0999 V2000
    2.6814   -0.1081   -2.0573 C   0  0  0  0  0  0  0  0  0  0  0  0
    1.5927   -0.9869   -1.4669 C   0  0  0  0  0  0  0  0  0  0  0  0
    1.7304   -1.2254   -0.0992 O   0  0  0  0  0  0  0  0  0  0  0  0
    3.6659   -0.5194   -1.8321 H   0  0  0  0  0  0  0  0  0  0  0  0
    2.5712   -0.0362   -3.1412 H   0  0  0  0  0  0  0  0  0  0  0  0
    2.6300    0.9016   -1.6454 H   0  0  0  0  0  0  0  0  0  0  0  0
    0.5989   -0.5789   -1.6995 H   0  0  0  0  0  0  0  0  0  0  0  0
    1.6242   -1.9835   -1.9258 H   0  0  0  0  0  0  0  0  0  0  0  0
    1.2524    0.9711    1.0179 C   0  0  0  0  0  3  0  0  0  0  0  0
   -0.1024    1.4666    0.5880 C   0  0  0  0  0  0  0  0  0  0  0  0
   -1.5152    0.6568    1.3745 S   0  0  0  0  0  0  0  0  0  0  0  0
   -1.6205   -0.8988    0.4499 C   0  0  0  0  0  0  0  0  0  0  0  0
   -2.2390   -0.7602   -0.9322 C   0  0  0  0  0  0  0  0  0  0  0  0
    1.4942   -0.1603    0.5028 H   0  0  0  0  0  0  0  0  0  0  0  0
    2.0776    1.5865    0.6593 H   0  0  0  0  0  0  0  0  0  0  0  0
    1.3346    0.7550    2.0817 H   0  0  0  0  0  0  0  0  0  0  0  0
   -0.2040    2.5205    0.8660 H   0  0  0  0  0  0  0  0  0  0  0  0
   -0.2109    1.4331   -0.4991 H   0  0  0  0  0  0  0  0  0  0  0  0
   -0.6278   -1.3475    0.4038 H   0  0  0  0  0  0  0  0  0  0  0  0
   -2.2354   -1.5454    1.0778 H   0  0  0  0  0  0  0  0  0  0  0  0
   -1.6716   -0.0691   -1.5585 H   0  0  0  0  0  0  0  0  0  0  0  0
   -3.2610   -0.3857   -0.8676 H   0  0  0  0  0  0  0  0  0  0  0  0
   -2.2551   -1.7278   -1.4395 H   0  0  0  0  0  0  0  0  0  0  0  0
  1  2  1  0
  1  4  1  0
  1  5  1  0
  1  6  1  0
  2  3  1  0
  2  7  1  0
  2  8  1  0
  3 14  1  0
  9 10  1  0
  9 15  1  0
  9 16  1  0
 10 11  1  0
 10 17  1  0
 10 18  1  0
 11 12  1  0
 12 13  1  0
 12 19  1  0
 12 20  1  0
 13 21  1  0
 13 22  1  0
 13 23  1  0
M  RAD  1   9   2
M  END
>  <reaction>  (4) 
rmg_rxn_382

>  <mol_properties>  (4) 
{"1": {"label": "*0", "atom_type": "Cs"}, "2": {"label": "*1", "atom_type": "O2s"}, "8": {"label": "*3", "atom_type": "Cs"}, "9": {"label": "*4", "atom_type": "Cs"}, "13": {"label": "*2", "atom_type": "H0"}}

>  <type>  (4) 
ts

$$$$

     RDKit          3D

 23 21  0  0  0  0  0  0  0  0999 V2000
    3.2221   -0.3383   -0.8031 C   0  0  0  0  0  0  0  0  0  0  0  0
    2.1993   -1.4213   -1.0925 C   0  0  0  0  0  0  0  0  0  0  0  0
    1.0550   -1.3313   -0.2663 O   0  0  0  0  0  0  0  0  0  0  0  0
    3.5246   -0.3683    0.2445 H   0  0  0  0  0  0  0  0  0  0  0  0
    4.1092   -0.4697   -1.4261 H   0  0  0  0  0  0  0  0  0  0  0  0
    2.8120    0.6532   -1.0133 H   0  0  0  0  0  0  0  0  0  0  0  0
    1.9150   -1.3982   -2.1524 H   0  0  0  0  0  0  0  0  0  0  0  0
    2.6261   -2.4054   -0.8940 H   0  0  0  0  0  0  0  0  0  0  0  0
    1.0072    0.9042    0.7585 C   0  0  0  0  0  3  0  0  0  0  0  0
   -0.2537    1.6631    0.3793 C   0  0  0  0  0  0  0  0  0  0  0  0
   -1.7943    0.9491    1.0078 S   0  0  0  0  0  0  0  0  0  0  0  0
   -1.7943   -0.6920    0.2430 C   0  0  0  0  0  0  0  0  0  0  0  0
   -1.7943   -0.6920   -1.2768 C   0  0  0  0  0  0  0  0  0  0  0  0
    1.0327   -0.2860    0.2128 H   0  0  0  0  0  0  0  0  0  0  0  0
    1.8920    1.4426    0.4115 H   0  0  0  0  0  0  0  0  0  0  0  0
    1.0779    0.7822    1.8399 H   0  0  0  0  0  0  0  0  0  0  0  0
   -0.2386    2.6662    0.8085 H   0  0  0  0  0  0  0  0  0  0  0  0
   -0.3249    1.7853   -0.7028 H   0  0  0  0  0  0  0  0  0  0  0  0
   -0.9581   -1.2746    0.6330 H   0  0  0  0  0  0  0  0  0  0  0  0
   -2.7055   -1.1558    0.6242 H   0  0  0  0  0  0  0  0  0  0  0  0
   -0.8713   -0.2684   -1.6762 H   0  0  0  0  0  0  0  0  0  0  0  0
   -2.6300   -0.1095   -1.6662 H   0  0  0  0  0  0  0  0  0  0  0  0
   -1.8769   -1.7131   -1.6554 H   0  0  0  0  0  0  0  0  0  0  0  0
  1  2  1  0
  1  4  1  0
  1  5  1  0
  1  6  1  0
  2  3  1  0
  2  7  1  0
  2  8  1  0
  3 14  1  0
  9 10  1  0
  9 15  1  0
  9 16  1  0
 10 11  1  0
 10 17  1  0
 10 18  1  0
 11 12  1  0
 12 13  1  0
 12 19  1  0
 12 20  1  0
 13 21  1  0
 13 22  1  0
 13 23  1  0
M  RAD  1   9   2
M  END
>  <reaction>  (5) 
rmg_rxn_382

>  <mol_properties>  (5) 
{"1": {"label": "*0", "atom_type": "Cs"}, "2": {"label": "*1", "atom_type": "O2s"}, "8": {"label": "*3", "atom_type": "Cs"}, "9": {"label": "*4", "atom_type": "Cs"}, "13": {"label": "*2", "atom_type": "H0"}}

>  <type>  (5) 
unop_1

>  <geom_source>  (5) 
Heuristics

$$$$

     RDKit          3D

 23 21  0  0  0  0  0  0  0  0999 V2000
    1.0968   -0.0489   -2.0551 C   0  0  0  0  0  0  0  0  0  0  0  0
    0.8444   -1.3320   -1.2852 C   0  0  0  0  0  0  0  0  0  0  0  0
    1.5491   -1.3852   -0.0602 O   0  0  0  0  0  0  0  0  0  0  0  0
    2.1637    0.0816   -2.2414 H   0  0  0  0  0  0  0  0  0  0  0  0
    0.5750   -0.0661   -3.0142 H   0  0  0  0  0  0  0  0  0  0  0  0
    0.7375    0.8196   -1.4966 H   0  0  0  0  0  0  0  0  0  0  0  0
   -0.2321   -1.4669   -1.1193 H   0  0  0  0  0  0  0  0  0  0  0  0
    1.1929   -2.1912   -1.8600 H   0  0  0  0  0  0  0  0  0  0  0  0
    1.5013    0.8503    0.9646 C   0  0  0  0  0  3  0  0  0  0  0  0
    0.2403    1.6091    0.5854 C   0  0  0  0  0  0  0  0  0  0  0  0
   -1.3002    0.8952    1.2140 S   0  0  0  0  0  0  0  0  0  0  0  0
   -1.3002   -0.7459    0.4491 C   0  0  0  0  0  0  0  0  0  0  0  0
   -1.3002   -0.7459   -1.0706 C   0  0  0  0  0  0  0  0  0  0  0  0
    1.5267   -0.3399    0.4190 H   0  0  0  0  0  0  0  0  0  0  0  0
    2.3860    1.3887    0.6177 H   0  0  0  0  0  0  0  0  0  0  0  0
    1.5719    0.7282    2.0460 H   0  0  0  0  0  0  0  0  0  0  0  0
    0.2554    2.6123    1.0147 H   0  0  0  0  0  0  0  0  0  0  0  0
    0.1692    1.7313   -0.4966 H   0  0  0  0  0  0  0  0  0  0  0  0
   -0.4640   -1.3285    0.8392 H   0  0  0  0  0  0  0  0  0  0  0  0
   -2.2114   -1.2097    0.8304 H   0  0  0  0  0  0  0  0  0  0  0  0
   -0.3772   -0.3223   -1.4700 H   0  0  0  0  0  0  0  0  0  0  0  0
   -2.1360   -0.1634   -1.4600 H   0  0  0  0  0  0  0  0  0  0  0  0
   -1.3828   -1.7671   -1.4493 H   0  0  0  0  0  0  0  0  0  0  0  0
  1  2  1  0
  1  4  1  0
  1  5  1  0
  1  6  1  0
  2  3  1  0
  2  7  1  0
  2  8  1  0
  3 14  1  0
  9 10  1  0
  9 15  1  0
  9 16  1  0
 10 11  1  0
 10 17  1  0
 10 18  1  0
 11 12  1  0
 12 13  1  0
 12 19  1  0
 12 20  1  0
 13 21  1  0
 13 22  1  0
 13 23  1  0
M  RAD  1   9   2
M  END
>  <reaction>  (6) 
rmg_rxn_382

>  <mol_properties>  (6) 
{"1": {"label": "*0", "atom_type": "Cs"}, "2": {"label": "*1", "atom_type": "O2s"}, "8": {"label": "*3", "atom_type": "Cs"}, "9": {"label": "*4", "atom_type": "Cs"}, "13": {"label": "*2", "atom_type": "H0"}}

>  <type>  (6) 
unop_2

>  <geom_source>  (6) 
Heuristics

$$$$

     RDKit          3D

 23 21  0  0  0  0  0  0  0  0999 V2000
    3.3217   -0.9306    0.2818 C   0  0  0  0  0  0  0  0  0  0  0  0
    2.3663   -1.5864   -0.6981 C   0  0  0  0  0  0  0  0  0  0  0  0
    1.0175   -1.2235   -0.4766 O   0  0  0  0  0  0  0  0  0  0  0  0
    3.0422   -1.1721    1.3081 H   0  0  0  0  0  0  0  0  0  0  0  0
    4.3445   -1.2717    0.1095 H   0  0  0  0  0  0  0  0  0  0  0  0
    3.3107    0.1571    0.1703 H   0  0  0  0  0  0  0  0  0  0  0  0
    2.6656   -1.3559   -1.7285 H   0  0  0  0  0  0  0  0  0  0  0  0
    2.3988   -2.6712   -0.5873 H   0  0  0  0  0  0  0  0  0  0  0  0
    0.9697    1.0120    0.5482 C   0  0  0  0  0  3  0  0  0  0  0  0
   -0.2913    1.7709    0.1690 C   0  0  0  0  0  0  0  0  0  0  0  0
   -1.8318    1.0569    0.7976 S   0  0  0  0  0  0  0  0  0  0  0  0
   -1.8318   -0.5842    0.0327 C   0  0  0  0  0  0  0  0  0  0  0  0
   -1.8318   -0.5842   -1.4871 C   0  0  0  0  0  0  0  0  0  0  0  0
    0.9951   -0.1782    0.0026 H   0  0  0  0  0  0  0  0  0  0  0  0
    1.8544    1.5504    0.2012 H   0  0  0  0  0  0  0  0  0  0  0  0
    1.0403    0.8900    1.6296 H   0  0  0  0  0  0  0  0  0  0  0  0
   -0.2762    2.7740    0.5982 H   0  0  0  0  0  0  0  0  0  0  0  0
   -0.3624    1.8931   -0.9131 H   0  0  0  0  0  0  0  0  0  0  0  0
   -0.9956   -1.1668    0.4227 H   0  0  0  0  0  0  0  0  0  0  0  0
   -2.7430   -1.0480    0.4140 H   0  0  0  0  0  0  0  0  0  0  0  0
   -0.9088   -0.1606   -1.8865 H   0  0  0  0  0  0  0  0  0  0  0  0
   -2.6676   -0.0017   -1.8765 H   0  0  0  0  0  0  0  0  0  0  0  0
   -1.9144   -1.6053   -1.8657 H   0  0  0  0  0  0  0  0  0  0  0  0
  1  2  1  0
  1  4  1  0
  1  5  1  0
  1  6  1  0
  2  3  1  0
  2  7  1  0
  2  8  1  0
  3 14  1  0
  9 10  1  0
  9 15  1  0
  9 16  1  0
 10 11  1  0
 10 17  1  0
 10 18  1  0
 11 12  1  0
 12 13  1  0
 12 19  1  0
 12 20  1  0
 13 21  1  0
 13 22  1  0
 13 23  1  0
M  RAD  1   9   2
M  END
>  <reaction>  (7) 
rmg_rxn_382

>  <mol_properties>  (7) 
{"1": {"label": "*0", "atom_type": "Cs"}, "2": {"label": "*1", "atom_type": "O2s"}, "8": {"label": "*3", "atom_type": "Cs"}, "9": {"label": "*4", "atom_type": "Cs"}, "13": {"label": "*2", "atom_type": "H0"}}

>  <type>  (7) 
unop_3

>  <geom_source>  (7) 
Heuristics

$$$$

     RDKit          3D

 23 21  0  0  0  0  0  0  0  0999 V2000
    2.4609   -1.8678    1.2274 C   0  0  0  0  0  0  0  0  0  0  0  0
    2.3386   -1.7189   -0.2778 C   0  0  0  0  0  0  0  0  0  0  0  0
    1.1443   -1.0712   -0.6704 O   0  0  0  0  0  0  0  0  0  0  0  0
    1.6030   -2.4087    1.6291 H   0  0  0  0  0  0  0  0  0  0  0  0
    3.3702   -2.4135    1.4879 H   0  0  0  0  0  0  0  0  0  0  0  0
    2.5087   -0.8902    1.7146 H   0  0  0  0  0  0  0  0  0  0  0  0
    3.2146   -1.1920   -0.6772 H   0  0  0  0  0  0  0  0  0  0  0  0
    2.3079   -2.7006   -0.7524 H   0  0  0  0  0  0  0  0  0  0  0  0
    1.0964    1.1643    0.3544 C   0  0  0  0  0  3  0  0  0  0  0  0
   -0.1645    1.9232   -0.0249 C   0  0  0  0  0  0  0  0  0  0  0  0
   -1.7051    1.2093    0.6037 S   0  0  0  0  0  0  0  0  0  0  0  0
   -1.7051   -0.4318   -0.1612 C   0  0  0  0  0  0  0  0  0  0  0  0
   -1.7051   -0.4318   -1.6809 C   0  0  0  0  0  0  0  0  0  0  0  0
    1.1219   -0.0259   -0.1913 H   0  0  0  0  0  0  0  0  0  0  0  0
    1.9812    1.7027    0.0074 H   0  0  0  0  0  0  0  0  0  0  0  0
    1.1671    1.0423    1.4358 H   0  0  0  0  0  0  0  0  0  0  0  0
   -0.1494    2.9264    0.4044 H   0  0  0  0  0  0  0  0  0  0  0  0
   -0.2356    2.0454   -1.1069 H   0  0  0  0  0  0  0  0  0  0  0  0
   -0.8689   -1.0145    0.2289 H   0  0  0  0  0  0  0  0  0  0  0  0
   -2.6163   -0.8957    0.2201 H   0  0  0  0  0  0  0  0  0  0  0  0
   -0.7821   -0.0083   -2.0803 H   0  0  0  0  0  0  0  0  0  0  0  0
   -2.5408    0.1506   -2.0703 H   0  0  0  0  0  0  0  0  0  0  0  0
   -1.7876   -1.4530   -2.0596 H   0  0  0  0  0  0  0  0  0  0  0  0
  1  2  1  0
  1  4  1  0
  1  5  1  0
  1  6  1  0
  2  3  1  0
  2  7  1  0
  2  8  1  0
  3 14  1  0
  9 10  1  0
  9 15  1  0
  9 16  1  0
 10 11  1  0
 10 17  1  0
 10 18  1  0
 11 12  1  0
 12 13  1  0
 12 19  1  0
 12 20  1  0
 13 21  1  0
 13 22  1  0
 13 23  1  0
M  RAD  1   9   2
M  END
>  <reaction>  (8) 
rmg_rxn_382

>  <mol_properties>  (8) 
{"1": {"label": "*0", "atom_type": "Cs"}, "2": {"label": "*1", "atom_type": "O2s"}, "8": {"label": "*3", "atom_type": "Cs"}, "9": {"label": "*4", "atom_type": "Cs"}, "13": {"label": "*2", "atom_type": "H0"}}

>  <type>  (8) 
unop_4

>  <geom_source>  (8) 
Heuristics

$$$$

     RDKit          3D

 23 19  0  0  0  0  0  0  0  0999 V2000
   -0.3217   -2.2518   -0.0891 C   0  0  0  0  0  2  0  0  0  0  0  0
    1.0977   -1.9032    0.3192 C   0  0  0  0  0  3  0  0  0  0  0  0
    1.7157   -0.9905   -0.5669 O   0  0  0  0  0  0  0  0  0  0  0  0
   -0.3397   -2.6568   -1.1018 H   0  0  0  0  0  0  0  0  0  0  0  0
   -0.7469   -2.9932    0.5905 H   0  0  0  0  0  0  0  0  0  0  0  0
   -0.9649   -1.3681   -0.0617 H   0  0  0  0  0  0  0  0  0  0  0  0
    1.1105   -1.5157    1.3460 H   0  0  0  0  0  0  0  0  0  0  0  0
    1.7245   -2.7958    0.3029 H   0  0  0  0  0  0  0  0  0  0  0  0
    1.6679    1.2450    0.4579 C   0  0  0  0  0  3  0  0  0  0  0  0
    0.4069    2.0039    0.0787 C   0  0  0  0  0  0  0  0  0  0  0  0
   -1.1337    1.2900    0.7073 S   0  0  0  0  0  1  0  0  0  0  0  0
   -1.1337   -0.3511   -0.0576 C   0  0  0  0  0  0  0  0  0  0  0  0
   -1.1337   -0.3511   -1.5774 C   0  0  0  0  0  0  0  0  0  0  0  0
    1.6933    0.0548   -0.0877 H   0  0  0  0  0  0  0  0  0  0  0  0
    2.5526    1.7834    0.1110 H   0  0  0  0  0  0  0  0  0  0  0  0
    1.7385    1.1230    1.5393 H   0  0  0  0  0  0  0  0  0  0  0  0
    0.4220    3.0070    0.5079 H   0  0  0  0  0  0  0  0  0  0  0  0
    0.3358    2.1261   -1.0034 H   0  0  0  0  0  0  0  0  0  0  0  0
   -0.2975   -0.9338    0.3324 H   0  0  0  0  0  0  0  0  0  0  0  0
   -2.0449   -0.8150    0.3237 H   0  0  0  0  0  0  0  0  0  0  0  0
   -0.2106    0.0724   -1.9768 H   0  0  0  0  0  0  0  0  0  0  0  0
   -1.9694    0.2313   -1.9668 H   0  0  0  0  0  0  0  0  0  0  0  0
   -1.2162   -1.3723   -1.9560 H   0  0  0  0  0  0  0  0  0  0  0  0
  1  4  1  0
  1  5  1  0
  2  3  1  0
  2  7  1  0
  2  8  1  0
  3 14  1  0
  6 12  1  0
  9 10  1  0
  9 15  1  0
  9 16  1  0
 10 11  1  0
 10 17  1  0
 10 18  1  0
 12 13  1  0
 12 19  1  0
 12 20  1  0
 13 21  1  0
 13 22  1  0
 13 23  1  0
M  CHG  2   9   1  11  -1
M  RAD  2   1   3   2   2
M  END
>  <reaction>  (9) 
rmg_rxn_382

>  <mol_properties>  (9) 
{"1": {"label": "*0", "atom_type": "Cs"}, "2": {"label": "*1", "atom_type": "O2s"}, "8": {"label": "*3", "atom_type": "Cs"}, "9": {"label": "*4", "atom_type": "Cs"}, "13": {"label": "*2", "atom_type": "H0"}}

>  <type>  (9) 
unop_5

>  <geom_source>  (9) 
Heuristics

$$$$

     RDKit          3D

 23 21  0  0  0  0  0  0  0  0999 V2000
    0.2770   -2.5730    0.6214 C   0  0  0  0  0  0  0  0  0  0  0  0
    1.6160   -1.9090    0.3584 C   0  0  0  0  0  0  0  0  0  0  0  0
    1.5572   -0.9439   -0.6736 O   0  0  0  0  0  0  0  0  0  0  0  0
   -0.1060   -3.0351   -0.2894 H   0  0  0  0  0  0  0  0  0  0  0  0
    0.3733   -3.3434    1.3892 H   0  0  0  0  0  0  0  0  0  0  0  0
   -0.4589   -1.8443    0.9719 H   0  0  0  0  0  0  0  0  0  0  0  0
    2.0047   -1.4642    1.2834 H   0  0  0  0  0  0  0  0  0  0  0  0
    2.3446   -2.6492    0.0248 H   0  0  0  0  0  0  0  0  0  0  0  0
    1.5094    1.2916    0.3511 C   0  0  0  0  0  3  0  0  0  0  0  0
    0.2485    2.0505   -0.0281 C   0  0  0  0  0  0  0  0  0  0  0  0
   -1.2921    1.3365    0.6005 S   0  0  0  0  0  0  0  0  0  0  0  0
   -1.2921   -0.3046   -0.1644 C   0  0  0  0  0  0  0  0  0  0  0  0
   -1.2921   -0.3046   -1.6841 C   0  0  0  0  0  0  0  0  0  0  0  0
    1.5349    0.1014   -0.1945 H   0  0  0  0  0  0  0  0  0  0  0  0
    2.3941    1.8300    0.0042 H   0  0  0  0  0  0  0  0  0  0  0  0
    1.5801    1.1696    1.4325 H   0  0  0  0  0  0  0  0  0  0  0  0
    0.2635    3.0536    0.4012 H   0  0  0  0  0  0  0  0  0  0  0  0
    0.1773    2.1727   -1.1101 H   0  0  0  0  0  0  0  0  0  0  0  0
   -0.4559   -0.8872    0.2257 H   0  0  0  0  0  0  0  0  0  0  0  0
   -2.2033   -0.7684    0.2169 H   0  0  0  0  0  0  0  0  0  0  0  0
   -0.3691    0.1190   -2.0835 H   0  0  0  0  0  0  0  0  0  0  0  0
   -2.1278    0.2779   -2.0735 H   0  0  0  0  0  0  0  0  0  0  0  0
   -1.3747   -1.3257   -2.0628 H   0  0  0  0  0  0  0  0  0  0  0  0
  1  2  1  0
  1  4  1  0
  1  5  1  0
  1  6  1  0
  2  3  1  0
  2  7  1  0
  2  8  1  0
  3 14  1  0
  9 10  1  0
  9 15  1  0
  9 16  1  0
 10 11  1  0
 10 17  1  0
 10 18  1  0
 11 12  1  0
 12 13  1  0
 12 19  1  0
 12 20  1  0
 13 21  1  0
 13 22  1  0
 13 23  1  0
M  RAD  1   9   2
M  END
>  <reaction>  (10) 
rmg_rxn_382

>  <mol_properties>  (10) 
{"1": {"label": "*0", "atom_type": "Cs"}, "2": {"label": "*1", "atom_type": "O2s"}, "8": {"label": "*3", "atom_type": "Cs"}, "9": {"label": "*4", "atom_type": "Cs"}, "13": {"label": "*2", "atom_type": "H0"}}

>  <type>  (10) 
unop_6

>  <geom_source>  (10) 
Heuristics

$$$$

     RDKit          3D

 23 21  0  0  0  0  0  0  0  0999 V2000
    2.6242   -0.0154   -1.5407 C   0  0  0  0  0  0  0  0  0  0  0  0
    1.8279   -1.2972   -1.3801 C   0  0  0  0  0  0  0  0  0  0  0  0
    1.1925   -1.3949   -0.1205 O   0  0  0  0  0  0  0  0  0  0  0  0
    3.3684    0.0743   -0.7483 H   0  0  0  0  0  0  0  0  0  0  0  0
    3.1374    0.0012   -2.5044 H   0  0  0  0  0  0  0  0  0  0  0  0
    1.9700    0.8596   -1.4974 H   0  0  0  0  0  0  0  0  0  0  0  0
    1.0954   -1.3905   -2.1921 H   0  0  0  0  0  0  0  0  0  0  0  0
    2.4898   -2.1621   -1.4412 H   0  0  0  0  0  0  0  0  0  0  0  0
    1.1447    0.8406    0.9043 C   0  0  0  0  0  3  0  0  0  0  0  0
   -0.1162    1.5994    0.5251 C   0  0  0  0  0  0  0  0  0  0  0  0
   -1.6568    0.8855    1.1537 S   0  0  0  0  0  0  0  0  0  0  0  0
   -1.6568   -0.7556    0.3888 C   0  0  0  0  0  0  0  0  0  0  0  0
   -1.6568   -0.7556   -1.1309 C   0  0  0  0  0  0  0  0  0  0  0  0
    1.1702   -0.3496    0.3587 H   0  0  0  0  0  0  0  0  0  0  0  0
    2.0294    1.3790    0.5574 H   0  0  0  0  0  0  0  0  0  0  0  0
    1.2154    0.7185    1.9857 H   0  0  0  0  0  0  0  0  0  0  0  0
   -0.1012    2.6026    0.9544 H   0  0  0  0  0  0  0  0  0  0  0  0
   -0.1874    1.7216   -0.5569 H   0  0  0  0  0  0  0  0  0  0  0  0
   -0.8206   -1.3382    0.7789 H   0  0  0  0  0  0  0  0  0  0  0  0
   -2.5680   -1.2194    0.7701 H   0  0  0  0  0  0  0  0  0  0  0  0
   -0.7338   -0.3320   -1.5303 H   0  0  0  0  0  0  0  0  0  0  0  0
   -2.4925   -0.1731   -1.5203 H   0  0  0  0  0  0  0  0  0  0  0  0
   -1.7394   -1.7768   -1.5096 H   0  0  0  0  0  0  0  0  0  0  0  0
  1  2  1  0
  1  4  1  0
  1  5  1  0
  1  6  1  0
  2  3  1  0
  2  7  1  0
  2  8  1  0
  3 14  1  0
  9 10  1  0
  9 15  1  0
  9 16  1  0
 10 11  1  0
 10 17  1  0
 10 18  1  0
 11 12  1  0
 12 13  1  0
 12 19  1  0
 12 20  1  0
 13 21  1  0
 13 22  1  0
 13 23  1  0
M  RAD  1   9   2
M  END
>  <reaction>  (11) 
rmg_rxn_382

>  <mol_properties>  (11) 
{"1": {"label": "*0", "atom_type": "Cs"}, "2": {"label": "*1", "atom_type": "O2s"}, "8": {"label": "*3", "atom_type": "Cs"}, "9": {"label": "*4", "atom_type": "Cs"}, "13": {"label": "*2", "atom_type": "H0"}}

>  <type>  (11) 
unop_7

>  <geom_source>  (11) 
Heuristics

$$$$

     RDKit          3D

 23 21  0  0  0  0  0  0  0  0999 V2000
    1.8569    0.0820   -1.9247 C   0  0  0  0  0  0  0  0  0  0  0  0
    1.3307   -1.2634   -1.4599 C   0  0  0  0  0  0  0  0  0  0  0  0
    1.3720   -1.4136   -0.0543 O   0  0  0  0  0  0  0  0  0  0  0  0
    2.8770    0.2365   -1.5706 H   0  0  0  0  0  0  0  0  0  0  0  0
    1.8535    0.1412   -3.0150 H   0  0  0  0  0  0  0  0  0  0  0  0
    1.2350    0.8974   -1.5455 H   0  0  0  0  0  0  0  0  0  0  0  0
    0.3120   -1.4207   -1.8368 H   0  0  0  0  0  0  0  0  0  0  0  0
    1.9503   -2.0682   -1.8579 H   0  0  0  0  0  0  0  0  0  0  0  0
    1.3242    0.8219    0.9705 C   0  0  0  0  0  3  0  0  0  0  0  0
    0.0633    1.5808    0.5913 C   0  0  0  0  0  0  0  0  0  0  0  0
   -1.4773    0.8668    1.2199 S   0  0  0  0  0  0  0  0  0  0  0  0
   -1.4773   -0.7743    0.4550 C   0  0  0  0  0  0  0  0  0  0  0  0
   -1.4773   -0.7743   -1.0647 C   0  0  0  0  0  0  0  0  0  0  0  0
    1.3497   -0.3683    0.4249 H   0  0  0  0  0  0  0  0  0  0  0  0
    2.2090    1.3603    0.6236 H   0  0  0  0  0  0  0  0  0  0  0  0
    1.3949    0.6999    2.0519 H   0  0  0  0  0  0  0  0  0  0  0  0
    0.0784    2.5839    1.0206 H   0  0  0  0  0  0  0  0  0  0  0  0
   -0.0079    1.7030   -0.4907 H   0  0  0  0  0  0  0  0  0  0  0  0
   -0.6411   -1.3569    0.8451 H   0  0  0  0  0  0  0  0  0  0  0  0
   -2.3885   -1.2381    0.8363 H   0  0  0  0  0  0  0  0  0  0  0  0
   -0.5543   -0.3507   -1.4641 H   0  0  0  0  0  0  0  0  0  0  0  0
   -2.3130   -0.1918   -1.4541 H   0  0  0  0  0  0  0  0  0  0  0  0
   -1.5598   -1.7954   -1.4434 H   0  0  0  0  0  0  0  0  0  0  0  0
  1  2  1  0
  1  4  1  0
  1  5  1  0
  1  6  1  0
  2  3  1  0
  2  7  1  0
  2  8  1  0
  3 14  1  0
  9 10  1  0
  9 15  1  0
  9 16  1  0
 10 11  1  0
 10 17  1  0
 10 18  1  0
 11 12  1  0
 12 13  1  0
 12 19  1  0
 12 20  1  0
 13 21  1  0
 13 22  1  0
 13 23  1  0
M  RAD  1   9   2
M  END
>  <reaction>  (12) 
rmg_rxn_382

>  <mol_properties>  (12) 
{"1": {"label": "*0", "atom_type": "Cs"}, "2": {"label": "*1", "atom_type": "O2s"}, "8": {"label": "*3", "atom_type": "Cs"}, "9": {"label": "*4", "atom_type": "Cs"}, "13": {"label": "*2", "atom_type": "H0"}}

>  <type>  (12) 
unop_8

>  <geom_source>  (12) 
Heuristics

$$$$

     RDKit          3D

 23 21  0  0  0  0  0  0  0  0999 V2000
    1.1967   -2.5366    1.1433 C   0  0  0  0  0  0  0  0  0  0  0  0
    2.0825   -1.8286    0.1349 C   0  0  0  0  0  0  0  0  0  0  0  0
    1.3604   -0.9604   -0.7165 O   0  0  0  0  0  0  0  0  0  0  0  0
    0.4094   -3.0949    0.6351 H   0  0  0  0  0  0  0  0  0  0  0  0
    1.7818   -3.2318    1.7489 H   0  0  0  0  0  0  0  0  0  0  0  0
    0.7258   -1.8199    1.8216 H   0  0  0  0  0  0  0  0  0  0  0  0
    2.8841   -1.2859    0.6523 H   0  0  0  0  0  0  0  0  0  0  0  0
    2.5582   -2.5556   -0.5248 H   0  0  0  0  0  0  0  0  0  0  0  0
    1.3126    1.2751    0.3083 C   0  0  0  0  0  3  0  0  0  0  0  0
    0.0517    2.0339   -0.0709 C   0  0  0  0  0  0  0  0  0  0  0  0
   -1.4889    1.3200    0.5577 S   0  0  0  0  0  0  0  0  0  0  0  0
   -1.4889   -0.3211   -0.2072 C   0  0  0  0  0  0  0  0  0  0  0  0
   -1.4889   -0.3211   -1.7269 C   0  0  0  0  0  0  0  0  0  0  0  0
    1.3381    0.0849   -0.2373 H   0  0  0  0  0  0  0  0  0  0  0  0
    2.1973    1.8135   -0.0386 H   0  0  0  0  0  0  0  0  0  0  0  0
    1.3833    1.1530    1.3897 H   0  0  0  0  0  0  0  0  0  0  0  0
    0.0667    3.0371    0.3584 H   0  0  0  0  0  0  0  0  0  0  0  0
   -0.0195    2.1561   -1.1529 H   0  0  0  0  0  0  0  0  0  0  0  0
   -0.6527   -0.9037    0.1828 H   0  0  0  0  0  0  0  0  0  0  0  0
   -2.4001   -0.7849    0.1741 H   0  0  0  0  0  0  0  0  0  0  0  0
   -0.5659    0.1025   -2.1263 H   0  0  0  0  0  0  0  0  0  0  0  0
   -2.3246    0.2614   -2.1163 H   0  0  0  0  0  0  0  0  0  0  0  0
   -1.5715   -1.3423   -2.1056 H   0  0  0  0  0  0  0  0  0  0  0  0
  1  2  1  0
  1  4  1  0
  1  5  1  0
  1  6  1  0
  2  3  1  0
  2  7  1  0
  2  8  1  0
  3 14  1  0
  9 10  1  0
  9 15  1  0
  9 16  1  0
 10 11  1  0
 10 17  1  0
 10 18  1  0
 11 12  1  0
 12 13  1  0
 12 19  1  0
 12 20  1  0
 13 21  1  0
 13 22  1  0
 13 23  1  0
M  RAD  1   9   2
M  END
>  <reaction>  (13) 
rmg_rxn_382

>  <mol_properties>  (13) 
{"1": {"label": "*0", "atom_type": "Cs"}, "2": {"label": "*1", "atom_type": "O2s"}, "8": {"label": "*3", "atom_type": "Cs"}, "9": {"label": "*4", "atom_type": "Cs"}, "13": {"label": "*2", "atom_type": "H0"}}

>  <type>  (13) 
unop_9

>  <geom_source>  (13) 
Heuristics

$$$$

     RDKit          3D

 23 20  0  0  0  0  0  0  0  0999 V2000
    0.3790   -0.4380   -1.9888 C   0  0  0  0  0  0  0  0  0  0  0  0
    0.5204   -1.4765   -0.8914 C   0  0  0  0  0  3  0  0  0  0  0  0
    1.6973   -1.3093   -0.1252 O   0  0  0  0  0  0  0  0  0  0  0  0
    1.2489   -0.4562   -2.6467 H   0  0  0  0  0  0  0  0  0  0  0  0
   -0.5145   -0.6287   -2.5869 H   0  0  0  0  0  0  0  0  0  0  0  0
    0.2888    0.5668   -1.5673 H   0  0  0  0  0  0  0  0  0  0  0  0
   -0.3671   -1.4664   -0.2458 H   0  0  0  0  0  0  0  0  0  0  0  0
    0.5935   -2.4750   -1.3246 H   0  0  0  0  0  0  0  0  0  0  0  0
    1.6495    0.9262    0.8996 C   0  0  0  0  0  3  0  0  0  0  0  0
    0.3885    1.6851    0.5204 C   0  0  0  0  0  0  0  0  0  0  0  0
   -1.1521    0.9711    1.1490 S   0  0  0  0  0  0  0  0  0  0  0  0
   -1.1521   -0.6700    0.3841 C   0  0  0  0  0  0  0  0  0  0  0  0
   -1.1521   -0.6700   -1.1356 C   0  0  0  0  0  3  0  0  0  0  0  0
    1.6749   -0.2640    0.3540 H   0  0  0  0  0  0  0  0  0  0  0  0
    2.5342    1.4646    0.5527 H   0  0  0  0  0  0  0  0  0  0  0  0
    1.7201    0.8042    1.9810 H   0  0  0  0  0  0  0  0  0  0  0  0
    0.4036    2.6882    0.9497 H   0  0  0  0  0  0  0  0  0  0  0  0
    0.3174    1.8073   -0.5616 H   0  0  0  0  0  0  0  0  0  0  0  0
   -0.3159   -1.2526    0.7742 H   0  0  0  0  0  0  0  0  0  0  0  0
   -2.0633   -1.1338    0.7654 H   0  0  0  0  0  0  0  0  0  0  0  0
   -0.2290   -0.2464   -1.5350 H   0  0  0  0  0  0  0  0  0  0  0  0
   -1.9878   -0.0875   -1.5250 H   0  0  0  0  0  0  0  0  0  0  0  0
   -1.2346   -1.6911   -1.5143 H   0  0  0  0  0  0  0  0  0  0  0  0
  1  4  1  0
  1  5  1  0
  1  6  1  0
  1 21  1  0
  2  3  1  0
  2  7  1  0
  2  8  1  0
  3 14  1  0
  9 10  1  0
  9 15  1  0
  9 16  1  0
 10 11  1  0
 10 17  1  0
 10 18  1  0
 11 12  1  0
 12 13  1  0
 12 19  1  0
 12 20  1  0
 13 22  1  0
 13 23  1  0
M  CHG  2   9  -1  13   1
M  RAD  1   2   2
M  END
>  <reaction>  (14) 
rmg_rxn_382

>  <mol_properties>  (14) 
{"1": {"label": "*0", "atom_type": "Cs"}, "2": {"label": "*1", "atom_type": "O2s"}, "8": {"label": "*3", "atom_type": "Cs"}, "9": {"label": "*4", "atom_type": "Cs"}, "13": {"label": "*2", "atom_type": "H0"}}

>  <type>  (14) 
unop_10

>  <geom_source>  (14) 
Heuristics

$$$$

     RDKit          3D

 23 21  0  0  0  0  0  0  0  0999 V2000
   -1.6414    0.1587   -0.9873 S   0  0  0  0  0  0  0  0  0  0  0  0
    2.4008   -0.6080   -0.7973 O   0  0  0  0  0  0  0  0  0  0  0  0
   -3.4043   -0.2967   -0.8237 C   0  0  0  0  0  0  0  0  0  0  0  0
    3.6543   -0.2993   -0.2584 C   0  0  0  0  0  0  0  0  0  0  0  0
   -1.0546   -0.8349    0.4257 C   0  0  0  0  0  0  0  0  0  0  0  0
    3.8579    1.2092   -0.2321 C   0  0  0  0  0  0  0  0  0  0  0  0
   -4.1174    0.6432    0.1396 C   0  0  0  0  0  0  0  0  0  0  0  0
    0.4436   -0.6483    0.5858 C   0  0  0  0  0  3  0  0  0  0  0  0
    4.4414   -0.7647   -0.8884 H   0  0  0  0  0  0  0  0  0  0  0  0
    3.7395   -0.7119    0.7708 H   0  0  0  0  0  0  0  0  0  0  0  0
   -3.8778   -0.2082   -1.8241 H   0  0  0  0  0  0  0  0  0  0  0  0
   -3.5175   -1.3486   -0.4855 H   0  0  0  0  0  0  0  0  0  0  0  0
    3.7805    1.6213   -1.2606 H   0  0  0  0  0  0  0  0  0  0  0  0
    3.0897    1.6874    0.4119 H   0  0  0  0  0  0  0  0  0  0  0  0
    4.8640    1.4438    0.1751 H   0  0  0  0  0  0  0  0  0  0  0  0
   -5.1959    0.3830    0.1823 H   0  0  0  0  0  0  0  0  0  0  0  0
   -3.6915    0.5530    1.1601 H   0  0  0  0  0  0  0  0  0  0  0  0
   -4.0175    1.6936   -0.2071 H   0  0  0  0  0  0  0  0  0  0  0  0
   -1.5648   -0.5177    1.3590 H   0  0  0  0  0  0  0  0  0  0  0  0
   -1.2651   -1.9087    0.2375 H   0  0  0  0  0  0  0  0  0  0  0  0
    0.8209   -1.2951    1.4057 H   0  0  0  0  0  0  0  0  0  0  0  0
    0.6766    0.4120    0.8208 H   0  0  0  0  0  0  0  0  0  0  0  0
    1.5786   -0.3630    0.0902 H   0  0  0  0  0  0  0  0  0  0  0  0
  1  5  1  0
  1  3  1  0
  2  4  1  0
  2 23  1  0
  3  7  1  0
  3 11  1  0
  3 12  1  0
  4  6  1  0
  4  9  1  0
  4 10  1  0
  5  8  1  0
  5 19  1  0
  5 20  1  0
  6 13  1  0
  6 14  1  0
  6 15  1  0
  7 16  1  0
  7 17  1  0
  7 18  1  0
  8 21  1  0
  8 22  1  0
M  RAD  1   8   2
M  END
>  <reaction>  (15) 
rmg_rxn_382

>  <mol_properties>  (15) 
{"1": {"label": "*0", "atom_type": "Cs"}, "2": {"label": "*1", "atom_type": "O2s"}, "8": {"label": "*3", "atom_type": "Cs"}, "9": {"label": "*4", "atom_type": "Cs"}, "13": {"label": "*2", "atom_type": "H0"}}

>  <type>  (15) 
unop_11

>  <geom_source>  (15) 
AutoTST

$$$$

     RDKit          3D

 23 21  0  0  0  0  0  0  0  0999 V2000
    1.0968   -0.0489   -2.0551 C   0  0  0  0  0  0  0  0  0  0  0  0
    0.8444   -1.3320   -1.2852 C   0  0  0  0  0  0  0  0  0  0  0  0
    1.5491   -1.3852   -0.0602 O   0  0  0  0  0  0  0  0  0  0  0  0
    2.1637    0.0816   -2.2414 H   0  0  0  0  0  0  0  0  0  0  0  0
    0.5750   -0.0661   -3.0142 H   0  0  0  0  0  0  0  0  0  0  0  0
    0.7375    0.8196   -1.4966 H   0  0  0  0  0  0  0  0  0  0  0  0
   -0.2321   -1.4669   -1.1193 H   0  0  0  0  0  0  0  0  0  0  0  0
    1.1929   -2.1912   -1.8600 H   0  0  0  0  0  0  0  0  0  0  0  0
    1.5013    0.8503    0.9646 C   0  0  0  0  0  3  0  0  0  0  0  0
    0.2404    1.6091    0.5854 C   0  0  0  0  0  0  0  0  0  0  0  0
   -1.3002    0.8952    1.2140 S   0  0  0  0  0  0  0  0  0  0  0  0
   -1.3002   -0.7459    0.4491 C   0  0  0  0  0  0  0  0  0  0  0  0
   -1.3002   -0.7459   -1.0706 C   0  0  0  0  0  0  0  0  0  0  0  0
    1.5267   -0.3399    0.4190 H   0  0  0  0  0  0  0  0  0  0  0  0
    2.3860    1.3887    0.6177 H   0  0  0  0  0  0  0  0  0  0  0  0
    1.5719    0.7282    2.0460 H   0  0  0  0  0  0  0  0  0  0  0  0
    0.2554    2.6123    1.0147 H   0  0  0  0  0  0  0  0  0  0  0  0
    0.1692    1.7313   -0.4966 H   0  0  0  0  0  0  0  0  0  0  0  0
   -0.4640   -1.3285    0.8391 H   0  0  0  0  0  0  0  0  0  0  0  0
   -2.2114   -1.2097    0.8304 H   0  0  0  0  0  0  0  0  0  0  0  0
   -0.3772   -0.3223   -1.4700 H   0  0  0  0  0  0  0  0  0  0  0  0
   -2.1359   -0.1634   -1.4600 H   0  0  0  0  0  0  0  0  0  0  0  0
   -1.3828   -1.7671   -1.4493 H   0  0  0  0  0  0  0  0  0  0  0  0
  1  2  1  0
  1  4  1  0
  1  5  1  0
  1  6  1  0
  2  3  1  0
  2  7  1  0
  2  8  1  0
  3 14  1  0
  9 10  1  0
  9 15  1  0
  9 16  1  0
 10 11  1  0
 10 17  1  0
 10 18  1  0
 11 12  1  0
 12 13  1  0
 12 19  1  0
 12 20  1  0
 13 21  1  0
 13 22  1  0
 13 23  1  0
M  RAD  1   9   2
M  END
>  <reaction>  (16) 
rmg_rxn_382

>  <mol_properties>  (16) 
{"1": {"label": "*0", "atom_type": "Cs"}, "2": {"label": "*1", "atom_type": "O2s"}, "8": {"label": "*3", "atom_type": "Cs"}, "9": {"label": "*4", "atom_type": "Cs"}, "13": {"label": "*2", "atom_type": "H0"}}

>  <type>  (16) 
unop_12

>  <geom_source>  (16) 
gaussian_log

$$$$
