
     RDKit          3D

 12 11  0  0  0  0  0  0  0  0999 V2000
   -1.4643   -0.2505   -0.5284 C   0  0  0  0  0  0  0  0  0  0  0  0
   -0.3946    0.4302    0.3143 C   0  0  0  0  0  0  0  0  0  0  0  0
   -0.5959    0.2382    1.8102 C   0  0  0  0  0  0  0  0  0  0  0  0
   -0.5633   -1.1190    2.2092 O   0  0  0  0  0  0  0  0  0  0  0  0
   -2.4511    0.1644   -0.3109 H   0  0  0  0  0  0  0  0  0  0  0  0
   -1.5019   -1.3198   -0.3181 H   0  0  0  0  0  0  0  0  0  0  0  0
   -1.2720   -0.1182   -1.5941 H   0  0  0  0  0  0  0  0  0  0  0  0
    0.5965    0.0515    0.0385 H   0  0  0  0  0  0  0  0  0  0  0  0
   -0.3776    1.5047    0.1078 H   0  0  0  0  0  0  0  0  0  0  0  0
   -1.5821    0.6048    2.1034 H   0  0  0  0  0  0  0  0  0  0  0  0
    0.1495    0.8220    2.3649 H   0  0  0  0  0  0  0  0  0  0  0  0
    0.3017   -1.4750    1.9997 H   0  0  0  0  0  0  0  0  0  0  0  0
  1  2  1  0
  1  5  1  0
  1  6  1  0
  1  7  1  0
  2  3  1  0
  2  8  1  0
  2  9  1  0
  3  4  1  0
  3 10  1  0
  3 11  1  0
  4 12  1  0
M  END
>  <reaction>  (1) 
rmg_rxn_293

>  <mol_properties>  (1) 
{"3": {"label": "donator", "atom_type": "O2s"}, "11": {"label": "d_hydrogen", "atom_type": "H0"}}

>  <type>  (1) 
r1h

$$$$

     RDKit          3D

  9  8  0  0  0  0  0  0  0  0999 V2000
    1.3246   -0.8124   -0.0809 C   0  0  0  0  0  2  0  0  0  0  0  0
    0.4082    0.3080    0.1518 C   0  0  0  0  0  0  0  0  0  0  0  0
   -1.0545   -0.0277   -0.1520 C   0  0  0  0  0  0  0  0  0  0  0  0
    2.3933   -0.9471    0.0203 H   0  0  0  0  0  0  0  0  0  0  0  0
    0.4898    0.6406    1.1970 H   0  0  0  0  0  0  0  0  0  0  0  0
    0.7134    1.1680   -0.4624 H   0  0  0  0  0  0  0  0  0  0  0  0
   -1.4014   -0.8515    0.4727 H   0  0  0  0  0  0  0  0  0  0  0  0
   -1.1767   -0.3214   -1.1952 H   0  0  0  0  0  0  0  0  0  0  0  0
   -1.6915    0.8372    0.0370 H   0  0  0  0  0  0  0  0  0  0  0  0
  1  2  1  0
  1  4  1  0
  2  3  1  0
  2  5  1  0
  2  6  1  0
  3  7  1  0
  3  8  1  0
  3  9  1  0
M  RAD  1   1   3
M  END
>  <reaction>  (2) 
rmg_rxn_293

>  <mol_properties>  (2) 
{"0": {"label": "acceptor", "atom_type": "Cs"}}

>  <type>  (2) 
r2

$$$$

     RDKit          3D

 10  9  0  0  0  0  0  0  0  0999 V2000
    1.4352    0.2660   -0.1351 C   0  0  0  0  0  3  0  0  0  0  0  0
    0.2236   -0.3243    0.4850 C   0  0  0  0  0  0  0  0  0  0  0  0
   -0.8893    0.6872    0.7364 C   0  0  0  0  0  0  0  0  0  0  0  0
    2.3577   -0.2958   -0.1940 H   0  0  0  0  0  0  0  0  0  0  0  0
    1.3935    1.2286   -0.6287 H   0  0  0  0  0  0  0  0  0  0  0  0
   -0.1633   -1.1318   -0.1556 H   0  0  0  0  0  0  0  0  0  0  0  0
    0.4945   -0.8215    1.4240 H   0  0  0  0  0  0  0  0  0  0  0  0
   -1.1991    1.1627   -0.1967 H   0  0  0  0  0  0  0  0  0  0  0  0
   -1.7660    0.2103    1.1768 H   0  0  0  0  0  0  0  0  0  0  0  0
   -0.5545    1.4732    1.4159 H   0  0  0  0  0  0  0  0  0  0  0  0
  1  2  1  0
  1  4  1  0
  1  5  1  0
  2  3  1  0
  2  6  1  0
  2  7  1  0
  3  8  1  0
  3  9  1  0
  3 10  1  0
M  RAD  1   1   2
M  END
>  <reaction>  (3) 
rmg_rxn_293

>  <mol_properties>  (3) 
{"0": {"label": "acceptor", "atom_type": "Cs"}, "9": {"label": "a_hydrogen", "atom_type": "H0"}}

>  <type>  (3) 
r2h

$$$$

     RDKit          3D

 21 19  0  0  0  0  0  0  0  0999 V2000
   -1.1396   -0.0847    1.6327 C   0  0  0  0  0  2  0  0  0  0  0  0
   -2.3435    0.3002    0.8726 C   0  0  0  0  0  0  0  0  0  0  0  0
   -2.0681    0.6378   -0.5919 C   0  0  0  0  0  0  0  0  0  0  0  0
   -1.1064   -0.6062    2.5818 H   0  0  0  0  0  0  0  0  0  0  0  0
   -3.0764   -0.5141    0.9357 H   0  0  0  0  0  0  0  0  0  0  0  0
   -2.8206    1.1660    1.3554 H   0  0  0  0  0  0  0  0  0  0  0  0
   -1.6536   -0.2228   -1.1188 H   0  0  0  0  0  0  0  0  0  0  0  0
   -1.3471    1.4523   -0.6686 H   0  0  0  0  0  0  0  0  0  0  0  0
   -2.9859    0.9396   -1.0975 H   0  0  0  0  0  0  0  0  0  0  0  0
    1.4050   -0.3143   -1.8445 C   0  0  0  0  0  0  0  0  0  0  0  0
    1.3822   -1.1180   -0.5528 C   0  0  0  0  0  0  0  0  0  0  0  0
    1.8276   -0.3148    0.6614 C   0  0  0  0  0  0  0  0  0  0  0  0
    1.0521    0.8215    0.9128 O   0  0  0  0  0  0  0  0  0  0  0  0
    2.4204    0.0099   -2.0847 H   0  0  0  0  0  0  0  0  0  0  0  0
    0.7840    0.5773   -1.7546 H   0  0  0  0  0  0  0  0  0  0  0  0
    1.0346   -0.9043   -2.6843 H   0  0  0  0  0  0  0  0  0  0  0  0
    0.3716   -1.4929   -0.3595 H   0  0  0  0  0  0  0  0  0  0  0  0
    2.0298   -1.9957   -0.6403 H   0  0  0  0  0  0  0  0  0  0  0  0
    2.8405    0.0775    0.4968 H   0  0  0  0  0  0  0  0  0  0  0  0
    1.8796   -0.9602    1.5477 H   0  0  0  0  0  0  0  0  0  0  0  0
   -0.0310    0.4511    1.2962 H   0  0  0  0  0  0  0  0  0  0  0  0
  1  2  1  0
  1  4  1  0
  2  3  1  0
  2  5  1  0
  2  6  1  0
  3  7  1  0
  3  8  1  0
  3  9  1  0
 10 11  1  0
 10 14  1  0
 10 15  1  0
 10 16  1  0
 11 12  1  0
 11 17  1  0
 11 18  1  0
 12 13  1  0
 12 19  1  0
 12 20  1  0
 13 21  1  0
M  RAD  1   1   3
M  END
>  <reaction>  (4) 
rmg_rxn_293

>  <mol_properties>  (4) 
{"0": {"label": "*3", "atom_type": "Cs"}, "1": {"label": "*4", "atom_type": "Cs"}, "11": {"label": "*0", "atom_type": "Cs"}, "12": {"label": "*1", "atom_type": "O2s"}, "20": {"label": "*2", "atom_type": "H0"}}

>  <type>  (4) 
ts

$$$$

     RDKit          3D

 21 19  0  0  0  0  0  0  0  0999 V2000
   -1.4826   -0.1763    0.2666 C   0  0  0  0  0  2  0  0  0  0  0  0
   -2.3884    0.4992    1.2278 C   0  0  0  0  0  0  0  0  0  0  0  0
   -1.7279    0.8295    2.5619 C   0  0  0  0  0  0  0  0  0  0  0  0
   -1.8701   -0.6291   -0.6361 H   0  0  0  0  0  0  0  0  0  0  0  0
   -2.7768    1.4270    0.7802 H   0  0  0  0  0  0  0  0  0  0  0  0
   -3.2772   -0.1206    1.3954 H   0  0  0  0  0  0  0  0  0  0  0  0
   -0.8634    1.4806    2.4157 H   0  0  0  0  0  0  0  0  0  0  0  0
   -1.3814   -0.0780    3.0598 H   0  0  0  0  0  0  0  0  0  0  0  0
   -2.4217    1.3390    3.2320 H   0  0  0  0  0  0  0  0  0  0  0  0
    1.6506   -1.2077   -2.3433 C   0  0  0  0  0  0  0  0  0  0  0  0
    1.6506   -1.2077   -0.8209 C   0  0  0  0  0  0  0  0  0  0  0  0
    1.6506    0.1903   -0.2202 C   0  0  0  0  0  0  0  0  0  0  0  0
    0.5168    0.9550   -0.5833 O   0  0  0  0  0  0  0  0  0  0  0  0
    2.5499   -0.7234   -2.7308 H   0  0  0  0  0  0  0  0  0  0  0  0
    0.7891   -0.6636   -2.7315 H   0  0  0  0  0  0  0  0  0  0  0  0
    1.6198   -2.2239   -2.7389 H   0  0  0  0  0  0  0  0  0  0  0  0
    0.7773   -1.7544   -0.4465 H   0  0  0  0  0  0  0  0  0  0  0  0
    2.5280   -1.7412   -0.4429 H   0  0  0  0  0  0  0  0  0  0  0  0
    2.5117    0.7533   -0.5869 H   0  0  0  0  0  0  0  0  0  0  0  0
    1.7406    0.1271    0.8716 H   0  0  0  0  0  0  0  0  0  0  0  0
   -0.4222    0.4237   -0.1842 H   0  0  0  0  0  0  0  0  0  0  0  0
  1  2  1  0
  1  4  1  0
  2  3  1  0
  2  5  1  0
  2  6  1  0
  3  7  1  0
  3  8  1  0
  3  9  1  0
 10 11  1  0
 10 14  1  0
 10 15  1  0
 10 16  1  0
 11 12  1  0
 11 17  1  0
 11 18  1  0
 12 13  1  0
 12 19  1  0
 12 20  1  0
 13 21  1  0
M  RAD  1   1   3
M  END
>  <reaction>  (5) 
rmg_rxn_293

>  <mol_properties>  (5) 
{"0": {"label": "*3", "atom_type": "Cs"}, "1": {"label": "*4", "atom_type": "Cs"}, "11": {"label": "*0", "atom_type": "Cs"}, "12": {"label": "*1", "atom_type": "O2s"}, "20": {"label": "*2", "atom_type": "H0"}}

>  <type>  (5) 
unop_1

>  <geom_source>  (5) 
Heuristics

$$$$

     RDKit          3D

 21 19  0  0  0  0  0  0  0  0999 V2000
   -1.8545    0.4130    0.3523 C   0  0  0  0  0  2  0  0  0  0  0  0
   -1.7972   -0.4087    1.5861 C   0  0  0  0  0  0  0  0  0  0  0  0
   -0.4861   -1.1687    1.7543 C   0  0  0  0  0  0  0  0  0  0  0  0
   -2.7867    0.8492    0.0193 H   0  0  0  0  0  0  0  0  0  0  0  0
   -1.9550    0.2340    2.4658 H   0  0  0  0  0  0  0  0  0  0  0  0
   -2.6394   -1.1107    1.6014 H   0  0  0  0  0  0  0  0  0  0  0  0
    0.3607   -0.4795    1.7820 H   0  0  0  0  0  0  0  0  0  0  0  0
   -0.3271   -1.8591    0.9239 H   0  0  0  0  0  0  0  0  0  0  0  0
   -0.4788   -1.7459    2.6800 H   0  0  0  0  0  0  0  0  0  0  0  0
    1.2787   -0.6184   -2.2577 C   0  0  0  0  0  0  0  0  0  0  0  0
    1.2787   -0.6184   -0.7352 C   0  0  0  0  0  0  0  0  0  0  0  0
    1.2787    0.7796   -0.1345 C   0  0  0  0  0  0  0  0  0  0  0  0
    0.1449    1.5443   -0.4976 O   0  0  0  0  0  0  0  0  0  0  0  0
    2.1780   -0.1341   -2.6452 H   0  0  0  0  0  0  0  0  0  0  0  0
    0.4172   -0.0743   -2.6459 H   0  0  0  0  0  0  0  0  0  0  0  0
    1.2479   -1.6346   -2.6533 H   0  0  0  0  0  0  0  0  0  0  0  0
    0.4054   -1.1650   -0.3609 H   0  0  0  0  0  0  0  0  0  0  0  0
    2.1561   -1.1519   -0.3572 H   0  0  0  0  0  0  0  0  0  0  0  0
    2.1398    1.3426   -0.5013 H   0  0  0  0  0  0  0  0  0  0  0  0
    1.3687    0.7164    0.9572 H   0  0  0  0  0  0  0  0  0  0  0  0
   -0.7941    1.0130   -0.0985 H   0  0  0  0  0  0  0  0  0  0  0  0
  1  2  1  0
  1  4  1  0
  2  3  1  0
  2  5  1  0
  2  6  1  0
  3  7  1  0
  3  8  1  0
  3  9  1  0
 10 11  1  0
 10 14  1  0
 10 15  1  0
 10 16  1  0
 11 12  1  0
 11 17  1  0
 11 18  1  0
 12 13  1  0
 12 19  1  0
 12 20  1  0
 13 21  1  0
M  RAD  1   1   3
M  END
>  <reaction>  (6) 
rmg_rxn_293

>  <mol_properties>  (6) 
{"0": {"label": "*3", "atom_type": "Cs"}, "1": {"label": "*4", "atom_type": "Cs"}, "11": {"label": "*0", "atom_type": "Cs"}, "12": {"label": "*1", "atom_type": "O2s"}, "20": {"label": "*2", "atom_type": "H0"}}

>  <type>  (6) 
unop_2

>  <geom_source>  (6) 
Heuristics

$$$$

     RDKit          3D

 21 19  0  0  0  0  0  0  0  0999 V2000
   -1.3411   -0.3134    0.4790 C   0  0  0  0  0  2  0  0  0  0  0  0
   -2.5480    0.4597    0.8619 C   0  0  0  0  0  0  0  0  0  0  0  0
   -2.2712    1.5612    1.8792 C   0  0  0  0  0  0  0  0  0  0  0  0
   -1.4273   -1.2329   -0.0844 H   0  0  0  0  0  0  0  0  0  0  0  0
   -3.0012    0.9063   -0.0364 H   0  0  0  0  0  0  0  0  0  0  0  0
   -3.3149   -0.2214    1.2496 H   0  0  0  0  0  0  0  0  0  0  0  0
   -1.5382    2.2719    1.4913 H   0  0  0  0  0  0  0  0  0  0  0  0
   -1.8730    1.1440    2.8060 H   0  0  0  0  0  0  0  0  0  0  0  0
   -3.1797    2.1149    2.1206 H   0  0  0  0  0  0  0  0  0  0  0  0
    1.7920   -1.3449   -2.1310 C   0  0  0  0  0  0  0  0  0  0  0  0
    1.7920   -1.3449   -0.6085 C   0  0  0  0  0  0  0  0  0  0  0  0
    1.7920    0.0531   -0.0078 C   0  0  0  0  0  0  0  0  0  0  0  0
    0.6582    0.8178   -0.3709 O   0  0  0  0  0  0  0  0  0  0  0  0
    2.6913   -0.8605   -2.5184 H   0  0  0  0  0  0  0  0  0  0  0  0
    0.9305   -0.8007   -2.5191 H   0  0  0  0  0  0  0  0  0  0  0  0
    1.7613   -2.3611   -2.5265 H   0  0  0  0  0  0  0  0  0  0  0  0
    0.9187   -1.8915   -0.2341 H   0  0  0  0  0  0  0  0  0  0  0  0
    2.6695   -1.8783   -0.2305 H   0  0  0  0  0  0  0  0  0  0  0  0
    2.6532    0.6161   -0.3745 H   0  0  0  0  0  0  0  0  0  0  0  0
    1.8820   -0.0100    1.0840 H   0  0  0  0  0  0  0  0  0  0  0  0
   -0.2807    0.2866    0.0282 H   0  0  0  0  0  0  0  0  0  0  0  0
  1  2  1  0
  1  4  1  0
  2  3  1  0
  2  5  1  0
  2  6  1  0
  3  7  1  0
  3  8  1  0
  3  9  1  0
 10 11  1  0
 10 14  1  0
 10 15  1  0
 10 16  1  0
 11 12  1  0
 11 17  1  0
 11 18  1  0
 12 13  1  0
 12 19  1  0
 12 20  1  0
 13 21  1  0
M  RAD  1   1   3
M  END
>  <reaction>  (7) 
rmg_rxn_293

>  <mol_properties>  (7) 
{"0": {"label": "*3", "atom_type": "Cs"}, "1": {"label": "*4", "atom_type": "Cs"}, "11": {"label": "*0", "atom_type": "Cs"}, "12": {"label": "*1", "atom_type": "O2s"}, "20": {"label": "*2", "atom_type": "H0"}}

>  <type>  (7) 
unop_3

>  <geom_source>  (7) 
Heuristics

$$$$

     RDKit          3D

 21 19  0  0  0  0  0  0  0  0999 V2000
   -1.7172    0.5677    0.9602 C   0  0  0  0  0  2  0  0  0  0  0  0
   -2.0536   -0.8107    0.5271 C   0  0  0  0  0  0  0  0  0  0  0  0
   -0.9040   -1.5304   -0.1697 C   0  0  0  0  0  0  0  0  0  0  0  0
   -2.4891    1.2478    1.2946 H   0  0  0  0  0  0  0  0  0  0  0  0
   -2.3734   -1.4039    1.3976 H   0  0  0  0  0  0  0  0  0  0  0  0
   -2.9313   -0.7873   -0.1297 H   0  0  0  0  0  0  0  0  0  0  0  0
   -0.0341   -1.5981    0.4872 H   0  0  0  0  0  0  0  0  0  0  0  0
   -0.5999   -0.9960   -1.0716 H   0  0  0  0  0  0  0  0  0  0  0  0
   -1.1871   -2.5441   -0.4565 H   0  0  0  0  0  0  0  0  0  0  0  0
    1.4160   -0.4637   -1.6497 C   0  0  0  0  0  0  0  0  0  0  0  0
    1.4160   -0.4637   -0.1273 C   0  0  0  0  0  0  0  0  0  0  0  0
    1.4160    0.9343    0.4735 C   0  0  0  0  0  0  0  0  0  0  0  0
    0.2822    1.6990    0.1103 O   0  0  0  0  0  0  0  0  0  0  0  0
    2.3153    0.0207   -2.0372 H   0  0  0  0  0  0  0  0  0  0  0  0
    0.5545    0.0804   -2.0379 H   0  0  0  0  0  0  0  0  0  0  0  0
    1.3852   -1.4799   -2.0453 H   0  0  0  0  0  0  0  0  0  0  0  0
    0.5427   -1.0103    0.2471 H   0  0  0  0  0  0  0  0  0  0  0  0
    2.2934   -0.9971    0.2507 H   0  0  0  0  0  0  0  0  0  0  0  0
    2.2771    1.4973    0.1067 H   0  0  0  0  0  0  0  0  0  0  0  0
    1.5060    0.8711    1.5652 H   0  0  0  0  0  0  0  0  0  0  0  0
   -0.6568    1.1677    0.5095 H   0  0  0  0  0  0  0  0  0  0  0  0
  1  2  1  0
  1  4  1  0
  2  3  1  0
  2  5  1  0
  2  6  1  0
  3  7  1  0
  3  8  1  0
  3  9  1  0
 10 11  1  0
 10 14  1  0
 10 15  1  0
 10 16  1  0
 11 12  1  0
 11 17  1  0
 11 18  1  0
 12 13  1  0
 12 19  1  0
 12 20  1  0
 13 21  1  0
M  RAD  1   1   3
M  END
>  <reaction>  (8) 
rmg_rxn_293

>  <mol_properties>  (8) 
{"0": {"label": "*3", "atom_type": "Cs"}, "1": {"label": "*4", "atom_type": "Cs"}, "11": {"label": "*0", "atom_type": "Cs"}, "12": {"label": "*1", "atom_type": "O2s"}, "20": {"label": "*2", "atom_type": "H0"}}

>  <type>  (8) 
unop_4

>  <geom_source>  (8) 
Heuristics

$$$$

     RDKit          3D

 21 19  0  0  0  0  0  0  0  0999 V2000
   -1.2626   -0.3080    0.8536 C   0  0  0  0  0  2  0  0  0  0  0  0
   -2.6136    0.2614    0.6264 C   0  0  0  0  0  0  0  0  0  0  0  0
   -2.5984    1.7363    0.2399 C   0  0  0  0  0  0  0  0  0  0  0  0
   -1.1406   -1.2810    1.3101 H   0  0  0  0  0  0  0  0  0  0  0  0
   -3.1281   -0.3107   -0.1610 H   0  0  0  0  0  0  0  0  0  0  0  0
   -3.2302    0.1170    1.5214 H   0  0  0  0  0  0  0  0  0  0  0  0
   -2.0211    1.8916   -0.6741 H   0  0  0  0  0  0  0  0  0  0  0  0
   -2.1446    2.3404    1.0276 H   0  0  0  0  0  0  0  0  0  0  0  0
   -3.6083    2.1106    0.0661 H   0  0  0  0  0  0  0  0  0  0  0  0
    1.8706   -1.3394   -1.7564 C   0  0  0  0  0  0  0  0  0  0  0  0
    1.8706   -1.3394   -0.2339 C   0  0  0  0  0  0  0  0  0  0  0  0
    1.8706    0.0586    0.3668 C   0  0  0  0  0  0  0  0  0  0  0  0
    0.7368    0.8233    0.0037 O   0  0  0  0  0  0  0  0  0  0  0  0
    2.7698   -0.8550   -2.1439 H   0  0  0  0  0  0  0  0  0  0  0  0
    1.0090   -0.7953   -2.1446 H   0  0  0  0  0  0  0  0  0  0  0  0
    1.8398   -2.3556   -2.1520 H   0  0  0  0  0  0  0  0  0  0  0  0
    0.9973   -1.8860    0.1404 H   0  0  0  0  0  0  0  0  0  0  0  0
    2.7480   -1.8728    0.1441 H   0  0  0  0  0  0  0  0  0  0  0  0
    2.7317    0.6216    0.0000 H   0  0  0  0  0  0  0  0  0  0  0  0
    1.9606   -0.0046    1.4586 H   0  0  0  0  0  0  0  0  0  0  0  0
   -0.2022    0.2920    0.4028 H   0  0  0  0  0  0  0  0  0  0  0  0
  1  2  1  0
  1  4  1  0
  2  3  1  0
  2  5  1  0
  2  6  1  0
  3  7  1  0
  3  8  1  0
  3  9  1  0
 10 11  1  0
 10 14  1  0
 10 15  1  0
 10 16  1  0
 11 12  1  0
 11 17  1  0
 11 18  1  0
 12 13  1  0
 12 19  1  0
 12 20  1  0
 13 21  1  0
M  RAD  1   1   3
M  END
>  <reaction>  (9) 
rmg_rxn_293

>  <mol_properties>  (9) 
{"0": {"label": "*3", "atom_type": "Cs"}, "1": {"label": "*4", "atom_type": "Cs"}, "11": {"label": "*0", "atom_type": "Cs"}, "12": {"label": "*1", "atom_type": "O2s"}, "20": {"label": "*2", "atom_type": "H0"}}

>  <type>  (9) 
unop_5

>  <geom_source>  (9) 
Heuristics

$$$$

     RDKit          3D

 21 19  0  0  0  0  0  0  0  0999 V2000
   -1.5692    0.4496    1.1250 C   0  0  0  0  0  2  0  0  0  0  0  0
   -2.2829   -0.5562    0.3003 C   0  0  0  0  0  0  0  0  0  0  0  0
   -1.4048   -1.2122   -0.7597 C   0  0  0  0  0  0  0  0  0  0  0  0
   -2.1134    1.1165    1.7800 H   0  0  0  0  0  0  0  0  0  0  0  0
   -2.7031   -1.3375    0.9521 H   0  0  0  0  0  0  0  0  0  0  0  0
   -3.1558   -0.0921   -0.1739 H   0  0  0  0  0  0  0  0  0  0  0  0
   -0.5512   -1.7144   -0.2993 H   0  0  0  0  0  0  0  0  0  0  0  0
   -1.0171   -0.4686   -1.4585 H   0  0  0  0  0  0  0  0  0  0  0  0
   -1.9624   -1.9552   -1.3315 H   0  0  0  0  0  0  0  0  0  0  0  0
    1.5640   -0.5819   -1.4850 C   0  0  0  0  0  0  0  0  0  0  0  0
    1.5640   -0.5819    0.0375 C   0  0  0  0  0  0  0  0  0  0  0  0
    1.5640    0.8161    0.6382 C   0  0  0  0  0  0  0  0  0  0  0  0
    0.4302    1.5808    0.2751 O   0  0  0  0  0  0  0  0  0  0  0  0
    2.4633   -0.0975   -1.8725 H   0  0  0  0  0  0  0  0  0  0  0  0
    0.7025   -0.0377   -1.8732 H   0  0  0  0  0  0  0  0  0  0  0  0
    1.5332   -1.5981   -1.8806 H   0  0  0  0  0  0  0  0  0  0  0  0
    0.6907   -1.1285    0.4118 H   0  0  0  0  0  0  0  0  0  0  0  0
    2.4414   -1.1153    0.4155 H   0  0  0  0  0  0  0  0  0  0  0  0
    2.4251    1.3791    0.2714 H   0  0  0  0  0  0  0  0  0  0  0  0
    1.6540    0.7530    1.7299 H   0  0  0  0  0  0  0  0  0  0  0  0
   -0.5088    1.0495    0.6742 H   0  0  0  0  0  0  0  0  0  0  0  0
  1  2  1  0
  1  4  1  0
  2  3  1  0
  2  5  1  0
  2  6  1  0
  3  7  1  0
  3  8  1  0
  3  9  1  0
 10 11  1  0
 10 14  1  0
 10 15  1  0
 10 16  1  0
 11 12  1  0
 11 17  1  0
 11 18  1  0
 12 13  1  0
 12 19  1  0
 12 20  1  0
 13 21  1  0
M  RAD  1   1   3
M  END
>  <reaction>  (10) 
rmg_rxn_293

>  <mol_properties>  (10) 
{"0": {"label": "*3", "atom_type": "Cs"}, "1": {"label": "*4", "atom_type": "Cs"}, "11": {"label": "*0", "atom_type": "Cs"}, "12": {"label": "*1", "atom_type": "O2s"}, "20": {"label": "*2", "atom_type": "H0"}}

>  <type>  (10) 
unop_6

>  <geom_source>  (10) 
Heuristics

$$$$

     RDKit          3D

 21 19  0  0  0  0  0  0  0  0999 V2000
   -1.4138    0.2419    1.2017 C   0  0  0  0  0  2  0  0  0  0  0  0
   -2.4801   -0.2158    0.2773 C   0  0  0  0  0  0  0  0  0  0  0  0
   -1.9773   -0.5330   -1.1268 C   0  0  0  0  0  0  0  0  0  0  0  0
   -1.6606    0.6740    2.1622 H   0  0  0  0  0  0  0  0  0  0  0  0
   -2.9713   -1.1090    0.6930 H   0  0  0  0  0  0  0  0  0  0  0  0
   -3.2740    0.5388    0.2272 H   0  0  0  0  0  0  0  0  0  0  0  0
   -1.2136   -1.3132   -1.0981 H   0  0  0  0  0  0  0  0  0  0  0  0
   -1.5342    0.3503   -1.5903 H   0  0  0  0  0  0  0  0  0  0  0  0
   -2.7880   -0.8810   -1.7686 H   0  0  0  0  0  0  0  0  0  0  0  0
    1.7193   -0.7896   -1.4082 C   0  0  0  0  0  0  0  0  0  0  0  0
    1.7193   -0.7896    0.1142 C   0  0  0  0  0  0  0  0  0  0  0  0
    1.7193    0.6084    0.7150 C   0  0  0  0  0  0  0  0  0  0  0  0
    0.5855    1.3731    0.3518 O   0  0  0  0  0  0  0  0  0  0  0  0
    2.6186   -0.3052   -1.7957 H   0  0  0  0  0  0  0  0  0  0  0  0
    0.8578   -0.2454   -1.7964 H   0  0  0  0  0  0  0  0  0  0  0  0
    1.6885   -1.8058   -1.8038 H   0  0  0  0  0  0  0  0  0  0  0  0
    0.8460   -1.3362    0.4886 H   0  0  0  0  0  0  0  0  0  0  0  0
    2.5967   -1.3230    0.4922 H   0  0  0  0  0  0  0  0  0  0  0  0
    2.5804    1.1714    0.3482 H   0  0  0  0  0  0  0  0  0  0  0  0
    1.8093    0.5453    1.8067 H   0  0  0  0  0  0  0  0  0  0  0  0
   -0.3535    0.8419    0.7510 H   0  0  0  0  0  0  0  0  0  0  0  0
  1  2  1  0
  1  4  1  0
  2  3  1  0
  2  5  1  0
  2  6  1  0
  3  7  1  0
  3  8  1  0
  3  9  1  0
 10 11  1  0
 10 14  1  0
 10 15  1  0
 10 16  1  0
 11 12  1  0
 11 17  1  0
 11 18  1  0
 12 13  1  0
 12 19  1  0
 12 20  1  0
 13 21  1  0
M  RAD  1   1   3
M  END
>  <reaction>  (11) 
rmg_rxn_293

>  <mol_properties>  (11) 
{"0": {"label": "*3", "atom_type": "Cs"}, "1": {"label": "*4", "atom_type": "Cs"}, "11": {"label": "*0", "atom_type": "Cs"}, "12": {"label": "*1", "atom_type": "O2s"}, "20": {"label": "*2", "atom_type": "H0"}}

>  <type>  (11) 
unop_7

>  <geom_source>  (11) 
Heuristics

$$$$

     RDKit          3D

 21 19  0  0  0  0  0  0  0  0999 V2000
   -1.6391    0.0185    0.1828 C   0  0  0  0  0  2  0  0  0  0  0  0
   -2.1677    0.3213    1.5355 C   0  0  0  0  0  0  0  0  0  0  0  0
   -1.1746    0.0383    2.6574 C   0  0  0  0  0  0  0  0  0  0  0  0
   -2.2956   -0.0039   -0.6768 H   0  0  0  0  0  0  0  0  0  0  0  0
   -2.4734    1.3777    1.5849 H   0  0  0  0  0  0  0  0  0  0  0  0
   -3.0924   -0.2428    1.7052 H   0  0  0  0  0  0  0  0  0  0  0  0
   -0.2626    0.6243    2.5249 H   0  0  0  0  0  0  0  0  0  0  0  0
   -0.8940   -1.0165    2.6718 H   0  0  0  0  0  0  0  0  0  0  0  0
   -1.5958    0.2894    3.6319 H   0  0  0  0  0  0  0  0  0  0  0  0
    1.4940   -1.0129   -2.4272 C   0  0  0  0  0  0  0  0  0  0  0  0
    1.4940   -1.0129   -0.9047 C   0  0  0  0  0  0  0  0  0  0  0  0
    1.4940    0.3851   -0.3040 C   0  0  0  0  0  0  0  0  0  0  0  0
    0.3602    1.1498   -0.6672 O   0  0  0  0  0  0  0  0  0  0  0  0
    2.3933   -0.5285   -2.8147 H   0  0  0  0  0  0  0  0  0  0  0  0
    0.6325   -0.4688   -2.8154 H   0  0  0  0  0  0  0  0  0  0  0  0
    1.4633   -2.0291   -2.8228 H   0  0  0  0  0  0  0  0  0  0  0  0
    0.6207   -1.5595   -0.5304 H   0  0  0  0  0  0  0  0  0  0  0  0
    2.3715   -1.5463   -0.5268 H   0  0  0  0  0  0  0  0  0  0  0  0
    2.3552    0.9481   -0.6708 H   0  0  0  0  0  0  0  0  0  0  0  0
    1.5840    0.3219    0.7877 H   0  0  0  0  0  0  0  0  0  0  0  0
   -0.5787    0.6185   -0.2680 H   0  0  0  0  0  0  0  0  0  0  0  0
  1  2  1  0
  1  4  1  0
  2  3  1  0
  2  5  1  0
  2  6  1  0
  3  7  1  0
  3  8  1  0
  3  9  1  0
 10 11  1  0
 10 14  1  0
 10 15  1  0
 10 16  1  0
 11 12  1  0
 11 17  1  0
 11 18  1  0
 12 13  1  0
 12 19  1  0
 12 20  1  0
 13 21  1  0
M  RAD  1   1   3
M  END
>  <reaction>  (12) 
rmg_rxn_293

>  <mol_properties>  (12) 
{"0": {"label": "*3", "atom_type": "Cs"}, "1": {"label": "*4", "atom_type": "Cs"}, "11": {"label": "*0", "atom_type": "Cs"}, "12": {"label": "*1", "atom_type": "O2s"}, "20": {"label": "*2", "atom_type": "H0"}}

>  <type>  (12) 
unop_8

>  <geom_source>  (12) 
Heuristics

$$$$

     RDKit          3D

 21 18  0  0  0  0  0  0  0  0999 V2000
   -1.8250    0.5924    0.7536 C   0  0  0  0  0  3  0  0  0  0  0  0
   -1.8604   -0.8836    0.8988 C   0  0  0  0  0  0  0  0  0  0  0  0
   -0.5674   -1.5710    0.4738 C   0  0  0  0  0  3  0  0  0  0  0  0
   -2.7291    1.1799    0.8405 H   0  0  0  0  0  0  0  0  0  0  0  0
   -2.0797   -1.1469    1.9449 H   0  0  0  0  0  0  0  0  0  0  0  0
   -2.7036   -1.2905    0.3281 H   0  0  0  0  0  0  0  0  0  0  0  0
    0.2773   -1.2056    1.0618 H   0  0  0  0  0  0  0  0  0  0  0  0
   -0.3505   -1.3760   -0.5781 H   0  0  0  0  0  0  0  0  0  0  0  0
   -0.6293   -2.6514    0.6115 H   0  0  0  0  0  0  0  0  0  0  0  0
    1.3082   -0.4391   -1.8563 C   0  0  0  0  0  0  0  0  0  0  0  0
    1.3082   -0.4391   -0.3339 C   0  0  0  0  0  0  0  0  0  0  0  0
    1.3082    0.9589    0.2668 C   0  0  0  0  0  0  0  0  0  0  0  0
    0.1744    1.7236   -0.0963 O   0  0  0  0  0  0  0  0  0  0  0  0
    2.2074    0.0453   -2.2438 H   0  0  0  0  0  0  0  0  0  0  0  0
    0.4467    0.1051   -2.2445 H   0  0  0  0  0  0  0  0  0  0  0  0
    1.2774   -1.4553   -2.2519 H   0  0  0  0  0  0  0  0  0  0  0  0
    0.4349   -0.9857    0.0405 H   0  0  0  0  0  0  0  0  0  0  0  0
    2.1856   -0.9725    0.0441 H   0  0  0  0  0  0  0  0  0  0  0  0
    2.1693    1.5219   -0.0999 H   0  0  0  0  0  0  0  0  0  0  0  0
    1.3982    0.8958    1.3586 H   0  0  0  0  0  0  0  0  0  0  0  0
   -0.7646    1.1924    0.3028 H   0  0  0  0  0  0  0  0  0  0  0  0
  1  2  2  3
  1  4  1  0
  2  5  1  0
  2  6  1  0
  3  7  1  0
  3  8  1  0
  3  9  1  0
 10 11  1  0
 10 14  1  0
 10 15  1  0
 10 16  1  0
 11 12  1  0
 11 17  1  0
 11 18  1  0
 12 13  1  0
 12 19  1  0
 12 20  1  0
 13 21  1  0
M  RAD  2   1   2   3   2
M  END
>  <reaction>  (13) 
rmg_rxn_293

>  <mol_properties>  (13) 
{"0": {"label": "*3", "atom_type": "Cs"}, "1": {"label": "*4", "atom_type": "Cs"}, "11": {"label": "*0", "atom_type": "Cs"}, "12": {"label": "*1", "atom_type": "O2s"}, "20": {"label": "*2", "atom_type": "H0"}}

>  <type>  (13) 
unop_9

>  <geom_source>  (13) 
Heuristics

$$$$

     RDKit          3D

 21 19  0  0  0  0  0  0  0  0999 V2000
   -1.7721    0.2304    0.2189 C   0  0  0  0  0  2  0  0  0  0  0  0
   -1.9481   -0.0149    1.6714 C   0  0  0  0  0  0  0  0  0  0  0  0
   -0.7396   -0.6693    2.3319 C   0  0  0  0  0  0  0  0  0  0  0  0
   -2.6119    0.5133   -0.4014 H   0  0  0  0  0  0  0  0  0  0  0  0
   -2.1660    0.9353    2.1829 H   0  0  0  0  0  0  0  0  0  0  0  0
   -2.8411   -0.6293    1.8364 H   0  0  0  0  0  0  0  0  0  0  0  0
    0.1512   -0.0490    2.2115 H   0  0  0  0  0  0  0  0  0  0  0  0
   -0.5310   -1.6427    1.8842 H   0  0  0  0  0  0  0  0  0  0  0  0
   -0.9035   -0.8166    3.4003 H   0  0  0  0  0  0  0  0  0  0  0  0
    1.3611   -0.8011   -2.3910 C   0  0  0  0  0  0  0  0  0  0  0  0
    1.3611   -0.8011   -0.8686 C   0  0  0  0  0  0  0  0  0  0  0  0
    1.3611    0.5969   -0.2679 C   0  0  0  0  0  0  0  0  0  0  0  0
    0.2273    1.3616   -0.6310 O   0  0  0  0  0  0  0  0  0  0  0  0
    2.2603   -0.3167   -2.7785 H   0  0  0  0  0  0  0  0  0  0  0  0
    0.4996   -0.2569   -2.7792 H   0  0  0  0  0  0  0  0  0  0  0  0
    1.3303   -1.8173   -2.7866 H   0  0  0  0  0  0  0  0  0  0  0  0
    0.4878   -1.3477   -0.4942 H   0  0  0  0  0  0  0  0  0  0  0  0
    2.2385   -1.3345   -0.4906 H   0  0  0  0  0  0  0  0  0  0  0  0
    2.2222    1.1599   -0.6346 H   0  0  0  0  0  0  0  0  0  0  0  0
    1.4511    0.5338    0.8239 H   0  0  0  0  0  0  0  0  0  0  0  0
   -0.7117    0.8304   -0.2319 H   0  0  0  0  0  0  0  0  0  0  0  0
  1  2  1  0
  1  4  1  0
  2  3  1  0
  2  5  1  0
  2  6  1  0
  3  7  1  0
  3  8  1  0
  3  9  1  0
 10 11  1  0
 10 14  1  0
 10 15  1  0
 10 16  1  0
 11 12  1  0
 11 17  1  0
 11 18  1  0
 12 13  1  0
 12 19  1  0
 12 20  1  0
 13 21  1  0
M  RAD  1   1   3
M  END
>  <reaction>  (14) 
rmg_rxn_293

>  <mol_properties>  (14) 
{"0": {"label": "*3", "atom_type": "Cs"}, "1": {"label": "*4", "atom_type": "Cs"}, "11": {"label": "*0", "atom_type": "Cs"}, "12": {"label": "*1", "atom_type": "O2s"}, "20": {"label": "*2", "atom_type": "H0"}}

>  <type>  (14) 
unop_10

>  <geom_source>  (14) 
Heuristics

$$$$

     RDKit          3D

 21 19  0  0  0  0  0  0  0  0999 V2000
   -1.2937   -0.0353    1.1432 C   0  0  0  0  0  2  0  0  0  0  0  0
   -2.5932    0.0835    0.4375 C   0  0  0  0  0  0  0  0  0  0  0  0
   -2.4629    0.5435   -1.0105 C   0  0  0  0  0  0  0  0  0  0  0  0
   -1.2556   -0.1690    2.2160 H   0  0  0  0  0  0  0  0  0  0  0  0
   -3.1163   -0.8848    0.4607 H   0  0  0  0  0  0  0  0  0  0  0  0
   -3.2509    0.7668    0.9877 H   0  0  0  0  0  0  0  0  0  0  0  0
   -1.8430   -0.1498   -1.5831 H   0  0  0  0  0  0  0  0  0  0  0  0
   -1.9980    1.5296   -1.0652 H   0  0  0  0  0  0  0  0  0  0  0  0
   -3.4376    0.6017   -1.4969 H   0  0  0  0  0  0  0  0  0  0  0  0
    1.8394   -1.0667   -1.4668 C   0  0  0  0  0  0  0  0  0  0  0  0
    1.8394   -1.0667    0.0557 C   0  0  0  0  0  0  0  0  0  0  0  0
    1.8394    0.3312    0.6564 C   0  0  0  0  0  0  0  0  0  0  0  0
    0.7056    1.0960    0.2933 O   0  0  0  0  0  0  0  0  0  0  0  0
    2.7387   -0.5824   -1.8542 H   0  0  0  0  0  0  0  0  0  0  0  0
    0.9779   -0.5226   -1.8549 H   0  0  0  0  0  0  0  0  0  0  0  0
    1.8086   -2.0829   -1.8623 H   0  0  0  0  0  0  0  0  0  0  0  0
    0.9661   -1.6134    0.4301 H   0  0  0  0  0  0  0  0  0  0  0  0
    2.7168   -1.6002    0.4337 H   0  0  0  0  0  0  0  0  0  0  0  0
    2.7006    0.8943    0.2897 H   0  0  0  0  0  0  0  0  0  0  0  0
    1.9294    0.2681    1.7482 H   0  0  0  0  0  0  0  0  0  0  0  0
   -0.2333    0.5647    0.6924 H   0  0  0  0  0  0  0  0  0  0  0  0
  1  2  1  0
  1  4  1  0
  2  3  1  0
  2  5  1  0
  2  6  1  0
  3  7  1  0
  3  8  1  0
  3  9  1  0
 10 11  1  0
 10 14  1  0
 10 15  1  0
 10 16  1  0
 11 12  1  0
 11 17  1  0
 11 18  1  0
 12 13  1  0
 12 19  1  0
 12 20  1  0
 13 21  1  0
M  RAD  1   1   3
M  END
>  <reaction>  (15) 
rmg_rxn_293

>  <mol_properties>  (15) 
{"0": {"label": "*3", "atom_type": "Cs"}, "1": {"label": "*4", "atom_type": "Cs"}, "11": {"label": "*0", "atom_type": "Cs"}, "12": {"label": "*1", "atom_type": "O2s"}, "20": {"label": "*2", "atom_type": "H0"}}

>  <type>  (15) 
unop_11

>  <geom_source>  (15) 
Heuristics

$$$$

     RDKit          3D

 21 19  0  0  0  0  0  0  0  0999 V2000
   -1.8730    0.5369    0.5422 C   0  0  0  0  0  2  0  0  0  0  0  0
   -1.7643   -0.7353    1.2975 C   0  0  0  0  0  0  0  0  0  0  0  0
   -0.4282   -1.4457    1.1097 C   0  0  0  0  0  0  0  0  0  0  0  0
   -2.8247    1.0405    0.4384 H   0  0  0  0  0  0  0  0  0  0  0  0
   -1.9208   -0.5429    2.3701 H   0  0  0  0  0  0  0  0  0  0  0  0
   -2.5852   -1.4044    1.0136 H   0  0  0  0  0  0  0  0  0  0  0  0
    0.3986   -0.8066    1.4267 H   0  0  0  0  0  0  0  0  0  0  0  0
   -0.2680   -1.7024    0.0608 H   0  0  0  0  0  0  0  0  0  0  0  0
   -0.3834   -2.3661    1.6936 H   0  0  0  0  0  0  0  0  0  0  0  0
    1.2602   -0.4945   -2.0677 C   0  0  0  0  0  0  0  0  0  0  0  0
    1.2602   -0.4945   -0.5453 C   0  0  0  0  0  0  0  0  0  0  0  0
    1.2602    0.9034    0.0554 C   0  0  0  0  0  0  0  0  0  0  0  0
    0.1264    1.6682   -0.3077 O   0  0  0  0  0  0  0  0  0  0  0  0
    2.1594   -0.0102   -2.4552 H   0  0  0  0  0  0  0  0  0  0  0  0
    0.3987    0.0496   -2.4559 H   0  0  0  0  0  0  0  0  0  0  0  0
    1.2294   -1.5107   -2.4633 H   0  0  0  0  0  0  0  0  0  0  0  0
    0.3869   -1.0412   -0.1709 H   0  0  0  0  0  0  0  0  0  0  0  0
    2.1376   -1.0280   -0.1673 H   0  0  0  0  0  0  0  0  0  0  0  0
    2.1213    1.4665   -0.3113 H   0  0  0  0  0  0  0  0  0  0  0  0
    1.3502    0.8403    1.1472 H   0  0  0  0  0  0  0  0  0  0  0  0
   -0.8126    1.1369    0.0915 H   0  0  0  0  0  0  0  0  0  0  0  0
  1  2  1  0
  1  4  1  0
  2  3  1  0
  2  5  1  0
  2  6  1  0
  3  7  1  0
  3  8  1  0
  3  9  1  0
 10 11  1  0
 10 14  1  0
 10 15  1  0
 10 16  1  0
 11 12  1  0
 11 17  1  0
 11 18  1  0
 12 13  1  0
 12 19  1  0
 12 20  1  0
 13 21  1  0
M  RAD  1   1   3
M  END
>  <reaction>  (16) 
rmg_rxn_293

>  <mol_properties>  (16) 
{"0": {"label": "*3", "atom_type": "Cs"}, "1": {"label": "*4", "atom_type": "Cs"}, "11": {"label": "*0", "atom_type": "Cs"}, "12": {"label": "*1", "atom_type": "O2s"}, "20": {"label": "*2", "atom_type": "H0"}}

>  <type>  (16) 
unop_12

>  <geom_source>  (16) 
Heuristics

$$$$

     RDKit          3D

 21 19  0  0  0  0  0  0  0  0999 V2000
   -0.4567   -0.6510    0.1658 O   0  0  0  0  0  0  0  0  0  0  0  0
   -2.8238   -0.2901   -0.0369 C   0  0  0  0  0  0  0  0  0  0  0  0
    2.7251   -0.5685   -0.4752 C   0  0  0  0  0  0  0  0  0  0  0  0
   -1.5028   -0.5676   -0.7550 C   0  0  0  0  0  0  0  0  0  0  0  0
   -2.8291    1.0817    0.6343 C   0  0  0  0  0  0  0  0  0  0  0  0
    3.0085    0.8505    0.0061 C   0  0  0  0  0  0  0  0  0  0  0  0
    1.8025   -1.3031    0.4877 C   0  0  0  0  0  2  0  0  0  0  0  0
   -3.0041   -1.0766    0.7278 H   0  0  0  0  0  0  0  0  0  0  0  0
   -3.6522   -0.3312   -0.7766 H   0  0  0  0  0  0  0  0  0  0  0  0
    2.2454   -0.5303   -1.4761 H   0  0  0  0  0  0  0  0  0  0  0  0
    3.6804   -1.1283   -0.5629 H   0  0  0  0  0  0  0  0  0  0  0  0
    2.0631    1.4293    0.0798 H   0  0  0  0  0  0  0  0  0  0  0  0
    3.6813    1.3598   -0.7156 H   0  0  0  0  0  0  0  0  0  0  0  0
    3.5045    0.8291    1.0000 H   0  0  0  0  0  0  0  0  0  0  0  0
   -1.2852    0.2365   -1.4899 H   0  0  0  0  0  0  0  0  0  0  0  0
   -1.5774   -1.5315   -1.3012 H   0  0  0  0  0  0  0  0  0  0  0  0
   -3.8118    1.2517    1.1225 H   0  0  0  0  0  0  0  0  0  0  0  0
   -2.0355    1.1386    1.4092 H   0  0  0  0  0  0  0  0  0  0  0  0
   -2.6647    1.8811   -0.1194 H   0  0  0  0  0  0  0  0  0  0  0  0
    0.6609   -0.6858    0.5850 H   0  0  0  0  0  0  0  0  0  0  0  0
    2.2717   -1.3942    1.4906 H   0  0  0  0  0  0  0  0  0  0  0  0
  1  4  1  0
  1 20  1  0
  2  5  1  0
  2  4  1  0
  2  8  1  0
  2  9  1  0
  3  7  1  0
  3  6  1  0
  3 10  1  0
  3 11  1  0
  4 15  1  0
  4 16  1  0
  5 17  1  0
  5 18  1  0
  5 19  1  0
  6 12  1  0
  6 13  1  0
  6 14  1  0
  7 21  1  0
M  RAD  1   7   3
M  END
>  <reaction>  (17) 
rmg_rxn_293

>  <mol_properties>  (17) 
{"0": {"label": "*3", "atom_type": "Cs"}, "1": {"label": "*4", "atom_type": "Cs"}, "11": {"label": "*0", "atom_type": "Cs"}, "12": {"label": "*1", "atom_type": "O2s"}, "20": {"label": "*2", "atom_type": "H0"}}

>  <type>  (17) 
unop_13

>  <geom_source>  (17) 
AutoTST

$$$$

     RDKit          3D

 21 19  0  0  0  0  0  0  0  0999 V2000
   -1.8544    0.4130    0.3523 C   0  0  0  0  0  2  0  0  0  0  0  0
   -1.7973   -0.4087    1.5861 C   0  0  0  0  0  0  0  0  0  0  0  0
   -0.4861   -1.1687    1.7543 C   0  0  0  0  0  0  0  0  0  0  0  0
   -2.7867    0.8492    0.0193 H   0  0  0  0  0  0  0  0  0  0  0  0
   -1.9550    0.2340    2.4658 H   0  0  0  0  0  0  0  0  0  0  0  0
   -2.6394   -1.1107    1.6014 H   0  0  0  0  0  0  0  0  0  0  0  0
    0.3607   -0.4795    1.7820 H   0  0  0  0  0  0  0  0  0  0  0  0
   -0.3271   -1.8591    0.9239 H   0  0  0  0  0  0  0  0  0  0  0  0
   -0.4788   -1.7459    2.6800 H   0  0  0  0  0  0  0  0  0  0  0  0
    1.2787   -0.6184   -2.2577 C   0  0  0  0  0  0  0  0  0  0  0  0
    1.2787   -0.6184   -0.7352 C   0  0  0  0  0  0  0  0  0  0  0  0
    1.2787    0.7796   -0.1345 C   0  0  0  0  0  0  0  0  0  0  0  0
    0.1449    1.5443   -0.4976 O   0  0  0  0  0  0  0  0  0  0  0  0
    2.1780   -0.1341   -2.6452 H   0  0  0  0  0  0  0  0  0  0  0  0
    0.4172   -0.0743   -2.6459 H   0  0  0  0  0  0  0  0  0  0  0  0
    1.2479   -1.6346   -2.6533 H   0  0  0  0  0  0  0  0  0  0  0  0
    0.4054   -1.1650   -0.3609 H   0  0  0  0  0  0  0  0  0  0  0  0
    2.1561   -1.1519   -0.3572 H   0  0  0  0  0  0  0  0  0  0  0  0
    2.1398    1.3426   -0.5013 H   0  0  0  0  0  0  0  0  0  0  0  0
    1.3687    0.7164    0.9573 H   0  0  0  0  0  0  0  0  0  0  0  0
   -0.7941    1.0130   -0.0985 H   0  0  0  0  0  0  0  0  0  0  0  0
  1  2  1  0
  1  4  1  0
  2  3  1  0
  2  5  1  0
  2  6  1  0
  3  7  1  0
  3  8  1  0
  3  9  1  0
 10 11  1  0
 10 14  1  0
 10 15  1  0
 10 16  1  0
 11 12  1  0
 11 17  1  0
 11 18  1  0
 12 13  1  0
 12 19  1  0
 12 20  1  0
 13 21  1  0
M  RAD  1   1   3
M  END
>  <reaction>  (18) 
rmg_rxn_293

>  <mol_properties>  (18) 
{"0": {"label": "*3", "atom_type": "Cs"}, "1": {"label": "*4", "atom_type": "Cs"}, "11": {"label": "*0", "atom_type": "Cs"}, "12": {"label": "*1", "atom_type": "O2s"}, "20": {"label": "*2", "atom_type": "H0"}}

>  <type>  (18) 
unop_14

>  <geom_source>  (18) 
gaussian_log

$$$$
