
     RDKit          3D

  5  4  0  0  0  0  0  0  0  0999 V2000
   -0.4583    0.0384    0.1517 N   0  0  0  0  0  0  0  0  0  0  0  0
    0.7454   -0.3487    0.5322 N   0  0  0  0  0  0  0  0  0  0  0  0
    0.7566   -1.0388    1.5193 O   0  0  0  0  0  0  0  0  0  0  0  0
   -1.2688   -0.2521    0.6850 H   0  0  0  0  0  0  0  0  0  0  0  0
   -0.5137    0.6154   -0.6670 H   0  0  0  0  0  0  0  0  0  0  0  0
  1  2  1  0
  1  4  1  0
  1  5  1  0
  2  3  2  0
M  END
>  <reaction>  (1) 
rmg_rxn_1500

>  <mol_properties>  (1) 
{"0": {"label": "donator", "atom_type": "N3s"}, "3": {"label": "d_hydrogen", "atom_type": "H0"}}

>  <type>  (1) 
r1h

$$$$

     RDKit          3D

  8  7  0  0  0  0  0  0  0  0999 V2000
   -0.9728    0.1768    0.1542 C   0  0  0  0  0  0  0  0  0  0  0  0
    0.4518   -0.2348    0.0047 C   0  0  0  0  0  3  0  0  0  0  0  0
    1.3116    0.0208    0.9062 N   0  0  0  0  0  2  0  0  0  0  0  0
    2.5018   -0.1901    1.0428 O   0  0  0  0  0  1  0  0  0  0  0  0
   -1.2701    0.8423   -0.6593 H   0  0  0  0  0  0  0  0  0  0  0  0
   -1.6318   -0.6936    0.1212 H   0  0  0  0  0  0  0  0  0  0  0  0
   -1.1258    0.6936    1.1003 H   0  0  0  0  0  0  0  0  0  0  0  0
    0.7882   -0.7655   -0.8838 H   0  0  0  0  0  0  0  0  0  0  0  0
  1  2  1  0
  1  7  1  0
  1  6  1  0
  1  5  1  0
  2  3  1  0
  2  8  1  0
  3  4  1  0
M  RAD  3   2   2   3   2   4   2
M  END
>  <reaction>  (2) 
rmg_rxn_1500

>  <mol_properties>  (2) 
{"3": {"label": "acceptor", "atom_type": "O2s"}}

>  <type>  (2) 
r2

$$$$

     RDKit          3D

  9  8  0  0  0  0  0  0  0  0999 V2000
   -1.2461    0.5037    0.0950 C   0  0  0  0  0  0  0  0  0  0  0  0
   -0.0155   -0.3334    0.0640 C   0  0  0  0  0  0  0  0  0  0  0  0
    1.0697    0.1457   -0.3733 N   0  0  0  0  0  0  0  0  0  0  0  0
    2.1001   -0.7834   -0.3224 O   0  0  0  0  0  0  0  0  0  0  0  0
   -2.0357    0.0440   -0.5039 H   0  0  0  0  0  0  0  0  0  0  0  0
   -1.6237    0.5897    1.1166 H   0  0  0  0  0  0  0  0  0  0  0  0
   -1.0397    1.4998   -0.2929 H   0  0  0  0  0  0  0  0  0  0  0  0
   -0.0537   -1.3634    0.4205 H   0  0  0  0  0  0  0  0  0  0  0  0
    2.8478   -0.2985   -0.6758 H   0  0  0  0  0  0  0  0  0  0  0  0
  1  2  1  0
  1  5  1  0
  1  6  1  0
  1  7  1  0
  2  3  2  3
  2  8  1  0
  3  4  1  0
  4  9  1  0
M  END
>  <reaction>  (3) 
rmg_rxn_1500

>  <mol_properties>  (3) 
{"0": {"label": "a_hydrogen", "atom_type": "H0"}, "4": {"label": "acceptor", "atom_type": "O2s"}}

>  <type>  (3) 
r2h

$$$$

     RDKit          3D

 13 11  0  0  0  0  0  0  0  0999 V2000
    1.8917   -0.6526    0.0027 N   0  0  0  0  0  0  0  0  0  0  0  0
    2.2338    0.5629    0.0095 N   0  0  0  0  0  0  0  0  0  0  0  0
    1.4401    1.4707    0.0115 O   0  0  0  0  0  1  0  0  0  0  0  0
    0.6768   -1.1374   -0.0030 H   0  0  0  0  0  0  0  0  0  0  0  0
    2.6990   -1.2643    0.0021 H   0  0  0  0  0  0  0  0  0  0  0  0
   -2.6996    1.0535   -0.0020 C   0  0  0  0  0  0  0  0  0  0  0  0
   -1.4169    0.2959   -0.0021 C   0  0  0  0  0  0  0  0  0  0  0  0
   -1.3891   -0.9654   -0.0080 N   0  0  0  0  0  0  0  0  0  0  0  0
   -0.3344   -1.7137   -0.0086 O   0  0  0  0  0  0  0  0  0  0  0  0
   -2.7600    1.6940    0.8802 H   0  0  0  0  0  0  0  0  0  0  0  0
   -2.7551    1.7024   -0.8785 H   0  0  0  0  0  0  0  0  0  0  0  0
   -3.5495    0.3738   -0.0077 H   0  0  0  0  0  0  0  0  0  0  0  0
   -0.4587    0.8470    0.0033 H   0  0  0  0  0  0  0  0  0  0  0  0
  1  2  2  3
  1  5  1  0
  2  3  1  0
  4  9  1  0
  6  7  1  0
  6 10  1  0
  6 11  1  0
  6 12  1  0
  7  8  2  3
  7 13  1  0
  8  9  1  0
M  RAD  1   3   2
M  END
>  <reaction>  (4) 
rmg_rxn_1500

>  <mol_properties>  (4) 
{"0": {"label": "*3", "atom_type": "N3d"}, "1": {"label": "*4", "atom_type": "N3d"}, "3": {"label": "*2", "atom_type": "H0"}, "7": {"label": "*0", "atom_type": "N3d"}, "8": {"label": "*1", "atom_type": "O2s"}}

>  <type>  (4) 
ts

$$$$

     RDKit          3D

 13 11  0  0  0  0  0  0  0  0999 V2000
    1.5012   -0.6981   -0.0078 N   0  0  0  0  0  0  0  0  0  0  0  0
    2.7376   -0.5372    0.0002 N   0  0  0  0  0  0  0  0  0  0  0  0
    3.3469    0.4985    0.0103 O   0  0  0  0  0  1  0  0  0  0  0  0
    0.6012    0.1326   -0.0071 H   0  0  0  0  0  0  0  0  0  0  0  0
    1.2054   -1.6691   -0.0156 H   0  0  0  0  0  0  0  0  0  0  0  0
   -3.7002   -0.5331    0.0077 C   0  0  0  0  0  0  0  0  0  0  0  0
   -2.5654    0.4258    0.0002 C   0  0  0  0  0  0  0  0  0  0  0  0
   -1.3786    0.0008   -0.0014 N   0  0  0  0  0  0  0  0  0  0  0  0
   -0.3300    0.8105   -0.0085 O   0  0  0  0  0  0  0  0  0  0  0  0
   -4.3233   -0.3770   -0.8720 H   0  0  0  0  0  0  0  0  0  0  0  0
   -3.3337   -1.5555    0.0131 H   0  0  0  0  0  0  0  0  0  0  0  0
   -4.3202   -0.3666    0.8875 H   0  0  0  0  0  0  0  0  0  0  0  0
   -2.8017    1.4913   -0.0041 H   0  0  0  0  0  0  0  0  0  0  0  0
  1  2  2  3
  1  5  1  0
  2  3  1  0
  4  9  1  0
  6  7  1  0
  6 10  1  0
  6 11  1  0
  6 12  1  0
  7  8  2  3
  7 13  1  0
  8  9  1  0
M  RAD  1   3   2
M  END
>  <reaction>  (5) 
rmg_rxn_1500

>  <mol_properties>  (5) 
{"0": {"label": "*3", "atom_type": "N3d"}, "1": {"label": "*4", "atom_type": "N3d"}, "3": {"label": "*2", "atom_type": "H0"}, "7": {"label": "*0", "atom_type": "N3d"}, "8": {"label": "*1", "atom_type": "O2s"}}

>  <type>  (5) 
unop_1

>  <geom_source>  (5) 
crest_best.xyz

$$$$

     RDKit          3D

 13 11  0  0  0  0  0  0  0  0999 V2000
    0.5925   -1.4697    0.8977 N   0  0  0  0  0  0  0  0  0  0  0  0
    0.5925   -2.6725    0.3529 N   0  0  0  0  0  0  0  0  0  0  0  0
    0.5925   -2.6725   -0.8516 O   0  0  0  0  0  1  0  0  0  0  0  0
    0.5925   -0.4871    0.1825 H   0  0  0  0  0  0  0  0  0  0  0  0
    0.5925   -1.4234    1.8998 H   0  0  0  0  0  0  0  0  0  0  0  0
   -1.5539    3.2325    0.3056 C   0  0  0  0  0  0  0  0  0  0  0  0
   -0.4163    2.3476   -0.0671 C   0  0  0  0  0  0  0  0  0  0  0  0
   -0.5785    1.0956   -0.1333 N   0  0  0  0  0  0  0  0  0  0  0  0
    0.5925    0.4430   -0.4945 O   0  0  0  0  0  0  0  0  0  0  0  0
   -1.3137    3.8049    1.2046 H   0  0  0  0  0  0  0  0  0  0  0  0
   -1.7551    3.9518   -0.4916 H   0  0  0  0  0  0  0  0  0  0  0  0
   -2.4512    2.6436    0.4881 H   0  0  0  0  0  0  0  0  0  0  0  0
    0.5595    2.7843   -0.2832 H   0  0  0  0  0  0  0  0  0  0  0  0
  1  2  2  3
  1  5  1  0
  2  3  1  0
  4  9  1  0
  6  7  1  0
  6 10  1  0
  6 11  1  0
  6 12  1  0
  7  8  2  3
  7 13  1  0
  8  9  1  0
M  RAD  1   3   2
M  END
>  <reaction>  (6) 
rmg_rxn_1500

>  <mol_properties>  (6) 
{"0": {"label": "*3", "atom_type": "N3d"}, "1": {"label": "*4", "atom_type": "N3d"}, "3": {"label": "*2", "atom_type": "H0"}, "7": {"label": "*0", "atom_type": "N3d"}, "8": {"label": "*1", "atom_type": "O2s"}}

>  <type>  (6) 
unop_2

>  <geom_source>  (6) 
Heuristics

$$$$

     RDKit          3D

 13 11  0  0  0  0  0  0  0  0999 V2000
    1.8636   -0.6832    0.0000 N   0  0  0  0  0  0  0  0  0  0  0  0
    2.1780    0.5308    0.0000 N   0  0  0  0  0  0  0  0  0  0  0  0
    1.3738    1.4411   -0.0000 O   0  0  0  0  0  1  0  0  0  0  0  0
    0.7412   -1.1674   -0.0001 H   0  0  0  0  0  0  0  0  0  0  0  0
    2.6547   -1.3168    0.0001 H   0  0  0  0  0  0  0  0  0  0  0  0
   -2.6933    1.0495    0.0000 C   0  0  0  0  0  0  0  0  0  0  0  0
   -1.3916    0.3344    0.0000 C   0  0  0  0  0  0  0  0  0  0  0  0
   -1.3341   -0.9169    0.0000 N   0  0  0  0  0  0  0  0  0  0  0  0
   -0.2915   -1.6820   -0.0000 O   0  0  0  0  0  0  0  0  0  0  0  0
   -3.5176    0.3422   -0.0002 H   0  0  0  0  0  0  0  0  0  0  0  0
   -2.7635    1.6878    0.8796 H   0  0  0  0  0  0  0  0  0  0  0  0
   -2.7633    1.6882   -0.8794 H   0  0  0  0  0  0  0  0  0  0  0  0
   -0.4780    0.9591   -0.0000 H   0  0  0  0  0  0  0  0  0  0  0  0
  1  2  2  3
  1  5  1  0
  2  3  1  0
  4  9  1  0
  6  7  1  0
  6 10  1  0
  6 11  1  0
  6 12  1  0
  7  8  2  3
  7 13  1  0
  8  9  1  0
M  RAD  1   3   2
M  END
>  <reaction>  (7) 
rmg_rxn_1500

>  <mol_properties>  (7) 
{"0": {"label": "*3", "atom_type": "N3d"}, "1": {"label": "*4", "atom_type": "N3d"}, "3": {"label": "*2", "atom_type": "H0"}, "7": {"label": "*0", "atom_type": "N3d"}, "8": {"label": "*1", "atom_type": "O2s"}}

>  <type>  (7) 
unop_3

>  <geom_source>  (7) 
Heuristics

$$$$

     RDKit          3D

 13 11  0  0  0  0  0  0  0  0999 V2000
   -1.8636   -0.6832    0.0000 N   0  0  0  0  0  0  0  0  0  0  0  0
   -2.1780    0.5308   -0.0000 N   0  0  0  0  0  0  0  0  0  0  0  0
   -1.3738    1.4411   -0.0000 O   0  0  0  0  0  1  0  0  0  0  0  0
   -0.7411   -1.1673    0.0000 H   0  0  0  0  0  0  0  0  0  0  0  0
   -2.6547   -1.3169    0.0001 H   0  0  0  0  0  0  0  0  0  0  0  0
    2.6933    1.0495   -0.0000 C   0  0  0  0  0  0  0  0  0  0  0  0
    1.3916    0.3344    0.0000 C   0  0  0  0  0  0  0  0  0  0  0  0
    1.3341   -0.9169    0.0000 N   0  0  0  0  0  0  0  0  0  0  0  0
    0.2915   -1.6820   -0.0000 O   0  0  0  0  0  0  0  0  0  0  0  0
    3.5176    0.3422   -0.0004 H   0  0  0  0  0  0  0  0  0  0  0  0
    2.7633    1.6883   -0.8793 H   0  0  0  0  0  0  0  0  0  0  0  0
    2.7636    1.6877    0.8797 H   0  0  0  0  0  0  0  0  0  0  0  0
    0.4780    0.9591    0.0001 H   0  0  0  0  0  0  0  0  0  0  0  0
  1  2  2  3
  1  5  1  0
  2  3  1  0
  4  9  1  0
  6  7  1  0
  6 10  1  0
  6 11  1  0
  6 12  1  0
  7  8  2  3
  7 13  1  0
  8  9  1  0
M  RAD  1   3   2
M  END
>  <reaction>  (8) 
rmg_rxn_1500

>  <mol_properties>  (8) 
{"0": {"label": "*3", "atom_type": "N3d"}, "1": {"label": "*4", "atom_type": "N3d"}, "3": {"label": "*2", "atom_type": "H0"}, "7": {"label": "*0", "atom_type": "N3d"}, "8": {"label": "*1", "atom_type": "O2s"}}

>  <type>  (8) 
unop_4

>  <geom_source>  (8) 
Heuristics

$$$$

     RDKit          3D

 13 11  0  0  0  0  0  0  0  0999 V2000
    0.5124   -0.7869    1.9406 N   0  0  0  0  0  0  0  0  0  0  0  0
    0.5124   -1.9897    1.3958 N   0  0  0  0  0  0  0  0  0  0  0  0
    0.5124   -1.9897    0.1913 O   0  0  0  0  0  1  0  0  0  0  0  0
    0.5124    0.1958    1.2254 H   0  0  0  0  0  0  0  0  0  0  0  0
    0.5124   -0.7405    2.9427 H   0  0  0  0  0  0  0  0  0  0  0  0
   -1.3895    1.4061   -2.5065 C   0  0  0  0  0  0  0  0  0  0  0  0
   -0.6283    1.6586   -1.2523 C   0  0  0  0  0  0  0  0  0  0  0  0
   -0.1636    0.6915   -0.5838 N   0  0  0  0  0  0  0  0  0  0  0  0
    0.5124    1.1259    0.5484 O   0  0  0  0  0  0  0  0  0  0  0  0
   -2.3989    1.8170   -2.4298 H   0  0  0  0  0  0  0  0  0  0  0  0
   -0.9040    1.8970   -3.3531 H   0  0  0  0  0  0  0  0  0  0  0  0
   -1.4547    0.3376   -2.7045 H   0  0  0  0  0  0  0  0  0  0  0  0
   -0.4728    2.6830   -0.9118 H   0  0  0  0  0  0  0  0  0  0  0  0
  1  2  2  3
  1  5  1  0
  2  3  1  0
  4  9  1  0
  6  7  1  0
  6 10  1  0
  6 11  1  0
  6 12  1  0
  7  8  2  3
  7 13  1  0
  8  9  1  0
M  RAD  1   3   2
M  END
>  <reaction>  (9) 
rmg_rxn_1500

>  <mol_properties>  (9) 
{"0": {"label": "*3", "atom_type": "N3d"}, "1": {"label": "*4", "atom_type": "N3d"}, "3": {"label": "*2", "atom_type": "H0"}, "7": {"label": "*0", "atom_type": "N3d"}, "8": {"label": "*1", "atom_type": "O2s"}}

>  <type>  (9) 
unop_5

>  <geom_source>  (9) 
Heuristics

$$$$

     RDKit          3D

 13 11  0  0  0  0  0  0  0  0999 V2000
    1.8636   -0.6832    0.0000 N   0  0  0  0  0  0  0  0  0  0  0  0
    2.1780    0.5308    0.0000 N   0  0  0  0  0  0  0  0  0  0  0  0
    1.3738    1.4411   -0.0000 O   0  0  0  0  0  1  0  0  0  0  0  0
    0.7412   -1.1674   -0.0000 H   0  0  0  0  0  0  0  0  0  0  0  0
    2.6547   -1.3168    0.0000 H   0  0  0  0  0  0  0  0  0  0  0  0
   -2.6933    1.0495    0.0000 C   0  0  0  0  0  0  0  0  0  0  0  0
   -1.3916    0.3344   -0.0000 C   0  0  0  0  0  0  0  0  0  0  0  0
   -1.3341   -0.9169   -0.0000 N   0  0  0  0  0  0  0  0  0  0  0  0
   -0.2915   -1.6820   -0.0000 O   0  0  0  0  0  0  0  0  0  0  0  0
   -2.7634    1.6880    0.8795 H   0  0  0  0  0  0  0  0  0  0  0  0
   -2.7635    1.6880   -0.8795 H   0  0  0  0  0  0  0  0  0  0  0  0
   -3.5176    0.3422    0.0001 H   0  0  0  0  0  0  0  0  0  0  0  0
   -0.4780    0.9591   -0.0001 H   0  0  0  0  0  0  0  0  0  0  0  0
  1  2  2  3
  1  5  1  0
  2  3  1  0
  4  9  1  0
  6  7  1  0
  6 10  1  0
  6 11  1  0
  6 12  1  0
  7  8  2  3
  7 13  1  0
  8  9  1  0
M  RAD  1   3   2
M  END
>  <reaction>  (10) 
rmg_rxn_1500

>  <mol_properties>  (10) 
{"0": {"label": "*3", "atom_type": "N3d"}, "1": {"label": "*4", "atom_type": "N3d"}, "3": {"label": "*2", "atom_type": "H0"}, "7": {"label": "*0", "atom_type": "N3d"}, "8": {"label": "*1", "atom_type": "O2s"}}

>  <type>  (10) 
unop_6

>  <geom_source>  (10) 
Heuristics

$$$$

     RDKit          3D

 13 11  0  0  0  0  0  0  0  0999 V2000
    0.2569   -1.6064    0.7817 N   0  0  0  0  0  0  0  0  0  0  0  0
    0.2569   -2.8093    0.2370 N   0  0  0  0  0  0  0  0  0  0  0  0
    0.2569   -2.8093   -0.9675 O   0  0  0  0  0  1  0  0  0  0  0  0
    0.2569   -0.6238    0.0665 H   0  0  0  0  0  0  0  0  0  0  0  0
    0.2569   -1.5601    1.7838 H   0  0  0  0  0  0  0  0  0  0  0  0
   -0.6510    3.5882    0.5865 C   0  0  0  0  0  0  0  0  0  0  0  0
   -0.0464    2.4269   -0.1219 C   0  0  0  0  0  0  0  0  0  0  0  0
   -0.4191    1.2501    0.1509 N   0  0  0  0  0  0  0  0  0  0  0  0
    0.2569    0.3063   -0.6105 O   0  0  0  0  0  0  0  0  0  0  0  0
    0.1191    4.1586    1.1110 H   0  0  0  0  0  0  0  0  0  0  0  0
   -1.1255    4.2658   -0.1271 H   0  0  0  0  0  0  0  0  0  0  0  0
   -1.3955    3.2509    1.3057 H   0  0  0  0  0  0  0  0  0  0  0  0
    0.7208    2.5955   -0.8785 H   0  0  0  0  0  0  0  0  0  0  0  0
  1  2  2  3
  1  5  1  0
  2  3  1  0
  4  9  1  0
  6  7  1  0
  6 10  1  0
  6 11  1  0
  6 12  1  0
  7  8  2  3
  7 13  1  0
  8  9  1  0
M  RAD  1   3   2
M  END
>  <reaction>  (11) 
rmg_rxn_1500

>  <mol_properties>  (11) 
{"0": {"label": "*3", "atom_type": "N3d"}, "1": {"label": "*4", "atom_type": "N3d"}, "3": {"label": "*2", "atom_type": "H0"}, "7": {"label": "*0", "atom_type": "N3d"}, "8": {"label": "*1", "atom_type": "O2s"}}

>  <type>  (11) 
unop_7

>  <geom_source>  (11) 
Heuristics

$$$$

     RDKit          3D

 13 11  0  0  0  0  0  0  0  0999 V2000
   -0.8079   -0.9921    1.5897 N   0  0  0  0  0  0  0  0  0  0  0  0
   -0.8079   -2.1949    1.0450 N   0  0  0  0  0  0  0  0  0  0  0  0
   -0.8079   -2.1949   -0.1595 O   0  0  0  0  0  1  0  0  0  0  0  0
   -0.8079   -0.0094    0.8745 H   0  0  0  0  0  0  0  0  0  0  0  0
   -0.8079   -0.9457    2.5918 H   0  0  0  0  0  0  0  0  0  0  0  0
    2.1765    1.9597   -1.5465 C   0  0  0  0  0  0  0  0  0  0  0  0
    0.9069    1.8938   -0.7720 C   0  0  0  0  0  0  0  0  0  0  0  0
    0.3631    0.7775   -0.5345 N   0  0  0  0  0  0  0  0  0  0  0  0
   -0.8079    0.9207    0.1975 O   0  0  0  0  0  0  0  0  0  0  0  0
    2.0433    2.5632   -2.4474 H   0  0  0  0  0  0  0  0  0  0  0  0
    2.9617    2.4337   -0.9530 H   0  0  0  0  0  0  0  0  0  0  0  0
    2.5011    0.9606   -1.8325 H   0  0  0  0  0  0  0  0  0  0  0  0
    0.4469    2.8139   -0.4097 H   0  0  0  0  0  0  0  0  0  0  0  0
  1  2  2  3
  1  5  1  0
  2  3  1  0
  4  9  1  0
  6  7  1  0
  6 10  1  0
  6 11  1  0
  6 12  1  0
  7  8  2  3
  7 13  1  0
  8  9  1  0
M  RAD  1   3   2
M  END
>  <reaction>  (12) 
rmg_rxn_1500

>  <mol_properties>  (12) 
{"0": {"label": "*3", "atom_type": "N3d"}, "1": {"label": "*4", "atom_type": "N3d"}, "3": {"label": "*2", "atom_type": "H0"}, "7": {"label": "*0", "atom_type": "N3d"}, "8": {"label": "*1", "atom_type": "O2s"}}

>  <type>  (12) 
unop_8

>  <geom_source>  (12) 
Heuristics

$$$$

     RDKit          3D

 13 11  0  0  0  0  0  0  0  0999 V2000
    1.8636   -0.6832   -0.0001 N   0  0  0  0  0  0  0  0  0  0  0  0
    2.1780    0.5308    0.0001 N   0  0  0  0  0  0  0  0  0  0  0  0
    1.3738    1.4411   -0.0000 O   0  0  0  0  0  1  0  0  0  0  0  0
    0.7411   -1.1674   -0.0002 H   0  0  0  0  0  0  0  0  0  0  0  0
    2.6547   -1.3169   -0.0001 H   0  0  0  0  0  0  0  0  0  0  0  0
   -2.6933    1.0495   -0.0000 C   0  0  0  0  0  0  0  0  0  0  0  0
   -1.3916    0.3344    0.0000 C   0  0  0  0  0  0  0  0  0  0  0  0
   -1.3341   -0.9169    0.0001 N   0  0  0  0  0  0  0  0  0  0  0  0
   -0.2915   -1.6820   -0.0000 O   0  0  0  0  0  0  0  0  0  0  0  0
   -2.7636    1.6877    0.8797 H   0  0  0  0  0  0  0  0  0  0  0  0
   -2.7632    1.6883   -0.8793 H   0  0  0  0  0  0  0  0  0  0  0  0
   -3.5176    0.3423   -0.0005 H   0  0  0  0  0  0  0  0  0  0  0  0
   -0.4780    0.9591   -0.0001 H   0  0  0  0  0  0  0  0  0  0  0  0
  1  2  2  3
  1  5  1  0
  2  3  1  0
  4  9  1  0
  6  7  1  0
  6 10  1  0
  6 11  1  0
  6 12  1  0
  7  8  2  3
  7 13  1  0
  8  9  1  0
M  RAD  1   3   2
M  END
>  <reaction>  (13) 
rmg_rxn_1500

>  <mol_properties>  (13) 
{"0": {"label": "*3", "atom_type": "N3d"}, "1": {"label": "*4", "atom_type": "N3d"}, "3": {"label": "*2", "atom_type": "H0"}, "7": {"label": "*0", "atom_type": "N3d"}, "8": {"label": "*1", "atom_type": "O2s"}}

>  <type>  (13) 
unop_9

>  <geom_source>  (13) 
Heuristics

$$$$

     RDKit          3D

 13 11  0  0  0  0  0  0  0  0999 V2000
    0.0000   -1.6483    0.7957 N   0  0  0  0  0  0  0  0  0  0  0  0
    0.0000   -2.8511    0.2509 N   0  0  0  0  0  0  0  0  0  0  0  0
    0.0000   -2.8511   -0.9536 O   0  0  0  0  0  1  0  0  0  0  0  0
   -0.0000   -0.6657    0.0804 H   0  0  0  0  0  0  0  0  0  0  0  0
    0.0000   -1.6020    1.7978 H   0  0  0  0  0  0  0  0  0  0  0  0
    0.0000    3.6948    0.5264 C   0  0  0  0  0  0  0  0  0  0  0  0
   -0.0000    2.4373   -0.2704 C   0  0  0  0  0  0  0  0  0  0  0  0
   -0.0000    1.3149    0.3113 N   0  0  0  0  0  0  0  0  0  0  0  0
   -0.0000    0.2644   -0.5965 O   0  0  0  0  0  0  0  0  0  0  0  0
    0.8794    4.2976    0.2882 H   0  0  0  0  0  0  0  0  0  0  0  0
   -0.8794    4.2976    0.2882 H   0  0  0  0  0  0  0  0  0  0  0  0
    0.0000    3.4712    1.5919 H   0  0  0  0  0  0  0  0  0  0  0  0
   -0.0000    2.4881   -1.3598 H   0  0  0  0  0  0  0  0  0  0  0  0
  1  2  2  3
  1  5  1  0
  2  3  1  0
  4  9  1  0
  6  7  1  0
  6 10  1  0
  6 11  1  0
  6 12  1  0
  7  8  2  3
  7 13  1  0
  8  9  1  0
M  RAD  1   3   2
M  END
>  <reaction>  (14) 
rmg_rxn_1500

>  <mol_properties>  (14) 
{"0": {"label": "*3", "atom_type": "N3d"}, "1": {"label": "*4", "atom_type": "N3d"}, "3": {"label": "*2", "atom_type": "H0"}, "7": {"label": "*0", "atom_type": "N3d"}, "8": {"label": "*1", "atom_type": "O2s"}}

>  <type>  (14) 
unop_10

>  <geom_source>  (14) 
Heuristics

$$$$

     RDKit          3D

 13 11  0  0  0  0  0  0  0  0999 V2000
    1.5012   -0.6983   -0.0059 N   0  0  0  0  0  0  0  0  0  0  0  0
    2.7377   -0.5372    0.0003 N   0  0  0  0  0  0  0  0  0  0  0  0
    3.3467    0.4987    0.0077 O   0  0  0  0  0  1  0  0  0  0  0  0
    0.6013    0.1324   -0.0057 H   0  0  0  0  0  0  0  0  0  0  0  0
    1.2056   -1.6693   -0.0114 H   0  0  0  0  0  0  0  0  0  0  0  0
   -3.7002   -0.5331    0.0059 C   0  0  0  0  0  0  0  0  0  0  0  0
   -2.5655    0.4258    0.0002 C   0  0  0  0  0  0  0  0  0  0  0  0
   -1.3787    0.0008   -0.0015 N   0  0  0  0  0  0  0  0  0  0  0  0
   -0.3299    0.8104   -0.0063 O   0  0  0  0  0  0  0  0  0  0  0  0
   -4.3246   -0.3737   -0.8722 H   0  0  0  0  0  0  0  0  0  0  0  0
   -3.3339   -1.5555    0.0071 H   0  0  0  0  0  0  0  0  0  0  0  0
   -4.3190   -0.3698    0.8873 H   0  0  0  0  0  0  0  0  0  0  0  0
   -2.8017    1.4914   -0.0021 H   0  0  0  0  0  0  0  0  0  0  0  0
  1  2  2  3
  1  5  1  0
  2  3  1  0
  4  9  1  0
  6  7  1  0
  6 10  1  0
  6 11  1  0
  6 12  1  0
  7  8  2  3
  7 13  1  0
  8  9  1  0
M  RAD  1   3   2
M  END
>  <reaction>  (15) 
rmg_rxn_1500

>  <mol_properties>  (15) 
{"0": {"label": "*3", "atom_type": "N3d"}, "1": {"label": "*4", "atom_type": "N3d"}, "3": {"label": "*2", "atom_type": "H0"}, "7": {"label": "*0", "atom_type": "N3d"}, "8": {"label": "*1", "atom_type": "O2s"}}

>  <type>  (15) 
unop_11

>  <geom_source>  (15) 
Heuristics

$$$$

     RDKit          3D

 13 11  0  0  0  0  0  0  0  0999 V2000
   -0.8200   -1.2466    1.1970 N   0  0  0  0  0  0  0  0  0  0  0  0
   -0.8200   -2.4495    0.6522 N   0  0  0  0  0  0  0  0  0  0  0  0
   -0.8200   -2.4495   -0.5523 O   0  0  0  0  0  1  0  0  0  0  0  0
   -0.8200   -0.2640    0.4818 H   0  0  0  0  0  0  0  0  0  0  0  0
   -0.8200   -1.2003    2.1991 H   0  0  0  0  0  0  0  0  0  0  0  0
    2.1869    2.6416   -0.4854 C   0  0  0  0  0  0  0  0  0  0  0  0
    0.7900    2.1566   -0.3132 C   0  0  0  0  0  0  0  0  0  0  0  0
    0.5322    0.9208   -0.3806 N   0  0  0  0  0  0  0  0  0  0  0  0
   -0.8200    0.6661   -0.1952 O   0  0  0  0  0  0  0  0  0  0  0  0
    2.2493    3.3342   -1.3280 H   0  0  0  0  0  0  0  0  0  0  0  0
    2.5151    3.1842    0.4041 H   0  0  0  0  0  0  0  0  0  0  0  0
    2.8619    1.8058   -0.6614 H   0  0  0  0  0  0  0  0  0  0  0  0
   -0.0115    2.8727   -0.1282 H   0  0  0  0  0  0  0  0  0  0  0  0
  1  2  2  3
  1  5  1  0
  2  3  1  0
  4  9  1  0
  6  7  1  0
  6 10  1  0
  6 11  1  0
  6 12  1  0
  7  8  2  3
  7 13  1  0
  8  9  1  0
M  RAD  1   3   2
M  END
>  <reaction>  (16) 
rmg_rxn_1500

>  <mol_properties>  (16) 
{"0": {"label": "*3", "atom_type": "N3d"}, "1": {"label": "*4", "atom_type": "N3d"}, "3": {"label": "*2", "atom_type": "H0"}, "7": {"label": "*0", "atom_type": "N3d"}, "8": {"label": "*1", "atom_type": "O2s"}}

>  <type>  (16) 
unop_12

>  <geom_source>  (16) 
Heuristics

$$$$

     RDKit          3D

 13 11  0  0  0  0  0  0  0  0999 V2000
    1.8636   -0.6832   -0.0000 N   0  0  0  0  0  0  0  0  0  0  0  0
    2.1780    0.5308    0.0000 N   0  0  0  0  0  0  0  0  0  0  0  0
    1.3738    1.4411    0.0000 O   0  0  0  0  0  1  0  0  0  0  0  0
    0.7411   -1.1674   -0.0000 H   0  0  0  0  0  0  0  0  0  0  0  0
    2.6547   -1.3168   -0.0000 H   0  0  0  0  0  0  0  0  0  0  0  0
   -2.6933    1.0495   -0.0000 C   0  0  0  0  0  0  0  0  0  0  0  0
   -1.3916    0.3344    0.0000 C   0  0  0  0  0  0  0  0  0  0  0  0
   -1.3341   -0.9169    0.0000 N   0  0  0  0  0  0  0  0  0  0  0  0
   -0.2915   -1.6820    0.0000 O   0  0  0  0  0  0  0  0  0  0  0  0
   -2.7634    1.6880   -0.8795 H   0  0  0  0  0  0  0  0  0  0  0  0
   -3.5176    0.3422    0.0000 H   0  0  0  0  0  0  0  0  0  0  0  0
   -2.7634    1.6880    0.8795 H   0  0  0  0  0  0  0  0  0  0  0  0
   -0.4780    0.9591    0.0000 H   0  0  0  0  0  0  0  0  0  0  0  0
  1  2  2  3
  1  5  1  0
  2  3  1  0
  4  9  1  0
  6  7  1  0
  6 10  1  0
  6 11  1  0
  6 12  1  0
  7  8  2  3
  7 13  1  0
  8  9  1  0
M  RAD  1   3   2
M  END
>  <reaction>  (17) 
rmg_rxn_1500

>  <mol_properties>  (17) 
{"0": {"label": "*3", "atom_type": "N3d"}, "1": {"label": "*4", "atom_type": "N3d"}, "3": {"label": "*2", "atom_type": "H0"}, "7": {"label": "*0", "atom_type": "N3d"}, "8": {"label": "*1", "atom_type": "O2s"}}

>  <type>  (17) 
unop_13

>  <geom_source>  (17) 
Heuristics

$$$$

     RDKit          3D

 13 11  0  0  0  0  0  0  0  0999 V2000
   -0.5925   -1.4697    0.8977 N   0  0  0  0  0  0  0  0  0  0  0  0
   -0.5925   -2.6725    0.3529 N   0  0  0  0  0  0  0  0  0  0  0  0
   -0.5925   -2.6725   -0.8516 O   0  0  0  0  0  1  0  0  0  0  0  0
   -0.5925   -0.4871    0.1825 H   0  0  0  0  0  0  0  0  0  0  0  0
   -0.5925   -1.4234    1.8998 H   0  0  0  0  0  0  0  0  0  0  0  0
    1.5539    3.2325    0.3056 C   0  0  0  0  0  0  0  0  0  0  0  0
    0.4163    2.3476   -0.0671 C   0  0  0  0  0  0  0  0  0  0  0  0
    0.5785    1.0956   -0.1333 N   0  0  0  0  0  0  0  0  0  0  0  0
   -0.5925    0.4430   -0.4945 O   0  0  0  0  0  0  0  0  0  0  0  0
    1.7551    3.9518   -0.4916 H   0  0  0  0  0  0  0  0  0  0  0  0
    1.3137    3.8049    1.2045 H   0  0  0  0  0  0  0  0  0  0  0  0
    2.4512    2.6437    0.4881 H   0  0  0  0  0  0  0  0  0  0  0  0
   -0.5595    2.7843   -0.2832 H   0  0  0  0  0  0  0  0  0  0  0  0
  1  2  2  3
  1  5  1  0
  2  3  1  0
  4  9  1  0
  6  7  1  0
  6 10  1  0
  6 11  1  0
  6 12  1  0
  7  8  2  3
  7 13  1  0
  8  9  1  0
M  RAD  1   3   2
M  END
>  <reaction>  (18) 
rmg_rxn_1500

>  <mol_properties>  (18) 
{"0": {"label": "*3", "atom_type": "N3d"}, "1": {"label": "*4", "atom_type": "N3d"}, "3": {"label": "*2", "atom_type": "H0"}, "7": {"label": "*0", "atom_type": "N3d"}, "8": {"label": "*1", "atom_type": "O2s"}}

>  <type>  (18) 
unop_14

>  <geom_source>  (18) 
Heuristics

$$$$

     RDKit          3D

 13 11  0  0  0  0  0  0  0  0999 V2000
   -1.8636   -0.6832   -0.0000 N   0  0  0  0  0  0  0  0  0  0  0  0
   -2.1780    0.5308    0.0000 N   0  0  0  0  0  0  0  0  0  0  0  0
   -1.3738    1.4411    0.0000 O   0  0  0  0  0  1  0  0  0  0  0  0
   -0.7411   -1.1673   -0.0000 H   0  0  0  0  0  0  0  0  0  0  0  0
   -2.6547   -1.3168   -0.0000 H   0  0  0  0  0  0  0  0  0  0  0  0
    2.6933    1.0495   -0.0000 C   0  0  0  0  0  0  0  0  0  0  0  0
    1.3916    0.3344    0.0000 C   0  0  0  0  0  0  0  0  0  0  0  0
    1.3341   -0.9169    0.0000 N   0  0  0  0  0  0  0  0  0  0  0  0
    0.2915   -1.6820    0.0000 O   0  0  0  0  0  0  0  0  0  0  0  0
    2.7637    1.6877    0.8797 H   0  0  0  0  0  0  0  0  0  0  0  0
    3.5176    0.3422   -0.0005 H   0  0  0  0  0  0  0  0  0  0  0  0
    2.7633    1.6883   -0.8793 H   0  0  0  0  0  0  0  0  0  0  0  0
    0.4780    0.9591   -0.0000 H   0  0  0  0  0  0  0  0  0  0  0  0
  1  2  2  3
  1  5  1  0
  2  3  1  0
  4  9  1  0
  6  7  1  0
  6 10  1  0
  6 11  1  0
  6 12  1  0
  7  8  2  3
  7 13  1  0
  8  9  1  0
M  RAD  1   3   2
M  END
>  <reaction>  (19) 
rmg_rxn_1500

>  <mol_properties>  (19) 
{"0": {"label": "*3", "atom_type": "N3d"}, "1": {"label": "*4", "atom_type": "N3d"}, "3": {"label": "*2", "atom_type": "H0"}, "7": {"label": "*0", "atom_type": "N3d"}, "8": {"label": "*1", "atom_type": "O2s"}}

>  <type>  (19) 
unop_15

>  <geom_source>  (19) 
Heuristics

$$$$

     RDKit          3D

 13 11  0  0  0  0  0  0  0  0999 V2000
    0.8200   -1.2466    1.1970 N   0  0  0  0  0  0  0  0  0  0  0  0
    0.8200   -2.4495    0.6522 N   0  0  0  0  0  0  0  0  0  0  0  0
    0.8200   -2.4495   -0.5523 O   0  0  0  0  0  1  0  0  0  0  0  0
    0.8200   -0.2640    0.4818 H   0  0  0  0  0  0  0  0  0  0  0  0
    0.8200   -1.2003    2.1991 H   0  0  0  0  0  0  0  0  0  0  0  0
   -2.1869    2.6416   -0.4854 C   0  0  0  0  0  0  0  0  0  0  0  0
   -0.7900    2.1566   -0.3132 C   0  0  0  0  0  0  0  0  0  0  0  0
   -0.5322    0.9208   -0.3806 N   0  0  0  0  0  0  0  0  0  0  0  0
    0.8200    0.6661   -0.1952 O   0  0  0  0  0  0  0  0  0  0  0  0
   -2.5151    3.1842    0.4042 H   0  0  0  0  0  0  0  0  0  0  0  0
   -2.2493    3.3342   -1.3280 H   0  0  0  0  0  0  0  0  0  0  0  0
   -2.8619    1.8058   -0.6614 H   0  0  0  0  0  0  0  0  0  0  0  0
    0.0115    2.8727   -0.1282 H   0  0  0  0  0  0  0  0  0  0  0  0
  1  2  2  3
  1  5  1  0
  2  3  1  0
  4  9  1  0
  6  7  1  0
  6 10  1  0
  6 11  1  0
  6 12  1  0
  7  8  2  3
  7 13  1  0
  8  9  1  0
M  RAD  1   3   2
M  END
>  <reaction>  (20) 
rmg_rxn_1500

>  <mol_properties>  (20) 
{"0": {"label": "*3", "atom_type": "N3d"}, "1": {"label": "*4", "atom_type": "N3d"}, "3": {"label": "*2", "atom_type": "H0"}, "7": {"label": "*0", "atom_type": "N3d"}, "8": {"label": "*1", "atom_type": "O2s"}}

>  <type>  (20) 
unop_16

>  <geom_source>  (20) 
Heuristics

$$$$

     RDKit          3D

 13 11  0  0  0  0  0  0  0  0999 V2000
    1.5012   -0.6981   -0.0078 N   0  0  0  0  0  0  0  0  0  0  0  0
    2.7376   -0.5372    0.0002 N   0  0  0  0  0  0  0  0  0  0  0  0
    3.3469    0.4985    0.0103 O   0  0  0  0  0  1  0  0  0  0  0  0
    0.6012    0.1326   -0.0071 H   0  0  0  0  0  0  0  0  0  0  0  0
    1.2054   -1.6691   -0.0156 H   0  0  0  0  0  0  0  0  0  0  0  0
   -3.7002   -0.5331    0.0077 C   0  0  0  0  0  0  0  0  0  0  0  0
   -2.5654    0.4258    0.0002 C   0  0  0  0  0  0  0  0  0  0  0  0
   -1.3786    0.0008   -0.0014 N   0  0  0  0  0  0  0  0  0  0  0  0
   -0.3300    0.8105   -0.0085 O   0  0  0  0  0  0  0  0  0  0  0  0
   -4.3233   -0.3770   -0.8720 H   0  0  0  0  0  0  0  0  0  0  0  0
   -3.3337   -1.5555    0.0131 H   0  0  0  0  0  0  0  0  0  0  0  0
   -4.3202   -0.3666    0.8875 H   0  0  0  0  0  0  0  0  0  0  0  0
   -2.8017    1.4913   -0.0041 H   0  0  0  0  0  0  0  0  0  0  0  0
  1  2  2  3
  1  5  1  0
  2  3  1  0
  4  9  1  0
  6  7  1  0
  6 10  1  0
  6 11  1  0
  6 12  1  0
  7  8  2  3
  7 13  1  0
  8  9  1  0
M  RAD  1   3   2
M  END
>  <reaction>  (21) 
rmg_rxn_1500

>  <mol_properties>  (21) 
{"0": {"label": "*3", "atom_type": "N3d"}, "1": {"label": "*4", "atom_type": "N3d"}, "3": {"label": "*2", "atom_type": "H0"}, "7": {"label": "*0", "atom_type": "N3d"}, "8": {"label": "*1", "atom_type": "O2s"}}

>  <type>  (21) 
unop_17

>  <geom_source>  (21) 
Heuristics

$$$$

     RDKit          3D

 13 11  0  0  0  0  0  0  0  0999 V2000
   -0.5124   -0.7869    1.9406 N   0  0  0  0  0  0  0  0  0  0  0  0
   -0.5124   -1.9897    1.3958 N   0  0  0  0  0  0  0  0  0  0  0  0
   -0.5124   -1.9897    0.1913 O   0  0  0  0  0  1  0  0  0  0  0  0
   -0.5124    0.1958    1.2254 H   0  0  0  0  0  0  0  0  0  0  0  0
   -0.5124   -0.7405    2.9427 H   0  0  0  0  0  0  0  0  0  0  0  0
    1.3895    1.4061   -2.5065 C   0  0  0  0  0  0  0  0  0  0  0  0
    0.6283    1.6586   -1.2523 C   0  0  0  0  0  0  0  0  0  0  0  0
    0.1636    0.6915   -0.5838 N   0  0  0  0  0  0  0  0  0  0  0  0
   -0.5124    1.1259    0.5484 O   0  0  0  0  0  0  0  0  0  0  0  0
    0.9040    1.8970   -3.3531 H   0  0  0  0  0  0  0  0  0  0  0  0
    2.3988    1.8170   -2.4298 H   0  0  0  0  0  0  0  0  0  0  0  0
    1.4547    0.3376   -2.7045 H   0  0  0  0  0  0  0  0  0  0  0  0
    0.4728    2.6830   -0.9118 H   0  0  0  0  0  0  0  0  0  0  0  0
  1  2  2  3
  1  5  1  0
  2  3  1  0
  4  9  1  0
  6  7  1  0
  6 10  1  0
  6 11  1  0
  6 12  1  0
  7  8  2  3
  7 13  1  0
  8  9  1  0
M  RAD  1   3   2
M  END
>  <reaction>  (22) 
rmg_rxn_1500

>  <mol_properties>  (22) 
{"0": {"label": "*3", "atom_type": "N3d"}, "1": {"label": "*4", "atom_type": "N3d"}, "3": {"label": "*2", "atom_type": "H0"}, "7": {"label": "*0", "atom_type": "N3d"}, "8": {"label": "*1", "atom_type": "O2s"}}

>  <type>  (22) 
unop_18

>  <geom_source>  (22) 
Heuristics

$$$$

     RDKit          3D

 13 11  0  0  0  0  0  0  0  0999 V2000
    0.8079   -0.9921    1.5897 N   0  0  0  0  0  0  0  0  0  0  0  0
    0.8079   -2.1949    1.0450 N   0  0  0  0  0  0  0  0  0  0  0  0
    0.8079   -2.1949   -0.1595 O   0  0  0  0  0  1  0  0  0  0  0  0
    0.8079   -0.0094    0.8745 H   0  0  0  0  0  0  0  0  0  0  0  0
    0.8079   -0.9457    2.5918 H   0  0  0  0  0  0  0  0  0  0  0  0
   -2.1765    1.9597   -1.5465 C   0  0  0  0  0  0  0  0  0  0  0  0
   -0.9069    1.8938   -0.7720 C   0  0  0  0  0  0  0  0  0  0  0  0
   -0.3631    0.7775   -0.5345 N   0  0  0  0  0  0  0  0  0  0  0  0
    0.8079    0.9207    0.1975 O   0  0  0  0  0  0  0  0  0  0  0  0
   -2.9617    2.4337   -0.9530 H   0  0  0  0  0  0  0  0  0  0  0  0
   -2.0433    2.5632   -2.4474 H   0  0  0  0  0  0  0  0  0  0  0  0
   -2.5011    0.9606   -1.8325 H   0  0  0  0  0  0  0  0  0  0  0  0
   -0.4469    2.8139   -0.4096 H   0  0  0  0  0  0  0  0  0  0  0  0
  1  2  2  3
  1  5  1  0
  2  3  1  0
  4  9  1  0
  6  7  1  0
  6 10  1  0
  6 11  1  0
  6 12  1  0
  7  8  2  3
  7 13  1  0
  8  9  1  0
M  RAD  1   3   2
M  END
>  <reaction>  (23) 
rmg_rxn_1500

>  <mol_properties>  (23) 
{"0": {"label": "*3", "atom_type": "N3d"}, "1": {"label": "*4", "atom_type": "N3d"}, "3": {"label": "*2", "atom_type": "H0"}, "7": {"label": "*0", "atom_type": "N3d"}, "8": {"label": "*1", "atom_type": "O2s"}}

>  <type>  (23) 
unop_19

>  <geom_source>  (23) 
Heuristics

$$$$

     RDKit          3D

 13 11  0  0  0  0  0  0  0  0999 V2000
   -0.2569   -1.6064    0.7817 N   0  0  0  0  0  0  0  0  0  0  0  0
   -0.2569   -2.8093    0.2370 N   0  0  0  0  0  0  0  0  0  0  0  0
   -0.2569   -2.8093   -0.9675 O   0  0  0  0  0  1  0  0  0  0  0  0
   -0.2569   -0.6238    0.0665 H   0  0  0  0  0  0  0  0  0  0  0  0
   -0.2569   -1.5601    1.7838 H   0  0  0  0  0  0  0  0  0  0  0  0
    0.6510    3.5882    0.5865 C   0  0  0  0  0  0  0  0  0  0  0  0
    0.0464    2.4269   -0.1219 C   0  0  0  0  0  0  0  0  0  0  0  0
    0.4191    1.2501    0.1509 N   0  0  0  0  0  0  0  0  0  0  0  0
   -0.2569    0.3063   -0.6105 O   0  0  0  0  0  0  0  0  0  0  0  0
    1.1255    4.2658   -0.1271 H   0  0  0  0  0  0  0  0  0  0  0  0
   -0.1191    4.1586    1.1110 H   0  0  0  0  0  0  0  0  0  0  0  0
    1.3955    3.2509    1.3057 H   0  0  0  0  0  0  0  0  0  0  0  0
   -0.7208    2.5955   -0.8785 H   0  0  0  0  0  0  0  0  0  0  0  0
  1  2  2  3
  1  5  1  0
  2  3  1  0
  4  9  1  0
  6  7  1  0
  6 10  1  0
  6 11  1  0
  6 12  1  0
  7  8  2  3
  7 13  1  0
  8  9  1  0
M  RAD  1   3   2
M  END
>  <reaction>  (24) 
rmg_rxn_1500

>  <mol_properties>  (24) 
{"0": {"label": "*3", "atom_type": "N3d"}, "1": {"label": "*4", "atom_type": "N3d"}, "3": {"label": "*2", "atom_type": "H0"}, "7": {"label": "*0", "atom_type": "N3d"}, "8": {"label": "*1", "atom_type": "O2s"}}

>  <type>  (24) 
unop_20

>  <geom_source>  (24) 
Heuristics

$$$$

     RDKit          3D

 13 11  0  0  0  0  0  0  0  0999 V2000
    0.0000   -0.7075    2.0882 N   0  0  0  0  0  0  0  0  0  0  0  0
    0.0000   -1.9103    1.5435 N   0  0  0  0  0  0  0  0  0  0  0  0
    0.0000   -1.9103    0.3390 O   0  0  0  0  0  1  0  0  0  0  0  0
    0.0000    0.2751    1.3730 H   0  0  0  0  0  0  0  0  0  0  0  0
    0.0000   -0.6612    3.0903 H   0  0  0  0  0  0  0  0  0  0  0  0
   -0.0000    1.1911   -2.9134 C   0  0  0  0  0  0  0  0  0  0  0  0
   -0.0000    1.5628   -1.4719 C   0  0  0  0  0  0  0  0  0  0  0  0
   -0.0000    0.6642   -0.5826 N   0  0  0  0  0  0  0  0  0  0  0  0
    0.0000    1.2052    0.6960 O   0  0  0  0  0  0  0  0  0  0  0  0
   -0.8794    1.6031   -3.4139 H   0  0  0  0  0  0  0  0  0  0  0  0
    0.8794    1.6031   -3.4139 H   0  0  0  0  0  0  0  0  0  0  0  0
   -0.0000    0.1085   -3.0282 H   0  0  0  0  0  0  0  0  0  0  0  0
   -0.0000    2.6151   -1.1854 H   0  0  0  0  0  0  0  0  0  0  0  0
  1  2  2  3
  1  5  1  0
  2  3  1  0
  4  9  1  0
  6  7  1  0
  6 10  1  0
  6 11  1  0
  6 12  1  0
  7  8  2  3
  7 13  1  0
  8  9  1  0
M  RAD  1   3   2
M  END
>  <reaction>  (25) 
rmg_rxn_1500

>  <mol_properties>  (25) 
{"0": {"label": "*3", "atom_type": "N3d"}, "1": {"label": "*4", "atom_type": "N3d"}, "3": {"label": "*2", "atom_type": "H0"}, "7": {"label": "*0", "atom_type": "N3d"}, "8": {"label": "*1", "atom_type": "O2s"}}

>  <type>  (25) 
unop_21

>  <geom_source>  (25) 
Heuristics

$$$$

     RDKit          3D

 13 11  0  0  0  0  0  0  0  0999 V2000
    0.5124   -0.7869    1.9406 N   0  0  0  0  0  0  0  0  0  0  0  0
    0.5124   -1.9897    1.3958 N   0  0  0  0  0  0  0  0  0  0  0  0
    0.5124   -1.9897    0.1913 O   0  0  0  0  0  1  0  0  0  0  0  0
    0.5124    0.1958    1.2254 H   0  0  0  0  0  0  0  0  0  0  0  0
    0.5124   -0.7405    2.9427 H   0  0  0  0  0  0  0  0  0  0  0  0
   -1.3895    1.4061   -2.5065 C   0  0  0  0  0  0  0  0  0  0  0  0
   -0.6283    1.6586   -1.2523 C   0  0  0  0  0  0  0  0  0  0  0  0
   -0.1636    0.6915   -0.5838 N   0  0  0  0  0  0  0  0  0  0  0  0
    0.5124    1.1259    0.5484 O   0  0  0  0  0  0  0  0  0  0  0  0
   -2.3988    1.8170   -2.4298 H   0  0  0  0  0  0  0  0  0  0  0  0
   -0.9040    1.8970   -3.3531 H   0  0  0  0  0  0  0  0  0  0  0  0
   -1.4547    0.3376   -2.7045 H   0  0  0  0  0  0  0  0  0  0  0  0
   -0.4728    2.6830   -0.9118 H   0  0  0  0  0  0  0  0  0  0  0  0
  1  2  2  3
  1  5  1  0
  2  3  1  0
  4  9  1  0
  6  7  1  0
  6 10  1  0
  6 11  1  0
  6 12  1  0
  7  8  2  3
  7 13  1  0
  8  9  1  0
M  RAD  1   3   2
M  END
>  <reaction>  (26) 
rmg_rxn_1500

>  <mol_properties>  (26) 
{"0": {"label": "*3", "atom_type": "N3d"}, "1": {"label": "*4", "atom_type": "N3d"}, "3": {"label": "*2", "atom_type": "H0"}, "7": {"label": "*0", "atom_type": "N3d"}, "8": {"label": "*1", "atom_type": "O2s"}}

>  <type>  (26) 
unop_22

>  <geom_source>  (26) 
gaussian_log

$$$$
