
     RDKit          3D

 15 14  0  0  0  0  0  0  0  0999 V2000
   -1.2811   -0.4129    1.0228 C   0  0  0  0  0  0  0  0  0  0  0  0
   -1.0023   -0.5809   -0.4650 C   0  0  0  0  0  0  0  0  0  0  0  0
   -2.0576    0.0568   -1.3449 C   0  0  0  0  0  0  0  0  0  0  0  0
   -2.0663    1.4464   -1.1307 O   0  0  0  0  0  0  0  0  0  0  0  0
   -3.0424    2.1072   -1.8849 C   0  0  0  0  0  0  0  0  0  0  0  0
   -2.2382   -0.8657    1.2935 H   0  0  0  0  0  0  0  0  0  0  0  0
   -1.3219    0.6426    1.2914 H   0  0  0  0  0  0  0  0  0  0  0  0
   -0.5042   -0.8881    1.6236 H   0  0  0  0  0  0  0  0  0  0  0  0
   -0.0316   -0.1460   -0.7167 H   0  0  0  0  0  0  0  0  0  0  0  0
   -0.9494   -1.6429   -0.7203 H   0  0  0  0  0  0  0  0  0  0  0  0
   -1.8518   -0.1570   -2.4041 H   0  0  0  0  0  0  0  0  0  0  0  0
   -3.0491   -0.3636   -1.1124 H   0  0  0  0  0  0  0  0  0  0  0  0
   -4.0521    1.7545   -1.6343 H   0  0  0  0  0  0  0  0  0  0  0  0
   -2.8850    1.9634   -2.9626 H   0  0  0  0  0  0  0  0  0  0  0  0
   -2.9730    3.1700   -1.6570 H   0  0  0  0  0  0  0  0  0  0  0  0
  1  2  1  0
  1  6  1  0
  1  7  1  0
  1  8  1  0
  2  3  1  0
  2  9  1  0
  2 10  1  0
  3  4  1  0
  3 11  1  0
  3 12  1  0
  4  5  1  0
  5 13  1  0
  5 14  1  0
  5 15  1  0
M  END
>  <reaction>  (1) 
rmg_rxn_659

>  <mol_properties>  (1) 
{"4": {"label": "donator", "atom_type": "Cs"}, "12": {"label": "d_hydrogen", "atom_type": "H0"}}

>  <type>  (1) 
r1h

$$$$

     RDKit          3D

 17 16  0  0  0  0  0  0  0  0999 V2000
    2.3993   -0.7259   -0.8796 C   0  0  0  0  0  0  0  0  0  0  0  0
    1.8173   -0.7170    0.4851 C   0  0  0  0  0  3  0  0  0  0  0  0
    2.6779   -0.5182    1.6852 C   0  0  0  0  0  0  0  0  0  0  0  0
    3.8710   -1.2723    1.6674 O   0  0  0  0  0  0  0  0  0  0  0  0
    3.6589   -2.6587    1.8015 C   0  0  0  0  0  0  0  0  0  0  0  0
    4.9969   -3.3586    1.7556 C   0  0  0  0  0  0  0  0  0  0  0  0
    3.3755   -1.2152   -0.8894 H   0  0  0  0  0  0  0  0  0  0  0  0
    1.7457   -1.2284   -1.5943 H   0  0  0  0  0  0  0  0  0  0  0  0
    2.5578    0.2962   -1.2545 H   0  0  0  0  0  0  0  0  0  0  0  0
    0.7445   -0.6275    0.6059 H   0  0  0  0  0  0  0  0  0  0  0  0
    2.1057   -0.7316    2.5992 H   0  0  0  0  0  0  0  0  0  0  0  0
    3.0103    0.5272    1.7516 H   0  0  0  0  0  0  0  0  0  0  0  0
    3.0050   -3.0235    0.9977 H   0  0  0  0  0  0  0  0  0  0  0  0
    3.1469   -2.8645    2.7531 H   0  0  0  0  0  0  0  0  0  0  0  0
    5.6430   -3.0039    2.5594 H   0  0  0  0  0  0  0  0  0  0  0  0
    4.8641   -4.4360    1.8660 H   0  0  0  0  0  0  0  0  0  0  0  0
    5.4957   -3.1672    0.8046 H   0  0  0  0  0  0  0  0  0  0  0  0
  1  2  1  0
  1  7  1  0
  1  8  1  0
  1  9  1  0
  2  3  1  0
  2 10  1  0
  3  4  1  0
  3 11  1  0
  3 12  1  0
  4  5  1  0
  5  6  1  0
  5 13  1  0
  5 14  1  0
  6 15  1  0
  6 16  1  0
  6 17  1  0
M  RAD  1   2   2
M  END
>  <reaction>  (2) 
rmg_rxn_659

>  <mol_properties>  (2) 
{"1": {"label": "acceptor", "atom_type": "Cs"}}

>  <type>  (2) 
r2

$$$$

     RDKit          3D

 18 17  0  0  0  0  0  0  0  0999 V2000
    2.2026   -0.7213   -0.2612 C   0  0  0  0  0  0  0  0  0  0  0  0
    1.5384    0.2638    0.6915 C   0  0  0  0  0  0  0  0  0  0  0  0
    2.2584    1.5946    0.7694 C   0  0  0  0  0  0  0  0  0  0  0  0
    2.2212    2.2185   -0.4893 O   0  0  0  0  0  0  0  0  0  0  0  0
    2.8988    3.4488   -0.5204 C   0  0  0  0  0  0  0  0  0  0  0  0
    2.7981    4.0296   -1.9118 C   0  0  0  0  0  0  0  0  0  0  0  0
    3.2294   -0.9309    0.0486 H   0  0  0  0  0  0  0  0  0  0  0  0
    2.2338   -0.3181   -1.2734 H   0  0  0  0  0  0  0  0  0  0  0  0
    1.6610   -1.6680   -0.2875 H   0  0  0  0  0  0  0  0  0  0  0  0
    1.4990   -0.1566    1.7002 H   0  0  0  0  0  0  0  0  0  0  0  0
    0.5055    0.4455    0.3835 H   0  0  0  0  0  0  0  0  0  0  0  0
    3.3038    1.4410    1.0808 H   0  0  0  0  0  0  0  0  0  0  0  0
    1.7844    2.2410    1.5226 H   0  0  0  0  0  0  0  0  0  0  0  0
    2.4596    4.1376    0.2164 H   0  0  0  0  0  0  0  0  0  0  0  0
    3.9524    3.3035   -0.2397 H   0  0  0  0  0  0  0  0  0  0  0  0
    1.7543    4.1869   -2.1856 H   0  0  0  0  0  0  0  0  0  0  0  0
    3.2472    3.3545   -2.6411 H   0  0  0  0  0  0  0  0  0  0  0  0
    3.3178    4.9878   -1.9600 H   0  0  0  0  0  0  0  0  0  0  0  0
  1  2  1  0
  1  7  1  0
  1  8  1  0
  1  9  1  0
  2  3  1  0
  2 10  1  0
  2 11  1  0
  3  4  1  0
  3 12  1  0
  3 13  1  0
  4  5  1  0
  5  6  1  0
  5 14  1  0
  5 15  1  0
  6 16  1  0
  6 17  1  0
  6 18  1  0
M  END
>  <reaction>  (3) 
rmg_rxn_659

>  <mol_properties>  (3) 
{"0": {"label": "a_hydrogen", "atom_type": "H0"}, "2": {"label": "acceptor", "atom_type": "Cs"}}

>  <type>  (3) 
r2h

$$$$

     RDKit          3D

 32 30  0  0  0  0  0  0  0  0999 V2000
    0.5165   -3.0811   -0.3711 C   0  0  0  0  0  0  0  0  0  0  0  0
   -0.7380   -3.3901    0.4353 C   0  0  0  0  0  0  0  0  0  0  0  0
   -1.5020   -2.1506    0.8495 C   0  0  0  0  0  0  0  0  0  0  0  0
   -1.9959   -1.5014   -0.3032 O   0  0  0  0  0  0  0  0  0  0  0  0
   -2.6509   -0.3203   -0.0352 C   0  0  0  0  0  0  0  0  0  0  0  0
    1.2171   -2.4794    0.2135 H   0  0  0  0  0  0  0  0  0  0  0  0
    0.2692   -2.5247   -1.2756 H   0  0  0  0  0  0  0  0  0  0  0  0
    1.0296   -3.9977   -0.6651 H   0  0  0  0  0  0  0  0  0  0  0  0
   -1.4075   -4.0334   -0.1413 H   0  0  0  0  0  0  0  0  0  0  0  0
   -0.4746   -3.9400    1.3428 H   0  0  0  0  0  0  0  0  0  0  0  0
   -2.3414   -2.4145    1.5070 H   0  0  0  0  0  0  0  0  0  0  0  0
   -0.8475   -1.4646    1.4059 H   0  0  0  0  0  0  0  0  0  0  0  0
   -1.7445    0.5796    0.3463 H   0  0  0  0  0  0  0  0  0  0  0  0
   -3.3690   -0.3870    0.7902 H   0  0  0  0  0  0  0  0  0  0  0  0
   -3.0918    0.0719   -0.9490 H   0  0  0  0  0  0  0  0  0  0  0  0
   -1.2246    2.8241    0.3370 C   0  0  0  0  0  0  0  0  0  0  0  0
   -0.7007    1.4404    0.6107 C   0  0  0  0  0  3  0  0  0  0  0  0
    0.3726    0.9423   -0.3088 C   0  0  0  0  0  0  0  0  0  0  0  0
    1.5515    1.7005   -0.1334 O   0  0  0  0  0  0  0  0  0  0  0  0
    2.6021    1.2770   -0.9654 C   0  0  0  0  0  0  0  0  0  0  0  0
    3.8144    2.1402   -0.7034 C   0  0  0  0  0  0  0  0  0  0  0  0
   -1.5678    2.9135   -0.6974 H   0  0  0  0  0  0  0  0  0  0  0  0
   -2.0607    3.0716    0.9937 H   0  0  0  0  0  0  0  0  0  0  0  0
   -0.4450    3.5763    0.4889 H   0  0  0  0  0  0  0  0  0  0  0  0
   -0.4728    1.2561    1.6609 H   0  0  0  0  0  0  0  0  0  0  0  0
    0.0355    1.0176   -1.3548 H   0  0  0  0  0  0  0  0  0  0  0  0
    0.5814   -0.1191   -0.1154 H   0  0  0  0  0  0  0  0  0  0  0  0
    2.2984    1.3503   -2.0203 H   0  0  0  0  0  0  0  0  0  0  0  0
    2.8329    0.2192   -0.7692 H   0  0  0  0  0  0  0  0  0  0  0  0
    4.1247    2.0569    0.3388 H   0  0  0  0  0  0  0  0  0  0  0  0
    4.6452    1.8293   -1.3389 H   0  0  0  0  0  0  0  0  0  0  0  0
    3.5906    3.1869   -0.9127 H   0  0  0  0  0  0  0  0  0  0  0  0
  1  2  1  0
  1  6  1  0
  1  7  1  0
  1  8  1  0
  2  3  1  0
  2  9  1  0
  2 10  1  0
  3  4  1  0
  3 11  1  0
  3 12  1  0
  4  5  1  0
  5 13  1  0
  5 14  1  0
  5 15  1  0
 16 17  1  0
 16 22  1  0
 16 23  1  0
 16 24  1  0
 17 18  1  0
 17 25  1  0
 18 19  1  0
 18 26  1  0
 18 27  1  0
 19 20  1  0
 20 21  1  0
 20 28  1  0
 20 29  1  0
 21 30  1  0
 21 31  1  0
 21 32  1  0
M  RAD  1  17   2
M  END
>  <reaction>  (4) 
rmg_rxn_659

>  <mol_properties>  (4) 
{"3": {"label": "*0", "atom_type": "O2s"}, "4": {"label": "*1", "atom_type": "Cs"}, "12": {"label": "*2", "atom_type": "H0"}, "16": {"label": "*3", "atom_type": "Cs"}, "17": {"label": "*4", "atom_type": "Cs"}}

>  <type>  (4) 
ts

$$$$

     RDKit          3D

 32 30  0  0  0  0  0  0  0  0999 V2000
   -1.1930   -3.6327   -1.2927 C   0  0  0  0  0  0  0  0  0  0  0  0
   -1.1930   -3.6327    0.2302 C   0  0  0  0  0  0  0  0  0  0  0  0
   -1.1930   -2.2401    0.8262 C   0  0  0  0  0  0  0  0  0  0  0  0
   -2.3780   -1.5767    0.4621 O   0  0  0  0  0  0  0  0  0  0  0  0
   -2.4388   -0.2656    0.9472 C   0  0  0  0  0  3  0  0  0  0  0  0
   -0.3106   -3.1191   -1.6824 H   0  0  0  0  0  0  0  0  0  0  0  0
   -2.0754   -3.1228   -1.6791 H   0  0  0  0  0  0  0  0  0  0  0  0
   -1.1881   -4.6507   -1.6850 H   0  0  0  0  0  0  0  0  0  0  0  0
   -2.0671   -4.1709    0.6058 H   0  0  0  0  0  0  0  0  0  0  0  0
   -0.3113   -4.1588    0.6064 H   0  0  0  0  0  0  0  0  0  0  0  0
   -1.1162   -2.2938    1.9223 H   0  0  0  0  0  0  0  0  0  0  0  0
   -0.3206   -1.6731    0.4640 H   0  0  0  0  0  0  0  0  0  0  0  0
   -1.4501    0.4695    0.4785 H   0  0  0  0  0  0  0  0  0  0  0  0
   -2.3968   -0.2395    2.0447 H   0  0  0  0  0  0  0  0  0  0  0  0
   -3.3845    0.1646    0.6201 H   0  0  0  0  0  0  0  0  0  0  0  0
   -1.0184    2.3820   -0.7755 C   0  0  0  0  0  0  0  0  0  0  0  0
   -0.4659    1.2013    0.0118 C   0  0  0  0  0  0  0  0  0  0  0  0
    0.9770    0.8843   -0.3242 C   0  0  0  0  0  0  0  0  0  0  0  0
    1.7884    1.9752    0.0314 O   0  0  0  0  0  0  0  0  0  0  0  0
    3.1452    1.7833   -0.2783 C   0  0  0  0  0  0  0  0  0  0  0  0
    3.9227    3.0090    0.1421 C   0  0  0  0  0  0  0  0  0  0  0  0
   -0.9755    2.1880   -1.8502 H   0  0  0  0  0  0  0  0  0  0  0  0
   -2.0589    2.5773   -0.5120 H   0  0  0  0  0  0  0  0  0  0  0  0
   -0.4407    3.2842   -0.5747 H   0  0  0  0  0  0  0  0  0  0  0  0
   -0.5371    1.3992    1.0844 H   0  0  0  0  0  0  0  0  0  0  0  0
    1.0776    0.6778   -1.4015 H   0  0  0  0  0  0  0  0  0  0  0  0
    1.3043   -0.0177    0.2135 H   0  0  0  0  0  0  0  0  0  0  0  0
    3.2617    1.6056   -1.3576 H   0  0  0  0  0  0  0  0  0  0  0  0
    3.5256    0.8904    0.2396 H   0  0  0  0  0  0  0  0  0  0  0  0
    3.8191    3.1781    1.2144 H   0  0  0  0  0  0  0  0  0  0  0  0
    4.9817    2.8825   -0.0885 H   0  0  0  0  0  0  0  0  0  0  0  0
    3.5567    3.8923   -0.3825 H   0  0  0  0  0  0  0  0  0  0  0  0
  1  2  1  0
  1  6  1  0
  1  7  1  0
  1  8  1  0
  2  3  1  0
  2  9  1  0
  2 10  1  0
  3  4  1  0
  3 11  1  0
  3 12  1  0
  4  5  1  0
  5 14  1  0
  5 15  1  0
 13 17  1  0
 16 17  1  0
 16 22  1  0
 16 23  1  0
 16 24  1  0
 17 18  1  0
 17 25  1  0
 18 19  1  0
 18 26  1  0
 18 27  1  0
 19 20  1  0
 20 21  1  0
 20 28  1  0
 20 29  1  0
 21 30  1  0
 21 31  1  0
 21 32  1  0
M  RAD  1   5   2
M  END
>  <reaction>  (5) 
rmg_rxn_659

>  <mol_properties>  (5) 
{"3": {"label": "*0", "atom_type": "O2s"}, "4": {"label": "*1", "atom_type": "Cs"}, "12": {"label": "*2", "atom_type": "H0"}, "16": {"label": "*3", "atom_type": "Cs"}, "17": {"label": "*4", "atom_type": "Cs"}}

>  <type>  (5) 
unop_1

>  <geom_source>  (5) 
Heuristics

$$$$

     RDKit          3D

 32 30  0  0  0  0  0  0  0  0999 V2000
   -1.1015   -3.8263   -1.5055 C   0  0  0  0  0  0  0  0  0  0  0  0
   -1.1015   -3.8263    0.0174 C   0  0  0  0  0  0  0  0  0  0  0  0
   -1.1015   -2.4337    0.6134 C   0  0  0  0  0  0  0  0  0  0  0  0
   -2.2865   -1.7703    0.2493 O   0  0  0  0  0  0  0  0  0  0  0  0
   -2.3473   -0.4592    0.7345 C   0  0  0  0  0  3  0  0  0  0  0  0
   -0.2191   -3.3127   -1.8952 H   0  0  0  0  0  0  0  0  0  0  0  0
   -1.9839   -3.3164   -1.8919 H   0  0  0  0  0  0  0  0  0  0  0  0
   -1.0965   -4.8443   -1.8978 H   0  0  0  0  0  0  0  0  0  0  0  0
   -1.9756   -4.3645    0.3930 H   0  0  0  0  0  0  0  0  0  0  0  0
   -0.2197   -4.3524    0.3936 H   0  0  0  0  0  0  0  0  0  0  0  0
   -1.0246   -2.4874    1.7095 H   0  0  0  0  0  0  0  0  0  0  0  0
   -0.2291   -1.8667    0.2513 H   0  0  0  0  0  0  0  0  0  0  0  0
   -1.3586    0.2759    0.2657 H   0  0  0  0  0  0  0  0  0  0  0  0
   -2.3053   -0.4331    1.8319 H   0  0  0  0  0  0  0  0  0  0  0  0
   -3.2930   -0.0290    0.4073 H   0  0  0  0  0  0  0  0  0  0  0  0
    0.0378    0.5129   -1.5810 C   0  0  0  0  0  0  0  0  0  0  0  0
   -0.3744    1.0077   -0.2010 C   0  0  0  0  0  0  0  0  0  0  0  0
    0.8044    1.3816    0.6742 C   0  0  0  0  0  0  0  0  0  0  0  0
    1.4959    2.4564    0.0898 O   0  0  0  0  0  0  0  0  0  0  0  0
    2.6308    2.8496    0.8185 C   0  0  0  0  0  0  0  0  0  0  0  0
    3.2961    4.0041    0.1058 C   0  0  0  0  0  0  0  0  0  0  0  0
    0.6725   -0.3735   -1.5036 H   0  0  0  0  0  0  0  0  0  0  0  0
   -0.8347    0.2483   -2.1801 H   0  0  0  0  0  0  0  0  0  0  0  0
    0.5981    1.2804   -2.1149 H   0  0  0  0  0  0  0  0  0  0  0  0
   -1.0276    1.8791   -0.2944 H   0  0  0  0  0  0  0  0  0  0  0  0
    1.4797    0.5187    0.7876 H   0  0  0  0  0  0  0  0  0  0  0  0
    0.4588    1.6606    1.6805 H   0  0  0  0  0  0  0  0  0  0  0  0
    3.3272    2.0033    0.9129 H   0  0  0  0  0  0  0  0  0  0  0  0
    2.3390    3.1437    1.8376 H   0  0  0  0  0  0  0  0  0  0  0  0
    2.6109    4.8486    0.0239 H   0  0  0  0  0  0  0  0  0  0  0  0
    4.1817    4.3276    0.6549 H   0  0  0  0  0  0  0  0  0  0  0  0
    3.5998    3.7088   -0.8992 H   0  0  0  0  0  0  0  0  0  0  0  0
  1  2  1  0
  1  6  1  0
  1  7  1  0
  1  8  1  0
  2  3  1  0
  2  9  1  0
  2 10  1  0
  3  4  1  0
  3 11  1  0
  3 12  1  0
  4  5  1  0
  5 14  1  0
  5 15  1  0
 13 17  1  0
 16 17  1  0
 16 22  1  0
 16 23  1  0
 16 24  1  0
 17 18  1  0
 17 25  1  0
 18 19  1  0
 18 26  1  0
 18 27  1  0
 19 20  1  0
 20 21  1  0
 20 28  1  0
 20 29  1  0
 21 30  1  0
 21 31  1  0
 21 32  1  0
M  RAD  1   5   2
M  END
>  <reaction>  (6) 
rmg_rxn_659

>  <mol_properties>  (6) 
{"3": {"label": "*0", "atom_type": "O2s"}, "4": {"label": "*1", "atom_type": "Cs"}, "12": {"label": "*2", "atom_type": "H0"}, "16": {"label": "*3", "atom_type": "Cs"}, "17": {"label": "*4", "atom_type": "Cs"}}

>  <type>  (6) 
unop_2

>  <geom_source>  (6) 
Heuristics

$$$$

     RDKit          3D

 32 30  0  0  0  0  0  0  0  0999 V2000
   -1.1235   -3.4835   -0.9169 C   0  0  0  0  0  0  0  0  0  0  0  0
   -1.1235   -3.4835    0.6060 C   0  0  0  0  0  0  0  0  0  0  0  0
   -1.1235   -2.0910    1.2021 C   0  0  0  0  0  0  0  0  0  0  0  0
   -2.3085   -1.4275    0.8379 O   0  0  0  0  0  0  0  0  0  0  0  0
   -2.3693   -0.1164    1.3231 C   0  0  0  0  0  3  0  0  0  0  0  0
   -0.2411   -2.9699   -1.3066 H   0  0  0  0  0  0  0  0  0  0  0  0
   -2.0059   -2.9736   -1.3033 H   0  0  0  0  0  0  0  0  0  0  0  0
   -1.1186   -4.5015   -1.3092 H   0  0  0  0  0  0  0  0  0  0  0  0
   -1.9976   -4.0217    0.9816 H   0  0  0  0  0  0  0  0  0  0  0  0
   -0.2418   -4.0097    0.9823 H   0  0  0  0  0  0  0  0  0  0  0  0
   -1.0467   -2.1447    2.2981 H   0  0  0  0  0  0  0  0  0  0  0  0
   -0.2511   -1.5239    0.8399 H   0  0  0  0  0  0  0  0  0  0  0  0
   -1.3807    0.6187    0.8543 H   0  0  0  0  0  0  0  0  0  0  0  0
   -2.3273   -0.0903    2.4206 H   0  0  0  0  0  0  0  0  0  0  0  0
   -3.3150    0.3137    0.9960 H   0  0  0  0  0  0  0  0  0  0  0  0
   -0.8318    2.8056    0.2777 C   0  0  0  0  0  0  0  0  0  0  0  0
   -0.3964    1.3504    0.3877 C   0  0  0  0  0  0  0  0  0  0  0  0
    0.6240    0.9534   -0.6594 C   0  0  0  0  0  0  0  0  0  0  0  0
    1.7979    1.7034   -0.4736 O   0  0  0  0  0  0  0  0  0  0  0  0
    2.7920    1.4255   -1.4265 C   0  0  0  0  0  0  0  0  0  0  0  0
    4.0030    2.2816   -1.1364 C   0  0  0  0  0  0  0  0  0  0  0  0
   -1.2810    3.0052   -0.6985 H   0  0  0  0  0  0  0  0  0  0  0  0
   -1.5693    3.0537    1.0424 H   0  0  0  0  0  0  0  0  0  0  0  0
    0.0210    3.4738    0.3969 H   0  0  0  0  0  0  0  0  0  0  0  0
    0.0285    1.1596    1.3765 H   0  0  0  0  0  0  0  0  0  0  0  0
    0.2200    1.1334   -1.6683 H   0  0  0  0  0  0  0  0  0  0  0  0
    0.8492   -0.1206   -0.5843 H   0  0  0  0  0  0  0  0  0  0  0  0
    2.4097    1.6302   -2.4374 H   0  0  0  0  0  0  0  0  0  0  0  0
    3.0580    0.3586   -1.3910 H   0  0  0  0  0  0  0  0  0  0  0  0
    4.3911    2.0694   -0.1396 H   0  0  0  0  0  0  0  0  0  0  0  0
    4.7903    2.0822   -1.8651 H   0  0  0  0  0  0  0  0  0  0  0  0
    3.7439    3.3398   -1.1867 H   0  0  0  0  0  0  0  0  0  0  0  0
  1  2  1  0
  1  6  1  0
  1  7  1  0
  1  8  1  0
  2  3  1  0
  2  9  1  0
  2 10  1  0
  3  4  1  0
  3 11  1  0
  3 12  1  0
  4  5  1  0
  5 14  1  0
  5 15  1  0
 13 17  1  0
 16 17  1  0
 16 22  1  0
 16 23  1  0
 16 24  1  0
 17 18  1  0
 17 25  1  0
 18 19  1  0
 18 26  1  0
 18 27  1  0
 19 20  1  0
 20 21  1  0
 20 28  1  0
 20 29  1  0
 21 30  1  0
 21 31  1  0
 21 32  1  0
M  RAD  1   5   2
M  END
>  <reaction>  (7) 
rmg_rxn_659

>  <mol_properties>  (7) 
{"3": {"label": "*0", "atom_type": "O2s"}, "4": {"label": "*1", "atom_type": "Cs"}, "12": {"label": "*2", "atom_type": "H0"}, "16": {"label": "*3", "atom_type": "Cs"}, "17": {"label": "*4", "atom_type": "Cs"}}

>  <type>  (7) 
unop_3

>  <geom_source>  (7) 
Heuristics

$$$$

     RDKit          3D

 32 30  0  0  0  0  0  0  0  0999 V2000
   -0.3492   -4.1478   -2.0256 C   0  0  0  0  0  0  0  0  0  0  0  0
   -0.3492   -4.1478   -0.5027 C   0  0  0  0  0  0  0  0  0  0  0  0
   -0.3492   -2.7553    0.0934 C   0  0  0  0  0  0  0  0  0  0  0  0
   -1.5343   -2.0918   -0.2708 O   0  0  0  0  0  0  0  0  0  0  0  0
   -1.5951   -0.7807    0.2144 C   0  0  0  0  0  3  0  0  0  0  0  0
    0.5332   -3.6342   -2.4153 H   0  0  0  0  0  0  0  0  0  0  0  0
   -1.2317   -3.6379   -2.4120 H   0  0  0  0  0  0  0  0  0  0  0  0
   -0.3443   -5.1658   -2.4179 H   0  0  0  0  0  0  0  0  0  0  0  0
   -1.2233   -4.6860   -0.1271 H   0  0  0  0  0  0  0  0  0  0  0  0
    0.5325   -4.6740   -0.1264 H   0  0  0  0  0  0  0  0  0  0  0  0
   -0.2724   -2.8090    1.1894 H   0  0  0  0  0  0  0  0  0  0  0  0
    0.5232   -2.1882   -0.2688 H   0  0  0  0  0  0  0  0  0  0  0  0
   -0.6064   -0.0456   -0.2544 H   0  0  0  0  0  0  0  0  0  0  0  0
   -1.5531   -0.7546    1.3119 H   0  0  0  0  0  0  0  0  0  0  0  0
   -2.5407   -0.3506   -0.1127 H   0  0  0  0  0  0  0  0  0  0  0  0
    1.7164    0.0899   -0.3064 C   0  0  0  0  0  0  0  0  0  0  0  0
    0.3779    0.6861   -0.7210 C   0  0  0  0  0  0  0  0  0  0  0  0
   -0.1737    1.6713    0.2891 C   0  0  0  0  0  0  0  0  0  0  0  0
    0.6996    2.7671    0.3957 O   0  0  0  0  0  0  0  0  0  0  0  0
    0.2840    3.7196    1.3410 C   0  0  0  0  0  0  0  0  0  0  0  0
    1.2887    4.8478    1.3755 C   0  0  0  0  0  0  0  0  0  0  0  0
    1.6282   -0.4423    0.6440 H   0  0  0  0  0  0  0  0  0  0  0  0
    2.0795   -0.6174   -1.0535 H   0  0  0  0  0  0  0  0  0  0  0  0
    2.4661    0.8716   -0.1842 H   0  0  0  0  0  0  0  0  0  0  0  0
    0.4755    1.1942   -1.6839 H   0  0  0  0  0  0  0  0  0  0  0  0
   -0.2849    1.1838    1.2707 H   0  0  0  0  0  0  0  0  0  0  0  0
   -1.1717    2.0156   -0.0198 H   0  0  0  0  0  0  0  0  0  0  0  0
    0.1980    3.2509    2.3324 H   0  0  0  0  0  0  0  0  0  0  0  0
   -0.7133    4.1010    1.0758 H   0  0  0  0  0  0  0  0  0  0  0  0
    1.3645    5.3222    0.3965 H   0  0  0  0  0  0  0  0  0  0  0  0
    0.9859    5.6017    2.1039 H   0  0  0  0  0  0  0  0  0  0  0  0
    2.2745    4.4732    1.6536 H   0  0  0  0  0  0  0  0  0  0  0  0
  1  2  1  0
  1  6  1  0
  1  7  1  0
  1  8  1  0
  2  3  1  0
  2  9  1  0
  2 10  1  0
  3  4  1  0
  3 11  1  0
  3 12  1  0
  4  5  1  0
  5 14  1  0
  5 15  1  0
 13 17  1  0
 16 17  1  0
 16 22  1  0
 16 23  1  0
 16 24  1  0
 17 18  1  0
 17 25  1  0
 18 19  1  0
 18 26  1  0
 18 27  1  0
 19 20  1  0
 20 21  1  0
 20 28  1  0
 20 29  1  0
 21 30  1  0
 21 31  1  0
 21 32  1  0
M  RAD  1   5   2
M  END
>  <reaction>  (8) 
rmg_rxn_659

>  <mol_properties>  (8) 
{"3": {"label": "*0", "atom_type": "O2s"}, "4": {"label": "*1", "atom_type": "Cs"}, "12": {"label": "*2", "atom_type": "H0"}, "16": {"label": "*3", "atom_type": "Cs"}, "17": {"label": "*4", "atom_type": "Cs"}}

>  <type>  (8) 
unop_4

>  <geom_source>  (8) 
Heuristics

$$$$

     RDKit          3D

 32 30  0  0  0  0  0  0  0  0999 V2000
   -0.5655   -3.6290   -0.4537 C   0  0  0  0  0  0  0  0  0  0  0  0
   -0.5655   -3.6290    1.0692 C   0  0  0  0  0  0  0  0  0  0  0  0
   -0.5655   -2.2364    1.6653 C   0  0  0  0  0  0  0  0  0  0  0  0
   -1.7506   -1.5729    1.3011 O   0  0  0  0  0  0  0  0  0  0  0  0
   -1.8113   -0.2618    1.7863 C   0  0  0  0  0  3  0  0  0  0  0  0
    0.3169   -3.1153   -0.8434 H   0  0  0  0  0  0  0  0  0  0  0  0
   -1.4480   -3.1191   -0.8401 H   0  0  0  0  0  0  0  0  0  0  0  0
   -0.5606   -4.6470   -0.8460 H   0  0  0  0  0  0  0  0  0  0  0  0
   -1.4396   -4.1671    1.4448 H   0  0  0  0  0  0  0  0  0  0  0  0
    0.3162   -4.1551    1.4455 H   0  0  0  0  0  0  0  0  0  0  0  0
   -0.4887   -2.2901    2.7613 H   0  0  0  0  0  0  0  0  0  0  0  0
    0.3069   -1.6694    1.3031 H   0  0  0  0  0  0  0  0  0  0  0  0
   -0.8227    0.4732    1.3175 H   0  0  0  0  0  0  0  0  0  0  0  0
   -1.7693   -0.2357    2.8838 H   0  0  0  0  0  0  0  0  0  0  0  0
   -2.7570    0.1683    1.4592 H   0  0  0  0  0  0  0  0  0  0  0  0
    0.0652    2.6231    1.3978 C   0  0  0  0  0  0  0  0  0  0  0  0
    0.1616    1.2050    0.8509 C   0  0  0  0  0  0  0  0  0  0  0  0
    0.1095    1.1454   -0.6621 C   0  0  0  0  0  0  0  0  0  0  0  0
    1.2216    1.8206   -1.1933 O   0  0  0  0  0  0  0  0  0  0  0  0
    1.2376    1.8469   -2.5978 C   0  0  0  0  0  0  0  0  0  0  0  0
    2.4672    2.5932   -3.0609 C   0  0  0  0  0  0  0  0  0  0  0  0
   -0.8710    3.0961    1.0912 H   0  0  0  0  0  0  0  0  0  0  0  0
    0.1005    2.6266    2.4882 H   0  0  0  0  0  0  0  0  0  0  0  0
    0.8871    3.2361    1.0280 H   0  0  0  0  0  0  0  0  0  0  0  0
    1.0908    0.7363    1.1850 H   0  0  0  0  0  0  0  0  0  0  0  0
   -0.8204    1.6100   -1.0268 H   0  0  0  0  0  0  0  0  0  0  0  0
    0.1078    0.0995   -1.0026 H   0  0  0  0  0  0  0  0  0  0  0  0
    0.3267    2.3359   -2.9737 H   0  0  0  0  0  0  0  0  0  0  0  0
    1.2399    0.8200   -2.9923 H   0  0  0  0  0  0  0  0  0  0  0  0
    3.3712    2.1013   -2.7002 H   0  0  0  0  0  0  0  0  0  0  0  0
    2.5014    2.6261   -4.1510 H   0  0  0  0  0  0  0  0  0  0  0  0
    2.4582    3.6163   -2.6832 H   0  0  0  0  0  0  0  0  0  0  0  0
  1  2  1  0
  1  6  1  0
  1  7  1  0
  1  8  1  0
  2  3  1  0
  2  9  1  0
  2 10  1  0
  3  4  1  0
  3 11  1  0
  3 12  1  0
  4  5  1  0
  5 14  1  0
  5 15  1  0
 13 17  1  0
 16 17  1  0
 16 22  1  0
 16 23  1  0
 16 24  1  0
 17 18  1  0
 17 25  1  0
 18 19  1  0
 18 26  1  0
 18 27  1  0
 19 20  1  0
 20 21  1  0
 20 28  1  0
 20 29  1  0
 21 30  1  0
 21 31  1  0
 21 32  1  0
M  RAD  1   5   2
M  END
>  <reaction>  (9) 
rmg_rxn_659

>  <mol_properties>  (9) 
{"3": {"label": "*0", "atom_type": "O2s"}, "4": {"label": "*1", "atom_type": "Cs"}, "12": {"label": "*2", "atom_type": "H0"}, "16": {"label": "*3", "atom_type": "Cs"}, "17": {"label": "*4", "atom_type": "Cs"}}

>  <type>  (9) 
unop_5

>  <geom_source>  (9) 
Heuristics

$$$$

     RDKit          3D

 32 30  0  0  0  0  0  0  0  0999 V2000
    0.0491   -4.2808   -1.7452 C   0  0  0  0  0  0  0  0  0  0  0  0
    0.0491   -4.2808   -0.2223 C   0  0  0  0  0  0  0  0  0  0  0  0
    0.0491   -2.8882    0.3738 C   0  0  0  0  0  0  0  0  0  0  0  0
   -1.1359   -2.2248    0.0096 O   0  0  0  0  0  0  0  0  0  0  0  0
   -1.1967   -0.9137    0.4948 C   0  0  0  0  0  3  0  0  0  0  0  0
    0.9315   -3.7671   -2.1349 H   0  0  0  0  0  0  0  0  0  0  0  0
   -0.8333   -3.7709   -2.1316 H   0  0  0  0  0  0  0  0  0  0  0  0
    0.0540   -5.2988   -2.1375 H   0  0  0  0  0  0  0  0  0  0  0  0
   -0.8250   -4.8189    0.1534 H   0  0  0  0  0  0  0  0  0  0  0  0
    0.9308   -4.8069    0.1540 H   0  0  0  0  0  0  0  0  0  0  0  0
    0.1259   -2.9419    1.4698 H   0  0  0  0  0  0  0  0  0  0  0  0
    0.9215   -2.3212    0.0116 H   0  0  0  0  0  0  0  0  0  0  0  0
   -0.2080   -0.1786    0.0260 H   0  0  0  0  0  0  0  0  0  0  0  0
   -1.1547   -0.8875    1.5923 H   0  0  0  0  0  0  0  0  0  0  0  0
   -2.1424   -0.4835    0.1677 H   0  0  0  0  0  0  0  0  0  0  0  0
    1.9785    0.4695    0.4903 C   0  0  0  0  0  0  0  0  0  0  0  0
    0.7762    0.5532   -0.4406 C   0  0  0  0  0  0  0  0  0  0  0  0
   -0.2673    1.5492    0.0224 C   0  0  0  0  0  0  0  0  0  0  0  0
    0.2885    2.8400    0.0220 O   0  0  0  0  0  0  0  0  0  0  0  0
   -0.6014    3.8288    0.4735 C   0  0  0  0  0  0  0  0  0  0  0  0
    0.0938    5.1700    0.4339 C   0  0  0  0  0  0  0  0  0  0  0  0
    1.6728    0.1684    1.4954 H   0  0  0  0  0  0  0  0  0  0  0  0
    2.7049   -0.2599    0.1289 H   0  0  0  0  0  0  0  0  0  0  0  0
    2.4755    1.4365    0.5670 H   0  0  0  0  0  0  0  0  0  0  0  0
    1.0995    0.8316   -1.4470 H   0  0  0  0  0  0  0  0  0  0  0  0
   -0.6134    1.2905    1.0356 H   0  0  0  0  0  0  0  0  0  0  0  0
   -1.1444    1.5183   -0.6405 H   0  0  0  0  0  0  0  0  0  0  0  0
   -0.9313    3.5969    1.4969 H   0  0  0  0  0  0  0  0  0  0  0  0
   -1.5001    3.8427   -0.1608 H   0  0  0  0  0  0  0  0  0  0  0  0
    0.4090    5.4071   -0.5829 H   0  0  0  0  0  0  0  0  0  0  0  0
   -0.5798    5.9553    0.7805 H   0  0  0  0  0  0  0  0  0  0  0  0
    0.9762    5.1621    1.0747 H   0  0  0  0  0  0  0  0  0  0  0  0
  1  2  1  0
  1  6  1  0
  1  7  1  0
  1  8  1  0
  2  3  1  0
  2  9  1  0
  2 10  1  0
  3  4  1  0
  3 11  1  0
  3 12  1  0
  4  5  1  0
  5 14  1  0
  5 15  1  0
 13 17  1  0
 16 17  1  0
 16 22  1  0
 16 23  1  0
 16 24  1  0
 17 18  1  0
 17 25  1  0
 18 19  1  0
 18 26  1  0
 18 27  1  0
 19 20  1  0
 20 21  1  0
 20 28  1  0
 20 29  1  0
 21 30  1  0
 21 31  1  0
 21 32  1  0
M  RAD  1   5   2
M  END
>  <reaction>  (10) 
rmg_rxn_659

>  <mol_properties>  (10) 
{"3": {"label": "*0", "atom_type": "O2s"}, "4": {"label": "*1", "atom_type": "Cs"}, "12": {"label": "*2", "atom_type": "H0"}, "16": {"label": "*3", "atom_type": "Cs"}, "17": {"label": "*4", "atom_type": "Cs"}}

>  <type>  (10) 
unop_6

>  <geom_source>  (10) 
Heuristics

$$$$

     RDKit          3D

 32 30  0  0  0  0  0  0  0  0999 V2000
    0.2699   -4.2524   -1.2440 C   0  0  0  0  0  0  0  0  0  0  0  0
    0.2699   -4.2524    0.2789 C   0  0  0  0  0  0  0  0  0  0  0  0
    0.2699   -2.8598    0.8750 C   0  0  0  0  0  0  0  0  0  0  0  0
   -0.9151   -2.1964    0.5108 O   0  0  0  0  0  0  0  0  0  0  0  0
   -0.9759   -0.8853    0.9960 C   0  0  0  0  0  3  0  0  0  0  0  0
    1.1523   -3.7388   -1.6337 H   0  0  0  0  0  0  0  0  0  0  0  0
   -0.6125   -3.7425   -1.6304 H   0  0  0  0  0  0  0  0  0  0  0  0
    0.2748   -5.2704   -1.6363 H   0  0  0  0  0  0  0  0  0  0  0  0
   -0.6042   -4.7906    0.6546 H   0  0  0  0  0  0  0  0  0  0  0  0
    1.1516   -4.7786    0.6552 H   0  0  0  0  0  0  0  0  0  0  0  0
    0.3467   -2.9135    1.9710 H   0  0  0  0  0  0  0  0  0  0  0  0
    1.1423   -2.2928    0.5128 H   0  0  0  0  0  0  0  0  0  0  0  0
    0.0128   -0.1502    0.5273 H   0  0  0  0  0  0  0  0  0  0  0  0
   -0.9339   -0.8592    2.0935 H   0  0  0  0  0  0  0  0  0  0  0  0
   -1.9216   -0.4552    0.6689 H   0  0  0  0  0  0  0  0  0  0  0  0
    1.8462    1.1111    1.2085 C   0  0  0  0  0  0  0  0  0  0  0  0
    0.9970    0.5815    0.0606 C   0  0  0  0  0  0  0  0  0  0  0  0
   -0.2545    1.4004   -0.1814 C   0  0  0  0  0  0  0  0  0  0  0  0
    0.1081    2.7034   -0.5631 O   0  0  0  0  0  0  0  0  0  0  0  0
   -0.9944    3.5479   -0.7750 C   0  0  0  0  0  0  0  0  0  0  0  0
   -0.4946    4.9159   -1.1778 C   0  0  0  0  0  0  0  0  0  0  0  0
    1.2799    1.1135    2.1432 H   0  0  0  0  0  0  0  0  0  0  0  0
    2.7342    0.4949    1.3568 H   0  0  0  0  0  0  0  0  0  0  0  0
    2.1695    2.1330    1.0101 H   0  0  0  0  0  0  0  0  0  0  0  0
    1.5830    0.5623   -0.8619 H   0  0  0  0  0  0  0  0  0  0  0  0
   -0.8666    1.4345    0.7338 H   0  0  0  0  0  0  0  0  0  0  0  0
   -0.8677    0.9361   -0.9677 H   0  0  0  0  0  0  0  0  0  0  0  0
   -1.5978    3.6137    0.1423 H   0  0  0  0  0  0  0  0  0  0  0  0
   -1.6425    3.1291   -1.5592 H   0  0  0  0  0  0  0  0  0  0  0  0
    0.0922    4.8536   -2.0949 H   0  0  0  0  0  0  0  0  0  0  0  0
   -1.3351    5.5903   -1.3487 H   0  0  0  0  0  0  0  0  0  0  0  0
    0.1353    5.3385   -0.3943 H   0  0  0  0  0  0  0  0  0  0  0  0
  1  2  1  0
  1  6  1  0
  1  7  1  0
  1  8  1  0
  2  3  1  0
  2  9  1  0
  2 10  1  0
  3  4  1  0
  3 11  1  0
  3 12  1  0
  4  5  1  0
  5 14  1  0
  5 15  1  0
 13 17  1  0
 16 17  1  0
 16 22  1  0
 16 23  1  0
 16 24  1  0
 17 18  1  0
 17 25  1  0
 18 19  1  0
 18 26  1  0
 18 27  1  0
 19 20  1  0
 20 21  1  0
 20 28  1  0
 20 29  1  0
 21 30  1  0
 21 31  1  0
 21 32  1  0
M  RAD  1   5   2
M  END
>  <reaction>  (11) 
rmg_rxn_659

>  <mol_properties>  (11) 
{"3": {"label": "*0", "atom_type": "O2s"}, "4": {"label": "*1", "atom_type": "Cs"}, "12": {"label": "*2", "atom_type": "H0"}, "16": {"label": "*3", "atom_type": "Cs"}, "17": {"label": "*4", "atom_type": "Cs"}}

>  <type>  (11) 
unop_7

>  <geom_source>  (11) 
Heuristics

$$$$

     RDKit          3D

 32 30  0  0  0  0  0  0  0  0999 V2000
   -1.1247   -3.7951   -1.4026 C   0  0  0  0  0  0  0  0  0  0  0  0
   -1.1247   -3.7951    0.1203 C   0  0  0  0  0  0  0  0  0  0  0  0
   -1.1247   -2.4025    0.7164 C   0  0  0  0  0  0  0  0  0  0  0  0
   -2.3097   -1.7391    0.3522 O   0  0  0  0  0  0  0  0  0  0  0  0
   -2.3705   -0.4280    0.8374 C   0  0  0  0  0  3  0  0  0  0  0  0
   -0.2423   -3.2815   -1.7923 H   0  0  0  0  0  0  0  0  0  0  0  0
   -2.0071   -3.2852   -1.7890 H   0  0  0  0  0  0  0  0  0  0  0  0
   -1.1198   -4.8131   -1.7949 H   0  0  0  0  0  0  0  0  0  0  0  0
   -1.9988   -4.3333    0.4959 H   0  0  0  0  0  0  0  0  0  0  0  0
   -0.2430   -4.3212    0.4966 H   0  0  0  0  0  0  0  0  0  0  0  0
   -1.0479   -2.4562    1.8124 H   0  0  0  0  0  0  0  0  0  0  0  0
   -0.2523   -1.8355    0.3542 H   0  0  0  0  0  0  0  0  0  0  0  0
   -1.3819    0.3071    0.3686 H   0  0  0  0  0  0  0  0  0  0  0  0
   -2.3285   -0.4019    1.9349 H   0  0  0  0  0  0  0  0  0  0  0  0
   -3.3162    0.0022    0.5103 H   0  0  0  0  0  0  0  0  0  0  0  0
   -0.8139    1.7070   -1.4017 C   0  0  0  0  0  0  0  0  0  0  0  0
   -0.3976    1.0389   -0.0980 C   0  0  0  0  0  0  0  0  0  0  0  0
    1.1050    0.9675    0.0813 C   0  0  0  0  0  0  0  0  0  0  0  0
    1.6279    2.2700    0.1525 O   0  0  0  0  0  0  0  0  0  0  0  0
    3.0262    2.3015    0.2839 C   0  0  0  0  0  0  0  0  0  0  0  0
    3.4808    3.7411    0.3500 C   0  0  0  0  0  0  0  0  0  0  0  0
   -0.4145    1.1646   -2.2624 H   0  0  0  0  0  0  0  0  0  0  0  0
   -1.9001    1.7357   -1.4989 H   0  0  0  0  0  0  0  0  0  0  0  0
   -0.4403    2.7299   -1.4477 H   0  0  0  0  0  0  0  0  0  0  0  0
   -0.8235    1.5775    0.7524 H   0  0  0  0  0  0  0  0  0  0  0  0
    1.5611    0.4262   -0.7628 H   0  0  0  0  0  0  0  0  0  0  0  0
    1.3537    0.4128    0.9980 H   0  0  0  0  0  0  0  0  0  0  0  0
    3.4945    1.7892   -0.5695 H   0  0  0  0  0  0  0  0  0  0  0  0
    3.3300    1.7604    1.1924 H   0  0  0  0  0  0  0  0  0  0  0  0
    3.0278    4.2461    1.2040 H   0  0  0  0  0  0  0  0  0  0  0  0
    4.5659    3.7907    0.4530 H   0  0  0  0  0  0  0  0  0  0  0  0
    3.1938    4.2745   -0.5569 H   0  0  0  0  0  0  0  0  0  0  0  0
  1  2  1  0
  1  6  1  0
  1  7  1  0
  1  8  1  0
  2  3  1  0
  2  9  1  0
  2 10  1  0
  3  4  1  0
  3 11  1  0
  3 12  1  0
  4  5  1  0
  5 14  1  0
  5 15  1  0
 13 17  1  0
 16 17  1  0
 16 22  1  0
 16 23  1  0
 16 24  1  0
 17 18  1  0
 17 25  1  0
 18 19  1  0
 18 26  1  0
 18 27  1  0
 19 20  1  0
 20 21  1  0
 20 28  1  0
 20 29  1  0
 21 30  1  0
 21 31  1  0
 21 32  1  0
M  RAD  1   5   2
M  END
>  <reaction>  (12) 
rmg_rxn_659

>  <mol_properties>  (12) 
{"3": {"label": "*0", "atom_type": "O2s"}, "4": {"label": "*1", "atom_type": "Cs"}, "12": {"label": "*2", "atom_type": "H0"}, "16": {"label": "*3", "atom_type": "Cs"}, "17": {"label": "*4", "atom_type": "Cs"}}

>  <type>  (12) 
unop_8

>  <geom_source>  (12) 
Heuristics

$$$$

     RDKit          3D

 32 30  0  0  0  0  0  0  0  0999 V2000
   -0.7671   -3.9522   -2.0116 C   0  0  0  0  0  0  0  0  0  0  0  0
   -0.7671   -3.9522   -0.4887 C   0  0  0  0  0  0  0  0  0  0  0  0
   -0.7671   -2.5596    0.1074 C   0  0  0  0  0  0  0  0  0  0  0  0
   -1.9522   -1.8962   -0.2568 O   0  0  0  0  0  0  0  0  0  0  0  0
   -2.0130   -0.5851    0.2284 C   0  0  0  0  0  3  0  0  0  0  0  0
    0.1153   -3.4386   -2.4013 H   0  0  0  0  0  0  0  0  0  0  0  0
   -1.6496   -3.4423   -2.3980 H   0  0  0  0  0  0  0  0  0  0  0  0
   -0.7622   -4.9702   -2.4039 H   0  0  0  0  0  0  0  0  0  0  0  0
   -1.6412   -4.4904   -0.1130 H   0  0  0  0  0  0  0  0  0  0  0  0
    0.1146   -4.4784   -0.1124 H   0  0  0  0  0  0  0  0  0  0  0  0
   -0.6903   -2.6133    1.2034 H   0  0  0  0  0  0  0  0  0  0  0  0
    0.1052   -1.9926   -0.2548 H   0  0  0  0  0  0  0  0  0  0  0  0
   -1.0243    0.1500   -0.2404 H   0  0  0  0  0  0  0  0  0  0  0  0
   -1.9710   -0.5590    1.3259 H   0  0  0  0  0  0  0  0  0  0  0  0
   -2.9586   -0.1550   -0.0987 H   0  0  0  0  0  0  0  0  0  0  0  0
    1.1814    0.0110   -0.9697 C   0  0  0  0  0  0  0  0  0  0  0  0
   -0.0400    0.8817   -0.7070 C   0  0  0  0  0  0  0  0  0  0  0  0
    0.0710    1.6948    0.5665 C   0  0  0  0  0  0  0  0  0  0  0  0
    1.1455    2.5934    0.4531 O   0  0  0  0  0  0  0  0  0  0  0  0
    1.3466    3.3683    1.6075 C   0  0  0  0  0  0  0  0  0  0  0  0
    2.5193    4.2937    1.3795 C   0  0  0  0  0  0  0  0  0  0  0  0
    1.3390   -0.6962   -0.1516 H   0  0  0  0  0  0  0  0  0  0  0  0
    1.0639   -0.5629   -1.8901 H   0  0  0  0  0  0  0  0  0  0  0  0
    2.0790    0.6226   -1.0614 H   0  0  0  0  0  0  0  0  0  0  0  0
   -0.1994    1.5670   -1.5436 H   0  0  0  0  0  0  0  0  0  0  0  0
    0.2299    1.0274    1.4283 H   0  0  0  0  0  0  0  0  0  0  0  0
   -0.8625    2.2473    0.7487 H   0  0  0  0  0  0  0  0  0  0  0  0
    1.5361    2.7129    2.4704 H   0  0  0  0  0  0  0  0  0  0  0  0
    0.4387    3.9469    1.8339 H   0  0  0  0  0  0  0  0  0  0  0  0
    2.3265    4.9533    0.5327 H   0  0  0  0  0  0  0  0  0  0  0  0
    2.6944    4.9073    2.2645 H   0  0  0  0  0  0  0  0  0  0  0  0
    3.4233    3.7206    1.1703 H   0  0  0  0  0  0  0  0  0  0  0  0
  1  2  1  0
  1  6  1  0
  1  7  1  0
  1  8  1  0
  2  3  1  0
  2  9  1  0
  2 10  1  0
  3  4  1  0
  3 11  1  0
  3 12  1  0
  4  5  1  0
  5 14  1  0
  5 15  1  0
 13 17  1  0
 16 17  1  0
 16 22  1  0
 16 23  1  0
 16 24  1  0
 17 18  1  0
 17 25  1  0
 18 19  1  0
 18 26  1  0
 18 27  1  0
 19 20  1  0
 20 21  1  0
 20 28  1  0
 20 29  1  0
 21 30  1  0
 21 31  1  0
 21 32  1  0
M  RAD  1   5   2
M  END
>  <reaction>  (13) 
rmg_rxn_659

>  <mol_properties>  (13) 
{"3": {"label": "*0", "atom_type": "O2s"}, "4": {"label": "*1", "atom_type": "Cs"}, "12": {"label": "*2", "atom_type": "H0"}, "16": {"label": "*3", "atom_type": "Cs"}, "17": {"label": "*4", "atom_type": "Cs"}}

>  <type>  (13) 
unop_9

>  <geom_source>  (13) 
Heuristics

$$$$

     RDKit          3D

 32 30  0  0  0  0  0  0  0  0999 V2000
   -1.0893   -3.8537   -1.4120 C   0  0  0  0  0  0  0  0  0  0  0  0
   -1.0893   -3.8537    0.1109 C   0  0  0  0  0  0  0  0  0  0  0  0
   -1.0893   -2.4611    0.7070 C   0  0  0  0  0  0  0  0  0  0  0  0
   -2.2743   -1.7977    0.3428 O   0  0  0  0  0  0  0  0  0  0  0  0
   -2.3351   -0.4866    0.8280 C   0  0  0  0  0  3  0  0  0  0  0  0
   -0.2069   -3.3401   -1.8017 H   0  0  0  0  0  0  0  0  0  0  0  0
   -1.9717   -3.3438   -1.7984 H   0  0  0  0  0  0  0  0  0  0  0  0
   -1.0844   -4.8717   -1.8043 H   0  0  0  0  0  0  0  0  0  0  0  0
   -1.9634   -4.3919    0.4866 H   0  0  0  0  0  0  0  0  0  0  0  0
   -0.2075   -4.3799    0.4872 H   0  0  0  0  0  0  0  0  0  0  0  0
   -1.0124   -2.5148    1.8030 H   0  0  0  0  0  0  0  0  0  0  0  0
   -0.2169   -1.8941    0.3448 H   0  0  0  0  0  0  0  0  0  0  0  0
   -1.3464    0.2485    0.3592 H   0  0  0  0  0  0  0  0  0  0  0  0
   -2.2931   -0.4605    1.9255 H   0  0  0  0  0  0  0  0  0  0  0  0
   -3.2808   -0.0565    0.5009 H   0  0  0  0  0  0  0  0  0  0  0  0
   -0.4253    1.0351   -1.6280 C   0  0  0  0  0  0  0  0  0  0  0  0
   -0.3622    0.9803   -0.1074 C   0  0  0  0  0  0  0  0  0  0  0  0
    1.0410    1.1535    0.4370 C   0  0  0  0  0  0  0  0  0  0  0  0
    1.5189    2.4301    0.0951 O   0  0  0  0  0  0  0  0  0  0  0  0
    2.8333    2.6669    0.5307 C   0  0  0  0  0  0  0  0  0  0  0  0
    3.2458    4.0591    0.1123 C   0  0  0  0  0  0  0  0  0  0  0  0
    0.1894    0.2482   -2.0722 H   0  0  0  0  0  0  0  0  0  0  0  0
   -1.4480    0.9016   -1.9836 H   0  0  0  0  0  0  0  0  0  0  0  0
   -0.0590    1.9938   -1.9953 H   0  0  0  0  0  0  0  0  0  0  0  0
   -0.9998    1.7568    0.3229 H   0  0  0  0  0  0  0  0  0  0  0  0
    1.7060    0.3804    0.0205 H   0  0  0  0  0  0  0  0  0  0  0  0
    1.0434    1.0324    1.5302 H   0  0  0  0  0  0  0  0  0  0  0  0
    3.5124    1.9180    0.0970 H   0  0  0  0  0  0  0  0  0  0  0  0
    2.8909    2.5612    1.6242 H   0  0  0  0  0  0  0  0  0  0  0  0
    2.5813    4.8032    0.5530 H   0  0  0  0  0  0  0  0  0  0  0  0
    4.2654    4.2662    0.4410 H   0  0  0  0  0  0  0  0  0  0  0  0
    3.2039    4.1602   -0.9728 H   0  0  0  0  0  0  0  0  0  0  0  0
  1  2  1  0
  1  6  1  0
  1  7  1  0
  1  8  1  0
  2  3  1  0
  2  9  1  0
  2 10  1  0
  3  4  1  0
  3 11  1  0
  3 12  1  0
  4  5  1  0
  5 14  1  0
  5 15  1  0
 13 17  1  0
 16 17  1  0
 16 22  1  0
 16 23  1  0
 16 24  1  0
 17 18  1  0
 17 25  1  0
 18 19  1  0
 18 26  1  0
 18 27  1  0
 19 20  1  0
 20 21  1  0
 20 28  1  0
 20 29  1  0
 21 30  1  0
 21 31  1  0
 21 32  1  0
M  RAD  1   5   2
M  END
>  <reaction>  (14) 
rmg_rxn_659

>  <mol_properties>  (14) 
{"3": {"label": "*0", "atom_type": "O2s"}, "4": {"label": "*1", "atom_type": "Cs"}, "12": {"label": "*2", "atom_type": "H0"}, "16": {"label": "*3", "atom_type": "Cs"}, "17": {"label": "*4", "atom_type": "Cs"}}

>  <type>  (14) 
unop_10

>  <geom_source>  (14) 
Heuristics

$$$$

     RDKit          3D

 32 30  0  0  0  0  0  0  0  0999 V2000
    0.1215   -4.0172   -0.6682 C   0  0  0  0  0  0  0  0  0  0  0  0
    0.1215   -4.0172    0.8547 C   0  0  0  0  0  0  0  0  0  0  0  0
    0.1215   -2.6247    1.4508 C   0  0  0  0  0  0  0  0  0  0  0  0
   -1.0636   -1.9612    1.0866 O   0  0  0  0  0  0  0  0  0  0  0  0
   -1.1243   -0.6501    1.5718 C   0  0  0  0  0  3  0  0  0  0  0  0
    1.0039   -3.5036   -1.0579 H   0  0  0  0  0  0  0  0  0  0  0  0
   -0.7610   -3.5073   -1.0546 H   0  0  0  0  0  0  0  0  0  0  0  0
    0.1264   -5.0352   -1.0605 H   0  0  0  0  0  0  0  0  0  0  0  0
   -0.7526   -4.5554    1.2304 H   0  0  0  0  0  0  0  0  0  0  0  0
    1.0032   -4.5434    1.2310 H   0  0  0  0  0  0  0  0  0  0  0  0
    0.1983   -2.6784    2.5468 H   0  0  0  0  0  0  0  0  0  0  0  0
    0.9939   -2.0576    1.0886 H   0  0  0  0  0  0  0  0  0  0  0  0
   -0.1357    0.0850    1.1030 H   0  0  0  0  0  0  0  0  0  0  0  0
   -1.0823   -0.6240    2.6693 H   0  0  0  0  0  0  0  0  0  0  0  0
   -2.0700   -0.2200    1.2447 H   0  0  0  0  0  0  0  0  0  0  0  0
    1.2224    1.8960    1.6437 C   0  0  0  0  0  0  0  0  0  0  0  0
    0.8486    0.8167    0.6364 C   0  0  0  0  0  0  0  0  0  0  0  0
   -0.1715    1.2812   -0.3830 C   0  0  0  0  0  0  0  0  0  0  0  0
    0.3768    2.3244   -1.1485 O   0  0  0  0  0  0  0  0  0  0  0  0
   -0.5158    2.8439   -2.1008 C   0  0  0  0  0  0  0  0  0  0  0  0
    0.1706    3.9537   -2.8629 C   0  0  0  0  0  0  0  0  0  0  0  0
    0.3435    2.2306    2.2004 H   0  0  0  0  0  0  0  0  0  0  0  0
    1.9533    1.5249    2.3637 H   0  0  0  0  0  0  0  0  0  0  0  0
    1.6499    2.7629    1.1399 H   0  0  0  0  0  0  0  0  0  0  0  0
    1.7401    0.4749    0.1044 H   0  0  0  0  0  0  0  0  0  0  0  0
   -1.0836    1.6298    0.1269 H   0  0  0  0  0  0  0  0  0  0  0  0
   -0.4620    0.4473   -1.0388 H   0  0  0  0  0  0  0  0  0  0  0  0
   -1.4190    3.2228   -1.6002 H   0  0  0  0  0  0  0  0  0  0  0  0
   -0.8368    2.0471   -2.7880 H   0  0  0  0  0  0  0  0  0  0  0  0
    1.0587    3.5759   -3.3709 H   0  0  0  0  0  0  0  0  0  0  0  0
   -0.5047    4.3729   -3.6104 H   0  0  0  0  0  0  0  0  0  0  0  0
    0.4755    4.7514   -2.1846 H   0  0  0  0  0  0  0  0  0  0  0  0
  1  2  1  0
  1  6  1  0
  1  7  1  0
  1  8  1  0
  2  3  1  0
  2  9  1  0
  2 10  1  0
  3  4  1  0
  3 11  1  0
  3 12  1  0
  4  5  1  0
  5 14  1  0
  5 15  1  0
 13 17  1  0
 16 17  1  0
 16 22  1  0
 16 23  1  0
 16 24  1  0
 17 18  1  0
 17 25  1  0
 18 19  1  0
 18 26  1  0
 18 27  1  0
 19 20  1  0
 20 21  1  0
 20 28  1  0
 20 29  1  0
 21 30  1  0
 21 31  1  0
 21 32  1  0
M  RAD  1   5   2
M  END
>  <reaction>  (15) 
rmg_rxn_659

>  <mol_properties>  (15) 
{"3": {"label": "*0", "atom_type": "O2s"}, "4": {"label": "*1", "atom_type": "Cs"}, "12": {"label": "*2", "atom_type": "H0"}, "16": {"label": "*3", "atom_type": "Cs"}, "17": {"label": "*4", "atom_type": "Cs"}}

>  <type>  (15) 
unop_11

>  <geom_source>  (15) 
Heuristics

$$$$

     RDKit          3D

 32 30  0  0  0  0  0  0  0  0999 V2000
   -1.0377   -3.8271   -1.7603 C   0  0  0  0  0  0  0  0  0  0  0  0
   -1.0377   -3.8271   -0.2374 C   0  0  0  0  0  0  0  0  0  0  0  0
   -1.0377   -2.4345    0.3587 C   0  0  0  0  0  0  0  0  0  0  0  0
   -2.2228   -1.7711   -0.0055 O   0  0  0  0  0  0  0  0  0  0  0  0
   -2.2836   -0.4600    0.4797 C   0  0  0  0  0  3  0  0  0  0  0  0
   -0.1553   -3.3134   -2.1500 H   0  0  0  0  0  0  0  0  0  0  0  0
   -1.9202   -3.3172   -2.1467 H   0  0  0  0  0  0  0  0  0  0  0  0
   -1.0328   -4.8451   -2.1526 H   0  0  0  0  0  0  0  0  0  0  0  0
   -1.9118   -4.3652    0.1382 H   0  0  0  0  0  0  0  0  0  0  0  0
   -0.1560   -4.3532    0.1389 H   0  0  0  0  0  0  0  0  0  0  0  0
   -0.9609   -2.4882    1.4547 H   0  0  0  0  0  0  0  0  0  0  0  0
   -0.1654   -1.8675   -0.0035 H   0  0  0  0  0  0  0  0  0  0  0  0
   -1.2949    0.2751    0.0109 H   0  0  0  0  0  0  0  0  0  0  0  0
   -2.2416   -0.4338    1.5772 H   0  0  0  0  0  0  0  0  0  0  0  0
   -3.2292   -0.0298    0.1526 H   0  0  0  0  0  0  0  0  0  0  0  0
    0.5718    0.1733   -1.3754 C   0  0  0  0  0  0  0  0  0  0  0  0
   -0.3106    1.0069   -0.4557 C   0  0  0  0  0  0  0  0  0  0  0  0
    0.4401    1.5859    0.7259 C   0  0  0  0  0  0  0  0  0  0  0  0
    1.4274    2.4717    0.2617 O   0  0  0  0  0  0  0  0  0  0  0  0
    2.2007    3.0321    1.2920 C   0  0  0  0  0  0  0  0  0  0  0  0
    3.2259    3.9623    0.6860 C   0  0  0  0  0  0  0  0  0  0  0  0
    1.0139   -0.6671   -0.8345 H   0  0  0  0  0  0  0  0  0  0  0  0
   -0.0025   -0.2310   -2.2102 H   0  0  0  0  0  0  0  0  0  0  0  0
    1.3847    0.7757   -1.7807 H   0  0  0  0  0  0  0  0  0  0  0  0
   -0.7647    1.8289   -1.0151 H   0  0  0  0  0  0  0  0  0  0  0  0
    0.9069    0.7772    1.3102 H   0  0  0  0  0  0  0  0  0  0  0  0
   -0.2534    2.1150    1.3961 H   0  0  0  0  0  0  0  0  0  0  0  0
    2.6963    2.2345    1.8648 H   0  0  0  0  0  0  0  0  0  0  0  0
    1.5523    3.5788    1.9928 H   0  0  0  0  0  0  0  0  0  0  0  0
    2.7351    4.7614    0.1293 H   0  0  0  0  0  0  0  0  0  0  0  0
    3.8392    4.4108    1.4691 H   0  0  0  0  0  0  0  0  0  0  0  0
    3.8791    3.4182    0.0029 H   0  0  0  0  0  0  0  0  0  0  0  0
  1  2  1  0
  1  6  1  0
  1  7  1  0
  1  8  1  0
  2  3  1  0
  2  9  1  0
  2 10  1  0
  3  4  1  0
  3 11  1  0
  3 12  1  0
  4  5  1  0
  5 14  1  0
  5 15  1  0
 13 17  1  0
 16 17  1  0
 16 22  1  0
 16 23  1  0
 16 24  1  0
 17 18  1  0
 17 25  1  0
 18 19  1  0
 18 26  1  0
 18 27  1  0
 19 20  1  0
 20 21  1  0
 20 28  1  0
 20 29  1  0
 21 30  1  0
 21 31  1  0
 21 32  1  0
M  RAD  1   5   2
M  END
>  <reaction>  (16) 
rmg_rxn_659

>  <mol_properties>  (16) 
{"3": {"label": "*0", "atom_type": "O2s"}, "4": {"label": "*1", "atom_type": "Cs"}, "12": {"label": "*2", "atom_type": "H0"}, "16": {"label": "*3", "atom_type": "Cs"}, "17": {"label": "*4", "atom_type": "Cs"}}

>  <type>  (16) 
unop_12

>  <geom_source>  (16) 
Heuristics

$$$$

     RDKit          3D

 32 30  0  0  0  0  0  0  0  0999 V2000
   -3.3446   -0.2093   -0.2920 O   0  0  0  0  0  0  0  0  0  0  0  0
    2.1237   -0.5397    0.4192 O   0  0  0  0  0  0  0  0  0  0  0  0
   -1.0913   -0.9594   -0.6813 C   0  0  0  0  0  0  0  0  0  0  0  0
    4.2678    0.5738    0.1412 C   0  0  0  0  0  0  0  0  0  0  0  0
   -2.0137   -0.0857    0.1677 C   0  0  0  0  0  0  0  0  0  0  0  0
    3.5006   -0.7538    0.1671 C   0  0  0  0  0  0  0  0  0  0  0  0
   -4.1939    0.6887    0.3972 C   0  0  0  0  0  0  0  0  0  0  0  0
   -1.4068   -2.4445   -0.5234 C   0  0  0  0  0  0  0  0  0  0  0  0
    4.1688    1.3167    1.4719 C   0  0  0  0  0  0  0  0  0  0  0  0
   -4.4030    1.9545   -0.4262 C   0  0  0  0  0  0  0  0  0  0  0  0
    1.4093   -0.4779   -0.7947 C   0  0  0  0  0  3  0  0  0  0  0  0
   -1.1866   -0.6721   -1.7510 H   0  0  0  0  0  0  0  0  0  0  0  0
    0.1581   -0.7497   -0.3069 H   0  0  0  0  0  0  0  0  0  0  0  0
    3.8774    1.2219   -0.6720 H   0  0  0  0  0  0  0  0  0  0  0  0
    5.3383    0.3659   -0.0738 H   0  0  0  0  0  0  0  0  0  0  0  0
   -1.9350   -0.4049    1.2318 H   0  0  0  0  0  0  0  0  0  0  0  0
   -1.6594    0.9660    0.0790 H   0  0  0  0  0  0  0  0  0  0  0  0
   -5.1800    0.1950    0.5282 H   0  0  0  0  0  0  0  0  0  0  0  0
   -3.8356    0.9546    1.4202 H   0  0  0  0  0  0  0  0  0  0  0  0
    3.9075   -1.3839    0.9867 H   0  0  0  0  0  0  0  0  0  0  0  0
    3.6969   -1.3182   -0.7759 H   0  0  0  0  0  0  0  0  0  0  0  0
   -2.4400   -2.6624   -0.8677 H   0  0  0  0  0  0  0  0  0  0  0  0
   -0.6964   -3.0385   -1.1354 H   0  0  0  0  0  0  0  0  0  0  0  0
   -1.2997   -2.7494    0.5391 H   0  0  0  0  0  0  0  0  0  0  0  0
   -5.1302    2.6187    0.0868 H   0  0  0  0  0  0  0  0  0  0  0  0
   -4.8004    1.6936   -1.4299 H   0  0  0  0  0  0  0  0  0  0  0  0
   -3.4441    2.5008   -0.5452 H   0  0  0  0  0  0  0  0  0  0  0  0
    4.7658    2.2515    1.4198 H   0  0  0  0  0  0  0  0  0  0  0  0
    3.1132    1.5846    1.6898 H   0  0  0  0  0  0  0  0  0  0  0  0
    4.5664    0.6874    2.2964 H   0  0  0  0  0  0  0  0  0  0  0  0
    1.3942   -1.4630   -1.3107 H   0  0  0  0  0  0  0  0  0  0  0  0
    1.7727    0.3387   -1.4563 H   0  0  0  0  0  0  0  0  0  0  0  0
  1  7  1  0
  1  5  1  0
  2 11  1  0
  2  6  1  0
  3  8  1  0
  3  5  1  0
  3 12  1  0
  3 13  1  0
  4  9  1  0
  4  6  1  0
  4 14  1  0
  4 15  1  0
  5 16  1  0
  5 17  1  0
  6 20  1  0
  6 21  1  0
  7 10  1  0
  7 18  1  0
  7 19  1  0
  8 22  1  0
  8 23  1  0
  8 24  1  0
  9 28  1  0
  9 29  1  0
  9 30  1  0
 10 25  1  0
 10 26  1  0
 10 27  1  0
 11 31  1  0
 11 32  1  0
M  RAD  1  11   2
M  END
>  <reaction>  (17) 
rmg_rxn_659

>  <mol_properties>  (17) 
{"3": {"label": "*0", "atom_type": "O2s"}, "4": {"label": "*1", "atom_type": "Cs"}, "12": {"label": "*2", "atom_type": "H0"}, "16": {"label": "*3", "atom_type": "Cs"}, "17": {"label": "*4", "atom_type": "Cs"}}

>  <type>  (17) 
unop_13

>  <geom_source>  (17) 
AutoTST

$$$$

     RDKit          3D

 32 30  0  0  0  0  0  0  0  0999 V2000
   -1.1015   -3.8263   -1.5055 C   0  0  0  0  0  0  0  0  0  0  0  0
   -1.1015   -3.8263    0.0174 C   0  0  0  0  0  0  0  0  0  0  0  0
   -1.1015   -2.4337    0.6135 C   0  0  0  0  0  0  0  0  0  0  0  0
   -2.2865   -1.7703    0.2493 O   0  0  0  0  0  0  0  0  0  0  0  0
   -2.3473   -0.4592    0.7345 C   0  0  0  0  0  3  0  0  0  0  0  0
   -0.2191   -3.3127   -1.8952 H   0  0  0  0  0  0  0  0  0  0  0  0
   -1.9839   -3.3164   -1.8919 H   0  0  0  0  0  0  0  0  0  0  0  0
   -1.0965   -4.8443   -1.8978 H   0  0  0  0  0  0  0  0  0  0  0  0
   -1.9756   -4.3645    0.3930 H   0  0  0  0  0  0  0  0  0  0  0  0
   -0.2197   -4.3525    0.3936 H   0  0  0  0  0  0  0  0  0  0  0  0
   -1.0246   -2.4874    1.7095 H   0  0  0  0  0  0  0  0  0  0  0  0
   -0.2291   -1.8667    0.2512 H   0  0  0  0  0  0  0  0  0  0  0  0
   -1.3586    0.2759    0.2657 H   0  0  0  0  0  0  0  0  0  0  0  0
   -2.3053   -0.4331    1.8319 H   0  0  0  0  0  0  0  0  0  0  0  0
   -3.2930   -0.0290    0.4073 H   0  0  0  0  0  0  0  0  0  0  0  0
    0.0378    0.5129   -1.5810 C   0  0  0  0  0  0  0  0  0  0  0  0
   -0.3744    1.0077   -0.2010 C   0  0  0  0  0  0  0  0  0  0  0  0
    0.8044    1.3816    0.6742 C   0  0  0  0  0  0  0  0  0  0  0  0
    1.4959    2.4564    0.0898 O   0  0  0  0  0  0  0  0  0  0  0  0
    2.6308    2.8496    0.8185 C   0  0  0  0  0  0  0  0  0  0  0  0
    3.2961    4.0041    0.1057 C   0  0  0  0  0  0  0  0  0  0  0  0
    0.6725   -0.3735   -1.5036 H   0  0  0  0  0  0  0  0  0  0  0  0
   -0.8347    0.2483   -2.1801 H   0  0  0  0  0  0  0  0  0  0  0  0
    0.5981    1.2804   -2.1149 H   0  0  0  0  0  0  0  0  0  0  0  0
   -1.0276    1.8791   -0.2944 H   0  0  0  0  0  0  0  0  0  0  0  0
    1.4796    0.5187    0.7876 H   0  0  0  0  0  0  0  0  0  0  0  0
    0.4588    1.6606    1.6805 H   0  0  0  0  0  0  0  0  0  0  0  0
    3.3272    2.0033    0.9129 H   0  0  0  0  0  0  0  0  0  0  0  0
    2.3390    3.1437    1.8376 H   0  0  0  0  0  0  0  0  0  0  0  0
    2.6109    4.8486    0.0239 H   0  0  0  0  0  0  0  0  0  0  0  0
    4.1817    4.3276    0.6549 H   0  0  0  0  0  0  0  0  0  0  0  0
    3.5998    3.7088   -0.8992 H   0  0  0  0  0  0  0  0  0  0  0  0
  1  2  1  0
  1  6  1  0
  1  7  1  0
  1  8  1  0
  2  3  1  0
  2  9  1  0
  2 10  1  0
  3  4  1  0
  3 11  1  0
  3 12  1  0
  4  5  1  0
  5 14  1  0
  5 15  1  0
 13 17  1  0
 16 17  1  0
 16 22  1  0
 16 23  1  0
 16 24  1  0
 17 18  1  0
 17 25  1  0
 18 19  1  0
 18 26  1  0
 18 27  1  0
 19 20  1  0
 20 21  1  0
 20 28  1  0
 20 29  1  0
 21 30  1  0
 21 31  1  0
 21 32  1  0
M  RAD  1   5   2
M  END
>  <reaction>  (18) 
rmg_rxn_659

>  <mol_properties>  (18) 
{"3": {"label": "*0", "atom_type": "O2s"}, "4": {"label": "*1", "atom_type": "Cs"}, "12": {"label": "*2", "atom_type": "H0"}, "16": {"label": "*3", "atom_type": "Cs"}, "17": {"label": "*4", "atom_type": "Cs"}}

>  <type>  (18) 
unop_14

>  <geom_source>  (18) 
gaussian_log

$$$$
