
     RDKit          3D

 10  9  0  0  0  0  0  0  0  0999 V2000
    2.0861   -0.0291   -0.2114 C   0  0  0  0  0  0  0  0  0  0  0  0
    0.8590   -0.0801    0.2151 C   0  0  0  0  0  0  0  0  0  0  0  0
   -0.3701   -0.1299    0.6360 C   0  0  0  0  0  0  0  0  0  0  0  0
   -1.5792    0.1084   -0.2228 C   0  0  0  0  0  0  0  0  0  0  0  0
    2.6495    0.8968   -0.1902 H   0  0  0  0  0  0  0  0  0  0  0  0
    2.5830   -0.9114   -0.5982 H   0  0  0  0  0  0  0  0  0  0  0  0
   -0.5397   -0.3602    1.6844 H   0  0  0  0  0  0  0  0  0  0  0  0
   -2.2286   -0.7700   -0.2248 H   0  0  0  0  0  0  0  0  0  0  0  0
   -1.2946    0.3298   -1.2505 H   0  0  0  0  0  0  0  0  0  0  0  0
   -2.1655    0.9457    0.1623 H   0  0  0  0  0  0  0  0  0  0  0  0
  1  2  2  0
  1  5  1  0
  1  6  1  0
  2  3  2  0
  3  4  1  0
  3  7  1  0
  4  8  1  0
  4  9  1  0
  4 10  1  0
M  END
>  <reaction>  (1) 
rmg_rxn_15506

>  <mol_properties>  (1) 
{"3": {"label": "donator", "atom_type": "Cs"}, "7": {"label": "d_hydrogen", "atom_type": "H0"}}

>  <type>  (1) 
r1h

$$$$

     RDKit          3D

  5  4  0  0  0  0  0  0  0  0999 V2000
    0.8934    0.3742    0.4948 O   0  0  0  0  0  0  0  0  0  0  0  0
    0.1582   -0.1610   -0.5904 N   0  0  0  0  0  0  0  0  0  0  0  0
   -1.0297   -0.3739   -0.4689 C   0  0  0  0  0  3  0  0  0  0  0  0
    1.7804    0.4382    0.1306 H   0  0  0  0  0  0  0  0  0  0  0  0
   -1.8023   -0.2775    0.2859 H   0  0  0  0  0  0  0  0  0  0  0  0
  1  2  1  0
  1  4  1  0
  2  3  2  3
  3  5  1  0
M  RAD  1   3   2
M  END
>  <reaction>  (2) 
rmg_rxn_15506

>  <mol_properties>  (2) 
{"2": {"label": "acceptor", "atom_type": "Cd"}}

>  <type>  (2) 
r2

$$$$

     RDKit          3D

  6  5  0  0  0  0  0  0  0  0999 V2000
    1.2314    0.0428    0.5088 O   0  0  0  0  0  0  0  0  0  0  0  0
    0.2987    0.2341   -0.4915 N   0  0  0  0  0  0  0  0  0  0  0  0
   -0.8599   -0.1122   -0.1290 C   0  0  0  0  0  0  0  0  0  0  0  0
    2.0507    0.3401    0.1082 H   0  0  0  0  0  0  0  0  0  0  0  0
   -1.0700   -0.5112    0.8610 H   0  0  0  0  0  0  0  0  0  0  0  0
   -1.6509    0.0064   -0.8574 H   0  0  0  0  0  0  0  0  0  0  0  0
  1  2  1  0
  1  4  1  0
  2  3  2  3
  3  5  1  0
  3  6  1  0
M  END
>  <reaction>  (3) 
rmg_rxn_15506

>  <mol_properties>  (3) 
{"2": {"label": "acceptor", "atom_type": "Cd"}, "5": {"label": "a_hydrogen", "atom_type": "H0"}}

>  <type>  (3) 
r2h

$$$$

     RDKit          3D

 15 13  0  0  0  0  0  0  0  0999 V2000
   -1.0081   -2.4220    1.9537 O   0  0  0  0  0  0  0  0  0  0  0  0
   -0.4745   -1.2814    1.3371 N   0  0  0  0  0  0  0  0  0  0  0  0
   -1.1546   -0.2536    1.4672 C   0  0  0  0  0  3  0  0  0  0  0  0
   -0.3607   -3.0984    1.7412 H   0  0  0  0  0  0  0  0  0  0  0  0
   -2.1005   -0.1169    1.9901 H   0  0  0  0  0  0  0  0  0  0  0  0
    0.8973    0.7269   -3.2236 C   0  0  0  0  0  0  0  0  0  0  0  0
    1.0021    0.9332   -1.9460 C   0  0  0  0  0  0  0  0  0  0  0  0
    1.1053    1.1510   -0.6618 C   0  0  0  0  0  0  0  0  0  0  0  0
    0.0605    1.7877    0.1582 C   0  0  0  0  0  0  0  0  0  0  0  0
    1.2561    1.4546   -3.9429 H   0  0  0  0  0  0  0  0  0  0  0  0
    0.4491   -0.1824   -3.6088 H   0  0  0  0  0  0  0  0  0  0  0  0
    2.0001    0.8006   -0.1562 H   0  0  0  0  0  0  0  0  0  0  0  0
   -0.5339    0.8908    0.7783 H   0  0  0  0  0  0  0  0  0  0  0  0
   -0.7166    2.2851   -0.4181 H   0  0  0  0  0  0  0  0  0  0  0  0
    0.4484    2.4242    0.9522 H   0  0  0  0  0  0  0  0  0  0  0  0
  1  2  1  0
  1  4  1  0
  2  3  2  3
  3  5  1  0
  6  7  2  0
  6 10  1  0
  6 11  1  0
  7  8  2  0
  8  9  1  0
  8 12  1  0
  9 13  1  0
  9 14  1  0
  9 15  1  0
M  RAD  1   3   2
M  END
>  <reaction>  (4) 
rmg_rxn_15506

>  <mol_properties>  (4) 
{"1": {"label": "*4", "atom_type": "N3d"}, "2": {"label": "*3", "atom_type": "Cd"}, "7": {"label": "*0", "atom_type": "Cd"}, "8": {"label": "*1", "atom_type": "Cs"}, "12": {"label": "*2", "atom_type": "H0"}}

>  <type>  (4) 
ts

$$$$

     RDKit          3D

 15 13  0  0  0  0  0  0  0  0999 V2000
    3.6690    0.5049    0.0884 O   0  0  0  0  0  0  0  0  0  0  0  0
    2.4723   -0.2176   -0.0772 N   0  0  0  0  0  0  0  0  0  0  0  0
    1.3889    0.3852   -0.0271 C   0  0  0  0  0  0  0  0  0  0  0  0
    4.3648   -0.1621    0.0104 H   0  0  0  0  0  0  0  0  0  0  0  0
    1.2103    1.4424    0.1350 H   0  0  0  0  0  0  0  0  0  0  0  0
   -3.6082    0.9853   -0.1836 C   0  0  0  0  0  0  0  0  0  0  0  0
   -2.6803    0.1532    0.1516 C   0  0  0  0  0  3  0  0  0  0  0  0
   -1.7515   -0.7245    0.4829 C   0  0  0  0  0  0  0  0  0  0  0  0
   -0.7020   -1.1682   -0.3860 C   0  0  0  0  0  0  0  0  0  0  0  0
   -4.5588    0.6600   -0.5818 H   0  0  0  0  0  0  0  0  0  0  0  0
   -3.4866    2.0539   -0.0778 H   0  0  0  0  0  0  0  0  0  0  0  0
   -1.7369   -1.0854    1.5054 H   0  0  0  0  0  0  0  0  0  0  0  0
    0.3670   -0.3594   -0.1865 H   0  0  0  0  0  0  0  0  0  0  0  0
   -0.8722   -1.0204   -1.4450 H   0  0  0  0  0  0  0  0  0  0  0  0
   -0.2587   -2.1238   -0.1417 H   0  0  0  0  0  0  0  0  0  0  0  0
  1  2  1  0
  1  4  1  0
  2  3  2  3
  3  5  1  0
  3 13  1  0
  6  7  2  3
  6 10  1  0
  6 11  1  0
  7  8  1  0
  8  9  2  3
  8 12  1  0
  9 14  1  0
  9 15  1  0
M  RAD  1   7   2
M  END
>  <reaction>  (5) 
rmg_rxn_15506

>  <mol_properties>  (5) 
{"1": {"label": "*4", "atom_type": "N3d"}, "2": {"label": "*3", "atom_type": "Cd"}, "7": {"label": "*0", "atom_type": "Cd"}, "8": {"label": "*1", "atom_type": "Cs"}, "12": {"label": "*2", "atom_type": "H0"}}

>  <type>  (5) 
unop_1

>  <geom_source>  (5) 
crest_best.xyz

$$$$

     RDKit          3D

 15 13  0  0  0  0  0  0  0  0999 V2000
   -1.8890   -0.9444    3.1051 O   0  0  0  0  0  0  0  0  0  0  0  0
   -0.7205   -0.6009    2.4541 N   0  0  0  0  0  0  0  0  0  0  0  0
   -0.7966   -0.8017    1.2102 C   0  0  0  0  0  0  0  0  0  0  0  0
   -1.6978   -0.7460    4.0239 H   0  0  0  0  0  0  0  0  0  0  0  0
   -1.6901   -1.1996    0.7338 H   0  0  0  0  0  0  0  0  0  0  0  0
    1.2934    0.4982   -3.7911 C   0  0  0  0  0  0  0  0  0  0  0  0
    1.2934    0.4982   -2.4909 C   0  0  0  0  0  3  0  0  0  0  0  0
    1.2934    0.4982   -1.1909 C   0  0  0  0  0  0  0  0  0  0  0  0
    0.1911    1.0540   -0.3350 C   0  0  0  0  0  0  0  0  0  0  0  0
    1.7122    1.3256   -4.3523 H   0  0  0  0  0  0  0  0  0  0  0  0
    0.8770   -0.3305   -4.3523 H   0  0  0  0  0  0  0  0  0  0  0  0
    2.1468    0.0579   -0.6823 H   0  0  0  0  0  0  0  0  0  0  0  0
   -0.3051    0.1217    0.4413 H   0  0  0  0  0  0  0  0  0  0  0  0
   -0.6143    1.4602   -0.9453 H   0  0  0  0  0  0  0  0  0  0  0  0
    0.5701    1.8485    0.3119 H   0  0  0  0  0  0  0  0  0  0  0  0
  1  2  1  0
  1  4  1  0
  2  3  2  3
  3  5  1  0
  3 13  1  0
  6  7  2  3
  6 10  1  0
  6 11  1  0
  7  8  1  0
  8  9  2  3
  8 12  1  0
  9 14  1  0
  9 15  1  0
M  RAD  1   7   2
M  END
>  <reaction>  (6) 
rmg_rxn_15506

>  <mol_properties>  (6) 
{"1": {"label": "*4", "atom_type": "N3d"}, "2": {"label": "*3", "atom_type": "Cd"}, "7": {"label": "*0", "atom_type": "Cd"}, "8": {"label": "*1", "atom_type": "Cs"}, "12": {"label": "*2", "atom_type": "H0"}}

>  <type>  (6) 
unop_2

>  <geom_source>  (6) 
Heuristics

$$$$

     RDKit          3D

 15 13  0  0  0  0  0  0  0  0999 V2000
    3.6688   -0.5039   -0.0912 O   0  0  0  0  0  0  0  0  0  0  0  0
    2.4715    0.2183    0.0709 N   0  0  0  0  0  0  0  0  0  0  0  0
    1.3893   -0.3880    0.0402 C   0  0  0  0  0  0  0  0  0  0  0  0
    4.3634    0.1662   -0.0307 H   0  0  0  0  0  0  0  0  0  0  0  0
    1.2123   -1.4484   -0.1015 H   0  0  0  0  0  0  0  0  0  0  0  0
   -3.6101   -0.9832    0.1799 C   0  0  0  0  0  0  0  0  0  0  0  0
   -2.6802   -0.1525   -0.1532 C   0  0  0  0  0  3  0  0  0  0  0  0
   -1.7490    0.7232   -0.4832 C   0  0  0  0  0  0  0  0  0  0  0  0
   -0.7020    1.1674    0.3884 C   0  0  0  0  0  0  0  0  0  0  0  0
   -4.5617   -0.6562    0.5743 H   0  0  0  0  0  0  0  0  0  0  0  0
   -3.4892   -2.0521    0.0761 H   0  0  0  0  0  0  0  0  0  0  0  0
   -1.7306    1.0823   -1.5063 H   0  0  0  0  0  0  0  0  0  0  0  0
    0.3670    0.3572    0.1940 H   0  0  0  0  0  0  0  0  0  0  0  0
   -0.8759    1.0218    1.4471 H   0  0  0  0  0  0  0  0  0  0  0  0
   -0.2567    2.1220    0.1437 H   0  0  0  0  0  0  0  0  0  0  0  0
  1  2  1  0
  1  4  1  0
  2  3  2  3
  3  5  1  0
  3 13  1  0
  6  7  2  3
  6 10  1  0
  6 11  1  0
  7  8  1  0
  8  9  2  3
  8 12  1  0
  9 14  1  0
  9 15  1  0
M  RAD  1   7   2
M  END
>  <reaction>  (7) 
rmg_rxn_15506

>  <mol_properties>  (7) 
{"1": {"label": "*4", "atom_type": "N3d"}, "2": {"label": "*3", "atom_type": "Cd"}, "7": {"label": "*0", "atom_type": "Cd"}, "8": {"label": "*1", "atom_type": "Cs"}, "12": {"label": "*2", "atom_type": "H0"}}

>  <type>  (7) 
unop_3

>  <geom_source>  (7) 
Heuristics

$$$$

     RDKit          3D

 15 13  0  0  0  0  0  0  0  0999 V2000
   -0.8311   -1.9941    2.8653 O   0  0  0  0  0  0  0  0  0  0  0  0
   -0.3576   -1.3030    1.7675 N   0  0  0  0  0  0  0  0  0  0  0  0
   -1.1473   -0.3851    1.4109 C   0  0  0  0  0  0  0  0  0  0  0  0
   -0.1488   -2.6486    3.0269 H   0  0  0  0  0  0  0  0  0  0  0  0
   -2.0843   -0.1843    1.9262 H   0  0  0  0  0  0  0  0  0  0  0  0
    0.9426    0.9148   -3.5904 C   0  0  0  0  0  0  0  0  0  0  0  0
    0.9426    0.9148   -2.2902 C   0  0  0  0  0  3  0  0  0  0  0  0
    0.9426    0.9148   -0.9902 C   0  0  0  0  0  0  0  0  0  0  0  0
   -0.1596    1.4707   -0.1344 C   0  0  0  0  0  0  0  0  0  0  0  0
    1.3615    1.7423   -4.1516 H   0  0  0  0  0  0  0  0  0  0  0  0
    0.5263    0.0861   -4.1516 H   0  0  0  0  0  0  0  0  0  0  0  0
    1.7961    0.4745   -0.4816 H   0  0  0  0  0  0  0  0  0  0  0  0
   -0.6559    0.5383    0.6420 H   0  0  0  0  0  0  0  0  0  0  0  0
   -0.9651    1.8769   -0.7446 H   0  0  0  0  0  0  0  0  0  0  0  0
    0.2193    2.2651    0.5126 H   0  0  0  0  0  0  0  0  0  0  0  0
  1  2  1  0
  1  4  1  0
  2  3  2  3
  3  5  1  0
  3 13  1  0
  6  7  2  3
  6 10  1  0
  6 11  1  0
  7  8  1  0
  8  9  2  3
  8 12  1  0
  9 14  1  0
  9 15  1  0
M  RAD  1   7   2
M  END
>  <reaction>  (8) 
rmg_rxn_15506

>  <mol_properties>  (8) 
{"1": {"label": "*4", "atom_type": "N3d"}, "2": {"label": "*3", "atom_type": "Cd"}, "7": {"label": "*0", "atom_type": "Cd"}, "8": {"label": "*1", "atom_type": "Cs"}, "12": {"label": "*2", "atom_type": "H0"}}

>  <type>  (8) 
unop_4

>  <geom_source>  (8) 
Heuristics

$$$$

     RDKit          3D

 15 13  0  0  0  0  0  0  0  0999 V2000
    3.6689   -0.5041    0.0901 O   0  0  0  0  0  0  0  0  0  0  0  0
    2.4718    0.2181   -0.0731 N   0  0  0  0  0  0  0  0  0  0  0  0
    1.3892   -0.3872   -0.0354 C   0  0  0  0  0  0  0  0  0  0  0  0
    4.3640    0.1650    0.0234 H   0  0  0  0  0  0  0  0  0  0  0  0
    1.2118   -1.4466    0.1129 H   0  0  0  0  0  0  0  0  0  0  0  0
   -3.6097   -0.9837   -0.1812 C   0  0  0  0  0  0  0  0  0  0  0  0
   -2.6805   -0.1525    0.1525 C   0  0  0  0  0  3  0  0  0  0  0  0
   -1.7497    0.7233    0.4832 C   0  0  0  0  0  0  0  0  0  0  0  0
   -0.7019    1.1676   -0.3875 C   0  0  0  0  0  0  0  0  0  0  0  0
   -3.4884   -2.0525   -0.0772 H   0  0  0  0  0  0  0  0  0  0  0  0
   -4.5614   -0.6572   -0.5761 H   0  0  0  0  0  0  0  0  0  0  0  0
   -1.7325    1.0829    1.5061 H   0  0  0  0  0  0  0  0  0  0  0  0
    0.3670    0.3575   -0.1919 H   0  0  0  0  0  0  0  0  0  0  0  0
   -0.2571    2.1223   -0.1427 H   0  0  0  0  0  0  0  0  0  0  0  0
   -0.8747    1.0215   -1.4464 H   0  0  0  0  0  0  0  0  0  0  0  0
  1  2  1  0
  1  4  1  0
  2  3  2  3
  3  5  1  0
  3 13  1  0
  6  7  2  3
  6 10  1  0
  6 11  1  0
  7  8  1  0
  8  9  2  3
  8 12  1  0
  9 14  1  0
  9 15  1  0
M  RAD  1   7   2
M  END
>  <reaction>  (9) 
rmg_rxn_15506

>  <mol_properties>  (9) 
{"1": {"label": "*4", "atom_type": "N3d"}, "2": {"label": "*3", "atom_type": "Cd"}, "7": {"label": "*0", "atom_type": "Cd"}, "8": {"label": "*1", "atom_type": "Cs"}, "12": {"label": "*2", "atom_type": "H0"}}

>  <type>  (9) 
unop_5

>  <geom_source>  (9) 
Heuristics

$$$$

     RDKit          3D

 15 13  0  0  0  0  0  0  0  0999 V2000
   -2.1795   -1.1752    2.8094 O   0  0  0  0  0  0  0  0  0  0  0  0
   -1.1073   -0.4027    2.4083 N   0  0  0  0  0  0  0  0  0  0  0  0
   -0.6427   -0.7808    1.2971 C   0  0  0  0  0  0  0  0  0  0  0  0
   -2.4301   -0.7876    3.6502 H   0  0  0  0  0  0  0  0  0  0  0  0
   -1.0578   -1.6197    0.7425 H   0  0  0  0  0  0  0  0  0  0  0  0
    1.4473    0.5191   -3.7042 C   0  0  0  0  0  0  0  0  0  0  0  0
    1.4473    0.5191   -2.4040 C   0  0  0  0  0  3  0  0  0  0  0  0
    1.4473    0.5191   -1.1040 C   0  0  0  0  0  0  0  0  0  0  0  0
    0.3450    1.0750   -0.2481 C   0  0  0  0  0  0  0  0  0  0  0  0
    1.8661    1.3466   -4.2654 H   0  0  0  0  0  0  0  0  0  0  0  0
    1.0309   -0.3096   -4.2654 H   0  0  0  0  0  0  0  0  0  0  0  0
    2.3007    0.0788   -0.5954 H   0  0  0  0  0  0  0  0  0  0  0  0
   -0.1512    0.1426    0.5282 H   0  0  0  0  0  0  0  0  0  0  0  0
   -0.4604    1.4811   -0.8584 H   0  0  0  0  0  0  0  0  0  0  0  0
    0.7240    1.8694    0.3988 H   0  0  0  0  0  0  0  0  0  0  0  0
  1  2  1  0
  1  4  1  0
  2  3  2  3
  3  5  1  0
  3 13  1  0
  6  7  2  3
  6 10  1  0
  6 11  1  0
  7  8  1  0
  8  9  2  3
  8 12  1  0
  9 14  1  0
  9 15  1  0
M  RAD  1   7   2
M  END
>  <reaction>  (10) 
rmg_rxn_15506

>  <mol_properties>  (10) 
{"1": {"label": "*4", "atom_type": "N3d"}, "2": {"label": "*3", "atom_type": "Cd"}, "7": {"label": "*0", "atom_type": "Cd"}, "8": {"label": "*1", "atom_type": "Cs"}, "12": {"label": "*2", "atom_type": "H0"}}

>  <type>  (10) 
unop_6

>  <geom_source>  (10) 
Heuristics

$$$$

     RDKit          3D

 15 13  0  0  0  0  0  0  0  0999 V2000
   -2.1904   -1.9225    1.9177 O   0  0  0  0  0  0  0  0  0  0  0  0
   -1.1377   -1.3910    1.1992 N   0  0  0  0  0  0  0  0  0  0  0  0
   -0.6337   -0.3863    1.7738 C   0  0  0  0  0  0  0  0  0  0  0  0
   -2.4746   -2.6639    1.3795 H   0  0  0  0  0  0  0  0  0  0  0  0
   -1.0052   -0.0057    2.7229 H   0  0  0  0  0  0  0  0  0  0  0  0
    1.4562    0.9136   -3.2275 C   0  0  0  0  0  0  0  0  0  0  0  0
    1.4562    0.9136   -1.9273 C   0  0  0  0  0  3  0  0  0  0  0  0
    1.4562    0.9136   -0.6272 C   0  0  0  0  0  0  0  0  0  0  0  0
    0.3540    1.4695    0.2286 C   0  0  0  0  0  0  0  0  0  0  0  0
    1.8751    1.7411   -3.7887 H   0  0  0  0  0  0  0  0  0  0  0  0
    1.0399    0.0849   -3.7887 H   0  0  0  0  0  0  0  0  0  0  0  0
    2.3097    0.4733   -0.1186 H   0  0  0  0  0  0  0  0  0  0  0  0
   -0.1423    0.5371    1.0050 H   0  0  0  0  0  0  0  0  0  0  0  0
   -0.4514    1.8757   -0.3817 H   0  0  0  0  0  0  0  0  0  0  0  0
    0.7329    2.2639    0.8756 H   0  0  0  0  0  0  0  0  0  0  0  0
  1  2  1  0
  1  4  1  0
  2  3  2  3
  3  5  1  0
  3 13  1  0
  6  7  2  3
  6 10  1  0
  6 11  1  0
  7  8  1  0
  8  9  2  3
  8 12  1  0
  9 14  1  0
  9 15  1  0
M  RAD  1   7   2
M  END
>  <reaction>  (11) 
rmg_rxn_15506

>  <mol_properties>  (11) 
{"1": {"label": "*4", "atom_type": "N3d"}, "2": {"label": "*3", "atom_type": "Cd"}, "7": {"label": "*0", "atom_type": "Cd"}, "8": {"label": "*1", "atom_type": "Cs"}, "12": {"label": "*2", "atom_type": "H0"}}

>  <type>  (11) 
unop_7

>  <geom_source>  (11) 
Heuristics

$$$$

     RDKit          3D

 15 13  0  0  0  0  0  0  0  0999 V2000
    3.6693    0.5052    0.0868 O   0  0  0  0  0  0  0  0  0  0  0  0
    2.4727   -0.2169   -0.0810 N   0  0  0  0  0  0  0  0  0  0  0  0
    1.3888    0.3838   -0.0192 C   0  0  0  0  0  0  0  0  0  0  0  0
    4.3656   -0.1600   -0.0019 H   0  0  0  0  0  0  0  0  0  0  0  0
    1.2096    1.4390    0.1551 H   0  0  0  0  0  0  0  0  0  0  0  0
   -3.6074    0.9864   -0.1858 C   0  0  0  0  0  0  0  0  0  0  0  0
   -2.6808    0.1532    0.1503 C   0  0  0  0  0  3  0  0  0  0  0  0
   -1.7528   -0.7249    0.4828 C   0  0  0  0  0  0  0  0  0  0  0  0
   -0.7019   -1.1685   -0.3845 C   0  0  0  0  0  0  0  0  0  0  0  0
   -4.5576    0.6622   -0.5860 H   0  0  0  0  0  0  0  0  0  0  0  0
   -3.4851    2.0549   -0.0788 H   0  0  0  0  0  0  0  0  0  0  0  0
   -1.7404   -1.0868    1.5050 H   0  0  0  0  0  0  0  0  0  0  0  0
    0.3671   -0.3603   -0.1821 H   0  0  0  0  0  0  0  0  0  0  0  0
   -0.8698   -1.0197   -1.4437 H   0  0  0  0  0  0  0  0  0  0  0  0
   -0.2595   -2.1245   -0.1400 H   0  0  0  0  0  0  0  0  0  0  0  0
  1  2  1  0
  1  4  1  0
  2  3  2  3
  3  5  1  0
  3 13  1  0
  6  7  2  3
  6 10  1  0
  6 11  1  0
  7  8  1  0
  8  9  2  3
  8 12  1  0
  9 14  1  0
  9 15  1  0
M  RAD  1   7   2
M  END
>  <reaction>  (12) 
rmg_rxn_15506

>  <mol_properties>  (12) 
{"1": {"label": "*4", "atom_type": "N3d"}, "2": {"label": "*3", "atom_type": "Cd"}, "7": {"label": "*0", "atom_type": "Cd"}, "8": {"label": "*1", "atom_type": "Cs"}, "12": {"label": "*2", "atom_type": "H0"}}

>  <type>  (12) 
unop_8

>  <geom_source>  (12) 
Heuristics

$$$$

     RDKit          3D

 15 13  0  0  0  0  0  0  0  0999 V2000
   -1.9922   -1.4270    2.8809 O   0  0  0  0  0  0  0  0  0  0  0  0
   -1.5428   -0.3740    2.1087 N   0  0  0  0  0  0  0  0  0  0  0  0
   -0.6046   -0.7204    1.3384 C   0  0  0  0  0  0  0  0  0  0  0  0
   -2.6898   -1.0334    3.4086 H   0  0  0  0  0  0  0  0  0  0  0  0
   -0.2157   -1.7359    1.3073 H   0  0  0  0  0  0  0  0  0  0  0  0
    1.4854    0.5795   -3.6629 C   0  0  0  0  0  0  0  0  0  0  0  0
    1.4854    0.5795   -2.3627 C   0  0  0  0  0  3  0  0  0  0  0  0
    1.4854    0.5795   -1.0627 C   0  0  0  0  0  0  0  0  0  0  0  0
    0.3831    1.1354   -0.2069 C   0  0  0  0  0  0  0  0  0  0  0  0
    1.9042    1.4070   -4.2241 H   0  0  0  0  0  0  0  0  0  0  0  0
    1.0690   -0.2492   -4.2241 H   0  0  0  0  0  0  0  0  0  0  0  0
    2.3388    0.1392   -0.5541 H   0  0  0  0  0  0  0  0  0  0  0  0
   -0.1131    0.2030    0.5695 H   0  0  0  0  0  0  0  0  0  0  0  0
   -0.4223    1.5416   -0.8171 H   0  0  0  0  0  0  0  0  0  0  0  0
    0.7621    1.9299    0.4401 H   0  0  0  0  0  0  0  0  0  0  0  0
  1  2  1  0
  1  4  1  0
  2  3  2  3
  3  5  1  0
  3 13  1  0
  6  7  2  3
  6 10  1  0
  6 11  1  0
  7  8  1  0
  8  9  2  3
  8 12  1  0
  9 14  1  0
  9 15  1  0
M  RAD  1   7   2
M  END
>  <reaction>  (13) 
rmg_rxn_15506

>  <mol_properties>  (13) 
{"1": {"label": "*4", "atom_type": "N3d"}, "2": {"label": "*3", "atom_type": "Cd"}, "7": {"label": "*0", "atom_type": "Cd"}, "8": {"label": "*1", "atom_type": "Cs"}, "12": {"label": "*2", "atom_type": "H0"}}

>  <type>  (13) 
unop_9

>  <geom_source>  (13) 
Heuristics

$$$$

     RDKit          3D

 15 13  0  0  0  0  0  0  0  0999 V2000
    3.6700    0.5061    0.0838 O   0  0  0  0  0  0  0  0  0  0  0  0
    2.4738   -0.2161   -0.0869 N   0  0  0  0  0  0  0  0  0  0  0  0
    1.3890    0.3808   -0.0062 C   0  0  0  0  0  0  0  0  0  0  0  0
    4.3672   -0.1557   -0.0219 H   0  0  0  0  0  0  0  0  0  0  0  0
    1.2086    1.4324    0.1876 H   0  0  0  0  0  0  0  0  0  0  0  0
   -3.6069    0.9878   -0.1891 C   0  0  0  0  0  0  0  0  0  0  0  0
   -2.6814    0.1539    0.1480 C   0  0  0  0  0  3  0  0  0  0  0  0
   -1.7553   -0.7255    0.4823 C   0  0  0  0  0  0  0  0  0  0  0  0
   -0.7017   -1.1690   -0.3819 C   0  0  0  0  0  0  0  0  0  0  0  0
   -4.5559    0.6642   -0.5926 H   0  0  0  0  0  0  0  0  0  0  0  0
   -3.4848    2.0560   -0.0803 H   0  0  0  0  0  0  0  0  0  0  0  0
   -1.7467   -1.0886    1.5041 H   0  0  0  0  0  0  0  0  0  0  0  0
    0.3675   -0.3626   -0.1740 H   0  0  0  0  0  0  0  0  0  0  0  0
   -0.8657   -1.0180   -1.4414 H   0  0  0  0  0  0  0  0  0  0  0  0
   -0.2617   -2.1261   -0.1377 H   0  0  0  0  0  0  0  0  0  0  0  0
  1  2  1  0
  1  4  1  0
  2  3  2  3
  3  5  1  0
  3 13  1  0
  6  7  2  3
  6 10  1  0
  6 11  1  0
  7  8  1  0
  8  9  2  3
  8 12  1  0
  9 14  1  0
  9 15  1  0
M  RAD  1   7   2
M  END
>  <reaction>  (14) 
rmg_rxn_15506

>  <mol_properties>  (14) 
{"1": {"label": "*4", "atom_type": "N3d"}, "2": {"label": "*3", "atom_type": "Cd"}, "7": {"label": "*0", "atom_type": "Cd"}, "8": {"label": "*1", "atom_type": "Cs"}, "12": {"label": "*2", "atom_type": "H0"}}

>  <type>  (14) 
unop_10

>  <geom_source>  (14) 
Heuristics

$$$$

     RDKit          3D

 15 13  0  0  0  0  0  0  0  0999 V2000
   -2.4394   -1.4468    2.1868 O   0  0  0  0  0  0  0  0  0  0  0  0
   -1.4689   -1.2129    1.2327 N   0  0  0  0  0  0  0  0  0  0  0  0
   -0.5019   -0.5470    1.6964 C   0  0  0  0  0  0  0  0  0  0  0  0
   -3.1018   -1.9514    1.7107 H   0  0  0  0  0  0  0  0  0  0  0  0
   -0.4639   -0.2100    2.7301 H   0  0  0  0  0  0  0  0  0  0  0  0
    1.5881    0.7529   -3.3049 C   0  0  0  0  0  0  0  0  0  0  0  0
    1.5881    0.7529   -2.0047 C   0  0  0  0  0  3  0  0  0  0  0  0
    1.5881    0.7529   -0.7047 C   0  0  0  0  0  0  0  0  0  0  0  0
    0.4858    1.3088    0.1511 C   0  0  0  0  0  0  0  0  0  0  0  0
    2.0069    1.5804   -3.8661 H   0  0  0  0  0  0  0  0  0  0  0  0
    1.1717   -0.0758   -3.8661 H   0  0  0  0  0  0  0  0  0  0  0  0
    2.4415    0.3126   -0.1961 H   0  0  0  0  0  0  0  0  0  0  0  0
   -0.0104    0.3764    0.9275 H   0  0  0  0  0  0  0  0  0  0  0  0
   -0.3196    1.7150   -0.4591 H   0  0  0  0  0  0  0  0  0  0  0  0
    0.8648    2.1032    0.7981 H   0  0  0  0  0  0  0  0  0  0  0  0
  1  2  1  0
  1  4  1  0
  2  3  2  3
  3  5  1  0
  3 13  1  0
  6  7  2  3
  6 10  1  0
  6 11  1  0
  7  8  1  0
  8  9  2  3
  8 12  1  0
  9 14  1  0
  9 15  1  0
M  RAD  1   7   2
M  END
>  <reaction>  (15) 
rmg_rxn_15506

>  <mol_properties>  (15) 
{"1": {"label": "*4", "atom_type": "N3d"}, "2": {"label": "*3", "atom_type": "Cd"}, "7": {"label": "*0", "atom_type": "Cd"}, "8": {"label": "*1", "atom_type": "Cs"}, "12": {"label": "*2", "atom_type": "H0"}}

>  <type>  (15) 
unop_11

>  <geom_source>  (15) 
Heuristics

$$$$

     RDKit          3D

 15 13  0  0  0  0  0  0  0  0999 V2000
    3.6696   -0.5052   -0.0849 O   0  0  0  0  0  0  0  0  0  0  0  0
    2.4729    0.2161    0.0854 N   0  0  0  0  0  0  0  0  0  0  0  0
    1.3886   -0.3826    0.0099 C   0  0  0  0  0  0  0  0  0  0  0  0
    4.3661    0.1581    0.0163 H   0  0  0  0  0  0  0  0  0  0  0  0
    1.2091   -1.4351   -0.1788 H   0  0  0  0  0  0  0  0  0  0  0  0
   -3.6060   -0.9878    0.1882 C   0  0  0  0  0  0  0  0  0  0  0  0
   -2.6814   -0.1530   -0.1491 C   0  0  0  0  0  3  0  0  0  0  0  0
   -1.7546    0.7260   -0.4824 C   0  0  0  0  0  0  0  0  0  0  0  0
   -0.7016    1.1684    0.3830 C   0  0  0  0  0  0  0  0  0  0  0  0
   -4.5553   -0.6653    0.5917 H   0  0  0  0  0  0  0  0  0  0  0  0
   -3.4830   -2.0559    0.0788 H   0  0  0  0  0  0  0  0  0  0  0  0
   -1.7449    1.0899   -1.5039 H   0  0  0  0  0  0  0  0  0  0  0  0
    0.3670    0.3609    0.1765 H   0  0  0  0  0  0  0  0  0  0  0  0
   -0.8669    1.0176    1.4424 H   0  0  0  0  0  0  0  0  0  0  0  0
   -0.2602    2.1251    0.1394 H   0  0  0  0  0  0  0  0  0  0  0  0
  1  2  1  0
  1  4  1  0
  2  3  2  3
  3  5  1  0
  3 13  1  0
  6  7  2  3
  6 10  1  0
  6 11  1  0
  7  8  1  0
  8  9  2  3
  8 12  1  0
  9 14  1  0
  9 15  1  0
M  RAD  1   7   2
M  END
>  <reaction>  (16) 
rmg_rxn_15506

>  <mol_properties>  (16) 
{"1": {"label": "*4", "atom_type": "N3d"}, "2": {"label": "*3", "atom_type": "Cd"}, "7": {"label": "*0", "atom_type": "Cd"}, "8": {"label": "*1", "atom_type": "Cs"}, "12": {"label": "*2", "atom_type": "H0"}}

>  <type>  (16) 
unop_12

>  <geom_source>  (16) 
Heuristics

$$$$

     RDKit          3D

 15 13  0  0  0  0  0  0  0  0999 V2000
   -2.3431   -1.1036    2.6236 O   0  0  0  0  0  0  0  0  0  0  0  0
   -1.7076   -0.9469    1.4076 N   0  0  0  0  0  0  0  0  0  0  0  0
   -0.4794   -0.6905    1.5466 C   0  0  0  0  0  0  0  0  0  0  0  0
   -3.2510   -1.2905    2.3771 H   0  0  0  0  0  0  0  0  0  0  0  0
   -0.0039   -0.6084    2.5216 H   0  0  0  0  0  0  0  0  0  0  0  0
    1.6106    0.6094   -3.4548 C   0  0  0  0  0  0  0  0  0  0  0  0
    1.6106    0.6094   -2.1546 C   0  0  0  0  0  3  0  0  0  0  0  0
    1.6106    0.6094   -0.8545 C   0  0  0  0  0  0  0  0  0  0  0  0
    0.5084    1.1653    0.0013 C   0  0  0  0  0  0  0  0  0  0  0  0
    2.0294    1.4369   -4.0160 H   0  0  0  0  0  0  0  0  0  0  0  0
    1.1942   -0.2193   -4.0160 H   0  0  0  0  0  0  0  0  0  0  0  0
    2.4641    0.1691   -0.3459 H   0  0  0  0  0  0  0  0  0  0  0  0
    0.0121    0.2329    0.7777 H   0  0  0  0  0  0  0  0  0  0  0  0
   -0.2971    1.5714   -0.6089 H   0  0  0  0  0  0  0  0  0  0  0  0
    0.8873    1.9597    0.6483 H   0  0  0  0  0  0  0  0  0  0  0  0
  1  2  1  0
  1  4  1  0
  2  3  2  3
  3  5  1  0
  3 13  1  0
  6  7  2  3
  6 10  1  0
  6 11  1  0
  7  8  1  0
  8  9  2  3
  8 12  1  0
  9 14  1  0
  9 15  1  0
M  RAD  1   7   2
M  END
>  <reaction>  (17) 
rmg_rxn_15506

>  <mol_properties>  (17) 
{"1": {"label": "*4", "atom_type": "N3d"}, "2": {"label": "*3", "atom_type": "Cd"}, "7": {"label": "*0", "atom_type": "Cd"}, "8": {"label": "*1", "atom_type": "Cs"}, "12": {"label": "*2", "atom_type": "H0"}}

>  <type>  (17) 
unop_13

>  <geom_source>  (17) 
Heuristics

$$$$

     RDKit          3D

 15 13  0  0  0  0  0  0  0  0999 V2000
    3.6687    0.5037   -0.0920 O   0  0  0  0  0  0  0  0  0  0  0  0
    2.4713   -0.2185    0.0695 N   0  0  0  0  0  0  0  0  0  0  0  0
    1.3894    0.3886    0.0434 C   0  0  0  0  0  0  0  0  0  0  0  0
    4.3630   -0.1671   -0.0356 H   0  0  0  0  0  0  0  0  0  0  0  0
    1.2128    1.4497   -0.0934 H   0  0  0  0  0  0  0  0  0  0  0  0
   -3.6103    0.9829    0.1790 C   0  0  0  0  0  0  0  0  0  0  0  0
   -2.6805    0.1519   -0.1537 C   0  0  0  0  0  3  0  0  0  0  0  0
   -1.7484   -0.7228   -0.4833 C   0  0  0  0  0  0  0  0  0  0  0  0
   -0.7020   -1.1672    0.3890 C   0  0  0  0  0  0  0  0  0  0  0  0
   -3.4887    2.0518    0.0758 H   0  0  0  0  0  0  0  0  0  0  0  0
   -4.5625    0.6563    0.5723 H   0  0  0  0  0  0  0  0  0  0  0  0
   -1.7285   -1.0811   -1.5067 H   0  0  0  0  0  0  0  0  0  0  0  0
    0.3669   -0.3566    0.1962 H   0  0  0  0  0  0  0  0  0  0  0  0
   -0.2560   -2.1214    0.1441 H   0  0  0  0  0  0  0  0  0  0  0  0
   -0.8770   -1.0224    1.4477 H   0  0  0  0  0  0  0  0  0  0  0  0
  1  2  1  0
  1  4  1  0
  2  3  2  3
  3  5  1  0
  3 13  1  0
  6  7  2  3
  6 10  1  0
  6 11  1  0
  7  8  1  0
  8  9  2  3
  8 12  1  0
  9 14  1  0
  9 15  1  0
M  RAD  1   7   2
M  END
>  <reaction>  (18) 
rmg_rxn_15506

>  <mol_properties>  (18) 
{"1": {"label": "*4", "atom_type": "N3d"}, "2": {"label": "*3", "atom_type": "Cd"}, "7": {"label": "*0", "atom_type": "Cd"}, "8": {"label": "*1", "atom_type": "Cs"}, "12": {"label": "*2", "atom_type": "H0"}}

>  <type>  (18) 
unop_14

>  <geom_source>  (18) 
Heuristics

$$$$

     RDKit          3D

 15 13  0  0  0  0  0  0  0  0999 V2000
   -1.3803   -1.0755    3.3098 O   0  0  0  0  0  0  0  0  0  0  0  0
   -0.4462   -0.8544    2.3170 N   0  0  0  0  0  0  0  0  0  0  0  0
   -0.9853   -0.7165    1.1839 C   0  0  0  0  0  0  0  0  0  0  0  0
   -0.8463   -1.1607    4.1020 H   0  0  0  0  0  0  0  0  0  0  0  0
   -2.0618   -0.7702    1.0360 H   0  0  0  0  0  0  0  0  0  0  0  0
    1.1047    0.5834   -3.8174 C   0  0  0  0  0  0  0  0  0  0  0  0
    1.1047    0.5834   -2.5172 C   0  0  0  0  0  3  0  0  0  0  0  0
    1.1047    0.5834   -1.2171 C   0  0  0  0  0  0  0  0  0  0  0  0
    0.0025    1.1393   -0.3613 C   0  0  0  0  0  0  0  0  0  0  0  0
    1.5235    1.4109   -4.3786 H   0  0  0  0  0  0  0  0  0  0  0  0
    0.6883   -0.2453   -4.3786 H   0  0  0  0  0  0  0  0  0  0  0  0
    1.9582    0.1431   -0.7086 H   0  0  0  0  0  0  0  0  0  0  0  0
   -0.4938    0.2069    0.4150 H   0  0  0  0  0  0  0  0  0  0  0  0
   -0.8030    1.5455   -0.9716 H   0  0  0  0  0  0  0  0  0  0  0  0
    0.3814    1.9338    0.2856 H   0  0  0  0  0  0  0  0  0  0  0  0
  1  2  1  0
  1  4  1  0
  2  3  2  3
  3  5  1  0
  3 13  1  0
  6  7  2  3
  6 10  1  0
  6 11  1  0
  7  8  1  0
  8  9  2  3
  8 12  1  0
  9 14  1  0
  9 15  1  0
M  RAD  1   7   2
M  END
>  <reaction>  (19) 
rmg_rxn_15506

>  <mol_properties>  (19) 
{"1": {"label": "*4", "atom_type": "N3d"}, "2": {"label": "*3", "atom_type": "Cd"}, "7": {"label": "*0", "atom_type": "Cd"}, "8": {"label": "*1", "atom_type": "Cs"}, "12": {"label": "*2", "atom_type": "H0"}}

>  <type>  (19) 
unop_15

>  <geom_source>  (19) 
Heuristics

$$$$

     RDKit          3D

 15 13  0  0  0  0  0  0  0  0999 V2000
    3.6690    0.5049    0.0884 O   0  0  0  0  0  0  0  0  0  0  0  0
    2.4723   -0.2176   -0.0772 N   0  0  0  0  0  0  0  0  0  0  0  0
    1.3889    0.3852   -0.0271 C   0  0  0  0  0  0  0  0  0  0  0  0
    4.3648   -0.1621    0.0104 H   0  0  0  0  0  0  0  0  0  0  0  0
    1.2103    1.4424    0.1350 H   0  0  0  0  0  0  0  0  0  0  0  0
   -3.6082    0.9853   -0.1836 C   0  0  0  0  0  0  0  0  0  0  0  0
   -2.6803    0.1532    0.1516 C   0  0  0  0  0  3  0  0  0  0  0  0
   -1.7515   -0.7245    0.4829 C   0  0  0  0  0  0  0  0  0  0  0  0
   -0.7020   -1.1682   -0.3860 C   0  0  0  0  0  0  0  0  0  0  0  0
   -4.5588    0.6600   -0.5818 H   0  0  0  0  0  0  0  0  0  0  0  0
   -3.4866    2.0539   -0.0778 H   0  0  0  0  0  0  0  0  0  0  0  0
   -1.7369   -1.0854    1.5054 H   0  0  0  0  0  0  0  0  0  0  0  0
    0.3670   -0.3594   -0.1865 H   0  0  0  0  0  0  0  0  0  0  0  0
   -0.8722   -1.0204   -1.4450 H   0  0  0  0  0  0  0  0  0  0  0  0
   -0.2587   -2.1238   -0.1417 H   0  0  0  0  0  0  0  0  0  0  0  0
  1  2  1  0
  1  4  1  0
  2  3  2  3
  3  5  1  0
  3 13  1  0
  6  7  2  3
  6 10  1  0
  6 11  1  0
  7  8  1  0
  8  9  2  3
  8 12  1  0
  9 14  1  0
  9 15  1  0
M  RAD  1   7   2
M  END
>  <reaction>  (20) 
rmg_rxn_15506

>  <mol_properties>  (20) 
{"1": {"label": "*4", "atom_type": "N3d"}, "2": {"label": "*3", "atom_type": "Cd"}, "7": {"label": "*0", "atom_type": "Cd"}, "8": {"label": "*1", "atom_type": "Cs"}, "12": {"label": "*2", "atom_type": "H0"}}

>  <type>  (20) 
unop_16

>  <geom_source>  (20) 
Heuristics

$$$$

     RDKit          3D

 15 13  0  0  0  0  0  0  0  0999 V2000
   -1.6729   -2.2893    1.9728 O   0  0  0  0  0  0  0  0  0  0  0  0
   -0.8006   -1.4583    1.2978 N   0  0  0  0  0  0  0  0  0  0  0  0
   -0.8373   -0.2764    1.7396 C   0  0  0  0  0  0  0  0  0  0  0  0
   -1.5462   -3.1385    1.5453 H   0  0  0  0  0  0  0  0  0  0  0  0
   -1.4892    0.0243    2.5571 H   0  0  0  0  0  0  0  0  0  0  0  0
    1.2527    1.0235   -3.2617 C   0  0  0  0  0  0  0  0  0  0  0  0
    1.2527    1.0235   -1.9615 C   0  0  0  0  0  3  0  0  0  0  0  0
    1.2527    1.0235   -0.6615 C   0  0  0  0  0  0  0  0  0  0  0  0
    0.1504    1.5793    0.1943 C   0  0  0  0  0  0  0  0  0  0  0  0
    1.6715    1.8510   -3.8229 H   0  0  0  0  0  0  0  0  0  0  0  0
    0.8363    0.1948   -3.8229 H   0  0  0  0  0  0  0  0  0  0  0  0
    2.1061    0.5832   -0.1529 H   0  0  0  0  0  0  0  0  0  0  0  0
   -0.3458    0.6470    0.9707 H   0  0  0  0  0  0  0  0  0  0  0  0
   -0.6550    1.9855   -0.4159 H   0  0  0  0  0  0  0  0  0  0  0  0
    0.5293    2.3738    0.8413 H   0  0  0  0  0  0  0  0  0  0  0  0
  1  2  1  0
  1  4  1  0
  2  3  2  3
  3  5  1  0
  3 13  1  0
  6  7  2  3
  6 10  1  0
  6 11  1  0
  7  8  1  0
  8  9  2  3
  8 12  1  0
  9 14  1  0
  9 15  1  0
M  RAD  1   7   2
M  END
>  <reaction>  (21) 
rmg_rxn_15506

>  <mol_properties>  (21) 
{"1": {"label": "*4", "atom_type": "N3d"}, "2": {"label": "*3", "atom_type": "Cd"}, "7": {"label": "*0", "atom_type": "Cd"}, "8": {"label": "*1", "atom_type": "Cs"}, "12": {"label": "*2", "atom_type": "H0"}}

>  <type>  (21) 
unop_17

>  <geom_source>  (21) 
Heuristics

$$$$

     RDKit          3D

 15 13  0  0  0  0  0  0  0  0999 V2000
   -0.9505   -1.4878    3.2323 O   0  0  0  0  0  0  0  0  0  0  0  0
   -0.3226   -1.1052    2.0634 N   0  0  0  0  0  0  0  0  0  0  0  0
   -1.1230   -0.5578    1.2551 C   0  0  0  0  0  0  0  0  0  0  0  0
   -0.2425   -1.8814    3.7460 H   0  0  0  0  0  0  0  0  0  0  0  0
   -2.1782   -0.4169    1.4792 H   0  0  0  0  0  0  0  0  0  0  0  0
    0.9670    0.7421   -3.7462 C   0  0  0  0  0  0  0  0  0  0  0  0
    0.9670    0.7421   -2.4460 C   0  0  0  0  0  3  0  0  0  0  0  0
    0.9670    0.7421   -1.1460 C   0  0  0  0  0  0  0  0  0  0  0  0
   -0.1352    1.2980   -0.2901 C   0  0  0  0  0  0  0  0  0  0  0  0
    1.3858    1.5696   -4.3074 H   0  0  0  0  0  0  0  0  0  0  0  0
    0.5506   -0.0866   -4.3074 H   0  0  0  0  0  0  0  0  0  0  0  0
    1.8204    0.3018   -0.6374 H   0  0  0  0  0  0  0  0  0  0  0  0
   -0.6315    0.3656    0.4862 H   0  0  0  0  0  0  0  0  0  0  0  0
   -0.9407    1.7041   -0.9004 H   0  0  0  0  0  0  0  0  0  0  0  0
    0.2437    2.0924    0.3568 H   0  0  0  0  0  0  0  0  0  0  0  0
  1  2  1  0
  1  4  1  0
  2  3  2  3
  3  5  1  0
  3 13  1  0
  6  7  2  3
  6 10  1  0
  6 11  1  0
  7  8  1  0
  8  9  2  3
  8 12  1  0
  9 14  1  0
  9 15  1  0
M  RAD  1   7   2
M  END
>  <reaction>  (22) 
rmg_rxn_15506

>  <mol_properties>  (22) 
{"1": {"label": "*4", "atom_type": "N3d"}, "2": {"label": "*3", "atom_type": "Cd"}, "7": {"label": "*0", "atom_type": "Cd"}, "8": {"label": "*1", "atom_type": "Cs"}, "12": {"label": "*2", "atom_type": "H0"}}

>  <type>  (22) 
unop_18

>  <geom_source>  (22) 
Heuristics

$$$$

     RDKit          3D

 15 13  0  0  0  0  0  0  0  0999 V2000
   -2.0240   -1.1207    2.9742 O   0  0  0  0  0  0  0  0  0  0  0  0
   -1.7686   -0.6346    1.7071 N   0  0  0  0  0  0  0  0  0  0  0  0
   -0.5510   -0.7487    1.3944 C   0  0  0  0  0  0  0  0  0  0  0  0
   -2.9660   -0.9755    3.0821 H   0  0  0  0  0  0  0  0  0  0  0  0
    0.1885   -1.1828    2.0639 H   0  0  0  0  0  0  0  0  0  0  0  0
    1.5390    0.5513   -3.6069 C   0  0  0  0  0  0  0  0  0  0  0  0
    1.5390    0.5513   -2.3068 C   0  0  0  0  0  3  0  0  0  0  0  0
    1.5390    0.5513   -1.0067 C   0  0  0  0  0  0  0  0  0  0  0  0
    0.4368    1.1071   -0.1509 C   0  0  0  0  0  0  0  0  0  0  0  0
    1.9578    1.3787   -4.1681 H   0  0  0  0  0  0  0  0  0  0  0  0
    1.1226   -0.2775   -4.1681 H   0  0  0  0  0  0  0  0  0  0  0  0
    2.3924    0.1109   -0.4981 H   0  0  0  0  0  0  0  0  0  0  0  0
   -0.0595    0.1747    0.6255 H   0  0  0  0  0  0  0  0  0  0  0  0
   -0.3687    1.5133   -0.7611 H   0  0  0  0  0  0  0  0  0  0  0  0
    0.8157    1.9016    0.4961 H   0  0  0  0  0  0  0  0  0  0  0  0
  1  2  1  0
  1  4  1  0
  2  3  2  3
  3  5  1  0
  3 13  1  0
  6  7  2  3
  6 10  1  0
  6 11  1  0
  7  8  1  0
  8  9  2  3
  8 12  1  0
  9 14  1  0
  9 15  1  0
M  RAD  1   7   2
M  END
>  <reaction>  (23) 
rmg_rxn_15506

>  <mol_properties>  (23) 
{"1": {"label": "*4", "atom_type": "N3d"}, "2": {"label": "*3", "atom_type": "Cd"}, "7": {"label": "*0", "atom_type": "Cd"}, "8": {"label": "*1", "atom_type": "Cs"}, "12": {"label": "*2", "atom_type": "H0"}}

>  <type>  (23) 
unop_19

>  <geom_source>  (23) 
Heuristics

$$$$

     RDKit          3D

 15 13  0  0  0  0  0  0  0  0999 V2000
   -1.1199   -2.3283    2.3561 O   0  0  0  0  0  0  0  0  0  0  0  0
   -0.5272   -1.4233    1.4978 N   0  0  0  0  0  0  0  0  0  0  0  0
   -1.0375   -0.2732    1.5988 C   0  0  0  0  0  0  0  0  0  0  0  0
   -0.6470   -3.1440    2.1798 H   0  0  0  0  0  0  0  0  0  0  0  0
   -1.8479   -0.0495    2.2892 H   0  0  0  0  0  0  0  0  0  0  0  0
    1.0525    1.0267   -3.4025 C   0  0  0  0  0  0  0  0  0  0  0  0
    1.0525    1.0267   -2.1024 C   0  0  0  0  0  3  0  0  0  0  0  0
    1.0525    1.0267   -0.8023 C   0  0  0  0  0  0  0  0  0  0  0  0
   -0.0497    1.5826    0.0535 C   0  0  0  0  0  0  0  0  0  0  0  0
    1.4713    1.8542   -3.9637 H   0  0  0  0  0  0  0  0  0  0  0  0
    0.6361    0.1980   -3.9637 H   0  0  0  0  0  0  0  0  0  0  0  0
    1.9060    0.5864   -0.2937 H   0  0  0  0  0  0  0  0  0  0  0  0
   -0.5460    0.6502    0.8299 H   0  0  0  0  0  0  0  0  0  0  0  0
   -0.8552    1.9888   -0.5567 H   0  0  0  0  0  0  0  0  0  0  0  0
    0.3292    2.3771    0.7005 H   0  0  0  0  0  0  0  0  0  0  0  0
  1  2  1  0
  1  4  1  0
  2  3  2  3
  3  5  1  0
  3 13  1  0
  6  7  2  3
  6 10  1  0
  6 11  1  0
  7  8  1  0
  8  9  2  3
  8 12  1  0
  9 14  1  0
  9 15  1  0
M  RAD  1   7   2
M  END
>  <reaction>  (24) 
rmg_rxn_15506

>  <mol_properties>  (24) 
{"1": {"label": "*4", "atom_type": "N3d"}, "2": {"label": "*3", "atom_type": "Cd"}, "7": {"label": "*0", "atom_type": "Cd"}, "8": {"label": "*1", "atom_type": "Cs"}, "12": {"label": "*2", "atom_type": "H0"}}

>  <type>  (24) 
unop_20

>  <geom_source>  (24) 
Heuristics

$$$$

     RDKit          3D

 15 13  0  0  0  0  0  0  0  0999 V2000
    3.4333    1.2466    0.5319 O   0  0  0  0  0  0  0  0  0  0  0  0
    2.1356    0.7809    0.5453 N   0  0  0  0  0  0  0  0  0  0  0  0
   -1.7625   -0.8950   -0.0150 C   0  0  0  0  0  0  0  0  0  0  0  0
   -0.5631   -1.1913   -0.8431 C   0  0  0  0  0  0  0  0  0  0  0  0
   -2.2593    1.5516    0.7308 C   0  0  0  0  0  0  0  0  0  0  0  0
    1.7613   -0.2149   -0.1919 C   0  0  0  0  0  0  0  0  0  0  0  0
   -2.0107    0.3285    0.3578 C   0  0  0  0  0  3  0  0  0  0  0  0
   -2.4302   -1.6939    0.2791 H   0  0  0  0  0  0  0  0  0  0  0  0
    0.0978   -1.9004   -0.3027 H   0  0  0  0  0  0  0  0  0  0  0  0
   -0.8774   -1.6395   -1.8084 H   0  0  0  0  0  0  0  0  0  0  0  0
    2.4630   -0.7159   -0.8467 H   0  0  0  0  0  0  0  0  0  0  0  0
    0.5945   -0.5998   -0.1508 H   0  0  0  0  0  0  0  0  0  0  0  0
   -3.1314    1.7666    1.3330 H   0  0  0  0  0  0  0  0  0  0  0  0
   -1.5935    2.3519    0.4380 H   0  0  0  0  0  0  0  0  0  0  0  0
    4.1426    0.8246   -0.0573 H   0  0  0  0  0  0  0  0  0  0  0  0
  1  2  1  0
  1 15  1  0
  2  6  2  3
  3  4  2  3
  3  7  1  0
  3  8  1  0
  4  9  1  0
  4 10  1  0
  5  7  2  3
  5 13  1  0
  5 14  1  0
  6 11  1  0
  6 12  1  0
M  RAD  1   7   2
M  END
>  <reaction>  (25) 
rmg_rxn_15506

>  <mol_properties>  (25) 
{"1": {"label": "*4", "atom_type": "N3d"}, "2": {"label": "*3", "atom_type": "Cd"}, "7": {"label": "*0", "atom_type": "Cd"}, "8": {"label": "*1", "atom_type": "Cs"}, "12": {"label": "*2", "atom_type": "H0"}}

>  <type>  (25) 
unop_21

>  <geom_source>  (25) 
AutoTST

$$$$

     RDKit          3D

 15 13  0  0  0  0  0  0  0  0999 V2000
   -0.8311   -1.9941    2.8653 O   0  0  0  0  0  0  0  0  0  0  0  0
   -0.3575   -1.3030    1.7675 N   0  0  0  0  0  0  0  0  0  0  0  0
   -1.1474   -0.3851    1.4109 C   0  0  0  0  0  0  0  0  0  0  0  0
   -0.1488   -2.6486    3.0269 H   0  0  0  0  0  0  0  0  0  0  0  0
   -2.0843   -0.1843    1.9262 H   0  0  0  0  0  0  0  0  0  0  0  0
    0.9426    0.9148   -3.5904 C   0  0  0  0  0  0  0  0  0  0  0  0
    0.9426    0.9148   -2.2902 C   0  0  0  0  0  3  0  0  0  0  0  0
    0.9426    0.9148   -0.9902 C   0  0  0  0  0  0  0  0  0  0  0  0
   -0.1596    1.4707   -0.1344 C   0  0  0  0  0  0  0  0  0  0  0  0
    1.3615    1.7423   -4.1516 H   0  0  0  0  0  0  0  0  0  0  0  0
    0.5262    0.0861   -4.1516 H   0  0  0  0  0  0  0  0  0  0  0  0
    1.7961    0.4745   -0.4816 H   0  0  0  0  0  0  0  0  0  0  0  0
   -0.6559    0.5383    0.6420 H   0  0  0  0  0  0  0  0  0  0  0  0
   -0.9651    1.8768   -0.7446 H   0  0  0  0  0  0  0  0  0  0  0  0
    0.2193    2.2651    0.5126 H   0  0  0  0  0  0  0  0  0  0  0  0
  1  2  1  0
  1  4  1  0
  2  3  2  3
  3  5  1  0
  3 13  1  0
  6  7  2  3
  6 10  1  0
  6 11  1  0
  7  8  1  0
  8  9  2  3
  8 12  1  0
  9 14  1  0
  9 15  1  0
M  RAD  1   7   2
M  END
>  <reaction>  (26) 
rmg_rxn_15506

>  <mol_properties>  (26) 
{"1": {"label": "*4", "atom_type": "N3d"}, "2": {"label": "*3", "atom_type": "Cd"}, "7": {"label": "*0", "atom_type": "Cd"}, "8": {"label": "*1", "atom_type": "Cs"}, "12": {"label": "*2", "atom_type": "H0"}}

>  <type>  (26) 
unop_22

>  <geom_source>  (26) 
gaussian_log

$$$$
