
     RDKit          3D

 10  9  0  0  0  0  0  0  0  0999 V2000
    2.0861   -0.0291   -0.2114 C   0  0  0  0  0  0  0  0  0  0  0  0
    0.8590   -0.0801    0.2151 C   0  0  0  0  0  0  0  0  0  0  0  0
   -0.3701   -0.1299    0.6360 C   0  0  0  0  0  0  0  0  0  0  0  0
   -1.5792    0.1084   -0.2228 C   0  0  0  0  0  0  0  0  0  0  0  0
    2.6495    0.8968   -0.1902 H   0  0  0  0  0  0  0  0  0  0  0  0
    2.5830   -0.9114   -0.5982 H   0  0  0  0  0  0  0  0  0  0  0  0
   -0.5397   -0.3602    1.6844 H   0  0  0  0  0  0  0  0  0  0  0  0
   -2.2286   -0.7700   -0.2248 H   0  0  0  0  0  0  0  0  0  0  0  0
   -1.2946    0.3298   -1.2505 H   0  0  0  0  0  0  0  0  0  0  0  0
   -2.1655    0.9457    0.1623 H   0  0  0  0  0  0  0  0  0  0  0  0
  1  2  2  0
  1  5  1  0
  1  6  1  0
  2  3  2  0
  3  4  1  0
  3  7  1  0
  4  8  1  0
  4  9  1  0
  4 10  1  0
M  END
>  <reaction>  (1) 
rmg_rxn_15691

>  <mol_properties>  (1) 
{"0": {"label": "donator", "atom_type": "Cd"}, "4": {"label": "d_hydrogen", "atom_type": "H0"}}

>  <type>  (1) 
r1h

$$$$

     RDKit          3D

  8  7  0  0  0  0  0  0  0  0999 V2000
    1.7077   -0.1964   -0.0607 C   0  0  0  0  0  3  0  0  0  0  0  0
    0.4209   -0.4565    0.2808 O   0  0  0  0  0  0  0  0  0  0  0  0
   -0.4607    0.4385   -0.2968 N   0  0  0  0  0  0  0  0  0  0  0  0
   -1.6584    0.1416   -0.0244 C   0  0  0  0  0  0  0  0  0  0  0  0
    2.4163   -0.7685    0.5170 H   0  0  0  0  0  0  0  0  0  0  0  0
    1.9214    0.7645   -0.5045 H   0  0  0  0  0  0  0  0  0  0  0  0
   -2.4185    0.7953   -0.4307 H   0  0  0  0  0  0  0  0  0  0  0  0
   -1.9286   -0.7185    0.5831 H   0  0  0  0  0  0  0  0  0  0  0  0
  1  2  1  0
  1  5  1  0
  1  6  1  0
  2  3  1  0
  3  4  2  3
  4  7  1  0
  4  8  1  0
M  RAD  1   1   2
M  END
>  <reaction>  (2) 
rmg_rxn_15691

>  <mol_properties>  (2) 
{"0": {"label": "acceptor", "atom_type": "Cs"}}

>  <type>  (2) 
r2

$$$$

     RDKit          3D

  9  8  0  0  0  0  0  0  0  0999 V2000
   -1.5470   -0.0755   -0.1976 C   0  0  0  0  0  0  0  0  0  0  0  0
   -0.2885    0.4507    0.1749 O   0  0  0  0  0  0  0  0  0  0  0  0
   -0.1502    1.7216   -0.3294 N   0  0  0  0  0  0  0  0  0  0  0  0
    0.9626    2.2353   -0.0219 C   0  0  0  0  0  0  0  0  0  0  0  0
   -1.6392   -0.1356   -1.2844 H   0  0  0  0  0  0  0  0  0  0  0  0
   -2.3597    0.5337    0.2044 H   0  0  0  0  0  0  0  0  0  0  0  0
   -1.5879   -1.0750    0.2318 H   0  0  0  0  0  0  0  0  0  0  0  0
    1.1497    3.2381   -0.3820 H   0  0  0  0  0  0  0  0  0  0  0  0
    1.7060    1.7101    0.5739 H   0  0  0  0  0  0  0  0  0  0  0  0
  1  2  1  0
  1  5  1  0
  1  6  1  0
  1  7  1  0
  2  3  1  0
  3  4  2  3
  4  8  1  0
  4  9  1  0
M  END
>  <reaction>  (3) 
rmg_rxn_15691

>  <mol_properties>  (3) 
{"0": {"label": "acceptor", "atom_type": "Cs"}, "8": {"label": "a_hydrogen", "atom_type": "H0"}}

>  <type>  (3) 
r2h

$$$$

     RDKit          3D

 18 16  0  0  0  0  0  0  0  0999 V2000
   -1.3344    1.7259   -0.5218 C   0  0  0  0  0  3  0  0  0  0  0  0
   -0.6433    1.3353    0.6052 O   0  0  0  0  0  0  0  0  0  0  0  0
   -1.1567    0.1580    1.1159 N   0  0  0  0  0  0  0  0  0  0  0  0
   -0.4158   -0.3116    2.0247 C   0  0  0  0  0  0  0  0  0  0  0  0
   -2.3991    1.5026   -0.4808 H   0  0  0  0  0  0  0  0  0  0  0  0
   -1.0773    2.7557   -0.7527 H   0  0  0  0  0  0  0  0  0  0  0  0
   -0.7531   -1.2249    2.4964 H   0  0  0  0  0  0  0  0  0  0  0  0
    0.5147    0.1625    2.3270 H   0  0  0  0  0  0  0  0  0  0  0  0
   -0.2048    0.1107   -2.3228 C   0  0  0  0  0  0  0  0  0  0  0  0
    0.7578   -0.5200   -1.7717 C   0  0  0  0  0  0  0  0  0  0  0  0
    1.7110   -1.1166   -1.0885 C   0  0  0  0  0  0  0  0  0  0  0  0
    1.5136   -2.3723   -0.2934 C   0  0  0  0  0  0  0  0  0  0  0  0
   -0.8374    0.9738   -1.5328 H   0  0  0  0  0  0  0  0  0  0  0  0
   -0.6099    0.0476   -3.3216 H   0  0  0  0  0  0  0  0  0  0  0  0
    2.7069   -0.6845   -1.1112 H   0  0  0  0  0  0  0  0  0  0  0  0
    2.1342   -3.1847   -0.6810 H   0  0  0  0  0  0  0  0  0  0  0  0
    0.4723   -2.6908   -0.3164 H   0  0  0  0  0  0  0  0  0  0  0  0
    1.8045   -2.2174    0.7496 H   0  0  0  0  0  0  0  0  0  0  0  0
  1  2  1  0
  1  5  1  0
  1  6  1  0
  2  3  1  0
  3  4  2  3
  4  7  1  0
  4  8  1  0
  9 10  2  0
  9 13  1  0
  9 14  1  0
 10 11  2  0
 11 12  1  0
 11 15  1  0
 12 16  1  0
 12 17  1  0
 12 18  1  0
M  RAD  1   1   2
M  END
>  <reaction>  (4) 
rmg_rxn_15691

>  <mol_properties>  (4) 
{"0": {"label": "*3", "atom_type": "Cs"}, "1": {"label": "*4", "atom_type": "O2s"}, "8": {"label": "*1", "atom_type": "Cd"}, "9": {"label": "*0", "atom_type": "Cdd"}, "12": {"label": "*2", "atom_type": "H0"}}

>  <type>  (4) 
ts

$$$$

     RDKit          3D

 18 16  0  0  0  0  0  0  0  0999 V2000
   -1.7462    1.1095    0.4927 C   0  0  0  0  0  0  0  0  0  0  0  0
   -2.3404    0.1458   -0.3222 O   0  0  0  0  0  0  0  0  0  0  0  0
   -1.9379   -1.1402   -0.2935 N   0  0  0  0  0  0  0  0  0  0  0  0
   -0.9387   -1.5288    0.3699 C   0  0  0  0  0  0  0  0  0  0  0  0
   -2.3538    2.0037    0.3964 H   0  0  0  0  0  0  0  0  0  0  0  0
   -1.6373    0.7947    1.5322 H   0  0  0  0  0  0  0  0  0  0  0  0
   -0.7286   -2.5829    0.3177 H   0  0  0  0  0  0  0  0  0  0  0  0
   -0.2725   -0.9089    0.9647 H   0  0  0  0  0  0  0  0  0  0  0  0
    0.6556    1.7353   -0.3752 C   0  0  0  0  0  0  0  0  0  0  0  0
    1.6129    0.9948   -0.0305 C   0  0  0  0  0  0  0  0  0  0  0  0
    2.4467    0.0747    0.4359 C   0  0  0  0  0  3  0  0  0  0  0  0
    2.7905   -1.1740   -0.3061 C   0  0  0  0  0  0  0  0  0  0  0  0
   -0.5576    1.4078    0.0702 H   0  0  0  0  0  0  0  0  0  0  0  0
    0.5502    2.6104   -0.9744 H   0  0  0  0  0  0  0  0  0  0  0  0
    2.9755    0.2583    1.3617 H   0  0  0  0  0  0  0  0  0  0  0  0
    2.1697   -1.2816   -1.1924 H   0  0  0  0  0  0  0  0  0  0  0  0
    2.6468   -2.0441    0.3363 H   0  0  0  0  0  0  0  0  0  0  0  0
    3.8392   -1.1617   -0.6092 H   0  0  0  0  0  0  0  0  0  0  0  0
  1  2  1  0
  1  5  1  0
  1  6  1  0
  1 13  1  0
  2  3  1  0
  3  4  2  3
  4  7  1  0
  4  8  1  0
  9 10  3  0
  9 14  1  0
 10 11  1  0
 11 12  1  0
 11 15  1  0
 12 16  1  0
 12 17  1  0
 12 18  1  0
M  RAD  1  11   2
M  END
>  <reaction>  (5) 
rmg_rxn_15691

>  <mol_properties>  (5) 
{"0": {"label": "*3", "atom_type": "Cs"}, "1": {"label": "*4", "atom_type": "O2s"}, "8": {"label": "*1", "atom_type": "Cd"}, "9": {"label": "*0", "atom_type": "Cdd"}, "12": {"label": "*2", "atom_type": "H0"}}

>  <type>  (5) 
unop_1

>  <geom_source>  (5) 
crest_best.xyz

$$$$

     RDKit          3D

 18 16  0  0  0  0  0  0  0  0999 V2000
   -0.9419    0.8944    0.1825 C   0  0  0  0  0  3  0  0  0  0  0  0
   -0.9158    0.8645    1.5960 O   0  0  0  0  0  0  0  0  0  0  0  0
   -1.4691    2.0197    2.0940 N   0  0  0  0  0  0  0  0  0  0  0  0
   -1.4683    2.0396    3.3575 C   0  0  0  0  0  0  0  0  0  0  0  0
   -1.9674    0.9604   -0.1880 H   0  0  0  0  0  0  0  0  0  0  0  0
   -0.3604    1.7357   -0.2012 H   0  0  0  0  0  0  0  0  0  0  0  0
   -1.8883    2.9181    3.8288 H   0  0  0  0  0  0  0  0  0  0  0  0
   -1.0696    1.2235    3.9563 H   0  0  0  0  0  0  0  0  0  0  0  0
    1.2887   -0.2129   -0.5892 C   0  0  0  0  0  0  0  0  0  0  0  0
    1.2887   -1.2815   -1.3300 C   0  0  0  0  0  0  0  0  0  0  0  0
    1.2887   -2.3499   -2.0707 C   0  0  0  0  0  0  0  0  0  0  0  0
    1.2887   -2.3499   -3.5728 C   0  0  0  0  0  0  0  0  0  0  0  0
    0.1758    0.3396   -0.2042 H   0  0  0  0  0  0  0  0  0  0  0  0
    2.2161    0.2475   -0.2683 H   0  0  0  0  0  0  0  0  0  0  0  0
    1.2975   -3.3150   -1.5712 H   0  0  0  0  0  0  0  0  0  0  0  0
    2.1686   -2.8705   -3.9573 H   0  0  0  0  0  0  0  0  0  0  0  0
    1.2887   -1.3344   -3.9664 H   0  0  0  0  0  0  0  0  0  0  0  0
    0.4087   -2.8705   -3.9573 H   0  0  0  0  0  0  0  0  0  0  0  0
  1  2  1  0
  1  5  1  0
  1  6  1  0
  2  3  1  0
  3  4  2  3
  4  7  1  0
  4  8  1  0
  9 10  2  0
  9 13  1  0
  9 14  1  0
 10 11  2  0
 11 12  1  0
 11 15  1  0
 12 16  1  0
 12 17  1  0
 12 18  1  0
M  RAD  1   1   2
M  END
>  <reaction>  (6) 
rmg_rxn_15691

>  <mol_properties>  (6) 
{"0": {"label": "*3", "atom_type": "Cs"}, "1": {"label": "*4", "atom_type": "O2s"}, "8": {"label": "*1", "atom_type": "Cd"}, "9": {"label": "*0", "atom_type": "Cdd"}, "12": {"label": "*2", "atom_type": "H0"}}

>  <type>  (6) 
unop_2

>  <geom_source>  (6) 
Heuristics

$$$$

     RDKit          3D

 18 16  0  0  0  0  0  0  0  0999 V2000
   -1.6771    1.4766   -0.0826 C   0  0  0  0  0  0  0  0  0  0  0  0
   -1.7809    0.2088    0.4837 O   0  0  0  0  0  0  0  0  0  0  0  0
   -1.5218   -0.7882   -0.4339 N   0  0  0  0  0  0  0  0  0  0  0  0
   -1.5003   -1.9639    0.0196 C   0  0  0  0  0  0  0  0  0  0  0  0
   -2.0981    1.5285   -1.0852 H   0  0  0  0  0  0  0  0  0  0  0  0
   -2.1246    2.1808    0.6110 H   0  0  0  0  0  0  0  0  0  0  0  0
   -1.3128   -2.7484   -0.6917 H   0  0  0  0  0  0  0  0  0  0  0  0
   -1.6629   -2.2228    1.0620 H   0  0  0  0  0  0  0  0  0  0  0  0
    0.9016    1.9045   -0.3205 C   0  0  0  0  0  0  0  0  0  0  0  0
    1.6088    0.9443    0.0809 C   0  0  0  0  0  0  0  0  0  0  0  0
    2.1377   -0.1778    0.5483 C   0  0  0  0  0  3  0  0  0  0  0  0
    2.3972   -1.3787   -0.2989 C   0  0  0  0  0  0  0  0  0  0  0  0
   -0.4157    1.7508   -0.1940 H   0  0  0  0  0  0  0  0  0  0  0  0
    1.0838    2.8519   -0.7738 H   0  0  0  0  0  0  0  0  0  0  0  0
    2.4612   -0.2229    1.5793 H   0  0  0  0  0  0  0  0  0  0  0  0
    1.9983   -1.2375   -1.3002 H   0  0  0  0  0  0  0  0  0  0  0  0
    1.9276   -2.2568    0.1472 H   0  0  0  0  0  0  0  0  0  0  0  0
    3.4685   -1.5780   -0.3674 H   0  0  0  0  0  0  0  0  0  0  0  0
  1  2  1  0
  1  5  1  0
  1  6  1  0
  1 13  1  0
  2  3  1  0
  3  4  2  3
  4  7  1  0
  4  8  1  0
  9 10  3  0
  9 14  1  0
 10 11  1  0
 11 12  1  0
 11 15  1  0
 12 16  1  0
 12 17  1  0
 12 18  1  0
M  RAD  1  11   2
M  END
>  <reaction>  (7) 
rmg_rxn_15691

>  <mol_properties>  (7) 
{"0": {"label": "*3", "atom_type": "Cs"}, "1": {"label": "*4", "atom_type": "O2s"}, "8": {"label": "*1", "atom_type": "Cd"}, "9": {"label": "*0", "atom_type": "Cdd"}, "12": {"label": "*2", "atom_type": "H0"}}

>  <type>  (7) 
unop_3

>  <geom_source>  (7) 
Heuristics

$$$$

     RDKit          3D

 18 16  0  0  0  0  0  0  0  0999 V2000
    0.7300   -1.6409    0.1020 C   0  0  0  0  0  0  0  0  0  0  0  0
    2.0066   -1.0660   -0.0269 O   0  0  0  0  0  0  0  0  0  0  0  0
    1.9453    0.3117    0.0159 N   0  0  0  0  0  0  0  0  0  0  0  0
    3.0385    0.9230   -0.0996 C   0  0  0  0  0  0  0  0  0  0  0  0
    0.8619   -2.7146    0.0806 H   0  0  0  0  0  0  0  0  0  0  0  0
    0.1750   -1.2999    0.9543 H   0  0  0  0  0  0  0  0  0  0  0  0
    2.9968    1.9978   -0.0654 H   0  0  0  0  0  0  0  0  0  0  0  0
    4.0010    0.4376   -0.2291 H   0  0  0  0  0  0  0  0  0  0  0  0
   -3.2814   -1.0412    0.1420 C   0  0  0  0  0  0  0  0  0  0  0  0
   -2.5891   -0.0926   -0.1802 C   0  0  0  0  0  0  0  0  0  0  0  0
   -1.8043    0.9647   -0.5191 C   0  0  0  0  0  3  0  0  0  0  0  0
   -1.0325    1.7460    0.4779 C   0  0  0  0  0  0  0  0  0  0  0  0
    0.0039   -1.2903   -0.6419 H   0  0  0  0  0  0  0  0  0  0  0  0
   -3.8919   -1.8509    0.4068 H   0  0  0  0  0  0  0  0  0  0  0  0
   -1.7102    1.2295   -1.5617 H   0  0  0  0  0  0  0  0  0  0  0  0
   -1.3527    1.5104    1.4906 H   0  0  0  0  0  0  0  0  0  0  0  0
   -1.1512    2.8163    0.3016 H   0  0  0  0  0  0  0  0  0  0  0  0
    0.0353    1.5174    0.3873 H   0  0  0  0  0  0  0  0  0  0  0  0
  1  2  1  0
  1  5  1  0
  1  6  1  0
  1 13  1  0
  2  3  1  0
  3  4  2  3
  4  7  1  0
  4  8  1  0
  9 10  3  0
  9 14  1  0
 10 11  1  0
 11 12  1  0
 11 15  1  0
 12 16  1  0
 12 17  1  0
 12 18  1  0
M  RAD  1  11   2
M  END
>  <reaction>  (8) 
rmg_rxn_15691

>  <mol_properties>  (8) 
{"0": {"label": "*3", "atom_type": "Cs"}, "1": {"label": "*4", "atom_type": "O2s"}, "8": {"label": "*1", "atom_type": "Cd"}, "9": {"label": "*0", "atom_type": "Cdd"}, "12": {"label": "*2", "atom_type": "H0"}}

>  <type>  (8) 
unop_4

>  <geom_source>  (8) 
Heuristics

$$$$

     RDKit          3D

 18 16  0  0  0  0  0  0  0  0999 V2000
   -0.7456   -1.6460    0.1900 C   0  0  0  0  0  0  0  0  0  0  0  0
   -2.0051   -1.0626   -0.0350 O   0  0  0  0  0  0  0  0  0  0  0  0
   -1.9389    0.3145    0.0193 N   0  0  0  0  0  0  0  0  0  0  0  0
   -3.0153    0.9334   -0.1821 C   0  0  0  0  0  0  0  0  0  0  0  0
   -0.2520   -1.3026    1.0783 H   0  0  0  0  0  0  0  0  0  0  0  0
   -0.8842   -2.7189    0.1667 H   0  0  0  0  0  0  0  0  0  0  0  0
   -2.9700    2.0076   -0.1389 H   0  0  0  0  0  0  0  0  0  0  0  0
   -3.9670    0.4547   -0.3920 H   0  0  0  0  0  0  0  0  0  0  0  0
    3.2809   -1.0478    0.0545 C   0  0  0  0  0  0  0  0  0  0  0  0
    2.5805   -0.0882   -0.2132 C   0  0  0  0  0  0  0  0  0  0  0  0
    1.7879    0.9805   -0.4929 C   0  0  0  0  0  3  0  0  0  0  0  0
    1.0403    1.7238    0.5506 C   0  0  0  0  0  0  0  0  0  0  0  0
    0.0355   -1.3062   -0.5013 H   0  0  0  0  0  0  0  0  0  0  0  0
    3.8968   -1.8673    0.2727 H   0  0  0  0  0  0  0  0  0  0  0  0
    1.6685    1.2838   -1.5223 H   0  0  0  0  0  0  0  0  0  0  0  0
    1.1619    2.7998    0.4161 H   0  0  0  0  0  0  0  0  0  0  0  0
    1.3790    1.4452    1.5462 H   0  0  0  0  0  0  0  0  0  0  0  0
   -0.0303    1.5047    0.4706 H   0  0  0  0  0  0  0  0  0  0  0  0
  1  2  1  0
  1  5  1  0
  1  6  1  0
  1 13  1  0
  2  3  1  0
  3  4  2  3
  4  7  1  0
  4  8  1  0
  9 10  3  0
  9 14  1  0
 10 11  1  0
 11 12  1  0
 11 15  1  0
 12 16  1  0
 12 17  1  0
 12 18  1  0
M  RAD  1  11   2
M  END
>  <reaction>  (9) 
rmg_rxn_15691

>  <mol_properties>  (9) 
{"0": {"label": "*3", "atom_type": "Cs"}, "1": {"label": "*4", "atom_type": "O2s"}, "8": {"label": "*1", "atom_type": "Cd"}, "9": {"label": "*0", "atom_type": "Cdd"}, "12": {"label": "*2", "atom_type": "H0"}}

>  <type>  (9) 
unop_5

>  <geom_source>  (9) 
Heuristics

$$$$

     RDKit          3D

 18 16  0  0  0  0  0  0  0  0999 V2000
   -0.3248    1.6082    0.7690 C   0  0  0  0  0  3  0  0  0  0  0  0
   -1.2621    0.5539    0.8679 O   0  0  0  0  0  0  0  0  0  0  0  0
   -2.3236    0.9495    1.6461 N   0  0  0  0  0  0  0  0  0  0  0  0
   -3.1906    0.0378    1.7643 C   0  0  0  0  0  0  0  0  0  0  0  0
   -0.7734    2.4870    0.3003 H   0  0  0  0  0  0  0  0  0  0  0  0
    0.0648    1.8782    1.7531 H   0  0  0  0  0  0  0  0  0  0  0  0
   -4.0604    0.2708    2.3637 H   0  0  0  0  0  0  0  0  0  0  0  0
   -3.0836   -0.9373    1.2940 H   0  0  0  0  0  0  0  0  0  0  0  0
    1.9058    0.5008   -0.0027 C   0  0  0  0  0  0  0  0  0  0  0  0
    1.9058   -0.5677   -0.7435 C   0  0  0  0  0  0  0  0  0  0  0  0
    1.9058   -1.6362   -1.4842 C   0  0  0  0  0  0  0  0  0  0  0  0
    1.9058   -1.6362   -2.9863 C   0  0  0  0  0  0  0  0  0  0  0  0
    0.7928    1.0533    0.3823 H   0  0  0  0  0  0  0  0  0  0  0  0
    2.8332    0.9612    0.3181 H   0  0  0  0  0  0  0  0  0  0  0  0
    1.9146   -2.6012   -0.9848 H   0  0  0  0  0  0  0  0  0  0  0  0
    2.7857   -2.1568   -3.3709 H   0  0  0  0  0  0  0  0  0  0  0  0
    1.9058   -0.6207   -3.3800 H   0  0  0  0  0  0  0  0  0  0  0  0
    1.0258   -2.1568   -3.3709 H   0  0  0  0  0  0  0  0  0  0  0  0
  1  2  1  0
  1  5  1  0
  1  6  1  0
  2  3  1  0
  3  4  2  3
  4  7  1  0
  4  8  1  0
  9 10  2  0
  9 13  1  0
  9 14  1  0
 10 11  2  0
 11 12  1  0
 11 15  1  0
 12 16  1  0
 12 17  1  0
 12 18  1  0
M  RAD  1   1   2
M  END
>  <reaction>  (10) 
rmg_rxn_15691

>  <mol_properties>  (10) 
{"0": {"label": "*3", "atom_type": "Cs"}, "1": {"label": "*4", "atom_type": "O2s"}, "8": {"label": "*1", "atom_type": "Cd"}, "9": {"label": "*0", "atom_type": "Cdd"}, "12": {"label": "*2", "atom_type": "H0"}}

>  <type>  (10) 
unop_6

>  <geom_source>  (10) 
Heuristics

$$$$

     RDKit          3D

 18 16  0  0  0  0  0  0  0  0999 V2000
   -0.9906    0.6032    0.3417 C   0  0  0  0  0  3  0  0  0  0  0  0
   -0.7073    1.2076    1.5883 O   0  0  0  0  0  0  0  0  0  0  0  0
   -1.5670    2.2589    1.7993 N   0  0  0  0  0  0  0  0  0  0  0  0
   -1.3522    2.8327    2.9044 C   0  0  0  0  0  0  0  0  0  0  0  0
   -2.0098    0.2108    0.3204 H   0  0  0  0  0  0  0  0  0  0  0  0
   -0.8561    1.3141   -0.4767 H   0  0  0  0  0  0  0  0  0  0  0  0
   -1.9889    3.6732    3.1462 H   0  0  0  0  0  0  0  0  0  0  0  0
   -0.5710    2.5110    3.5898 H   0  0  0  0  0  0  0  0  0  0  0  0
    1.2400   -0.5041   -0.4301 C   0  0  0  0  0  0  0  0  0  0  0  0
    1.2400   -1.5727   -1.1708 C   0  0  0  0  0  0  0  0  0  0  0  0
    1.2400   -2.6411   -1.9115 C   0  0  0  0  0  0  0  0  0  0  0  0
    1.2400   -2.6411   -3.4136 C   0  0  0  0  0  0  0  0  0  0  0  0
    0.1271    0.0484   -0.0450 H   0  0  0  0  0  0  0  0  0  0  0  0
    2.1674   -0.0437   -0.1092 H   0  0  0  0  0  0  0  0  0  0  0  0
    1.2488   -3.6062   -1.4121 H   0  0  0  0  0  0  0  0  0  0  0  0
    2.1199   -3.1617   -3.7982 H   0  0  0  0  0  0  0  0  0  0  0  0
    1.2400   -1.6256   -3.8073 H   0  0  0  0  0  0  0  0  0  0  0  0
    0.3600   -3.1617   -3.7982 H   0  0  0  0  0  0  0  0  0  0  0  0
  1  2  1  0
  1  5  1  0
  1  6  1  0
  2  3  1  0
  3  4  2  3
  4  7  1  0
  4  8  1  0
  9 10  2  0
  9 13  1  0
  9 14  1  0
 10 11  2  0
 11 12  1  0
 11 15  1  0
 12 16  1  0
 12 17  1  0
 12 18  1  0
M  RAD  1   1   2
M  END
>  <reaction>  (11) 
rmg_rxn_15691

>  <mol_properties>  (11) 
{"0": {"label": "*3", "atom_type": "Cs"}, "1": {"label": "*4", "atom_type": "O2s"}, "8": {"label": "*1", "atom_type": "Cd"}, "9": {"label": "*0", "atom_type": "Cdd"}, "12": {"label": "*2", "atom_type": "H0"}}

>  <type>  (11) 
unop_7

>  <geom_source>  (11) 
Heuristics

$$$$

     RDKit          3D

 18 16  0  0  0  0  0  0  0  0999 V2000
   -0.5360    0.7063    1.5619 C   0  0  0  0  0  3  0  0  0  0  0  0
   -1.2181    1.0619    0.3754 O   0  0  0  0  0  0  0  0  0  0  0  0
   -1.9631    2.1964    0.5917 N   0  0  0  0  0  0  0  0  0  0  0  0
   -2.5930    2.5546   -0.4435 C   0  0  0  0  0  0  0  0  0  0  0  0
    0.1469    1.5001    1.8729 H   0  0  0  0  0  0  0  0  0  0  0  0
   -1.2408    0.4942    2.3691 H   0  0  0  0  0  0  0  0  0  0  0  0
   -3.2051    3.4422   -0.3557 H   0  0  0  0  0  0  0  0  0  0  0  0
   -2.5341    2.0098   -1.3833 H   0  0  0  0  0  0  0  0  0  0  0  0
    1.6946   -0.4011    0.7902 C   0  0  0  0  0  0  0  0  0  0  0  0
    1.6946   -1.4696    0.0494 C   0  0  0  0  0  0  0  0  0  0  0  0
    1.6946   -2.5380   -0.6913 C   0  0  0  0  0  0  0  0  0  0  0  0
    1.6946   -2.5380   -2.1934 C   0  0  0  0  0  0  0  0  0  0  0  0
    0.5816    0.1515    1.1752 H   0  0  0  0  0  0  0  0  0  0  0  0
    2.6220    0.0594    1.1111 H   0  0  0  0  0  0  0  0  0  0  0  0
    1.7034   -3.5031   -0.1918 H   0  0  0  0  0  0  0  0  0  0  0  0
    2.5745   -3.0586   -2.5779 H   0  0  0  0  0  0  0  0  0  0  0  0
    1.6946   -1.5225   -2.5871 H   0  0  0  0  0  0  0  0  0  0  0  0
    0.8146   -3.0586   -2.5779 H   0  0  0  0  0  0  0  0  0  0  0  0
  1  2  1  0
  1  5  1  0
  1  6  1  0
  2  3  1  0
  3  4  2  3
  4  7  1  0
  4  8  1  0
  9 10  2  0
  9 13  1  0
  9 14  1  0
 10 11  2  0
 11 12  1  0
 11 15  1  0
 12 16  1  0
 12 17  1  0
 12 18  1  0
M  RAD  1   1   2
M  END
>  <reaction>  (12) 
rmg_rxn_15691

>  <mol_properties>  (12) 
{"0": {"label": "*3", "atom_type": "Cs"}, "1": {"label": "*4", "atom_type": "O2s"}, "8": {"label": "*1", "atom_type": "Cd"}, "9": {"label": "*0", "atom_type": "Cdd"}, "12": {"label": "*2", "atom_type": "H0"}}

>  <type>  (12) 
unop_8

>  <geom_source>  (12) 
Heuristics

$$$$

     RDKit          3D

 18 16  0  0  0  0  0  0  0  0999 V2000
    3.3771   -0.1472    0.1786 C   0  0  0  0  0  0  0  0  0  0  0  0
    2.1528    0.4962    0.3900 O   0  0  0  0  0  0  0  0  0  0  0  0
    1.2323    0.2041   -0.6191 N   0  0  0  0  0  0  0  0  0  0  0  0
    0.0874    0.7801   -0.4929 C   0  0  0  0  0  0  0  0  0  0  0  0
    3.8501    0.1202   -0.7634 H   0  0  0  0  0  0  0  0  0  0  0  0
    4.0112    0.0361    1.0225 H   0  0  0  0  0  0  0  0  0  0  0  0
   -0.5380    0.7337   -1.3713 H   0  0  0  0  0  0  0  0  0  0  0  0
   -0.0795    1.5855    0.2272 H   0  0  0  0  0  0  0  0  0  0  0  0
   -3.3302    0.9047    0.0063 C   0  0  0  0  0  0  0  0  0  0  0  0
   -2.3789    0.2338    0.3314 C   0  0  0  0  0  0  0  0  0  0  0  0
   -1.2126   -0.5021    0.4643 C   0  0  0  0  0  3  0  0  0  0  0  0
   -1.0651   -1.8146   -0.2415 C   0  0  0  0  0  0  0  0  0  0  0  0
    3.3358   -1.2302    0.3200 H   0  0  0  0  0  0  0  0  0  0  0  0
   -4.2194    1.4538   -0.1401 H   0  0  0  0  0  0  0  0  0  0  0  0
   -0.7059   -0.4284    1.4353 H   0  0  0  0  0  0  0  0  0  0  0  0
   -0.0225   -1.9829   -0.5267 H   0  0  0  0  0  0  0  0  0  0  0  0
   -1.6818   -1.8515   -1.1346 H   0  0  0  0  0  0  0  0  0  0  0  0
   -1.3562   -2.6497    0.4110 H   0  0  0  0  0  0  0  0  0  0  0  0
  1  2  1  0
  1  5  1  0
  1  6  1  0
  1 13  1  0
  2  3  1  0
  3  4  2  3
  4  7  1  0
  4  8  1  0
  9 10  3  0
  9 14  1  0
 10 11  1  0
 11 12  1  0
 11 15  1  0
 12 16  1  0
 12 17  1  0
 12 18  1  0
M  RAD  1  11   2
M  END
>  <reaction>  (13) 
rmg_rxn_15691

>  <mol_properties>  (13) 
{"0": {"label": "*3", "atom_type": "Cs"}, "1": {"label": "*4", "atom_type": "O2s"}, "8": {"label": "*1", "atom_type": "Cd"}, "9": {"label": "*0", "atom_type": "Cdd"}, "12": {"label": "*2", "atom_type": "H0"}}

>  <type>  (13) 
unop_9

>  <geom_source>  (13) 
Heuristics

$$$$

     RDKit          3D

 18 16  0  0  0  0  0  0  0  0999 V2000
   -0.9682    0.4497    0.5146 C   0  0  0  0  0  3  0  0  0  0  0  0
   -0.5915    1.5702    1.2907 O   0  0  0  0  0  0  0  0  0  0  0  0
   -1.7153    2.2193    1.7428 N   0  0  0  0  0  0  0  0  0  0  0  0
   -1.4289    3.2310    2.4436 C   0  0  0  0  0  0  0  0  0  0  0  0
   -1.5476   -0.2603    1.1090 H   0  0  0  0  0  0  0  0  0  0  0  0
   -1.5503    0.7563   -0.3573 H   0  0  0  0  0  0  0  0  0  0  0  0
   -2.2609    3.7985    2.8386 H   0  0  0  0  0  0  0  0  0  0  0  0
   -0.4034    3.5303    2.6493 H   0  0  0  0  0  0  0  0  0  0  0  0
    1.2624   -0.6577   -0.2571 C   0  0  0  0  0  0  0  0  0  0  0  0
    1.2624   -1.7262   -0.9979 C   0  0  0  0  0  0  0  0  0  0  0  0
    1.2624   -2.7946   -1.7386 C   0  0  0  0  0  0  0  0  0  0  0  0
    1.2624   -2.7946   -3.2407 C   0  0  0  0  0  0  0  0  0  0  0  0
    0.1495   -0.1052    0.1279 H   0  0  0  0  0  0  0  0  0  0  0  0
    2.1898   -0.1972    0.0638 H   0  0  0  0  0  0  0  0  0  0  0  0
    1.2713   -3.7597   -1.2391 H   0  0  0  0  0  0  0  0  0  0  0  0
    2.1424   -3.3153   -3.6252 H   0  0  0  0  0  0  0  0  0  0  0  0
    1.2624   -1.7792   -3.6344 H   0  0  0  0  0  0  0  0  0  0  0  0
    0.3824   -3.3153   -3.6252 H   0  0  0  0  0  0  0  0  0  0  0  0
  1  2  1  0
  1  5  1  0
  1  6  1  0
  2  3  1  0
  3  4  2  3
  4  7  1  0
  4  8  1  0
  9 10  2  0
  9 13  1  0
  9 14  1  0
 10 11  2  0
 11 12  1  0
 11 15  1  0
 12 16  1  0
 12 17  1  0
 12 18  1  0
M  RAD  1   1   2
M  END
>  <reaction>  (14) 
rmg_rxn_15691

>  <mol_properties>  (14) 
{"0": {"label": "*3", "atom_type": "Cs"}, "1": {"label": "*4", "atom_type": "O2s"}, "8": {"label": "*1", "atom_type": "Cd"}, "9": {"label": "*0", "atom_type": "Cdd"}, "12": {"label": "*2", "atom_type": "H0"}}

>  <type>  (14) 
unop_10

>  <geom_source>  (14) 
Heuristics

$$$$

     RDKit          3D

 18 16  0  0  0  0  0  0  0  0999 V2000
   -1.7505    1.1097    0.4867 C   0  0  0  0  0  0  0  0  0  0  0  0
   -2.3358    0.1410   -0.3287 O   0  0  0  0  0  0  0  0  0  0  0  0
   -1.9293   -1.1435   -0.2923 N   0  0  0  0  0  0  0  0  0  0  0  0
   -0.9335   -1.5264    0.3793 C   0  0  0  0  0  0  0  0  0  0  0  0
   -2.3604    2.0014    0.3829 H   0  0  0  0  0  0  0  0  0  0  0  0
   -1.6477    0.7992    1.5281 H   0  0  0  0  0  0  0  0  0  0  0  0
   -0.7199   -2.5800    0.3329 H   0  0  0  0  0  0  0  0  0  0  0  0
   -0.2736   -0.9022    0.9767 H   0  0  0  0  0  0  0  0  0  0  0  0
    0.6546    1.7402   -0.3684 C   0  0  0  0  0  0  0  0  0  0  0  0
    1.6102    0.9965   -0.0260 C   0  0  0  0  0  0  0  0  0  0  0  0
    2.4415    0.0719    0.4361 C   0  0  0  0  0  3  0  0  0  0  0  0
    2.7852   -1.1722   -0.3135 C   0  0  0  0  0  0  0  0  0  0  0  0
   -0.5602    1.4106    0.0708 H   0  0  0  0  0  0  0  0  0  0  0  0
    0.5520    2.6196   -0.9618 H   0  0  0  0  0  0  0  0  0  0  0  0
    2.9692    0.2490    1.3637 H   0  0  0  0  0  0  0  0  0  0  0  0
    2.6429   -2.0460    0.3242 H   0  0  0  0  0  0  0  0  0  0  0  0
    3.8335   -1.1576   -0.6180 H   0  0  0  0  0  0  0  0  0  0  0  0
    2.1634   -1.2752   -1.1996 H   0  0  0  0  0  0  0  0  0  0  0  0
  1  2  1  0
  1  5  1  0
  1  6  1  0
  1 13  1  0
  2  3  1  0
  3  4  2  3
  4  7  1  0
  4  8  1  0
  9 10  3  0
  9 14  1  0
 10 11  1  0
 11 12  1  0
 11 15  1  0
 12 16  1  0
 12 17  1  0
 12 18  1  0
M  RAD  1  11   2
M  END
>  <reaction>  (15) 
rmg_rxn_15691

>  <mol_properties>  (15) 
{"0": {"label": "*3", "atom_type": "Cs"}, "1": {"label": "*4", "atom_type": "O2s"}, "8": {"label": "*1", "atom_type": "Cd"}, "9": {"label": "*0", "atom_type": "Cdd"}, "12": {"label": "*2", "atom_type": "H0"}}

>  <type>  (15) 
unop_11

>  <geom_source>  (15) 
Heuristics

$$$$

     RDKit          3D

 18 16  0  0  0  0  0  0  0  0999 V2000
    1.6772   -1.4762   -0.0866 C   0  0  0  0  0  0  0  0  0  0  0  0
    1.7823   -0.2096    0.4819 O   0  0  0  0  0  0  0  0  0  0  0  0
    1.5216    0.7893   -0.4332 N   0  0  0  0  0  0  0  0  0  0  0  0
    1.5007    1.9640    0.0227 C   0  0  0  0  0  0  0  0  0  0  0  0
    2.0948   -1.5257   -1.0907 H   0  0  0  0  0  0  0  0  0  0  0  0
    2.1274   -2.1817    0.6040 H   0  0  0  0  0  0  0  0  0  0  0  0
    1.3117    2.7499   -0.6868 H   0  0  0  0  0  0  0  0  0  0  0  0
    1.6649    2.2210    1.0653 H   0  0  0  0  0  0  0  0  0  0  0  0
   -0.9020   -1.9053   -0.3166 C   0  0  0  0  0  0  0  0  0  0  0  0
   -1.6085   -0.9440    0.0833 C   0  0  0  0  0  0  0  0  0  0  0  0
   -2.1367    0.1794    0.5485 C   0  0  0  0  0  3  0  0  0  0  0  0
   -2.3995    1.3770   -0.3024 C   0  0  0  0  0  0  0  0  0  0  0  0
    0.4155   -1.7508   -0.1943 H   0  0  0  0  0  0  0  0  0  0  0  0
   -1.0854   -2.8543   -0.7659 H   0  0  0  0  0  0  0  0  0  0  0  0
   -2.4573    0.2280    1.5802 H   0  0  0  0  0  0  0  0  0  0  0  0
   -3.4713    1.5731   -0.3715 H   0  0  0  0  0  0  0  0  0  0  0  0
   -2.0003    1.2338   -1.3033 H   0  0  0  0  0  0  0  0  0  0  0  0
   -1.9324    2.2578    0.1410 H   0  0  0  0  0  0  0  0  0  0  0  0
  1  2  1  0
  1  5  1  0
  1  6  1  0
  1 13  1  0
  2  3  1  0
  3  4  2  3
  4  7  1  0
  4  8  1  0
  9 10  3  0
  9 14  1  0
 10 11  1  0
 11 12  1  0
 11 15  1  0
 12 16  1  0
 12 17  1  0
 12 18  1  0
M  RAD  1  11   2
M  END
>  <reaction>  (16) 
rmg_rxn_15691

>  <mol_properties>  (16) 
{"0": {"label": "*3", "atom_type": "Cs"}, "1": {"label": "*4", "atom_type": "O2s"}, "8": {"label": "*1", "atom_type": "Cd"}, "9": {"label": "*0", "atom_type": "Cdd"}, "12": {"label": "*2", "atom_type": "H0"}}

>  <type>  (16) 
unop_12

>  <geom_source>  (16) 
Heuristics

$$$$

     RDKit          3D

 18 16  0  0  0  0  0  0  0  0999 V2000
   -0.7706    0.4145    1.3761 C   0  0  0  0  0  3  0  0  0  0  0  0
   -1.1006    1.3528    0.3710 O   0  0  0  0  0  0  0  0  0  0  0  0
   -1.6253    2.4844    0.9481 N   0  0  0  0  0  0  0  0  0  0  0  0
   -1.9367    3.3551    0.0869 C   0  0  0  0  0  0  0  0  0  0  0  0
   -0.0201    0.8203    2.0582 H   0  0  0  0  0  0  0  0  0  0  0  0
   -1.6573    0.1203    1.9422 H   0  0  0  0  0  0  0  0  0  0  0  0
   -2.3580    4.2785    0.4614 H   0  0  0  0  0  0  0  0  0  0  0  0
   -1.7950    3.2006   -0.9806 H   0  0  0  0  0  0  0  0  0  0  0  0
    1.4599   -0.6929    0.6044 C   0  0  0  0  0  0  0  0  0  0  0  0
    1.4599   -1.7614   -0.1364 C   0  0  0  0  0  0  0  0  0  0  0  0
    1.4599   -2.8298   -0.8771 C   0  0  0  0  0  0  0  0  0  0  0  0
    1.4599   -2.8298   -2.3792 C   0  0  0  0  0  0  0  0  0  0  0  0
    0.3470   -0.1404    0.9894 H   0  0  0  0  0  0  0  0  0  0  0  0
    2.3874   -0.2324    0.9253 H   0  0  0  0  0  0  0  0  0  0  0  0
    1.4688   -3.7949   -0.3777 H   0  0  0  0  0  0  0  0  0  0  0  0
    2.3399   -3.3505   -2.7637 H   0  0  0  0  0  0  0  0  0  0  0  0
    1.4599   -1.8143   -2.7729 H   0  0  0  0  0  0  0  0  0  0  0  0
    0.5800   -3.3505   -2.7637 H   0  0  0  0  0  0  0  0  0  0  0  0
  1  2  1  0
  1  5  1  0
  1  6  1  0
  2  3  1  0
  3  4  2  3
  4  7  1  0
  4  8  1  0
  9 10  2  0
  9 13  1  0
  9 14  1  0
 10 11  2  0
 11 12  1  0
 11 15  1  0
 12 16  1  0
 12 17  1  0
 12 18  1  0
M  RAD  1   1   2
M  END
>  <reaction>  (17) 
rmg_rxn_15691

>  <mol_properties>  (17) 
{"0": {"label": "*3", "atom_type": "Cs"}, "1": {"label": "*4", "atom_type": "O2s"}, "8": {"label": "*1", "atom_type": "Cd"}, "9": {"label": "*0", "atom_type": "Cdd"}, "12": {"label": "*2", "atom_type": "H0"}}

>  <type>  (17) 
unop_13

>  <geom_source>  (17) 
Heuristics

$$$$

     RDKit          3D

 18 16  0  0  0  0  0  0  0  0999 V2000
   -1.7489   -1.1099    0.4879 C   0  0  0  0  0  0  0  0  0  0  0  0
   -2.3371   -0.1427   -0.3272 O   0  0  0  0  0  0  0  0  0  0  0  0
   -1.9325    1.1424   -0.2924 N   0  0  0  0  0  0  0  0  0  0  0  0
   -0.9358    1.5272    0.3769 C   0  0  0  0  0  0  0  0  0  0  0  0
   -1.6446   -0.7984    1.5288 H   0  0  0  0  0  0  0  0  0  0  0  0
   -2.3579   -2.0026    0.3860 H   0  0  0  0  0  0  0  0  0  0  0  0
   -0.7237    2.5811    0.3293 H   0  0  0  0  0  0  0  0  0  0  0  0
   -0.2735    0.9042    0.9729 H   0  0  0  0  0  0  0  0  0  0  0  0
    0.6556   -1.7390   -0.3698 C   0  0  0  0  0  0  0  0  0  0  0  0
    1.6115   -0.9959   -0.0271 C   0  0  0  0  0  0  0  0  0  0  0  0
    2.4431   -0.0721    0.4361 C   0  0  0  0  0  3  0  0  0  0  0  0
    2.7868    1.1730   -0.3120 C   0  0  0  0  0  0  0  0  0  0  0  0
   -0.5590   -1.4098    0.0704 H   0  0  0  0  0  0  0  0  0  0  0  0
    0.5525   -2.6177   -0.9642 H   0  0  0  0  0  0  0  0  0  0  0  0
    2.9699   -0.2498    1.3641 H   0  0  0  0  0  0  0  0  0  0  0  0
    3.8362    1.1608   -0.6122 H   0  0  0  0  0  0  0  0  0  0  0  0
    2.6398    2.0464    0.3252 H   0  0  0  0  0  0  0  0  0  0  0  0
    2.1681    1.2747   -1.2004 H   0  0  0  0  0  0  0  0  0  0  0  0
  1  2  1  0
  1  5  1  0
  1  6  1  0
  1 13  1  0
  2  3  1  0
  3  4  2  3
  4  7  1  0
  4  8  1  0
  9 10  3  0
  9 14  1  0
 10 11  1  0
 11 12  1  0
 11 15  1  0
 12 16  1  0
 12 17  1  0
 12 18  1  0
M  RAD  1  11   2
M  END
>  <reaction>  (18) 
rmg_rxn_15691

>  <mol_properties>  (18) 
{"0": {"label": "*3", "atom_type": "Cs"}, "1": {"label": "*4", "atom_type": "O2s"}, "8": {"label": "*1", "atom_type": "Cd"}, "9": {"label": "*0", "atom_type": "Cdd"}, "12": {"label": "*2", "atom_type": "H0"}}

>  <type>  (18) 
unop_14

>  <geom_source>  (18) 
Heuristics

$$$$

     RDKit          3D

 18 16  0  0  0  0  0  0  0  0999 V2000
   -0.9404    0.2948    1.0475 C   0  0  0  0  0  3  0  0  0  0  0  0
   -0.9178    1.6080    0.5236 O   0  0  0  0  0  0  0  0  0  0  0  0
   -1.4703    2.4787    1.4321 N   0  0  0  0  0  0  0  0  0  0  0  0
   -1.4725    3.6688    1.0075 C   0  0  0  0  0  0  0  0  0  0  0  0
   -0.3565    0.2315    1.9685 H   0  0  0  0  0  0  0  0  0  0  0  0
   -1.9648   -0.0308    1.2418 H   0  0  0  0  0  0  0  0  0  0  0  0
   -1.8921    4.4177    1.6658 H   0  0  0  0  0  0  0  0  0  0  0  0
   -1.0767    3.9439    0.0322 H   0  0  0  0  0  0  0  0  0  0  0  0
    1.2902   -0.8126    0.2758 C   0  0  0  0  0  0  0  0  0  0  0  0
    1.2902   -1.8811   -0.4650 C   0  0  0  0  0  0  0  0  0  0  0  0
    1.2902   -2.9496   -1.2057 C   0  0  0  0  0  0  0  0  0  0  0  0
    1.2902   -2.9496   -2.7078 C   0  0  0  0  0  0  0  0  0  0  0  0
    0.1773   -0.2601    0.6608 H   0  0  0  0  0  0  0  0  0  0  0  0
    2.2176   -0.3522    0.5967 H   0  0  0  0  0  0  0  0  0  0  0  0
    1.2991   -3.9146   -0.7063 H   0  0  0  0  0  0  0  0  0  0  0  0
    2.1702   -3.4702   -3.0923 H   0  0  0  0  0  0  0  0  0  0  0  0
    1.2902   -1.9341   -3.1015 H   0  0  0  0  0  0  0  0  0  0  0  0
    0.4102   -3.4702   -3.0923 H   0  0  0  0  0  0  0  0  0  0  0  0
  1  2  1  0
  1  5  1  0
  1  6  1  0
  2  3  1  0
  3  4  2  3
  4  7  1  0
  4  8  1  0
  9 10  2  0
  9 13  1  0
  9 14  1  0
 10 11  2  0
 11 12  1  0
 11 15  1  0
 12 16  1  0
 12 17  1  0
 12 18  1  0
M  RAD  1   1   2
M  END
>  <reaction>  (19) 
rmg_rxn_15691

>  <mol_properties>  (19) 
{"0": {"label": "*3", "atom_type": "Cs"}, "1": {"label": "*4", "atom_type": "O2s"}, "8": {"label": "*1", "atom_type": "Cd"}, "9": {"label": "*0", "atom_type": "Cdd"}, "12": {"label": "*2", "atom_type": "H0"}}

>  <type>  (19) 
unop_15

>  <geom_source>  (19) 
Heuristics

$$$$

     RDKit          3D

 18 16  0  0  0  0  0  0  0  0999 V2000
   -1.6766    1.4762   -0.0898 C   0  0  0  0  0  0  0  0  0  0  0  0
   -1.7828    0.2106    0.4806 O   0  0  0  0  0  0  0  0  0  0  0  0
   -1.5224   -0.7900   -0.4327 N   0  0  0  0  0  0  0  0  0  0  0  0
   -1.5016   -1.9639    0.0253 C   0  0  0  0  0  0  0  0  0  0  0  0
   -2.0919    1.5239   -1.0949 H   0  0  0  0  0  0  0  0  0  0  0  0
   -2.1285    2.1829    0.5985 H   0  0  0  0  0  0  0  0  0  0  0  0
   -1.3129   -2.7510   -0.6828 H   0  0  0  0  0  0  0  0  0  0  0  0
   -1.6655   -2.2189    1.0685 H   0  0  0  0  0  0  0  0  0  0  0  0
    0.9030    1.9058   -0.3137 C   0  0  0  0  0  0  0  0  0  0  0  0
    1.6087    0.9437    0.0857 C   0  0  0  0  0  0  0  0  0  0  0  0
    2.1355   -0.1813    0.5486 C   0  0  0  0  0  3  0  0  0  0  0  0
    2.4012   -1.3761   -0.3053 C   0  0  0  0  0  0  0  0  0  0  0  0
   -0.4148    1.7509   -0.1951 H   0  0  0  0  0  0  0  0  0  0  0  0
    1.0876    2.8562   -0.7597 H   0  0  0  0  0  0  0  0  0  0  0  0
    2.4529   -0.2333    1.5812 H   0  0  0  0  0  0  0  0  0  0  0  0
    1.9300   -2.2578    0.1321 H   0  0  0  0  0  0  0  0  0  0  0  0
    3.4731   -1.5737   -0.3691 H   0  0  0  0  0  0  0  0  0  0  0  0
    2.0078   -1.2286   -1.3080 H   0  0  0  0  0  0  0  0  0  0  0  0
  1  2  1  0
  1  5  1  0
  1  6  1  0
  1 13  1  0
  2  3  1  0
  3  4  2  3
  4  7  1  0
  4  8  1  0
  9 10  3  0
  9 14  1  0
 10 11  1  0
 11 12  1  0
 11 15  1  0
 12 16  1  0
 12 17  1  0
 12 18  1  0
M  RAD  1  11   2
M  END
>  <reaction>  (20) 
rmg_rxn_15691

>  <mol_properties>  (20) 
{"0": {"label": "*3", "atom_type": "Cs"}, "1": {"label": "*4", "atom_type": "O2s"}, "8": {"label": "*1", "atom_type": "Cd"}, "9": {"label": "*0", "atom_type": "Cdd"}, "12": {"label": "*2", "atom_type": "H0"}}

>  <type>  (20) 
unop_16

>  <geom_source>  (20) 
Heuristics

$$$$

     RDKit          3D

 18 16  0  0  0  0  0  0  0  0999 V2000
   -0.7728    1.2444    0.1790 C   0  0  0  0  0  3  0  0  0  0  0  0
   -1.0988    0.6318    1.4110 O   0  0  0  0  0  0  0  0  0  0  0  0
   -1.6230    1.5682    2.2695 N   0  0  0  0  0  0  0  0  0  0  0  0
   -1.9307    1.0667    3.3878 C   0  0  0  0  0  0  0  0  0  0  0  0
   -1.6613    1.6699   -0.2929 H   0  0  0  0  0  0  0  0  0  0  0  0
   -0.0233    2.0268    0.3179 H   0  0  0  0  0  0  0  0  0  0  0  0
   -2.3514    1.7406    4.1221 H   0  0  0  0  0  0  0  0  0  0  0  0
   -1.7867    0.0131    3.6173 H   0  0  0  0  0  0  0  0  0  0  0  0
    1.4578    0.1371   -0.5927 C   0  0  0  0  0  0  0  0  0  0  0  0
    1.4578   -0.9314   -1.3335 C   0  0  0  0  0  0  0  0  0  0  0  0
    1.4578   -1.9999   -2.0742 C   0  0  0  0  0  0  0  0  0  0  0  0
    1.4578   -1.9999   -3.5763 C   0  0  0  0  0  0  0  0  0  0  0  0
    0.3449    0.6896   -0.2077 H   0  0  0  0  0  0  0  0  0  0  0  0
    2.3852    0.5975   -0.2719 H   0  0  0  0  0  0  0  0  0  0  0  0
    1.4666   -2.9650   -1.5748 H   0  0  0  0  0  0  0  0  0  0  0  0
    2.3378   -2.5205   -3.9609 H   0  0  0  0  0  0  0  0  0  0  0  0
    1.4578   -0.9844   -3.9700 H   0  0  0  0  0  0  0  0  0  0  0  0
    0.5778   -2.5205   -3.9609 H   0  0  0  0  0  0  0  0  0  0  0  0
  1  2  1  0
  1  5  1  0
  1  6  1  0
  2  3  1  0
  3  4  2  3
  4  7  1  0
  4  8  1  0
  9 10  2  0
  9 13  1  0
  9 14  1  0
 10 11  2  0
 11 12  1  0
 11 15  1  0
 12 16  1  0
 12 17  1  0
 12 18  1  0
M  RAD  1   1   2
M  END
>  <reaction>  (21) 
rmg_rxn_15691

>  <mol_properties>  (21) 
{"0": {"label": "*3", "atom_type": "Cs"}, "1": {"label": "*4", "atom_type": "O2s"}, "8": {"label": "*1", "atom_type": "Cd"}, "9": {"label": "*0", "atom_type": "Cdd"}, "12": {"label": "*2", "atom_type": "H0"}}

>  <type>  (21) 
unop_17

>  <geom_source>  (21) 
Heuristics

$$$$

     RDKit          3D

 18 16  0  0  0  0  0  0  0  0999 V2000
   -1.7462    1.1095    0.4927 C   0  0  0  0  0  0  0  0  0  0  0  0
   -2.3404    0.1458   -0.3222 O   0  0  0  0  0  0  0  0  0  0  0  0
   -1.9379   -1.1402   -0.2935 N   0  0  0  0  0  0  0  0  0  0  0  0
   -0.9387   -1.5288    0.3699 C   0  0  0  0  0  0  0  0  0  0  0  0
   -2.3538    2.0037    0.3964 H   0  0  0  0  0  0  0  0  0  0  0  0
   -1.6373    0.7947    1.5322 H   0  0  0  0  0  0  0  0  0  0  0  0
   -0.7286   -2.5829    0.3177 H   0  0  0  0  0  0  0  0  0  0  0  0
   -0.2725   -0.9089    0.9647 H   0  0  0  0  0  0  0  0  0  0  0  0
    0.6556    1.7353   -0.3752 C   0  0  0  0  0  0  0  0  0  0  0  0
    1.6129    0.9948   -0.0305 C   0  0  0  0  0  0  0  0  0  0  0  0
    2.4467    0.0747    0.4359 C   0  0  0  0  0  3  0  0  0  0  0  0
    2.7905   -1.1740   -0.3061 C   0  0  0  0  0  0  0  0  0  0  0  0
   -0.5576    1.4078    0.0702 H   0  0  0  0  0  0  0  0  0  0  0  0
    0.5502    2.6104   -0.9744 H   0  0  0  0  0  0  0  0  0  0  0  0
    2.9755    0.2583    1.3617 H   0  0  0  0  0  0  0  0  0  0  0  0
    2.1697   -1.2816   -1.1924 H   0  0  0  0  0  0  0  0  0  0  0  0
    2.6468   -2.0441    0.3363 H   0  0  0  0  0  0  0  0  0  0  0  0
    3.8392   -1.1617   -0.6092 H   0  0  0  0  0  0  0  0  0  0  0  0
  1  2  1  0
  1  5  1  0
  1  6  1  0
  1 13  1  0
  2  3  1  0
  3  4  2  3
  4  7  1  0
  4  8  1  0
  9 10  3  0
  9 14  1  0
 10 11  1  0
 11 12  1  0
 11 15  1  0
 12 16  1  0
 12 17  1  0
 12 18  1  0
M  RAD  1  11   2
M  END
>  <reaction>  (22) 
rmg_rxn_15691

>  <mol_properties>  (22) 
{"0": {"label": "*3", "atom_type": "Cs"}, "1": {"label": "*4", "atom_type": "O2s"}, "8": {"label": "*1", "atom_type": "Cd"}, "9": {"label": "*0", "atom_type": "Cdd"}, "12": {"label": "*2", "atom_type": "H0"}}

>  <type>  (22) 
unop_18

>  <geom_source>  (22) 
Heuristics

$$$$

     RDKit          3D

 18 16  0  0  0  0  0  0  0  0999 V2000
   -0.3235    1.0954    1.5087 C   0  0  0  0  0  3  0  0  0  0  0  0
   -1.2627    0.8166    0.4890 O   0  0  0  0  0  0  0  0  0  0  0  0
   -2.3255    1.6823    0.5890 N   0  0  0  0  0  0  0  0  0  0  0  0
   -3.1943    1.4717   -0.3040 C   0  0  0  0  0  0  0  0  0  0  0  0
    0.0642    2.1123    1.4154 H   0  0  0  0  0  0  0  0  0  0  0  0
   -0.7694    0.9640    2.4971 H   0  0  0  0  0  0  0  0  0  0  0  0
   -4.0652    2.1133   -0.2941 H   0  0  0  0  0  0  0  0  0  0  0  0
   -3.0879    0.6894   -1.0524 H   0  0  0  0  0  0  0  0  0  0  0  0
    1.9071   -0.0120    0.7369 C   0  0  0  0  0  0  0  0  0  0  0  0
    1.9071   -1.0805   -0.0038 C   0  0  0  0  0  0  0  0  0  0  0  0
    1.9071   -2.1489   -0.7445 C   0  0  0  0  0  0  0  0  0  0  0  0
    1.9071   -2.1489   -2.2466 C   0  0  0  0  0  0  0  0  0  0  0  0
    0.7942    0.5405    1.1220 H   0  0  0  0  0  0  0  0  0  0  0  0
    2.8345    0.4484    1.0578 H   0  0  0  0  0  0  0  0  0  0  0  0
    1.9159   -3.1140   -0.2451 H   0  0  0  0  0  0  0  0  0  0  0  0
    2.7871   -2.6696   -2.6312 H   0  0  0  0  0  0  0  0  0  0  0  0
    1.9071   -1.1335   -2.6403 H   0  0  0  0  0  0  0  0  0  0  0  0
    1.0271   -2.6696   -2.6312 H   0  0  0  0  0  0  0  0  0  0  0  0
  1  2  1  0
  1  5  1  0
  1  6  1  0
  2  3  1  0
  3  4  2  3
  4  7  1  0
  4  8  1  0
  9 10  2  0
  9 13  1  0
  9 14  1  0
 10 11  2  0
 11 12  1  0
 11 15  1  0
 12 16  1  0
 12 17  1  0
 12 18  1  0
M  RAD  1   1   2
M  END
>  <reaction>  (23) 
rmg_rxn_15691

>  <mol_properties>  (23) 
{"0": {"label": "*3", "atom_type": "Cs"}, "1": {"label": "*4", "atom_type": "O2s"}, "8": {"label": "*1", "atom_type": "Cd"}, "9": {"label": "*0", "atom_type": "Cdd"}, "12": {"label": "*2", "atom_type": "H0"}}

>  <type>  (23) 
unop_19

>  <geom_source>  (23) 
Heuristics

$$$$

     RDKit          3D

 18 16  0  0  0  0  0  0  0  0999 V2000
   -0.5381    1.5212    0.3865 C   0  0  0  0  0  3  0  0  0  0  0  0
   -1.2167    0.5337    1.1374 O   0  0  0  0  0  0  0  0  0  0  0  0
   -1.9604    1.1329    2.1256 N   0  0  0  0  0  0  0  0  0  0  0  0
   -2.5871    0.2881    2.8258 C   0  0  0  0  0  0  0  0  0  0  0  0
   -1.2452    2.2015   -0.0936 H   0  0  0  0  0  0  0  0  0  0  0  0
    0.1453    2.0920    1.0191 H   0  0  0  0  0  0  0  0  0  0  0  0
   -3.1979    0.6806    3.6277 H   0  0  0  0  0  0  0  0  0  0  0  0
   -2.5268   -0.7830    2.6452 H   0  0  0  0  0  0  0  0  0  0  0  0
    1.6924    0.4138   -0.3852 C   0  0  0  0  0  0  0  0  0  0  0  0
    1.6924   -0.6547   -1.1260 C   0  0  0  0  0  0  0  0  0  0  0  0
    1.6924   -1.7231   -1.8667 C   0  0  0  0  0  0  0  0  0  0  0  0
    1.6924   -1.7231   -3.3688 C   0  0  0  0  0  0  0  0  0  0  0  0
    0.5795    0.9663   -0.0002 H   0  0  0  0  0  0  0  0  0  0  0  0
    2.6199    0.8743   -0.0644 H   0  0  0  0  0  0  0  0  0  0  0  0
    1.7013   -2.6882   -1.3673 H   0  0  0  0  0  0  0  0  0  0  0  0
    2.5724   -2.2438   -3.7533 H   0  0  0  0  0  0  0  0  0  0  0  0
    1.6924   -0.7077   -3.7625 H   0  0  0  0  0  0  0  0  0  0  0  0
    0.8125   -2.2438   -3.7533 H   0  0  0  0  0  0  0  0  0  0  0  0
  1  2  1  0
  1  5  1  0
  1  6  1  0
  2  3  1  0
  3  4  2  3
  4  7  1  0
  4  8  1  0
  9 10  2  0
  9 13  1  0
  9 14  1  0
 10 11  2  0
 11 12  1  0
 11 15  1  0
 12 16  1  0
 12 17  1  0
 12 18  1  0
M  RAD  1   1   2
M  END
>  <reaction>  (24) 
rmg_rxn_15691

>  <mol_properties>  (24) 
{"0": {"label": "*3", "atom_type": "Cs"}, "1": {"label": "*4", "atom_type": "O2s"}, "8": {"label": "*1", "atom_type": "Cd"}, "9": {"label": "*0", "atom_type": "Cdd"}, "12": {"label": "*2", "atom_type": "H0"}}

>  <type>  (24) 
unop_20

>  <geom_source>  (24) 
Heuristics

$$$$

     RDKit          3D

 18 16  0  0  0  0  0  0  0  0999 V2000
   -0.9899    0.3416    0.7191 C   0  0  0  0  0  3  0  0  0  0  0  0
   -0.7087    1.7215    0.8471 O   0  0  0  0  0  0  0  0  0  0  0  0
   -1.5670    2.2863    1.7597 N   0  0  0  0  0  0  0  0  0  0  0  0
   -1.3540    3.5229    1.9089 C   0  0  0  0  0  0  0  0  0  0  0  0
   -0.8522   -0.1752    1.6715 H   0  0  0  0  0  0  0  0  0  0  0  0
   -2.0097    0.1822    0.3615 H   0  0  0  0  0  0  0  0  0  0  0  0
   -1.9899    4.0430    2.6127 H   0  0  0  0  0  0  0  0  0  0  0  0
   -0.5750    4.0532    1.3652 H   0  0  0  0  0  0  0  0  0  0  0  0
    1.2406   -0.7658   -0.0526 C   0  0  0  0  0  0  0  0  0  0  0  0
    1.2406   -1.8343   -0.7934 C   0  0  0  0  0  0  0  0  0  0  0  0
    1.2406   -2.9027   -1.5341 C   0  0  0  0  0  0  0  0  0  0  0  0
    1.2406   -2.9027   -3.0362 C   0  0  0  0  0  0  0  0  0  0  0  0
    0.1277   -0.2133    0.3324 H   0  0  0  0  0  0  0  0  0  0  0  0
    2.1681   -0.3054    0.2682 H   0  0  0  0  0  0  0  0  0  0  0  0
    1.2495   -3.8678   -1.0347 H   0  0  0  0  0  0  0  0  0  0  0  0
    2.1206   -3.4234   -3.4208 H   0  0  0  0  0  0  0  0  0  0  0  0
    1.2406   -1.8873   -3.4299 H   0  0  0  0  0  0  0  0  0  0  0  0
    0.3607   -3.4234   -3.4208 H   0  0  0  0  0  0  0  0  0  0  0  0
  1  2  1  0
  1  5  1  0
  1  6  1  0
  2  3  1  0
  3  4  2  3
  4  7  1  0
  4  8  1  0
  9 10  2  0
  9 13  1  0
  9 14  1  0
 10 11  2  0
 11 12  1  0
 11 15  1  0
 12 16  1  0
 12 17  1  0
 12 18  1  0
M  RAD  1   1   2
M  END
>  <reaction>  (25) 
rmg_rxn_15691

>  <mol_properties>  (25) 
{"0": {"label": "*3", "atom_type": "Cs"}, "1": {"label": "*4", "atom_type": "O2s"}, "8": {"label": "*1", "atom_type": "Cd"}, "9": {"label": "*0", "atom_type": "Cdd"}, "12": {"label": "*2", "atom_type": "H0"}}

>  <type>  (25) 
unop_21

>  <geom_source>  (25) 
Heuristics

$$$$

     RDKit          3D

 18 16  0  0  0  0  0  0  0  0999 V2000
   -0.2347    1.4464    1.2043 C   0  0  0  0  0  3  0  0  0  0  0  0
   -1.2674    0.6516    0.6551 O   0  0  0  0  0  0  0  0  0  0  0  0
   -2.4896    1.1671    1.0147 N   0  0  0  0  0  0  0  0  0  0  0  0
   -3.4469    0.4885    0.5460 C   0  0  0  0  0  0  0  0  0  0  0  0
   -0.2886    2.4708    0.8290 H   0  0  0  0  0  0  0  0  0  0  0  0
   -0.2860    1.4542    2.2954 H   0  0  0  0  0  0  0  0  0  0  0  0
   -4.4454    0.8298    0.7844 H   0  0  0  0  0  0  0  0  0  0  0  0
   -3.2928   -0.3964   -0.0677 H   0  0  0  0  0  0  0  0  0  0  0  0
    1.9958    0.3390    0.4325 C   0  0  0  0  0  0  0  0  0  0  0  0
    1.9958   -0.7295   -0.3082 C   0  0  0  0  0  0  0  0  0  0  0  0
    1.9958   -1.7979   -1.0489 C   0  0  0  0  0  0  0  0  0  0  0  0
    1.9958   -1.7979   -2.5510 C   0  0  0  0  0  0  0  0  0  0  0  0
    0.8829    0.8915    0.8176 H   0  0  0  0  0  0  0  0  0  0  0  0
    2.9233    0.7994    0.7534 H   0  0  0  0  0  0  0  0  0  0  0  0
    2.0047   -2.7630   -0.5495 H   0  0  0  0  0  0  0  0  0  0  0  0
    2.8758   -2.3186   -2.9356 H   0  0  0  0  0  0  0  0  0  0  0  0
    1.9958   -0.7825   -2.9447 H   0  0  0  0  0  0  0  0  0  0  0  0
    1.1159   -2.3186   -2.9356 H   0  0  0  0  0  0  0  0  0  0  0  0
  1  2  1  0
  1  5  1  0
  1  6  1  0
  2  3  1  0
  3  4  2  3
  4  7  1  0
  4  8  1  0
  9 10  2  0
  9 13  1  0
  9 14  1  0
 10 11  2  0
 11 12  1  0
 11 15  1  0
 12 16  1  0
 12 17  1  0
 12 18  1  0
M  RAD  1   1   2
M  END
>  <reaction>  (26) 
rmg_rxn_15691

>  <mol_properties>  (26) 
{"0": {"label": "*3", "atom_type": "Cs"}, "1": {"label": "*4", "atom_type": "O2s"}, "8": {"label": "*1", "atom_type": "Cd"}, "9": {"label": "*0", "atom_type": "Cdd"}, "12": {"label": "*2", "atom_type": "H0"}}

>  <type>  (26) 
unop_22

>  <geom_source>  (26) 
Heuristics

$$$$

     RDKit          3D

 18 16  0  0  0  0  0  0  0  0999 V2000
   -0.7317   -1.6427    0.1190 C   0  0  0  0  0  0  0  0  0  0  0  0
   -2.0052   -1.0650   -0.0266 O   0  0  0  0  0  0  0  0  0  0  0  0
   -1.9409    0.3126    0.0128 N   0  0  0  0  0  0  0  0  0  0  0  0
   -3.0311    0.9263   -0.1175 C   0  0  0  0  0  0  0  0  0  0  0  0
   -0.1815   -1.2956    0.9713 H   0  0  0  0  0  0  0  0  0  0  0  0
   -0.8655   -2.7161    0.1036 H   0  0  0  0  0  0  0  0  0  0  0  0
   -2.9870    2.0011   -0.0855 H   0  0  0  0  0  0  0  0  0  0  0  0
   -3.9934    0.4429   -0.2568 H   0  0  0  0  0  0  0  0  0  0  0  0
    3.2658   -1.0535    0.1222 C   0  0  0  0  0  0  0  0  0  0  0  0
    2.5834   -0.0933   -0.1867 C   0  0  0  0  0  0  0  0  0  0  0  0
    1.8098    0.9769   -0.5108 C   0  0  0  0  0  3  0  0  0  0  0  0
    1.0345    1.7432    0.4951 C   0  0  0  0  0  0  0  0  0  0  0  0
    0.0051   -1.2973   -0.6155 H   0  0  0  0  0  0  0  0  0  0  0  0
    3.8681   -1.8732    0.3750 H   0  0  0  0  0  0  0  0  0  0  0  0
    1.7264    1.2627   -1.5487 H   0  0  0  0  0  0  0  0  0  0  0  0
    1.1538    2.8159    0.3354 H   0  0  0  0  0  0  0  0  0  0  0  0
    1.3509    1.4922    1.5054 H   0  0  0  0  0  0  0  0  0  0  0  0
   -0.0330    1.5158    0.3975 H   0  0  0  0  0  0  0  0  0  0  0  0
  1  2  1  0
  1  5  1  0
  1  6  1  0
  1 13  1  0
  2  3  1  0
  3  4  2  3
  4  7  1  0
  4  8  1  0
  9 10  3  0
  9 14  1  0
 10 11  1  0
 11 12  1  0
 11 15  1  0
 12 16  1  0
 12 17  1  0
 12 18  1  0
M  RAD  1  11   2
M  END
>  <reaction>  (27) 
rmg_rxn_15691

>  <mol_properties>  (27) 
{"0": {"label": "*3", "atom_type": "Cs"}, "1": {"label": "*4", "atom_type": "O2s"}, "8": {"label": "*1", "atom_type": "Cd"}, "9": {"label": "*0", "atom_type": "Cdd"}, "12": {"label": "*2", "atom_type": "H0"}}

>  <type>  (27) 
unop_23

>  <geom_source>  (27) 
Heuristics

$$$$

     RDKit          3D

 18 16  0  0  0  0  0  0  0  0999 V2000
    2.4880   -0.9075   -0.2448 O   0  0  0  0  0  0  0  0  0  0  0  0
    2.7791    0.3671    0.1840 N   0  0  0  0  0  0  0  0  0  0  0  0
   -3.0694    1.4100   -0.1306 C   0  0  0  0  0  0  0  0  0  0  0  0
    1.1663   -1.2482   -0.6261 C   0  0  0  0  0  3  0  0  0  0  0  0
   -2.7636   -0.0168   -0.4440 C   0  0  0  0  0  0  0  0  0  0  0  0
    3.9822    0.6831    0.5329 C   0  0  0  0  0  0  0  0  0  0  0  0
   -1.8321   -0.6550    0.2101 C   0  0  0  0  0  0  0  0  0  0  0  0
   -0.9022   -1.2915    0.8634 C   0  0  0  0  0  0  0  0  0  0  0  0
   -3.3943    1.5059    0.9272 H   0  0  0  0  0  0  0  0  0  0  0  0
   -3.8860    1.7708   -0.7904 H   0  0  0  0  0  0  0  0  0  0  0  0
   -2.1688    2.0379   -0.2988 H   0  0  0  0  0  0  0  0  0  0  0  0
    1.1317   -2.3186   -0.9154 H   0  0  0  0  0  0  0  0  0  0  0  0
    0.8522   -0.6260   -1.4903 H   0  0  0  0  0  0  0  0  0  0  0  0
    0.3018   -1.0331    0.4411 H   0  0  0  0  0  0  0  0  0  0  0  0
   -3.3164   -0.5306   -1.2196 H   0  0  0  0  0  0  0  0  0  0  0  0
    4.1986    1.6881    0.8682 H   0  0  0  0  0  0  0  0  0  0  0  0
    4.7784   -0.0497    0.4929 H   0  0  0  0  0  0  0  0  0  0  0  0
   -0.3453   -0.7858    1.6402 H   0  0  0  0  0  0  0  0  0  0  0  0
  1  4  1  0
  1  2  1  0
  2  6  2  3
  3  5  1  0
  3  9  1  0
  3 10  1  0
  3 11  1  0
  4 12  1  0
  4 13  1  0
  5  7  2  0
  5 15  1  0
  6 16  1  0
  6 17  1  0
  7  8  2  0
  8 14  1  0
  8 18  1  0
M  RAD  1   4   2
M  END
>  <reaction>  (28) 
rmg_rxn_15691

>  <mol_properties>  (28) 
{"0": {"label": "*3", "atom_type": "Cs"}, "1": {"label": "*4", "atom_type": "O2s"}, "8": {"label": "*1", "atom_type": "Cd"}, "9": {"label": "*0", "atom_type": "Cdd"}, "12": {"label": "*2", "atom_type": "H0"}}

>  <type>  (28) 
unop_24

>  <geom_source>  (28) 
AutoTST

$$$$

     RDKit          3D

 18 16  0  0  0  0  0  0  0  0999 V2000
   -0.3248    1.6082    0.7690 C   0  0  0  0  0  3  0  0  0  0  0  0
   -1.2621    0.5539    0.8679 O   0  0  0  0  0  0  0  0  0  0  0  0
   -2.3236    0.9495    1.6461 N   0  0  0  0  0  0  0  0  0  0  0  0
   -3.1905    0.0378    1.7643 C   0  0  0  0  0  0  0  0  0  0  0  0
   -0.7734    2.4870    0.3004 H   0  0  0  0  0  0  0  0  0  0  0  0
    0.0648    1.8782    1.7531 H   0  0  0  0  0  0  0  0  0  0  0  0
   -4.0604    0.2708    2.3637 H   0  0  0  0  0  0  0  0  0  0  0  0
   -3.0836   -0.9373    1.2940 H   0  0  0  0  0  0  0  0  0  0  0  0
    1.9058    0.5008   -0.0027 C   0  0  0  0  0  0  0  0  0  0  0  0
    1.9058   -0.5677   -0.7435 C   0  0  0  0  0  0  0  0  0  0  0  0
    1.9058   -1.6361   -1.4842 C   0  0  0  0  0  0  0  0  0  0  0  0
    1.9058   -1.6361   -2.9863 C   0  0  0  0  0  0  0  0  0  0  0  0
    0.7928    1.0533    0.3823 H   0  0  0  0  0  0  0  0  0  0  0  0
    2.8332    0.9612    0.3181 H   0  0  0  0  0  0  0  0  0  0  0  0
    1.9146   -2.6012   -0.9848 H   0  0  0  0  0  0  0  0  0  0  0  0
    2.7857   -2.1568   -3.3708 H   0  0  0  0  0  0  0  0  0  0  0  0
    1.9058   -0.6207   -3.3800 H   0  0  0  0  0  0  0  0  0  0  0  0
    1.0258   -2.1568   -3.3708 H   0  0  0  0  0  0  0  0  0  0  0  0
  1  2  1  0
  1  5  1  0
  1  6  1  0
  2  3  1  0
  3  4  2  3
  4  7  1  0
  4  8  1  0
  9 10  2  0
  9 13  1  0
  9 14  1  0
 10 11  2  0
 11 12  1  0
 11 15  1  0
 12 16  1  0
 12 17  1  0
 12 18  1  0
M  RAD  1   1   2
M  END
>  <reaction>  (29) 
rmg_rxn_15691

>  <mol_properties>  (29) 
{"0": {"label": "*3", "atom_type": "Cs"}, "1": {"label": "*4", "atom_type": "O2s"}, "8": {"label": "*1", "atom_type": "Cd"}, "9": {"label": "*0", "atom_type": "Cdd"}, "12": {"label": "*2", "atom_type": "H0"}}

>  <type>  (29) 
unop_25

>  <geom_source>  (29) 
gaussian_log

$$$$
