
     RDKit          3D

  9  8  0  0  0  0  0  0  0  0999 V2000
   -1.5470   -0.0755   -0.1976 C   0  0  0  0  0  0  0  0  0  0  0  0
   -0.2885    0.4507    0.1749 O   0  0  0  0  0  0  0  0  0  0  0  0
   -0.1502    1.7216   -0.3294 N   0  0  0  0  0  0  0  0  0  0  0  0
    0.9626    2.2353   -0.0219 C   0  0  0  0  0  0  0  0  0  0  0  0
   -1.6392   -0.1356   -1.2844 H   0  0  0  0  0  0  0  0  0  0  0  0
   -2.3597    0.5337    0.2044 H   0  0  0  0  0  0  0  0  0  0  0  0
   -1.5879   -1.0750    0.2318 H   0  0  0  0  0  0  0  0  0  0  0  0
    1.1497    3.2381   -0.3820 H   0  0  0  0  0  0  0  0  0  0  0  0
    1.7060    1.7101    0.5739 H   0  0  0  0  0  0  0  0  0  0  0  0
  1  2  1  0
  1  5  1  0
  1  6  1  0
  1  7  1  0
  2  3  1  0
  3  4  2  3
  4  8  1  0
  4  9  1  0
M  END
>  <reaction>  (1) 
rmg_rxn_15722

>  <mol_properties>  (1) 
{"0": {"label": "donator", "atom_type": "Cs"}, "4": {"label": "d_hydrogen", "atom_type": "H0"}}

>  <type>  (1) 
r1h

$$$$

     RDKit          3D

  8  7  0  0  0  0  0  0  0  0999 V2000
    1.4098   -0.3617   -0.1137 C   0  0  0  0  0  0  0  0  0  0  0  0
    0.1829   -0.1715   -0.5109 C   0  0  0  0  0  3  0  0  0  0  0  0
   -1.1129    0.2669    0.0153 C   0  0  0  0  0  0  0  0  0  0  0  0
    2.1881   -0.7137   -0.7829 H   0  0  0  0  0  0  0  0  0  0  0  0
    1.7065   -0.1722    0.9205 H   0  0  0  0  0  0  0  0  0  0  0  0
   -1.8665   -0.5154   -0.0958 H   0  0  0  0  0  0  0  0  0  0  0  0
   -1.0351    0.5163    1.0818 H   0  0  0  0  0  0  0  0  0  0  0  0
   -1.4726    1.1513   -0.5143 H   0  0  0  0  0  0  0  0  0  0  0  0
  1  2  2  3
  1  4  1  0
  1  5  1  0
  2  3  1  0
  3  6  1  0
  3  7  1  0
  3  8  1  0
M  RAD  1   2   2
M  END
>  <reaction>  (2) 
rmg_rxn_15722

>  <mol_properties>  (2) 
{"1": {"label": "acceptor", "atom_type": "Cd"}}

>  <type>  (2) 
r2

$$$$

     RDKit          3D

  9  8  0  0  0  0  0  0  0  0999 V2000
    1.1303   -0.2933   -0.7510 C   0  0  0  0  0  0  0  0  0  0  0  0
    0.2866    0.4560   -0.0588 C   0  0  0  0  0  0  0  0  0  0  0  0
   -0.9719   -0.0331    0.5823 C   0  0  0  0  0  0  0  0  0  0  0  0
    2.0274    0.1230   -1.1916 H   0  0  0  0  0  0  0  0  0  0  0  0
    0.9532   -1.3530   -0.9023 H   0  0  0  0  0  0  0  0  0  0  0  0
    0.5065    1.5132    0.0659 H   0  0  0  0  0  0  0  0  0  0  0  0
   -0.9526    0.1426    1.6610 H   0  0  0  0  0  0  0  0  0  0  0  0
   -1.1182   -1.1002    0.4106 H   0  0  0  0  0  0  0  0  0  0  0  0
   -1.8412    0.5010    0.1901 H   0  0  0  0  0  0  0  0  0  0  0  0
  1  2  2  3
  1  4  1  0
  1  5  1  0
  2  3  1  0
  2  6  1  0
  3  7  1  0
  3  8  1  0
  3  9  1  0
M  END
>  <reaction>  (3) 
rmg_rxn_15722

>  <mol_properties>  (3) 
{"0": {"label": "a_hydrogen", "atom_type": "H0"}, "2": {"label": "acceptor", "atom_type": "Cd"}}

>  <type>  (3) 
r2h

$$$$

     RDKit          3D

 17 15  0  0  0  0  0  0  0  0999 V2000
   -0.2482   -1.4998   -0.0836 C   0  0  0  0  0  0  0  0  0  0  0  0
   -1.3188   -0.7780    0.4377 O   0  0  0  0  0  0  0  0  0  0  0  0
   -1.7422    0.1768   -0.4606 N   0  0  0  0  0  0  0  0  0  0  0  0
   -2.6824    0.8781    0.0097 C   0  0  0  0  0  0  0  0  0  0  0  0
    0.8058   -0.7428   -0.0677 H   0  0  0  0  0  0  0  0  0  0  0  0
   -0.4011   -1.7940   -1.1218 H   0  0  0  0  0  0  0  0  0  0  0  0
   -0.0522   -2.3324    0.5872 H   0  0  0  0  0  0  0  0  0  0  0  0
   -3.0800    1.6489   -0.6368 H   0  0  0  0  0  0  0  0  0  0  0  0
   -3.0845    0.7266    1.0089 H   0  0  0  0  0  0  0  0  0  0  0  0
    3.0694   -0.3883   -0.1090 C   0  0  0  0  0  0  0  0  0  0  0  0
    1.8748    0.1521   -0.0170 C   0  0  0  0  0  3  0  0  0  0  0  0
    1.4459    1.5622    0.1253 C   0  0  0  0  0  0  0  0  0  0  0  0
    3.2066   -1.4596   -0.2108 H   0  0  0  0  0  0  0  0  0  0  0  0
    3.9732    0.2193   -0.0879 H   0  0  0  0  0  0  0  0  0  0  0  0
    0.7941    1.8503   -0.7022 H   0  0  0  0  0  0  0  0  0  0  0  0
    0.8718    1.7000    1.0447 H   0  0  0  0  0  0  0  0  0  0  0  0
    2.3061    2.2388    0.1487 H   0  0  0  0  0  0  0  0  0  0  0  0
  1  2  1  0
  1  5  1  0
  1  6  1  0
  1  7  1  0
  2  3  1  0
  3  4  2  3
  4  8  1  0
  4  9  1  0
 10 11  2  3
 10 13  1  0
 10 14  1  0
 11 12  1  0
 12 15  1  0
 12 16  1  0
 12 17  1  0
M  RAD  1  11   2
M  END
>  <reaction>  (4) 
rmg_rxn_15722

>  <mol_properties>  (4) 
{"0": {"label": "*1", "atom_type": "Cs"}, "1": {"label": "*0", "atom_type": "O2s"}, "4": {"label": "*2", "atom_type": "H0"}, "9": {"label": "*4", "atom_type": "Cd"}, "10": {"label": "*3", "atom_type": "Cd"}}

>  <type>  (4) 
ts

$$$$

     RDKit          3D

 17 15  0  0  0  0  0  0  0  0999 V2000
   -0.6117   -1.3639    0.1106 C   0  0  0  0  0  3  0  0  0  0  0  0
   -1.5460   -0.6363   -0.6078 O   0  0  0  0  0  0  0  0  0  0  0  0
   -2.0372    0.5325   -0.1467 N   0  0  0  0  0  0  0  0  0  0  0  0
   -1.6170    1.0779    0.9127 C   0  0  0  0  0  0  0  0  0  0  0  0
    0.5849   -0.7439    0.0613 H   0  0  0  0  0  0  0  0  0  0  0  0
   -0.4842   -2.3105   -0.4013 H   0  0  0  0  0  0  0  0  0  0  0  0
   -0.8401   -1.4745    1.1704 H   0  0  0  0  0  0  0  0  0  0  0  0
   -2.0963    2.0032    1.1800 H   0  0  0  0  0  0  0  0  0  0  0  0
   -0.8227    0.7155    1.5602 H   0  0  0  0  0  0  0  0  0  0  0  0
    2.5181   -0.1808    1.0210 C   0  0  0  0  0  0  0  0  0  0  0  0
    1.6924   -0.0798    0.0076 C   0  0  0  0  0  0  0  0  0  0  0  0
    1.8137    0.7281   -1.2268 C   0  0  0  0  0  0  0  0  0  0  0  0
    2.3121   -0.8080    1.8731 H   0  0  0  0  0  0  0  0  0  0  0  0
    3.4594    0.3565    1.0565 H   0  0  0  0  0  0  0  0  0  0  0  0
    1.7997    0.0780   -2.1014 H   0  0  0  0  0  0  0  0  0  0  0  0
    0.9696    1.4128   -1.3125 H   0  0  0  0  0  0  0  0  0  0  0  0
    2.7386    1.3067   -1.2322 H   0  0  0  0  0  0  0  0  0  0  0  0
  1  2  1  0
  1  6  1  0
  1  7  1  0
  2  3  1  0
  3  4  2  3
  4  8  1  0
  4  9  1  0
  5 11  1  0
 10 11  2  3
 10 13  1  0
 10 14  1  0
 11 12  1  0
 12 15  1  0
 12 16  1  0
 12 17  1  0
M  RAD  1   1   2
M  END
>  <reaction>  (5) 
rmg_rxn_15722

>  <mol_properties>  (5) 
{"0": {"label": "*1", "atom_type": "Cs"}, "1": {"label": "*0", "atom_type": "O2s"}, "4": {"label": "*2", "atom_type": "H0"}, "9": {"label": "*4", "atom_type": "Cd"}, "10": {"label": "*3", "atom_type": "Cd"}}

>  <type>  (5) 
unop_1

>  <geom_source>  (5) 
crest_best.xyz

$$$$

     RDKit          3D

 17 15  0  0  0  0  0  0  0  0999 V2000
   -0.9289    0.9584    0.4279 C   0  0  0  0  0  3  0  0  0  0  0  0
   -0.9289    1.0163   -0.9849 O   0  0  0  0  0  0  0  0  0  0  0  0
   -0.9289   -0.2576   -1.5007 N   0  0  0  0  0  0  0  0  0  0  0  0
   -0.9289   -0.2576   -2.7643 C   0  0  0  0  0  0  0  0  0  0  0  0
    0.1417    0.3462    0.8721 H   0  0  0  0  0  0  0  0  0  0  0  0
   -1.8210    0.4482    0.7981 H   0  0  0  0  0  0  0  0  0  0  0  0
   -0.9289    1.9933    0.7657 H   0  0  0  0  0  0  0  0  0  0  0  0
   -0.9289   -1.2247   -3.2491 H   0  0  0  0  0  0  0  0  0  0  0  0
   -0.9289    0.6589   -3.3505 H   0  0  0  0  0  0  0  0  0  0  0  0
    2.0334    0.3955    2.1114 C   0  0  0  0  0  0  0  0  0  0  0  0
    1.2071   -0.2630    1.3140 C   0  0  0  0  0  0  0  0  0  0  0  0
    0.7547   -1.6729    1.5186 C   0  0  0  0  0  0  0  0  0  0  0  0
    2.3230    1.4186    1.9068 H   0  0  0  0  0  0  0  0  0  0  0  0
    2.4510   -0.0664    2.9998 H   0  0  0  0  0  0  0  0  0  0  0  0
    1.0323   -2.2980    0.6660 H   0  0  0  0  0  0  0  0  0  0  0  0
    1.1929   -2.1055    2.4189 H   0  0  0  0  0  0  0  0  0  0  0  0
   -0.3336   -1.7232    1.6070 H   0  0  0  0  0  0  0  0  0  0  0  0
  1  2  1  0
  1  6  1  0
  1  7  1  0
  2  3  1  0
  3  4  2  3
  4  8  1  0
  4  9  1  0
  5 11  1  0
 10 11  2  3
 10 13  1  0
 10 14  1  0
 11 12  1  0
 12 15  1  0
 12 16  1  0
 12 17  1  0
M  RAD  1   1   2
M  END
>  <reaction>  (6) 
rmg_rxn_15722

>  <mol_properties>  (6) 
{"0": {"label": "*1", "atom_type": "Cs"}, "1": {"label": "*0", "atom_type": "O2s"}, "4": {"label": "*2", "atom_type": "H0"}, "9": {"label": "*4", "atom_type": "Cd"}, "10": {"label": "*3", "atom_type": "Cd"}}

>  <type>  (6) 
unop_2

>  <geom_source>  (6) 
Heuristics

$$$$

     RDKit          3D

 17 15  0  0  0  0  0  0  0  0999 V2000
   -0.2332   -1.4412    0.0353 C   0  0  0  0  0  3  0  0  0  0  0  0
   -1.2882   -0.7087   -0.4768 O   0  0  0  0  0  0  0  0  0  0  0  0
   -1.8825    0.1021    0.4676 N   0  0  0  0  0  0  0  0  0  0  0  0
   -2.8170    0.8428    0.0488 C   0  0  0  0  0  0  0  0  0  0  0  0
    0.8779   -0.6748    0.0200 H   0  0  0  0  0  0  0  0  0  0  0  0
   -0.0404   -2.2739   -0.6313 H   0  0  0  0  0  0  0  0  0  0  0  0
   -0.3611   -1.7189    1.0780 H   0  0  0  0  0  0  0  0  0  0  0  0
   -3.2909    1.4738    0.7789 H   0  0  0  0  0  0  0  0  0  0  0  0
   -3.1615    0.8723   -0.9805 H   0  0  0  0  0  0  0  0  0  0  0  0
    3.0883   -0.4051    0.1747 C   0  0  0  0  0  0  0  0  0  0  0  0
    1.8969    0.1170    0.0117 C   0  0  0  0  0  0  0  0  0  0  0  0
    1.5167    1.5349   -0.1848 C   0  0  0  0  0  0  0  0  0  0  0  0
    3.2386   -1.4635    0.3106 H   0  0  0  0  0  0  0  0  0  0  0  0
    3.9894    0.1984    0.1820 H   0  0  0  0  0  0  0  0  0  0  0  0
    2.3935    2.1842   -0.1971 H   0  0  0  0  0  0  0  0  0  0  0  0
    0.9806    1.6507   -1.1269 H   0  0  0  0  0  0  0  0  0  0  0  0
    0.8501    1.8564    0.6155 H   0  0  0  0  0  0  0  0  0  0  0  0
  1  2  1  0
  1  6  1  0
  1  7  1  0
  2  3  1  0
  3  4  2  3
  4  8  1  0
  4  9  1  0
  5 11  1  0
 10 11  2  3
 10 13  1  0
 10 14  1  0
 11 12  1  0
 12 15  1  0
 12 16  1  0
 12 17  1  0
M  RAD  1   1   2
M  END
>  <reaction>  (7) 
rmg_rxn_15722

>  <mol_properties>  (7) 
{"0": {"label": "*1", "atom_type": "Cs"}, "1": {"label": "*0", "atom_type": "O2s"}, "4": {"label": "*2", "atom_type": "H0"}, "9": {"label": "*4", "atom_type": "Cd"}, "10": {"label": "*3", "atom_type": "Cd"}}

>  <type>  (7) 
unop_3

>  <geom_source>  (7) 
Heuristics

$$$$

     RDKit          3D

 17 15  0  0  0  0  0  0  0  0999 V2000
   -0.6147   -1.3592    0.1676 C   0  0  0  0  0  3  0  0  0  0  0  0
   -1.5477   -0.6600   -0.5799 O   0  0  0  0  0  0  0  0  0  0  0  0
   -2.0337    0.5295   -0.1688 N   0  0  0  0  0  0  0  0  0  0  0  0
   -1.6094    1.1184    0.8655 C   0  0  0  0  0  0  0  0  0  0  0  0
    0.5831   -0.7438    0.0921 H   0  0  0  0  0  0  0  0  0  0  0  0
   -0.4899   -2.3267   -0.3043 H   0  0  0  0  0  0  0  0  0  0  0  0
   -0.8423   -1.4247    1.2313 H   0  0  0  0  0  0  0  0  0  0  0  0
   -2.0844    2.0563    1.0934 H   0  0  0  0  0  0  0  0  0  0  0  0
   -0.8151    0.7811    1.5264 H   0  0  0  0  0  0  0  0  0  0  0  0
    2.5107   -0.1314    1.0325 C   0  0  0  0  0  0  0  0  0  0  0  0
    1.6903   -0.0821    0.0110 C   0  0  0  0  0  0  0  0  0  0  0  0
    1.8165    0.6657   -1.2603 C   0  0  0  0  0  0  0  0  0  0  0  0
    2.3019   -0.7174    1.9128 H   0  0  0  0  0  0  0  0  0  0  0  0
    3.4503    0.4096    1.0467 H   0  0  0  0  0  0  0  0  0  0  0  0
    1.8100   -0.0257   -2.1027 H   0  0  0  0  0  0  0  0  0  0  0  0
    0.9709    1.3427   -1.3837 H   0  0  0  0  0  0  0  0  0  0  0  0
    2.7397    1.2466   -1.2880 H   0  0  0  0  0  0  0  0  0  0  0  0
  1  2  1  0
  1  6  1  0
  1  7  1  0
  2  3  1  0
  3  4  2  3
  4  8  1  0
  4  9  1  0
  5 11  1  0
 10 11  2  3
 10 13  1  0
 10 14  1  0
 11 12  1  0
 12 15  1  0
 12 16  1  0
 12 17  1  0
M  RAD  1   1   2
M  END
>  <reaction>  (8) 
rmg_rxn_15722

>  <mol_properties>  (8) 
{"0": {"label": "*1", "atom_type": "Cs"}, "1": {"label": "*0", "atom_type": "O2s"}, "4": {"label": "*2", "atom_type": "H0"}, "9": {"label": "*4", "atom_type": "Cd"}, "10": {"label": "*3", "atom_type": "Cd"}}

>  <type>  (8) 
unop_4

>  <geom_source>  (8) 
Heuristics

$$$$

     RDKit          3D

 17 15  0  0  0  0  0  0  0  0999 V2000
   -0.6111   -1.3693    0.0404 C   0  0  0  0  0  3  0  0  0  0  0  0
   -1.5463   -0.6056   -0.6382 O   0  0  0  0  0  0  0  0  0  0  0  0
   -2.0364    0.5381   -0.1169 N   0  0  0  0  0  0  0  0  0  0  0  0
   -1.6141    1.0283    0.9684 C   0  0  0  0  0  0  0  0  0  0  0  0
    0.5854   -0.7472    0.0216 H   0  0  0  0  0  0  0  0  0  0  0  0
   -0.4844   -2.2883   -0.5197 H   0  0  0  0  0  0  0  0  0  0  0  0
   -0.8378   -1.5342    1.0934 H   0  0  0  0  0  0  0  0  0  0  0  0
   -2.0925    1.9388    1.2836 H   0  0  0  0  0  0  0  0  0  0  0  0
   -0.8187    0.6329    1.5950 H   0  0  0  0  0  0  0  0  0  0  0  0
    2.5263   -0.2441    0.9989 C   0  0  0  0  0  0  0  0  0  0  0  0
    1.6920   -0.0799    0.0010 C   0  0  0  0  0  0  0  0  0  0  0  0
    1.8025    0.8057   -1.1800 C   0  0  0  0  0  0  0  0  0  0  0  0
    2.3285   -0.9251    1.8107 H   0  0  0  0  0  0  0  0  0  0  0  0
    3.4671    0.2916    1.0607 H   0  0  0  0  0  0  0  0  0  0  0  0
    2.7265    1.3854   -1.1552 H   0  0  0  0  0  0  0  0  0  0  0  0
    1.7829    0.2131   -2.0945 H   0  0  0  0  0  0  0  0  0  0  0  0
    0.9568    1.4928   -1.2153 H   0  0  0  0  0  0  0  0  0  0  0  0
  1  2  1  0
  1  6  1  0
  1  7  1  0
  2  3  1  0
  3  4  2  3
  4  8  1  0
  4  9  1  0
  5 11  1  0
 10 11  2  3
 10 13  1  0
 10 14  1  0
 11 12  1  0
 12 15  1  0
 12 16  1  0
 12 17  1  0
M  RAD  1   1   2
M  END
>  <reaction>  (9) 
rmg_rxn_15722

>  <mol_properties>  (9) 
{"0": {"label": "*1", "atom_type": "Cs"}, "1": {"label": "*0", "atom_type": "O2s"}, "4": {"label": "*2", "atom_type": "H0"}, "9": {"label": "*4", "atom_type": "Cd"}, "10": {"label": "*3", "atom_type": "Cd"}}

>  <type>  (9) 
unop_5

>  <geom_source>  (9) 
Heuristics

$$$$

     RDKit          3D

 17 15  0  0  0  0  0  0  0  0999 V2000
   -0.6114   -1.3683   -0.0567 C   0  0  0  0  0  3  0  0  0  0  0  0
   -1.5465   -0.6129    0.6312 O   0  0  0  0  0  0  0  0  0  0  0  0
   -2.0366    0.5371    0.1238 N   0  0  0  0  0  0  0  0  0  0  0  0
   -1.6145    1.0403   -0.9556 C   0  0  0  0  0  0  0  0  0  0  0  0
    0.5851   -0.7465   -0.0307 H   0  0  0  0  0  0  0  0  0  0  0  0
   -0.8384   -1.5208   -1.1115 H   0  0  0  0  0  0  0  0  0  0  0  0
   -0.4843   -2.2938    0.4926 H   0  0  0  0  0  0  0  0  0  0  0  0
   -2.0930    1.9544   -1.2598 H   0  0  0  0  0  0  0  0  0  0  0  0
   -0.8192    0.6524   -1.5870 H   0  0  0  0  0  0  0  0  0  0  0  0
    2.5240   -0.2293   -1.0048 C   0  0  0  0  0  0  0  0  0  0  0  0
    1.6921   -0.0799   -0.0026 C   0  0  0  0  0  0  0  0  0  0  0  0
    1.8057    0.7873    1.1916 C   0  0  0  0  0  0  0  0  0  0  0  0
    2.3237   -0.8975   -1.8267 H   0  0  0  0  0  0  0  0  0  0  0  0
    3.4650    0.3066   -1.0606 H   0  0  0  0  0  0  0  0  0  0  0  0
    1.7882    0.1805    2.0968 H   0  0  0  0  0  0  0  0  0  0  0  0
    2.7297    1.3671    1.1736 H   0  0  0  0  0  0  0  0  0  0  0  0
    0.9601    1.4739    1.2397 H   0  0  0  0  0  0  0  0  0  0  0  0
  1  2  1  0
  1  6  1  0
  1  7  1  0
  2  3  1  0
  3  4  2  3
  4  8  1  0
  4  9  1  0
  5 11  1  0
 10 11  2  3
 10 13  1  0
 10 14  1  0
 11 12  1  0
 12 15  1  0
 12 16  1  0
 12 17  1  0
M  RAD  1   1   2
M  END
>  <reaction>  (10) 
rmg_rxn_15722

>  <mol_properties>  (10) 
{"0": {"label": "*1", "atom_type": "Cs"}, "1": {"label": "*0", "atom_type": "O2s"}, "4": {"label": "*2", "atom_type": "H0"}, "9": {"label": "*4", "atom_type": "Cd"}, "10": {"label": "*3", "atom_type": "Cd"}}

>  <type>  (10) 
unop_6

>  <geom_source>  (10) 
Heuristics

$$$$

     RDKit          3D

 17 15  0  0  0  0  0  0  0  0999 V2000
   -1.0304    0.8851    0.4564 C   0  0  0  0  0  3  0  0  0  0  0  0
   -1.0304    0.9430   -0.9565 O   0  0  0  0  0  0  0  0  0  0  0  0
   -1.0304   -0.3309   -1.4723 N   0  0  0  0  0  0  0  0  0  0  0  0
   -1.0304   -0.3309   -2.7359 C   0  0  0  0  0  0  0  0  0  0  0  0
    0.0402    0.2729    0.9005 H   0  0  0  0  0  0  0  0  0  0  0  0
   -1.9225    0.3749    0.8265 H   0  0  0  0  0  0  0  0  0  0  0  0
   -1.0304    1.9200    0.7942 H   0  0  0  0  0  0  0  0  0  0  0  0
   -1.0304   -1.2980   -3.2207 H   0  0  0  0  0  0  0  0  0  0  0  0
   -1.0304    0.5856   -3.3220 H   0  0  0  0  0  0  0  0  0  0  0  0
    2.2218   -0.2628    0.6346 C   0  0  0  0  0  0  0  0  0  0  0  0
    1.1056   -0.3363    1.3424 C   0  0  0  0  0  0  0  0  0  0  0  0
    1.0236   -0.7324    2.7814 C   0  0  0  0  0  0  0  0  0  0  0  0
    2.2135    0.0316   -0.4073 H   0  0  0  0  0  0  0  0  0  0  0  0
    3.1865   -0.4952    1.0733 H   0  0  0  0  0  0  0  0  0  0  0  0
    0.3887   -1.6133    2.9067 H   0  0  0  0  0  0  0  0  0  0  0  0
    2.0095   -0.9585    3.1895 H   0  0  0  0  0  0  0  0  0  0  0  0
    0.5782    0.0665    3.3799 H   0  0  0  0  0  0  0  0  0  0  0  0
  1  2  1  0
  1  6  1  0
  1  7  1  0
  2  3  1  0
  3  4  2  3
  4  8  1  0
  4  9  1  0
  5 11  1  0
 10 11  2  3
 10 13  1  0
 10 14  1  0
 11 12  1  0
 12 15  1  0
 12 16  1  0
 12 17  1  0
M  RAD  1   1   2
M  END
>  <reaction>  (11) 
rmg_rxn_15722

>  <mol_properties>  (11) 
{"0": {"label": "*1", "atom_type": "Cs"}, "1": {"label": "*0", "atom_type": "O2s"}, "4": {"label": "*2", "atom_type": "H0"}, "9": {"label": "*4", "atom_type": "Cd"}, "10": {"label": "*3", "atom_type": "Cd"}}

>  <type>  (11) 
unop_7

>  <geom_source>  (11) 
Heuristics

$$$$

     RDKit          3D

 17 15  0  0  0  0  0  0  0  0999 V2000
   -0.6106    1.3681    0.0498 C   0  0  0  0  0  3  0  0  0  0  0  0
   -1.5458    0.6098   -0.6349 O   0  0  0  0  0  0  0  0  0  0  0  0
   -2.0378   -0.5367   -0.1216 N   0  0  0  0  0  0  0  0  0  0  0  0
   -1.6174   -1.0345    0.9610 C   0  0  0  0  0  0  0  0  0  0  0  0
    0.5857    0.7457    0.0272 H   0  0  0  0  0  0  0  0  0  0  0  0
   -0.8379    1.5259    1.1037 H   0  0  0  0  0  0  0  0  0  0  0  0
   -0.4828    2.2909   -0.5039 H   0  0  0  0  0  0  0  0  0  0  0  0
   -2.0971   -1.9465    1.2696 H   0  0  0  0  0  0  0  0  0  0  0  0
   -0.8223   -0.6442    1.5910 H   0  0  0  0  0  0  0  0  0  0  0  0
    2.5252    0.2351    1.0033 C   0  0  0  0  0  0  0  0  0  0  0  0
    1.6928    0.0792    0.0025 C   0  0  0  0  0  0  0  0  0  0  0  0
    1.8063   -0.7948   -1.1868 C   0  0  0  0  0  0  0  0  0  0  0  0
    2.3252    0.9084    1.8210 H   0  0  0  0  0  0  0  0  0  0  0  0
    3.4668   -0.2996    1.0615 H   0  0  0  0  0  0  0  0  0  0  0  0
    0.9622   -1.4837   -1.2291 H   0  0  0  0  0  0  0  0  0  0  0  0
    1.7857   -0.1936   -2.0955 H   0  0  0  0  0  0  0  0  0  0  0  0
    2.7317   -1.3724   -1.1669 H   0  0  0  0  0  0  0  0  0  0  0  0
  1  2  1  0
  1  6  1  0
  1  7  1  0
  2  3  1  0
  3  4  2  3
  4  8  1  0
  4  9  1  0
  5 11  1  0
 10 11  2  3
 10 13  1  0
 10 14  1  0
 11 12  1  0
 12 15  1  0
 12 16  1  0
 12 17  1  0
M  RAD  1   1   2
M  END
>  <reaction>  (12) 
rmg_rxn_15722

>  <mol_properties>  (12) 
{"0": {"label": "*1", "atom_type": "Cs"}, "1": {"label": "*0", "atom_type": "O2s"}, "4": {"label": "*2", "atom_type": "H0"}, "9": {"label": "*4", "atom_type": "Cd"}, "10": {"label": "*3", "atom_type": "Cd"}}

>  <type>  (12) 
unop_8

>  <geom_source>  (12) 
Heuristics

$$$$

     RDKit          3D

 17 15  0  0  0  0  0  0  0  0999 V2000
   -0.9529    1.0006    0.4930 C   0  0  0  0  0  3  0  0  0  0  0  0
   -0.9529    1.0585   -0.9199 O   0  0  0  0  0  0  0  0  0  0  0  0
   -0.9529   -0.2154   -1.4356 N   0  0  0  0  0  0  0  0  0  0  0  0
   -0.9529   -0.2154   -2.6993 C   0  0  0  0  0  0  0  0  0  0  0  0
    0.1177    0.3884    0.9371 H   0  0  0  0  0  0  0  0  0  0  0  0
   -1.8450    0.4904    0.8631 H   0  0  0  0  0  0  0  0  0  0  0  0
   -0.9529    2.0355    0.8308 H   0  0  0  0  0  0  0  0  0  0  0  0
   -0.9529   -1.1824   -3.1841 H   0  0  0  0  0  0  0  0  0  0  0  0
   -0.9529    0.7011   -3.2854 H   0  0  0  0  0  0  0  0  0  0  0  0
    1.6707    0.1240    2.5604 C   0  0  0  0  0  0  0  0  0  0  0  0
    1.1831   -0.2208    1.3791 C   0  0  0  0  0  0  0  0  0  0  0  0
    1.2009   -1.6032    0.8109 C   0  0  0  0  0  0  0  0  0  0  0  0
    1.6266    1.1461    2.9151 H   0  0  0  0  0  0  0  0  0  0  0  0
    2.1328   -0.6058    3.2169 H   0  0  0  0  0  0  0  0  0  0  0  0
    1.7454   -1.6273   -0.1365 H   0  0  0  0  0  0  0  0  0  0  0  0
    1.6716   -2.3097    1.4958 H   0  0  0  0  0  0  0  0  0  0  0  0
    0.1859   -1.9508    0.6017 H   0  0  0  0  0  0  0  0  0  0  0  0
  1  2  1  0
  1  6  1  0
  1  7  1  0
  2  3  1  0
  3  4  2  3
  4  8  1  0
  4  9  1  0
  5 11  1  0
 10 11  2  3
 10 13  1  0
 10 14  1  0
 11 12  1  0
 12 15  1  0
 12 16  1  0
 12 17  1  0
M  RAD  1   1   2
M  END
>  <reaction>  (13) 
rmg_rxn_15722

>  <mol_properties>  (13) 
{"0": {"label": "*1", "atom_type": "Cs"}, "1": {"label": "*0", "atom_type": "O2s"}, "4": {"label": "*2", "atom_type": "H0"}, "9": {"label": "*4", "atom_type": "Cd"}, "10": {"label": "*3", "atom_type": "Cd"}}

>  <type>  (13) 
unop_9

>  <geom_source>  (13) 
Heuristics

$$$$

     RDKit          3D

 17 15  0  0  0  0  0  0  0  0999 V2000
   -0.9729    0.9256    0.4257 C   0  0  0  0  0  3  0  0  0  0  0  0
   -0.9729    0.9835   -0.9872 O   0  0  0  0  0  0  0  0  0  0  0  0
   -0.9729   -0.2904   -1.5029 N   0  0  0  0  0  0  0  0  0  0  0  0
   -0.9729   -0.2904   -2.7666 C   0  0  0  0  0  0  0  0  0  0  0  0
    0.0977    0.3134    0.8698 H   0  0  0  0  0  0  0  0  0  0  0  0
   -1.8650    0.4154    0.7958 H   0  0  0  0  0  0  0  0  0  0  0  0
   -0.9729    1.9605    0.7635 H   0  0  0  0  0  0  0  0  0  0  0  0
   -0.9729   -1.2575   -3.2514 H   0  0  0  0  0  0  0  0  0  0  0  0
   -0.9729    0.6261   -3.3527 H   0  0  0  0  0  0  0  0  0  0  0  0
    1.3782   -1.5499    0.9464 C   0  0  0  0  0  0  0  0  0  0  0  0
    1.1631   -0.2958    1.3118 C   0  0  0  0  0  0  0  0  0  0  0  0
    1.5636    0.2992    2.6232 C   0  0  0  0  0  0  0  0  0  0  0  0
    1.0623   -1.9202   -0.0207 H   0  0  0  0  0  0  0  0  0  0  0  0
    1.8793   -2.2528    1.6036 H   0  0  0  0  0  0  0  0  0  0  0  0
    0.6911    0.6806    3.1598 H   0  0  0  0  0  0  0  0  0  0  0  0
    2.0636   -0.4338    3.2574 H   0  0  0  0  0  0  0  0  0  0  0  0
    2.2396    1.1454    2.4761 H   0  0  0  0  0  0  0  0  0  0  0  0
  1  2  1  0
  1  6  1  0
  1  7  1  0
  2  3  1  0
  3  4  2  3
  4  8  1  0
  4  9  1  0
  5 11  1  0
 10 11  2  3
 10 13  1  0
 10 14  1  0
 11 12  1  0
 12 15  1  0
 12 16  1  0
 12 17  1  0
M  RAD  1   1   2
M  END
>  <reaction>  (14) 
rmg_rxn_15722

>  <mol_properties>  (14) 
{"0": {"label": "*1", "atom_type": "Cs"}, "1": {"label": "*0", "atom_type": "O2s"}, "4": {"label": "*2", "atom_type": "H0"}, "9": {"label": "*4", "atom_type": "Cd"}, "10": {"label": "*3", "atom_type": "Cd"}}

>  <type>  (14) 
unop_10

>  <geom_source>  (14) 
Heuristics

$$$$

     RDKit          3D

 17 15  0  0  0  0  0  0  0  0999 V2000
   -0.6121   -1.3648    0.1048 C   0  0  0  0  0  3  0  0  0  0  0  0
   -1.5459   -0.6336   -0.6104 O   0  0  0  0  0  0  0  0  0  0  0  0
   -2.0367    0.5334   -0.1441 N   0  0  0  0  0  0  0  0  0  0  0  0
   -1.6160    1.0740    0.9176 C   0  0  0  0  0  0  0  0  0  0  0  0
    0.5848   -0.7448    0.0583 H   0  0  0  0  0  0  0  0  0  0  0  0
   -0.4851   -2.3093   -0.4111 H   0  0  0  0  0  0  0  0  0  0  0  0
   -0.8403   -1.4796    1.1641 H   0  0  0  0  0  0  0  0  0  0  0  0
   -2.0949    1.9982    1.1890 H   0  0  0  0  0  0  0  0  0  0  0  0
   -0.8216    0.7084    1.5632 H   0  0  0  0  0  0  0  0  0  0  0  0
    2.5188   -0.1859    1.0190 C   0  0  0  0  0  0  0  0  0  0  0  0
    1.6921   -0.0803    0.0069 C   0  0  0  0  0  0  0  0  0  0  0  0
    1.8122    0.7346   -1.2230 C   0  0  0  0  0  0  0  0  0  0  0  0
    2.3143   -0.8183    1.8678 H   0  0  0  0  0  0  0  0  0  0  0  0
    3.4595    0.3520    1.0565 H   0  0  0  0  0  0  0  0  0  0  0  0
    0.9672    1.4188   -1.3046 H   0  0  0  0  0  0  0  0  0  0  0  0
    2.7364    1.3143   -1.2252 H   0  0  0  0  0  0  0  0  0  0  0  0
    1.7988    0.0895   -2.1014 H   0  0  0  0  0  0  0  0  0  0  0  0
  1  2  1  0
  1  6  1  0
  1  7  1  0
  2  3  1  0
  3  4  2  3
  4  8  1  0
  4  9  1  0
  5 11  1  0
 10 11  2  3
 10 13  1  0
 10 14  1  0
 11 12  1  0
 12 15  1  0
 12 16  1  0
 12 17  1  0
M  RAD  1   1   2
M  END
>  <reaction>  (15) 
rmg_rxn_15722

>  <mol_properties>  (15) 
{"0": {"label": "*1", "atom_type": "Cs"}, "1": {"label": "*0", "atom_type": "O2s"}, "4": {"label": "*2", "atom_type": "H0"}, "9": {"label": "*4", "atom_type": "Cd"}, "10": {"label": "*3", "atom_type": "Cd"}}

>  <type>  (15) 
unop_11

>  <geom_source>  (15) 
Heuristics

$$$$

     RDKit          3D

 17 15  0  0  0  0  0  0  0  0999 V2000
   -1.0522    0.9314    0.5489 C   0  0  0  0  0  3  0  0  0  0  0  0
   -1.0522    0.9894   -0.8640 O   0  0  0  0  0  0  0  0  0  0  0  0
   -1.0522   -0.2845   -1.3797 N   0  0  0  0  0  0  0  0  0  0  0  0
   -1.0522   -0.2845   -2.6433 C   0  0  0  0  0  0  0  0  0  0  0  0
    0.0184    0.3193    0.9930 H   0  0  0  0  0  0  0  0  0  0  0  0
   -1.9443    0.4212    0.9190 H   0  0  0  0  0  0  0  0  0  0  0  0
   -1.0522    1.9663    0.8867 H   0  0  0  0  0  0  0  0  0  0  0  0
   -1.0522   -1.2516   -3.1282 H   0  0  0  0  0  0  0  0  0  0  0  0
   -1.0522    0.6320   -3.2295 H   0  0  0  0  0  0  0  0  0  0  0  0
    1.2416   -0.4310    2.7417 C   0  0  0  0  0  0  0  0  0  0  0  0
    1.0838   -0.2899    1.4350 C   0  0  0  0  0  0  0  0  0  0  0  0
    2.0402   -0.7779    0.3950 C   0  0  0  0  0  0  0  0  0  0  0  0
    0.5097   -0.0538    3.4447 H   0  0  0  0  0  0  0  0  0  0  0  0
    2.1111   -0.9304    3.1561 H   0  0  0  0  0  0  0  0  0  0  0  0
    2.4029    0.0504   -0.2190 H   0  0  0  0  0  0  0  0  0  0  0  0
    2.9006   -1.2738    0.8460 H   0  0  0  0  0  0  0  0  0  0  0  0
    1.5518   -1.4836   -0.2819 H   0  0  0  0  0  0  0  0  0  0  0  0
  1  2  1  0
  1  6  1  0
  1  7  1  0
  2  3  1  0
  3  4  2  3
  4  8  1  0
  4  9  1  0
  5 11  1  0
 10 11  2  3
 10 13  1  0
 10 14  1  0
 11 12  1  0
 12 15  1  0
 12 16  1  0
 12 17  1  0
M  RAD  1   1   2
M  END
>  <reaction>  (16) 
rmg_rxn_15722

>  <mol_properties>  (16) 
{"0": {"label": "*1", "atom_type": "Cs"}, "1": {"label": "*0", "atom_type": "O2s"}, "4": {"label": "*2", "atom_type": "H0"}, "9": {"label": "*4", "atom_type": "Cd"}, "10": {"label": "*3", "atom_type": "Cd"}}

>  <type>  (16) 
unop_12

>  <geom_source>  (16) 
Heuristics

$$$$

     RDKit          3D

 17 15  0  0  0  0  0  0  0  0999 V2000
   -0.2334    1.4443    0.0256 C   0  0  0  0  0  3  0  0  0  0  0  0
   -1.2877    0.7066   -0.4800 O   0  0  0  0  0  0  0  0  0  0  0  0
   -1.8792   -0.0988    0.4708 N   0  0  0  0  0  0  0  0  0  0  0  0
   -2.8113   -0.8458    0.0581 C   0  0  0  0  0  0  0  0  0  0  0  0
    0.8778    0.6780    0.0156 H   0  0  0  0  0  0  0  0  0  0  0  0
   -0.3610    1.7303    1.0662 H   0  0  0  0  0  0  0  0  0  0  0  0
   -0.0417    2.2718   -0.6477 H   0  0  0  0  0  0  0  0  0  0  0  0
   -3.2833   -1.4724    0.7932 H   0  0  0  0  0  0  0  0  0  0  0  0
   -3.1559   -0.8846   -0.9710 H   0  0  0  0  0  0  0  0  0  0  0  0
    3.0863    0.4010    0.1872 C   0  0  0  0  0  0  0  0  0  0  0  0
    1.8947   -0.1166    0.0118 C   0  0  0  0  0  0  0  0  0  0  0  0
    1.5116   -1.5322   -0.1954 C   0  0  0  0  0  0  0  0  0  0  0  0
    3.2387    1.4581    0.3301 H   0  0  0  0  0  0  0  0  0  0  0  0
    3.9855   -0.2054    0.1991 H   0  0  0  0  0  0  0  0  0  0  0  0
    0.9861   -1.6416   -1.1442 H   0  0  0  0  0  0  0  0  0  0  0  0
    2.3861   -2.1847   -0.2006 H   0  0  0  0  0  0  0  0  0  0  0  0
    0.8346   -1.8548    0.5956 H   0  0  0  0  0  0  0  0  0  0  0  0
  1  2  1  0
  1  6  1  0
  1  7  1  0
  2  3  1  0
  3  4  2  3
  4  8  1  0
  4  9  1  0
  5 11  1  0
 10 11  2  3
 10 13  1  0
 10 14  1  0
 11 12  1  0
 12 15  1  0
 12 16  1  0
 12 17  1  0
M  RAD  1   1   2
M  END
>  <reaction>  (17) 
rmg_rxn_15722

>  <mol_properties>  (17) 
{"0": {"label": "*1", "atom_type": "Cs"}, "1": {"label": "*0", "atom_type": "O2s"}, "4": {"label": "*2", "atom_type": "H0"}, "9": {"label": "*4", "atom_type": "Cd"}, "10": {"label": "*3", "atom_type": "Cd"}}

>  <type>  (17) 
unop_13

>  <geom_source>  (17) 
Heuristics

$$$$

     RDKit          3D

 17 15  0  0  0  0  0  0  0  0999 V2000
   -0.6128   -1.3585    0.1557 C   0  0  0  0  0  3  0  0  0  0  0  0
   -1.5472   -0.6557   -0.5867 O   0  0  0  0  0  0  0  0  0  0  0  0
   -2.0381    0.5282   -0.1654 N   0  0  0  0  0  0  0  0  0  0  0  0
   -1.6167    1.1096    0.8743 C   0  0  0  0  0  0  0  0  0  0  0  0
    0.5842   -0.7410    0.0852 H   0  0  0  0  0  0  0  0  0  0  0  0
   -0.4858   -2.3222   -0.3235 H   0  0  0  0  0  0  0  0  0  0  0  0
   -0.8405   -1.4325    1.2188 H   0  0  0  0  0  0  0  0  0  0  0  0
   -2.0956    2.0436    1.1101 H   0  0  0  0  0  0  0  0  0  0  0  0
   -0.8213    0.7697    1.5325 H   0  0  0  0  0  0  0  0  0  0  0  0
    2.5121   -0.1415    1.0326 C   0  0  0  0  0  0  0  0  0  0  0  0
    1.6924   -0.0802    0.0112 C   0  0  0  0  0  0  0  0  0  0  0  0
    1.8221    0.6785   -1.2533 C   0  0  0  0  0  0  0  0  0  0  0  0
    2.3006   -0.7345    1.9076 H   0  0  0  0  0  0  0  0  0  0  0  0
    3.4531    0.3969    1.0528 H   0  0  0  0  0  0  0  0  0  0  0  0
    0.9760    1.3553   -1.3744 H   0  0  0  0  0  0  0  0  0  0  0  0
    2.7447    1.2608   -1.2727 H   0  0  0  0  0  0  0  0  0  0  0  0
    1.8198   -0.0061   -2.1014 H   0  0  0  0  0  0  0  0  0  0  0  0
  1  2  1  0
  1  6  1  0
  1  7  1  0
  2  3  1  0
  3  4  2  3
  4  8  1  0
  4  9  1  0
  5 11  1  0
 10 11  2  3
 10 13  1  0
 10 14  1  0
 11 12  1  0
 12 15  1  0
 12 16  1  0
 12 17  1  0
M  RAD  1   1   2
M  END
>  <reaction>  (18) 
rmg_rxn_15722

>  <mol_properties>  (18) 
{"0": {"label": "*1", "atom_type": "Cs"}, "1": {"label": "*0", "atom_type": "O2s"}, "4": {"label": "*2", "atom_type": "H0"}, "9": {"label": "*4", "atom_type": "Cd"}, "10": {"label": "*3", "atom_type": "Cd"}}

>  <type>  (18) 
unop_14

>  <geom_source>  (18) 
Heuristics

$$$$

     RDKit          3D

 17 15  0  0  0  0  0  0  0  0999 V2000
   -0.9739    0.8746    0.4055 C   0  0  0  0  0  3  0  0  0  0  0  0
   -0.9740    0.9325   -1.0074 O   0  0  0  0  0  0  0  0  0  0  0  0
   -0.9740   -0.3414   -1.5232 N   0  0  0  0  0  0  0  0  0  0  0  0
   -0.9740   -0.3414   -2.7868 C   0  0  0  0  0  0  0  0  0  0  0  0
    0.0966    0.2624    0.8496 H   0  0  0  0  0  0  0  0  0  0  0  0
   -1.8661    0.3644    0.7756 H   0  0  0  0  0  0  0  0  0  0  0  0
   -0.9740    1.9095    0.7433 H   0  0  0  0  0  0  0  0  0  0  0  0
   -0.9740   -1.3085   -3.2716 H   0  0  0  0  0  0  0  0  0  0  0  0
   -0.9740    0.5751   -3.3729 H   0  0  0  0  0  0  0  0  0  0  0  0
    1.1203   -1.6583    1.4660 C   0  0  0  0  0  0  0  0  0  0  0  0
    1.1620   -0.3468    1.2915 C   0  0  0  0  0  0  0  0  0  0  0  0
    1.8107    0.6251    2.2237 C   0  0  0  0  0  0  0  0  0  0  0  0
    0.6332   -2.3097    0.7513 H   0  0  0  0  0  0  0  0  0  0  0  0
    1.5731   -2.1288    2.3324 H   0  0  0  0  0  0  0  0  0  0  0  0
    1.0847    1.3545    2.5920 H   0  0  0  0  0  0  0  0  0  0  0  0
    2.2547    0.1189    3.0817 H   0  0  0  0  0  0  0  0  0  0  0  0
    2.5952    1.1894    1.7130 H   0  0  0  0  0  0  0  0  0  0  0  0
  1  2  1  0
  1  6  1  0
  1  7  1  0
  2  3  1  0
  3  4  2  3
  4  8  1  0
  4  9  1  0
  5 11  1  0
 10 11  2  3
 10 13  1  0
 10 14  1  0
 11 12  1  0
 12 15  1  0
 12 16  1  0
 12 17  1  0
M  RAD  1   1   2
M  END
>  <reaction>  (19) 
rmg_rxn_15722

>  <mol_properties>  (19) 
{"0": {"label": "*1", "atom_type": "Cs"}, "1": {"label": "*0", "atom_type": "O2s"}, "4": {"label": "*2", "atom_type": "H0"}, "9": {"label": "*4", "atom_type": "Cd"}, "10": {"label": "*3", "atom_type": "Cd"}}

>  <type>  (19) 
unop_15

>  <geom_source>  (19) 
Heuristics

$$$$

     RDKit          3D

 17 15  0  0  0  0  0  0  0  0999 V2000
   -0.2322   -1.4448   -0.0492 C   0  0  0  0  0  3  0  0  0  0  0  0
   -1.2869   -0.7176    0.4709 O   0  0  0  0  0  0  0  0  0  0  0  0
   -1.8777    0.1072   -0.4635 N   0  0  0  0  0  0  0  0  0  0  0  0
   -2.8107    0.8449   -0.0364 C   0  0  0  0  0  0  0  0  0  0  0  0
    0.8781   -0.6777   -0.0263 H   0  0  0  0  0  0  0  0  0  0  0  0
   -0.3606   -1.7119   -1.0947 H   0  0  0  0  0  0  0  0  0  0  0  0
   -0.0393   -2.2843    0.6087 H   0  0  0  0  0  0  0  0  0  0  0  0
   -3.2818    1.4869   -0.7587 H   0  0  0  0  0  0  0  0  0  0  0  0
   -3.1570    0.8614    0.9927 H   0  0  0  0  0  0  0  0  0  0  0  0
    3.0894   -0.4002   -0.1573 C   0  0  0  0  0  0  0  0  0  0  0  0
    1.8941    0.1181   -0.0112 C   0  0  0  0  0  0  0  0  0  0  0  0
    1.5055    1.5354    0.1724 C   0  0  0  0  0  0  0  0  0  0  0  0
    3.2453   -1.4587   -0.2855 H   0  0  0  0  0  0  0  0  0  0  0  0
    3.9881    0.2069   -0.1589 H   0  0  0  0  0  0  0  0  0  0  0  0
    0.8446    1.8485   -0.6360 H   0  0  0  0  0  0  0  0  0  0  0  0
    0.9603    1.6548    1.1088 H   0  0  0  0  0  0  0  0  0  0  0  0
    2.3791    2.1890    0.1886 H   0  0  0  0  0  0  0  0  0  0  0  0
  1  2  1  0
  1  6  1  0
  1  7  1  0
  2  3  1  0
  3  4  2  3
  4  8  1  0
  4  9  1  0
  5 11  1  0
 10 11  2  3
 10 13  1  0
 10 14  1  0
 11 12  1  0
 12 15  1  0
 12 16  1  0
 12 17  1  0
M  RAD  1   1   2
M  END
>  <reaction>  (20) 
rmg_rxn_15722

>  <mol_properties>  (20) 
{"0": {"label": "*1", "atom_type": "Cs"}, "1": {"label": "*0", "atom_type": "O2s"}, "4": {"label": "*2", "atom_type": "H0"}, "9": {"label": "*4", "atom_type": "Cd"}, "10": {"label": "*3", "atom_type": "Cd"}}

>  <type>  (20) 
unop_16

>  <geom_source>  (20) 
Heuristics

$$$$

     RDKit          3D

 17 15  0  0  0  0  0  0  0  0999 V2000
   -1.0055    0.8204    0.4223 C   0  0  0  0  0  3  0  0  0  0  0  0
   -1.0055    0.8783   -0.9906 O   0  0  0  0  0  0  0  0  0  0  0  0
   -1.0055   -0.3956   -1.5063 N   0  0  0  0  0  0  0  0  0  0  0  0
   -1.0055   -0.3956   -2.7700 C   0  0  0  0  0  0  0  0  0  0  0  0
    0.0651    0.2082    0.8664 H   0  0  0  0  0  0  0  0  0  0  0  0
   -1.8976    0.3102    0.7924 H   0  0  0  0  0  0  0  0  0  0  0  0
   -1.0055    1.8553    0.7601 H   0  0  0  0  0  0  0  0  0  0  0  0
   -1.0055   -1.3627   -3.2548 H   0  0  0  0  0  0  0  0  0  0  0  0
   -1.0055    0.5209   -3.3561 H   0  0  0  0  0  0  0  0  0  0  0  0
    0.9827   -1.4984    2.0337 C   0  0  0  0  0  0  0  0  0  0  0  0
    1.1305   -0.4010    1.3084 C   0  0  0  0  0  0  0  0  0  0  0  0
    2.0784    0.7129    1.6164 C   0  0  0  0  0  0  0  0  0  0  0  0
    0.2763   -2.2704    1.7556 H   0  0  0  0  0  0  0  0  0  0  0  0
    1.5645   -1.6643    2.9343 H   0  0  0  0  0  0  0  0  0  0  0  0
    1.5413    1.6561    1.7454 H   0  0  0  0  0  0  0  0  0  0  0  0
    2.6459    0.5134    2.5262 H   0  0  0  0  0  0  0  0  0  0  0  0
    2.7848    0.8606    0.7955 H   0  0  0  0  0  0  0  0  0  0  0  0
  1  2  1  0
  1  6  1  0
  1  7  1  0
  2  3  1  0
  3  4  2  3
  4  8  1  0
  4  9  1  0
  5 11  1  0
 10 11  2  3
 10 13  1  0
 10 14  1  0
 11 12  1  0
 12 15  1  0
 12 16  1  0
 12 17  1  0
M  RAD  1   1   2
M  END
>  <reaction>  (21) 
rmg_rxn_15722

>  <mol_properties>  (21) 
{"0": {"label": "*1", "atom_type": "Cs"}, "1": {"label": "*0", "atom_type": "O2s"}, "4": {"label": "*2", "atom_type": "H0"}, "9": {"label": "*4", "atom_type": "Cd"}, "10": {"label": "*3", "atom_type": "Cd"}}

>  <type>  (21) 
unop_17

>  <geom_source>  (21) 
Heuristics

$$$$

     RDKit          3D

 17 15  0  0  0  0  0  0  0  0999 V2000
   -0.2324    1.4428    0.0514 C   0  0  0  0  0  3  0  0  0  0  0  0
   -1.2873    0.7172   -0.4702 O   0  0  0  0  0  0  0  0  0  0  0  0
   -1.8802   -0.1078    0.4628 N   0  0  0  0  0  0  0  0  0  0  0  0
   -2.8140   -0.8434    0.0338 C   0  0  0  0  0  0  0  0  0  0  0  0
    0.8780    0.6757    0.0276 H   0  0  0  0  0  0  0  0  0  0  0  0
   -0.3609    1.7081    1.0973 H   0  0  0  0  0  0  0  0  0  0  0  0
   -0.0386    2.2833   -0.6049 H   0  0  0  0  0  0  0  0  0  0  0  0
   -3.2870   -1.4857    0.7546 H   0  0  0  0  0  0  0  0  0  0  0  0
   -3.1588   -0.8581   -0.9959 H   0  0  0  0  0  0  0  0  0  0  0  0
    3.0899    0.4030    0.1540 C   0  0  0  0  0  0  0  0  0  0  0  0
    1.8953   -0.1181    0.0117 C   0  0  0  0  0  0  0  0  0  0  0  0
    1.5098   -1.5366   -0.1694 C   0  0  0  0  0  0  0  0  0  0  0  0
    3.2440    1.4620    0.2797 H   0  0  0  0  0  0  0  0  0  0  0  0
    3.9900   -0.2021    0.1528 H   0  0  0  0  0  0  0  0  0  0  0  0
    0.9624   -1.6583   -1.1042 H   0  0  0  0  0  0  0  0  0  0  0  0
    2.3850   -2.1879   -0.1871 H   0  0  0  0  0  0  0  0  0  0  0  0
    0.8518   -1.8505    0.6410 H   0  0  0  0  0  0  0  0  0  0  0  0
  1  2  1  0
  1  6  1  0
  1  7  1  0
  2  3  1  0
  3  4  2  3
  4  8  1  0
  4  9  1  0
  5 11  1  0
 10 11  2  3
 10 13  1  0
 10 14  1  0
 11 12  1  0
 12 15  1  0
 12 16  1  0
 12 17  1  0
M  RAD  1   1   2
M  END
>  <reaction>  (22) 
rmg_rxn_15722

>  <mol_properties>  (22) 
{"0": {"label": "*1", "atom_type": "Cs"}, "1": {"label": "*0", "atom_type": "O2s"}, "4": {"label": "*2", "atom_type": "H0"}, "9": {"label": "*4", "atom_type": "Cd"}, "10": {"label": "*3", "atom_type": "Cd"}}

>  <type>  (22) 
unop_18

>  <geom_source>  (22) 
Heuristics

$$$$

     RDKit          3D

 17 15  0  0  0  0  0  0  0  0999 V2000
   -0.9576    0.9041    0.4067 C   0  0  0  0  0  3  0  0  0  0  0  0
   -0.9576    0.9620   -1.0062 O   0  0  0  0  0  0  0  0  0  0  0  0
   -0.9576   -0.3118   -1.5219 N   0  0  0  0  0  0  0  0  0  0  0  0
   -0.9576   -0.3118   -2.7856 C   0  0  0  0  0  0  0  0  0  0  0  0
    0.1130    0.2919    0.8508 H   0  0  0  0  0  0  0  0  0  0  0  0
   -1.8497    0.3939    0.7768 H   0  0  0  0  0  0  0  0  0  0  0  0
   -0.9576    1.9390    0.7445 H   0  0  0  0  0  0  0  0  0  0  0  0
   -0.9576   -1.2789   -3.2704 H   0  0  0  0  0  0  0  0  0  0  0  0
   -0.9576    0.6046   -3.3717 H   0  0  0  0  0  0  0  0  0  0  0  0
    2.2616    0.3988    1.5503 C   0  0  0  0  0  0  0  0  0  0  0  0
    1.1784   -0.3173    1.2928 C   0  0  0  0  0  0  0  0  0  0  0  0
    0.6662   -1.4377    2.1392 C   0  0  0  0  0  0  0  0  0  0  0  0
    2.5802    1.1997    0.8951 H   0  0  0  0  0  0  0  0  0  0  0  0
    2.8701    0.2089    2.4282 H   0  0  0  0  0  0  0  0  0  0  0  0
    0.6214   -2.3681    1.5672 H   0  0  0  0  0  0  0  0  0  0  0  0
    1.3006   -1.6008    3.0112 H   0  0  0  0  0  0  0  0  0  0  0  0
   -0.3493   -1.2302    2.4861 H   0  0  0  0  0  0  0  0  0  0  0  0
  1  2  1  0
  1  6  1  0
  1  7  1  0
  2  3  1  0
  3  4  2  3
  4  8  1  0
  4  9  1  0
  5 11  1  0
 10 11  2  3
 10 13  1  0
 10 14  1  0
 11 12  1  0
 12 15  1  0
 12 16  1  0
 12 17  1  0
M  RAD  1   1   2
M  END
>  <reaction>  (23) 
rmg_rxn_15722

>  <mol_properties>  (23) 
{"0": {"label": "*1", "atom_type": "Cs"}, "1": {"label": "*0", "atom_type": "O2s"}, "4": {"label": "*2", "atom_type": "H0"}, "9": {"label": "*4", "atom_type": "Cd"}, "10": {"label": "*3", "atom_type": "Cd"}}

>  <type>  (23) 
unop_19

>  <geom_source>  (23) 
Heuristics

$$$$

     RDKit          3D

 17 15  0  0  0  0  0  0  0  0999 V2000
   -0.6117   -1.3639    0.1106 C   0  0  0  0  0  3  0  0  0  0  0  0
   -1.5460   -0.6363   -0.6078 O   0  0  0  0  0  0  0  0  0  0  0  0
   -2.0372    0.5325   -0.1467 N   0  0  0  0  0  0  0  0  0  0  0  0
   -1.6170    1.0779    0.9127 C   0  0  0  0  0  0  0  0  0  0  0  0
    0.5849   -0.7439    0.0613 H   0  0  0  0  0  0  0  0  0  0  0  0
   -0.4842   -2.3105   -0.4013 H   0  0  0  0  0  0  0  0  0  0  0  0
   -0.8401   -1.4745    1.1704 H   0  0  0  0  0  0  0  0  0  0  0  0
   -2.0963    2.0032    1.1800 H   0  0  0  0  0  0  0  0  0  0  0  0
   -0.8227    0.7155    1.5602 H   0  0  0  0  0  0  0  0  0  0  0  0
    2.5181   -0.1808    1.0210 C   0  0  0  0  0  0  0  0  0  0  0  0
    1.6924   -0.0798    0.0076 C   0  0  0  0  0  0  0  0  0  0  0  0
    1.8137    0.7281   -1.2268 C   0  0  0  0  0  0  0  0  0  0  0  0
    2.3121   -0.8080    1.8731 H   0  0  0  0  0  0  0  0  0  0  0  0
    3.4594    0.3565    1.0565 H   0  0  0  0  0  0  0  0  0  0  0  0
    1.7997    0.0780   -2.1014 H   0  0  0  0  0  0  0  0  0  0  0  0
    0.9696    1.4128   -1.3125 H   0  0  0  0  0  0  0  0  0  0  0  0
    2.7386    1.3067   -1.2322 H   0  0  0  0  0  0  0  0  0  0  0  0
  1  2  1  0
  1  6  1  0
  1  7  1  0
  2  3  1  0
  3  4  2  3
  4  8  1  0
  4  9  1  0
  5 11  1  0
 10 11  2  3
 10 13  1  0
 10 14  1  0
 11 12  1  0
 12 15  1  0
 12 16  1  0
 12 17  1  0
M  RAD  1   1   2
M  END
>  <reaction>  (24) 
rmg_rxn_15722

>  <mol_properties>  (24) 
{"0": {"label": "*1", "atom_type": "Cs"}, "1": {"label": "*0", "atom_type": "O2s"}, "4": {"label": "*2", "atom_type": "H0"}, "9": {"label": "*4", "atom_type": "Cd"}, "10": {"label": "*3", "atom_type": "Cd"}}

>  <type>  (24) 
unop_20

>  <geom_source>  (24) 
Heuristics

$$$$

     RDKit          3D

 17 15  0  0  0  0  0  0  0  0999 V2000
   -0.9981    0.9432    0.4587 C   0  0  0  0  0  3  0  0  0  0  0  0
   -0.9982    1.0012   -0.9541 O   0  0  0  0  0  0  0  0  0  0  0  0
   -0.9982   -0.2727   -1.4699 N   0  0  0  0  0  0  0  0  0  0  0  0
   -0.9982   -0.2727   -2.7335 C   0  0  0  0  0  0  0  0  0  0  0  0
    0.0725    0.3311    0.9029 H   0  0  0  0  0  0  0  0  0  0  0  0
   -1.8903    0.4331    0.8289 H   0  0  0  0  0  0  0  0  0  0  0  0
   -0.9982    1.9781    0.7965 H   0  0  0  0  0  0  0  0  0  0  0  0
   -0.9982   -1.2398   -3.2183 H   0  0  0  0  0  0  0  0  0  0  0  0
   -0.9981    0.6438   -3.3196 H   0  0  0  0  0  0  0  0  0  0  0  0
    1.6916   -1.2184    0.5955 C   0  0  0  0  0  0  0  0  0  0  0  0
    1.1378   -0.2781    1.3448 C   0  0  0  0  0  0  0  0  0  0  0  0
    1.3800   -0.0899    2.8077 C   0  0  0  0  0  0  0  0  0  0  0  0
    1.4739   -1.3015   -0.4619 H   0  0  0  0  0  0  0  0  0  0  0  0
    2.3844   -1.9408    1.0141 H   0  0  0  0  0  0  0  0  0  0  0  0
    0.4463   -0.1712    3.3701 H   0  0  0  0  0  0  0  0  0  0  0  0
    2.0799   -0.8316    3.1947 H   0  0  0  0  0  0  0  0  0  0  0  0
    1.7858    0.9047    3.0099 H   0  0  0  0  0  0  0  0  0  0  0  0
  1  2  1  0
  1  6  1  0
  1  7  1  0
  2  3  1  0
  3  4  2  3
  4  8  1  0
  4  9  1  0
  5 11  1  0
 10 11  2  3
 10 13  1  0
 10 14  1  0
 11 12  1  0
 12 15  1  0
 12 16  1  0
 12 17  1  0
M  RAD  1   1   2
M  END
>  <reaction>  (25) 
rmg_rxn_15722

>  <mol_properties>  (25) 
{"0": {"label": "*1", "atom_type": "Cs"}, "1": {"label": "*0", "atom_type": "O2s"}, "4": {"label": "*2", "atom_type": "H0"}, "9": {"label": "*4", "atom_type": "Cd"}, "10": {"label": "*3", "atom_type": "Cd"}}

>  <type>  (25) 
unop_21

>  <geom_source>  (25) 
Heuristics

$$$$

     RDKit          3D

 17 15  0  0  0  0  0  0  0  0999 V2000
   -1.0009    0.8751    0.4236 C   0  0  0  0  0  3  0  0  0  0  0  0
   -1.0009    0.9330   -0.9893 O   0  0  0  0  0  0  0  0  0  0  0  0
   -1.0009   -0.3409   -1.5050 N   0  0  0  0  0  0  0  0  0  0  0  0
   -1.0009   -0.3409   -2.7686 C   0  0  0  0  0  0  0  0  0  0  0  0
    0.0697    0.2629    0.8677 H   0  0  0  0  0  0  0  0  0  0  0  0
   -1.8930    0.3649    0.7937 H   0  0  0  0  0  0  0  0  0  0  0  0
   -1.0009    1.9100    0.7614 H   0  0  0  0  0  0  0  0  0  0  0  0
   -1.0009   -1.3080   -3.2535 H   0  0  0  0  0  0  0  0  0  0  0  0
   -1.0009    0.5756   -3.3548 H   0  0  0  0  0  0  0  0  0  0  0  0
    2.3243    0.1556    1.0163 C   0  0  0  0  0  0  0  0  0  0  0  0
    1.1351   -0.3463    1.3097 C   0  0  0  0  0  0  0  0  0  0  0  0
    0.7976   -1.0815    2.5666 C   0  0  0  0  0  0  0  0  0  0  0  0
    2.5044    0.6791    0.0858 H   0  0  0  0  0  0  0  0  0  0  0  0
    3.1627    0.0605    1.6984 H   0  0  0  0  0  0  0  0  0  0  0  0
    0.4438   -2.0914    2.3434 H   0  0  0  0  0  0  0  0  0  0  0  0
    1.6616   -1.1584    3.2277 H   0  0  0  0  0  0  0  0  0  0  0  0
   -0.0066   -0.5769    3.1083 H   0  0  0  0  0  0  0  0  0  0  0  0
  1  2  1  0
  1  6  1  0
  1  7  1  0
  2  3  1  0
  3  4  2  3
  4  8  1  0
  4  9  1  0
  5 11  1  0
 10 11  2  3
 10 13  1  0
 10 14  1  0
 11 12  1  0
 12 15  1  0
 12 16  1  0
 12 17  1  0
M  RAD  1   1   2
M  END
>  <reaction>  (26) 
rmg_rxn_15722

>  <mol_properties>  (26) 
{"0": {"label": "*1", "atom_type": "Cs"}, "1": {"label": "*0", "atom_type": "O2s"}, "4": {"label": "*2", "atom_type": "H0"}, "9": {"label": "*4", "atom_type": "Cd"}, "10": {"label": "*3", "atom_type": "Cd"}}

>  <type>  (26) 
unop_22

>  <geom_source>  (26) 
Heuristics

$$$$

     RDKit          3D

 17 15  0  0  0  0  0  0  0  0999 V2000
   -1.0562    0.8144    0.4853 C   0  0  0  0  0  3  0  0  0  0  0  0
   -1.0562    0.8723   -0.9275 O   0  0  0  0  0  0  0  0  0  0  0  0
   -1.0562   -0.4016   -1.4433 N   0  0  0  0  0  0  0  0  0  0  0  0
   -1.0562   -0.4016   -2.7069 C   0  0  0  0  0  0  0  0  0  0  0  0
    0.0144    0.2022    0.9295 H   0  0  0  0  0  0  0  0  0  0  0  0
   -1.9483    0.3042    0.8555 H   0  0  0  0  0  0  0  0  0  0  0  0
   -1.0562    1.8493    0.8231 H   0  0  0  0  0  0  0  0  0  0  0  0
   -1.0562   -1.3687   -3.1917 H   0  0  0  0  0  0  0  0  0  0  0  0
   -1.0562    0.5149   -3.2930 H   0  0  0  0  0  0  0  0  0  0  0  0
    1.0050   -1.0760    2.5112 C   0  0  0  0  0  0  0  0  0  0  0  0
    1.0798   -0.4070    1.3714 C   0  0  0  0  0  0  0  0  0  0  0  0
    2.2804    0.3424    0.8907 C   0  0  0  0  0  0  0  0  0  0  0  0
    0.1032   -1.5998    2.8026 H   0  0  0  0  0  0  0  0  0  0  0  0
    1.8454   -1.1238    3.1957 H   0  0  0  0  0  0  0  0  0  0  0  0
    2.0444    1.3988    0.7389 H   0  0  0  0  0  0  0  0  0  0  0  0
    3.1046    0.2732    1.6017 H   0  0  0  0  0  0  0  0  0  0  0  0
    2.6222   -0.0470   -0.0717 H   0  0  0  0  0  0  0  0  0  0  0  0
  1  2  1  0
  1  6  1  0
  1  7  1  0
  2  3  1  0
  3  4  2  3
  4  8  1  0
  4  9  1  0
  5 11  1  0
 10 11  2  3
 10 13  1  0
 10 14  1  0
 11 12  1  0
 12 15  1  0
 12 16  1  0
 12 17  1  0
M  RAD  1   1   2
M  END
>  <reaction>  (27) 
rmg_rxn_15722

>  <mol_properties>  (27) 
{"0": {"label": "*1", "atom_type": "Cs"}, "1": {"label": "*0", "atom_type": "O2s"}, "4": {"label": "*2", "atom_type": "H0"}, "9": {"label": "*4", "atom_type": "Cd"}, "10": {"label": "*3", "atom_type": "Cd"}}

>  <type>  (27) 
unop_23

>  <geom_source>  (27) 
Heuristics

$$$$

     RDKit          3D

 17 15  0  0  0  0  0  0  0  0999 V2000
   -1.0272    0.9207    0.4739 C   0  0  0  0  0  3  0  0  0  0  0  0
   -1.0272    0.9786   -0.9390 O   0  0  0  0  0  0  0  0  0  0  0  0
   -1.0272   -0.2953   -1.4548 N   0  0  0  0  0  0  0  0  0  0  0  0
   -1.0272   -0.2953   -2.7184 C   0  0  0  0  0  0  0  0  0  0  0  0
    0.0434    0.3085    0.9180 H   0  0  0  0  0  0  0  0  0  0  0  0
   -1.9193    0.4105    0.8440 H   0  0  0  0  0  0  0  0  0  0  0  0
   -1.0272    1.9556    0.8117 H   0  0  0  0  0  0  0  0  0  0  0  0
   -1.0272   -1.2624   -3.2032 H   0  0  0  0  0  0  0  0  0  0  0  0
   -1.0272    0.6212   -3.3045 H   0  0  0  0  0  0  0  0  0  0  0  0
    1.9924   -0.7551    0.4853 C   0  0  0  0  0  0  0  0  0  0  0  0
    1.1088   -0.3007    1.3599 C   0  0  0  0  0  0  0  0  0  0  0  0
    1.2251   -0.4261    2.8449 C   0  0  0  0  0  0  0  0  0  0  0  0
    1.8490   -0.6319   -0.5809 H   0  0  0  0  0  0  0  0  0  0  0  0
    2.8933   -1.2680    0.8052 H   0  0  0  0  0  0  0  0  0  0  0  0
    0.3745   -0.9754    3.2566 H   0  0  0  0  0  0  0  0  0  0  0  0
    2.1405   -0.9457    3.1306 H   0  0  0  0  0  0  0  0  0  0  0  0
    1.2256    0.5586    3.3194 H   0  0  0  0  0  0  0  0  0  0  0  0
  1  2  1  0
  1  6  1  0
  1  7  1  0
  2  3  1  0
  3  4  2  3
  4  8  1  0
  4  9  1  0
  5 11  1  0
 10 11  2  3
 10 13  1  0
 10 14  1  0
 11 12  1  0
 12 15  1  0
 12 16  1  0
 12 17  1  0
M  RAD  1   1   2
M  END
>  <reaction>  (28) 
rmg_rxn_15722

>  <mol_properties>  (28) 
{"0": {"label": "*1", "atom_type": "Cs"}, "1": {"label": "*0", "atom_type": "O2s"}, "4": {"label": "*2", "atom_type": "H0"}, "9": {"label": "*4", "atom_type": "Cd"}, "10": {"label": "*3", "atom_type": "Cd"}}

>  <type>  (28) 
unop_24

>  <geom_source>  (28) 
Heuristics

$$$$

     RDKit          3D

 17 15  0  0  0  0  0  0  0  0999 V2000
   -0.2330   -1.4427   -0.0364 C   0  0  0  0  0  3  0  0  0  0  0  0
   -1.2873   -0.7099    0.4764 O   0  0  0  0  0  0  0  0  0  0  0  0
   -1.8820    0.1010   -0.4677 N   0  0  0  0  0  0  0  0  0  0  0  0
   -2.8135    0.8447   -0.0476 C   0  0  0  0  0  0  0  0  0  0  0  0
    0.8780   -0.6762   -0.0206 H   0  0  0  0  0  0  0  0  0  0  0  0
   -0.3615   -1.7198   -1.0793 H   0  0  0  0  0  0  0  0  0  0  0  0
   -0.0402   -2.2758    0.6296 H   0  0  0  0  0  0  0  0  0  0  0  0
   -3.2874    1.4762   -0.7773 H   0  0  0  0  0  0  0  0  0  0  0  0
   -3.1558    0.8760    0.9825 H   0  0  0  0  0  0  0  0  0  0  0  0
    3.0882   -0.4031   -0.1730 C   0  0  0  0  0  0  0  0  0  0  0  0
    1.8957    0.1172   -0.0119 C   0  0  0  0  0  0  0  0  0  0  0  0
    1.5129    1.5345    0.1836 C   0  0  0  0  0  0  0  0  0  0  0  0
    3.2403   -1.4613   -0.3080 H   0  0  0  0  0  0  0  0  0  0  0  0
    3.9883    0.2019   -0.1796 H   0  0  0  0  0  0  0  0  0  0  0  0
    0.9798    1.6505    1.1274 H   0  0  0  0  0  0  0  0  0  0  0  0
    2.3883    2.1859    0.1920 H   0  0  0  0  0  0  0  0  0  0  0  0
    0.8428    1.8533   -0.6148 H   0  0  0  0  0  0  0  0  0  0  0  0
  1  2  1  0
  1  6  1  0
  1  7  1  0
  2  3  1  0
  3  4  2  3
  4  8  1  0
  4  9  1  0
  5 11  1  0
 10 11  2  3
 10 13  1  0
 10 14  1  0
 11 12  1  0
 12 15  1  0
 12 16  1  0
 12 17  1  0
M  RAD  1   1   2
M  END
>  <reaction>  (29) 
rmg_rxn_15722

>  <mol_properties>  (29) 
{"0": {"label": "*1", "atom_type": "Cs"}, "1": {"label": "*0", "atom_type": "O2s"}, "4": {"label": "*2", "atom_type": "H0"}, "9": {"label": "*4", "atom_type": "Cd"}, "10": {"label": "*3", "atom_type": "Cd"}}

>  <type>  (29) 
unop_25

>  <geom_source>  (29) 
Heuristics

$$$$

     RDKit          3D

 17 14  0  0  0  0  0  0  0  0999 V2000
    1.1659   -0.5496   -0.5282 O   0  0  0  0  0  0  0  0  0  0  0  0
    1.1296    0.5669    0.2747 N   0  0  0  0  0  0  0  0  0  0  0  0
   -1.5709    0.3311   -0.8016 C   0  0  0  0  0  0  0  0  0  0  0  0
   -0.6196   -0.2539    0.1943 C   0  0  0  0  0  3  0  0  0  0  0  0
   -0.8831   -0.2252    1.5020 C   0  0  0  0  0  0  0  0  0  0  0  0
    1.4014   -1.8266    0.0381 C   0  0  0  0  0  2  0  0  0  0  0  0
    0.9163    1.7348   -0.2348 C   0  0  0  0  0  0  0  0  0  0  0  0
   -1.1616    0.2016   -1.8249 H   0  0  0  0  0  0  0  0  0  0  0  0
   -1.7090    1.4150   -0.6035 H   0  0  0  0  0  0  0  0  0  0  0  0
   -2.5520   -0.1853   -0.7382 H   0  0  0  0  0  0  0  0  0  0  0  0
    0.4514   -0.7839   -0.2110 H   0  0  0  0  0  0  0  0  0  0  0  0
   -1.7972    0.2247    1.8781 H   0  0  0  0  0  0  0  0  0  0  0  0
   -0.1778   -0.6558    2.2047 H   0  0  0  0  0  0  0  0  0  0  0  0
    2.4106   -1.8520    0.5000 H   0  0  0  0  0  0  0  0  0  0  0  0
    1.3429   -2.5986   -0.7563 H   0  0  0  0  0  0  0  0  0  0  0  0
    0.7630    1.8519   -1.3003 H   0  0  0  0  0  0  0  0  0  0  0  0
    0.8901    2.6049    0.4068 H   0  0  0  0  0  0  0  0  0  0  0  0
  1  2  1  0
  1 11  1  0
  2  7  2  3
  3  4  1  0
  3  8  1  0
  3  9  1  0
  3 10  1  0
  4  5  2  3
  5 12  1  0
  5 13  1  0
  6 14  1  0
  6 15  1  0
  7 16  1  0
  7 17  1  0
M  RAD  2   4   2   6   3
M  END
>  <reaction>  (30) 
rmg_rxn_15722

>  <mol_properties>  (30) 
{"0": {"label": "*1", "atom_type": "Cs"}, "1": {"label": "*0", "atom_type": "O2s"}, "4": {"label": "*2", "atom_type": "H0"}, "9": {"label": "*4", "atom_type": "Cd"}, "10": {"label": "*3", "atom_type": "Cd"}}

>  <type>  (30) 
unop_26

>  <geom_source>  (30) 
AutoTST

$$$$

     RDKit          3D

 17 15  0  0  0  0  0  0  0  0999 V2000
   -1.0304    0.8851    0.4563 C   0  0  0  0  0  3  0  0  0  0  0  0
   -1.0304    0.9430   -0.9565 O   0  0  0  0  0  0  0  0  0  0  0  0
   -1.0304   -0.3309   -1.4723 N   0  0  0  0  0  0  0  0  0  0  0  0
   -1.0304   -0.3309   -2.7359 C   0  0  0  0  0  0  0  0  0  0  0  0
    0.0402    0.2729    0.9005 H   0  0  0  0  0  0  0  0  0  0  0  0
   -1.9225    0.3749    0.8265 H   0  0  0  0  0  0  0  0  0  0  0  0
   -1.0304    1.9200    0.7942 H   0  0  0  0  0  0  0  0  0  0  0  0
   -1.0304   -1.2980   -3.2207 H   0  0  0  0  0  0  0  0  0  0  0  0
   -1.0304    0.5856   -3.3220 H   0  0  0  0  0  0  0  0  0  0  0  0
    2.2218   -0.2628    0.6346 C   0  0  0  0  0  0  0  0  0  0  0  0
    1.1056   -0.3363    1.3424 C   0  0  0  0  0  0  0  0  0  0  0  0
    1.0236   -0.7324    2.7814 C   0  0  0  0  0  0  0  0  0  0  0  0
    2.2135    0.0316   -0.4073 H   0  0  0  0  0  0  0  0  0  0  0  0
    3.1865   -0.4952    1.0733 H   0  0  0  0  0  0  0  0  0  0  0  0
    0.3887   -1.6133    2.9067 H   0  0  0  0  0  0  0  0  0  0  0  0
    2.0095   -0.9585    3.1894 H   0  0  0  0  0  0  0  0  0  0  0  0
    0.5782    0.0665    3.3799 H   0  0  0  0  0  0  0  0  0  0  0  0
  1  2  1  0
  1  6  1  0
  1  7  1  0
  2  3  1  0
  3  4  2  3
  4  8  1  0
  4  9  1  0
  5 11  1  0
 10 11  2  3
 10 13  1  0
 10 14  1  0
 11 12  1  0
 12 15  1  0
 12 16  1  0
 12 17  1  0
M  RAD  1   1   2
M  END
>  <reaction>  (31) 
rmg_rxn_15722

>  <mol_properties>  (31) 
{"0": {"label": "*1", "atom_type": "Cs"}, "1": {"label": "*0", "atom_type": "O2s"}, "4": {"label": "*2", "atom_type": "H0"}, "9": {"label": "*4", "atom_type": "Cd"}, "10": {"label": "*3", "atom_type": "Cd"}}

>  <type>  (31) 
unop_27

>  <geom_source>  (31) 
gaussian_log

$$$$
