
     RDKit          3D

  5  4  0  0  0  0  0  0  0  0999 V2000
    0.7361   -0.2872    0.4035 N   0  0  0  0  0  2  0  0  0  0  0  0
   -0.3891   -0.1505   -0.3131 N   0  0  0  0  0  0  0  0  0  0  0  0
    1.4909    0.0686   -0.1831 H   0  0  0  0  0  0  0  0  0  0  0  0
   -1.1819   -0.6340    0.0744 H   0  0  0  0  0  0  0  0  0  0  0  0
   -0.3592   -0.1189   -1.3223 H   0  0  0  0  0  0  0  0  0  0  0  0
  1  2  1  0
  1  3  1  0
  2  4  1  0
  2  5  1  0
M  RAD  1   1   2
M  END
>  <reaction>  (1) 
rmg_rxn_16

>  <mol_properties>  (1) 
{"0": {"label": "donator", "atom_type": "N3s"}, "2": {"label": "d_hydrogen", "atom_type": "H0"}}

>  <type>  (1) 
r1h

$$$$

     RDKit          3D

 14 13  0  0  0  0  0  0  0  0999 V2000
    2.5796   -0.5432    0.2329 C   0  0  0  0  0  3  0  0  0  0  0  0
    1.2594    0.0982    0.3029 C   0  0  0  0  0  0  0  0  0  0  0  0
   -0.0483   -1.0244    0.9576 S   0  0  0  0  0  0  0  0  0  0  0  0
   -0.0049   -2.3732   -0.2491 C   0  0  0  0  0  0  0  0  0  0  0  0
   -0.3891   -1.9781   -1.6653 C   0  0  0  0  0  0  0  0  0  0  0  0
    2.9359   -0.9798   -0.6903 H   0  0  0  0  0  0  0  0  0  0  0  0
    3.1327   -0.7454    1.1400 H   0  0  0  0  0  0  0  0  0  0  0  0
    0.9347    0.4858   -0.6621 H   0  0  0  0  0  0  0  0  0  0  0  0
    1.2442    0.9220    1.0193 H   0  0  0  0  0  0  0  0  0  0  0  0
    0.9819   -2.8380   -0.2257 H   0  0  0  0  0  0  0  0  0  0  0  0
   -0.7110   -3.1037    0.1493 H   0  0  0  0  0  0  0  0  0  0  0  0
    0.3274   -1.2737   -2.0913 H   0  0  0  0  0  0  0  0  0  0  0  0
   -0.4075   -2.8581   -2.3121 H   0  0  0  0  0  0  0  0  0  0  0  0
   -1.3749   -1.5123   -1.6865 H   0  0  0  0  0  0  0  0  0  0  0  0
  1  2  1  0
  1  6  1  0
  1  7  1  0
  2  3  1  0
  2  8  1  0
  2  9  1  0
  3  4  1  0
  4  5  1  0
  4 10  1  0
  4 11  1  0
  5 12  1  0
  5 13  1  0
  5 14  1  0
M  RAD  1   1   2
M  END
>  <reaction>  (2) 
rmg_rxn_16

>  <mol_properties>  (2) 
{"0": {"label": "acceptor", "atom_type": "Cs"}}

>  <type>  (2) 
r2

$$$$

     RDKit          3D

 15 14  0  0  0  0  0  0  0  0999 V2000
   -2.0554    0.0723   -0.4910 C   0  0  0  0  0  0  0  0  0  0  0  0
   -0.7461   -0.6266   -0.8178 C   0  0  0  0  0  0  0  0  0  0  0  0
    0.3249    0.2591   -1.9782 S   0  0  0  0  0  0  0  0  0  0  0  0
   -0.7172    0.3642   -3.4551 C   0  0  0  0  0  0  0  0  0  0  0  0
   -1.1375   -0.9737   -4.0409 C   0  0  0  0  0  0  0  0  0  0  0  0
   -2.7005    0.1427   -1.3684 H   0  0  0  0  0  0  0  0  0  0  0  0
   -2.6016   -0.4848    0.2733 H   0  0  0  0  0  0  0  0  0  0  0  0
   -1.8758    1.0825   -0.1213 H   0  0  0  0  0  0  0  0  0  0  0  0
   -0.1320   -0.7246    0.0789 H   0  0  0  0  0  0  0  0  0  0  0  0
   -0.9254   -1.6374   -1.1879 H   0  0  0  0  0  0  0  0  0  0  0  0
   -1.5873    0.9874   -3.2422 H   0  0  0  0  0  0  0  0  0  0  0  0
   -0.1021    0.9161   -4.1678 H   0  0  0  0  0  0  0  0  0  0  0  0
   -1.7876   -1.5224   -3.3574 H   0  0  0  0  0  0  0  0  0  0  0  0
   -0.2676   -1.5962   -4.2534 H   0  0  0  0  0  0  0  0  0  0  0  0
   -1.6916   -0.8229   -4.9700 H   0  0  0  0  0  0  0  0  0  0  0  0
  1  2  1  0
  1  6  1  0
  1  7  1  0
  1  8  1  0
  2  3  1  0
  2  9  1  0
  2 10  1  0
  3  4  1  0
  4  5  1  0
  4 11  1  0
  4 12  1  0
  5 13  1  0
  5 14  1  0
  5 15  1  0
M  END
>  <reaction>  (3) 
rmg_rxn_16

>  <mol_properties>  (3) 
{"0": {"label": "a_hydrogen", "atom_type": "H0"}, "1": {"label": "acceptor", "atom_type": "Cs"}}

>  <type>  (3) 
r2h

$$$$

     RDKit          3D

 19 17  0  0  0  0  0  0  0  0999 V2000
   -0.1188   -2.0456    1.0992 N   0  0  0  0  0  2  0  0  0  0  0  0
   -0.2061   -2.3669   -0.1978 N   0  0  0  0  0  0  0  0  0  0  0  0
   -0.8525   -1.1241    1.2155 H   0  0  0  0  0  0  0  0  0  0  0  0
    0.5252   -2.9877   -0.5106 H   0  0  0  0  0  0  0  0  0  0  0  0
   -0.4446   -1.6258   -0.8527 H   0  0  0  0  0  0  0  0  0  0  0  0
   -1.8287   -0.0828    1.1095 C   0  0  0  0  0  3  0  0  0  0  0  0
   -1.2164    1.1995    0.6309 C   0  0  0  0  0  0  0  0  0  0  0  0
   -0.2728    1.0587   -0.9197 S   0  0  0  0  0  0  0  0  0  0  0  0
    1.3913    0.7058   -0.2863 C   0  0  0  0  0  0  0  0  0  0  0  0
    2.1165    1.9198    0.2696 C   0  0  0  0  0  0  0  0  0  0  0  0
   -2.1887   -0.0663    2.1366 H   0  0  0  0  0  0  0  0  0  0  0  0
   -2.5350   -0.5404    0.4202 H   0  0  0  0  0  0  0  0  0  0  0  0
   -0.5637    1.6370    1.3871 H   0  0  0  0  0  0  0  0  0  0  0  0
   -1.9946    1.9417    0.4269 H   0  0  0  0  0  0  0  0  0  0  0  0
    1.3185   -0.0906    0.4562 H   0  0  0  0  0  0  0  0  0  0  0  0
    1.9310    0.2977   -1.1428 H   0  0  0  0  0  0  0  0  0  0  0  0
    1.5841    2.3488    1.1200 H   0  0  0  0  0  0  0  0  0  0  0  0
    3.1137    1.6370    0.6142 H   0  0  0  0  0  0  0  0  0  0  0  0
    2.2192    2.6960   -0.4891 H   0  0  0  0  0  0  0  0  0  0  0  0
  1  2  1  0
  1  3  1  0
  2  4  1  0
  2  5  1  0
  6  7  1  0
  6 11  1  0
  6 12  1  0
  7  8  1  0
  7 13  1  0
  7 14  1  0
  8  9  1  0
  9 10  1  0
  9 15  1  0
  9 16  1  0
 10 17  1  0
 10 18  1  0
 10 19  1  0
M  RAD  2   1   2   6   2
M  END
>  <reaction>  (4) 
rmg_rxn_16

>  <mol_properties>  (4) 
{"0": {"label": "*1", "atom_type": "N3s"}, "1": {"label": "*0", "atom_type": "N3s"}, "2": {"label": "*2", "atom_type": "H0"}, "5": {"label": "*3", "atom_type": "Cs"}, "6": {"label": "*4", "atom_type": "Cs"}}

>  <type>  (4) 
ts

$$$$

     RDKit          3D

 19 17  0  0  0  0  0  0  0  0999 V2000
    1.2264   -2.8662   -0.3568 N   0  0  0  0  0  2  0  0  0  0  0  0
    1.2264   -2.8662   -1.6978 N   0  0  0  0  0  0  0  0  0  0  0  0
    1.2264   -1.6905   -0.0165 H   0  0  0  0  0  0  0  0  0  0  0  0
    1.4144   -3.7662   -2.1066 H   0  0  0  0  0  0  0  0  0  0  0  0
    1.5884   -2.0778   -2.2153 H   0  0  0  0  0  0  0  0  0  0  0  0
    1.2264   -0.4334    0.3472 C   0  0  0  0  0  3  0  0  0  0  0  0
   -0.0029   -0.1094    1.1799 C   0  0  0  0  0  0  0  0  0  0  0  0
   -1.3968    0.5775    0.2506 S   0  0  0  0  0  0  0  0  0  0  0  0
   -0.6863    2.0939   -0.4377 C   0  0  0  0  0  0  0  0  0  0  0  0
   -0.1933    3.0969    0.5922 C   0  0  0  0  0  0  0  0  0  0  0  0
    1.6725    0.4690   -0.0742 H   0  0  0  0  0  0  0  0  0  0  0  0
    1.9862   -0.9163    0.9657 H   0  0  0  0  0  0  0  0  0  0  0  0
    0.2494    0.5599    2.0040 H   0  0  0  0  0  0  0  0  0  0  0  0
   -0.4112   -1.0176    1.6263 H   0  0  0  0  0  0  0  0  0  0  0  0
    0.1064    1.8366   -1.1421 H   0  0  0  0  0  0  0  0  0  0  0  0
   -1.5021    2.5196   -1.0243 H   0  0  0  0  0  0  0  0  0  0  0  0
    0.6504    2.7030    1.1613 H   0  0  0  0  0  0  0  0  0  0  0  0
    0.1427    4.0118    0.0991 H   0  0  0  0  0  0  0  0  0  0  0  0
   -0.9857    3.3537    1.2961 H   0  0  0  0  0  0  0  0  0  0  0  0
  1  2  1  0
  1  3  1  0
  2  4  1  0
  2  5  1  0
  6  7  1  0
  6 11  1  0
  6 12  1  0
  7  8  1  0
  7 13  1  0
  7 14  1  0
  8  9  1  0
  9 10  1  0
  9 15  1  0
  9 16  1  0
 10 17  1  0
 10 18  1  0
 10 19  1  0
M  RAD  2   1   2   6   2
M  END
>  <reaction>  (5) 
rmg_rxn_16

>  <mol_properties>  (5) 
{"0": {"label": "*1", "atom_type": "N3s"}, "1": {"label": "*0", "atom_type": "N3s"}, "2": {"label": "*2", "atom_type": "H0"}, "5": {"label": "*3", "atom_type": "Cs"}, "6": {"label": "*4", "atom_type": "Cs"}}

>  <type>  (5) 
unop_1

>  <geom_source>  (5) 
Heuristics

$$$$

     RDKit          3D

 19 17  0  0  0  0  0  0  0  0999 V2000
   -0.3609   -2.8651    0.8413 N   0  0  0  0  0  2  0  0  0  0  0  0
   -0.3609   -2.8651   -0.4997 N   0  0  0  0  0  0  0  0  0  0  0  0
   -0.3609   -1.6893    1.1815 H   0  0  0  0  0  0  0  0  0  0  0  0
   -0.1729   -3.7651   -0.9086 H   0  0  0  0  0  0  0  0  0  0  0  0
    0.0011   -2.0767   -1.0172 H   0  0  0  0  0  0  0  0  0  0  0  0
   -0.3609   -0.4322    1.5453 C   0  0  0  0  0  3  0  0  0  0  0  0
   -1.0706    0.4307    0.5152 C   0  0  0  0  0  0  0  0  0  0  0  0
   -0.1519    0.6987   -1.0218 S   0  0  0  0  0  0  0  0  0  0  0  0
    1.3456    1.5278   -0.4317 C   0  0  0  0  0  0  0  0  0  0  0  0
    1.1095    2.8501    0.2793 C   0  0  0  0  0  0  0  0  0  0  0  0
    0.5438    0.0520    1.9169 H   0  0  0  0  0  0  0  0  0  0  0  0
   -1.0127   -0.6112    2.4032 H   0  0  0  0  0  0  0  0  0  0  0  0
   -1.3536    1.3944    0.9420 H   0  0  0  0  0  0  0  0  0  0  0  0
   -1.9931   -0.0501    0.1855 H   0  0  0  0  0  0  0  0  0  0  0  0
    1.9160    0.8429    0.1979 H   0  0  0  0  0  0  0  0  0  0  0  0
    1.9314    1.6822   -1.3393 H   0  0  0  0  0  0  0  0  0  0  0  0
    0.5596    2.7098    1.2114 H   0  0  0  0  0  0  0  0  0  0  0  0
    2.0628    3.3212    0.5290 H   0  0  0  0  0  0  0  0  0  0  0  0
    0.5393    3.5343   -0.3501 H   0  0  0  0  0  0  0  0  0  0  0  0
  1  2  1  0
  1  3  1  0
  2  4  1  0
  2  5  1  0
  6  7  1  0
  6 11  1  0
  6 12  1  0
  7  8  1  0
  7 13  1  0
  7 14  1  0
  8  9  1  0
  9 10  1  0
  9 15  1  0
  9 16  1  0
 10 17  1  0
 10 18  1  0
 10 19  1  0
M  RAD  2   1   2   6   2
M  END
>  <reaction>  (6) 
rmg_rxn_16

>  <mol_properties>  (6) 
{"0": {"label": "*1", "atom_type": "N3s"}, "1": {"label": "*0", "atom_type": "N3s"}, "2": {"label": "*2", "atom_type": "H0"}, "5": {"label": "*3", "atom_type": "Cs"}, "6": {"label": "*4", "atom_type": "Cs"}}

>  <type>  (6) 
unop_2

>  <geom_source>  (6) 
Heuristics

$$$$

     RDKit          3D

 19 17  0  0  0  0  0  0  0  0999 V2000
    1.3184   -2.5282   -0.9409 N   0  0  0  0  0  2  0  0  0  0  0  0
    1.3184   -2.5282   -2.2819 N   0  0  0  0  0  0  0  0  0  0  0  0
    1.3184   -1.3524   -0.6007 H   0  0  0  0  0  0  0  0  0  0  0  0
    1.5064   -3.4281   -2.6908 H   0  0  0  0  0  0  0  0  0  0  0  0
    1.6804   -1.7398   -2.7994 H   0  0  0  0  0  0  0  0  0  0  0  0
    1.3184   -0.0953   -0.2369 C   0  0  0  0  0  3  0  0  0  0  0  0
    0.6086    0.0843    1.0949 C   0  0  0  0  0  0  0  0  0  0  0  0
   -1.1931    0.2279    0.9881 S   0  0  0  0  0  0  0  0  0  0  0  0
   -1.3979    1.7058   -0.0376 C   0  0  0  0  0  0  0  0  0  0  0  0
   -0.8007    2.9774    0.5420 C   0  0  0  0  0  0  0  0  0  0  0  0
    1.2100    0.7874   -0.8695 H   0  0  0  0  0  0  0  0  0  0  0  0
    2.3872   -0.2551   -0.0779 H   0  0  0  0  0  0  0  0  0  0  0  0
    1.0099    0.9413    1.6382 H   0  0  0  0  0  0  0  0  0  0  0  0
    0.7620   -0.7901    1.7296 H   0  0  0  0  0  0  0  0  0  0  0  0
   -1.0061    1.5113   -1.0374 H   0  0  0  0  0  0  0  0  0  0  0  0
   -2.4801    1.8040   -0.1378 H   0  0  0  0  0  0  0  0  0  0  0  0
    0.2865    2.9125    0.6113 H   0  0  0  0  0  0  0  0  0  0  0  0
   -1.0379    3.8319   -0.0956 H   0  0  0  0  0  0  0  0  0  0  0  0
   -1.1923    3.1713    1.5411 H   0  0  0  0  0  0  0  0  0  0  0  0
  1  2  1  0
  1  3  1  0
  2  4  1  0
  2  5  1  0
  6  7  1  0
  6 11  1  0
  6 12  1  0
  7  8  1  0
  7 13  1  0
  7 14  1  0
  8  9  1  0
  9 10  1  0
  9 15  1  0
  9 16  1  0
 10 17  1  0
 10 18  1  0
 10 19  1  0
M  RAD  2   1   2   6   2
M  END
>  <reaction>  (7) 
rmg_rxn_16

>  <mol_properties>  (7) 
{"0": {"label": "*1", "atom_type": "N3s"}, "1": {"label": "*0", "atom_type": "N3s"}, "2": {"label": "*2", "atom_type": "H0"}, "5": {"label": "*3", "atom_type": "Cs"}, "6": {"label": "*4", "atom_type": "Cs"}}

>  <type>  (7) 
unop_3

>  <geom_source>  (7) 
Heuristics

$$$$

     RDKit          3D

 19 17  0  0  0  0  0  0  0  0999 V2000
   -1.6183   -1.6696   -0.3584 N   0  0  0  0  0  2  0  0  0  0  0  0
   -1.6183   -1.6696   -1.6994 N   0  0  0  0  0  0  0  0  0  0  0  0
   -1.6183   -0.4939   -0.0182 H   0  0  0  0  0  0  0  0  0  0  0  0
   -1.4303   -2.5696   -2.1082 H   0  0  0  0  0  0  0  0  0  0  0  0
   -1.2563   -0.8812   -2.2169 H   0  0  0  0  0  0  0  0  0  0  0  0
   -1.6183    0.7632    0.3456 C   0  0  0  0  0  3  0  0  0  0  0  0
   -0.3889    1.4818   -0.1854 C   0  0  0  0  0  0  0  0  0  0  0  0
    1.0215    0.4099   -0.5597 S   0  0  0  0  0  0  0  0  0  0  0  0
    1.3751   -0.3326    1.0533 C   0  0  0  0  0  0  0  0  0  0  0  0
    1.7395    0.6555    2.1489 C   0  0  0  0  0  0  0  0  0  0  0  0
   -1.4269    0.3112    1.3203 H   0  0  0  0  0  0  0  0  0  0  0  0
   -2.4449    1.4667    0.4674 H   0  0  0  0  0  0  0  0  0  0  0  0
   -0.0735    2.2719    0.4980 H   0  0  0  0  0  0  0  0  0  0  0  0
   -0.6105    1.9618   -1.1400 H   0  0  0  0  0  0  0  0  0  0  0  0
    0.5348   -0.9592    1.3569 H   0  0  0  0  0  0  0  0  0  0  0  0
    2.2113   -1.0042    0.8520 H   0  0  0  0  0  0  0  0  0  0  0  0
    0.9004    1.3094    2.3924 H   0  0  0  0  0  0  0  0  0  0  0  0
    2.0159    0.1235    3.0620 H   0  0  0  0  0  0  0  0  0  0  0  0
    2.5792    1.2816    1.8451 H   0  0  0  0  0  0  0  0  0  0  0  0
  1  2  1  0
  1  3  1  0
  2  4  1  0
  2  5  1  0
  6  7  1  0
  6 11  1  0
  6 12  1  0
  7  8  1  0
  7 13  1  0
  7 14  1  0
  8  9  1  0
  9 10  1  0
  9 15  1  0
  9 16  1  0
 10 17  1  0
 10 18  1  0
 10 19  1  0
M  RAD  2   1   2   6   2
M  END
>  <reaction>  (8) 
rmg_rxn_16

>  <mol_properties>  (8) 
{"0": {"label": "*1", "atom_type": "N3s"}, "1": {"label": "*0", "atom_type": "N3s"}, "2": {"label": "*2", "atom_type": "H0"}, "5": {"label": "*3", "atom_type": "Cs"}, "6": {"label": "*4", "atom_type": "Cs"}}

>  <type>  (8) 
unop_4

>  <geom_source>  (8) 
Heuristics

$$$$

     RDKit          3D

 19 17  0  0  0  0  0  0  0  0999 V2000
    1.0471   -1.8466   -1.5702 N   0  0  0  0  0  2  0  0  0  0  0  0
    1.0471   -1.8466   -2.9112 N   0  0  0  0  0  0  0  0  0  0  0  0
    1.0471   -0.6709   -1.2300 H   0  0  0  0  0  0  0  0  0  0  0  0
    1.2350   -2.7466   -3.3201 H   0  0  0  0  0  0  0  0  0  0  0  0
    1.4090   -1.0582   -3.4287 H   0  0  0  0  0  0  0  0  0  0  0  0
    1.0471    0.5862   -0.8662 C   0  0  0  0  0  3  0  0  0  0  0  0
    1.0471    0.7129    0.6482 C   0  0  0  0  0  0  0  0  0  0  0  0
   -0.2993   -0.1584    1.4887 S   0  0  0  0  0  0  0  0  0  0  0  0
   -1.7659    0.6419    0.7909 C   0  0  0  0  0  0  0  0  0  0  0  0
   -1.8643    2.1368    1.0464 C   0  0  0  0  0  0  0  0  0  0  0  0
    0.1718    1.0662   -1.3072 H   0  0  0  0  0  0  0  0  0  0  0  0
    1.9320    1.0691   -1.2866 H   0  0  0  0  0  0  0  0  0  0  0  0
    1.0469    1.7611    0.9519 H   0  0  0  0  0  0  0  0  0  0  0  0
    1.9486    0.2641    1.0684 H   0  0  0  0  0  0  0  0  0  0  0  0
   -1.8255    0.4239   -0.2767 H   0  0  0  0  0  0  0  0  0  0  0  0
   -2.5975    0.1184    1.2655 H   0  0  0  0  0  0  0  0  0  0  0  0
   -1.0627    2.6814    0.5446 H   0  0  0  0  0  0  0  0  0  0  0  0
   -2.8119    2.5244    0.6658 H   0  0  0  0  0  0  0  0  0  0  0  0
   -1.8046    2.3542    2.1134 H   0  0  0  0  0  0  0  0  0  0  0  0
  1  2  1  0
  1  3  1  0
  2  4  1  0
  2  5  1  0
  6  7  1  0
  6 11  1  0
  6 12  1  0
  7  8  1  0
  7 13  1  0
  7 14  1  0
  8  9  1  0
  9 10  1  0
  9 15  1  0
  9 16  1  0
 10 17  1  0
 10 18  1  0
 10 19  1  0
M  RAD  2   1   2   6   2
M  END
>  <reaction>  (9) 
rmg_rxn_16

>  <mol_properties>  (9) 
{"0": {"label": "*1", "atom_type": "N3s"}, "1": {"label": "*0", "atom_type": "N3s"}, "2": {"label": "*2", "atom_type": "H0"}, "5": {"label": "*3", "atom_type": "Cs"}, "6": {"label": "*4", "atom_type": "Cs"}}

>  <type>  (9) 
unop_5

>  <geom_source>  (9) 
Heuristics

$$$$

     RDKit          3D

 19 17  0  0  0  0  0  0  0  0999 V2000
   -1.4109   -1.3755   -1.0133 N   0  0  0  0  0  2  0  0  0  0  0  0
   -1.4109   -1.3755   -2.3543 N   0  0  0  0  0  0  0  0  0  0  0  0
   -1.4109   -0.1997   -0.6731 H   0  0  0  0  0  0  0  0  0  0  0  0
   -1.2230   -2.2755   -2.7632 H   0  0  0  0  0  0  0  0  0  0  0  0
   -1.0489   -0.5871   -2.8718 H   0  0  0  0  0  0  0  0  0  0  0  0
   -1.4109    1.0574   -0.3094 C   0  0  0  0  0  3  0  0  0  0  0  0
    0.0086    1.5787   -0.1585 C   0  0  0  0  0  0  0  0  0  0  0  0
    1.2868    0.2999   -0.0622 S   0  0  0  0  0  0  0  0  0  0  0  0
    0.7948   -0.6208    1.4171 C   0  0  0  0  0  0  0  0  0  0  0  0
    0.7654    0.1935    2.6999 C   0  0  0  0  0  0  0  0  0  0  0  0
   -1.7285    0.5019    0.5747 H   0  0  0  0  0  0  0  0  0  0  0  0
   -2.1074    1.8883   -0.4417 H   0  0  0  0  0  0  0  0  0  0  0  0
    0.0913    2.2408    0.7050 H   0  0  0  0  0  0  0  0  0  0  0  0
    0.2943    2.1655   -1.0331 H   0  0  0  0  0  0  0  0  0  0  0  0
   -0.1670   -1.1051    1.2404 H   0  0  0  0  0  0  0  0  0  0  0  0
    1.5389   -1.4159    1.4872 H   0  0  0  0  0  0  0  0  0  0  0  0
   -0.0021    0.9685    2.6636 H   0  0  0  0  0  0  0  0  0  0  0  0
    0.5401   -0.4510    3.5525 H   0  0  0  0  0  0  0  0  0  0  0  0
    1.7267    0.6775    2.8760 H   0  0  0  0  0  0  0  0  0  0  0  0
  1  2  1  0
  1  3  1  0
  2  4  1  0
  2  5  1  0
  6  7  1  0
  6 11  1  0
  6 12  1  0
  7  8  1  0
  7 13  1  0
  7 14  1  0
  8  9  1  0
  9 10  1  0
  9 15  1  0
  9 16  1  0
 10 17  1  0
 10 18  1  0
 10 19  1  0
M  RAD  2   1   2   6   2
M  END
>  <reaction>  (10) 
rmg_rxn_16

>  <mol_properties>  (10) 
{"0": {"label": "*1", "atom_type": "N3s"}, "1": {"label": "*0", "atom_type": "N3s"}, "2": {"label": "*2", "atom_type": "H0"}, "5": {"label": "*3", "atom_type": "Cs"}, "6": {"label": "*4", "atom_type": "Cs"}}

>  <type>  (10) 
unop_6

>  <geom_source>  (10) 
Heuristics

$$$$

     RDKit          3D

 19 17  0  0  0  0  0  0  0  0999 V2000
   -0.8416   -1.2049   -1.5851 N   0  0  0  0  0  2  0  0  0  0  0  0
   -0.8416   -1.2049   -2.9261 N   0  0  0  0  0  0  0  0  0  0  0  0
   -0.8416   -0.0291   -1.2448 H   0  0  0  0  0  0  0  0  0  0  0  0
   -0.6536   -2.1049   -3.3349 H   0  0  0  0  0  0  0  0  0  0  0  0
   -0.4796   -0.4165   -3.4435 H   0  0  0  0  0  0  0  0  0  0  0  0
   -0.8416    1.2280   -0.8811 C   0  0  0  0  0  3  0  0  0  0  0  0
    0.3878    1.5519   -0.0484 C   0  0  0  0  0  0  0  0  0  0  0  0
    1.2772    0.1120    0.5948 S   0  0  0  0  0  0  0  0  0  0  0  0
    0.0171   -0.6884    1.6194 C   0  0  0  0  0  0  0  0  0  0  0  0
   -0.5128    0.1591    2.7642 C   0  0  0  0  0  0  0  0  0  0  0  0
   -1.6157    0.7477   -0.2802 H   0  0  0  0  0  0  0  0  0  0  0  0
   -1.2697    2.1431   -1.2962 H   0  0  0  0  0  0  0  0  0  0  0  0
    0.1354    2.2211    0.7758 H   0  0  0  0  0  0  0  0  0  0  0  0
    1.1339    2.0680   -0.6549 H   0  0  0  0  0  0  0  0  0  0  0  0
   -0.7979   -1.0398    0.9845 H   0  0  0  0  0  0  0  0  0  0  0  0
    0.5213   -1.5764    2.0040 H   0  0  0  0  0  0  0  0  0  0  0  0
   -1.0562    1.0315    2.3971 H   0  0  0  0  0  0  0  0  0  0  0  0
   -1.2040   -0.4229    3.3778 H   0  0  0  0  0  0  0  0  0  0  0  0
    0.3019    0.5103    3.3983 H   0  0  0  0  0  0  0  0  0  0  0  0
  1  2  1  0
  1  3  1  0
  2  4  1  0
  2  5  1  0
  6  7  1  0
  6 11  1  0
  6 12  1  0
  7  8  1  0
  7 13  1  0
  7 14  1  0
  8  9  1  0
  9 10  1  0
  9 15  1  0
  9 16  1  0
 10 17  1  0
 10 18  1  0
 10 19  1  0
M  RAD  2   1   2   6   2
M  END
>  <reaction>  (11) 
rmg_rxn_16

>  <mol_properties>  (11) 
{"0": {"label": "*1", "atom_type": "N3s"}, "1": {"label": "*0", "atom_type": "N3s"}, "2": {"label": "*2", "atom_type": "H0"}, "5": {"label": "*3", "atom_type": "Cs"}, "6": {"label": "*4", "atom_type": "Cs"}}

>  <type>  (11) 
unop_7

>  <geom_source>  (11) 
Heuristics

$$$$

     RDKit          3D

 19 17  0  0  0  0  0  0  0  0999 V2000
    0.9261   -3.0230    0.2047 N   0  0  0  0  0  2  0  0  0  0  0  0
    0.9261   -3.0230   -1.1363 N   0  0  0  0  0  0  0  0  0  0  0  0
    0.9261   -1.8472    0.5449 H   0  0  0  0  0  0  0  0  0  0  0  0
    1.1141   -3.9230   -1.5452 H   0  0  0  0  0  0  0  0  0  0  0  0
    1.2881   -2.2346   -1.6538 H   0  0  0  0  0  0  0  0  0  0  0  0
    0.9261   -0.5901    0.9087 C   0  0  0  0  0  3  0  0  0  0  0  0
   -0.4934   -0.0688    1.0595 C   0  0  0  0  0  0  0  0  0  0  0  0
   -1.1628    0.7615   -0.4035 S   0  0  0  0  0  0  0  0  0  0  0  0
   -0.0076    2.1384   -0.6228 C   0  0  0  0  0  0  0  0  0  0  0  0
    0.0663    3.1068    0.5460 C   0  0  0  0  0  0  0  0  0  0  0  0
    1.6395    0.2255    0.7790 H   0  0  0  0  0  0  0  0  0  0  0  0
    1.2224   -1.1455    1.8013 H   0  0  0  0  0  0  0  0  0  0  0  0
   -0.5760    0.5935    1.9229 H   0  0  0  0  0  0  0  0  0  0  0  0
   -1.1867   -0.8943    1.2292 H   0  0  0  0  0  0  0  0  0  0  0  0
    0.9811    1.7474   -0.8685 H   0  0  0  0  0  0  0  0  0  0  0  0
   -0.3757    2.6460   -1.5160 H   0  0  0  0  0  0  0  0  0  0  0  0
    0.4713    2.6261    1.4381 H   0  0  0  0  0  0  0  0  0  0  0  0
    0.7201    3.9468    0.3011 H   0  0  0  0  0  0  0  0  0  0  0  0
   -0.9221    3.4972    0.7913 H   0  0  0  0  0  0  0  0  0  0  0  0
  1  2  1  0
  1  3  1  0
  2  4  1  0
  2  5  1  0
  6  7  1  0
  6 11  1  0
  6 12  1  0
  7  8  1  0
  7 13  1  0
  7 14  1  0
  8  9  1  0
  9 10  1  0
  9 15  1  0
  9 16  1  0
 10 17  1  0
 10 18  1  0
 10 19  1  0
M  RAD  2   1   2   6   2
M  END
>  <reaction>  (12) 
rmg_rxn_16

>  <mol_properties>  (12) 
{"0": {"label": "*1", "atom_type": "N3s"}, "1": {"label": "*0", "atom_type": "N3s"}, "2": {"label": "*2", "atom_type": "H0"}, "5": {"label": "*3", "atom_type": "Cs"}, "6": {"label": "*4", "atom_type": "Cs"}}

>  <type>  (12) 
unop_8

>  <geom_source>  (12) 
Heuristics

$$$$

     RDKit          3D

 19 17  0  0  0  0  0  0  0  0999 V2000
   -1.4965   -2.0577    0.2443 N   0  0  0  0  0  2  0  0  0  0  0  0
   -1.4965   -2.0577   -1.0967 N   0  0  0  0  0  0  0  0  0  0  0  0
   -1.4965   -0.8819    0.5845 H   0  0  0  0  0  0  0  0  0  0  0  0
   -1.3086   -2.9576   -1.5056 H   0  0  0  0  0  0  0  0  0  0  0  0
   -1.1345   -1.2693   -1.6142 H   0  0  0  0  0  0  0  0  0  0  0  0
   -1.4965    0.3752    0.9483 C   0  0  0  0  0  3  0  0  0  0  0  0
   -0.7867    1.2382   -0.0818 C   0  0  0  0  0  0  0  0  0  0  0  0
    0.6606    0.4724   -0.8546 S   0  0  0  0  0  0  0  0  0  0  0  0
    1.7404    0.1755    0.5681 C   0  0  0  0  0  0  0  0  0  0  0  0
    2.1494    1.4222    1.3349 C   0  0  0  0  0  0  0  0  0  0  0  0
   -0.8630    0.1874    1.8168 H   0  0  0  0  0  0  0  0  0  0  0  0
   -2.3999    0.8758    1.3039 H   0  0  0  0  0  0  0  0  0  0  0  0
   -0.5035    2.2017    0.3451 H   0  0  0  0  0  0  0  0  0  0  0  0
   -1.4486    1.4496   -0.9233 H   0  0  0  0  0  0  0  0  0  0  0  0
    1.2747   -0.5552    1.2315 H   0  0  0  0  0  0  0  0  0  0  0  0
    2.6160   -0.3086    0.1325 H   0  0  0  0  0  0  0  0  0  0  0  0
    1.2906    1.8974    1.8121 H   0  0  0  0  0  0  0  0  0  0  0  0
    2.8614    1.1658    2.1226 H   0  0  0  0  0  0  0  0  0  0  0  0
    2.6146    2.1523    0.6717 H   0  0  0  0  0  0  0  0  0  0  0  0
  1  2  1  0
  1  3  1  0
  2  4  1  0
  2  5  1  0
  6  7  1  0
  6 11  1  0
  6 12  1  0
  7  8  1  0
  7 13  1  0
  7 14  1  0
  8  9  1  0
  9 10  1  0
  9 15  1  0
  9 16  1  0
 10 17  1  0
 10 18  1  0
 10 19  1  0
M  RAD  2   1   2   6   2
M  END
>  <reaction>  (13) 
rmg_rxn_16

>  <mol_properties>  (13) 
{"0": {"label": "*1", "atom_type": "N3s"}, "1": {"label": "*0", "atom_type": "N3s"}, "2": {"label": "*2", "atom_type": "H0"}, "5": {"label": "*3", "atom_type": "Cs"}, "6": {"label": "*4", "atom_type": "Cs"}}

>  <type>  (13) 
unop_9

>  <geom_source>  (13) 
Heuristics

$$$$

     RDKit          3D

 19 17  0  0  0  0  0  0  0  0999 V2000
    0.3725   -3.0378    0.6531 N   0  0  0  0  0  2  0  0  0  0  0  0
    0.3725   -3.0378   -0.6879 N   0  0  0  0  0  0  0  0  0  0  0  0
    0.3725   -1.8620    0.9934 H   0  0  0  0  0  0  0  0  0  0  0  0
    0.5605   -3.9378   -1.0967 H   0  0  0  0  0  0  0  0  0  0  0  0
    0.7345   -2.2494   -1.2053 H   0  0  0  0  0  0  0  0  0  0  0  0
    0.3725   -0.6049    1.3571 C   0  0  0  0  0  3  0  0  0  0  0  0
   -0.8569    0.1136    0.8262 C   0  0  0  0  0  0  0  0  0  0  0  0
   -0.6842    0.7933   -0.8431 S   0  0  0  0  0  0  0  0  0  0  0  0
    0.6866    1.9587   -0.6407 C   0  0  0  0  0  0  0  0  0  0  0  0
    0.4379    3.0748    0.3602 C   0  0  0  0  0  0  0  0  0  0  0  0
    1.2103    0.0817    1.4899 H   0  0  0  0  0  0  0  0  0  0  0  0
    0.1586   -1.0528    2.3301 H   0  0  0  0  0  0  0  0  0  0  0  0
   -1.1722    0.9040    1.5094 H   0  0  0  0  0  0  0  0  0  0  0  0
   -1.6954   -0.5792    0.7387 H   0  0  0  0  0  0  0  0  0  0  0  0
    1.5969    1.4096   -0.3945 H   0  0  0  0  0  0  0  0  0  0  0  0
    0.8282    2.3690   -1.6419 H   0  0  0  0  0  0  0  0  0  0  0  0
    0.3345    2.6859    1.3746 H   0  0  0  0  0  0  0  0  0  0  0  0
    1.2757    3.7756    0.3619 H   0  0  0  0  0  0  0  0  0  0  0  0
   -0.4720    3.6232    0.1139 H   0  0  0  0  0  0  0  0  0  0  0  0
  1  2  1  0
  1  3  1  0
  2  4  1  0
  2  5  1  0
  6  7  1  0
  6 11  1  0
  6 12  1  0
  7  8  1  0
  7 13  1  0
  7 14  1  0
  8  9  1  0
  9 10  1  0
  9 15  1  0
  9 16  1  0
 10 17  1  0
 10 18  1  0
 10 19  1  0
M  RAD  2   1   2   6   2
M  END
>  <reaction>  (14) 
rmg_rxn_16

>  <mol_properties>  (14) 
{"0": {"label": "*1", "atom_type": "N3s"}, "1": {"label": "*0", "atom_type": "N3s"}, "2": {"label": "*2", "atom_type": "H0"}, "5": {"label": "*3", "atom_type": "Cs"}, "6": {"label": "*4", "atom_type": "Cs"}}

>  <type>  (14) 
unop_10

>  <geom_source>  (14) 
Heuristics

$$$$

     RDKit          3D

 19 17  0  0  0  0  0  0  0  0999 V2000
    0.0897   -1.2786   -1.8648 N   0  0  0  0  0  2  0  0  0  0  0  0
    0.0897   -1.2786   -3.2058 N   0  0  0  0  0  0  0  0  0  0  0  0
    0.0897   -0.1028   -1.5245 H   0  0  0  0  0  0  0  0  0  0  0  0
    0.2777   -2.1785   -3.6146 H   0  0  0  0  0  0  0  0  0  0  0  0
    0.4517   -0.4901   -3.7232 H   0  0  0  0  0  0  0  0  0  0  0  0
    0.0897    1.1543   -1.1608 C   0  0  0  0  0  3  0  0  0  0  0  0
    0.7995    1.3339    0.1710 C   0  0  0  0  0  0  0  0  0  0  0  0
    0.7867   -0.1222    1.2470 S   0  0  0  0  0  0  0  0  0  0  0  0
   -0.9851   -0.3870    1.5096 C   0  0  0  0  0  0  0  0  0  0  0  0
   -1.7149    0.7677    2.1757 C   0  0  0  0  0  0  0  0  0  0  0  0
   -0.9815    0.9970   -1.0244 H   0  0  0  0  0  0  0  0  0  0  0  0
    0.2137    2.0461   -1.7792 H   0  0  0  0  0  0  0  0  0  0  0  0
    0.3981    2.1908    0.7145 H   0  0  0  0  0  0  0  0  0  0  0  0
    1.8613    1.5308    0.0137 H   0  0  0  0  0  0  0  0  0  0  0  0
   -1.4572   -0.6523    0.5622 H   0  0  0  0  0  0  0  0  0  0  0  0
   -1.0237   -1.2769    2.1400 H   0  0  0  0  0  0  0  0  0  0  0  0
   -1.7218    1.6553    1.5408 H   0  0  0  0  0  0  0  0  0  0  0  0
   -2.7548    0.4963    2.3706 H   0  0  0  0  0  0  0  0  0  0  0  0
   -1.2428    1.0326    3.1224 H   0  0  0  0  0  0  0  0  0  0  0  0
  1  2  1  0
  1  3  1  0
  2  4  1  0
  2  5  1  0
  6  7  1  0
  6 11  1  0
  6 12  1  0
  7  8  1  0
  7 13  1  0
  7 14  1  0
  8  9  1  0
  9 10  1  0
  9 15  1  0
  9 16  1  0
 10 17  1  0
 10 18  1  0
 10 19  1  0
M  RAD  2   1   2   6   2
M  END
>  <reaction>  (15) 
rmg_rxn_16

>  <mol_properties>  (15) 
{"0": {"label": "*1", "atom_type": "N3s"}, "1": {"label": "*0", "atom_type": "N3s"}, "2": {"label": "*2", "atom_type": "H0"}, "5": {"label": "*3", "atom_type": "Cs"}, "6": {"label": "*4", "atom_type": "Cs"}}

>  <type>  (15) 
unop_11

>  <geom_source>  (15) 
Heuristics

$$$$

     RDKit          3D

 19 17  0  0  0  0  0  0  0  0999 V2000
   -1.0563   -2.4994    0.6855 N   0  0  0  0  0  2  0  0  0  0  0  0
   -1.0563   -2.4994   -0.6555 N   0  0  0  0  0  0  0  0  0  0  0  0
   -1.0563   -1.3236    1.0257 H   0  0  0  0  0  0  0  0  0  0  0  0
   -0.8683   -3.3993   -1.0644 H   0  0  0  0  0  0  0  0  0  0  0  0
   -0.6943   -1.7109   -1.1730 H   0  0  0  0  0  0  0  0  0  0  0  0
   -1.0563   -0.0665    1.3895 C   0  0  0  0  0  3  0  0  0  0  0  0
   -1.0563    0.8494    0.1767 C   0  0  0  0  0  0  0  0  0  0  0  0
    0.2901    0.5615   -0.9992 S   0  0  0  0  0  0  0  0  0  0  0  0
    1.7567    0.8655    0.0181 C   0  0  0  0  0  0  0  0  0  0  0  0
    1.8551    2.2658    0.6004 C   0  0  0  0  0  0  0  0  0  0  0  0
   -0.1810    0.1039    2.0186 H   0  0  0  0  0  0  0  0  0  0  0  0
   -1.9413    0.1172    2.0027 H   0  0  0  0  0  0  0  0  0  0  0  0
   -1.0562    1.8977    0.4796 H   0  0  0  0  0  0  0  0  0  0  0  0
   -1.9579    0.6942   -0.4183 H   0  0  0  0  0  0  0  0  0  0  0  0
    1.8162    0.1111    0.8043 H   0  0  0  0  0  0  0  0  0  0  0  0
    2.5883    0.6764   -0.6627 H   0  0  0  0  0  0  0  0  0  0  0  0
    1.0535    2.4583    1.3155 H   0  0  0  0  0  0  0  0  0  0  0  0
    2.8027    2.3903    1.1291 H   0  0  0  0  0  0  0  0  0  0  0  0
    1.7954    3.0195   -0.1856 H   0  0  0  0  0  0  0  0  0  0  0  0
  1  2  1  0
  1  3  1  0
  2  4  1  0
  2  5  1  0
  6  7  1  0
  6 11  1  0
  6 12  1  0
  7  8  1  0
  7 13  1  0
  7 14  1  0
  8  9  1  0
  9 10  1  0
  9 15  1  0
  9 16  1  0
 10 17  1  0
 10 18  1  0
 10 19  1  0
M  RAD  2   1   2   6   2
M  END
>  <reaction>  (16) 
rmg_rxn_16

>  <mol_properties>  (16) 
{"0": {"label": "*1", "atom_type": "N3s"}, "1": {"label": "*0", "atom_type": "N3s"}, "2": {"label": "*2", "atom_type": "H0"}, "5": {"label": "*3", "atom_type": "Cs"}, "6": {"label": "*4", "atom_type": "Cs"}}

>  <type>  (16) 
unop_12

>  <geom_source>  (16) 
Heuristics

$$$$

     RDKit          3D

 19 17  0  0  0  0  0  0  0  0999 V2000
   -0.3609   -2.8651    0.8413 N   0  0  0  0  0  2  0  0  0  0  0  0
   -0.3609   -2.8651   -0.4997 N   0  0  0  0  0  0  0  0  0  0  0  0
   -0.3609   -1.6893    1.1815 H   0  0  0  0  0  0  0  0  0  0  0  0
   -0.1729   -3.7651   -0.9086 H   0  0  0  0  0  0  0  0  0  0  0  0
    0.0011   -2.0767   -1.0172 H   0  0  0  0  0  0  0  0  0  0  0  0
   -0.3609   -0.4323    1.5453 C   0  0  0  0  0  3  0  0  0  0  0  0
   -1.0706    0.4307    0.5152 C   0  0  0  0  0  0  0  0  0  0  0  0
   -0.1519    0.6987   -1.0218 S   0  0  0  0  0  0  0  0  0  0  0  0
    1.3456    1.5278   -0.4317 C   0  0  0  0  0  0  0  0  0  0  0  0
    1.1095    2.8501    0.2793 C   0  0  0  0  0  0  0  0  0  0  0  0
    0.5438    0.0520    1.9169 H   0  0  0  0  0  0  0  0  0  0  0  0
   -1.0127   -0.6112    2.4032 H   0  0  0  0  0  0  0  0  0  0  0  0
   -1.3536    1.3943    0.9420 H   0  0  0  0  0  0  0  0  0  0  0  0
   -1.9931   -0.0500    0.1855 H   0  0  0  0  0  0  0  0  0  0  0  0
    1.9160    0.8429    0.1979 H   0  0  0  0  0  0  0  0  0  0  0  0
    1.9314    1.6822   -1.3393 H   0  0  0  0  0  0  0  0  0  0  0  0
    0.5596    2.7098    1.2114 H   0  0  0  0  0  0  0  0  0  0  0  0
    2.0628    3.3212    0.5290 H   0  0  0  0  0  0  0  0  0  0  0  0
    0.5393    3.5343   -0.3501 H   0  0  0  0  0  0  0  0  0  0  0  0
  1  2  1  0
  1  3  1  0
  2  4  1  0
  2  5  1  0
  6  7  1  0
  6 11  1  0
  6 12  1  0
  7  8  1  0
  7 13  1  0
  7 14  1  0
  8  9  1  0
  9 10  1  0
  9 15  1  0
  9 16  1  0
 10 17  1  0
 10 18  1  0
 10 19  1  0
M  RAD  2   1   2   6   2
M  END
>  <reaction>  (17) 
rmg_rxn_16

>  <mol_properties>  (17) 
{"0": {"label": "*1", "atom_type": "N3s"}, "1": {"label": "*0", "atom_type": "N3s"}, "2": {"label": "*2", "atom_type": "H0"}, "5": {"label": "*3", "atom_type": "Cs"}, "6": {"label": "*4", "atom_type": "Cs"}}

>  <type>  (17) 
unop_13

>  <geom_source>  (17) 
gaussian_log

$$$$
