
     RDKit          3D

  8  7  0  0  0  0  0  0  0  0999 V2000
    0.9548    0.1194   -0.0790 C   0  0  0  0  0  0  0  0  0  0  0  0
   -0.4838   -0.2649    0.0193 C   0  0  0  0  0  0  0  0  0  0  0  0
   -0.8933   -1.1081    0.8664 N   0  0  0  0  0  0  0  0  0  0  0  0
    1.3360   -0.0983   -1.0800 H   0  0  0  0  0  0  0  0  0  0  0  0
    1.0698    1.1948    0.0786 H   0  0  0  0  0  0  0  0  0  0  0  0
    1.5426   -0.4219    0.6602 H   0  0  0  0  0  0  0  0  0  0  0  0
   -1.1575    0.2324   -0.6905 H   0  0  0  0  0  0  0  0  0  0  0  0
   -1.8989   -1.2455    0.7886 H   0  0  0  0  0  0  0  0  0  0  0  0
  1  2  1  0
  1  4  1  0
  1  5  1  0
  1  6  1  0
  2  3  2  3
  2  7  1  0
  3  8  1  0
M  END
>  <reaction>  (1) 
rmg_rxn_16522

>  <mol_properties>  (1) 
{"2": {"label": "donator", "atom_type": "N3d"}, "7": {"label": "d_hydrogen", "atom_type": "H0"}}

>  <type>  (1) 
r1h

$$$$

     RDKit          3D

 10  9  0  0  0  0  0  0  0  0999 V2000
    1.4352    0.2660   -0.1351 C   0  0  0  0  0  3  0  0  0  0  0  0
    0.2236   -0.3243    0.4850 C   0  0  0  0  0  0  0  0  0  0  0  0
   -0.8893    0.6872    0.7364 C   0  0  0  0  0  0  0  0  0  0  0  0
    2.3577   -0.2958   -0.1940 H   0  0  0  0  0  0  0  0  0  0  0  0
    1.3935    1.2286   -0.6287 H   0  0  0  0  0  0  0  0  0  0  0  0
   -0.1633   -1.1318   -0.1556 H   0  0  0  0  0  0  0  0  0  0  0  0
    0.4945   -0.8215    1.4240 H   0  0  0  0  0  0  0  0  0  0  0  0
   -1.1991    1.1627   -0.1967 H   0  0  0  0  0  0  0  0  0  0  0  0
   -1.7660    0.2103    1.1768 H   0  0  0  0  0  0  0  0  0  0  0  0
   -0.5545    1.4732    1.4159 H   0  0  0  0  0  0  0  0  0  0  0  0
  1  2  1  0
  1  4  1  0
  1  5  1  0
  2  3  1  0
  2  6  1  0
  2  7  1  0
  3  8  1  0
  3  9  1  0
  3 10  1  0
M  RAD  1   1   2
M  END
>  <reaction>  (2) 
rmg_rxn_16522

>  <mol_properties>  (2) 
{"0": {"label": "acceptor", "atom_type": "Cs"}}

>  <type>  (2) 
r2

$$$$

     RDKit          3D

 11 10  0  0  0  0  0  0  0  0999 V2000
   -1.2710    0.1907   -0.2084 C   0  0  0  0  0  0  0  0  0  0  0  0
    0.0202   -0.6130   -0.2928 C   0  0  0  0  0  0  0  0  0  0  0  0
    0.1086   -1.6953    0.7756 C   0  0  0  0  0  0  0  0  0  0  0  0
   -1.3607    0.6851    0.7620 H   0  0  0  0  0  0  0  0  0  0  0  0
   -2.1429   -0.4567   -0.3299 H   0  0  0  0  0  0  0  0  0  0  0  0
   -1.3158    0.9602   -0.9809 H   0  0  0  0  0  0  0  0  0  0  0  0
    0.8757    0.0616   -0.1992 H   0  0  0  0  0  0  0  0  0  0  0  0
    0.0997   -1.0712   -1.2825 H   0  0  0  0  0  0  0  0  0  0  0  0
   -0.7198   -2.4022    0.6850 H   0  0  0  0  0  0  0  0  0  0  0  0
    1.0395   -2.2596    0.6989 H   0  0  0  0  0  0  0  0  0  0  0  0
    0.0624   -1.2603    1.7770 H   0  0  0  0  0  0  0  0  0  0  0  0
  1  2  1  0
  1  4  1  0
  1  5  1  0
  1  6  1  0
  2  3  1  0
  2  7  1  0
  2  8  1  0
  3  9  1  0
  3 10  1  0
  3 11  1  0
M  END
>  <reaction>  (3) 
rmg_rxn_16522

>  <mol_properties>  (3) 
{"0": {"label": "a_hydrogen", "atom_type": "H0"}, "1": {"label": "acceptor", "atom_type": "Cs"}}

>  <type>  (3) 
r2h

$$$$

     RDKit          3D

 18 16  0  0  0  0  0  0  0  0999 V2000
   -0.5445   -0.1121   -2.9838 C   0  0  0  0  0  0  0  0  0  0  0  0
   -0.5473    0.0951   -1.5001 C   0  0  0  0  0  0  0  0  0  0  0  0
    0.2212    0.9123   -0.9339 N   0  0  0  0  0  0  0  0  0  0  0  0
   -0.3217   -1.1568   -3.2136 H   0  0  0  0  0  0  0  0  0  0  0  0
   -1.5341    0.1055   -3.3926 H   0  0  0  0  0  0  0  0  0  0  0  0
    0.1941    0.5300   -3.4600 H   0  0  0  0  0  0  0  0  0  0  0  0
   -1.2632   -0.5138   -0.9314 H   0  0  0  0  0  0  0  0  0  0  0  0
   -0.0002    0.8770    0.2658 H   0  0  0  0  0  0  0  0  0  0  0  0
   -0.3224    0.7018    1.5932 C   0  0  0  0  0  3  0  0  0  0  0  0
    0.8042   -0.0812    2.2075 C   0  0  0  0  0  0  0  0  0  0  0  0
    0.9248   -1.4956    1.6530 C   0  0  0  0  0  0  0  0  0  0  0  0
   -0.4178    1.7329    1.9274 H   0  0  0  0  0  0  0  0  0  0  0  0
   -1.2825    0.1861    1.5593 H   0  0  0  0  0  0  0  0  0  0  0  0
    1.7445    0.4565    2.0562 H   0  0  0  0  0  0  0  0  0  0  0  0
    0.6583   -0.1287    3.2944 H   0  0  0  0  0  0  0  0  0  0  0  0
    1.1312   -1.4752    0.5815 H   0  0  0  0  0  0  0  0  0  0  0  0
    1.7309   -2.0454    2.1408 H   0  0  0  0  0  0  0  0  0  0  0  0
   -0.0020   -2.0543    1.8060 H   0  0  0  0  0  0  0  0  0  0  0  0
  1  2  1  0
  1  4  1  0
  1  5  1  0
  1  6  1  0
  2  3  2  3
  2  7  1  0
  3  8  1  0
  9 10  1  0
  9 12  1  0
  9 13  1  0
 10 11  1  0
 10 14  1  0
 10 15  1  0
 11 16  1  0
 11 17  1  0
 11 18  1  0
M  RAD  1   9   2
M  END
>  <reaction>  (4) 
rmg_rxn_16522

>  <mol_properties>  (4) 
{"1": {"label": "*0", "atom_type": "Cd"}, "2": {"label": "*1", "atom_type": "N3d"}, "7": {"label": "*2", "atom_type": "H0"}, "8": {"label": "*3", "atom_type": "Cs"}, "9": {"label": "*4", "atom_type": "Cs"}}

>  <type>  (4) 
ts

$$$$

     RDKit          3D

 18 16  0  0  0  0  0  0  0  0999 V2000
   -2.6692    0.6534    0.3307 C   0  0  0  0  0  0  0  0  0  0  0  0
   -2.0410   -0.6347   -0.1139 C   0  0  0  0  0  0  0  0  0  0  0  0
   -0.8553   -0.8961   -0.3526 N   0  0  0  0  0  0  0  0  0  0  0  0
   -3.1761    0.4977    1.2819 H   0  0  0  0  0  0  0  0  0  0  0  0
   -1.9228    1.4354    0.4404 H   0  0  0  0  0  0  0  0  0  0  0  0
   -3.4150    0.9619   -0.4004 H   0  0  0  0  0  0  0  0  0  0  0  0
   -2.7654   -1.4495   -0.2376 H   0  0  0  0  0  0  0  0  0  0  0  0
   -0.0437    0.0525   -0.2027 H   0  0  0  0  0  0  0  0  0  0  0  0
    0.7973    1.0218   -0.0472 C   0  0  0  0  0  3  0  0  0  0  0  0
    2.1508    0.4620   -0.3959 C   0  0  0  0  0  0  0  0  0  0  0  0
    2.5268   -0.7100    0.5030 C   0  0  0  0  0  0  0  0  0  0  0  0
    0.4710    1.8117   -0.7159 H   0  0  0  0  0  0  0  0  0  0  0  0
    0.7128    1.3158    0.9943 H   0  0  0  0  0  0  0  0  0  0  0  0
    2.1527    0.1368   -1.4386 H   0  0  0  0  0  0  0  0  0  0  0  0
    2.9089    1.2504   -0.2990 H   0  0  0  0  0  0  0  0  0  0  0  0
    3.5042   -1.1037    0.2337 H   0  0  0  0  0  0  0  0  0  0  0  0
    2.5569   -0.3979    1.5450 H   0  0  0  0  0  0  0  0  0  0  0  0
    1.7904   -1.5029    0.4014 H   0  0  0  0  0  0  0  0  0  0  0  0
  1  2  1  0
  1  4  1  0
  1  5  1  0
  1  6  1  0
  2  3  2  3
  2  7  1  0
  3  8  1  0
  9 10  1  0
  9 12  1  0
  9 13  1  0
 10 11  1  0
 10 14  1  0
 10 15  1  0
 11 16  1  0
 11 17  1  0
 11 18  1  0
M  RAD  1   9   2
M  END
>  <reaction>  (5) 
rmg_rxn_16522

>  <mol_properties>  (5) 
{"1": {"label": "*0", "atom_type": "Cd"}, "2": {"label": "*1", "atom_type": "N3d"}, "7": {"label": "*2", "atom_type": "H0"}, "8": {"label": "*3", "atom_type": "Cs"}, "9": {"label": "*4", "atom_type": "Cs"}}

>  <type>  (5) 
unop_1

>  <geom_source>  (5) 
crest_best.xyz

$$$$

     RDKit          3D

 18 16  0  0  0  0  0  0  0  0999 V2000
   -0.6040   -0.4960   -3.2101 C   0  0  0  0  0  0  0  0  0  0  0  0
   -0.6040   -0.4960   -1.7177 C   0  0  0  0  0  0  0  0  0  0  0  0
   -0.6040    0.5766   -1.0500 N   0  0  0  0  0  0  0  0  0  0  0  0
    0.2742   -1.0260   -3.5875 H   0  0  0  0  0  0  0  0  0  0  0  0
   -1.4823   -1.0260   -3.5875 H   0  0  0  0  0  0  0  0  0  0  0  0
   -0.6040    0.5246   -3.5886 H   0  0  0  0  0  0  0  0  0  0  0  0
   -0.6040   -1.4857   -1.2431 H   0  0  0  0  0  0  0  0  0  0  0  0
   -0.6040    0.3465    0.1496 H   0  0  0  0  0  0  0  0  0  0  0  0
   -0.6040    0.0994    1.4373 C   0  0  0  0  0  3  0  0  0  0  0  0
    0.6280    0.6954    2.1062 C   0  0  0  0  0  0  0  0  0  0  0  0
    1.7253   -0.3352    2.3396 C   0  0  0  0  0  0  0  0  0  0  0  0
   -1.3780    0.8522    1.2787 H   0  0  0  0  0  0  0  0  0  0  0  0
   -1.0332   -0.6981    2.0487 H   0  0  0  0  0  0  0  0  0  0  0  0
    1.0187    1.5098    1.4898 H   0  0  0  0  0  0  0  0  0  0  0  0
    0.3421    1.1452    3.0610 H   0  0  0  0  0  0  0  0  0  0  0  0
    2.0515   -0.7790    1.3958 H   0  0  0  0  0  0  0  0  0  0  0  0
    2.5986    0.1102    2.8190 H   0  0  0  0  0  0  0  0  0  0  0  0
    1.3695   -1.1465    2.9794 H   0  0  0  0  0  0  0  0  0  0  0  0
  1  2  1  0
  1  4  1  0
  1  5  1  0
  1  6  1  0
  2  3  2  3
  2  7  1  0
  3  8  1  0
  9 10  1  0
  9 12  1  0
  9 13  1  0
 10 11  1  0
 10 14  1  0
 10 15  1  0
 11 16  1  0
 11 17  1  0
 11 18  1  0
M  RAD  1   9   2
M  END
>  <reaction>  (6) 
rmg_rxn_16522

>  <mol_properties>  (6) 
{"1": {"label": "*0", "atom_type": "Cd"}, "2": {"label": "*1", "atom_type": "N3d"}, "7": {"label": "*2", "atom_type": "H0"}, "8": {"label": "*3", "atom_type": "Cs"}, "9": {"label": "*4", "atom_type": "Cs"}}

>  <type>  (6) 
unop_2

>  <geom_source>  (6) 
Heuristics

$$$$

     RDKit          3D

 18 16  0  0  0  0  0  0  0  0999 V2000
   -0.0924    0.1860   -2.9939 C   0  0  0  0  0  0  0  0  0  0  0  0
   -0.0924    0.1860   -1.5016 C   0  0  0  0  0  0  0  0  0  0  0  0
   -0.0924    1.2586   -0.8339 N   0  0  0  0  0  0  0  0  0  0  0  0
    0.7858   -0.3440   -3.3713 H   0  0  0  0  0  0  0  0  0  0  0  0
   -0.9707   -0.3440   -3.3713 H   0  0  0  0  0  0  0  0  0  0  0  0
   -0.0924    1.2066   -3.3725 H   0  0  0  0  0  0  0  0  0  0  0  0
   -0.0924   -0.8037   -1.0269 H   0  0  0  0  0  0  0  0  0  0  0  0
   -0.0924    1.0284    0.3657 H   0  0  0  0  0  0  0  0  0  0  0  0
   -0.0924    0.7813    1.6535 C   0  0  0  0  0  3  0  0  0  0  0  0
    0.6189   -0.5313    1.9561 C   0  0  0  0  0  0  0  0  0  0  0  0
   -0.2439   -1.7496    1.6532 C   0  0  0  0  0  0  0  0  0  0  0  0
    0.5409    1.6416    1.8766 H   0  0  0  0  0  0  0  0  0  0  0  0
   -1.0061    0.8760    2.2453 H   0  0  0  0  0  0  0  0  0  0  0  0
    1.5436   -0.5866    1.3751 H   0  0  0  0  0  0  0  0  0  0  0  0
    0.9177   -0.5493    3.0079 H   0  0  0  0  0  0  0  0  0  0  0  0
   -0.5315   -1.7723    0.5993 H   0  0  0  0  0  0  0  0  0  0  0  0
    0.2823   -2.6793    1.8762 H   0  0  0  0  0  0  0  0  0  0  0  0
   -1.1624   -1.7347    2.2450 H   0  0  0  0  0  0  0  0  0  0  0  0
  1  2  1  0
  1  4  1  0
  1  5  1  0
  1  6  1  0
  2  3  2  3
  2  7  1  0
  3  8  1  0
  9 10  1  0
  9 12  1  0
  9 13  1  0
 10 11  1  0
 10 14  1  0
 10 15  1  0
 11 16  1  0
 11 17  1  0
 11 18  1  0
M  RAD  1   9   2
M  END
>  <reaction>  (7) 
rmg_rxn_16522

>  <mol_properties>  (7) 
{"1": {"label": "*0", "atom_type": "Cd"}, "2": {"label": "*1", "atom_type": "N3d"}, "7": {"label": "*2", "atom_type": "H0"}, "8": {"label": "*3", "atom_type": "Cs"}, "9": {"label": "*4", "atom_type": "Cs"}}

>  <type>  (7) 
unop_3

>  <geom_source>  (7) 
Heuristics

$$$$

     RDKit          3D

 18 16  0  0  0  0  0  0  0  0999 V2000
   -0.4967   -0.8017   -3.2254 C   0  0  0  0  0  0  0  0  0  0  0  0
   -0.4967   -0.8017   -1.7331 C   0  0  0  0  0  0  0  0  0  0  0  0
   -0.4967    0.2709   -1.0654 N   0  0  0  0  0  0  0  0  0  0  0  0
    0.3815   -1.3317   -3.6028 H   0  0  0  0  0  0  0  0  0  0  0  0
   -1.3750   -1.3317   -3.6028 H   0  0  0  0  0  0  0  0  0  0  0  0
   -0.4967    0.2189   -3.6040 H   0  0  0  0  0  0  0  0  0  0  0  0
   -0.4967   -1.7914   -1.2584 H   0  0  0  0  0  0  0  0  0  0  0  0
   -0.4967    0.0407    0.1342 H   0  0  0  0  0  0  0  0  0  0  0  0
   -0.4967   -0.2064    1.4220 C   0  0  0  0  0  3  0  0  0  0  0  0
    0.2146    0.9010    2.1890 C   0  0  0  0  0  0  0  0  0  0  0  0
    1.7126    0.6564    2.3181 C   0  0  0  0  0  0  0  0  0  0  0  0
   -1.5677   -0.0135    1.3400 H   0  0  0  0  0  0  0  0  0  0  0  0
   -0.3675   -1.1709    1.9189 H   0  0  0  0  0  0  0  0  0  0  0  0
    0.0439    1.8581    1.6884 H   0  0  0  0  0  0  0  0  0  0  0  0
   -0.2262    0.9948    3.1853 H   0  0  0  0  0  0  0  0  0  0  0  0
    2.1837    0.5892    1.3345 H   0  0  0  0  0  0  0  0  0  0  0  0
    2.2041    1.4595    2.8699 H   0  0  0  0  0  0  0  0  0  0  0  0
    1.9115   -0.2810    2.8433 H   0  0  0  0  0  0  0  0  0  0  0  0
  1  2  1  0
  1  4  1  0
  1  5  1  0
  1  6  1  0
  2  3  2  3
  2  7  1  0
  3  8  1  0
  9 10  1  0
  9 12  1  0
  9 13  1  0
 10 11  1  0
 10 14  1  0
 10 15  1  0
 11 16  1  0
 11 17  1  0
 11 18  1  0
M  RAD  1   9   2
M  END
>  <reaction>  (8) 
rmg_rxn_16522

>  <mol_properties>  (8) 
{"1": {"label": "*0", "atom_type": "Cd"}, "2": {"label": "*1", "atom_type": "N3d"}, "7": {"label": "*2", "atom_type": "H0"}, "8": {"label": "*3", "atom_type": "Cs"}, "9": {"label": "*4", "atom_type": "Cs"}}

>  <type>  (8) 
unop_4

>  <geom_source>  (8) 
Heuristics

$$$$

     RDKit          3D

 18 16  0  0  0  0  0  0  0  0999 V2000
    0.6268   -0.2472   -2.9192 C   0  0  0  0  0  0  0  0  0  0  0  0
    0.6268   -0.2472   -1.4269 C   0  0  0  0  0  0  0  0  0  0  0  0
    0.6268    0.8254   -0.7592 N   0  0  0  0  0  0  0  0  0  0  0  0
    1.5050   -0.7772   -3.2966 H   0  0  0  0  0  0  0  0  0  0  0  0
   -0.2515   -0.7772   -3.2966 H   0  0  0  0  0  0  0  0  0  0  0  0
    0.6268    0.7734   -3.2978 H   0  0  0  0  0  0  0  0  0  0  0  0
    0.6268   -1.2369   -0.9522 H   0  0  0  0  0  0  0  0  0  0  0  0
    0.6268    0.5952    0.4404 H   0  0  0  0  0  0  0  0  0  0  0  0
    0.6268    0.3481    1.7281 C   0  0  0  0  0  3  0  0  0  0  0  0
   -0.6053   -0.4531    2.1289 C   0  0  0  0  0  0  0  0  0  0  0  0
   -1.7946   -0.1987    1.2116 C   0  0  0  0  0  0  0  0  0  0  0  0
    1.4672    0.1527    2.3963 H   0  0  0  0  0  0  0  0  0  0  0  0
    0.4207    1.4209    1.7545 H   0  0  0  0  0  0  0  0  0  0  0  0
   -0.3634   -1.5195    2.1241 H   0  0  0  0  0  0  0  0  0  0  0  0
   -0.8805   -0.2071    3.1583 H   0  0  0  0  0  0  0  0  0  0  0  0
   -1.5558   -0.4659    0.1793 H   0  0  0  0  0  0  0  0  0  0  0  0
   -2.6665   -0.7808    1.5144 H   0  0  0  0  0  0  0  0  0  0  0  0
   -2.0769    0.8569    1.2217 H   0  0  0  0  0  0  0  0  0  0  0  0
  1  2  1  0
  1  4  1  0
  1  5  1  0
  1  6  1  0
  2  3  2  3
  2  7  1  0
  3  8  1  0
  9 10  1  0
  9 12  1  0
  9 13  1  0
 10 11  1  0
 10 14  1  0
 10 15  1  0
 11 16  1  0
 11 17  1  0
 11 18  1  0
M  RAD  1   9   2
M  END
>  <reaction>  (9) 
rmg_rxn_16522

>  <mol_properties>  (9) 
{"1": {"label": "*0", "atom_type": "Cd"}, "2": {"label": "*1", "atom_type": "N3d"}, "7": {"label": "*2", "atom_type": "H0"}, "8": {"label": "*3", "atom_type": "Cs"}, "9": {"label": "*4", "atom_type": "Cs"}}

>  <type>  (9) 
unop_5

>  <geom_source>  (9) 
Heuristics

$$$$

     RDKit          3D

 18 16  0  0  0  0  0  0  0  0999 V2000
   -0.2121   -1.0563   -3.1645 C   0  0  0  0  0  0  0  0  0  0  0  0
   -0.2121   -1.0563   -1.6722 C   0  0  0  0  0  0  0  0  0  0  0  0
   -0.2121    0.0163   -1.0045 N   0  0  0  0  0  0  0  0  0  0  0  0
    0.6662   -1.5863   -3.5419 H   0  0  0  0  0  0  0  0  0  0  0  0
   -1.0903   -1.5863   -3.5419 H   0  0  0  0  0  0  0  0  0  0  0  0
   -0.2121   -0.0357   -3.5431 H   0  0  0  0  0  0  0  0  0  0  0  0
   -0.2121   -2.0460   -1.1976 H   0  0  0  0  0  0  0  0  0  0  0  0
   -0.2121   -0.2139    0.1951 H   0  0  0  0  0  0  0  0  0  0  0  0
   -0.2121   -0.4610    1.4828 C   0  0  0  0  0  3  0  0  0  0  0  0
   -0.2121    0.8336    2.2857 C   0  0  0  0  0  0  0  0  0  0  0  0
    1.0022    1.7056    1.9929 C   0  0  0  0  0  0  0  0  0  0  0  0
   -1.0887   -1.0714    1.7060 H   0  0  0  0  0  0  0  0  0  0  0  0
    0.6763   -1.0576    1.7037 H   0  0  0  0  0  0  0  0  0  0  0  0
   -1.1247    1.3960    2.0696 H   0  0  0  0  0  0  0  0  0  0  0  0
   -0.2433    0.5997    3.3535 H   0  0  0  0  0  0  0  0  0  0  0  0
    1.0405    1.9798    0.9359 H   0  0  0  0  0  0  0  0  0  0  0  0
    0.9843    2.6274    2.5769 H   0  0  0  0  0  0  0  0  0  0  0  0
    1.9289    1.1772    2.2299 H   0  0  0  0  0  0  0  0  0  0  0  0
  1  2  1  0
  1  4  1  0
  1  5  1  0
  1  6  1  0
  2  3  2  3
  2  7  1  0
  3  8  1  0
  9 10  1  0
  9 12  1  0
  9 13  1  0
 10 11  1  0
 10 14  1  0
 10 15  1  0
 11 16  1  0
 11 17  1  0
 11 18  1  0
M  RAD  1   9   2
M  END
>  <reaction>  (10) 
rmg_rxn_16522

>  <mol_properties>  (10) 
{"1": {"label": "*0", "atom_type": "Cd"}, "2": {"label": "*1", "atom_type": "N3d"}, "7": {"label": "*2", "atom_type": "H0"}, "8": {"label": "*3", "atom_type": "Cs"}, "9": {"label": "*4", "atom_type": "Cs"}}

>  <type>  (10) 
unop_6

>  <geom_source>  (10) 
Heuristics

$$$$

     RDKit          3D

 18 16  0  0  0  0  0  0  0  0999 V2000
    0.6585   -0.5589   -2.9655 C   0  0  0  0  0  0  0  0  0  0  0  0
    0.6585   -0.5589   -1.4732 C   0  0  0  0  0  0  0  0  0  0  0  0
    0.6585    0.5137   -0.8055 N   0  0  0  0  0  0  0  0  0  0  0  0
    1.5368   -1.0889   -3.3429 H   0  0  0  0  0  0  0  0  0  0  0  0
   -0.2198   -1.0889   -3.3429 H   0  0  0  0  0  0  0  0  0  0  0  0
    0.6585    0.4617   -3.3441 H   0  0  0  0  0  0  0  0  0  0  0  0
    0.6585   -1.5486   -0.9985 H   0  0  0  0  0  0  0  0  0  0  0  0
    0.6585    0.2835    0.3941 H   0  0  0  0  0  0  0  0  0  0  0  0
    0.6585    0.0365    1.6819 C   0  0  0  0  0  3  0  0  0  0  0  0
   -0.7642   -0.0662    2.2167 C   0  0  0  0  0  0  0  0  0  0  0  0
   -1.7828    0.6097    1.3078 C   0  0  0  0  0  0  0  0  0  0  0  0
    1.3730   -0.4529    2.3459 H   0  0  0  0  0  0  0  0  0  0  0  0
    0.9615    1.0809    1.5756 H   0  0  0  0  0  0  0  0  0  0  0  0
   -1.0307   -1.1192    2.3425 H   0  0  0  0  0  0  0  0  0  0  0  0
   -0.8117    0.3819    3.2131 H   0  0  0  0  0  0  0  0  0  0  0  0
   -1.7775    0.1592    0.3122 H   0  0  0  0  0  0  0  0  0  0  0  0
   -2.7949    0.5256    1.7072 H   0  0  0  0  0  0  0  0  0  0  0  0
   -1.5568    1.6722    1.1897 H   0  0  0  0  0  0  0  0  0  0  0  0
  1  2  1  0
  1  4  1  0
  1  5  1  0
  1  6  1  0
  2  3  2  3
  2  7  1  0
  3  8  1  0
  9 10  1  0
  9 12  1  0
  9 13  1  0
 10 11  1  0
 10 14  1  0
 10 15  1  0
 11 16  1  0
 11 17  1  0
 11 18  1  0
M  RAD  1   9   2
M  END
>  <reaction>  (11) 
rmg_rxn_16522

>  <mol_properties>  (11) 
{"1": {"label": "*0", "atom_type": "Cd"}, "2": {"label": "*1", "atom_type": "N3d"}, "7": {"label": "*2", "atom_type": "H0"}, "8": {"label": "*3", "atom_type": "Cs"}, "9": {"label": "*4", "atom_type": "Cs"}}

>  <type>  (11) 
unop_7

>  <geom_source>  (11) 
Heuristics

$$$$

     RDKit          3D

 18 16  0  0  0  0  0  0  0  0999 V2000
    0.5245   -0.8689   -3.0244 C   0  0  0  0  0  0  0  0  0  0  0  0
    0.5245   -0.8689   -1.5321 C   0  0  0  0  0  0  0  0  0  0  0  0
    0.5245    0.2037   -0.8644 N   0  0  0  0  0  0  0  0  0  0  0  0
    1.4027   -1.3989   -3.4018 H   0  0  0  0  0  0  0  0  0  0  0  0
   -0.3538   -1.3989   -3.4018 H   0  0  0  0  0  0  0  0  0  0  0  0
    0.5245    0.1517   -3.4030 H   0  0  0  0  0  0  0  0  0  0  0  0
    0.5245   -1.8586   -1.0574 H   0  0  0  0  0  0  0  0  0  0  0  0
    0.5245   -0.0264    0.3352 H   0  0  0  0  0  0  0  0  0  0  0  0
    0.5245   -0.2735    1.6230 C   0  0  0  0  0  3  0  0  0  0  0  0
   -0.7076    0.3225    2.2919 C   0  0  0  0  0  0  0  0  0  0  0  0
   -1.3491    1.4272    1.4621 C   0  0  0  0  0  0  0  0  0  0  0  0
    0.9695   -1.0623    2.2319 H   0  0  0  0  0  0  0  0  0  0  0  0
    1.2870    0.4912    1.4566 H   0  0  0  0  0  0  0  0  0  0  0  0
   -1.4408   -0.4680    2.4746 H   0  0  0  0  0  0  0  0  0  0  0  0
   -0.4334    0.7175    3.2740 H   0  0  0  0  0  0  0  0  0  0  0  0
   -1.6610    1.0507    0.4848 H   0  0  0  0  0  0  0  0  0  0  0  0
   -2.2292    1.8412    1.9571 H   0  0  0  0  0  0  0  0  0  0  0  0
   -0.6456    2.2455    1.2906 H   0  0  0  0  0  0  0  0  0  0  0  0
  1  2  1  0
  1  4  1  0
  1  5  1  0
  1  6  1  0
  2  3  2  3
  2  7  1  0
  3  8  1  0
  9 10  1  0
  9 12  1  0
  9 13  1  0
 10 11  1  0
 10 14  1  0
 10 15  1  0
 11 16  1  0
 11 17  1  0
 11 18  1  0
M  RAD  1   9   2
M  END
>  <reaction>  (12) 
rmg_rxn_16522

>  <mol_properties>  (12) 
{"1": {"label": "*0", "atom_type": "Cd"}, "2": {"label": "*1", "atom_type": "N3d"}, "7": {"label": "*2", "atom_type": "H0"}, "8": {"label": "*3", "atom_type": "Cs"}, "9": {"label": "*4", "atom_type": "Cs"}}

>  <type>  (12) 
unop_8

>  <geom_source>  (12) 
Heuristics

$$$$

     RDKit          3D

 18 16  0  0  0  0  0  0  0  0999 V2000
   -0.5626   -0.1891   -3.1497 C   0  0  0  0  0  0  0  0  0  0  0  0
   -0.5626   -0.1891   -1.6573 C   0  0  0  0  0  0  0  0  0  0  0  0
   -0.5626    0.8835   -0.9896 N   0  0  0  0  0  0  0  0  0  0  0  0
    0.3157   -0.7191   -3.5271 H   0  0  0  0  0  0  0  0  0  0  0  0
   -1.4409   -0.7191   -3.5271 H   0  0  0  0  0  0  0  0  0  0  0  0
   -0.5626    0.8315   -3.5282 H   0  0  0  0  0  0  0  0  0  0  0  0
   -0.5626   -1.1788   -1.1827 H   0  0  0  0  0  0  0  0  0  0  0  0
   -0.5626    0.6534    0.2100 H   0  0  0  0  0  0  0  0  0  0  0  0
   -0.5626    0.4063    1.4977 C   0  0  0  0  0  3  0  0  0  0  0  0
    0.8601    0.3037    2.0326 C   0  0  0  0  0  0  0  0  0  0  0  0
    1.3296   -1.1382    2.1780 C   0  0  0  0  0  0  0  0  0  0  0  0
   -0.8807    1.4457    1.4006 H   0  0  0  0  0  0  0  0  0  0  0  0
   -1.2674   -0.0986    2.1629 H   0  0  0  0  0  0  0  0  0  0  0  0
    1.5393    0.8422    1.3659 H   0  0  0  0  0  0  0  0  0  0  0  0
    0.9217    0.8061    3.0019 H   0  0  0  0  0  0  0  0  0  0  0  0
    1.3070   -1.6553    1.2157 H   0  0  0  0  0  0  0  0  0  0  0  0
    2.3498   -1.1910    2.5620 H   0  0  0  0  0  0  0  0  0  0  0  0
    0.6845   -1.6917    2.8646 H   0  0  0  0  0  0  0  0  0  0  0  0
  1  2  1  0
  1  4  1  0
  1  5  1  0
  1  6  1  0
  2  3  2  3
  2  7  1  0
  3  8  1  0
  9 10  1  0
  9 12  1  0
  9 13  1  0
 10 11  1  0
 10 14  1  0
 10 15  1  0
 11 16  1  0
 11 17  1  0
 11 18  1  0
M  RAD  1   9   2
M  END
>  <reaction>  (13) 
rmg_rxn_16522

>  <mol_properties>  (13) 
{"1": {"label": "*0", "atom_type": "Cd"}, "2": {"label": "*1", "atom_type": "N3d"}, "7": {"label": "*2", "atom_type": "H0"}, "8": {"label": "*3", "atom_type": "Cs"}, "9": {"label": "*4", "atom_type": "Cs"}}

>  <type>  (13) 
unop_9

>  <geom_source>  (13) 
Heuristics

$$$$

     RDKit          3D

 18 16  0  0  0  0  0  0  0  0999 V2000
   -2.6692    0.6534    0.3307 C   0  0  0  0  0  0  0  0  0  0  0  0
   -2.0410   -0.6347   -0.1139 C   0  0  0  0  0  0  0  0  0  0  0  0
   -0.8553   -0.8961   -0.3526 N   0  0  0  0  0  0  0  0  0  0  0  0
   -3.1761    0.4977    1.2819 H   0  0  0  0  0  0  0  0  0  0  0  0
   -1.9228    1.4354    0.4404 H   0  0  0  0  0  0  0  0  0  0  0  0
   -3.4150    0.9619   -0.4004 H   0  0  0  0  0  0  0  0  0  0  0  0
   -2.7654   -1.4495   -0.2376 H   0  0  0  0  0  0  0  0  0  0  0  0
   -0.0437    0.0525   -0.2027 H   0  0  0  0  0  0  0  0  0  0  0  0
    0.7973    1.0218   -0.0472 C   0  0  0  0  0  3  0  0  0  0  0  0
    2.1508    0.4620   -0.3959 C   0  0  0  0  0  0  0  0  0  0  0  0
    2.5268   -0.7100    0.5030 C   0  0  0  0  0  0  0  0  0  0  0  0
    0.4710    1.8117   -0.7159 H   0  0  0  0  0  0  0  0  0  0  0  0
    0.7128    1.3158    0.9943 H   0  0  0  0  0  0  0  0  0  0  0  0
    2.1527    0.1368   -1.4386 H   0  0  0  0  0  0  0  0  0  0  0  0
    2.9089    1.2504   -0.2990 H   0  0  0  0  0  0  0  0  0  0  0  0
    3.5042   -1.1037    0.2337 H   0  0  0  0  0  0  0  0  0  0  0  0
    2.5569   -0.3979    1.5450 H   0  0  0  0  0  0  0  0  0  0  0  0
    1.7904   -1.5029    0.4014 H   0  0  0  0  0  0  0  0  0  0  0  0
  1  2  1  0
  1  4  1  0
  1  5  1  0
  1  6  1  0
  2  3  2  3
  2  7  1  0
  3  8  1  0
  9 10  1  0
  9 12  1  0
  9 13  1  0
 10 11  1  0
 10 14  1  0
 10 15  1  0
 11 16  1  0
 11 17  1  0
 11 18  1  0
M  RAD  1   9   2
M  END
>  <reaction>  (14) 
rmg_rxn_16522

>  <mol_properties>  (14) 
{"1": {"label": "*0", "atom_type": "Cd"}, "2": {"label": "*1", "atom_type": "N3d"}, "7": {"label": "*2", "atom_type": "H0"}, "8": {"label": "*3", "atom_type": "Cs"}, "9": {"label": "*4", "atom_type": "Cs"}}

>  <type>  (14) 
unop_10

>  <geom_source>  (14) 
Heuristics

$$$$

     RDKit          3D

 18 16  0  0  0  0  0  0  0  0999 V2000
    0.4652    0.0048   -2.9037 C   0  0  0  0  0  0  0  0  0  0  0  0
    0.4652    0.0048   -1.4114 C   0  0  0  0  0  0  0  0  0  0  0  0
    0.4652    1.0774   -0.7437 N   0  0  0  0  0  0  0  0  0  0  0  0
    1.3434   -0.5252   -3.2811 H   0  0  0  0  0  0  0  0  0  0  0  0
   -0.4131   -0.5252   -3.2811 H   0  0  0  0  0  0  0  0  0  0  0  0
    0.4652    1.0254   -3.2823 H   0  0  0  0  0  0  0  0  0  0  0  0
    0.4652   -0.9849   -0.9367 H   0  0  0  0  0  0  0  0  0  0  0  0
    0.4652    0.8472    0.4559 H   0  0  0  0  0  0  0  0  0  0  0  0
    0.4652    0.6002    1.7437 C   0  0  0  0  0  3  0  0  0  0  0  0
   -0.2462   -0.7124    2.0464 C   0  0  0  0  0  0  0  0  0  0  0  0
   -1.5175   -0.8933    1.2269 C   0  0  0  0  0  0  0  0  0  0  0  0
    1.3725    0.7114    2.3397 H   0  0  0  0  0  0  0  0  0  0  0  0
   -0.1826    1.4538    1.9576 H   0  0  0  0  0  0  0  0  0  0  0  0
    0.4331   -1.5475    1.8535 H   0  0  0  0  0  0  0  0  0  0  0  0
   -0.4902   -0.7571    3.1114 H   0  0  0  0  0  0  0  0  0  0  0  0
   -1.2972   -0.8833    0.1567 H   0  0  0  0  0  0  0  0  0  0  0  0
   -2.0123   -1.8383    1.4574 H   0  0  0  0  0  0  0  0  0  0  0  0
   -2.2277   -0.0867    1.4245 H   0  0  0  0  0  0  0  0  0  0  0  0
  1  2  1  0
  1  4  1  0
  1  5  1  0
  1  6  1  0
  2  3  2  3
  2  7  1  0
  3  8  1  0
  9 10  1  0
  9 12  1  0
  9 13  1  0
 10 11  1  0
 10 14  1  0
 10 15  1  0
 11 16  1  0
 11 17  1  0
 11 18  1  0
M  RAD  1   9   2
M  END
>  <reaction>  (15) 
rmg_rxn_16522

>  <mol_properties>  (15) 
{"1": {"label": "*0", "atom_type": "Cd"}, "2": {"label": "*1", "atom_type": "N3d"}, "7": {"label": "*2", "atom_type": "H0"}, "8": {"label": "*3", "atom_type": "Cs"}, "9": {"label": "*4", "atom_type": "Cs"}}

>  <type>  (15) 
unop_11

>  <geom_source>  (15) 
Heuristics

$$$$

     RDKit          3D

 18 16  0  0  0  0  0  0  0  0999 V2000
   -0.3773    0.0598   -3.0721 C   0  0  0  0  0  0  0  0  0  0  0  0
   -0.3773    0.0598   -1.5798 C   0  0  0  0  0  0  0  0  0  0  0  0
   -0.3773    1.1325   -0.9121 N   0  0  0  0  0  0  0  0  0  0  0  0
    0.5009   -0.4702   -3.4495 H   0  0  0  0  0  0  0  0  0  0  0  0
   -1.2556   -0.4702   -3.4495 H   0  0  0  0  0  0  0  0  0  0  0  0
   -0.3773    1.0804   -3.4507 H   0  0  0  0  0  0  0  0  0  0  0  0
   -0.3773   -0.9299   -1.1051 H   0  0  0  0  0  0  0  0  0  0  0  0
   -0.3773    0.9023    0.2875 H   0  0  0  0  0  0  0  0  0  0  0  0
   -0.3773    0.6552    1.5753 C   0  0  0  0  0  3  0  0  0  0  0  0
    0.8547   -0.1460    1.9760 C   0  0  0  0  0  0  0  0  0  0  0  0
    0.6158   -1.6499    1.9342 C   0  0  0  0  0  0  0  0  0  0  0  0
   -0.1867    1.7291    1.6114 H   0  0  0  0  0  0  0  0  0  0  0  0
   -1.2162    0.4416    2.2421 H   0  0  0  0  0  0  0  0  0  0  0  0
    1.6863    0.1091    1.3132 H   0  0  0  0  0  0  0  0  0  0  0  0
    1.1666    0.1451    2.9829 H   0  0  0  0  0  0  0  0  0  0  0  0
    0.3320   -1.9725    0.9295 H   0  0  0  0  0  0  0  0  0  0  0  0
    1.5088   -2.2062    2.2241 H   0  0  0  0  0  0  0  0  0  0  0  0
   -0.1917   -1.9362    2.6124 H   0  0  0  0  0  0  0  0  0  0  0  0
  1  2  1  0
  1  4  1  0
  1  5  1  0
  1  6  1  0
  2  3  2  3
  2  7  1  0
  3  8  1  0
  9 10  1  0
  9 12  1  0
  9 13  1  0
 10 11  1  0
 10 14  1  0
 10 15  1  0
 11 16  1  0
 11 17  1  0
 11 18  1  0
M  RAD  1   9   2
M  END
>  <reaction>  (16) 
rmg_rxn_16522

>  <mol_properties>  (16) 
{"1": {"label": "*0", "atom_type": "Cd"}, "2": {"label": "*1", "atom_type": "N3d"}, "7": {"label": "*2", "atom_type": "H0"}, "8": {"label": "*3", "atom_type": "Cs"}, "9": {"label": "*4", "atom_type": "Cs"}}

>  <type>  (16) 
unop_12

>  <geom_source>  (16) 
Heuristics

$$$$

     RDKit          3D

 18 16  0  0  0  0  0  0  0  0999 V2000
    0.2108   -1.0821   -3.0858 C   0  0  0  0  0  0  0  0  0  0  0  0
    0.2108   -1.0821   -1.5935 C   0  0  0  0  0  0  0  0  0  0  0  0
    0.2108   -0.0095   -0.9258 N   0  0  0  0  0  0  0  0  0  0  0  0
    1.0890   -1.6121   -3.4632 H   0  0  0  0  0  0  0  0  0  0  0  0
   -0.6675   -1.6121   -3.4632 H   0  0  0  0  0  0  0  0  0  0  0  0
    0.2108   -0.0615   -3.4644 H   0  0  0  0  0  0  0  0  0  0  0  0
    0.2108   -2.0718   -1.1188 H   0  0  0  0  0  0  0  0  0  0  0  0
    0.2108   -0.2396    0.2738 H   0  0  0  0  0  0  0  0  0  0  0  0
    0.2108   -0.4867    1.5616 C   0  0  0  0  0  3  0  0  0  0  0  0
   -0.5006    0.6206    2.3286 C   0  0  0  0  0  0  0  0  0  0  0  0
   -0.3611    1.9815    1.6584 C   0  0  0  0  0  0  0  0  0  0  0  0
    0.0996   -1.4529    2.0567 H   0  0  0  0  0  0  0  0  0  0  0  0
    1.2795   -0.2767    1.4736 H   0  0  0  0  0  0  0  0  0  0  0  0
   -1.5605    0.3711    2.4287 H   0  0  0  0  0  0  0  0  0  0  0  0
   -0.1019    0.6731    3.3455 H   0  0  0  0  0  0  0  0  0  0  0  0
   -0.7806    1.9649    0.6495 H   0  0  0  0  0  0  0  0  0  0  0  0
   -0.8767    2.7609    2.2219 H   0  0  0  0  0  0  0  0  0  0  0  0
    0.6896    2.2693    1.5735 H   0  0  0  0  0  0  0  0  0  0  0  0
  1  2  1  0
  1  4  1  0
  1  5  1  0
  1  6  1  0
  2  3  2  3
  2  7  1  0
  3  8  1  0
  9 10  1  0
  9 12  1  0
  9 13  1  0
 10 11  1  0
 10 14  1  0
 10 15  1  0
 11 16  1  0
 11 17  1  0
 11 18  1  0
M  RAD  1   9   2
M  END
>  <reaction>  (17) 
rmg_rxn_16522

>  <mol_properties>  (17) 
{"1": {"label": "*0", "atom_type": "Cd"}, "2": {"label": "*1", "atom_type": "N3d"}, "7": {"label": "*2", "atom_type": "H0"}, "8": {"label": "*3", "atom_type": "Cs"}, "9": {"label": "*4", "atom_type": "Cs"}}

>  <type>  (17) 
unop_13

>  <geom_source>  (17) 
Heuristics

$$$$

     RDKit          3D

 18 16  0  0  0  0  0  0  0  0999 V2000
    0.2121    0.1606   -2.9310 C   0  0  0  0  0  0  0  0  0  0  0  0
    0.2121    0.1606   -1.4387 C   0  0  0  0  0  0  0  0  0  0  0  0
    0.2121    1.2332   -0.7710 N   0  0  0  0  0  0  0  0  0  0  0  0
    1.0903   -0.3694   -3.3085 H   0  0  0  0  0  0  0  0  0  0  0  0
   -0.6662   -0.3694   -3.3085 H   0  0  0  0  0  0  0  0  0  0  0  0
    0.2121    1.1812   -3.3096 H   0  0  0  0  0  0  0  0  0  0  0  0
    0.2121   -0.8291   -0.9641 H   0  0  0  0  0  0  0  0  0  0  0  0
    0.2121    1.0031    0.4286 H   0  0  0  0  0  0  0  0  0  0  0  0
    0.2121    0.7560    1.7163 C   0  0  0  0  0  3  0  0  0  0  0  0
    0.2121   -0.7438    1.9831 C   0  0  0  0  0  0  0  0  0  0  0  0
   -1.0022   -1.4455    1.3883 C   0  0  0  0  0  0  0  0  0  0  0  0
    1.0887    1.2405    2.1496 H   0  0  0  0  0  0  0  0  0  0  0  0
   -0.6763    1.2285    2.1424 H   0  0  0  0  0  0  0  0  0  0  0  0
    1.1247   -1.1863    1.5742 H   0  0  0  0  0  0  0  0  0  0  0  0
    0.2433   -0.9217    3.0616 H   0  0  0  0  0  0  0  0  0  0  0  0
   -1.0405   -1.3090    0.3048 H   0  0  0  0  0  0  0  0  0  0  0  0
   -0.9843   -2.5180    1.5896 H   0  0  0  0  0  0  0  0  0  0  0  0
   -1.9289   -1.0424    1.8040 H   0  0  0  0  0  0  0  0  0  0  0  0
  1  2  1  0
  1  4  1  0
  1  5  1  0
  1  6  1  0
  2  3  2  3
  2  7  1  0
  3  8  1  0
  9 10  1  0
  9 12  1  0
  9 13  1  0
 10 11  1  0
 10 14  1  0
 10 15  1  0
 11 16  1  0
 11 17  1  0
 11 18  1  0
M  RAD  1   9   2
M  END
>  <reaction>  (18) 
rmg_rxn_16522

>  <mol_properties>  (18) 
{"1": {"label": "*0", "atom_type": "Cd"}, "2": {"label": "*1", "atom_type": "N3d"}, "7": {"label": "*2", "atom_type": "H0"}, "8": {"label": "*3", "atom_type": "Cs"}, "9": {"label": "*4", "atom_type": "Cs"}}

>  <type>  (18) 
unop_14

>  <geom_source>  (18) 
Heuristics

$$$$

     RDKit          3D

 18 16  0  0  0  0  0  0  0  0999 V2000
   -0.0925    0.1860   -2.9939 C   0  0  0  0  0  0  0  0  0  0  0  0
   -0.0925    0.1860   -1.5016 C   0  0  0  0  0  0  0  0  0  0  0  0
   -0.0925    1.2586   -0.8339 N   0  0  0  0  0  0  0  0  0  0  0  0
    0.7858   -0.3440   -3.3713 H   0  0  0  0  0  0  0  0  0  0  0  0
   -0.9707   -0.3440   -3.3713 H   0  0  0  0  0  0  0  0  0  0  0  0
   -0.0925    1.2066   -3.3725 H   0  0  0  0  0  0  0  0  0  0  0  0
   -0.0925   -0.8037   -1.0269 H   0  0  0  0  0  0  0  0  0  0  0  0
   -0.0925    1.0284    0.3657 H   0  0  0  0  0  0  0  0  0  0  0  0
   -0.0925    0.7813    1.6535 C   0  0  0  0  0  3  0  0  0  0  0  0
    0.6189   -0.5313    1.9561 C   0  0  0  0  0  0  0  0  0  0  0  0
   -0.2439   -1.7496    1.6532 C   0  0  0  0  0  0  0  0  0  0  0  0
    0.5409    1.6416    1.8766 H   0  0  0  0  0  0  0  0  0  0  0  0
   -1.0061    0.8760    2.2453 H   0  0  0  0  0  0  0  0  0  0  0  0
    1.5436   -0.5866    1.3751 H   0  0  0  0  0  0  0  0  0  0  0  0
    0.9177   -0.5493    3.0079 H   0  0  0  0  0  0  0  0  0  0  0  0
   -0.5315   -1.7723    0.5993 H   0  0  0  0  0  0  0  0  0  0  0  0
    0.2823   -2.6793    1.8762 H   0  0  0  0  0  0  0  0  0  0  0  0
   -1.1624   -1.7347    2.2450 H   0  0  0  0  0  0  0  0  0  0  0  0
  1  2  1  0
  1  4  1  0
  1  5  1  0
  1  6  1  0
  2  3  2  3
  2  7  1  0
  3  8  1  0
  9 10  1  0
  9 12  1  0
  9 13  1  0
 10 11  1  0
 10 14  1  0
 10 15  1  0
 11 16  1  0
 11 17  1  0
 11 18  1  0
M  RAD  1   9   2
M  END
>  <reaction>  (19) 
rmg_rxn_16522

>  <mol_properties>  (19) 
{"1": {"label": "*0", "atom_type": "Cd"}, "2": {"label": "*1", "atom_type": "N3d"}, "7": {"label": "*2", "atom_type": "H0"}, "8": {"label": "*3", "atom_type": "Cs"}, "9": {"label": "*4", "atom_type": "Cs"}}

>  <type>  (19) 
unop_15

>  <geom_source>  (19) 
gaussian_log

$$$$
