
     RDKit          3D

  9  8  0  0  0  0  0  0  0  0999 V2000
   -1.0314    0.2323   -0.1227 C   0  0  0  0  0  0  0  0  0  0  0  0
    0.3094   -0.4511    0.0063 C   0  0  0  0  0  0  0  0  0  0  0  0
    0.3197   -1.7698    0.6841 N   0  0  0  0  0  0  0  0  0  0  0  0
   -0.7498   -2.1455    1.0557 O   0  0  0  0  0  0  0  0  0  0  0  0
   -1.4744    0.4198    0.8552 H   0  0  0  0  0  0  0  0  0  0  0  0
   -0.9073    1.1865   -0.6350 H   0  0  0  0  0  0  0  0  0  0  0  0
   -1.7319   -0.3778   -0.6927 H   0  0  0  0  0  0  0  0  0  0  0  0
    1.0375    0.1401    0.5713 H   0  0  0  0  0  0  0  0  0  0  0  0
    0.7826   -0.6494   -0.9609 H   0  0  0  0  0  0  0  0  0  0  0  0
  1  2  1  0
  1  5  1  0
  1  6  1  0
  1  7  1  0
  2  3  1  0
  2  8  1  0
  2  9  1  0
  3  4  2  0
M  END
>  <reaction>  (1) 
rmg_rxn_634

>  <mol_properties>  (1) 
{"1": {"label": "donator", "atom_type": "Cs"}, "7": {"label": "d_hydrogen", "atom_type": "H0"}}

>  <type>  (1) 
r1h

$$$$

     RDKit          3D

 14 13  0  0  0  0  0  0  0  0999 V2000
    2.6694    0.2813   -0.6046 C   0  0  0  0  0  3  0  0  0  0  0  0
    1.5626   -0.5075   -0.0103 C   0  0  0  0  0  0  0  0  0  0  0  0
    0.5522   -0.8487   -0.9278 O   0  0  0  0  0  0  0  0  0  0  0  0
    0.9505   -1.8204   -1.8682 C   0  0  0  0  0  0  0  0  0  0  0  0
   -0.2101   -2.1029   -2.7930 C   0  0  0  0  0  0  0  0  0  0  0  0
    2.4666    0.9443   -1.4355 H   0  0  0  0  0  0  0  0  0  0  0  0
    3.6339    0.3312   -0.1179 H   0  0  0  0  0  0  0  0  0  0  0  0
    1.0573    0.0741    0.7733 H   0  0  0  0  0  0  0  0  0  0  0  0
    1.9580   -1.4106    0.4809 H   0  0  0  0  0  0  0  0  0  0  0  0
    1.8195   -1.4649   -2.4379 H   0  0  0  0  0  0  0  0  0  0  0  0
    1.2587   -2.7372   -1.3440 H   0  0  0  0  0  0  0  0  0  0  0  0
   -0.5051   -1.1971   -3.3238 H   0  0  0  0  0  0  0  0  0  0  0  0
    0.0686   -2.8601   -3.5276 H   0  0  0  0  0  0  0  0  0  0  0  0
   -1.0699   -2.4661   -2.2289 H   0  0  0  0  0  0  0  0  0  0  0  0
  1  2  1  0
  1  6  1  0
  1  7  1  0
  2  3  1  0
  2  8  1  0
  2  9  1  0
  3  4  1  0
  4  5  1  0
  4 10  1  0
  4 11  1  0
  5 12  1  0
  5 13  1  0
  5 14  1  0
M  RAD  1   1   2
M  END
>  <reaction>  (2) 
rmg_rxn_634

>  <mol_properties>  (2) 
{"0": {"label": "acceptor", "atom_type": "Cs"}}

>  <type>  (2) 
r2

$$$$

     RDKit          3D

 15 14  0  0  0  0  0  0  0  0999 V2000
    2.4145    0.0817    0.4065 C   0  0  0  0  0  0  0  0  0  0  0  0
    1.1257   -0.2220   -0.3219 C   0  0  0  0  0  0  0  0  0  0  0  0
    1.0983   -1.5879   -0.6512 O   0  0  0  0  0  0  0  0  0  0  0  0
   -0.0685   -1.9694   -1.3352 C   0  0  0  0  0  0  0  0  0  0  0  0
    0.0024   -3.4478   -1.6403 C   0  0  0  0  0  0  0  0  0  0  0  0
    3.2736   -0.1534   -0.2229 H   0  0  0  0  0  0  0  0  0  0  0  0
    2.4581    1.1389    0.6728 H   0  0  0  0  0  0  0  0  0  0  0  0
    2.4855   -0.5095    1.3201 H   0  0  0  0  0  0  0  0  0  0  0  0
    0.2597    0.0294    0.3083 H   0  0  0  0  0  0  0  0  0  0  0  0
    1.0482    0.3858   -1.2356 H   0  0  0  0  0  0  0  0  0  0  0  0
   -0.9535   -1.7457   -0.7211 H   0  0  0  0  0  0  0  0  0  0  0  0
   -0.1650   -1.3894   -2.2650 H   0  0  0  0  0  0  0  0  0  0  0  0
    0.0831   -4.0247   -0.7183 H   0  0  0  0  0  0  0  0  0  0  0  0
   -0.8950   -3.7674   -2.1724 H   0  0  0  0  0  0  0  0  0  0  0  0
    0.8712   -3.6686   -2.2613 H   0  0  0  0  0  0  0  0  0  0  0  0
  1  2  1  0
  1  6  1  0
  1  7  1  0
  1  8  1  0
  2  3  1  0
  2  9  1  0
  2 10  1  0
  3  4  1  0
  4  5  1  0
  4 11  1  0
  4 12  1  0
  5 13  1  0
  5 14  1  0
  5 15  1  0
M  END
>  <reaction>  (3) 
rmg_rxn_634

>  <mol_properties>  (3) 
{"0": {"label": "a_hydrogen", "atom_type": "H0"}, "1": {"label": "acceptor", "atom_type": "Cs"}}

>  <type>  (3) 
r2h

$$$$

     RDKit          3D

 23 21  0  0  0  0  0  0  0  0999 V2000
   -2.2125   -1.6317   -1.7963 C   0  0  0  0  0  0  0  0  0  0  0  0
   -1.2954   -0.6014   -1.1898 C   0  0  0  0  0  0  0  0  0  0  0  0
   -0.4455    0.1553   -2.0610 N   0  0  0  0  0  0  0  0  0  0  0  0
   -0.2004   -0.3764   -3.1208 O   0  0  0  0  0  0  0  0  0  0  0  0
   -1.6540   -2.3429   -2.4029 H   0  0  0  0  0  0  0  0  0  0  0  0
   -2.7350   -2.1712   -1.0061 H   0  0  0  0  0  0  0  0  0  0  0  0
   -2.9571   -1.1570   -2.4384 H   0  0  0  0  0  0  0  0  0  0  0  0
   -0.4705   -1.2046   -0.4990 H   0  0  0  0  0  0  0  0  0  0  0  0
   -1.7463    0.0777   -0.4685 H   0  0  0  0  0  0  0  0  0  0  0  0
    0.5648   -1.9339    0.2912 C   0  0  0  0  0  3  0  0  0  0  0  0
    1.5920   -0.8642    0.4105 C   0  0  0  0  0  0  0  0  0  0  0  0
    1.0668    0.1872    1.1738 O   0  0  0  0  0  0  0  0  0  0  0  0
    1.8930    1.3293    1.1888 C   0  0  0  0  0  0  0  0  0  0  0  0
    1.2246    2.4013    2.0162 C   0  0  0  0  0  0  0  0  0  0  0  0
    0.0225   -2.1875    1.1964 H   0  0  0  0  0  0  0  0  0  0  0  0
    0.8058   -2.7685   -0.3590 H   0  0  0  0  0  0  0  0  0  0  0  0
    1.8839   -0.5080   -0.5886 H   0  0  0  0  0  0  0  0  0  0  0  0
    2.5056   -1.2653    0.8844 H   0  0  0  0  0  0  0  0  0  0  0  0
    2.8761    1.0731    1.6094 H   0  0  0  0  0  0  0  0  0  0  0  0
    2.0537    1.6802    0.1605 H   0  0  0  0  0  0  0  0  0  0  0  0
    1.0681    2.0562    3.0389 H   0  0  0  0  0  0  0  0  0  0  0  0
    1.8463    3.2973    2.0438 H   0  0  0  0  0  0  0  0  0  0  0  0
    0.2573    2.6649    1.5873 H   0  0  0  0  0  0  0  0  0  0  0  0
  1  2  1  0
  1  5  1  0
  1  6  1  0
  1  7  1  0
  2  3  1  0
  2  8  1  0
  2  9  1  0
  3  4  2  0
 10 11  1  0
 10 15  1  0
 10 16  1  0
 11 12  1  0
 11 17  1  0
 11 18  1  0
 12 13  1  0
 13 14  1  0
 13 19  1  0
 13 20  1  0
 14 21  1  0
 14 22  1  0
 14 23  1  0
M  RAD  1  10   2
M  END
>  <reaction>  (4) 
rmg_rxn_634

>  <mol_properties>  (4) 
{"1": {"label": "*1", "atom_type": "Cs"}, "2": {"label": "*0", "atom_type": "N3d"}, "7": {"label": "*2", "atom_type": "H0"}, "9": {"label": "*3", "atom_type": "Cs"}, "10": {"label": "*4", "atom_type": "Cs"}}

>  <type>  (4) 
ts

$$$$

     RDKit          3D

 23 21  0  0  0  0  0  0  0  0999 V2000
   -1.2788   -0.8548   -2.7006 C   0  0  0  0  0  0  0  0  0  0  0  0
   -1.2788   -0.8548   -1.1901 C   0  0  0  0  0  0  0  0  0  0  0  0
   -1.2788    0.4711   -0.5265 N   0  0  0  0  0  0  0  0  0  0  0  0
   -1.2788    1.4007   -1.2742 O   0  0  0  0  0  1  0  0  0  0  0  0
   -0.3986   -0.3475   -3.0951 H   0  0  0  0  0  0  0  0  0  0  0  0
   -1.2788   -1.8820   -3.0659 H   0  0  0  0  0  0  0  0  0  0  0  0
   -2.1589   -0.3475   -3.0951 H   0  0  0  0  0  0  0  0  0  0  0  0
   -0.2333   -1.4636   -0.6775 H   0  0  0  0  0  0  0  0  0  0  0  0
   -2.1500   -1.3621   -0.7630 H   0  0  0  0  0  0  0  0  0  0  0  0
    0.8079   -2.0700   -0.1670 C   0  0  0  0  0  0  0  0  0  0  0  0
    1.6074   -1.1171    0.6912 C   0  0  0  0  0  0  0  0  0  0  0  0
    0.7849   -0.0414    1.0671 O   0  0  0  0  0  0  0  0  0  0  0  0
    1.4429    0.9041    1.8721 C   0  0  0  0  0  0  0  0  0  0  0  0
    0.4757    2.0123    2.2182 C   0  0  0  0  0  0  0  0  0  0  0  0
   -0.0521   -2.4511    0.3847 H   0  0  0  0  0  0  0  0  0  0  0  0
    1.4274   -2.9150   -0.4715 H   0  0  0  0  0  0  0  0  0  0  0  0
    2.4829   -0.7447    0.1388 H   0  0  0  0  0  0  0  0  0  0  0  0
    1.9851   -1.6315    1.5873 H   0  0  0  0  0  0  0  0  0  0  0  0
    1.8180    0.4217    2.7869 H   0  0  0  0  0  0  0  0  0  0  0  0
    2.3158    1.3085    1.3385 H   0  0  0  0  0  0  0  0  0  0  0  0
   -0.3830    1.6146    2.7602 H   0  0  0  0  0  0  0  0  0  0  0  0
    0.9656    2.7598    2.8442 H   0  0  0  0  0  0  0  0  0  0  0  0
    0.1145    2.5009    1.3126 H   0  0  0  0  0  0  0  0  0  0  0  0
  1  2  1  0
  1  5  1  0
  1  6  1  0
  1  7  1  0
  2  3  2  3
  2  9  1  0
  3  4  1  0
  8 10  1  0
 10 11  1  0
 10 15  1  0
 10 16  1  0
 11 12  1  0
 11 17  1  0
 11 18  1  0
 12 13  1  0
 13 14  1  0
 13 19  1  0
 13 20  1  0
 14 21  1  0
 14 22  1  0
 14 23  1  0
M  RAD  1   4   2
M  END
>  <reaction>  (5) 
rmg_rxn_634

>  <mol_properties>  (5) 
{"1": {"label": "*1", "atom_type": "Cs"}, "2": {"label": "*0", "atom_type": "N3d"}, "7": {"label": "*2", "atom_type": "H0"}, "9": {"label": "*3", "atom_type": "Cs"}, "10": {"label": "*4", "atom_type": "Cs"}}

>  <type>  (5) 
unop_1

>  <geom_source>  (5) 
Heuristics

$$$$

     RDKit          3D

 23 21  0  0  0  0  0  0  0  0999 V2000
   -1.9499   -0.4374   -1.1323 C   0  0  0  0  0  0  0  0  0  0  0  0
   -1.9499   -0.4374    0.3782 C   0  0  0  0  0  0  0  0  0  0  0  0
   -1.9499    0.8885    1.0418 N   0  0  0  0  0  0  0  0  0  0  0  0
   -1.9499    1.8181    0.2941 O   0  0  0  0  0  1  0  0  0  0  0  0
   -1.0698    0.0700   -1.5268 H   0  0  0  0  0  0  0  0  0  0  0  0
   -1.9499   -1.4646   -1.4976 H   0  0  0  0  0  0  0  0  0  0  0  0
   -2.8301    0.0700   -1.5268 H   0  0  0  0  0  0  0  0  0  0  0  0
   -0.9045   -1.0462    0.8908 H   0  0  0  0  0  0  0  0  0  0  0  0
   -2.8211   -0.9447    0.8053 H   0  0  0  0  0  0  0  0  0  0  0  0
    0.1368   -1.6526    1.4013 C   0  0  0  0  0  0  0  0  0  0  0  0
    1.3274   -1.5270    0.4793 C   0  0  0  0  0  0  0  0  0  0  0  0
    1.3751   -0.2176   -0.0290 O   0  0  0  0  0  0  0  0  0  0  0  0
    2.4549   -0.0015   -0.9022 C   0  0  0  0  0  0  0  0  0  0  0  0
    2.4140    1.4286   -1.3889 C   0  0  0  0  0  0  0  0  0  0  0  0
    0.2192   -0.9484    2.2299 H   0  0  0  0  0  0  0  0  0  0  0  0
    0.0792   -2.6631    1.8089 H   0  0  0  0  0  0  0  0  0  0  0  0
    1.2506   -2.2480   -0.3481 H   0  0  0  0  0  0  0  0  0  0  0  0
    2.2581   -1.7535    1.0203 H   0  0  0  0  0  0  0  0  0  0  0  0
    3.4035   -0.2038   -0.3830 H   0  0  0  0  0  0  0  0  0  0  0  0
    2.3959   -0.6983   -1.7514 H   0  0  0  0  0  0  0  0  0  0  0  0
    2.4873    2.1203   -0.5490 H   0  0  0  0  0  0  0  0  0  0  0  0
    3.2448    1.6200   -2.0698 H   0  0  0  0  0  0  0  0  0  0  0  0
    1.4803    1.6261   -1.9166 H   0  0  0  0  0  0  0  0  0  0  0  0
  1  2  1  0
  1  5  1  0
  1  6  1  0
  1  7  1  0
  2  3  2  3
  2  9  1  0
  3  4  1  0
  8 10  1  0
 10 11  1  0
 10 15  1  0
 10 16  1  0
 11 12  1  0
 11 17  1  0
 11 18  1  0
 12 13  1  0
 13 14  1  0
 13 19  1  0
 13 20  1  0
 14 21  1  0
 14 22  1  0
 14 23  1  0
M  RAD  1   4   2
M  END
>  <reaction>  (6) 
rmg_rxn_634

>  <mol_properties>  (6) 
{"1": {"label": "*1", "atom_type": "Cs"}, "2": {"label": "*0", "atom_type": "N3d"}, "7": {"label": "*2", "atom_type": "H0"}, "9": {"label": "*3", "atom_type": "Cs"}, "10": {"label": "*4", "atom_type": "Cs"}}

>  <type>  (6) 
unop_2

>  <geom_source>  (6) 
Heuristics

$$$$

     RDKit          3D

 23 21  0  0  0  0  0  0  0  0999 V2000
   -0.8340   -0.3379   -3.1243 C   0  0  0  0  0  0  0  0  0  0  0  0
   -0.8340   -0.3379   -1.6138 C   0  0  0  0  0  0  0  0  0  0  0  0
   -0.8340    0.9881   -0.9503 N   0  0  0  0  0  0  0  0  0  0  0  0
   -0.8340    1.9176   -1.6980 O   0  0  0  0  0  1  0  0  0  0  0  0
    0.0462    0.1695   -3.5188 H   0  0  0  0  0  0  0  0  0  0  0  0
   -0.8340   -1.3650   -3.4896 H   0  0  0  0  0  0  0  0  0  0  0  0
   -1.7141    0.1695   -3.5188 H   0  0  0  0  0  0  0  0  0  0  0  0
    0.2115   -0.9466   -1.1013 H   0  0  0  0  0  0  0  0  0  0  0  0
   -1.7052   -0.8452   -1.1867 H   0  0  0  0  0  0  0  0  0  0  0  0
    1.2527   -1.5530   -0.5907 C   0  0  0  0  0  0  0  0  0  0  0  0
    1.6169   -0.9461    0.7445 C   0  0  0  0  0  0  0  0  0  0  0  0
    0.4465   -0.4838    1.3702 O   0  0  0  0  0  0  0  0  0  0  0  0
    0.6839    0.1009    2.6260 C   0  0  0  0  0  0  0  0  0  0  0  0
   -0.6317    0.5618    3.2095 C   0  0  0  0  0  0  0  0  0  0  0  0
    0.5638   -2.3875   -0.4559 H   0  0  0  0  0  0  0  0  0  0  0  0
    2.1476   -1.9197   -1.0960 H   0  0  0  0  0  0  0  0  0  0  0  0
    2.3234   -0.1139    0.6085 H   0  0  0  0  0  0  0  0  0  0  0  0
    2.1141   -1.6916    1.3827 H   0  0  0  0  0  0  0  0  0  0  0  0
    1.1663   -0.6279    3.2940 H   0  0  0  0  0  0  0  0  0  0  0  0
    1.3757    0.9497    2.5198 H   0  0  0  0  0  0  0  0  0  0  0  0
   -1.3130   -0.2813    3.3288 H   0  0  0  0  0  0  0  0  0  0  0  0
   -0.4719    1.0202    4.1867 H   0  0  0  0  0  0  0  0  0  0  0  0
   -1.1038    1.2955    2.5551 H   0  0  0  0  0  0  0  0  0  0  0  0
  1  2  1  0
  1  5  1  0
  1  6  1  0
  1  7  1  0
  2  3  2  3
  2  9  1  0
  3  4  1  0
  8 10  1  0
 10 11  1  0
 10 15  1  0
 10 16  1  0
 11 12  1  0
 11 17  1  0
 11 18  1  0
 12 13  1  0
 13 14  1  0
 13 19  1  0
 13 20  1  0
 14 21  1  0
 14 22  1  0
 14 23  1  0
M  RAD  1   4   2
M  END
>  <reaction>  (7) 
rmg_rxn_634

>  <mol_properties>  (7) 
{"1": {"label": "*1", "atom_type": "Cs"}, "2": {"label": "*0", "atom_type": "N3d"}, "7": {"label": "*2", "atom_type": "H0"}, "9": {"label": "*3", "atom_type": "Cs"}, "10": {"label": "*4", "atom_type": "Cs"}}

>  <type>  (7) 
unop_3

>  <geom_source>  (7) 
Heuristics

$$$$

     RDKit          3D

 23 21  0  0  0  0  0  0  0  0999 V2000
   -1.5535    1.2434   -1.1229 C   0  0  0  0  0  0  0  0  0  0  0  0
   -1.5535    1.2434    0.3876 C   0  0  0  0  0  0  0  0  0  0  0  0
   -1.5535    2.5694    1.0512 N   0  0  0  0  0  0  0  0  0  0  0  0
   -1.5535    3.4989    0.3035 O   0  0  0  0  0  1  0  0  0  0  0  0
   -0.6734    1.7508   -1.5174 H   0  0  0  0  0  0  0  0  0  0  0  0
   -1.5535    0.2163   -1.4882 H   0  0  0  0  0  0  0  0  0  0  0  0
   -2.4337    1.7508   -1.5174 H   0  0  0  0  0  0  0  0  0  0  0  0
   -0.5081    0.6346    0.9002 H   0  0  0  0  0  0  0  0  0  0  0  0
   -2.4247    0.7361    0.8147 H   0  0  0  0  0  0  0  0  0  0  0  0
    0.5332    0.0283    1.4107 C   0  0  0  0  0  0  0  0  0  0  0  0
    0.5762   -1.4152    0.9657 C   0  0  0  0  0  0  0  0  0  0  0  0
    1.3445   -1.5086   -0.2074 O   0  0  0  0  0  0  0  0  0  0  0  0
    1.4437   -2.8205   -0.7016 C   0  0  0  0  0  0  0  0  0  0  0  0
    2.2852   -2.8100   -1.9567 C   0  0  0  0  0  0  0  0  0  0  0  0
    1.5400    0.3967    1.6105 H   0  0  0  0  0  0  0  0  0  0  0  0
   -0.0592    0.1254    2.3218 H   0  0  0  0  0  0  0  0  0  0  0  0
   -0.4410   -1.7903    0.7787 H   0  0  0  0  0  0  0  0  0  0  0  0
    1.0144   -2.0471    1.7524 H   0  0  0  0  0  0  0  0  0  0  0  0
    1.8956   -3.4746    0.0588 H   0  0  0  0  0  0  0  0  0  0  0  0
    0.4402   -3.2178   -0.9149 H   0  0  0  0  0  0  0  0  0  0  0  0
    3.2849   -2.4301   -1.7432 H   0  0  0  0  0  0  0  0  0  0  0  0
    2.3763   -3.8201   -2.3592 H   0  0  0  0  0  0  0  0  0  0  0  0
    1.8304   -2.1734   -2.7164 H   0  0  0  0  0  0  0  0  0  0  0  0
  1  2  1  0
  1  5  1  0
  1  6  1  0
  1  7  1  0
  2  3  2  3
  2  9  1  0
  3  4  1  0
  8 10  1  0
 10 11  1  0
 10 15  1  0
 10 16  1  0
 11 12  1  0
 11 17  1  0
 11 18  1  0
 12 13  1  0
 13 14  1  0
 13 19  1  0
 13 20  1  0
 14 21  1  0
 14 22  1  0
 14 23  1  0
M  RAD  1   4   2
M  END
>  <reaction>  (8) 
rmg_rxn_634

>  <mol_properties>  (8) 
{"1": {"label": "*1", "atom_type": "Cs"}, "2": {"label": "*0", "atom_type": "N3d"}, "7": {"label": "*2", "atom_type": "H0"}, "9": {"label": "*3", "atom_type": "Cs"}, "10": {"label": "*4", "atom_type": "Cs"}}

>  <type>  (8) 
unop_4

>  <geom_source>  (8) 
Heuristics

$$$$

     RDKit          3D

 23 21  0  0  0  0  0  0  0  0999 V2000
   -0.5673    0.5606   -3.1402 C   0  0  0  0  0  0  0  0  0  0  0  0
   -0.5673    0.5606   -1.6297 C   0  0  0  0  0  0  0  0  0  0  0  0
   -0.5673    1.8866   -0.9661 N   0  0  0  0  0  0  0  0  0  0  0  0
   -0.5673    2.8161   -1.7138 O   0  0  0  0  0  1  0  0  0  0  0  0
    0.3129    1.0680   -3.5347 H   0  0  0  0  0  0  0  0  0  0  0  0
   -0.5673   -0.4665   -3.5055 H   0  0  0  0  0  0  0  0  0  0  0  0
   -1.4474    1.0680   -3.5347 H   0  0  0  0  0  0  0  0  0  0  0  0
    0.4782   -0.0482   -1.1171 H   0  0  0  0  0  0  0  0  0  0  0  0
   -1.4385    0.0533   -1.2026 H   0  0  0  0  0  0  0  0  0  0  0  0
    1.5194   -0.6545   -0.6066 C   0  0  0  0  0  0  0  0  0  0  0  0
    1.4635   -0.6220    0.9032 C   0  0  0  0  0  0  0  0  0  0  0  0
    0.2934   -1.2723    1.3309 O   0  0  0  0  0  0  0  0  0  0  0  0
    0.1511   -1.2939    2.7289 C   0  0  0  0  0  0  0  0  0  0  0  0
   -1.1313   -2.0116    3.0808 C   0  0  0  0  0  0  0  0  0  0  0  0
    1.5286   -1.6839   -0.9665 H   0  0  0  0  0  0  0  0  0  0  0  0
    2.4215   -0.1543   -0.9623 H   0  0  0  0  0  0  0  0  0  0  0  0
    1.4693    0.4167    1.2657 H   0  0  0  0  0  0  0  0  0  0  0  0
    2.3467   -1.1189    1.3313 H   0  0  0  0  0  0  0  0  0  0  0  0
    1.0135   -1.8015    3.1859 H   0  0  0  0  0  0  0  0  0  0  0  0
    0.1361   -0.2658    3.1203 H   0  0  0  0  0  0  0  0  0  0  0  0
   -1.1114   -3.0355    2.7060 H   0  0  0  0  0  0  0  0  0  0  0  0
   -1.2633   -2.0407    4.1635 H   0  0  0  0  0  0  0  0  0  0  0  0
   -1.9883   -1.5008    2.6404 H   0  0  0  0  0  0  0  0  0  0  0  0
  1  2  1  0
  1  5  1  0
  1  6  1  0
  1  7  1  0
  2  3  2  3
  2  9  1  0
  3  4  1  0
  8 10  1  0
 10 11  1  0
 10 15  1  0
 10 16  1  0
 11 12  1  0
 11 17  1  0
 11 18  1  0
 12 13  1  0
 13 14  1  0
 13 19  1  0
 13 20  1  0
 14 21  1  0
 14 22  1  0
 14 23  1  0
M  RAD  1   4   2
M  END
>  <reaction>  (9) 
rmg_rxn_634

>  <mol_properties>  (9) 
{"1": {"label": "*1", "atom_type": "Cs"}, "2": {"label": "*0", "atom_type": "N3d"}, "7": {"label": "*2", "atom_type": "H0"}, "9": {"label": "*3", "atom_type": "Cs"}, "10": {"label": "*4", "atom_type": "Cs"}}

>  <type>  (9) 
unop_5

>  <geom_source>  (9) 
Heuristics

$$$$

     RDKit          3D

 23 21  0  0  0  0  0  0  0  0999 V2000
   -1.2347    1.5610   -1.5927 C   0  0  0  0  0  0  0  0  0  0  0  0
   -1.2347    1.5610   -0.0822 C   0  0  0  0  0  0  0  0  0  0  0  0
   -1.2347    2.8869    0.5814 N   0  0  0  0  0  0  0  0  0  0  0  0
   -1.2347    3.8165   -0.1663 O   0  0  0  0  0  1  0  0  0  0  0  0
   -0.3546    2.0683   -1.9872 H   0  0  0  0  0  0  0  0  0  0  0  0
   -1.2347    0.5338   -1.9580 H   0  0  0  0  0  0  0  0  0  0  0  0
   -2.1148    2.0683   -1.9872 H   0  0  0  0  0  0  0  0  0  0  0  0
   -0.1892    0.9522    0.4304 H   0  0  0  0  0  0  0  0  0  0  0  0
   -2.1059    1.0536    0.3449 H   0  0  0  0  0  0  0  0  0  0  0  0
    0.8520    0.3458    0.9409 C   0  0  0  0  0  0  0  0  0  0  0  0
    0.5610   -1.1226    1.1475 C   0  0  0  0  0  0  0  0  0  0  0  0
    1.1111   -1.8517    0.0793 O   0  0  0  0  0  0  0  0  0  0  0  0
    0.8912   -3.2359    0.1823 C   0  0  0  0  0  0  0  0  0  0  0  0
    1.5189   -3.9226   -1.0086 C   0  0  0  0  0  0  0  0  0  0  0  0
    1.9278    0.5205    0.9031 H   0  0  0  0  0  0  0  0  0  0  0  0
    0.4335    0.9330    1.7599 H   0  0  0  0  0  0  0  0  0  0  0  0
   -0.5241   -1.2957    1.2004 H   0  0  0  0  0  0  0  0  0  0  0  0
    0.9907   -1.4694    2.0990 H   0  0  0  0  0  0  0  0  0  0  0  0
    1.3261   -3.6162    1.1185 H   0  0  0  0  0  0  0  0  0  0  0  0
   -0.1887   -3.4425    0.2199 H   0  0  0  0  0  0  0  0  0  0  0  0
    2.5920   -3.7306   -1.0385 H   0  0  0  0  0  0  0  0  0  0  0  0
    1.3606   -5.0006   -0.9501 H   0  0  0  0  0  0  0  0  0  0  0  0
    1.0781   -3.5569   -1.9366 H   0  0  0  0  0  0  0  0  0  0  0  0
  1  2  1  0
  1  5  1  0
  1  6  1  0
  1  7  1  0
  2  3  2  3
  2  9  1  0
  3  4  1  0
  8 10  1  0
 10 11  1  0
 10 15  1  0
 10 16  1  0
 11 12  1  0
 11 17  1  0
 11 18  1  0
 12 13  1  0
 13 14  1  0
 13 19  1  0
 13 20  1  0
 14 21  1  0
 14 22  1  0
 14 23  1  0
M  RAD  1   4   2
M  END
>  <reaction>  (10) 
rmg_rxn_634

>  <mol_properties>  (10) 
{"1": {"label": "*1", "atom_type": "Cs"}, "2": {"label": "*0", "atom_type": "N3d"}, "7": {"label": "*2", "atom_type": "H0"}, "9": {"label": "*3", "atom_type": "Cs"}, "10": {"label": "*4", "atom_type": "Cs"}}

>  <type>  (10) 
unop_6

>  <geom_source>  (10) 
Heuristics

$$$$

     RDKit          3D

 23 21  0  0  0  0  0  0  0  0999 V2000
   -0.9441    1.5829   -2.1669 C   0  0  0  0  0  0  0  0  0  0  0  0
   -0.9441    1.5829   -0.6564 C   0  0  0  0  0  0  0  0  0  0  0  0
   -0.9441    2.9089    0.0072 N   0  0  0  0  0  0  0  0  0  0  0  0
   -0.9441    3.8384   -0.7405 O   0  0  0  0  0  1  0  0  0  0  0  0
   -0.0640    2.0903   -2.5614 H   0  0  0  0  0  0  0  0  0  0  0  0
   -0.9441    0.5558   -2.5322 H   0  0  0  0  0  0  0  0  0  0  0  0
   -1.8242    2.0903   -2.5614 H   0  0  0  0  0  0  0  0  0  0  0  0
    0.1013    0.9741   -0.1438 H   0  0  0  0  0  0  0  0  0  0  0  0
   -1.8153    1.0756   -0.2293 H   0  0  0  0  0  0  0  0  0  0  0  0
    1.1426    0.3678    0.3667 C   0  0  0  0  0  0  0  0  0  0  0  0
    0.7085   -0.7979    1.2249 C   0  0  0  0  0  0  0  0  0  0  0  0
    0.8397   -1.9845    0.4834 O   0  0  0  0  0  0  0  0  0  0  0  0
    0.4577   -3.1310    1.2009 C   0  0  0  0  0  0  0  0  0  0  0  0
    0.6361   -4.3445    0.3183 C   0  0  0  0  0  0  0  0  0  0  0  0
    2.1822    0.2495    0.0592 H   0  0  0  0  0  0  0  0  0  0  0  0
    1.0491    1.3020    0.9227 H   0  0  0  0  0  0  0  0  0  0  0  0
   -0.3357   -0.6702    1.5468 H   0  0  0  0  0  0  0  0  0  0  0  0
    1.3231   -0.8546    2.1355 H   0  0  0  0  0  0  0  0  0  0  0  0
    1.0683   -3.2247    2.1112 H   0  0  0  0  0  0  0  0  0  0  0  0
   -0.5905   -3.0403    1.5224 H   0  0  0  0  0  0  0  0  0  0  0  0
    1.6777   -4.4437    0.0109 H   0  0  0  0  0  0  0  0  0  0  0  0
    0.3450   -5.2486    0.8553 H   0  0  0  0  0  0  0  0  0  0  0  0
    0.0199   -4.2594   -0.5775 H   0  0  0  0  0  0  0  0  0  0  0  0
  1  2  1  0
  1  5  1  0
  1  6  1  0
  1  7  1  0
  2  3  2  3
  2  9  1  0
  3  4  1  0
  8 10  1  0
 10 11  1  0
 10 15  1  0
 10 16  1  0
 11 12  1  0
 11 17  1  0
 11 18  1  0
 12 13  1  0
 13 14  1  0
 13 19  1  0
 13 20  1  0
 14 21  1  0
 14 22  1  0
 14 23  1  0
M  RAD  1   4   2
M  END
>  <reaction>  (11) 
rmg_rxn_634

>  <mol_properties>  (11) 
{"1": {"label": "*1", "atom_type": "Cs"}, "2": {"label": "*0", "atom_type": "N3d"}, "7": {"label": "*2", "atom_type": "H0"}, "9": {"label": "*3", "atom_type": "Cs"}, "10": {"label": "*4", "atom_type": "Cs"}}

>  <type>  (11) 
unop_7

>  <geom_source>  (11) 
Heuristics

$$$$

     RDKit          3D

 23 21  0  0  0  0  0  0  0  0999 V2000
   -1.6373   -0.9819   -2.1231 C   0  0  0  0  0  0  0  0  0  0  0  0
   -1.6373   -0.9819   -0.6126 C   0  0  0  0  0  0  0  0  0  0  0  0
   -1.6373    0.3440    0.0510 N   0  0  0  0  0  0  0  0  0  0  0  0
   -1.6373    1.2736   -0.6967 O   0  0  0  0  0  1  0  0  0  0  0  0
   -0.7572   -0.4745   -2.5176 H   0  0  0  0  0  0  0  0  0  0  0  0
   -1.6373   -2.0091   -2.4884 H   0  0  0  0  0  0  0  0  0  0  0  0
   -2.5175   -0.4745   -2.5176 H   0  0  0  0  0  0  0  0  0  0  0  0
   -0.5919   -1.5907   -0.1000 H   0  0  0  0  0  0  0  0  0  0  0  0
   -2.5085   -1.4892   -0.1854 H   0  0  0  0  0  0  0  0  0  0  0  0
    0.4494   -2.1971    0.4105 C   0  0  0  0  0  0  0  0  0  0  0  0
    1.5829   -1.2193    0.6171 C   0  0  0  0  0  0  0  0  0  0  0  0
    1.0594    0.0843    0.6593 O   0  0  0  0  0  0  0  0  0  0  0  0
    2.0428    1.0701    0.8493 C   0  0  0  0  0  0  0  0  0  0  0  0
    1.3782    2.4270    0.8796 C   0  0  0  0  0  0  0  0  0  0  0  0
   -0.2705   -2.1254    1.2265 H   0  0  0  0  0  0  0  0  0  0  0  0
    0.8327   -3.2180    0.3744 H   0  0  0  0  0  0  0  0  0  0  0  0
    2.3160   -1.3028   -0.1989 H   0  0  0  0  0  0  0  0  0  0  0  0
    2.1152   -1.4403    1.5541 H   0  0  0  0  0  0  0  0  0  0  0  0
    2.5824    0.8854    1.7901 H   0  0  0  0  0  0  0  0  0  0  0  0
    2.7832    1.0229    0.0371 H   0  0  0  0  0  0  0  0  0  0  0  0
    0.6546    2.4799    1.6937 H   0  0  0  0  0  0  0  0  0  0  0  0
    2.1239    3.2099    1.0265 H   0  0  0  0  0  0  0  0  0  0  0  0
    0.8553    2.6173   -0.0582 H   0  0  0  0  0  0  0  0  0  0  0  0
  1  2  1  0
  1  5  1  0
  1  6  1  0
  1  7  1  0
  2  3  2  3
  2  9  1  0
  3  4  1  0
  8 10  1  0
 10 11  1  0
 10 15  1  0
 10 16  1  0
 11 12  1  0
 11 17  1  0
 11 18  1  0
 12 13  1  0
 13 14  1  0
 13 19  1  0
 13 20  1  0
 14 21  1  0
 14 22  1  0
 14 23  1  0
M  RAD  1   4   2
M  END
>  <reaction>  (12) 
rmg_rxn_634

>  <mol_properties>  (12) 
{"1": {"label": "*1", "atom_type": "Cs"}, "2": {"label": "*0", "atom_type": "N3d"}, "7": {"label": "*2", "atom_type": "H0"}, "9": {"label": "*3", "atom_type": "Cs"}, "10": {"label": "*4", "atom_type": "Cs"}}

>  <type>  (12) 
unop_8

>  <geom_source>  (12) 
Heuristics

$$$$

     RDKit          3D

 23 21  0  0  0  0  0  0  0  0999 V2000
   -1.8162    0.7024   -0.8715 C   0  0  0  0  0  0  0  0  0  0  0  0
   -1.8162    0.7024    0.6390 C   0  0  0  0  0  0  0  0  0  0  0  0
   -1.8162    2.0284    1.3025 N   0  0  0  0  0  0  0  0  0  0  0  0
   -1.8162    2.9580    0.5548 O   0  0  0  0  0  1  0  0  0  0  0  0
   -0.9361    1.2098   -1.2660 H   0  0  0  0  0  0  0  0  0  0  0  0
   -1.8162   -0.3247   -1.2368 H   0  0  0  0  0  0  0  0  0  0  0  0
   -2.6963    1.2098   -1.2660 H   0  0  0  0  0  0  0  0  0  0  0  0
   -0.7708    0.0937    1.1515 H   0  0  0  0  0  0  0  0  0  0  0  0
   -2.6874    0.1951    1.0661 H   0  0  0  0  0  0  0  0  0  0  0  0
    0.2705   -0.5127    1.6621 C   0  0  0  0  0  0  0  0  0  0  0  0
    0.7489   -1.6102    0.7400 C   0  0  0  0  0  0  0  0  0  0  0  0
    1.4788   -1.0350   -0.3142 O   0  0  0  0  0  0  0  0  0  0  0  0
    1.9684   -1.9818   -1.2302 C   0  0  0  0  0  0  0  0  0  0  0  0
    2.7336   -1.2631   -2.3172 C   0  0  0  0  0  0  0  0  0  0  0  0
    1.1176    0.0392    2.0709 H   0  0  0  0  0  0  0  0  0  0  0  0
   -0.3000   -0.9365    2.4901 H   0  0  0  0  0  0  0  0  0  0  0  0
   -0.1057   -2.1757    0.3398 H   0  0  0  0  0  0  0  0  0  0  0  0
    1.3812   -2.3244    1.2882 H   0  0  0  0  0  0  0  0  0  0  0  0
    2.6200   -2.7018   -0.7132 H   0  0  0  0  0  0  0  0  0  0  0  0
    1.1331   -2.5532   -1.6616 H   0  0  0  0  0  0  0  0  0  0  0  0
    3.5707   -0.7082   -1.8923 H   0  0  0  0  0  0  0  0  0  0  0  0
    3.1239   -1.9797   -3.0416 H   0  0  0  0  0  0  0  0  0  0  0  0
    2.0847   -0.5597   -2.8401 H   0  0  0  0  0  0  0  0  0  0  0  0
  1  2  1  0
  1  5  1  0
  1  6  1  0
  1  7  1  0
  2  3  2  3
  2  9  1  0
  3  4  1  0
  8 10  1  0
 10 11  1  0
 10 15  1  0
 10 16  1  0
 11 12  1  0
 11 17  1  0
 11 18  1  0
 12 13  1  0
 13 14  1  0
 13 19  1  0
 13 20  1  0
 14 21  1  0
 14 22  1  0
 14 23  1  0
M  RAD  1   4   2
M  END
>  <reaction>  (13) 
rmg_rxn_634

>  <mol_properties>  (13) 
{"1": {"label": "*1", "atom_type": "Cs"}, "2": {"label": "*0", "atom_type": "N3d"}, "7": {"label": "*2", "atom_type": "H0"}, "9": {"label": "*3", "atom_type": "Cs"}, "10": {"label": "*4", "atom_type": "Cs"}}

>  <type>  (13) 
unop_9

>  <geom_source>  (13) 
Heuristics

$$$$

     RDKit          3D

 23 21  0  0  0  0  0  0  0  0999 V2000
   -1.8549   -0.8143   -1.5641 C   0  0  0  0  0  0  0  0  0  0  0  0
   -1.8549   -0.8143   -0.0536 C   0  0  0  0  0  0  0  0  0  0  0  0
   -1.8549    0.5117    0.6100 N   0  0  0  0  0  0  0  0  0  0  0  0
   -1.8549    1.4413   -0.1377 O   0  0  0  0  0  1  0  0  0  0  0  0
   -0.9748   -0.3069   -1.9586 H   0  0  0  0  0  0  0  0  0  0  0  0
   -1.8549   -1.8414   -1.9294 H   0  0  0  0  0  0  0  0  0  0  0  0
   -2.7351   -0.3069   -1.9586 H   0  0  0  0  0  0  0  0  0  0  0  0
   -0.8095   -1.4230    0.4590 H   0  0  0  0  0  0  0  0  0  0  0  0
   -2.7261   -1.3216    0.3736 H   0  0  0  0  0  0  0  0  0  0  0  0
    0.2318   -2.0294    0.9695 C   0  0  0  0  0  0  0  0  0  0  0  0
    1.5084   -1.3544    0.5245 C   0  0  0  0  0  0  0  0  0  0  0  0
    1.2442    0.0032    0.2751 O   0  0  0  0  0  0  0  0  0  0  0  0
    2.3772    0.7196   -0.1467 C   0  0  0  0  0  0  0  0  0  0  0  0
    1.9865    2.1596   -0.3860 C   0  0  0  0  0  0  0  0  0  0  0  0
   -0.1490   -1.5645    1.8796 H   0  0  0  0  0  0  0  0  0  0  0  0
    0.4130   -3.0867    1.1694 H   0  0  0  0  0  0  0  0  0  0  0  0
    1.8997   -1.8337   -0.3852 H   0  0  0  0  0  0  0  0  0  0  0  0
    2.2837   -1.4495    1.2992 H   0  0  0  0  0  0  0  0  0  0  0  0
    3.1663    0.6574    0.6174 H   0  0  0  0  0  0  0  0  0  0  0  0
    2.7822    0.2732   -1.0670 H   0  0  0  0  0  0  0  0  0  0  0  0
    1.5986    2.6075    0.5295 H   0  0  0  0  0  0  0  0  0  0  0  0
    2.8523    2.7365   -0.7150 H   0  0  0  0  0  0  0  0  0  0  0  0
    1.2148    2.2236   -1.1539 H   0  0  0  0  0  0  0  0  0  0  0  0
  1  2  1  0
  1  5  1  0
  1  6  1  0
  1  7  1  0
  2  3  2  3
  2  9  1  0
  3  4  1  0
  8 10  1  0
 10 11  1  0
 10 15  1  0
 10 16  1  0
 11 12  1  0
 11 17  1  0
 11 18  1  0
 12 13  1  0
 13 14  1  0
 13 19  1  0
 13 20  1  0
 14 21  1  0
 14 22  1  0
 14 23  1  0
M  RAD  1   4   2
M  END
>  <reaction>  (14) 
rmg_rxn_634

>  <mol_properties>  (14) 
{"1": {"label": "*1", "atom_type": "Cs"}, "2": {"label": "*0", "atom_type": "N3d"}, "7": {"label": "*2", "atom_type": "H0"}, "9": {"label": "*3", "atom_type": "Cs"}, "10": {"label": "*4", "atom_type": "Cs"}}

>  <type>  (14) 
unop_10

>  <geom_source>  (14) 
Heuristics

$$$$

     RDKit          3D

 23 21  0  0  0  0  0  0  0  0999 V2000
   -0.7027    1.2834   -2.7244 C   0  0  0  0  0  0  0  0  0  0  0  0
   -0.7027    1.2834   -1.2140 C   0  0  0  0  0  0  0  0  0  0  0  0
   -0.7027    2.6094   -0.5504 N   0  0  0  0  0  0  0  0  0  0  0  0
   -0.7027    3.5390   -1.2981 O   0  0  0  0  0  1  0  0  0  0  0  0
    0.1774    1.7908   -3.1189 H   0  0  0  0  0  0  0  0  0  0  0  0
   -0.7027    0.2563   -3.0897 H   0  0  0  0  0  0  0  0  0  0  0  0
   -1.5828    1.7908   -3.1189 H   0  0  0  0  0  0  0  0  0  0  0  0
    0.3427    0.6747   -0.7014 H   0  0  0  0  0  0  0  0  0  0  0  0
   -1.5739    0.7761   -0.7868 H   0  0  0  0  0  0  0  0  0  0  0  0
    1.3840    0.0683   -0.1908 C   0  0  0  0  0  0  0  0  0  0  0  0
    1.0359   -0.5479    1.1443 C   0  0  0  0  0  0  0  0  0  0  0  0
    0.5419   -1.8465    0.9329 O   0  0  0  0  0  0  0  0  0  0  0  0
    0.1886   -2.5052    2.1230 C   0  0  0  0  0  0  0  0  0  0  0  0
   -0.3274   -3.8850    1.7859 C   0  0  0  0  0  0  0  0  0  0  0  0
    2.1433   -0.5264   -0.6998 H   0  0  0  0  0  0  0  0  0  0  0  0
    1.7705    1.0791   -0.0514 H   0  0  0  0  0  0  0  0  0  0  0  0
    0.2808    0.0608    1.6634 H   0  0  0  0  0  0  0  0  0  0  0  0
    1.9233   -0.5852    1.7935 H   0  0  0  0  0  0  0  0  0  0  0  0
    1.0626   -2.5736    2.7877 H   0  0  0  0  0  0  0  0  0  0  0  0
   -0.5800   -1.9275    2.6576 H   0  0  0  0  0  0  0  0  0  0  0  0
    0.4388   -4.4637    1.2689 H   0  0  0  0  0  0  0  0  0  0  0  0
   -0.6085   -4.4164    2.6965 H   0  0  0  0  0  0  0  0  0  0  0  0
   -1.2028   -3.8180    1.1389 H   0  0  0  0  0  0  0  0  0  0  0  0
  1  2  1  0
  1  5  1  0
  1  6  1  0
  1  7  1  0
  2  3  2  3
  2  9  1  0
  3  4  1  0
  8 10  1  0
 10 11  1  0
 10 15  1  0
 10 16  1  0
 11 12  1  0
 11 17  1  0
 11 18  1  0
 12 13  1  0
 13 14  1  0
 13 19  1  0
 13 20  1  0
 14 21  1  0
 14 22  1  0
 14 23  1  0
M  RAD  1   4   2
M  END
>  <reaction>  (15) 
rmg_rxn_634

>  <mol_properties>  (15) 
{"1": {"label": "*1", "atom_type": "Cs"}, "2": {"label": "*0", "atom_type": "N3d"}, "7": {"label": "*2", "atom_type": "H0"}, "9": {"label": "*3", "atom_type": "Cs"}, "10": {"label": "*4", "atom_type": "Cs"}}

>  <type>  (15) 
unop_11

>  <geom_source>  (15) 
Heuristics

$$$$

     RDKit          3D

 23 21  0  0  0  0  0  0  0  0999 V2000
   -1.9461    0.0914   -0.8853 C   0  0  0  0  0  0  0  0  0  0  0  0
   -1.9461    0.0914    0.6252 C   0  0  0  0  0  0  0  0  0  0  0  0
   -1.9461    1.4173    1.2888 N   0  0  0  0  0  0  0  0  0  0  0  0
   -1.9461    2.3469    0.5411 O   0  0  0  0  0  1  0  0  0  0  0  0
   -1.0660    0.5987   -1.2798 H   0  0  0  0  0  0  0  0  0  0  0  0
   -1.9461   -0.9358   -1.2506 H   0  0  0  0  0  0  0  0  0  0  0  0
   -2.8263    0.5987   -1.2798 H   0  0  0  0  0  0  0  0  0  0  0  0
   -0.9007   -0.5174    1.1378 H   0  0  0  0  0  0  0  0  0  0  0  0
   -2.8173   -0.4160    1.0523 H   0  0  0  0  0  0  0  0  0  0  0  0
    0.1406   -1.1238    1.6483 C   0  0  0  0  0  0  0  0  0  0  0  0
    1.0390   -1.6470    0.5517 C   0  0  0  0  0  0  0  0  0  0  0  0
    1.4725   -0.5677   -0.2372 O   0  0  0  0  0  0  0  0  0  0  0  0
    2.3185   -0.9559   -1.2901 C   0  0  0  0  0  0  0  0  0  0  0  0
    2.7248    0.2720   -2.0717 C   0  0  0  0  0  0  0  0  0  0  0  0
    0.6786   -0.4130    2.2765 H   0  0  0  0  0  0  0  0  0  0  0  0
   -0.2090   -1.9458    2.2750 H   0  0  0  0  0  0  0  0  0  0  0  0
    0.4997   -2.3750   -0.0724 H   0  0  0  0  0  0  0  0  0  0  0  0
    1.9063   -2.1694    0.9819 H   0  0  0  0  0  0  0  0  0  0  0  0
    3.2061   -1.4674   -0.8891 H   0  0  0  0  0  0  0  0  0  0  0  0
    1.7995   -1.6730   -1.9434 H   0  0  0  0  0  0  0  0  0  0  0  0
    3.2524    0.9771   -1.4284 H   0  0  0  0  0  0  0  0  0  0  0  0
    3.3834   -0.0055   -2.8962 H   0  0  0  0  0  0  0  0  0  0  0  0
    1.8466    0.7716   -2.4820 H   0  0  0  0  0  0  0  0  0  0  0  0
  1  2  1  0
  1  5  1  0
  1  6  1  0
  1  7  1  0
  2  3  2  3
  2  9  1  0
  3  4  1  0
  8 10  1  0
 10 11  1  0
 10 15  1  0
 10 16  1  0
 11 12  1  0
 11 17  1  0
 11 18  1  0
 12 13  1  0
 13 14  1  0
 13 19  1  0
 13 20  1  0
 14 21  1  0
 14 22  1  0
 14 23  1  0
M  RAD  1   4   2
M  END
>  <reaction>  (16) 
rmg_rxn_634

>  <mol_properties>  (16) 
{"1": {"label": "*1", "atom_type": "Cs"}, "2": {"label": "*0", "atom_type": "N3d"}, "7": {"label": "*2", "atom_type": "H0"}, "9": {"label": "*3", "atom_type": "Cs"}, "10": {"label": "*4", "atom_type": "Cs"}}

>  <type>  (16) 
unop_12

>  <geom_source>  (16) 
Heuristics

$$$$

     RDKit          3D

 23 21  0  0  0  0  0  0  0  0999 V2000
   -1.5803   -0.0920    0.6349 O   0  0  0  0  0  0  0  0  0  0  0  0
    1.8664    1.8293    2.2536 O   0  0  0  0  0  1  0  0  0  0  0  0
    2.6267    1.2364    1.5509 N   0  0  0  0  0  0  0  0  0  0  0  0
   -0.8116   -1.2792    0.6831 C   0  0  0  0  0  0  0  0  0  0  0  0
   -2.5517   -0.1723   -0.3873 C   0  0  0  0  0  0  0  0  0  0  0  0
    0.4920   -1.0932   -0.0834 C   0  0  0  0  0  0  0  0  0  0  0  0
   -3.2663    1.1651   -0.5036 C   0  0  0  0  0  0  0  0  0  0  0  0
    3.3268    0.0090   -0.4194 C   0  0  0  0  0  0  0  0  0  0  0  0
    2.2205    0.8201    0.2347 C   0  0  0  0  0  0  0  0  0  0  0  0
   -0.5596   -1.4809    1.7454 H   0  0  0  0  0  0  0  0  0  0  0  0
   -1.3499   -2.1821    0.3079 H   0  0  0  0  0  0  0  0  0  0  0  0
   -3.3071   -0.9528   -0.1423 H   0  0  0  0  0  0  0  0  0  0  0  0
   -2.0836   -0.4041   -1.3710 H   0  0  0  0  0  0  0  0  0  0  0  0
    0.2868   -0.9304   -1.1620 H   0  0  0  0  0  0  0  0  0  0  0  0
    1.1244   -1.9992    0.0272 H   0  0  0  0  0  0  0  0  0  0  0  0
    1.1209   -0.0941    0.3759 H   0  0  0  0  0  0  0  0  0  0  0  0
   -2.5380    1.9637   -0.7592 H   0  0  0  0  0  0  0  0  0  0  0  0
   -4.0368    1.1113   -1.3016 H   0  0  0  0  0  0  0  0  0  0  0  0
   -3.7610    1.4169    0.4584 H   0  0  0  0  0  0  0  0  0  0  0  0
    2.9986   -0.3153   -1.4289 H   0  0  0  0  0  0  0  0  0  0  0  0
    4.2470    0.6235   -0.5177 H   0  0  0  0  0  0  0  0  0  0  0  0
    3.5473   -0.8916    0.1915 H   0  0  0  0  0  0  0  0  0  0  0  0
    1.9885    1.7118   -0.3870 H   0  0  0  0  0  0  0  0  0  0  0  0
  1  4  1  0
  1  5  1  0
  2  3  1  0
  3  9  2  3
  4  6  1  0
  4 10  1  0
  4 11  1  0
  5  7  1  0
  5 12  1  0
  5 13  1  0
  6 14  1  0
  6 15  1  0
  6 16  1  0
  7 17  1  0
  7 18  1  0
  7 19  1  0
  8  9  1  0
  8 20  1  0
  8 21  1  0
  8 22  1  0
  9 23  1  0
M  RAD  1   2   2
M  END
>  <reaction>  (17) 
rmg_rxn_634

>  <mol_properties>  (17) 
{"1": {"label": "*1", "atom_type": "Cs"}, "2": {"label": "*0", "atom_type": "N3d"}, "7": {"label": "*2", "atom_type": "H0"}, "9": {"label": "*3", "atom_type": "Cs"}, "10": {"label": "*4", "atom_type": "Cs"}}

>  <type>  (17) 
unop_13

>  <geom_source>  (17) 
AutoTST

$$$$

     RDKit          3D

 23 21  0  0  0  0  0  0  0  0999 V2000
   -1.9499   -0.4374   -1.1323 C   0  0  0  0  0  0  0  0  0  0  0  0
   -1.9499   -0.4374    0.3782 C   0  0  0  0  0  0  0  0  0  0  0  0
   -1.9499    0.8885    1.0418 N   0  0  0  0  0  0  0  0  0  0  0  0
   -1.9499    1.8181    0.2941 O   0  0  0  0  0  1  0  0  0  0  0  0
   -1.0698    0.0699   -1.5268 H   0  0  0  0  0  0  0  0  0  0  0  0
   -1.9499   -1.4646   -1.4976 H   0  0  0  0  0  0  0  0  0  0  0  0
   -2.8301    0.0699   -1.5268 H   0  0  0  0  0  0  0  0  0  0  0  0
   -0.9045   -1.0462    0.8908 H   0  0  0  0  0  0  0  0  0  0  0  0
   -2.8211   -0.9447    0.8054 H   0  0  0  0  0  0  0  0  0  0  0  0
    0.1368   -1.6526    1.4013 C   0  0  0  0  0  0  0  0  0  0  0  0
    1.3274   -1.5270    0.4793 C   0  0  0  0  0  0  0  0  0  0  0  0
    1.3751   -0.2176   -0.0290 O   0  0  0  0  0  0  0  0  0  0  0  0
    2.4549   -0.0015   -0.9022 C   0  0  0  0  0  0  0  0  0  0  0  0
    2.4140    1.4286   -1.3889 C   0  0  0  0  0  0  0  0  0  0  0  0
    0.2192   -0.9484    2.2299 H   0  0  0  0  0  0  0  0  0  0  0  0
    0.0792   -2.6631    1.8089 H   0  0  0  0  0  0  0  0  0  0  0  0
    1.2506   -2.2480   -0.3481 H   0  0  0  0  0  0  0  0  0  0  0  0
    2.2581   -1.7535    1.0203 H   0  0  0  0  0  0  0  0  0  0  0  0
    3.4035   -0.2038   -0.3830 H   0  0  0  0  0  0  0  0  0  0  0  0
    2.3959   -0.6983   -1.7514 H   0  0  0  0  0  0  0  0  0  0  0  0
    2.4873    2.1203   -0.5490 H   0  0  0  0  0  0  0  0  0  0  0  0
    3.2448    1.6200   -2.0698 H   0  0  0  0  0  0  0  0  0  0  0  0
    1.4803    1.6261   -1.9166 H   0  0  0  0  0  0  0  0  0  0  0  0
  1  2  1  0
  1  5  1  0
  1  6  1  0
  1  7  1  0
  2  3  2  3
  2  9  1  0
  3  4  1  0
  8 10  1  0
 10 11  1  0
 10 15  1  0
 10 16  1  0
 11 12  1  0
 11 17  1  0
 11 18  1  0
 12 13  1  0
 13 14  1  0
 13 19  1  0
 13 20  1  0
 14 21  1  0
 14 22  1  0
 14 23  1  0
M  RAD  1   4   2
M  END
>  <reaction>  (18) 
rmg_rxn_634

>  <mol_properties>  (18) 
{"1": {"label": "*1", "atom_type": "Cs"}, "2": {"label": "*0", "atom_type": "N3d"}, "7": {"label": "*2", "atom_type": "H0"}, "9": {"label": "*3", "atom_type": "Cs"}, "10": {"label": "*4", "atom_type": "Cs"}}

>  <type>  (18) 
unop_14

>  <geom_source>  (18) 
gaussian_log

$$$$
