
     RDKit          3D

  8  7  0  0  0  0  0  0  0  0999 V2000
    0.9548    0.1194   -0.0790 C   0  0  0  0  0  0  0  0  0  0  0  0
   -0.4838   -0.2649    0.0193 C   0  0  0  0  0  0  0  0  0  0  0  0
   -0.8933   -1.1081    0.8664 N   0  0  0  0  0  0  0  0  0  0  0  0
    1.3360   -0.0983   -1.0800 H   0  0  0  0  0  0  0  0  0  0  0  0
    1.0698    1.1948    0.0786 H   0  0  0  0  0  0  0  0  0  0  0  0
    1.5426   -0.4219    0.6602 H   0  0  0  0  0  0  0  0  0  0  0  0
   -1.1575    0.2324   -0.6905 H   0  0  0  0  0  0  0  0  0  0  0  0
   -1.8989   -1.2455    0.7886 H   0  0  0  0  0  0  0  0  0  0  0  0
  1  2  1  0
  1  4  1  0
  1  5  1  0
  1  6  1  0
  2  3  2  3
  2  7  1  0
  3  8  1  0
M  END
>  <reaction>  (1) 
rmg_rxn_16491

>  <mol_properties>  (1) 
{"2": {"label": "donator", "atom_type": "N3d"}, "7": {"label": "d_hydrogen", "atom_type": "H0"}}

>  <type>  (1) 
r1h

$$$$

     RDKit          3D

  9  8  0  0  0  0  0  0  0  0999 V2000
    1.3246   -0.8124   -0.0809 C   0  0  0  0  0  2  0  0  0  0  0  0
    0.4082    0.3080    0.1518 C   0  0  0  0  0  0  0  0  0  0  0  0
   -1.0545   -0.0277   -0.1520 C   0  0  0  0  0  0  0  0  0  0  0  0
    2.3933   -0.9471    0.0203 H   0  0  0  0  0  0  0  0  0  0  0  0
    0.4898    0.6406    1.1970 H   0  0  0  0  0  0  0  0  0  0  0  0
    0.7134    1.1680   -0.4624 H   0  0  0  0  0  0  0  0  0  0  0  0
   -1.4014   -0.8515    0.4727 H   0  0  0  0  0  0  0  0  0  0  0  0
   -1.1767   -0.3214   -1.1952 H   0  0  0  0  0  0  0  0  0  0  0  0
   -1.6915    0.8372    0.0370 H   0  0  0  0  0  0  0  0  0  0  0  0
  1  2  1  0
  1  4  1  0
  2  3  1  0
  2  5  1  0
  2  6  1  0
  3  7  1  0
  3  8  1  0
  3  9  1  0
M  RAD  1   1   3
M  END
>  <reaction>  (2) 
rmg_rxn_16491

>  <mol_properties>  (2) 
{"0": {"label": "acceptor", "atom_type": "Cs"}}

>  <type>  (2) 
r2

$$$$

     RDKit          3D

 10  9  0  0  0  0  0  0  0  0999 V2000
    1.4352    0.2660   -0.1351 C   0  0  0  0  0  3  0  0  0  0  0  0
    0.2236   -0.3243    0.4850 C   0  0  0  0  0  0  0  0  0  0  0  0
   -0.8893    0.6872    0.7364 C   0  0  0  0  0  0  0  0  0  0  0  0
    2.3577   -0.2958   -0.1940 H   0  0  0  0  0  0  0  0  0  0  0  0
    1.3935    1.2286   -0.6287 H   0  0  0  0  0  0  0  0  0  0  0  0
   -0.1633   -1.1318   -0.1556 H   0  0  0  0  0  0  0  0  0  0  0  0
    0.4945   -0.8215    1.4240 H   0  0  0  0  0  0  0  0  0  0  0  0
   -1.1991    1.1627   -0.1967 H   0  0  0  0  0  0  0  0  0  0  0  0
   -1.7660    0.2103    1.1768 H   0  0  0  0  0  0  0  0  0  0  0  0
   -0.5545    1.4732    1.4159 H   0  0  0  0  0  0  0  0  0  0  0  0
  1  2  1  0
  1  4  1  0
  1  5  1  0
  2  3  1  0
  2  6  1  0
  2  7  1  0
  3  8  1  0
  3  9  1  0
  3 10  1  0
M  RAD  1   1   2
M  END
>  <reaction>  (3) 
rmg_rxn_16491

>  <mol_properties>  (3) 
{"0": {"label": "a_hydrogen", "atom_type": "H0"}, "1": {"label": "acceptor", "atom_type": "Cs"}}

>  <type>  (3) 
r2h

$$$$

     RDKit          3D

 17 15  0  0  0  0  0  0  0  0999 V2000
   -0.4510    0.1873   -2.9936 C   0  0  0  0  0  0  0  0  0  0  0  0
   -0.4386    0.2993   -1.5012 C   0  0  0  0  0  0  0  0  0  0  0  0
    0.4720    0.9125   -0.8868 N   0  0  0  0  0  0  0  0  0  0  0  0
   -0.4373   -0.8649   -3.2879 H   0  0  0  0  0  0  0  0  0  0  0  0
   -1.3703    0.6227   -3.3925 H   0  0  0  0  0  0  0  0  0  0  0  0
    0.4090    0.6963   -3.4249 H   0  0  0  0  0  0  0  0  0  0  0  0
   -1.2681   -0.1834   -0.9705 H   0  0  0  0  0  0  0  0  0  0  0  0
    0.2633    0.8623    0.2673 H   0  0  0  0  0  0  0  0  0  0  0  0
   -0.1897    0.6431    1.5938 C   0  0  0  0  0  2  0  0  0  0  0  0
    0.3195   -0.5291    2.3316 C   0  0  0  0  0  0  0  0  0  0  0  0
    0.8421   -1.6490    1.4323 C   0  0  0  0  0  0  0  0  0  0  0  0
   -0.7779    1.4590    1.9984 H   0  0  0  0  0  0  0  0  0  0  0  0
    1.1248   -0.2125    3.0109 H   0  0  0  0  0  0  0  0  0  0  0  0
   -0.4748   -0.9212    2.9813 H   0  0  0  0  0  0  0  0  0  0  0  0
    1.6490   -1.2884    0.7933 H   0  0  0  0  0  0  0  0  0  0  0  0
    0.0502   -2.0296    0.7848 H   0  0  0  0  0  0  0  0  0  0  0  0
    1.2212   -2.4791    2.0296 H   0  0  0  0  0  0  0  0  0  0  0  0
  1  2  1  0
  1  4  1  0
  1  5  1  0
  1  6  1  0
  2  3  2  3
  2  7  1  0
  3  8  1  0
  9 10  1  0
  9 12  1  0
 10 11  1  0
 10 13  1  0
 10 14  1  0
 11 15  1  0
 11 16  1  0
 11 17  1  0
M  RAD  1   9   3
M  END
>  <reaction>  (4) 
rmg_rxn_16491

>  <mol_properties>  (4) 
{"1": {"label": "*0", "atom_type": "Cd"}, "2": {"label": "*1", "atom_type": "N3d"}, "7": {"label": "*2", "atom_type": "H0"}, "8": {"label": "*3", "atom_type": "Cs"}, "9": {"label": "*4", "atom_type": "Cs"}}

>  <type>  (4) 
ts

$$$$

     RDKit          3D

 17 15  0  0  0  0  0  0  0  0999 V2000
   -2.8202   -0.5360   -0.1711 C   0  0  0  0  0  0  0  0  0  0  0  0
   -1.3905   -0.0982   -0.1877 C   0  0  0  0  0  0  0  0  0  0  0  0
   -0.9642    0.7622    0.5959 N   0  0  0  0  0  0  0  0  0  0  0  0
   -3.2688   -0.3407   -1.1439 H   0  0  0  0  0  0  0  0  0  0  0  0
   -2.8666   -1.6079    0.0152 H   0  0  0  0  0  0  0  0  0  0  0  0
   -3.3696   -0.0043    0.6003 H   0  0  0  0  0  0  0  0  0  0  0  0
   -0.7836   -0.6129   -0.9528 H   0  0  0  0  0  0  0  0  0  0  0  0
    0.2244    1.0560    0.6388 H   0  0  0  0  0  0  0  0  0  0  0  0
    1.3035    1.2224   -0.0109 C   0  0  0  0  0  2  0  0  0  0  0  0
    1.8284   -0.0281   -0.5943 C   0  0  0  0  0  0  0  0  0  0  0  0
    2.0831   -1.1213    0.4399 C   0  0  0  0  0  0  0  0  0  0  0  0
    1.1087    1.9564   -0.8048 H   0  0  0  0  0  0  0  0  0  0  0  0
    1.1827   -0.4251   -1.4016 H   0  0  0  0  0  0  0  0  0  0  0  0
    2.7680    0.2439   -1.0906 H   0  0  0  0  0  0  0  0  0  0  0  0
    1.1529   -1.4077    0.9261 H   0  0  0  0  0  0  0  0  0  0  0  0
    2.7652   -0.7588    1.2041 H   0  0  0  0  0  0  0  0  0  0  0  0
    2.5171   -2.0038   -0.0264 H   0  0  0  0  0  0  0  0  0  0  0  0
  1  2  1  0
  1  4  1  0
  1  5  1  0
  1  6  1  0
  2  3  2  3
  2  7  1  0
  3  8  1  0
  9 10  1  0
  9 12  1  0
 10 11  1  0
 10 13  1  0
 10 14  1  0
 11 15  1  0
 11 16  1  0
 11 17  1  0
M  RAD  1   9   3
M  END
>  <reaction>  (5) 
rmg_rxn_16491

>  <mol_properties>  (5) 
{"1": {"label": "*0", "atom_type": "Cd"}, "2": {"label": "*1", "atom_type": "N3d"}, "7": {"label": "*2", "atom_type": "H0"}, "8": {"label": "*3", "atom_type": "Cs"}, "9": {"label": "*4", "atom_type": "Cs"}}

>  <type>  (5) 
unop_1

>  <geom_source>  (5) 
crest_best.xyz

$$$$

     RDKit          3D

 17 15  0  0  0  0  0  0  0  0999 V2000
   -0.6142   -0.5357   -3.1522 C   0  0  0  0  0  0  0  0  0  0  0  0
   -0.6142   -0.5357   -1.6599 C   0  0  0  0  0  0  0  0  0  0  0  0
   -0.6142    0.5369   -0.9922 N   0  0  0  0  0  0  0  0  0  0  0  0
    0.2640   -1.0657   -3.5296 H   0  0  0  0  0  0  0  0  0  0  0  0
   -1.4925   -1.0657   -3.5296 H   0  0  0  0  0  0  0  0  0  0  0  0
   -0.6142    0.4849   -3.5308 H   0  0  0  0  0  0  0  0  0  0  0  0
   -0.6142   -1.5254   -1.1852 H   0  0  0  0  0  0  0  0  0  0  0  0
   -0.6142    0.3068    0.2074 H   0  0  0  0  0  0  0  0  0  0  0  0
   -0.6142    0.0620    1.4832 C   0  0  0  0  0  2  0  0  0  0  0  0
    0.4887    0.5439    2.3505 C   0  0  0  0  0  0  0  0  0  0  0  0
    1.8468   -0.0556    2.0025 C   0  0  0  0  0  0  0  0  0  0  0  0
   -1.6468    0.2606    1.7375 H   0  0  0  0  0  0  0  0  0  0  0  0
    0.5544    1.6411    2.2894 H   0  0  0  0  0  0  0  0  0  0  0  0
    0.2489    0.3389    3.4006 H   0  0  0  0  0  0  0  0  0  0  0  0
    2.1192    0.1747    0.9703 H   0  0  0  0  0  0  0  0  0  0  0  0
    1.8314   -1.1419    2.1089 H   0  0  0  0  0  0  0  0  0  0  0  0
    2.6310    0.3366    2.6516 H   0  0  0  0  0  0  0  0  0  0  0  0
  1  2  1  0
  1  4  1  0
  1  5  1  0
  1  6  1  0
  2  3  2  3
  2  7  1  0
  3  8  1  0
  9 10  1  0
  9 12  1  0
 10 11  1  0
 10 13  1  0
 10 14  1  0
 11 15  1  0
 11 16  1  0
 11 17  1  0
M  RAD  1   9   3
M  END
>  <reaction>  (6) 
rmg_rxn_16491

>  <mol_properties>  (6) 
{"1": {"label": "*0", "atom_type": "Cd"}, "2": {"label": "*1", "atom_type": "N3d"}, "7": {"label": "*2", "atom_type": "H0"}, "8": {"label": "*3", "atom_type": "Cs"}, "9": {"label": "*4", "atom_type": "Cs"}}

>  <type>  (6) 
unop_2

>  <geom_source>  (6) 
Heuristics

$$$$

     RDKit          3D

 17 15  0  0  0  0  0  0  0  0999 V2000
   -0.1955    0.1648   -2.9431 C   0  0  0  0  0  0  0  0  0  0  0  0
   -0.1955    0.1648   -1.4508 C   0  0  0  0  0  0  0  0  0  0  0  0
   -0.1955    1.2375   -0.7831 N   0  0  0  0  0  0  0  0  0  0  0  0
    0.6827   -0.3652   -3.3205 H   0  0  0  0  0  0  0  0  0  0  0  0
   -1.0738   -0.3652   -3.3205 H   0  0  0  0  0  0  0  0  0  0  0  0
   -0.1955    1.1854   -3.3217 H   0  0  0  0  0  0  0  0  0  0  0  0
   -0.1955   -0.8249   -0.9761 H   0  0  0  0  0  0  0  0  0  0  0  0
   -0.1955    1.0073    0.4165 H   0  0  0  0  0  0  0  0  0  0  0  0
   -0.1955    0.7625    1.6923 C   0  0  0  0  0  2  0  0  0  0  0  0
    0.4412   -0.4640    2.2318 C   0  0  0  0  0  0  0  0  0  0  0  0
    0.2900   -1.6808    1.3254 C   0  0  0  0  0  0  0  0  0  0  0  0
   -0.3238    1.6394    2.3126 H   0  0  0  0  0  0  0  0  0  0  0  0
    1.5120   -0.2780    2.4072 H   0  0  0  0  0  0  0  0  0  0  0  0
    0.0324   -0.6859    3.2247 H   0  0  0  0  0  0  0  0  0  0  0  0
    0.7292   -1.4901    0.3439 H   0  0  0  0  0  0  0  0  0  0  0  0
   -0.7631   -1.9272    1.1772 H   0  0  0  0  0  0  0  0  0  0  0  0
    0.7853   -2.5551    1.7501 H   0  0  0  0  0  0  0  0  0  0  0  0
  1  2  1  0
  1  4  1  0
  1  5  1  0
  1  6  1  0
  2  3  2  3
  2  7  1  0
  3  8  1  0
  9 10  1  0
  9 12  1  0
 10 11  1  0
 10 13  1  0
 10 14  1  0
 11 15  1  0
 11 16  1  0
 11 17  1  0
M  RAD  1   9   3
M  END
>  <reaction>  (7) 
rmg_rxn_16491

>  <mol_properties>  (7) 
{"1": {"label": "*0", "atom_type": "Cd"}, "2": {"label": "*1", "atom_type": "N3d"}, "7": {"label": "*2", "atom_type": "H0"}, "8": {"label": "*3", "atom_type": "Cs"}, "9": {"label": "*4", "atom_type": "Cs"}}

>  <type>  (7) 
unop_3

>  <geom_source>  (7) 
Heuristics

$$$$

     RDKit          3D

 17 15  0  0  0  0  0  0  0  0999 V2000
   -0.4686   -0.8495   -3.1860 C   0  0  0  0  0  0  0  0  0  0  0  0
   -0.4686   -0.8495   -1.6937 C   0  0  0  0  0  0  0  0  0  0  0  0
   -0.4686    0.2231   -1.0260 N   0  0  0  0  0  0  0  0  0  0  0  0
    0.4097   -1.3795   -3.5634 H   0  0  0  0  0  0  0  0  0  0  0  0
   -1.3468   -1.3795   -3.5634 H   0  0  0  0  0  0  0  0  0  0  0  0
   -0.4686    0.1711   -3.5646 H   0  0  0  0  0  0  0  0  0  0  0  0
   -0.4686   -1.8392   -1.2191 H   0  0  0  0  0  0  0  0  0  0  0  0
   -0.4686   -0.0071    0.1736 H   0  0  0  0  0  0  0  0  0  0  0  0
   -0.4686   -0.2519    1.4494 C   0  0  0  0  0  2  0  0  0  0  0  0
    0.1682    0.6879    2.4045 C   0  0  0  0  0  0  0  0  0  0  0  0
    1.6239    1.0008    2.0759 C   0  0  0  0  0  0  0  0  0  0  0  0
   -1.4288   -0.6992    1.6685 H   0  0  0  0  0  0  0  0  0  0  0  0
   -0.4032    1.6284    2.4342 H   0  0  0  0  0  0  0  0  0  0  0  0
    0.0939    0.2865    3.4222 H   0  0  0  0  0  0  0  0  0  0  0  0
    1.7107    1.4398    1.0796 H   0  0  0  0  0  0  0  0  0  0  0  0
    2.2308    0.0937    2.0945 H   0  0  0  0  0  0  0  0  0  0  0  0
    2.0486    1.7065    2.7912 H   0  0  0  0  0  0  0  0  0  0  0  0
  1  2  1  0
  1  4  1  0
  1  5  1  0
  1  6  1  0
  2  3  2  3
  2  7  1  0
  3  8  1  0
  9 10  1  0
  9 12  1  0
 10 11  1  0
 10 13  1  0
 10 14  1  0
 11 15  1  0
 11 16  1  0
 11 17  1  0
M  RAD  1   9   3
M  END
>  <reaction>  (8) 
rmg_rxn_16491

>  <mol_properties>  (8) 
{"1": {"label": "*0", "atom_type": "Cd"}, "2": {"label": "*1", "atom_type": "N3d"}, "7": {"label": "*2", "atom_type": "H0"}, "8": {"label": "*3", "atom_type": "Cs"}, "9": {"label": "*4", "atom_type": "Cs"}}

>  <type>  (8) 
unop_4

>  <geom_source>  (8) 
Heuristics

$$$$

     RDKit          3D

 17 15  0  0  0  0  0  0  0  0999 V2000
    0.5355   -0.0787   -2.9563 C   0  0  0  0  0  0  0  0  0  0  0  0
    0.5355   -0.0787   -1.4640 C   0  0  0  0  0  0  0  0  0  0  0  0
    0.5355    0.9940   -0.7963 N   0  0  0  0  0  0  0  0  0  0  0  0
    1.4138   -0.6086   -3.3337 H   0  0  0  0  0  0  0  0  0  0  0  0
   -0.3428   -0.6086   -3.3337 H   0  0  0  0  0  0  0  0  0  0  0  0
    0.5355    0.9420   -3.3349 H   0  0  0  0  0  0  0  0  0  0  0  0
    0.5355   -1.0683   -0.9893 H   0  0  0  0  0  0  0  0  0  0  0  0
    0.5355    0.7638    0.4033 H   0  0  0  0  0  0  0  0  0  0  0  0
    0.5355    0.5190    1.6791 C   0  0  0  0  0  2  0  0  0  0  0  0
   -0.5674   -0.2497    2.3064 C   0  0  0  0  0  0  0  0  0  0  0  0
   -1.4492   -0.9841    1.3023 C   0  0  0  0  0  0  0  0  0  0  0  0
    1.1145    1.2283    2.2551 H   0  0  0  0  0  0  0  0  0  0  0  0
   -0.1513   -0.9784    3.0190 H   0  0  0  0  0  0  0  0  0  0  0  0
   -1.1806    0.4197    2.9213 H   0  0  0  0  0  0  0  0  0  0  0  0
   -0.8592   -1.6857    0.7086 H   0  0  0  0  0  0  0  0  0  0  0  0
   -1.9236   -0.2818    0.6144 H   0  0  0  0  0  0  0  0  0  0  0  0
   -2.2358   -1.5489    1.8046 H   0  0  0  0  0  0  0  0  0  0  0  0
  1  2  1  0
  1  4  1  0
  1  5  1  0
  1  6  1  0
  2  3  2  3
  2  7  1  0
  3  8  1  0
  9 10  1  0
  9 12  1  0
 10 11  1  0
 10 13  1  0
 10 14  1  0
 11 15  1  0
 11 16  1  0
 11 17  1  0
M  RAD  1   9   3
M  END
>  <reaction>  (9) 
rmg_rxn_16491

>  <mol_properties>  (9) 
{"1": {"label": "*0", "atom_type": "Cd"}, "2": {"label": "*1", "atom_type": "N3d"}, "7": {"label": "*2", "atom_type": "H0"}, "8": {"label": "*3", "atom_type": "Cs"}, "9": {"label": "*4", "atom_type": "Cs"}}

>  <type>  (9) 
unop_5

>  <geom_source>  (9) 
Heuristics

$$$$

     RDKit          3D

 17 15  0  0  0  0  0  0  0  0999 V2000
   -0.0741   -1.0825   -3.1534 C   0  0  0  0  0  0  0  0  0  0  0  0
   -0.0741   -1.0825   -1.6610 C   0  0  0  0  0  0  0  0  0  0  0  0
   -0.0741   -0.0099   -0.9933 N   0  0  0  0  0  0  0  0  0  0  0  0
    0.8042   -1.6125   -3.5308 H   0  0  0  0  0  0  0  0  0  0  0  0
   -0.9523   -1.6125   -3.5308 H   0  0  0  0  0  0  0  0  0  0  0  0
   -0.0741   -0.0619   -3.5319 H   0  0  0  0  0  0  0  0  0  0  0  0
   -0.0741   -2.0722   -1.1864 H   0  0  0  0  0  0  0  0  0  0  0  0
   -0.0741   -0.2400    0.2063 H   0  0  0  0  0  0  0  0  0  0  0  0
   -0.0741   -0.4848    1.4821 C   0  0  0  0  0  2  0  0  0  0  0  0
   -0.0741    0.6225    2.4694 C   0  0  0  0  0  0  0  0  0  0  0  0
    0.3543    1.9637    1.8840 C   0  0  0  0  0  0  0  0  0  0  0  0
   -0.1749   -1.5132    1.8023 H   0  0  0  0  0  0  0  0  0  0  0  0
   -1.0785    0.7266    2.9079 H   0  0  0  0  0  0  0  0  0  0  0  0
    0.5721    0.3620    3.3161 H   0  0  0  0  0  0  0  0  0  0  0  0
   -0.3052    2.2574    1.0645 H   0  0  0  0  0  0  0  0  0  0  0  0
    1.3711    1.9096    1.4906 H   0  0  0  0  0  0  0  0  0  0  0  0
    0.3247    2.7522    2.6372 H   0  0  0  0  0  0  0  0  0  0  0  0
  1  2  1  0
  1  4  1  0
  1  5  1  0
  1  6  1  0
  2  3  2  3
  2  7  1  0
  3  8  1  0
  9 10  1  0
  9 12  1  0
 10 11  1  0
 10 13  1  0
 10 14  1  0
 11 15  1  0
 11 16  1  0
 11 17  1  0
M  RAD  1   9   3
M  END
>  <reaction>  (10) 
rmg_rxn_16491

>  <mol_properties>  (10) 
{"1": {"label": "*0", "atom_type": "Cd"}, "2": {"label": "*1", "atom_type": "N3d"}, "7": {"label": "*2", "atom_type": "H0"}, "8": {"label": "*3", "atom_type": "Cs"}, "9": {"label": "*4", "atom_type": "Cs"}}

>  <type>  (10) 
unop_6

>  <geom_source>  (10) 
Heuristics

$$$$

     RDKit          3D

 17 15  0  0  0  0  0  0  0  0999 V2000
    0.6445   -0.3521   -3.0199 C   0  0  0  0  0  0  0  0  0  0  0  0
    0.6445   -0.3521   -1.5275 C   0  0  0  0  0  0  0  0  0  0  0  0
    0.6445    0.7205   -0.8599 N   0  0  0  0  0  0  0  0  0  0  0  0
    1.5228   -0.8821   -3.3973 H   0  0  0  0  0  0  0  0  0  0  0  0
   -0.2337   -0.8821   -3.3973 H   0  0  0  0  0  0  0  0  0  0  0  0
    0.6445    0.6685   -3.3985 H   0  0  0  0  0  0  0  0  0  0  0  0
    0.6445   -1.3418   -1.0529 H   0  0  0  0  0  0  0  0  0  0  0  0
    0.6445    0.4903    0.3397 H   0  0  0  0  0  0  0  0  0  0  0  0
    0.6445    0.2455    1.6155 C   0  0  0  0  0  2  0  0  0  0  0  0
   -0.6290    0.1021    2.3629 C   0  0  0  0  0  0  0  0  0  0  0  0
   -1.8083   -0.3091    1.4881 C   0  0  0  0  0  0  0  0  0  0  0  0
    1.5076    0.7088    2.0746 H   0  0  0  0  0  0  0  0  0  0  0  0
   -0.5038   -0.6384    3.1678 H   0  0  0  0  0  0  0  0  0  0  0  0
   -0.8595    1.0397    2.8825 H   0  0  0  0  0  0  0  0  0  0  0  0
   -1.6107   -1.2630    0.9944 H   0  0  0  0  0  0  0  0  0  0  0  0
   -1.9955    0.4355    0.7122 H   0  0  0  0  0  0  0  0  0  0  0  0
   -2.7194   -0.4193    2.0778 H   0  0  0  0  0  0  0  0  0  0  0  0
  1  2  1  0
  1  4  1  0
  1  5  1  0
  1  6  1  0
  2  3  2  3
  2  7  1  0
  3  8  1  0
  9 10  1  0
  9 12  1  0
 10 11  1  0
 10 13  1  0
 10 14  1  0
 11 15  1  0
 11 16  1  0
 11 17  1  0
M  RAD  1   9   3
M  END
>  <reaction>  (11) 
rmg_rxn_16491

>  <mol_properties>  (11) 
{"1": {"label": "*0", "atom_type": "Cd"}, "2": {"label": "*1", "atom_type": "N3d"}, "7": {"label": "*2", "atom_type": "H0"}, "8": {"label": "*3", "atom_type": "Cs"}, "9": {"label": "*4", "atom_type": "Cs"}}

>  <type>  (11) 
unop_7

>  <geom_source>  (11) 
Heuristics

$$$$

     RDKit          3D

 17 15  0  0  0  0  0  0  0  0999 V2000
    0.6088   -0.6680   -3.0856 C   0  0  0  0  0  0  0  0  0  0  0  0
    0.6088   -0.6680   -1.5933 C   0  0  0  0  0  0  0  0  0  0  0  0
    0.6088    0.4047   -0.9256 N   0  0  0  0  0  0  0  0  0  0  0  0
    1.4871   -1.1979   -3.4630 H   0  0  0  0  0  0  0  0  0  0  0  0
   -0.2695   -1.1980   -3.4630 H   0  0  0  0  0  0  0  0  0  0  0  0
    0.6088    0.3527   -3.4642 H   0  0  0  0  0  0  0  0  0  0  0  0
    0.6088   -1.6577   -1.1186 H   0  0  0  0  0  0  0  0  0  0  0  0
    0.6088    0.1745    0.2740 H   0  0  0  0  0  0  0  0  0  0  0  0
    0.6088   -0.0703    1.5498 C   0  0  0  0  0  2  0  0  0  0  0  0
   -0.4941    0.4117    2.4171 C   0  0  0  0  0  0  0  0  0  0  0  0
   -1.8208    0.5769    1.6840 C   0  0  0  0  0  0  0  0  0  0  0  0
    1.6340   -0.0516    1.8947 H   0  0  0  0  0  0  0  0  0  0  0  0
   -0.6333   -0.2841    3.2588 H   0  0  0  0  0  0  0  0  0  0  0  0
   -0.2070    1.3601    2.8864 H   0  0  0  0  0  0  0  0  0  0  0  0
   -2.1416   -0.3701    1.2446 H   0  0  0  0  0  0  0  0  0  0  0  0
   -1.7311    1.3057    0.8764 H   0  0  0  0  0  0  0  0  0  0  0  0
   -2.6072    0.9162    2.3598 H   0  0  0  0  0  0  0  0  0  0  0  0
  1  2  1  0
  1  4  1  0
  1  5  1  0
  1  6  1  0
  2  3  2  3
  2  7  1  0
  3  8  1  0
  9 10  1  0
  9 12  1  0
 10 11  1  0
 10 13  1  0
 10 14  1  0
 11 15  1  0
 11 16  1  0
 11 17  1  0
M  RAD  1   9   3
M  END
>  <reaction>  (12) 
rmg_rxn_16491

>  <mol_properties>  (12) 
{"1": {"label": "*0", "atom_type": "Cd"}, "2": {"label": "*1", "atom_type": "N3d"}, "7": {"label": "*2", "atom_type": "H0"}, "8": {"label": "*3", "atom_type": "Cs"}, "9": {"label": "*4", "atom_type": "Cs"}}

>  <type>  (12) 
unop_8

>  <geom_source>  (12) 
Heuristics

$$$$

     RDKit          3D

 17 15  0  0  0  0  0  0  0  0999 V2000
   -0.5938   -0.2278   -3.0825 C   0  0  0  0  0  0  0  0  0  0  0  0
   -0.5938   -0.2278   -1.5902 C   0  0  0  0  0  0  0  0  0  0  0  0
   -0.5938    0.8448   -0.9225 N   0  0  0  0  0  0  0  0  0  0  0  0
    0.2845   -0.7578   -3.4599 H   0  0  0  0  0  0  0  0  0  0  0  0
   -1.4721   -0.7578   -3.4599 H   0  0  0  0  0  0  0  0  0  0  0  0
   -0.5938    0.7928   -3.4611 H   0  0  0  0  0  0  0  0  0  0  0  0
   -0.5938   -1.2175   -1.1155 H   0  0  0  0  0  0  0  0  0  0  0  0
   -0.5938    0.6146    0.2771 H   0  0  0  0  0  0  0  0  0  0  0  0
   -0.5938    0.3699    1.5529 C   0  0  0  0  0  2  0  0  0  0  0  0
    0.6797    0.2265    2.3003 C   0  0  0  0  0  0  0  0  0  0  0  0
    1.5656   -0.9037    1.7876 C   0  0  0  0  0  0  0  0  0  0  0  0
   -1.3879    1.0022    1.9268 H   0  0  0  0  0  0  0  0  0  0  0  0
    1.2424    1.1716    2.2564 H   0  0  0  0  0  0  0  0  0  0  0  0
    0.4677    0.0796    3.3660 H   0  0  0  0  0  0  0  0  0  0  0  0
    1.8197   -0.7508    0.7365 H   0  0  0  0  0  0  0  0  0  0  0  0
    1.0564   -1.8657    1.8709 H   0  0  0  0  0  0  0  0  0  0  0  0
    2.4970   -0.9642    2.3522 H   0  0  0  0  0  0  0  0  0  0  0  0
  1  2  1  0
  1  4  1  0
  1  5  1  0
  1  6  1  0
  2  3  2  3
  2  7  1  0
  3  8  1  0
  9 10  1  0
  9 12  1  0
 10 11  1  0
 10 13  1  0
 10 14  1  0
 11 15  1  0
 11 16  1  0
 11 17  1  0
M  RAD  1   9   3
M  END
>  <reaction>  (13) 
rmg_rxn_16491

>  <mol_properties>  (13) 
{"1": {"label": "*0", "atom_type": "Cd"}, "2": {"label": "*1", "atom_type": "N3d"}, "7": {"label": "*2", "atom_type": "H0"}, "8": {"label": "*3", "atom_type": "Cs"}, "9": {"label": "*4", "atom_type": "Cs"}}

>  <type>  (13) 
unop_9

>  <geom_source>  (13) 
Heuristics

$$$$

     RDKit          3D

 17 15  0  0  0  0  0  0  0  0999 V2000
   -2.8202   -0.5360   -0.1711 C   0  0  0  0  0  0  0  0  0  0  0  0
   -1.3905   -0.0982   -0.1877 C   0  0  0  0  0  0  0  0  0  0  0  0
   -0.9642    0.7622    0.5959 N   0  0  0  0  0  0  0  0  0  0  0  0
   -3.2688   -0.3407   -1.1439 H   0  0  0  0  0  0  0  0  0  0  0  0
   -2.8666   -1.6079    0.0152 H   0  0  0  0  0  0  0  0  0  0  0  0
   -3.3696   -0.0043    0.6003 H   0  0  0  0  0  0  0  0  0  0  0  0
   -0.7836   -0.6129   -0.9528 H   0  0  0  0  0  0  0  0  0  0  0  0
    0.2244    1.0560    0.6388 H   0  0  0  0  0  0  0  0  0  0  0  0
    1.3035    1.2224   -0.0109 C   0  0  0  0  0  2  0  0  0  0  0  0
    1.8284   -0.0281   -0.5943 C   0  0  0  0  0  0  0  0  0  0  0  0
    2.0831   -1.1213    0.4399 C   0  0  0  0  0  0  0  0  0  0  0  0
    1.1087    1.9564   -0.8048 H   0  0  0  0  0  0  0  0  0  0  0  0
    1.1827   -0.4251   -1.4016 H   0  0  0  0  0  0  0  0  0  0  0  0
    2.7680    0.2439   -1.0906 H   0  0  0  0  0  0  0  0  0  0  0  0
    1.1529   -1.4077    0.9261 H   0  0  0  0  0  0  0  0  0  0  0  0
    2.7652   -0.7588    1.2041 H   0  0  0  0  0  0  0  0  0  0  0  0
    2.5171   -2.0038   -0.0264 H   0  0  0  0  0  0  0  0  0  0  0  0
  1  2  1  0
  1  4  1  0
  1  5  1  0
  1  6  1  0
  2  3  2  3
  2  7  1  0
  3  8  1  0
  9 10  1  0
  9 12  1  0
 10 11  1  0
 10 13  1  0
 10 14  1  0
 11 15  1  0
 11 16  1  0
 11 17  1  0
M  RAD  1   9   3
M  END
>  <reaction>  (14) 
rmg_rxn_16491

>  <mol_properties>  (14) 
{"1": {"label": "*0", "atom_type": "Cd"}, "2": {"label": "*1", "atom_type": "N3d"}, "7": {"label": "*2", "atom_type": "H0"}, "8": {"label": "*3", "atom_type": "Cs"}, "9": {"label": "*4", "atom_type": "Cs"}}

>  <type>  (14) 
unop_10

>  <geom_source>  (14) 
Heuristics

$$$$

     RDKit          3D

 17 15  0  0  0  0  0  0  0  0999 V2000
    0.3293    0.1080   -2.9145 C   0  0  0  0  0  0  0  0  0  0  0  0
    0.3293    0.1080   -1.4222 C   0  0  0  0  0  0  0  0  0  0  0  0
    0.3293    1.1806   -0.7545 N   0  0  0  0  0  0  0  0  0  0  0  0
    1.2076   -0.4220   -3.2919 H   0  0  0  0  0  0  0  0  0  0  0  0
   -0.5489   -0.4220   -3.2919 H   0  0  0  0  0  0  0  0  0  0  0  0
    0.3293    1.1286   -3.2931 H   0  0  0  0  0  0  0  0  0  0  0  0
    0.3293   -0.8817   -0.9475 H   0  0  0  0  0  0  0  0  0  0  0  0
    0.3293    0.9504    0.4451 H   0  0  0  0  0  0  0  0  0  0  0  0
    0.3293    0.7056    1.7209 C   0  0  0  0  0  2  0  0  0  0  0  0
   -0.3074   -0.5209    2.2604 C   0  0  0  0  0  0  0  0  0  0  0  0
   -0.9299   -1.4089    1.1885 C   0  0  0  0  0  0  0  0  0  0  0  0
    0.6396    1.5051    2.3802 H   0  0  0  0  0  0  0  0  0  0  0  0
    0.4357   -1.1058    2.8240 H   0  0  0  0  0  0  0  0  0  0  0  0
   -1.0656   -0.2468    3.0036 H   0  0  0  0  0  0  0  0  0  0  0  0
   -0.1780   -1.7243    0.4618 H   0  0  0  0  0  0  0  0  0  0  0  0
   -1.7131   -0.8748    0.6473 H   0  0  0  0  0  0  0  0  0  0  0  0
   -1.3716   -2.3059    1.6246 H   0  0  0  0  0  0  0  0  0  0  0  0
  1  2  1  0
  1  4  1  0
  1  5  1  0
  1  6  1  0
  2  3  2  3
  2  7  1  0
  3  8  1  0
  9 10  1  0
  9 12  1  0
 10 11  1  0
 10 13  1  0
 10 14  1  0
 11 15  1  0
 11 16  1  0
 11 17  1  0
M  RAD  1   9   3
M  END
>  <reaction>  (15) 
rmg_rxn_16491

>  <mol_properties>  (15) 
{"1": {"label": "*0", "atom_type": "Cd"}, "2": {"label": "*1", "atom_type": "N3d"}, "7": {"label": "*2", "atom_type": "H0"}, "8": {"label": "*3", "atom_type": "Cs"}, "9": {"label": "*4", "atom_type": "Cs"}}

>  <type>  (15) 
unop_11

>  <geom_source>  (15) 
Heuristics

$$$$

     RDKit          3D

 17 15  0  0  0  0  0  0  0  0999 V2000
   -0.4377    0.0208   -3.0064 C   0  0  0  0  0  0  0  0  0  0  0  0
   -0.4377    0.0208   -1.5141 C   0  0  0  0  0  0  0  0  0  0  0  0
   -0.4377    1.0934   -0.8464 N   0  0  0  0  0  0  0  0  0  0  0  0
    0.4405   -0.5092   -3.3838 H   0  0  0  0  0  0  0  0  0  0  0  0
   -1.3160   -0.5092   -3.3838 H   0  0  0  0  0  0  0  0  0  0  0  0
   -0.4377    1.0414   -3.3850 H   0  0  0  0  0  0  0  0  0  0  0  0
   -0.4377   -0.9689   -1.0394 H   0  0  0  0  0  0  0  0  0  0  0  0
   -0.4377    0.8632    0.3532 H   0  0  0  0  0  0  0  0  0  0  0  0
   -0.4377    0.6184    1.6290 C   0  0  0  0  0  2  0  0  0  0  0  0
    0.6652   -0.1503    2.2564 C   0  0  0  0  0  0  0  0  0  0  0  0
    0.9815   -1.4596    1.5418 C   0  0  0  0  0  0  0  0  0  0  0  0
   -0.8837    1.4630    2.1369 H   0  0  0  0  0  0  0  0  0  0  0  0
    1.5747    0.4690    2.2902 H   0  0  0  0  0  0  0  0  0  0  0  0
    0.4256   -0.3481    3.3079 H   0  0  0  0  0  0  0  0  0  0  0  0
    1.2620   -1.2760    0.5024 H   0  0  0  0  0  0  0  0  0  0  0  0
    0.1138   -2.1220    1.5410 H   0  0  0  0  0  0  0  0  0  0  0  0
    1.8072   -1.9847    2.0241 H   0  0  0  0  0  0  0  0  0  0  0  0
  1  2  1  0
  1  4  1  0
  1  5  1  0
  1  6  1  0
  2  3  2  3
  2  7  1  0
  3  8  1  0
  9 10  1  0
  9 12  1  0
 10 11  1  0
 10 13  1  0
 10 14  1  0
 11 15  1  0
 11 16  1  0
 11 17  1  0
M  RAD  1   9   3
M  END
>  <reaction>  (16) 
rmg_rxn_16491

>  <mol_properties>  (16) 
{"1": {"label": "*0", "atom_type": "Cd"}, "2": {"label": "*1", "atom_type": "N3d"}, "7": {"label": "*2", "atom_type": "H0"}, "8": {"label": "*3", "atom_type": "Cs"}, "9": {"label": "*4", "atom_type": "Cs"}}

>  <type>  (16) 
unop_12

>  <geom_source>  (16) 
Heuristics

$$$$

     RDKit          3D

 17 15  0  0  0  0  0  0  0  0999 V2000
    0.3884   -0.9608   -3.1300 C   0  0  0  0  0  0  0  0  0  0  0  0
    0.3884   -0.9608   -1.6377 C   0  0  0  0  0  0  0  0  0  0  0  0
    0.3884    0.1118   -0.9700 N   0  0  0  0  0  0  0  0  0  0  0  0
    1.2666   -1.4908   -3.5074 H   0  0  0  0  0  0  0  0  0  0  0  0
   -0.4899   -1.4908   -3.5074 H   0  0  0  0  0  0  0  0  0  0  0  0
    0.3884    0.0598   -3.5086 H   0  0  0  0  0  0  0  0  0  0  0  0
    0.3884   -1.9505   -1.1630 H   0  0  0  0  0  0  0  0  0  0  0  0
    0.3884   -0.1183    0.2296 H   0  0  0  0  0  0  0  0  0  0  0  0
    0.3884   -0.3631    1.5054 C   0  0  0  0  0  2  0  0  0  0  0  0
   -0.2484    0.5766    2.4606 C   0  0  0  0  0  0  0  0  0  0  0  0
   -1.2404    1.5331    1.8079 C   0  0  0  0  0  0  0  0  0  0  0  0
    1.2395   -0.9619    1.8008 H   0  0  0  0  0  0  0  0  0  0  0  0
   -0.7640    0.0083    3.2499 H   0  0  0  0  0  0  0  0  0  0  0  0
    0.5252    1.1458    2.9895 H   0  0  0  0  0  0  0  0  0  0  0  0
   -2.0410    0.9814    1.3105 H   0  0  0  0  0  0  0  0  0  0  0  0
   -0.7468    2.1533    1.0574 H   0  0  0  0  0  0  0  0  0  0  0  0
   -1.6972    2.1943    2.5456 H   0  0  0  0  0  0  0  0  0  0  0  0
  1  2  1  0
  1  4  1  0
  1  5  1  0
  1  6  1  0
  2  3  2  3
  2  7  1  0
  3  8  1  0
  9 10  1  0
  9 12  1  0
 10 11  1  0
 10 13  1  0
 10 14  1  0
 11 15  1  0
 11 16  1  0
 11 17  1  0
M  RAD  1   9   3
M  END
>  <reaction>  (17) 
rmg_rxn_16491

>  <mol_properties>  (17) 
{"1": {"label": "*0", "atom_type": "Cd"}, "2": {"label": "*1", "atom_type": "N3d"}, "7": {"label": "*2", "atom_type": "H0"}, "8": {"label": "*3", "atom_type": "Cs"}, "9": {"label": "*4", "atom_type": "Cs"}}

>  <type>  (17) 
unop_13

>  <geom_source>  (17) 
Heuristics

$$$$

     RDKit          3D

 17 15  0  0  0  0  0  0  0  0999 V2000
    0.0741    0.1912   -2.9090 C   0  0  0  0  0  0  0  0  0  0  0  0
    0.0741    0.1912   -1.4166 C   0  0  0  0  0  0  0  0  0  0  0  0
    0.0741    1.2638   -0.7490 N   0  0  0  0  0  0  0  0  0  0  0  0
    0.9523   -0.3388   -3.2864 H   0  0  0  0  0  0  0  0  0  0  0  0
   -0.8042   -0.3388   -3.2864 H   0  0  0  0  0  0  0  0  0  0  0  0
    0.0741    1.2118   -3.2876 H   0  0  0  0  0  0  0  0  0  0  0  0
    0.0741   -0.7985   -0.9420 H   0  0  0  0  0  0  0  0  0  0  0  0
    0.0741    1.0336    0.4506 H   0  0  0  0  0  0  0  0  0  0  0  0
    0.0741    0.7888    1.7264 C   0  0  0  0  0  2  0  0  0  0  0  0
    0.0741   -0.6053    2.2338 C   0  0  0  0  0  0  0  0  0  0  0  0
   -0.3543   -1.6345    1.1936 C   0  0  0  0  0  0  0  0  0  0  0  0
    0.1749    1.6256    2.4045 H   0  0  0  0  0  0  0  0  0  0  0  0
    1.0785   -0.8643    2.6026 H   0  0  0  0  0  0  0  0  0  0  0  0
   -0.5721   -0.6767    3.1168 H   0  0  0  0  0  0  0  0  0  0  0  0
    0.3052   -1.6041    0.3236 H   0  0  0  0  0  0  0  0  0  0  0  0
   -1.3711   -1.4387    0.8481 H   0  0  0  0  0  0  0  0  0  0  0  0
   -0.3247   -2.6459    1.6014 H   0  0  0  0  0  0  0  0  0  0  0  0
  1  2  1  0
  1  4  1  0
  1  5  1  0
  1  6  1  0
  2  3  2  3
  2  7  1  0
  3  8  1  0
  9 10  1  0
  9 12  1  0
 10 11  1  0
 10 13  1  0
 10 14  1  0
 11 15  1  0
 11 16  1  0
 11 17  1  0
M  RAD  1   9   3
M  END
>  <reaction>  (18) 
rmg_rxn_16491

>  <mol_properties>  (18) 
{"1": {"label": "*0", "atom_type": "Cd"}, "2": {"label": "*1", "atom_type": "N3d"}, "7": {"label": "*2", "atom_type": "H0"}, "8": {"label": "*3", "atom_type": "Cs"}, "9": {"label": "*4", "atom_type": "Cs"}}

>  <type>  (18) 
unop_14

>  <geom_source>  (18) 
Heuristics

$$$$

     RDKit          3D

 17 15  0  0  0  0  0  0  0  0999 V2000
   -0.1955    0.1648   -2.9431 C   0  0  0  0  0  0  0  0  0  0  0  0
   -0.1955    0.1648   -1.4508 C   0  0  0  0  0  0  0  0  0  0  0  0
   -0.1955    1.2375   -0.7831 N   0  0  0  0  0  0  0  0  0  0  0  0
    0.6827   -0.3652   -3.3205 H   0  0  0  0  0  0  0  0  0  0  0  0
   -1.0738   -0.3652   -3.3205 H   0  0  0  0  0  0  0  0  0  0  0  0
   -0.1955    1.1854   -3.3217 H   0  0  0  0  0  0  0  0  0  0  0  0
   -0.1955   -0.8249   -0.9761 H   0  0  0  0  0  0  0  0  0  0  0  0
   -0.1955    1.0073    0.4165 H   0  0  0  0  0  0  0  0  0  0  0  0
   -0.1955    0.7625    1.6923 C   0  0  0  0  0  2  0  0  0  0  0  0
    0.4412   -0.4640    2.2318 C   0  0  0  0  0  0  0  0  0  0  0  0
    0.2900   -1.6808    1.3254 C   0  0  0  0  0  0  0  0  0  0  0  0
   -0.3238    1.6394    2.3126 H   0  0  0  0  0  0  0  0  0  0  0  0
    1.5120   -0.2780    2.4072 H   0  0  0  0  0  0  0  0  0  0  0  0
    0.0324   -0.6859    3.2247 H   0  0  0  0  0  0  0  0  0  0  0  0
    0.7292   -1.4901    0.3439 H   0  0  0  0  0  0  0  0  0  0  0  0
   -0.7631   -1.9272    1.1772 H   0  0  0  0  0  0  0  0  0  0  0  0
    0.7853   -2.5551    1.7501 H   0  0  0  0  0  0  0  0  0  0  0  0
  1  2  1  0
  1  4  1  0
  1  5  1  0
  1  6  1  0
  2  3  2  3
  2  7  1  0
  3  8  1  0
  9 10  1  0
  9 12  1  0
 10 11  1  0
 10 13  1  0
 10 14  1  0
 11 15  1  0
 11 16  1  0
 11 17  1  0
M  RAD  1   9   3
M  END
>  <reaction>  (19) 
rmg_rxn_16491

>  <mol_properties>  (19) 
{"1": {"label": "*0", "atom_type": "Cd"}, "2": {"label": "*1", "atom_type": "N3d"}, "7": {"label": "*2", "atom_type": "H0"}, "8": {"label": "*3", "atom_type": "Cs"}, "9": {"label": "*4", "atom_type": "Cs"}}

>  <type>  (19) 
unop_15

>  <geom_source>  (19) 
gaussian_log

$$$$
