
     RDKit          3D

  6  5  0  0  0  0  0  0  0  0999 V2000
   -0.4901    0.0045    0.0014 C   0  0  0  0  0  0  0  0  0  0  0  0
    0.9645   -0.0089   -0.0027 C   0  0  0  0  0  0  0  0  0  0  0  0
    2.1108   -0.0195   -0.0059 N   0  0  0  0  0  0  0  0  0  0  0  0
   -0.8700   -0.6407   -0.7900 H   0  0  0  0  0  0  0  0  0  0  0  0
   -0.8625   -0.3540    0.9604 H   0  0  0  0  0  0  0  0  0  0  0  0
   -0.8530    1.0185   -0.1631 H   0  0  0  0  0  0  0  0  0  0  0  0
  1  2  1  0
  1  4  1  0
  1  5  1  0
  1  6  1  0
  2  3  3  0
M  END
>  <reaction>  (1) 
rmg_rxn_240

>  <mol_properties>  (1) 
{"0": {"label": "donator", "atom_type": "Cs"}, "3": {"label": "d_hydrogen", "atom_type": "H0"}}

>  <type>  (1) 
r1h

$$$$

     RDKit          3D

 17 16  0  0  0  0  0  0  0  0999 V2000
    2.3128   -0.1525    1.1777 C   0  0  0  0  0  3  0  0  0  0  0  0
    1.7469    0.7266    0.1254 C   0  0  0  0  0  0  0  0  0  0  0  0
    1.6374    2.1830    0.5408 C   0  0  0  0  0  0  0  0  0  0  0  0
    2.9245    2.6874    0.7877 O   0  0  0  0  0  0  0  0  0  0  0  0
    2.9227    4.0197    1.2361 C   0  0  0  0  0  0  0  0  0  0  0  0
    4.3491    4.4603    1.4693 C   0  0  0  0  0  0  0  0  0  0  0  0
    2.1393   -1.2196    1.1557 H   0  0  0  0  0  0  0  0  0  0  0  0
    3.0313    0.2400    1.8838 H   0  0  0  0  0  0  0  0  0  0  0  0
    0.7555    0.3746   -0.1764 H   0  0  0  0  0  0  0  0  0  0  0  0
    2.3678    0.6841   -0.7826 H   0  0  0  0  0  0  0  0  0  0  0  0
    1.0170    2.2718    1.4449 H   0  0  0  0  0  0  0  0  0  0  0  0
    1.1499    2.7653   -0.2546 H   0  0  0  0  0  0  0  0  0  0  0  0
    2.4379    4.6655    0.4891 H   0  0  0  0  0  0  0  0  0  0  0  0
    2.3377    4.1015    2.1638 H   0  0  0  0  0  0  0  0  0  0  0  0
    4.9261    4.3920    0.5465 H   0  0  0  0  0  0  0  0  0  0  0  0
    4.3728    5.4939    1.8180 H   0  0  0  0  0  0  0  0  0  0  0  0
    4.8260    3.8299    2.2206 H   0  0  0  0  0  0  0  0  0  0  0  0
  1  2  1  0
  1  7  1  0
  1  8  1  0
  2  3  1  0
  2  9  1  0
  2 10  1  0
  3  4  1  0
  3 11  1  0
  3 12  1  0
  4  5  1  0
  5  6  1  0
  5 13  1  0
  5 14  1  0
  6 15  1  0
  6 16  1  0
  6 17  1  0
M  RAD  1   1   2
M  END
>  <reaction>  (2) 
rmg_rxn_240

>  <mol_properties>  (2) 
{"0": {"label": "acceptor", "atom_type": "Cs"}}

>  <type>  (2) 
r2

$$$$

     RDKit          3D

 18 17  0  0  0  0  0  0  0  0999 V2000
    2.2026   -0.7213   -0.2612 C   0  0  0  0  0  0  0  0  0  0  0  0
    1.5384    0.2638    0.6915 C   0  0  0  0  0  0  0  0  0  0  0  0
    2.2584    1.5946    0.7694 C   0  0  0  0  0  0  0  0  0  0  0  0
    2.2212    2.2185   -0.4893 O   0  0  0  0  0  0  0  0  0  0  0  0
    2.8988    3.4488   -0.5204 C   0  0  0  0  0  0  0  0  0  0  0  0
    2.7981    4.0296   -1.9118 C   0  0  0  0  0  0  0  0  0  0  0  0
    3.2294   -0.9309    0.0486 H   0  0  0  0  0  0  0  0  0  0  0  0
    2.2338   -0.3181   -1.2734 H   0  0  0  0  0  0  0  0  0  0  0  0
    1.6610   -1.6680   -0.2875 H   0  0  0  0  0  0  0  0  0  0  0  0
    1.4990   -0.1566    1.7002 H   0  0  0  0  0  0  0  0  0  0  0  0
    0.5055    0.4455    0.3835 H   0  0  0  0  0  0  0  0  0  0  0  0
    3.3038    1.4410    1.0808 H   0  0  0  0  0  0  0  0  0  0  0  0
    1.7844    2.2410    1.5226 H   0  0  0  0  0  0  0  0  0  0  0  0
    2.4596    4.1376    0.2164 H   0  0  0  0  0  0  0  0  0  0  0  0
    3.9524    3.3035   -0.2397 H   0  0  0  0  0  0  0  0  0  0  0  0
    1.7543    4.1869   -2.1856 H   0  0  0  0  0  0  0  0  0  0  0  0
    3.2472    3.3545   -2.6411 H   0  0  0  0  0  0  0  0  0  0  0  0
    3.3178    4.9878   -1.9600 H   0  0  0  0  0  0  0  0  0  0  0  0
  1  2  1  0
  1  7  1  0
  1  8  1  0
  1  9  1  0
  2  3  1  0
  2 10  1  0
  2 11  1  0
  3  4  1  0
  3 12  1  0
  3 13  1  0
  4  5  1  0
  5  6  1  0
  5 14  1  0
  5 15  1  0
  6 16  1  0
  6 17  1  0
  6 18  1  0
M  END
>  <reaction>  (3) 
rmg_rxn_240

>  <mol_properties>  (3) 
{"0": {"label": "a_hydrogen", "atom_type": "H0"}, "1": {"label": "acceptor", "atom_type": "Cs"}}

>  <type>  (3) 
r2h

$$$$

     RDKit          3D

 23 21  0  0  0  0  0  0  0  0999 V2000
    2.8505    1.7812   -0.3738 C   0  0  0  0  0  0  0  0  0  0  0  0
    3.2144    1.0825   -1.5629 C   0  0  0  0  0  0  0  0  0  0  0  0
    3.4629    0.4695   -2.5055 N   0  0  0  0  0  0  0  0  0  0  0  0
    1.9337    1.0294    0.2328 H   0  0  0  0  0  0  0  0  0  0  0  0
    3.6565    1.8633    0.3495 H   0  0  0  0  0  0  0  0  0  0  0  0
    2.3465    2.7253   -0.5596 H   0  0  0  0  0  0  0  0  0  0  0  0
    0.9794    0.2181    0.7456 C   0  0  0  0  0  3  0  0  0  0  0  0
    0.2103   -0.2871   -0.4433 C   0  0  0  0  0  0  0  0  0  0  0  0
   -0.8679   -1.2886   -0.0609 C   0  0  0  0  0  0  0  0  0  0  0  0
   -1.7987   -0.6614    0.7822 O   0  0  0  0  0  0  0  0  0  0  0  0
   -2.8385   -1.5147    1.1941 C   0  0  0  0  0  0  0  0  0  0  0  0
   -3.7779   -0.7442    2.0922 C   0  0  0  0  0  0  0  0  0  0  0  0
    0.4274    0.8667    1.4208 H   0  0  0  0  0  0  0  0  0  0  0  0
    1.5680   -0.5321    1.2720 H   0  0  0  0  0  0  0  0  0  0  0  0
    0.8877   -0.7709   -1.1520 H   0  0  0  0  0  0  0  0  0  0  0  0
   -0.2623    0.5471   -0.9674 H   0  0  0  0  0  0  0  0  0  0  0  0
   -0.4176   -2.1543    0.4480 H   0  0  0  0  0  0  0  0  0  0  0  0
   -1.3654   -1.6617   -0.9676 H   0  0  0  0  0  0  0  0  0  0  0  0
   -3.3755   -1.9002    0.3154 H   0  0  0  0  0  0  0  0  0  0  0  0
   -2.4214   -2.3819    1.7262 H   0  0  0  0  0  0  0  0  0  0  0  0
   -4.2018    0.1084    1.5607 H   0  0  0  0  0  0  0  0  0  0  0  0
   -4.5946   -1.3869    2.4239 H   0  0  0  0  0  0  0  0  0  0  0  0
   -3.2493   -0.3743    2.9715 H   0  0  0  0  0  0  0  0  0  0  0  0
  1  2  1  0
  1  4  1  0
  1  5  1  0
  1  6  1  0
  2  3  3  0
  7  8  1  0
  7 13  1  0
  7 14  1  0
  8  9  1  0
  8 15  1  0
  8 16  1  0
  9 10  1  0
  9 17  1  0
  9 18  1  0
 10 11  1  0
 11 12  1  0
 11 19  1  0
 11 20  1  0
 12 21  1  0
 12 22  1  0
 12 23  1  0
M  RAD  1   7   2
M  END
>  <reaction>  (4) 
rmg_rxn_240

>  <mol_properties>  (4) 
{"0": {"label": "*1", "atom_type": "Cs"}, "1": {"label": "*0", "atom_type": "Ct"}, "3": {"label": "*2", "atom_type": "H0"}, "6": {"label": "*3", "atom_type": "Cs"}, "7": {"label": "*4", "atom_type": "Cs"}}

>  <type>  (4) 
ts

$$$$

     RDKit          3D

 23 21  0  0  0  0  0  0  0  0999 V2000
    2.1637    2.1114   -1.2996 C   0  0  0  0  0  0  0  0  0  0  0  0
    2.1637    2.1114   -2.7542 C   0  0  0  0  0  0  0  0  0  0  0  0
    2.1637    2.1114   -3.9007 N   0  0  0  0  0  0  0  0  0  0  0  0
    1.2106    1.3356   -0.8535 H   0  0  0  0  0  0  0  0  0  0  0  0
    3.1207    1.7469   -0.9279 H   0  0  0  0  0  0  0  0  0  0  0  0
    2.0009    3.1225   -0.9279 H   0  0  0  0  0  0  0  0  0  0  0  0
    0.2563    0.5587   -0.4068 C   0  0  0  0  0  3  0  0  0  0  0  0
    0.8215   -0.5678    0.4480 C   0  0  0  0  0  0  0  0  0  0  0  0
   -0.0208   -0.8675    1.6711 C   0  0  0  0  0  0  0  0  0  0  0  0
   -1.2893   -1.3155    1.2646 O   0  0  0  0  0  0  0  0  0  0  0  0
   -2.1543   -1.5850    2.3382 C   0  0  0  0  0  0  0  0  0  0  0  0
   -3.4823   -2.0561    1.7924 C   0  0  0  0  0  0  0  0  0  0  0  0
   -0.7428    0.3085   -0.7636 H   0  0  0  0  0  0  0  0  0  0  0  0
    0.1854    1.4857    0.1676 H   0  0  0  0  0  0  0  0  0  0  0  0
    1.8291   -0.3129    0.7880 H   0  0  0  0  0  0  0  0  0  0  0  0
    0.9092   -1.4816   -0.1455 H   0  0  0  0  0  0  0  0  0  0  0  0
   -0.1237    0.0378    2.2902 H   0  0  0  0  0  0  0  0  0  0  0  0
    0.4667   -1.6339    2.2914 H   0  0  0  0  0  0  0  0  0  0  0  0
   -1.7133   -2.3522    2.9919 H   0  0  0  0  0  0  0  0  0  0  0  0
   -2.2886   -0.6791    2.9476 H   0  0  0  0  0  0  0  0  0  0  0  0
   -3.3520   -2.9621    1.1994 H   0  0  0  0  0  0  0  0  0  0  0  0
   -4.1718   -2.2725    2.6099 H   0  0  0  0  0  0  0  0  0  0  0  0
   -3.9276   -1.2900    1.1567 H   0  0  0  0  0  0  0  0  0  0  0  0
  1  2  1  0
  1  4  1  0
  1  5  1  0
  1  6  1  0
  2  3  3  0
  7  8  1  0
  7 13  1  0
  7 14  1  0
  8  9  1  0
  8 15  1  0
  8 16  1  0
  9 10  1  0
  9 17  1  0
  9 18  1  0
 10 11  1  0
 11 12  1  0
 11 19  1  0
 11 20  1  0
 12 21  1  0
 12 22  1  0
 12 23  1  0
M  RAD  1   7   2
M  END
>  <reaction>  (5) 
rmg_rxn_240

>  <mol_properties>  (5) 
{"0": {"label": "*1", "atom_type": "Cs"}, "1": {"label": "*0", "atom_type": "Ct"}, "3": {"label": "*2", "atom_type": "H0"}, "6": {"label": "*3", "atom_type": "Cs"}, "7": {"label": "*4", "atom_type": "Cs"}}

>  <type>  (5) 
unop_1

>  <geom_source>  (5) 
Heuristics

$$$$

     RDKit          3D

 23 21  0  0  0  0  0  0  0  0999 V2000
    2.5758    2.2569   -0.2793 C   0  0  0  0  0  0  0  0  0  0  0  0
    2.5758    2.2569   -1.7339 C   0  0  0  0  0  0  0  0  0  0  0  0
    2.5758    2.2569   -2.8803 N   0  0  0  0  0  0  0  0  0  0  0  0
    1.6227    1.4811    0.1668 H   0  0  0  0  0  0  0  0  0  0  0  0
    3.5328    1.8924    0.0924 H   0  0  0  0  0  0  0  0  0  0  0  0
    2.4130    3.2680    0.0925 H   0  0  0  0  0  0  0  0  0  0  0  0
    0.6684    0.7042    0.6136 C   0  0  0  0  0  3  0  0  0  0  0  0
    0.3917   -0.4371   -0.3560 C   0  0  0  0  0  0  0  0  0  0  0  0
   -0.3587   -1.5897    0.2794 C   0  0  0  0  0  0  0  0  0  0  0  0
   -1.6254   -1.1469    0.6970 O   0  0  0  0  0  0  0  0  0  0  0  0
   -2.3818   -2.1455    1.3329 C   0  0  0  0  0  0  0  0  0  0  0  0
   -3.7167   -1.5658    1.7396 C   0  0  0  0  0  0  0  0  0  0  0  0
   -0.2632    1.1110    1.0069 H   0  0  0  0  0  0  0  0  0  0  0  0
    1.2682    0.3598    1.4597 H   0  0  0  0  0  0  0  0  0  0  0  0
    1.3317   -0.8276   -0.7557 H   0  0  0  0  0  0  0  0  0  0  0  0
   -0.1880   -0.0733   -1.2083 H   0  0  0  0  0  0  0  0  0  0  0  0
    0.2056   -1.9784    1.1419 H   0  0  0  0  0  0  0  0  0  0  0  0
   -0.4680   -2.4156   -0.4388 H   0  0  0  0  0  0  0  0  0  0  0  0
   -2.5242   -2.9985    0.6529 H   0  0  0  0  0  0  0  0  0  0  0  0
   -1.8410   -2.5210    2.2142 H   0  0  0  0  0  0  0  0  0  0  0  0
   -4.2595   -1.2058    0.8649 H   0  0  0  0  0  0  0  0  0  0  0  0
   -4.3231   -2.3250    2.2361 H   0  0  0  0  0  0  0  0  0  0  0  0
   -3.5772   -0.7300    2.4261 H   0  0  0  0  0  0  0  0  0  0  0  0
  1  2  1  0
  1  4  1  0
  1  5  1  0
  1  6  1  0
  2  3  3  0
  7  8  1  0
  7 13  1  0
  7 14  1  0
  8  9  1  0
  8 15  1  0
  8 16  1  0
  9 10  1  0
  9 17  1  0
  9 18  1  0
 10 11  1  0
 11 12  1  0
 11 19  1  0
 11 20  1  0
 12 21  1  0
 12 22  1  0
 12 23  1  0
M  RAD  1   7   2
M  END
>  <reaction>  (6) 
rmg_rxn_240

>  <mol_properties>  (6) 
{"0": {"label": "*1", "atom_type": "Cs"}, "1": {"label": "*0", "atom_type": "Ct"}, "3": {"label": "*2", "atom_type": "H0"}, "6": {"label": "*3", "atom_type": "Cs"}, "7": {"label": "*4", "atom_type": "Cs"}}

>  <type>  (6) 
unop_2

>  <geom_source>  (6) 
Heuristics

$$$$

     RDKit          3D

 23 21  0  0  0  0  0  0  0  0999 V2000
    2.2868    2.0701   -1.2328 C   0  0  0  0  0  0  0  0  0  0  0  0
    2.2868    2.0701   -2.6874 C   0  0  0  0  0  0  0  0  0  0  0  0
    2.2868    2.0701   -3.8339 N   0  0  0  0  0  0  0  0  0  0  0  0
    1.3338    1.2943   -0.7867 H   0  0  0  0  0  0  0  0  0  0  0  0
    3.2438    1.7056   -0.8611 H   0  0  0  0  0  0  0  0  0  0  0  0
    2.1240    3.0812   -0.8611 H   0  0  0  0  0  0  0  0  0  0  0  0
    0.3794    0.5174   -0.3400 C   0  0  0  0  0  3  0  0  0  0  0  0
    0.7540   -0.0938    1.0037 C   0  0  0  0  0  0  0  0  0  0  0  0
   -0.4469   -0.3905    1.8784 C   0  0  0  0  0  0  0  0  0  0  0  0
   -1.2549   -1.3529    1.2493 O   0  0  0  0  0  0  0  0  0  0  0  0
   -2.4159   -1.6653    1.9759 C   0  0  0  0  0  0  0  0  0  0  0  0
   -3.2077   -2.7025    1.2139 C   0  0  0  0  0  0  0  0  0  0  0  0
   -0.2650   -0.1565   -0.9044 H   0  0  0  0  0  0  0  0  0  0  0  0
   -0.1574    1.4595   -0.2034 H   0  0  0  0  0  0  0  0  0  0  0  0
    1.4122    0.5837    1.5548 H   0  0  0  0  0  0  0  0  0  0  0  0
    1.3106   -1.0221    0.8516 H   0  0  0  0  0  0  0  0  0  0  0  0
   -1.0261    0.5306    2.0504 H   0  0  0  0  0  0  0  0  0  0  0  0
   -0.1204   -0.7597    2.8618 H   0  0  0  0  0  0  0  0  0  0  0  0
   -2.1443   -2.0445    2.9722 H   0  0  0  0  0  0  0  0  0  0  0  0
   -3.0181   -0.7574    2.1284 H   0  0  0  0  0  0  0  0  0  0  0  0
   -2.6164   -3.6081    1.0743 H   0  0  0  0  0  0  0  0  0  0  0  0
   -4.1158   -2.9618    1.7606 H   0  0  0  0  0  0  0  0  0  0  0  0
   -3.4909   -2.3217    0.2320 H   0  0  0  0  0  0  0  0  0  0  0  0
  1  2  1  0
  1  4  1  0
  1  5  1  0
  1  6  1  0
  2  3  3  0
  7  8  1  0
  7 13  1  0
  7 14  1  0
  8  9  1  0
  8 15  1  0
  8 16  1  0
  9 10  1  0
  9 17  1  0
  9 18  1  0
 10 11  1  0
 11 12  1  0
 11 19  1  0
 11 20  1  0
 12 21  1  0
 12 22  1  0
 12 23  1  0
M  RAD  1   7   2
M  END
>  <reaction>  (7) 
rmg_rxn_240

>  <mol_properties>  (7) 
{"0": {"label": "*1", "atom_type": "Cs"}, "1": {"label": "*0", "atom_type": "Ct"}, "3": {"label": "*2", "atom_type": "H0"}, "6": {"label": "*3", "atom_type": "Cs"}, "7": {"label": "*4", "atom_type": "Cs"}}

>  <type>  (7) 
unop_3

>  <geom_source>  (7) 
Heuristics

$$$$

     RDKit          3D

 23 21  0  0  0  0  0  0  0  0999 V2000
    2.7004    0.6445   -1.1674 C   0  0  0  0  0  0  0  0  0  0  0  0
    2.7004    0.6445   -2.6221 C   0  0  0  0  0  0  0  0  0  0  0  0
    2.7004    0.6445   -3.7685 N   0  0  0  0  0  0  0  0  0  0  0  0
    1.7473   -0.1313   -0.7213 H   0  0  0  0  0  0  0  0  0  0  0  0
    3.6574    0.2800   -0.7957 H   0  0  0  0  0  0  0  0  0  0  0  0
    2.5376    1.6556   -0.7957 H   0  0  0  0  0  0  0  0  0  0  0  0
    0.7930   -0.9082   -0.2746 C   0  0  0  0  0  3  0  0  0  0  0  0
   -0.5714   -0.4323   -0.7554 C   0  0  0  0  0  0  0  0  0  0  0  0
   -1.6858   -0.7288    0.2272 C   0  0  0  0  0  0  0  0  0  0  0  0
   -1.4519   -0.0273    1.4223 O   0  0  0  0  0  0  0  0  0  0  0  0
   -2.4214   -0.2712    2.4092 C   0  0  0  0  0  0  0  0  0  0  0  0
   -2.0754    0.5266    3.6451 C   0  0  0  0  0  0  0  0  0  0  0  0
    1.0616   -0.4247    0.6646 H   0  0  0  0  0  0  0  0  0  0  0  0
    0.7924   -1.9883   -0.1082 H   0  0  0  0  0  0  0  0  0  0  0  0
   -0.8241   -0.9119   -1.7050 H   0  0  0  0  0  0  0  0  0  0  0  0
   -0.5493    0.6448   -0.9405 H   0  0  0  0  0  0  0  0  0  0  0  0
   -1.7325   -1.8105    0.4305 H   0  0  0  0  0  0  0  0  0  0  0  0
   -2.6567   -0.4338   -0.1970 H   0  0  0  0  0  0  0  0  0  0  0  0
   -3.4167    0.0115    2.0353 H   0  0  0  0  0  0  0  0  0  0  0  0
   -2.4566   -1.3456    2.6425 H   0  0  0  0  0  0  0  0  0  0  0  0
   -2.0538    1.5930    3.4179 H   0  0  0  0  0  0  0  0  0  0  0  0
   -2.8166    0.3532    4.4268 H   0  0  0  0  0  0  0  0  0  0  0  0
   -1.0955    0.2360    4.0255 H   0  0  0  0  0  0  0  0  0  0  0  0
  1  2  1  0
  1  4  1  0
  1  5  1  0
  1  6  1  0
  2  3  3  0
  7  8  1  0
  7 13  1  0
  7 14  1  0
  8  9  1  0
  8 15  1  0
  8 16  1  0
  9 10  1  0
  9 17  1  0
  9 18  1  0
 10 11  1  0
 11 12  1  0
 11 19  1  0
 11 20  1  0
 12 21  1  0
 12 22  1  0
 12 23  1  0
M  RAD  1   7   2
M  END
>  <reaction>  (8) 
rmg_rxn_240

>  <mol_properties>  (8) 
{"0": {"label": "*1", "atom_type": "Cs"}, "1": {"label": "*0", "atom_type": "Ct"}, "3": {"label": "*2", "atom_type": "H0"}, "6": {"label": "*3", "atom_type": "Cs"}, "7": {"label": "*4", "atom_type": "Cs"}}

>  <type>  (8) 
unop_4

>  <geom_source>  (8) 
Heuristics

$$$$

     RDKit          3D

 23 21  0  0  0  0  0  0  0  0999 V2000
    1.9323    2.3093   -1.2488 C   0  0  0  0  0  0  0  0  0  0  0  0
    1.9323    2.3093   -2.7035 C   0  0  0  0  0  0  0  0  0  0  0  0
    1.9323    2.3093   -3.8499 N   0  0  0  0  0  0  0  0  0  0  0  0
    0.9793    1.5334   -0.8027 H   0  0  0  0  0  0  0  0  0  0  0  0
    2.8893    1.9447   -0.8771 H   0  0  0  0  0  0  0  0  0  0  0  0
    1.7695    3.3203   -0.8771 H   0  0  0  0  0  0  0  0  0  0  0  0
    0.0249    0.7565   -0.3560 C   0  0  0  0  0  3  0  0  0  0  0  0
    0.0014    0.7373    1.1666 C   0  0  0  0  0  0  0  0  0  0  0  0
   -1.0927   -0.1437    1.7342 C   0  0  0  0  0  0  0  0  0  0  0  0
   -0.8619   -1.4766    1.3533 O   0  0  0  0  0  0  0  0  0  0  0  0
   -1.8514   -2.3642    1.8077 C   0  0  0  0  0  0  0  0  0  0  0  0
   -1.5082   -3.7610    1.3445 C   0  0  0  0  0  0  0  0  0  0  0  0
    0.1876   -0.2458   -0.7523 H   0  0  0  0  0  0  0  0  0  0  0  0
   -0.9228    1.1260   -0.7557 H   0  0  0  0  0  0  0  0  0  0  0  0
   -0.1473    1.7493    1.5534 H   0  0  0  0  0  0  0  0  0  0  0  0
    0.9628    0.3888    1.5524 H   0  0  0  0  0  0  0  0  0  0  0  0
   -2.0754    0.1875    1.3626 H   0  0  0  0  0  0  0  0  0  0  0  0
   -1.1146   -0.0654    2.8311 H   0  0  0  0  0  0  0  0  0  0  0  0
   -1.9128   -2.3274    2.9055 H   0  0  0  0  0  0  0  0  0  0  0  0
   -2.8344   -2.0606    1.4184 H   0  0  0  0  0  0  0  0  0  0  0  0
   -0.5399   -4.0681    1.7414 H   0  0  0  0  0  0  0  0  0  0  0  0
   -2.2641   -4.4694    1.6870 H   0  0  0  0  0  0  0  0  0  0  0  0
   -1.4624   -3.8021    0.2557 H   0  0  0  0  0  0  0  0  0  0  0  0
  1  2  1  0
  1  4  1  0
  1  5  1  0
  1  6  1  0
  2  3  3  0
  7  8  1  0
  7 13  1  0
  7 14  1  0
  8  9  1  0
  8 15  1  0
  8 16  1  0
  9 10  1  0
  9 17  1  0
  9 18  1  0
 10 11  1  0
 11 12  1  0
 11 19  1  0
 11 20  1  0
 12 21  1  0
 12 22  1  0
 12 23  1  0
M  RAD  1   7   2
M  END
>  <reaction>  (9) 
rmg_rxn_240

>  <mol_properties>  (9) 
{"0": {"label": "*1", "atom_type": "Cs"}, "1": {"label": "*0", "atom_type": "Ct"}, "3": {"label": "*2", "atom_type": "H0"}, "6": {"label": "*3", "atom_type": "Cs"}, "7": {"label": "*4", "atom_type": "Cs"}}

>  <type>  (9) 
unop_5

>  <geom_source>  (9) 
Heuristics

$$$$

     RDKit          3D

 23 21  0  0  0  0  0  0  0  0999 V2000
    2.1660    0.7509   -1.6903 C   0  0  0  0  0  0  0  0  0  0  0  0
    2.1660    0.7509   -3.1450 C   0  0  0  0  0  0  0  0  0  0  0  0
    2.1660    0.7509   -4.2914 N   0  0  0  0  0  0  0  0  0  0  0  0
    1.2130   -0.0249   -1.2442 H   0  0  0  0  0  0  0  0  0  0  0  0
    3.1230    0.3864   -1.3186 H   0  0  0  0  0  0  0  0  0  0  0  0
    2.0032    1.7620   -1.3186 H   0  0  0  0  0  0  0  0  0  0  0  0
    0.2586   -0.8018   -0.7975 C   0  0  0  0  0  3  0  0  0  0  0  0
   -1.0380   -0.0252   -0.6105 C   0  0  0  0  0  0  0  0  0  0  0  0
   -1.8033   -0.4343    0.6313 C   0  0  0  0  0  0  0  0  0  0  0  0
   -1.0329   -0.1432    1.7701 O   0  0  0  0  0  0  0  0  0  0  0  0
   -1.6521   -0.5235    2.9725 C   0  0  0  0  0  0  0  0  0  0  0  0
   -0.7433   -0.1682    4.1264 C   0  0  0  0  0  0  0  0  0  0  0  0
    0.9259   -0.6491    0.0507 H   0  0  0  0  0  0  0  0  0  0  0  0
    0.0622   -1.8736   -0.8815 H   0  0  0  0  0  0  0  0  0  0  0  0
   -1.6932   -0.1735   -1.4733 H   0  0  0  0  0  0  0  0  0  0  0  0
   -0.8287    1.0461   -0.5522 H   0  0  0  0  0  0  0  0  0  0  0  0
   -2.0302   -1.5117    0.5977 H   0  0  0  0  0  0  0  0  0  0  0  0
   -2.7632    0.1005    0.6811 H   0  0  0  0  0  0  0  0  0  0  0  0
   -2.6205   -0.0115    3.0741 H   0  0  0  0  0  0  0  0  0  0  0  0
   -1.8569   -1.6042    2.9630 H   0  0  0  0  0  0  0  0  0  0  0  0
   -0.5508    0.9051    4.1447 H   0  0  0  0  0  0  0  0  0  0  0  0
   -1.2046   -0.4544    5.0729 H   0  0  0  0  0  0  0  0  0  0  0  0
    0.2113   -0.6875    4.0348 H   0  0  0  0  0  0  0  0  0  0  0  0
  1  2  1  0
  1  4  1  0
  1  5  1  0
  1  6  1  0
  2  3  3  0
  7  8  1  0
  7 13  1  0
  7 14  1  0
  8  9  1  0
  8 15  1  0
  8 16  1  0
  9 10  1  0
  9 17  1  0
  9 18  1  0
 10 11  1  0
 11 12  1  0
 11 19  1  0
 11 20  1  0
 12 21  1  0
 12 22  1  0
 12 23  1  0
M  RAD  1   7   2
M  END
>  <reaction>  (10) 
rmg_rxn_240

>  <mol_properties>  (10) 
{"0": {"label": "*1", "atom_type": "Cs"}, "1": {"label": "*0", "atom_type": "Ct"}, "3": {"label": "*2", "atom_type": "H0"}, "6": {"label": "*3", "atom_type": "Cs"}, "7": {"label": "*4", "atom_type": "Cs"}}

>  <type>  (10) 
unop_6

>  <geom_source>  (10) 
Heuristics

$$$$

     RDKit          3D

 23 21  0  0  0  0  0  0  0  0999 V2000
    1.6404    1.2580   -1.9054 C   0  0  0  0  0  0  0  0  0  0  0  0
    1.6404    1.2580   -3.3601 C   0  0  0  0  0  0  0  0  0  0  0  0
    1.6404    1.2580   -4.5065 N   0  0  0  0  0  0  0  0  0  0  0  0
    0.6874    0.4822   -1.4593 H   0  0  0  0  0  0  0  0  0  0  0  0
    2.5974    0.8935   -1.5337 H   0  0  0  0  0  0  0  0  0  0  0  0
    1.4776    2.2691   -1.5337 H   0  0  0  0  0  0  0  0  0  0  0  0
   -0.2670   -0.2947   -1.0126 C   0  0  0  0  0  3  0  0  0  0  0  0
   -1.2554    0.4873   -0.1578 C   0  0  0  0  0  0  0  0  0  0  0  0
   -1.7310   -0.2824    1.0574 C   0  0  0  0  0  0  0  0  0  0  0  0
   -0.6381   -0.5405    1.9023 O   0  0  0  0  0  0  0  0  0  0  0  0
   -0.9810   -1.2847    3.0434 C   0  0  0  0  0  0  0  0  0  0  0  0
    0.2601   -1.5051    3.8769 C   0  0  0  0  0  0  0  0  0  0  0  0
    0.6201   -0.5559   -0.4357 H   0  0  0  0  0  0  0  0  0  0  0  0
   -0.7157   -1.2222   -1.3771 H   0  0  0  0  0  0  0  0  0  0  0  0
   -2.1342    0.7569   -0.7502 H   0  0  0  0  0  0  0  0  0  0  0  0
   -0.8017    1.4228    0.1796 H   0  0  0  0  0  0  0  0  0  0  0  0
   -2.1960   -1.2311    0.7456 H   0  0  0  0  0  0  0  0  0  0  0  0
   -2.4957    0.2940    1.5985 H   0  0  0  0  0  0  0  0  0  0  0  0
   -1.7448   -0.7482    3.6257 H   0  0  0  0  0  0  0  0  0  0  0  0
   -1.4196   -2.2482    2.7446 H   0  0  0  0  0  0  0  0  0  0  0  0
    0.6878   -0.5505    4.1853 H   0  0  0  0  0  0  0  0  0  0  0  0
    0.0176   -2.0818    4.7709 H   0  0  0  0  0  0  0  0  0  0  0  0
    1.0121   -2.0506    3.3057 H   0  0  0  0  0  0  0  0  0  0  0  0
  1  2  1  0
  1  4  1  0
  1  5  1  0
  1  6  1  0
  2  3  3  0
  7  8  1  0
  7 13  1  0
  7 14  1  0
  8  9  1  0
  8 15  1  0
  8 16  1  0
  9 10  1  0
  9 17  1  0
  9 18  1  0
 10 11  1  0
 11 12  1  0
 11 19  1  0
 11 20  1  0
 12 21  1  0
 12 22  1  0
 12 23  1  0
M  RAD  1   7   2
M  END
>  <reaction>  (11) 
rmg_rxn_240

>  <mol_properties>  (11) 
{"0": {"label": "*1", "atom_type": "Cs"}, "1": {"label": "*0", "atom_type": "Ct"}, "3": {"label": "*2", "atom_type": "H0"}, "6": {"label": "*3", "atom_type": "Cs"}, "7": {"label": "*4", "atom_type": "Cs"}}

>  <type>  (11) 
unop_7

>  <geom_source>  (11) 
Heuristics

$$$$

     RDKit          3D

 23 21  0  0  0  0  0  0  0  0999 V2000
    2.0649    2.3576   -1.0901 C   0  0  0  0  0  0  0  0  0  0  0  0
    2.0649    2.3576   -2.5447 C   0  0  0  0  0  0  0  0  0  0  0  0
    2.0649    2.3576   -3.6912 N   0  0  0  0  0  0  0  0  0  0  0  0
    1.1118    1.5818   -0.6440 H   0  0  0  0  0  0  0  0  0  0  0  0
    3.0219    1.9931   -0.7184 H   0  0  0  0  0  0  0  0  0  0  0  0
    1.9021    3.3687   -0.7184 H   0  0  0  0  0  0  0  0  0  0  0  0
    0.1575    0.8048   -0.1973 C   0  0  0  0  0  3  0  0  0  0  0  0
    0.6549   -0.6223   -0.0103 C   0  0  0  0  0  0  0  0  0  0  0  0
    0.1108   -1.2837    1.2395 C   0  0  0  0  0  0  0  0  0  0  0  0
   -1.2867   -1.3918    1.1383 O   0  0  0  0  0  0  0  0  0  0  0  0
   -1.8839   -1.9643    2.2738 C   0  0  0  0  0  0  0  0  0  0  0  0
   -3.3784   -2.0320    2.0610 C   0  0  0  0  0  0  0  0  0  0  0  0
   -0.9295    0.8278   -0.2742 H   0  0  0  0  0  0  0  0  0  0  0  0
    0.4476    1.4326    0.6489 H   0  0  0  0  0  0  0  0  0  0  0  0
    1.7467   -0.6353    0.0507 H   0  0  0  0  0  0  0  0  0  0  0  0
    0.3786   -1.2323   -0.8742 H   0  0  0  0  0  0  0  0  0  0  0  0
    0.3774   -0.6897    2.1280 H   0  0  0  0  0  0  0  0  0  0  0  0
    0.5559   -2.2813    1.3675 H   0  0  0  0  0  0  0  0  0  0  0  0
   -1.4741   -2.9706    2.4461 H   0  0  0  0  0  0  0  0  0  0  0  0
   -1.6491   -1.3625    3.1642 H   0  0  0  0  0  0  0  0  0  0  0  0
   -3.6127   -2.6399    1.1864 H   0  0  0  0  0  0  0  0  0  0  0  0
   -3.8646   -2.4748    2.9317 H   0  0  0  0  0  0  0  0  0  0  0  0
   -3.7879   -1.0333    1.9056 H   0  0  0  0  0  0  0  0  0  0  0  0
  1  2  1  0
  1  4  1  0
  1  5  1  0
  1  6  1  0
  2  3  3  0
  7  8  1  0
  7 13  1  0
  7 14  1  0
  8  9  1  0
  8 15  1  0
  8 16  1  0
  9 10  1  0
  9 17  1  0
  9 18  1  0
 10 11  1  0
 11 12  1  0
 11 19  1  0
 11 20  1  0
 12 21  1  0
 12 22  1  0
 12 23  1  0
M  RAD  1   7   2
M  END
>  <reaction>  (12) 
rmg_rxn_240

>  <mol_properties>  (12) 
{"0": {"label": "*1", "atom_type": "Cs"}, "1": {"label": "*0", "atom_type": "Ct"}, "3": {"label": "*2", "atom_type": "H0"}, "6": {"label": "*3", "atom_type": "Cs"}, "7": {"label": "*4", "atom_type": "Cs"}}

>  <type>  (12) 
unop_8

>  <geom_source>  (12) 
Heuristics

$$$$

     RDKit          3D

 23 21  0  0  0  0  0  0  0  0999 V2000
    3.0110    0.9967   -0.5730 C   0  0  0  0  0  0  0  0  0  0  0  0
    3.0110    0.9967   -2.0277 C   0  0  0  0  0  0  0  0  0  0  0  0
    3.0110    0.9967   -3.1741 N   0  0  0  0  0  0  0  0  0  0  0  0
    2.0580    0.2208   -0.1269 H   0  0  0  0  0  0  0  0  0  0  0  0
    3.9681    0.6322   -0.2013 H   0  0  0  0  0  0  0  0  0  0  0  0
    2.8483    2.0077   -0.2013 H   0  0  0  0  0  0  0  0  0  0  0  0
    1.1037   -0.5561    0.3198 C   0  0  0  0  0  3  0  0  0  0  0  0
   -0.0700   -0.5955   -0.6498 C   0  0  0  0  0  0  0  0  0  0  0  0
   -1.3472   -1.1105   -0.0183 C   0  0  0  0  0  0  0  0  0  0  0  0
   -1.7460   -0.2350    1.0062 O   0  0  0  0  0  0  0  0  0  0  0  0
   -2.9082   -0.6542    1.6749 C   0  0  0  0  0  0  0  0  0  0  0  0
   -3.2457    0.3521    2.7505 C   0  0  0  0  0  0  0  0  0  0  0  0
    0.8837    0.0948    1.1659 H   0  0  0  0  0  0  0  0  0  0  0  0
    1.3198   -1.5535    0.7106 H   0  0  0  0  0  0  0  0  0  0  0  0
    0.1670   -1.2390   -1.5016 H   0  0  0  0  0  0  0  0  0  0  0  0
   -0.2593    0.4036   -1.0507 H   0  0  0  0  0  0  0  0  0  0  0  0
   -1.1853   -2.1195    0.3929 H   0  0  0  0  0  0  0  0  0  0  0  0
   -2.1418   -1.1893   -0.7747 H   0  0  0  0  0  0  0  0  0  0  0  0
   -3.7396   -0.7464    0.9602 H   0  0  0  0  0  0  0  0  0  0  0  0
   -2.7487   -1.6493    2.1157 H   0  0  0  0  0  0  0  0  0  0  0  0
   -3.4176    1.3361    2.3129 H   0  0  0  0  0  0  0  0  0  0  0  0
   -4.1473    0.0472    3.2841 H   0  0  0  0  0  0  0  0  0  0  0  0
   -2.4285    0.4328    3.4682 H   0  0  0  0  0  0  0  0  0  0  0  0
  1  2  1  0
  1  4  1  0
  1  5  1  0
  1  6  1  0
  2  3  3  0
  7  8  1  0
  7 13  1  0
  7 14  1  0
  8  9  1  0
  8 15  1  0
  8 16  1  0
  9 10  1  0
  9 17  1  0
  9 18  1  0
 10 11  1  0
 11 12  1  0
 11 19  1  0
 11 20  1  0
 12 21  1  0
 12 22  1  0
 12 23  1  0
M  RAD  1   7   2
M  END
>  <reaction>  (13) 
rmg_rxn_240

>  <mol_properties>  (13) 
{"0": {"label": "*1", "atom_type": "Cs"}, "1": {"label": "*0", "atom_type": "Ct"}, "3": {"label": "*2", "atom_type": "H0"}, "6": {"label": "*3", "atom_type": "Cs"}, "7": {"label": "*4", "atom_type": "Cs"}}

>  <type>  (13) 
unop_9

>  <geom_source>  (13) 
Heuristics

$$$$

     RDKit          3D

 23 21  0  0  0  0  0  0  0  0999 V2000
    2.2060    2.4820   -0.6693 C   0  0  0  0  0  0  0  0  0  0  0  0
    2.2060    2.4820   -2.1239 C   0  0  0  0  0  0  0  0  0  0  0  0
    2.2060    2.4820   -3.2704 N   0  0  0  0  0  0  0  0  0  0  0  0
    1.2529    1.7062   -0.2232 H   0  0  0  0  0  0  0  0  0  0  0  0
    3.1630    2.1175   -0.2976 H   0  0  0  0  0  0  0  0  0  0  0  0
    2.0432    3.4931   -0.2976 H   0  0  0  0  0  0  0  0  0  0  0  0
    0.2986    0.9293    0.2235 C   0  0  0  0  0  3  0  0  0  0  0  0
    0.4879   -0.5033   -0.2572 C   0  0  0  0  0  0  0  0  0  0  0  0
   -0.0151   -1.5348    0.7319 C   0  0  0  0  0  0  0  0  0  0  0  0
   -1.4023   -1.3830    0.8980 O   0  0  0  0  0  0  0  0  0  0  0  0
   -1.9523   -2.2795    1.8294 C   0  0  0  0  0  0  0  0  0  0  0  0
   -3.4393   -2.0308    1.9311 C   0  0  0  0  0  0  0  0  0  0  0  0
   -0.7564    1.1427    0.3950 H   0  0  0  0  0  0  0  0  0  0  0  0
    0.8325    1.0991    1.1619 H   0  0  0  0  0  0  0  0  0  0  0  0
    1.5475   -0.7019   -0.4404 H   0  0  0  0  0  0  0  0  0  0  0  0
   -0.0311   -0.6518   -1.2077 H   0  0  0  0  0  0  0  0  0  0  0  0
    0.4943   -1.4094    1.7005 H   0  0  0  0  0  0  0  0  0  0  0  0
    0.2109   -2.5495    0.3726 H   0  0  0  0  0  0  0  0  0  0  0  0
   -1.7563   -3.3151    1.5142 H   0  0  0  0  0  0  0  0  0  0  0  0
   -1.4717   -2.1432    2.8095 H   0  0  0  0  0  0  0  0  0  0  0  0
   -3.9187   -2.1792    0.9629 H   0  0  0  0  0  0  0  0  0  0  0  0
   -3.8892   -2.7174    2.6500 H   0  0  0  0  0  0  0  0  0  0  0  0
   -3.6344   -1.0090    2.2586 H   0  0  0  0  0  0  0  0  0  0  0  0
  1  2  1  0
  1  4  1  0
  1  5  1  0
  1  6  1  0
  2  3  3  0
  7  8  1  0
  7 13  1  0
  7 14  1  0
  8  9  1  0
  8 15  1  0
  8 16  1  0
  9 10  1  0
  9 17  1  0
  9 18  1  0
 10 11  1  0
 11 12  1  0
 11 19  1  0
 11 20  1  0
 12 21  1  0
 12 22  1  0
 12 23  1  0
M  RAD  1   7   2
M  END
>  <reaction>  (14) 
rmg_rxn_240

>  <mol_properties>  (14) 
{"0": {"label": "*1", "atom_type": "Cs"}, "1": {"label": "*0", "atom_type": "Ct"}, "3": {"label": "*2", "atom_type": "H0"}, "6": {"label": "*3", "atom_type": "Cs"}, "7": {"label": "*4", "atom_type": "Cs"}}

>  <type>  (14) 
unop_10

>  <geom_source>  (14) 
Heuristics

$$$$

     RDKit          3D

 23 21  0  0  0  0  0  0  0  0999 V2000
    1.4545    1.9654   -1.6892 C   0  0  0  0  0  0  0  0  0  0  0  0
    1.4545    1.9654   -3.1438 C   0  0  0  0  0  0  0  0  0  0  0  0
    1.4545    1.9654   -4.2902 N   0  0  0  0  0  0  0  0  0  0  0  0
    0.5015    1.1896   -1.2431 H   0  0  0  0  0  0  0  0  0  0  0  0
    2.4115    1.6009   -1.3175 H   0  0  0  0  0  0  0  0  0  0  0  0
    1.2917    2.9765   -1.3174 H   0  0  0  0  0  0  0  0  0  0  0  0
   -0.4529    0.4127   -0.7963 C   0  0  0  0  0  3  0  0  0  0  0  0
   -0.9753    0.9034    0.5473 C   0  0  0  0  0  0  0  0  0  0  0  0
   -1.5231   -0.2103    1.4161 C   0  0  0  0  0  0  0  0  0  0  0  0
   -0.4884   -1.1081    1.7297 O   0  0  0  0  0  0  0  0  0  0  0  0
   -0.9143   -2.1979    2.5071 C   0  0  0  0  0  0  0  0  0  0  0  0
    0.2694   -3.0956    2.7842 C   0  0  0  0  0  0  0  0  0  0  0  0
    0.3540   -0.3068   -0.6574 H   0  0  0  0  0  0  0  0  0  0  0  0
   -1.2455   -0.0776   -1.3671 H   0  0  0  0  0  0  0  0  0  0  0  0
   -1.7736    1.6354    0.3961 H   0  0  0  0  0  0  0  0  0  0  0  0
   -0.1789    1.4123    1.0965 H   0  0  0  0  0  0  0  0  0  0  0  0
   -2.3312   -0.7399    0.8868 H   0  0  0  0  0  0  0  0  0  0  0  0
   -1.9536    0.2033    2.3398 H   0  0  0  0  0  0  0  0  0  0  0  0
   -1.3526   -1.8378    3.4497 H   0  0  0  0  0  0  0  0  0  0  0  0
   -1.7014   -2.7527    1.9754 H   0  0  0  0  0  0  0  0  0  0  0  0
    1.0446   -2.5502    3.3236 H   0  0  0  0  0  0  0  0  0  0  0  0
   -0.0378   -3.9506    3.3885 H   0  0  0  0  0  0  0  0  0  0  0  0
    0.6951   -3.4656    1.8509 H   0  0  0  0  0  0  0  0  0  0  0  0
  1  2  1  0
  1  4  1  0
  1  5  1  0
  1  6  1  0
  2  3  3  0
  7  8  1  0
  7 13  1  0
  7 14  1  0
  8  9  1  0
  8 15  1  0
  8 16  1  0
  9 10  1  0
  9 17  1  0
  9 18  1  0
 10 11  1  0
 11 12  1  0
 11 19  1  0
 11 20  1  0
 12 21  1  0
 12 22  1  0
 12 23  1  0
M  RAD  1   7   2
M  END
>  <reaction>  (15) 
rmg_rxn_240

>  <mol_properties>  (15) 
{"0": {"label": "*1", "atom_type": "Cs"}, "1": {"label": "*0", "atom_type": "Ct"}, "3": {"label": "*2", "atom_type": "H0"}, "6": {"label": "*3", "atom_type": "Cs"}, "7": {"label": "*4", "atom_type": "Cs"}}

>  <type>  (15) 
unop_11

>  <geom_source>  (15) 
Heuristics

$$$$

     RDKit          3D

 23 21  0  0  0  0  0  0  0  0999 V2000
    2.9455    1.6616   -0.2108 C   0  0  0  0  0  0  0  0  0  0  0  0
    2.9455    1.6616   -1.6654 C   0  0  0  0  0  0  0  0  0  0  0  0
    2.9455    1.6616   -2.8118 N   0  0  0  0  0  0  0  0  0  0  0  0
    1.9924    0.8858    0.2353 H   0  0  0  0  0  0  0  0  0  0  0  0
    3.9025    1.2971    0.1609 H   0  0  0  0  0  0  0  0  0  0  0  0
    2.7827    2.6727    0.1609 H   0  0  0  0  0  0  0  0  0  0  0  0
    1.0381    0.1089    0.6821 C   0  0  0  0  0  3  0  0  0  0  0  0
    0.2625   -0.5225   -0.4665 C   0  0  0  0  0  0  0  0  0  0  0  0
   -0.8508   -1.4385   -0.0008 C   0  0  0  0  0  0  0  0  0  0  0  0
   -1.8000   -0.6904    0.7163 O   0  0  0  0  0  0  0  0  0  0  0  0
   -2.8562   -1.4682    1.2194 C   0  0  0  0  0  0  0  0  0  0  0  0
   -3.8127   -0.5706    1.9697 C   0  0  0  0  0  0  0  0  0  0  0  0
    0.3783    0.7064    1.3110 H   0  0  0  0  0  0  0  0  0  0  0  0
    1.4971   -0.6584    1.3105 H   0  0  0  0  0  0  0  0  0  0  0  0
    0.9363   -1.1070   -1.0991 H   0  0  0  0  0  0  0  0  0  0  0  0
   -0.1705    0.2562   -1.0997 H   0  0  0  0  0  0  0  0  0  0  0  0
   -0.4412   -2.2362    0.6389 H   0  0  0  0  0  0  0  0  0  0  0  0
   -1.3301   -1.9248   -0.8631 H   0  0  0  0  0  0  0  0  0  0  0  0
   -3.3744   -1.9768    0.3929 H   0  0  0  0  0  0  0  0  0  0  0  0
   -2.4616   -2.2507    1.8842 H   0  0  0  0  0  0  0  0  0  0  0  0
   -4.2150    0.1972    1.3079 H   0  0  0  0  0  0  0  0  0  0  0  0
   -4.6435   -1.1539    2.3699 H   0  0  0  0  0  0  0  0  0  0  0  0
   -3.3037   -0.0779    2.7989 H   0  0  0  0  0  0  0  0  0  0  0  0
  1  2  1  0
  1  4  1  0
  1  5  1  0
  1  6  1  0
  2  3  3  0
  7  8  1  0
  7 13  1  0
  7 14  1  0
  8  9  1  0
  8 15  1  0
  8 16  1  0
  9 10  1  0
  9 17  1  0
  9 18  1  0
 10 11  1  0
 11 12  1  0
 11 19  1  0
 11 20  1  0
 12 21  1  0
 12 22  1  0
 12 23  1  0
M  RAD  1   7   2
M  END
>  <reaction>  (16) 
rmg_rxn_240

>  <mol_properties>  (16) 
{"0": {"label": "*1", "atom_type": "Cs"}, "1": {"label": "*0", "atom_type": "Ct"}, "3": {"label": "*2", "atom_type": "H0"}, "6": {"label": "*3", "atom_type": "Cs"}, "7": {"label": "*4", "atom_type": "Cs"}}

>  <type>  (16) 
unop_12

>  <geom_source>  (16) 
Heuristics

$$$$

     RDKit          3D

 23 21  0  0  0  0  0  0  0  0999 V2000
   -1.8845   -0.8860    0.3007 O   0  0  0  0  0  0  0  0  0  0  0  0
    2.7367    3.0672   -0.9646 N   0  0  0  0  0  2  0  0  0  0  0  0
    0.3605   -1.6112   -0.1083 C   0  0  0  0  0  0  0  0  0  0  0  0
   -0.7061   -0.5596   -0.4067 C   0  0  0  0  0  0  0  0  0  0  0  0
   -2.8528    0.1357    0.1522 C   0  0  0  0  0  0  0  0  0  0  0  0
    1.6570   -1.3110   -0.8531 C   0  0  0  0  0  0  0  0  0  0  0  0
   -2.8163    1.0759    1.3517 C   0  0  0  0  0  0  0  0  0  0  0  0
    3.1524    0.6592   -0.0188 C   0  0  0  0  0  0  0  0  0  0  0  0
    2.9203    2.0038   -0.5469 C   0  0  0  0  0  0  0  0  0  0  0  0
    0.5665   -1.6282    0.9838 H   0  0  0  0  0  0  0  0  0  0  0  0
   -0.0112   -2.6138   -0.4126 H   0  0  0  0  0  0  0  0  0  0  0  0
   -0.3195    0.4385   -0.0967 H   0  0  0  0  0  0  0  0  0  0  0  0
   -0.9085   -0.5558   -1.5023 H   0  0  0  0  0  0  0  0  0  0  0  0
   -2.7512    0.7202   -0.7933 H   0  0  0  0  0  0  0  0  0  0  0  0
   -3.8540   -0.3436    0.1192 H   0  0  0  0  0  0  0  0  0  0  0  0
    2.4136   -2.0868   -0.6110 H   0  0  0  0  0  0  0  0  0  0  0  0
    1.4823   -1.3143   -1.9502 H   0  0  0  0  0  0  0  0  0  0  0  0
    2.1208   -0.1481   -0.4935 H   0  0  0  0  0  0  0  0  0  0  0  0
   -3.6288    1.8276    1.2626 H   0  0  0  0  0  0  0  0  0  0  0  0
   -1.8428    1.6072    1.3969 H   0  0  0  0  0  0  0  0  0  0  0  0
   -2.9607    0.5002    2.2904 H   0  0  0  0  0  0  0  0  0  0  0  0
    4.2174    0.3837   -0.1629 H   0  0  0  0  0  0  0  0  0  0  0  0
    2.9085    0.6393    1.0633 H   0  0  0  0  0  0  0  0  0  0  0  0
  1  5  1  0
  1  4  1  0
  2  9  2  0
  3  6  1  0
  3  4  1  0
  3 10  1  0
  3 11  1  0
  4 12  1  0
  4 13  1  0
  5  7  1  0
  5 14  1  0
  5 15  1  0
  6 16  1  0
  6 17  1  0
  6 18  1  0
  7 19  1  0
  7 20  1  0
  7 21  1  0
  8  9  2  0
  8 22  1  0
  8 23  1  0
M  RAD  1   2   2
M  END
>  <reaction>  (17) 
rmg_rxn_240

>  <mol_properties>  (17) 
{"0": {"label": "*1", "atom_type": "Cs"}, "1": {"label": "*0", "atom_type": "Ct"}, "3": {"label": "*2", "atom_type": "H0"}, "6": {"label": "*3", "atom_type": "Cs"}, "7": {"label": "*4", "atom_type": "Cs"}}

>  <type>  (17) 
unop_13

>  <geom_source>  (17) 
AutoTST

$$$$

     RDKit          3D

 23 21  0  0  0  0  0  0  0  0999 V2000
    2.5758    2.2569   -0.2792 C   0  0  0  0  0  0  0  0  0  0  0  0
    2.5758    2.2569   -1.7339 C   0  0  0  0  0  0  0  0  0  0  0  0
    2.5758    2.2569   -2.8803 N   0  0  0  0  0  0  0  0  0  0  0  0
    1.6227    1.4811    0.1668 H   0  0  0  0  0  0  0  0  0  0  0  0
    3.5328    1.8924    0.0925 H   0  0  0  0  0  0  0  0  0  0  0  0
    2.4130    3.2680    0.0925 H   0  0  0  0  0  0  0  0  0  0  0  0
    0.6684    0.7042    0.6136 C   0  0  0  0  0  3  0  0  0  0  0  0
    0.3917   -0.4371   -0.3560 C   0  0  0  0  0  0  0  0  0  0  0  0
   -0.3587   -1.5897    0.2794 C   0  0  0  0  0  0  0  0  0  0  0  0
   -1.6254   -1.1469    0.6970 O   0  0  0  0  0  0  0  0  0  0  0  0
   -2.3818   -2.1454    1.3329 C   0  0  0  0  0  0  0  0  0  0  0  0
   -3.7167   -1.5658    1.7396 C   0  0  0  0  0  0  0  0  0  0  0  0
   -0.2632    1.1110    1.0069 H   0  0  0  0  0  0  0  0  0  0  0  0
    1.2683    0.3598    1.4597 H   0  0  0  0  0  0  0  0  0  0  0  0
    1.3317   -0.8276   -0.7557 H   0  0  0  0  0  0  0  0  0  0  0  0
   -0.1880   -0.0733   -1.2083 H   0  0  0  0  0  0  0  0  0  0  0  0
    0.2056   -1.9784    1.1419 H   0  0  0  0  0  0  0  0  0  0  0  0
   -0.4680   -2.4156   -0.4388 H   0  0  0  0  0  0  0  0  0  0  0  0
   -2.5242   -2.9985    0.6529 H   0  0  0  0  0  0  0  0  0  0  0  0
   -1.8411   -2.5210    2.2142 H   0  0  0  0  0  0  0  0  0  0  0  0
   -4.2595   -1.2058    0.8649 H   0  0  0  0  0  0  0  0  0  0  0  0
   -4.3231   -2.3251    2.2361 H   0  0  0  0  0  0  0  0  0  0  0  0
   -3.5772   -0.7300    2.4261 H   0  0  0  0  0  0  0  0  0  0  0  0
  1  2  1  0
  1  4  1  0
  1  5  1  0
  1  6  1  0
  2  3  3  0
  7  8  1  0
  7 13  1  0
  7 14  1  0
  8  9  1  0
  8 15  1  0
  8 16  1  0
  9 10  1  0
  9 17  1  0
  9 18  1  0
 10 11  1  0
 11 12  1  0
 11 19  1  0
 11 20  1  0
 12 21  1  0
 12 22  1  0
 12 23  1  0
M  RAD  1   7   2
M  END
>  <reaction>  (18) 
rmg_rxn_240

>  <mol_properties>  (18) 
{"0": {"label": "*1", "atom_type": "Cs"}, "1": {"label": "*0", "atom_type": "Ct"}, "3": {"label": "*2", "atom_type": "H0"}, "6": {"label": "*3", "atom_type": "Cs"}, "7": {"label": "*4", "atom_type": "Cs"}}

>  <type>  (18) 
unop_14

>  <geom_source>  (18) 
gaussian_log

$$$$
