
     RDKit          3D

  6  5  0  0  0  0  0  0  0  0999 V2000
   -0.4901    0.0045    0.0014 C   0  0  0  0  0  0  0  0  0  0  0  0
    0.9645   -0.0089   -0.0027 C   0  0  0  0  0  0  0  0  0  0  0  0
    2.1108   -0.0195   -0.0059 N   0  0  0  0  0  0  0  0  0  0  0  0
   -0.8700   -0.6407   -0.7900 H   0  0  0  0  0  0  0  0  0  0  0  0
   -0.8625   -0.3540    0.9604 H   0  0  0  0  0  0  0  0  0  0  0  0
   -0.8530    1.0185   -0.1631 H   0  0  0  0  0  0  0  0  0  0  0  0
  1  2  1  0
  1  4  1  0
  1  5  1  0
  1  6  1  0
  2  3  3  0
M  END
>  <reaction>  (1) 
rmg_rxn_15412

>  <mol_properties>  (1) 
{"0": {"label": "donator", "atom_type": "Cs"}, "3": {"label": "d_hydrogen", "atom_type": "H0"}}

>  <type>  (1) 
r1h

$$$$

     RDKit          3D

  5  4  0  0  0  0  0  0  0  0999 V2000
    0.8934    0.3742    0.4948 O   0  0  0  0  0  0  0  0  0  0  0  0
    0.1582   -0.1610   -0.5904 N   0  0  0  0  0  0  0  0  0  0  0  0
   -1.0297   -0.3739   -0.4689 C   0  0  0  0  0  3  0  0  0  0  0  0
    1.7804    0.4382    0.1306 H   0  0  0  0  0  0  0  0  0  0  0  0
   -1.8023   -0.2775    0.2859 H   0  0  0  0  0  0  0  0  0  0  0  0
  1  2  1  0
  1  4  1  0
  2  3  2  3
  3  5  1  0
M  RAD  1   3   2
M  END
>  <reaction>  (2) 
rmg_rxn_15412

>  <mol_properties>  (2) 
{"2": {"label": "acceptor", "atom_type": "Cd"}}

>  <type>  (2) 
r2

$$$$

     RDKit          3D

  6  5  0  0  0  0  0  0  0  0999 V2000
    1.2314    0.0428    0.5088 O   0  0  0  0  0  0  0  0  0  0  0  0
    0.2987    0.2341   -0.4915 N   0  0  0  0  0  0  0  0  0  0  0  0
   -0.8599   -0.1122   -0.1290 C   0  0  0  0  0  0  0  0  0  0  0  0
    2.0507    0.3401    0.1082 H   0  0  0  0  0  0  0  0  0  0  0  0
   -1.0700   -0.5112    0.8610 H   0  0  0  0  0  0  0  0  0  0  0  0
   -1.6509    0.0064   -0.8574 H   0  0  0  0  0  0  0  0  0  0  0  0
  1  2  1  0
  1  4  1  0
  2  3  2  3
  3  5  1  0
  3  6  1  0
M  END
>  <reaction>  (3) 
rmg_rxn_15412

>  <mol_properties>  (3) 
{"2": {"label": "acceptor", "atom_type": "Cd"}, "5": {"label": "a_hydrogen", "atom_type": "H0"}}

>  <type>  (3) 
r2h

$$$$

     RDKit          3D

 11  9  0  0  0  0  0  0  0  0999 V2000
   -2.0670   -1.8607    1.4111 O   0  0  0  0  0  0  0  0  0  0  0  0
   -0.8261   -1.2998    1.1301 N   0  0  0  0  0  0  0  0  0  0  0  0
   -0.8640   -0.2040    0.5534 C   0  0  0  0  0  3  0  0  0  0  0  0
   -1.8386   -2.6853    1.8474 H   0  0  0  0  0  0  0  0  0  0  0  0
   -1.7114    0.3968    0.2278 H   0  0  0  0  0  0  0  0  0  0  0  0
    1.5912    0.7533    0.0777 C   0  0  0  0  0  0  0  0  0  0  0  0
    1.4682    2.0140   -0.5868 C   0  0  0  0  0  0  0  0  0  0  0  0
    1.3165    3.0223   -1.1188 N   0  0  0  0  0  0  0  0  0  0  0  0
    0.4021    0.3211    0.2915 H   0  0  0  0  0  0  0  0  0  0  0  0
    2.0512   -0.0174   -0.5349 H   0  0  0  0  0  0  0  0  0  0  0  0
    2.0331    0.8255    1.0677 H   0  0  0  0  0  0  0  0  0  0  0  0
  1  2  1  0
  1  4  1  0
  2  3  2  3
  3  5  1  0
  6  7  1  0
  6  9  1  0
  6 10  1  0
  6 11  1  0
  7  8  3  0
M  RAD  1   3   2
M  END
>  <reaction>  (4) 
rmg_rxn_15412

>  <mol_properties>  (4) 
{"1": {"label": "*4", "atom_type": "N3d"}, "2": {"label": "*3", "atom_type": "Cd"}, "5": {"label": "*1", "atom_type": "Cs"}, "6": {"label": "*0", "atom_type": "Ct"}, "8": {"label": "*2", "atom_type": "H0"}}

>  <type>  (4) 
ts

$$$$

     RDKit          3D

 11  9  0  0  0  0  0  0  0  0999 V2000
   -3.1852    0.2511   -0.0002 O   0  0  0  0  0  0  0  0  0  0  0  0
   -1.8959   -0.2739    0.0001 N   0  0  0  0  0  0  0  0  0  0  0  0
   -0.8917    0.4429    0.0003 C   0  0  0  0  0  0  0  0  0  0  0  0
   -3.7700   -0.5209   -0.0003 H   0  0  0  0  0  0  0  0  0  0  0  0
   -0.7678    1.5170    0.0003 H   0  0  0  0  0  0  0  0  0  0  0  0
    1.3145   -0.9728   -0.0000 C   0  0  0  0  0  0  0  0  0  0  0  0
    2.3931   -0.0820    0.0001 C   0  0  0  0  0  0  0  0  0  0  0  0
    3.2547    0.6819   -0.0002 N   0  0  0  0  0  2  0  0  0  0  0  0
    0.2079   -0.2374    0.0000 H   0  0  0  0  0  0  0  0  0  0  0  0
    1.2257   -1.5612   -0.9061 H   0  0  0  0  0  0  0  0  0  0  0  0
    1.2255   -1.5610    0.9060 H   0  0  0  0  0  0  0  0  0  0  0  0
  1  2  1  0
  1  4  1  0
  2  3  2  3
  3  5  1  0
  3  9  1  0
  6  7  2  0
  6 10  1  0
  6 11  1  0
  7  8  2  0
M  RAD  1   8   2
M  END
>  <reaction>  (5) 
rmg_rxn_15412

>  <mol_properties>  (5) 
{"1": {"label": "*4", "atom_type": "N3d"}, "2": {"label": "*3", "atom_type": "Cd"}, "5": {"label": "*1", "atom_type": "Cs"}, "6": {"label": "*0", "atom_type": "Ct"}, "8": {"label": "*2", "atom_type": "H0"}}

>  <type>  (5) 
unop_1

>  <geom_source>  (5) 
crest_best.xyz

$$$$

     RDKit          3D

 11  9  0  0  0  0  0  0  0  0999 V2000
   -1.3468   -1.4883    2.3740 O   0  0  0  0  0  0  0  0  0  0  0  0
   -0.5176   -1.3284    1.2814 N   0  0  0  0  0  0  0  0  0  0  0  0
   -0.8722   -0.3565    0.5580 C   0  0  0  0  0  0  0  0  0  0  0  0
   -0.9716   -2.2451    2.8286 H   0  0  0  0  0  0  0  0  0  0  0  0
   -1.7339    0.2651    0.7919 H   0  0  0  0  0  0  0  0  0  0  0  0
    1.0272    1.1897   -0.3310 C   0  0  0  0  0  0  0  0  0  0  0  0
    1.0272    1.1897   -1.7857 C   0  0  0  0  0  0  0  0  0  0  0  0
    1.0272    1.1897   -2.9321 N   0  0  0  0  0  2  0  0  0  0  0  0
    0.0742    0.4139    0.1151 H   0  0  0  0  0  0  0  0  0  0  0  0
    1.9842    0.8252    0.0407 H   0  0  0  0  0  0  0  0  0  0  0  0
    0.8644    2.2008    0.0407 H   0  0  0  0  0  0  0  0  0  0  0  0
  1  2  1  0
  1  4  1  0
  2  3  2  3
  3  5  1  0
  3  9  1  0
  6  7  2  0
  6 10  1  0
  6 11  1  0
  7  8  2  0
M  RAD  1   8   2
M  END
>  <reaction>  (6) 
rmg_rxn_15412

>  <mol_properties>  (6) 
{"1": {"label": "*4", "atom_type": "N3d"}, "2": {"label": "*3", "atom_type": "Cd"}, "5": {"label": "*1", "atom_type": "Cs"}, "6": {"label": "*0", "atom_type": "Ct"}, "8": {"label": "*2", "atom_type": "H0"}}

>  <type>  (6) 
unop_2

>  <geom_source>  (6) 
Heuristics

$$$$

     RDKit          3D

 11  9  0  0  0  0  0  0  0  0999 V2000
    3.1850    0.2503    0.0075 O   0  0  0  0  0  0  0  0  0  0  0  0
    1.8953   -0.2732    0.0070 N   0  0  0  0  0  0  0  0  0  0  0  0
    0.8918    0.4438   -0.0222 C   0  0  0  0  0  0  0  0  0  0  0  0
    3.7690   -0.5220    0.0340 H   0  0  0  0  0  0  0  0  0  0  0  0
    0.7681    1.5175   -0.0508 H   0  0  0  0  0  0  0  0  0  0  0  0
   -1.3140   -0.9726   -0.0071 C   0  0  0  0  0  0  0  0  0  0  0  0
   -2.3929   -0.0823    0.0027 C   0  0  0  0  0  0  0  0  0  0  0  0
   -3.2547    0.6814    0.0108 N   0  0  0  0  0  2  0  0  0  0  0  0
   -0.2078   -0.2368   -0.0153 H   0  0  0  0  0  0  0  0  0  0  0  0
   -1.2175   -1.5619    0.8976 H   0  0  0  0  0  0  0  0  0  0  0  0
   -1.2326   -1.5603   -0.9142 H   0  0  0  0  0  0  0  0  0  0  0  0
  1  2  1  0
  1  4  1  0
  2  3  2  3
  3  5  1  0
  3  9  1  0
  6  7  2  0
  6 10  1  0
  6 11  1  0
  7  8  2  0
M  RAD  1   8   2
M  END
>  <reaction>  (7) 
rmg_rxn_15412

>  <mol_properties>  (7) 
{"1": {"label": "*4", "atom_type": "N3d"}, "2": {"label": "*3", "atom_type": "Cd"}, "5": {"label": "*1", "atom_type": "Cs"}, "6": {"label": "*0", "atom_type": "Ct"}, "8": {"label": "*2", "atom_type": "H0"}}

>  <type>  (7) 
unop_3

>  <geom_source>  (7) 
Heuristics

$$$$

     RDKit          3D

 11  9  0  0  0  0  0  0  0  0999 V2000
   -1.6714   -2.1283    1.1456 O   0  0  0  0  0  0  0  0  0  0  0  0
   -0.9684   -1.1706    0.4416 N   0  0  0  0  0  0  0  0  0  0  0  0
   -0.6541   -0.1870    1.1677 C   0  0  0  0  0  0  0  0  0  0  0  0
   -1.8434   -2.8054    0.4883 H   0  0  0  0  0  0  0  0  0  0  0  0
   -0.9190   -0.1272    2.2212 H   0  0  0  0  0  0  0  0  0  0  0  0
    1.2453    1.3592    0.2786 C   0  0  0  0  0  0  0  0  0  0  0  0
    1.2453    1.3592   -1.1760 C   0  0  0  0  0  0  0  0  0  0  0  0
    1.2453    1.3592   -2.3225 N   0  0  0  0  0  2  0  0  0  0  0  0
    0.2922    0.5834    0.7247 H   0  0  0  0  0  0  0  0  0  0  0  0
    2.2023    0.9947    0.6503 H   0  0  0  0  0  0  0  0  0  0  0  0
    1.0825    2.3703    0.6503 H   0  0  0  0  0  0  0  0  0  0  0  0
  1  2  1  0
  1  4  1  0
  2  3  2  3
  3  5  1  0
  3  9  1  0
  6  7  2  0
  6 10  1  0
  6 11  1  0
  7  8  2  0
M  RAD  1   8   2
M  END
>  <reaction>  (8) 
rmg_rxn_15412

>  <mol_properties>  (8) 
{"1": {"label": "*4", "atom_type": "N3d"}, "2": {"label": "*3", "atom_type": "Cd"}, "5": {"label": "*1", "atom_type": "Cs"}, "6": {"label": "*0", "atom_type": "Ct"}, "8": {"label": "*2", "atom_type": "H0"}}

>  <type>  (8) 
unop_4

>  <geom_source>  (8) 
Heuristics

$$$$

     RDKit          3D

 11  9  0  0  0  0  0  0  0  0999 V2000
   -3.1855   -0.2499   -0.0076 O   0  0  0  0  0  0  0  0  0  0  0  0
   -1.8956    0.2733   -0.0076 N   0  0  0  0  0  0  0  0  0  0  0  0
   -0.8924   -0.4443    0.0230 C   0  0  0  0  0  0  0  0  0  0  0  0
   -3.7692    0.5225   -0.0355 H   0  0  0  0  0  0  0  0  0  0  0  0
   -0.7699   -1.5181    0.0534 H   0  0  0  0  0  0  0  0  0  0  0  0
    1.3137    0.9716    0.0075 C   0  0  0  0  0  0  0  0  0  0  0  0
    2.3934    0.0822   -0.0029 C   0  0  0  0  0  0  0  0  0  0  0  0
    3.2562   -0.6803   -0.0112 N   0  0  0  0  0  2  0  0  0  0  0  0
    0.2077    0.2355    0.0157 H   0  0  0  0  0  0  0  0  0  0  0  0
    1.2322    1.5586    0.9151 H   0  0  0  0  0  0  0  0  0  0  0  0
    1.2167    1.5613   -0.8968 H   0  0  0  0  0  0  0  0  0  0  0  0
  1  2  1  0
  1  4  1  0
  2  3  2  3
  3  5  1  0
  3  9  1  0
  6  7  2  0
  6 10  1  0
  6 11  1  0
  7  8  2  0
M  RAD  1   8   2
M  END
>  <reaction>  (9) 
rmg_rxn_15412

>  <mol_properties>  (9) 
{"1": {"label": "*4", "atom_type": "N3d"}, "2": {"label": "*3", "atom_type": "Cd"}, "5": {"label": "*1", "atom_type": "Cs"}, "6": {"label": "*0", "atom_type": "Ct"}, "8": {"label": "*2", "atom_type": "H0"}}

>  <type>  (9) 
unop_5

>  <geom_source>  (9) 
Heuristics

$$$$

     RDKit          3D

 11  9  0  0  0  0  0  0  0  0999 V2000
   -1.7121   -1.2299    2.3234 O   0  0  0  0  0  0  0  0  0  0  0  0
   -0.5435   -1.0680    1.6056 N   0  0  0  0  0  0  0  0  0  0  0  0
   -0.7466   -0.5056    0.4939 C   0  0  0  0  0  0  0  0  0  0  0  0
   -1.4197   -1.6601    3.1294 H   0  0  0  0  0  0  0  0  0  0  0  0
   -1.7363   -0.1954    0.1655 H   0  0  0  0  0  0  0  0  0  0  0  0
    1.1528    1.0407   -0.3952 C   0  0  0  0  0  0  0  0  0  0  0  0
    1.1528    1.0407   -1.8498 C   0  0  0  0  0  0  0  0  0  0  0  0
    1.1528    1.0407   -2.9963 N   0  0  0  0  0  2  0  0  0  0  0  0
    0.1998    0.2648    0.0509 H   0  0  0  0  0  0  0  0  0  0  0  0
    2.1098    0.6761   -0.0235 H   0  0  0  0  0  0  0  0  0  0  0  0
    0.9900    2.0517   -0.0235 H   0  0  0  0  0  0  0  0  0  0  0  0
  1  2  1  0
  1  4  1  0
  2  3  2  3
  3  5  1  0
  3  9  1  0
  6  7  2  0
  6 10  1  0
  6 11  1  0
  7  8  2  0
M  RAD  1   8   2
M  END
>  <reaction>  (10) 
rmg_rxn_15412

>  <mol_properties>  (10) 
{"1": {"label": "*4", "atom_type": "N3d"}, "2": {"label": "*3", "atom_type": "Cd"}, "5": {"label": "*1", "atom_type": "Cs"}, "6": {"label": "*0", "atom_type": "Ct"}, "8": {"label": "*2", "atom_type": "H0"}}

>  <type>  (10) 
unop_6

>  <geom_source>  (10) 
Heuristics

$$$$

     RDKit          3D

 11  9  0  0  0  0  0  0  0  0999 V2000
   -2.3910   -0.8205    1.6067 O   0  0  0  0  0  0  0  0  0  0  0  0
   -1.4725   -0.4834    0.6322 N   0  0  0  0  0  0  0  0  0  0  0  0
   -0.2940   -0.7846    0.9699 C   0  0  0  0  0  0  0  0  0  0  0  0
   -3.2277   -0.5428    1.2287 H   0  0  0  0  0  0  0  0  0  0  0  0
   -0.0586   -1.2538    1.9227 H   0  0  0  0  0  0  0  0  0  0  0  0
    1.6054    0.7617    0.0808 C   0  0  0  0  0  0  0  0  0  0  0  0
    1.6054    0.7617   -1.3738 C   0  0  0  0  0  0  0  0  0  0  0  0
    1.6054    0.7617   -2.5203 N   0  0  0  0  0  2  0  0  0  0  0  0
    0.6523   -0.0142    0.5269 H   0  0  0  0  0  0  0  0  0  0  0  0
    2.5624    0.3971    0.4525 H   0  0  0  0  0  0  0  0  0  0  0  0
    1.4426    1.7727    0.4525 H   0  0  0  0  0  0  0  0  0  0  0  0
  1  2  1  0
  1  4  1  0
  2  3  2  3
  3  5  1  0
  3  9  1  0
  6  7  2  0
  6 10  1  0
  6 11  1  0
  7  8  2  0
M  RAD  1   8   2
M  END
>  <reaction>  (11) 
rmg_rxn_15412

>  <mol_properties>  (11) 
{"1": {"label": "*4", "atom_type": "N3d"}, "2": {"label": "*3", "atom_type": "Cd"}, "5": {"label": "*1", "atom_type": "Cs"}, "6": {"label": "*0", "atom_type": "Ct"}, "8": {"label": "*2", "atom_type": "H0"}}

>  <type>  (11) 
unop_7

>  <geom_source>  (11) 
Heuristics

$$$$

     RDKit          3D

 11  9  0  0  0  0  0  0  0  0999 V2000
    3.1855   -0.2504    0.0029 O   0  0  0  0  0  0  0  0  0  0  0  0
    1.8958    0.2733    0.0018 N   0  0  0  0  0  0  0  0  0  0  0  0
    0.8918   -0.4436   -0.0077 C   0  0  0  0  0  0  0  0  0  0  0  0
    3.7696    0.5221    0.0117 H   0  0  0  0  0  0  0  0  0  0  0  0
    0.7676   -1.5176   -0.0164 H   0  0  0  0  0  0  0  0  0  0  0  0
   -1.3142    0.9725   -0.0022 C   0  0  0  0  0  0  0  0  0  0  0  0
   -2.3932    0.0821    0.0011 C   0  0  0  0  0  0  0  0  0  0  0  0
   -3.2552   -0.6813    0.0035 N   0  0  0  0  0  2  0  0  0  0  0  0
   -0.2079    0.2371   -0.0060 H   0  0  0  0  0  0  0  0  0  0  0  0
   -1.2288    1.5614   -0.9082 H   0  0  0  0  0  0  0  0  0  0  0  0
   -1.2226    1.5606    0.9037 H   0  0  0  0  0  0  0  0  0  0  0  0
  1  2  1  0
  1  4  1  0
  2  3  2  3
  3  5  1  0
  3  9  1  0
  6  7  2  0
  6 10  1  0
  6 11  1  0
  7  8  2  0
M  RAD  1   8   2
M  END
>  <reaction>  (12) 
rmg_rxn_15412

>  <mol_properties>  (12) 
{"1": {"label": "*4", "atom_type": "N3d"}, "2": {"label": "*3", "atom_type": "Cd"}, "5": {"label": "*1", "atom_type": "Cs"}, "6": {"label": "*0", "atom_type": "Ct"}, "8": {"label": "*2", "atom_type": "H0"}}

>  <type>  (12) 
unop_8

>  <geom_source>  (12) 
Heuristics

$$$$

     RDKit          3D

 11  9  0  0  0  0  0  0  0  0999 V2000
   -1.8053   -1.4697    2.1337 O   0  0  0  0  0  0  0  0  0  0  0  0
   -0.7724   -0.6288    1.7690 N   0  0  0  0  0  0  0  0  0  0  0  0
   -0.6592   -0.5366    0.5151 C   0  0  0  0  0  0  0  0  0  0  0  0
   -1.7803   -1.4493    3.0924 H   0  0  0  0  0  0  0  0  0  0  0  0
   -1.3124   -1.0684   -0.1736 H   0  0  0  0  0  0  0  0  0  0  0  0
    1.2402    1.0096   -0.3740 C   0  0  0  0  0  0  0  0  0  0  0  0
    1.2402    1.0096   -1.8286 C   0  0  0  0  0  0  0  0  0  0  0  0
    1.2402    1.0096   -2.9751 N   0  0  0  0  0  2  0  0  0  0  0  0
    0.2871    0.2338    0.0721 H   0  0  0  0  0  0  0  0  0  0  0  0
    2.1972    0.6451   -0.0023 H   0  0  0  0  0  0  0  0  0  0  0  0
    1.0774    2.0207   -0.0023 H   0  0  0  0  0  0  0  0  0  0  0  0
  1  2  1  0
  1  4  1  0
  2  3  2  3
  3  5  1  0
  3  9  1  0
  6  7  2  0
  6 10  1  0
  6 11  1  0
  7  8  2  0
M  RAD  1   8   2
M  END
>  <reaction>  (13) 
rmg_rxn_15412

>  <mol_properties>  (13) 
{"1": {"label": "*4", "atom_type": "N3d"}, "2": {"label": "*3", "atom_type": "Cd"}, "5": {"label": "*1", "atom_type": "Cs"}, "6": {"label": "*0", "atom_type": "Ct"}, "8": {"label": "*2", "atom_type": "H0"}}

>  <type>  (13) 
unop_9

>  <geom_source>  (13) 
Heuristics

$$$$

     RDKit          3D

 11  9  0  0  0  0  0  0  0  0999 V2000
    3.1855   -0.2502    0.0007 O   0  0  0  0  0  0  0  0  0  0  0  0
    1.8958    0.2734    0.0009 N   0  0  0  0  0  0  0  0  0  0  0  0
    0.8921   -0.4441   -0.0024 C   0  0  0  0  0  0  0  0  0  0  0  0
    3.7696    0.5224    0.0038 H   0  0  0  0  0  0  0  0  0  0  0  0
    0.7688   -1.5182   -0.0059 H   0  0  0  0  0  0  0  0  0  0  0  0
   -1.3139    0.9720   -0.0008 C   0  0  0  0  0  0  0  0  0  0  0  0
   -2.3933    0.0822    0.0003 C   0  0  0  0  0  0  0  0  0  0  0  0
   -3.2558   -0.6808    0.0012 N   0  0  0  0  0  2  0  0  0  0  0  0
   -0.2078    0.2362   -0.0019 H   0  0  0  0  0  0  0  0  0  0  0  0
   -1.2260    1.5605   -0.9069 H   0  0  0  0  0  0  0  0  0  0  0  0
   -1.2240    1.5605    0.9050 H   0  0  0  0  0  0  0  0  0  0  0  0
  1  2  1  0
  1  4  1  0
  2  3  2  3
  3  5  1  0
  3  9  1  0
  6  7  2  0
  6 10  1  0
  6 11  1  0
  7  8  2  0
M  RAD  1   8   2
M  END
>  <reaction>  (14) 
rmg_rxn_15412

>  <mol_properties>  (14) 
{"1": {"label": "*4", "atom_type": "N3d"}, "2": {"label": "*3", "atom_type": "Cd"}, "5": {"label": "*1", "atom_type": "Cs"}, "6": {"label": "*0", "atom_type": "Ct"}, "8": {"label": "*2", "atom_type": "H0"}}

>  <type>  (14) 
unop_10

>  <geom_source>  (14) 
Heuristics

$$$$

     RDKit          3D

 11  9  0  0  0  0  0  0  0  0999 V2000
   -2.1019   -0.7590    2.0912 O   0  0  0  0  0  0  0  0  0  0  0  0
   -1.5048   -0.3082    0.9304 N   0  0  0  0  0  0  0  0  0  0  0  0
   -0.3802   -0.8482    0.7376 C   0  0  0  0  0  0  0  0  0  0  0  0
   -2.9316   -0.2782    2.1152 H   0  0  0  0  0  0  0  0  0  0  0  0
    0.0443   -1.5797    1.4219 H   0  0  0  0  0  0  0  0  0  0  0  0
    1.5191    0.6980   -0.1514 C   0  0  0  0  0  0  0  0  0  0  0  0
    1.5191    0.6980   -1.6061 C   0  0  0  0  0  0  0  0  0  0  0  0
    1.5191    0.6980   -2.7525 N   0  0  0  0  0  2  0  0  0  0  0  0
    0.5661   -0.0778    0.2947 H   0  0  0  0  0  0  0  0  0  0  0  0
    2.4762    0.3335    0.2203 H   0  0  0  0  0  0  0  0  0  0  0  0
    1.3564    1.7091    0.2203 H   0  0  0  0  0  0  0  0  0  0  0  0
  1  2  1  0
  1  4  1  0
  2  3  2  3
  3  5  1  0
  3  9  1  0
  6  7  2  0
  6 10  1  0
  6 11  1  0
  7  8  2  0
M  RAD  1   8   2
M  END
>  <reaction>  (15) 
rmg_rxn_15412

>  <mol_properties>  (15) 
{"1": {"label": "*4", "atom_type": "N3d"}, "2": {"label": "*3", "atom_type": "Cd"}, "5": {"label": "*1", "atom_type": "Cs"}, "6": {"label": "*0", "atom_type": "Ct"}, "8": {"label": "*2", "atom_type": "H0"}}

>  <type>  (15) 
unop_11

>  <geom_source>  (15) 
Heuristics

$$$$

     RDKit          3D

 11  9  0  0  0  0  0  0  0  0999 V2000
   -3.1854    0.2503   -0.0055 O   0  0  0  0  0  0  0  0  0  0  0  0
   -1.8957   -0.2734   -0.0056 N   0  0  0  0  0  0  0  0  0  0  0  0
   -0.8921    0.4438    0.0167 C   0  0  0  0  0  0  0  0  0  0  0  0
   -3.7695   -0.5220   -0.0259 H   0  0  0  0  0  0  0  0  0  0  0  0
   -0.7686    1.5177    0.0388 H   0  0  0  0  0  0  0  0  0  0  0  0
    1.3140   -0.9722    0.0055 C   0  0  0  0  0  0  0  0  0  0  0  0
    2.3932   -0.0821   -0.0021 C   0  0  0  0  0  0  0  0  0  0  0  0
    3.2556    0.6810   -0.0081 N   0  0  0  0  0  2  0  0  0  0  0  0
    0.2078   -0.2365    0.0118 H   0  0  0  0  0  0  0  0  0  0  0  0
    1.2196   -1.5616   -0.8992 H   0  0  0  0  0  0  0  0  0  0  0  0
    1.2311   -1.5597    0.9126 H   0  0  0  0  0  0  0  0  0  0  0  0
  1  2  1  0
  1  4  1  0
  2  3  2  3
  3  5  1  0
  3  9  1  0
  6  7  2  0
  6 10  1  0
  6 11  1  0
  7  8  2  0
M  RAD  1   8   2
M  END
>  <reaction>  (16) 
rmg_rxn_15412

>  <mol_properties>  (16) 
{"1": {"label": "*4", "atom_type": "N3d"}, "2": {"label": "*3", "atom_type": "Cd"}, "5": {"label": "*1", "atom_type": "Cs"}, "6": {"label": "*0", "atom_type": "Ct"}, "8": {"label": "*2", "atom_type": "H0"}}

>  <type>  (16) 
unop_12

>  <geom_source>  (16) 
Heuristics

$$$$

     RDKit          3D

 11  9  0  0  0  0  0  0  0  0999 V2000
   -1.7306   -1.0169    2.3740 O   0  0  0  0  0  0  0  0  0  0  0  0
   -1.4057   -0.2374    1.2814 N   0  0  0  0  0  0  0  0  0  0  0  0
   -0.5260   -0.7817    0.5580 C   0  0  0  0  0  0  0  0  0  0  0  0
   -2.3955   -0.4960    2.8286 H   0  0  0  0  0  0  0  0  0  0  0  0
   -0.0921   -1.7516    0.7919 H   0  0  0  0  0  0  0  0  0  0  0  0
    1.3734    0.7645   -0.3310 C   0  0  0  0  0  0  0  0  0  0  0  0
    1.3734    0.7645   -1.7857 C   0  0  0  0  0  0  0  0  0  0  0  0
    1.3734    0.7645   -2.9321 N   0  0  0  0  0  2  0  0  0  0  0  0
    0.4203   -0.0113    0.1151 H   0  0  0  0  0  0  0  0  0  0  0  0
    2.3304    0.4000    0.0407 H   0  0  0  0  0  0  0  0  0  0  0  0
    1.2106    1.7756    0.0407 H   0  0  0  0  0  0  0  0  0  0  0  0
  1  2  1  0
  1  4  1  0
  2  3  2  3
  3  5  1  0
  3  9  1  0
  6  7  2  0
  6 10  1  0
  6 11  1  0
  7  8  2  0
M  RAD  1   8   2
M  END
>  <reaction>  (17) 
rmg_rxn_15412

>  <mol_properties>  (17) 
{"1": {"label": "*4", "atom_type": "N3d"}, "2": {"label": "*3", "atom_type": "Cd"}, "5": {"label": "*1", "atom_type": "Cs"}, "6": {"label": "*0", "atom_type": "Ct"}, "8": {"label": "*2", "atom_type": "H0"}}

>  <type>  (17) 
unop_13

>  <geom_source>  (17) 
Heuristics

$$$$

     RDKit          3D

 11  9  0  0  0  0  0  0  0  0999 V2000
   -1.1696   -1.9042    2.0912 O   0  0  0  0  0  0  0  0  0  0  0  0
   -0.6070   -1.4110    0.9304 N   0  0  0  0  0  0  0  0  0  0  0  0
   -0.9077   -0.2003    0.7376 C   0  0  0  0  0  0  0  0  0  0  0  0
   -0.8671   -2.8142    2.1152 H   0  0  0  0  0  0  0  0  0  0  0  0
   -1.5379    0.3638    1.4219 H   0  0  0  0  0  0  0  0  0  0  0  0
    0.9917    1.3460   -0.1514 C   0  0  0  0  0  0  0  0  0  0  0  0
    0.9917    1.3460   -1.6061 C   0  0  0  0  0  0  0  0  0  0  0  0
    0.9917    1.3460   -2.7525 N   0  0  0  0  0  2  0  0  0  0  0  0
    0.0386    0.5701    0.2947 H   0  0  0  0  0  0  0  0  0  0  0  0
    1.9487    0.9814    0.2203 H   0  0  0  0  0  0  0  0  0  0  0  0
    0.8289    2.3570    0.2203 H   0  0  0  0  0  0  0  0  0  0  0  0
  1  2  1  0
  1  4  1  0
  2  3  2  3
  3  5  1  0
  3  9  1  0
  6  7  2  0
  6 10  1  0
  6 11  1  0
  7  8  2  0
M  RAD  1   8   2
M  END
>  <reaction>  (18) 
rmg_rxn_15412

>  <mol_properties>  (18) 
{"1": {"label": "*4", "atom_type": "N3d"}, "2": {"label": "*3", "atom_type": "Cd"}, "5": {"label": "*1", "atom_type": "Cs"}, "6": {"label": "*0", "atom_type": "Ct"}, "8": {"label": "*2", "atom_type": "H0"}}

>  <type>  (18) 
unop_14

>  <geom_source>  (18) 
Heuristics

$$$$

     RDKit          3D

 11  9  0  0  0  0  0  0  0  0999 V2000
   -3.1852    0.2511   -0.0002 O   0  0  0  0  0  0  0  0  0  0  0  0
   -1.8959   -0.2739    0.0001 N   0  0  0  0  0  0  0  0  0  0  0  0
   -0.8917    0.4429    0.0003 C   0  0  0  0  0  0  0  0  0  0  0  0
   -3.7700   -0.5209   -0.0003 H   0  0  0  0  0  0  0  0  0  0  0  0
   -0.7678    1.5170    0.0003 H   0  0  0  0  0  0  0  0  0  0  0  0
    1.3145   -0.9728   -0.0000 C   0  0  0  0  0  0  0  0  0  0  0  0
    2.3931   -0.0820    0.0001 C   0  0  0  0  0  0  0  0  0  0  0  0
    3.2547    0.6819   -0.0002 N   0  0  0  0  0  2  0  0  0  0  0  0
    0.2079   -0.2374    0.0000 H   0  0  0  0  0  0  0  0  0  0  0  0
    1.2257   -1.5612   -0.9061 H   0  0  0  0  0  0  0  0  0  0  0  0
    1.2255   -1.5610    0.9060 H   0  0  0  0  0  0  0  0  0  0  0  0
  1  2  1  0
  1  4  1  0
  2  3  2  3
  3  5  1  0
  3  9  1  0
  6  7  2  0
  6 10  1  0
  6 11  1  0
  7  8  2  0
M  RAD  1   8   2
M  END
>  <reaction>  (19) 
rmg_rxn_15412

>  <mol_properties>  (19) 
{"1": {"label": "*4", "atom_type": "N3d"}, "2": {"label": "*3", "atom_type": "Cd"}, "5": {"label": "*1", "atom_type": "Cs"}, "6": {"label": "*0", "atom_type": "Ct"}, "8": {"label": "*2", "atom_type": "H0"}}

>  <type>  (19) 
unop_15

>  <geom_source>  (19) 
Heuristics

$$$$

     RDKit          3D

 11  9  0  0  0  0  0  0  0  0999 V2000
   -2.4231   -1.2049    1.1456 O   0  0  0  0  0  0  0  0  0  0  0  0
   -1.3427   -0.7108    0.4416 N   0  0  0  0  0  0  0  0  0  0  0  0
   -0.3158   -0.6026    1.1677 C   0  0  0  0  0  0  0  0  0  0  0  0
   -3.1210   -1.2360    0.4883 H   0  0  0  0  0  0  0  0  0  0  0  0
   -0.3109   -0.8741    2.2212 H   0  0  0  0  0  0  0  0  0  0  0  0
    1.5836    0.9436    0.2786 C   0  0  0  0  0  0  0  0  0  0  0  0
    1.5836    0.9436   -1.1760 C   0  0  0  0  0  0  0  0  0  0  0  0
    1.5836    0.9436   -2.3225 N   0  0  0  0  0  2  0  0  0  0  0  0
    0.6306    0.1678    0.7247 H   0  0  0  0  0  0  0  0  0  0  0  0
    2.5406    0.5791    0.6503 H   0  0  0  0  0  0  0  0  0  0  0  0
    1.4208    1.9547    0.6503 H   0  0  0  0  0  0  0  0  0  0  0  0
  1  2  1  0
  1  4  1  0
  2  3  2  3
  3  5  1  0
  3  9  1  0
  6  7  2  0
  6 10  1  0
  6 11  1  0
  7  8  2  0
M  RAD  1   8   2
M  END
>  <reaction>  (20) 
rmg_rxn_15412

>  <mol_properties>  (20) 
{"1": {"label": "*4", "atom_type": "N3d"}, "2": {"label": "*3", "atom_type": "Cd"}, "5": {"label": "*1", "atom_type": "Cs"}, "6": {"label": "*0", "atom_type": "Ct"}, "8": {"label": "*2", "atom_type": "H0"}}

>  <type>  (20) 
unop_16

>  <geom_source>  (20) 
Heuristics

$$$$

     RDKit          3D

 11  9  0  0  0  0  0  0  0  0999 V2000
   -1.2884   -2.1748    1.6067 O   0  0  0  0  0  0  0  0  0  0  0  0
   -0.7720   -1.3438    0.6322 N   0  0  0  0  0  0  0  0  0  0  0  0
   -0.8279   -0.1287    0.9699 C   0  0  0  0  0  0  0  0  0  0  0  0
   -1.1862   -3.0505    1.2287 H   0  0  0  0  0  0  0  0  0  0  0  0
   -1.2397    0.1969    1.9227 H   0  0  0  0  0  0  0  0  0  0  0  0
    1.0715    1.4175    0.0808 C   0  0  0  0  0  0  0  0  0  0  0  0
    1.0715    1.4175   -1.3738 C   0  0  0  0  0  0  0  0  0  0  0  0
    1.0715    1.4175   -2.5203 N   0  0  0  0  0  2  0  0  0  0  0  0
    0.1184    0.6417    0.5269 H   0  0  0  0  0  0  0  0  0  0  0  0
    2.0285    1.0530    0.4525 H   0  0  0  0  0  0  0  0  0  0  0  0
    0.9087    2.4286    0.4525 H   0  0  0  0  0  0  0  0  0  0  0  0
  1  2  1  0
  1  4  1  0
  2  3  2  3
  3  5  1  0
  3  9  1  0
  6  7  2  0
  6 10  1  0
  6 11  1  0
  7  8  2  0
M  RAD  1   8   2
M  END
>  <reaction>  (21) 
rmg_rxn_15412

>  <mol_properties>  (21) 
{"1": {"label": "*4", "atom_type": "N3d"}, "2": {"label": "*3", "atom_type": "Cd"}, "5": {"label": "*1", "atom_type": "Cs"}, "6": {"label": "*0", "atom_type": "Ct"}, "8": {"label": "*2", "atom_type": "H0"}}

>  <type>  (21) 
unop_17

>  <geom_source>  (21) 
Heuristics

$$$$

     RDKit          3D

 11  9  0  0  0  0  0  0  0  0999 V2000
   -1.5516   -1.4270    2.3234 O   0  0  0  0  0  0  0  0  0  0  0  0
   -1.1561   -0.3156    1.6056 N   0  0  0  0  0  0  0  0  0  0  0  0
   -0.6465   -0.6285    0.4939 C   0  0  0  0  0  0  0  0  0  0  0  0
   -1.9136   -1.0534    3.1294 H   0  0  0  0  0  0  0  0  0  0  0  0
   -0.5436   -1.6606    0.1655 H   0  0  0  0  0  0  0  0  0  0  0  0
    1.2529    0.9177   -0.3952 C   0  0  0  0  0  0  0  0  0  0  0  0
    1.2529    0.9177   -1.8498 C   0  0  0  0  0  0  0  0  0  0  0  0
    1.2529    0.9177   -2.9963 N   0  0  0  0  0  2  0  0  0  0  0  0
    0.2999    0.1419    0.0509 H   0  0  0  0  0  0  0  0  0  0  0  0
    2.2099    0.5532   -0.0235 H   0  0  0  0  0  0  0  0  0  0  0  0
    1.0901    1.9288   -0.0235 H   0  0  0  0  0  0  0  0  0  0  0  0
  1  2  1  0
  1  4  1  0
  2  3  2  3
  3  5  1  0
  3  9  1  0
  6  7  2  0
  6 10  1  0
  6 11  1  0
  7  8  2  0
M  RAD  1   8   2
M  END
>  <reaction>  (22) 
rmg_rxn_15412

>  <mol_properties>  (22) 
{"1": {"label": "*4", "atom_type": "N3d"}, "2": {"label": "*3", "atom_type": "Cd"}, "5": {"label": "*1", "atom_type": "Cs"}, "6": {"label": "*0", "atom_type": "Ct"}, "8": {"label": "*2", "atom_type": "H0"}}

>  <type>  (22) 
unop_18

>  <geom_source>  (22) 
Heuristics

$$$$

     RDKit          3D

 11  9  0  0  0  0  0  0  0  0999 V2000
   -2.1378   -1.7403    0.9527 O   0  0  0  0  0  0  0  0  0  0  0  0
   -1.1640   -0.9476    0.3781 N   0  0  0  0  0  0  0  0  0  0  0  0
   -0.4533   -0.3691    1.2464 C   0  0  0  0  0  0  0  0  0  0  0  0
   -2.5955   -2.1129    0.1966 H   0  0  0  0  0  0  0  0  0  0  0  0
   -0.6118   -0.4981    2.3149 H   0  0  0  0  0  0  0  0  0  0  0  0
    1.4460    1.1772    0.3573 C   0  0  0  0  0  0  0  0  0  0  0  0
    1.4460    1.1772   -1.0973 C   0  0  0  0  0  0  0  0  0  0  0  0
    1.4460    1.1772   -2.2438 N   0  0  0  0  0  2  0  0  0  0  0  0
    0.4930    0.4013    0.8034 H   0  0  0  0  0  0  0  0  0  0  0  0
    2.4031    0.8127    0.7290 H   0  0  0  0  0  0  0  0  0  0  0  0
    1.2833    2.1882    0.7290 H   0  0  0  0  0  0  0  0  0  0  0  0
  1  2  1  0
  1  4  1  0
  2  3  2  3
  3  5  1  0
  3  9  1  0
  6  7  2  0
  6 10  1  0
  6 11  1  0
  7  8  2  0
M  RAD  1   8   2
M  END
>  <reaction>  (23) 
rmg_rxn_15412

>  <mol_properties>  (23) 
{"1": {"label": "*4", "atom_type": "N3d"}, "2": {"label": "*3", "atom_type": "Cd"}, "5": {"label": "*1", "atom_type": "Cs"}, "6": {"label": "*0", "atom_type": "Ct"}, "8": {"label": "*2", "atom_type": "H0"}}

>  <type>  (23) 
unop_19

>  <geom_source>  (23) 
Heuristics

$$$$

     RDKit          3D

 11  9  0  0  0  0  0  0  0  0999 V2000
   -2.1738    1.0520    0.3479 O   0  0  0  0  0  0  0  0  0  0  0  0
   -2.1734   -0.2449   -0.1081 N   0  0  0  0  0  0  0  0  0  0  0  0
    3.1720    0.6152   -1.2868 N   0  0  0  0  0  2  0  0  0  0  0  0
   -1.0616   -0.8340   -0.3990 C   0  0  0  0  0  0  0  0  0  0  0  0
    1.2740   -0.0411    0.3962 C   0  0  0  0  0  0  0  0  0  0  0  0
    2.3338    0.3254   -0.5435 C   0  0  0  0  0  0  0  0  0  0  0  0
   -1.0703   -1.8543   -0.7571 H   0  0  0  0  0  0  0  0  0  0  0  0
    0.0363   -0.2274   -0.2683 H   0  0  0  0  0  0  0  0  0  0  0  0
    1.5064   -1.0263    0.8504 H   0  0  0  0  0  0  0  0  0  0  0  0
    1.2049    0.7268    1.1940 H   0  0  0  0  0  0  0  0  0  0  0  0
   -3.0483    1.5086    0.5743 H   0  0  0  0  0  0  0  0  0  0  0  0
  1  2  1  0
  1 11  1  0
  2  4  2  3
  3  6  2  0
  4  7  1  0
  4  8  1  0
  5  6  2  0
  5  9  1  0
  5 10  1  0
M  RAD  1   3   2
M  END
>  <reaction>  (24) 
rmg_rxn_15412

>  <mol_properties>  (24) 
{"1": {"label": "*4", "atom_type": "N3d"}, "2": {"label": "*3", "atom_type": "Cd"}, "5": {"label": "*1", "atom_type": "Cs"}, "6": {"label": "*0", "atom_type": "Ct"}, "8": {"label": "*2", "atom_type": "H0"}}

>  <type>  (24) 
unop_20

>  <geom_source>  (24) 
AutoTST

$$$$

     RDKit          3D

 11  9  0  0  0  0  0  0  0  0999 V2000
   -1.6714   -2.1283    1.1456 O   0  0  0  0  0  0  0  0  0  0  0  0
   -0.9684   -1.1706    0.4416 N   0  0  0  0  0  0  0  0  0  0  0  0
   -0.6541   -0.1870    1.1677 C   0  0  0  0  0  0  0  0  0  0  0  0
   -1.8434   -2.8054    0.4883 H   0  0  0  0  0  0  0  0  0  0  0  0
   -0.9190   -0.1272    2.2212 H   0  0  0  0  0  0  0  0  0  0  0  0
    1.2453    1.3592    0.2786 C   0  0  0  0  0  0  0  0  0  0  0  0
    1.2453    1.3592   -1.1760 C   0  0  0  0  0  0  0  0  0  0  0  0
    1.2453    1.3592   -2.3225 N   0  0  0  0  0  2  0  0  0  0  0  0
    0.2922    0.5834    0.7247 H   0  0  0  0  0  0  0  0  0  0  0  0
    2.2023    0.9947    0.6503 H   0  0  0  0  0  0  0  0  0  0  0  0
    1.0825    2.3703    0.6503 H   0  0  0  0  0  0  0  0  0  0  0  0
  1  2  1  0
  1  4  1  0
  2  3  2  3
  3  5  1  0
  3  9  1  0
  6  7  2  0
  6 10  1  0
  6 11  1  0
  7  8  2  0
M  RAD  1   8   2
M  END
>  <reaction>  (25) 
rmg_rxn_15412

>  <mol_properties>  (25) 
{"1": {"label": "*4", "atom_type": "N3d"}, "2": {"label": "*3", "atom_type": "Cd"}, "5": {"label": "*1", "atom_type": "Cs"}, "6": {"label": "*0", "atom_type": "Ct"}, "8": {"label": "*2", "atom_type": "H0"}}

>  <type>  (25) 
unop_21

>  <geom_source>  (25) 
gaussian_log

$$$$
