
     RDKit          3D

 15 14  0  0  0  0  0  0  0  0999 V2000
   -1.2811   -0.4129    1.0228 C   0  0  0  0  0  0  0  0  0  0  0  0
   -1.0023   -0.5809   -0.4650 C   0  0  0  0  0  0  0  0  0  0  0  0
   -2.0576    0.0568   -1.3449 C   0  0  0  0  0  0  0  0  0  0  0  0
   -2.0663    1.4464   -1.1307 O   0  0  0  0  0  0  0  0  0  0  0  0
   -3.0424    2.1072   -1.8849 C   0  0  0  0  0  0  0  0  0  0  0  0
   -2.2382   -0.8657    1.2935 H   0  0  0  0  0  0  0  0  0  0  0  0
   -1.3219    0.6426    1.2914 H   0  0  0  0  0  0  0  0  0  0  0  0
   -0.5042   -0.8881    1.6236 H   0  0  0  0  0  0  0  0  0  0  0  0
   -0.0316   -0.1460   -0.7167 H   0  0  0  0  0  0  0  0  0  0  0  0
   -0.9494   -1.6429   -0.7203 H   0  0  0  0  0  0  0  0  0  0  0  0
   -1.8518   -0.1570   -2.4041 H   0  0  0  0  0  0  0  0  0  0  0  0
   -3.0491   -0.3636   -1.1124 H   0  0  0  0  0  0  0  0  0  0  0  0
   -4.0521    1.7545   -1.6343 H   0  0  0  0  0  0  0  0  0  0  0  0
   -2.8850    1.9634   -2.9626 H   0  0  0  0  0  0  0  0  0  0  0  0
   -2.9730    3.1700   -1.6570 H   0  0  0  0  0  0  0  0  0  0  0  0
  1  2  1  0
  1  6  1  0
  1  7  1  0
  1  8  1  0
  2  3  1  0
  2  9  1  0
  2 10  1  0
  3  4  1  0
  3 11  1  0
  3 12  1  0
  4  5  1  0
  5 13  1  0
  5 14  1  0
  5 15  1  0
M  END
>  <reaction>  (1) 
rmg_rxn_688

>  <mol_properties>  (1) 
{"4": {"label": "donator", "atom_type": "Cs"}, "12": {"label": "d_hydrogen", "atom_type": "H0"}}

>  <type>  (1) 
r1h

$$$$

     RDKit          3D

 10  9  0  0  0  0  0  0  0  0999 V2000
    1.4352    0.2660   -0.1351 C   0  0  0  0  0  3  0  0  0  0  0  0
    0.2236   -0.3243    0.4850 C   0  0  0  0  0  0  0  0  0  0  0  0
   -0.8893    0.6872    0.7364 C   0  0  0  0  0  0  0  0  0  0  0  0
    2.3577   -0.2958   -0.1940 H   0  0  0  0  0  0  0  0  0  0  0  0
    1.3935    1.2286   -0.6287 H   0  0  0  0  0  0  0  0  0  0  0  0
   -0.1633   -1.1318   -0.1556 H   0  0  0  0  0  0  0  0  0  0  0  0
    0.4945   -0.8215    1.4240 H   0  0  0  0  0  0  0  0  0  0  0  0
   -1.1991    1.1627   -0.1967 H   0  0  0  0  0  0  0  0  0  0  0  0
   -1.7660    0.2103    1.1768 H   0  0  0  0  0  0  0  0  0  0  0  0
   -0.5545    1.4732    1.4159 H   0  0  0  0  0  0  0  0  0  0  0  0
  1  2  1  0
  1  4  1  0
  1  5  1  0
  2  3  1  0
  2  6  1  0
  2  7  1  0
  3  8  1  0
  3  9  1  0
  3 10  1  0
M  RAD  1   1   2
M  END
>  <reaction>  (2) 
rmg_rxn_688

>  <mol_properties>  (2) 
{"0": {"label": "acceptor", "atom_type": "Cs"}}

>  <type>  (2) 
r2

$$$$

     RDKit          3D

 11 10  0  0  0  0  0  0  0  0999 V2000
   -1.2710    0.1907   -0.2084 C   0  0  0  0  0  0  0  0  0  0  0  0
    0.0202   -0.6130   -0.2928 C   0  0  0  0  0  0  0  0  0  0  0  0
    0.1086   -1.6953    0.7756 C   0  0  0  0  0  0  0  0  0  0  0  0
   -1.3607    0.6851    0.7620 H   0  0  0  0  0  0  0  0  0  0  0  0
   -2.1429   -0.4567   -0.3299 H   0  0  0  0  0  0  0  0  0  0  0  0
   -1.3158    0.9602   -0.9809 H   0  0  0  0  0  0  0  0  0  0  0  0
    0.8757    0.0616   -0.1992 H   0  0  0  0  0  0  0  0  0  0  0  0
    0.0997   -1.0712   -1.2825 H   0  0  0  0  0  0  0  0  0  0  0  0
   -0.7198   -2.4022    0.6850 H   0  0  0  0  0  0  0  0  0  0  0  0
    1.0395   -2.2596    0.6989 H   0  0  0  0  0  0  0  0  0  0  0  0
    0.0624   -1.2603    1.7770 H   0  0  0  0  0  0  0  0  0  0  0  0
  1  2  1  0
  1  4  1  0
  1  5  1  0
  1  6  1  0
  2  3  1  0
  2  7  1  0
  2  8  1  0
  3  9  1  0
  3 10  1  0
  3 11  1  0
M  END
>  <reaction>  (3) 
rmg_rxn_688

>  <mol_properties>  (3) 
{"0": {"label": "acceptor", "atom_type": "Cs"}, "10": {"label": "a_hydrogen", "atom_type": "H0"}}

>  <type>  (3) 
r2h

$$$$

     RDKit          3D

 25 23  0  0  0  0  0  0  0  0999 V2000
    0.9123    2.2777    0.2101 C   0  0  0  0  0  3  0  0  0  0  0  0
    1.3569    1.4796   -0.9875 C   0  0  0  0  0  0  0  0  0  0  0  0
    0.3045    1.4127   -2.0882 C   0  0  0  0  0  0  0  0  0  0  0  0
    1.6004    2.2731    1.0540 H   0  0  0  0  0  0  0  0  0  0  0  0
    0.5607    3.2839   -0.0186 H   0  0  0  0  0  0  0  0  0  0  0  0
    2.2802    1.9108   -1.3949 H   0  0  0  0  0  0  0  0  0  0  0  0
    1.6164    0.4640   -0.6749 H   0  0  0  0  0  0  0  0  0  0  0  0
    0.0317    2.4148   -2.4280 H   0  0  0  0  0  0  0  0  0  0  0  0
    0.6705    0.8545   -2.9515 H   0  0  0  0  0  0  0  0  0  0  0  0
   -0.5997    0.9193   -1.7279 H   0  0  0  0  0  0  0  0  0  0  0  0
    0.4442   -2.3427   -0.8137 C   0  0  0  0  0  0  0  0  0  0  0  0
   -0.1079   -2.4387    0.6024 C   0  0  0  0  0  0  0  0  0  0  0  0
   -0.2315   -1.0934    1.2858 C   0  0  0  0  0  0  0  0  0  0  0  0
   -1.1939   -0.3169    0.6052 O   0  0  0  0  0  0  0  0  0  0  0  0
   -1.3033    0.9738    1.0754 C   0  0  0  0  0  0  0  0  0  0  0  0
    1.4570   -1.9327   -0.8107 H   0  0  0  0  0  0  0  0  0  0  0  0
   -0.1779   -1.6930   -1.4298 H   0  0  0  0  0  0  0  0  0  0  0  0
    0.4843   -3.3248   -1.2868 H   0  0  0  0  0  0  0  0  0  0  0  0
   -1.0932   -2.9118    0.5912 H   0  0  0  0  0  0  0  0  0  0  0  0
    0.5394   -3.0704    1.2166 H   0  0  0  0  0  0  0  0  0  0  0  0
   -0.5376   -1.2170    2.3336 H   0  0  0  0  0  0  0  0  0  0  0  0
    0.7349   -0.5701    1.2819 H   0  0  0  0  0  0  0  0  0  0  0  0
   -0.2309    1.6582    0.7084 H   0  0  0  0  0  0  0  0  0  0  0  0
   -1.3412    1.0443    2.1688 H   0  0  0  0  0  0  0  0  0  0  0  0
   -2.1454    1.4673    0.5949 H   0  0  0  0  0  0  0  0  0  0  0  0
  1  2  1  0
  1  4  1  0
  1  5  1  0
  2  3  1  0
  2  6  1  0
  2  7  1  0
  3  8  1  0
  3  9  1  0
  3 10  1  0
 11 12  1  0
 11 16  1  0
 11 17  1  0
 11 18  1  0
 12 13  1  0
 12 19  1  0
 12 20  1  0
 13 14  1  0
 13 21  1  0
 13 22  1  0
 14 15  1  0
 15 23  1  0
 15 24  1  0
 15 25  1  0
M  RAD  1   1   2
M  END
>  <reaction>  (4) 
rmg_rxn_688

>  <mol_properties>  (4) 
{"0": {"label": "*3", "atom_type": "Cs"}, "1": {"label": "*4", "atom_type": "Cs"}, "13": {"label": "*0", "atom_type": "O2s"}, "14": {"label": "*1", "atom_type": "Cs"}, "22": {"label": "*2", "atom_type": "H0"}}

>  <type>  (4) 
ts

$$$$

     RDKit          3D

 25 23  0  0  0  0  0  0  0  0999 V2000
    1.0847    1.8276    0.0082 C   0  0  0  0  0  0  0  0  0  0  0  0
    0.5524    3.0152   -0.7834 C   0  0  0  0  0  0  0  0  0  0  0  0
   -0.8958    3.3445   -0.4447 C   0  0  0  0  0  0  0  0  0  0  0  0
    2.1224    1.6073   -0.2480 H   0  0  0  0  0  0  0  0  0  0  0  0
    1.0393    2.0222    1.0824 H   0  0  0  0  0  0  0  0  0  0  0  0
    1.1791    3.8906   -0.5919 H   0  0  0  0  0  0  0  0  0  0  0  0
    0.6376    2.8070   -1.8536 H   0  0  0  0  0  0  0  0  0  0  0  0
   -1.0037    3.5869    0.6153 H   0  0  0  0  0  0  0  0  0  0  0  0
   -1.2588    4.1970   -1.0212 H   0  0  0  0  0  0  0  0  0  0  0  0
   -1.5494    2.4947   -0.6564 H   0  0  0  0  0  0  0  0  0  0  0  0
    0.3584   -3.0059   -1.2967 C   0  0  0  0  0  0  0  0  0  0  0  0
    0.3584   -3.0059    0.2262 C   0  0  0  0  0  0  0  0  0  0  0  0
    0.3584   -1.6133    0.8222 C   0  0  0  0  0  0  0  0  0  0  0  0
   -0.8267   -0.9498    0.4581 O   0  0  0  0  0  0  0  0  0  0  0  0
   -0.8875    0.3613    0.9433 C   0  0  0  0  0  3  0  0  0  0  0  0
    1.2408   -2.4922   -1.6864 H   0  0  0  0  0  0  0  0  0  0  0  0
   -0.5241   -2.4960   -1.6831 H   0  0  0  0  0  0  0  0  0  0  0  0
    0.3633   -4.0239   -1.6890 H   0  0  0  0  0  0  0  0  0  0  0  0
   -0.5157   -3.5440    0.6018 H   0  0  0  0  0  0  0  0  0  0  0  0
    1.2401   -3.5320    0.6024 H   0  0  0  0  0  0  0  0  0  0  0  0
    0.4352   -1.6670    1.9183 H   0  0  0  0  0  0  0  0  0  0  0  0
    1.2307   -1.0463    0.4600 H   0  0  0  0  0  0  0  0  0  0  0  0
    0.1012    1.0963    0.4745 H   0  0  0  0  0  0  0  0  0  0  0  0
   -0.8455    0.3874    2.0407 H   0  0  0  0  0  0  0  0  0  0  0  0
   -1.8331    0.7914    0.6161 H   0  0  0  0  0  0  0  0  0  0  0  0
  1  2  1  0
  1  4  1  0
  1  5  1  0
  1 23  1  0
  2  3  1  0
  2  6  1  0
  2  7  1  0
  3  8  1  0
  3  9  1  0
  3 10  1  0
 11 12  1  0
 11 16  1  0
 11 17  1  0
 11 18  1  0
 12 13  1  0
 12 19  1  0
 12 20  1  0
 13 14  1  0
 13 21  1  0
 13 22  1  0
 14 15  1  0
 15 24  1  0
 15 25  1  0
M  RAD  1  15   2
M  END
>  <reaction>  (5) 
rmg_rxn_688

>  <mol_properties>  (5) 
{"0": {"label": "*3", "atom_type": "Cs"}, "1": {"label": "*4", "atom_type": "Cs"}, "13": {"label": "*0", "atom_type": "O2s"}, "14": {"label": "*1", "atom_type": "Cs"}, "22": {"label": "*2", "atom_type": "H0"}}

>  <type>  (5) 
unop_1

>  <geom_source>  (5) 
Heuristics

$$$$

     RDKit          3D

 25 23  0  0  0  0  0  0  0  0999 V2000
    0.8130    2.3299    0.3182 C   0  0  0  0  0  0  0  0  0  0  0  0
    1.2406    1.8505   -1.0631 C   0  0  0  0  0  0  0  0  0  0  0  0
    0.0566    1.4935   -1.9527 C   0  0  0  0  0  0  0  0  0  0  0  0
    1.6741    2.5805    0.9401 H   0  0  0  0  0  0  0  0  0  0  0  0
    0.1826    3.2194    0.2451 H   0  0  0  0  0  0  0  0  0  0  0  0
    1.8396    2.6261   -1.5483 H   0  0  0  0  0  0  0  0  0  0  0  0
    1.8941    0.9798   -0.9601 H   0  0  0  0  0  0  0  0  0  0  0  0
   -0.5976    2.3567   -2.0973 H   0  0  0  0  0  0  0  0  0  0  0  0
    0.3827    1.1527   -2.9369 H   0  0  0  0  0  0  0  0  0  0  0  0
   -0.5427    0.6974   -1.5045 H   0  0  0  0  0  0  0  0  0  0  0  0
    0.0867   -2.5036   -0.9867 C   0  0  0  0  0  0  0  0  0  0  0  0
    0.0867   -2.5036    0.5362 C   0  0  0  0  0  0  0  0  0  0  0  0
    0.0867   -1.1110    1.1322 C   0  0  0  0  0  0  0  0  0  0  0  0
   -1.0983   -0.4475    0.7681 O   0  0  0  0  0  0  0  0  0  0  0  0
   -1.1591    0.8636    1.2532 C   0  0  0  0  0  3  0  0  0  0  0  0
    0.9691   -1.9899   -1.3764 H   0  0  0  0  0  0  0  0  0  0  0  0
   -0.7957   -1.9937   -1.3731 H   0  0  0  0  0  0  0  0  0  0  0  0
    0.0916   -3.5216   -1.3790 H   0  0  0  0  0  0  0  0  0  0  0  0
   -0.7874   -3.0417    0.9118 H   0  0  0  0  0  0  0  0  0  0  0  0
    0.9684   -3.0297    0.9124 H   0  0  0  0  0  0  0  0  0  0  0  0
    0.1635   -1.1647    2.2283 H   0  0  0  0  0  0  0  0  0  0  0  0
    0.9591   -0.5440    0.7700 H   0  0  0  0  0  0  0  0  0  0  0  0
   -0.1704    1.5986    0.7845 H   0  0  0  0  0  0  0  0  0  0  0  0
   -1.1171    0.8897    2.3507 H   0  0  0  0  0  0  0  0  0  0  0  0
   -2.1048    1.2937    0.9261 H   0  0  0  0  0  0  0  0  0  0  0  0
  1  2  1  0
  1  4  1  0
  1  5  1  0
  1 23  1  0
  2  3  1  0
  2  6  1  0
  2  7  1  0
  3  8  1  0
  3  9  1  0
  3 10  1  0
 11 12  1  0
 11 16  1  0
 11 17  1  0
 11 18  1  0
 12 13  1  0
 12 19  1  0
 12 20  1  0
 13 14  1  0
 13 21  1  0
 13 22  1  0
 14 15  1  0
 15 24  1  0
 15 25  1  0
M  RAD  1  15   2
M  END
>  <reaction>  (6) 
rmg_rxn_688

>  <mol_properties>  (6) 
{"0": {"label": "*3", "atom_type": "Cs"}, "1": {"label": "*4", "atom_type": "Cs"}, "13": {"label": "*0", "atom_type": "O2s"}, "14": {"label": "*1", "atom_type": "Cs"}, "22": {"label": "*2", "atom_type": "H0"}}

>  <type>  (6) 
unop_2

>  <geom_source>  (6) 
Heuristics

$$$$

     RDKit          3D

 25 23  0  0  0  0  0  0  0  0999 V2000
    0.9987    1.7520   -0.2500 C   0  0  0  0  0  0  0  0  0  0  0  0
    0.5829    3.2128   -0.3677 C   0  0  0  0  0  0  0  0  0  0  0  0
   -0.4384    3.6189    0.6871 C   0  0  0  0  0  0  0  0  0  0  0  0
    1.7299    1.4803   -1.0133 H   0  0  0  0  0  0  0  0  0  0  0  0
    1.4442    1.5502    0.7271 H   0  0  0  0  0  0  0  0  0  0  0  0
    1.4669    3.8508   -0.2831 H   0  0  0  0  0  0  0  0  0  0  0  0
    0.1695    3.3945   -1.3636 H   0  0  0  0  0  0  0  0  0  0  0  0
   -0.0382    3.4759    1.6938 H   0  0  0  0  0  0  0  0  0  0  0  0
   -0.7235    4.6675    0.5866 H   0  0  0  0  0  0  0  0  0  0  0  0
   -1.3459    3.0159    0.6047 H   0  0  0  0  0  0  0  0  0  0  0  0
    0.2723   -3.0814   -1.5549 C   0  0  0  0  0  0  0  0  0  0  0  0
    0.2723   -3.0814   -0.0320 C   0  0  0  0  0  0  0  0  0  0  0  0
    0.2723   -1.6888    0.5640 C   0  0  0  0  0  0  0  0  0  0  0  0
   -0.9127   -1.0254    0.1999 O   0  0  0  0  0  0  0  0  0  0  0  0
   -0.9735    0.2857    0.6851 C   0  0  0  0  0  3  0  0  0  0  0  0
    1.1547   -2.5677   -1.9446 H   0  0  0  0  0  0  0  0  0  0  0  0
   -0.6101   -2.5715   -1.9413 H   0  0  0  0  0  0  0  0  0  0  0  0
    0.2773   -4.0994   -1.9472 H   0  0  0  0  0  0  0  0  0  0  0  0
   -0.6018   -3.6195    0.3436 H   0  0  0  0  0  0  0  0  0  0  0  0
    1.1541   -3.6075    0.3442 H   0  0  0  0  0  0  0  0  0  0  0  0
    0.3492   -1.7425    1.6601 H   0  0  0  0  0  0  0  0  0  0  0  0
    1.1447   -1.1218    0.2018 H   0  0  0  0  0  0  0  0  0  0  0  0
    0.0152    1.0208    0.2163 H   0  0  0  0  0  0  0  0  0  0  0  0
   -0.9315    0.3119    1.7825 H   0  0  0  0  0  0  0  0  0  0  0  0
   -1.9192    0.7159    0.3579 H   0  0  0  0  0  0  0  0  0  0  0  0
  1  2  1  0
  1  4  1  0
  1  5  1  0
  1 23  1  0
  2  3  1  0
  2  6  1  0
  2  7  1  0
  3  8  1  0
  3  9  1  0
  3 10  1  0
 11 12  1  0
 11 16  1  0
 11 17  1  0
 11 18  1  0
 12 13  1  0
 12 19  1  0
 12 20  1  0
 13 14  1  0
 13 21  1  0
 13 22  1  0
 14 15  1  0
 15 24  1  0
 15 25  1  0
M  RAD  1  15   2
M  END
>  <reaction>  (7) 
rmg_rxn_688

>  <mol_properties>  (7) 
{"0": {"label": "*3", "atom_type": "Cs"}, "1": {"label": "*4", "atom_type": "Cs"}, "13": {"label": "*0", "atom_type": "O2s"}, "14": {"label": "*1", "atom_type": "Cs"}, "22": {"label": "*2", "atom_type": "H0"}}

>  <type>  (7) 
unop_3

>  <geom_source>  (7) 
Heuristics

$$$$

     RDKit          3D

 25 23  0  0  0  0  0  0  0  0999 V2000
    0.3600    2.4335   -0.1114 C   0  0  0  0  0  0  0  0  0  0  0  0
    1.7092    1.8532    0.2929 C   0  0  0  0  0  0  0  0  0  0  0  0
    2.2639    0.8821   -0.7414 C   0  0  0  0  0  0  0  0  0  0  0  0
   -0.0205    3.1261    0.6412 H   0  0  0  0  0  0  0  0  0  0  0  0
    0.4355    2.9755   -1.0572 H   0  0  0  0  0  0  0  0  0  0  0  0
    2.4235    2.6666    0.4483 H   0  0  0  0  0  0  0  0  0  0  0  0
    1.6126    1.3437    1.2556 H   0  0  0  0  0  0  0  0  0  0  0  0
    2.3993    1.3751   -1.7071 H   0  0  0  0  0  0  0  0  0  0  0  0
    3.2297    0.4774   -0.4343 H   0  0  0  0  0  0  0  0  0  0  0  0
    1.5820    0.0418   -0.8934 H   0  0  0  0  0  0  0  0  0  0  0  0
   -0.3663   -2.3999   -1.4163 C   0  0  0  0  0  0  0  0  0  0  0  0
   -0.3663   -2.3999    0.1066 C   0  0  0  0  0  0  0  0  0  0  0  0
   -0.3663   -1.0073    0.7027 C   0  0  0  0  0  0  0  0  0  0  0  0
   -1.5514   -0.3439    0.3385 O   0  0  0  0  0  0  0  0  0  0  0  0
   -1.6121    0.9672    0.8237 C   0  0  0  0  0  3  0  0  0  0  0  0
    0.5161   -1.8862   -1.8060 H   0  0  0  0  0  0  0  0  0  0  0  0
   -1.2488   -1.8900   -1.8027 H   0  0  0  0  0  0  0  0  0  0  0  0
   -0.3614   -3.4179   -1.8086 H   0  0  0  0  0  0  0  0  0  0  0  0
   -1.2404   -2.9380    0.4822 H   0  0  0  0  0  0  0  0  0  0  0  0
    0.5154   -2.9260    0.4829 H   0  0  0  0  0  0  0  0  0  0  0  0
   -0.2895   -1.0610    1.7987 H   0  0  0  0  0  0  0  0  0  0  0  0
    0.5061   -0.4403    0.3405 H   0  0  0  0  0  0  0  0  0  0  0  0
   -0.6235    1.7023    0.3549 H   0  0  0  0  0  0  0  0  0  0  0  0
   -1.5701    0.9934    1.9212 H   0  0  0  0  0  0  0  0  0  0  0  0
   -2.5578    1.3974    0.4966 H   0  0  0  0  0  0  0  0  0  0  0  0
  1  2  1  0
  1  4  1  0
  1  5  1  0
  1 23  1  0
  2  3  1  0
  2  6  1  0
  2  7  1  0
  3  8  1  0
  3  9  1  0
  3 10  1  0
 11 12  1  0
 11 16  1  0
 11 17  1  0
 11 18  1  0
 12 13  1  0
 12 19  1  0
 12 20  1  0
 13 14  1  0
 13 21  1  0
 13 22  1  0
 14 15  1  0
 15 24  1  0
 15 25  1  0
M  RAD  1  15   2
M  END
>  <reaction>  (8) 
rmg_rxn_688

>  <mol_properties>  (8) 
{"0": {"label": "*3", "atom_type": "Cs"}, "1": {"label": "*4", "atom_type": "Cs"}, "13": {"label": "*0", "atom_type": "O2s"}, "14": {"label": "*1", "atom_type": "Cs"}, "22": {"label": "*2", "atom_type": "H0"}}

>  <type>  (8) 
unop_4

>  <geom_source>  (8) 
Heuristics

$$$$

     RDKit          3D

 25 23  0  0  0  0  0  0  0  0999 V2000
    0.7748    1.8061   -0.4675 C   0  0  0  0  0  0  0  0  0  0  0  0
    0.6964    3.2299    0.0684 C   0  0  0  0  0  0  0  0  0  0  0  0
    0.7705    3.2895    1.5888 C   0  0  0  0  0  0  0  0  0  0  0  0
    0.7202    1.7841   -1.5572 H   0  0  0  0  0  0  0  0  0  0  0  0
    1.7110    1.3276   -0.1696 H   0  0  0  0  0  0  0  0  0  0  0  0
    1.5081    3.8250   -0.3592 H   0  0  0  0  0  0  0  0  0  0  0  0
   -0.2338    3.6952   -0.2692 H   0  0  0  0  0  0  0  0  0  0  0  0
    1.7065    2.8578    1.9515 H   0  0  0  0  0  0  0  0  0  0  0  0
    0.7128    4.3165    1.9533 H   0  0  0  0  0  0  0  0  0  0  0  0
   -0.0492    2.7269    2.0422 H   0  0  0  0  0  0  0  0  0  0  0  0
    0.0485   -3.0273   -1.7724 C   0  0  0  0  0  0  0  0  0  0  0  0
    0.0485   -3.0273   -0.2495 C   0  0  0  0  0  0  0  0  0  0  0  0
    0.0485   -1.6347    0.3466 C   0  0  0  0  0  0  0  0  0  0  0  0
   -1.1365   -0.9713   -0.0175 O   0  0  0  0  0  0  0  0  0  0  0  0
   -1.1973    0.3398    0.4676 C   0  0  0  0  0  3  0  0  0  0  0  0
    0.9309   -2.5136   -2.1621 H   0  0  0  0  0  0  0  0  0  0  0  0
   -0.8339   -2.5174   -2.1588 H   0  0  0  0  0  0  0  0  0  0  0  0
    0.0534   -4.0453   -2.1647 H   0  0  0  0  0  0  0  0  0  0  0  0
   -0.8256   -3.5654    0.1262 H   0  0  0  0  0  0  0  0  0  0  0  0
    0.9302   -3.5534    0.1268 H   0  0  0  0  0  0  0  0  0  0  0  0
    0.1253   -1.6884    1.4427 H   0  0  0  0  0  0  0  0  0  0  0  0
    0.9209   -1.0677   -0.0156 H   0  0  0  0  0  0  0  0  0  0  0  0
   -0.2087    1.0749   -0.0011 H   0  0  0  0  0  0  0  0  0  0  0  0
   -1.1553    0.3659    1.5651 H   0  0  0  0  0  0  0  0  0  0  0  0
   -2.1430    0.7700    0.1405 H   0  0  0  0  0  0  0  0  0  0  0  0
  1  2  1  0
  1  4  1  0
  1  5  1  0
  1 23  1  0
  2  3  1  0
  2  6  1  0
  2  7  1  0
  3  8  1  0
  3  9  1  0
  3 10  1  0
 11 12  1  0
 11 16  1  0
 11 17  1  0
 11 18  1  0
 12 13  1  0
 12 19  1  0
 12 20  1  0
 13 14  1  0
 13 21  1  0
 13 22  1  0
 14 15  1  0
 15 24  1  0
 15 25  1  0
M  RAD  1  15   2
M  END
>  <reaction>  (9) 
rmg_rxn_688

>  <mol_properties>  (9) 
{"0": {"label": "*3", "atom_type": "Cs"}, "1": {"label": "*4", "atom_type": "Cs"}, "13": {"label": "*0", "atom_type": "O2s"}, "14": {"label": "*1", "atom_type": "Cs"}, "22": {"label": "*2", "atom_type": "H0"}}

>  <type>  (9) 
unop_5

>  <geom_source>  (9) 
Heuristics

$$$$

     RDKit          3D

 25 23  0  0  0  0  0  0  0  0999 V2000
    0.3320    2.3074   -0.3078 C   0  0  0  0  0  0  0  0  0  0  0  0
    1.5456    2.2371    0.6102 C   0  0  0  0  0  0  0  0  0  0  0  0
    2.5975    1.2515    0.1176 C   0  0  0  0  0  0  0  0  0  0  0  0
   -0.4095    3.0179    0.0613 H   0  0  0  0  0  0  0  0  0  0  0  0
    0.6213    2.6184   -1.3146 H   0  0  0  0  0  0  0  0  0  0  0  0
    1.9921    3.2312    0.7001 H   0  0  0  0  0  0  0  0  0  0  0  0
    1.2249    1.9543    1.6166 H   0  0  0  0  0  0  0  0  0  0  0  0
    2.9582    1.5292   -0.8758 H   0  0  0  0  0  0  0  0  0  0  0  0
    3.4582    1.2152    0.7875 H   0  0  0  0  0  0  0  0  0  0  0  0
    2.1849    0.2421    0.0479 H   0  0  0  0  0  0  0  0  0  0  0  0
   -0.3943   -2.5260   -1.6127 C   0  0  0  0  0  0  0  0  0  0  0  0
   -0.3943   -2.5260   -0.0898 C   0  0  0  0  0  0  0  0  0  0  0  0
   -0.3943   -1.1334    0.5063 C   0  0  0  0  0  0  0  0  0  0  0  0
   -1.5794   -0.4700    0.1421 O   0  0  0  0  0  0  0  0  0  0  0  0
   -1.6402    0.8411    0.6273 C   0  0  0  0  0  3  0  0  0  0  0  0
    0.4880   -2.0123   -2.0024 H   0  0  0  0  0  0  0  0  0  0  0  0
   -1.2768   -2.0161   -1.9991 H   0  0  0  0  0  0  0  0  0  0  0  0
   -0.3894   -3.5440   -2.0050 H   0  0  0  0  0  0  0  0  0  0  0  0
   -1.2684   -3.0642    0.2858 H   0  0  0  0  0  0  0  0  0  0  0  0
    0.4874   -3.0521    0.2865 H   0  0  0  0  0  0  0  0  0  0  0  0
   -0.3175   -1.1871    1.6023 H   0  0  0  0  0  0  0  0  0  0  0  0
    0.4780   -0.5664    0.1441 H   0  0  0  0  0  0  0  0  0  0  0  0
   -0.6515    1.5762    0.1585 H   0  0  0  0  0  0  0  0  0  0  0  0
   -1.5982    0.8672    1.7248 H   0  0  0  0  0  0  0  0  0  0  0  0
   -2.5858    1.2713    0.3001 H   0  0  0  0  0  0  0  0  0  0  0  0
  1  2  1  0
  1  4  1  0
  1  5  1  0
  1 23  1  0
  2  3  1  0
  2  6  1  0
  2  7  1  0
  3  8  1  0
  3  9  1  0
  3 10  1  0
 11 12  1  0
 11 16  1  0
 11 17  1  0
 11 18  1  0
 12 13  1  0
 12 19  1  0
 12 20  1  0
 13 14  1  0
 13 21  1  0
 13 22  1  0
 14 15  1  0
 15 24  1  0
 15 25  1  0
M  RAD  1  15   2
M  END
>  <reaction>  (10) 
rmg_rxn_688

>  <mol_properties>  (10) 
{"0": {"label": "*3", "atom_type": "Cs"}, "1": {"label": "*4", "atom_type": "Cs"}, "13": {"label": "*0", "atom_type": "O2s"}, "14": {"label": "*1", "atom_type": "Cs"}, "22": {"label": "*2", "atom_type": "H0"}}

>  <type>  (10) 
unop_6

>  <geom_source>  (10) 
Heuristics

$$$$

     RDKit          3D

 25 23  0  0  0  0  0  0  0  0999 V2000
    0.3926    2.1338   -0.4491 C   0  0  0  0  0  0  0  0  0  0  0  0
    1.2549    2.6736    0.6847 C   0  0  0  0  0  0  0  0  0  0  0  0
    2.5248    1.8590    0.8950 C   0  0  0  0  0  0  0  0  0  0  0  0
   -0.5115    2.7298   -0.5843 H   0  0  0  0  0  0  0  0  0  0  0  0
    0.9415    2.1393   -1.3940 H   0  0  0  0  0  0  0  0  0  0  0  0
    1.5201    3.7139    0.4768 H   0  0  0  0  0  0  0  0  0  0  0  0
    0.6730    2.6861    1.6104 H   0  0  0  0  0  0  0  0  0  0  0  0
    3.1409    1.8558   -0.0075 H   0  0  0  0  0  0  0  0  0  0  0  0
    3.1287    2.2607    1.7105 H   0  0  0  0  0  0  0  0  0  0  0  0
    2.2871    0.8198    1.1351 H   0  0  0  0  0  0  0  0  0  0  0  0
   -0.3337   -2.6996   -1.7540 C   0  0  0  0  0  0  0  0  0  0  0  0
   -0.3337   -2.6996   -0.2311 C   0  0  0  0  0  0  0  0  0  0  0  0
   -0.3337   -1.3070    0.3649 C   0  0  0  0  0  0  0  0  0  0  0  0
   -1.5188   -0.6436    0.0008 O   0  0  0  0  0  0  0  0  0  0  0  0
   -1.5795    0.6675    0.4860 C   0  0  0  0  0  3  0  0  0  0  0  0
    0.5487   -2.1860   -2.1437 H   0  0  0  0  0  0  0  0  0  0  0  0
   -1.2162   -2.1897   -2.1404 H   0  0  0  0  0  0  0  0  0  0  0  0
   -0.3288   -3.7176   -2.1463 H   0  0  0  0  0  0  0  0  0  0  0  0
   -1.2078   -3.2378    0.1445 H   0  0  0  0  0  0  0  0  0  0  0  0
    0.5480   -3.2258    0.1452 H   0  0  0  0  0  0  0  0  0  0  0  0
   -0.2569   -1.3607    1.4610 H   0  0  0  0  0  0  0  0  0  0  0  0
    0.5387   -0.7400    0.0028 H   0  0  0  0  0  0  0  0  0  0  0  0
   -0.5909    1.4026    0.0172 H   0  0  0  0  0  0  0  0  0  0  0  0
   -1.5375    0.6936    1.5835 H   0  0  0  0  0  0  0  0  0  0  0  0
   -2.5252    1.0976    0.1588 H   0  0  0  0  0  0  0  0  0  0  0  0
  1  2  1  0
  1  4  1  0
  1  5  1  0
  1 23  1  0
  2  3  1  0
  2  6  1  0
  2  7  1  0
  3  8  1  0
  3  9  1  0
  3 10  1  0
 11 12  1  0
 11 16  1  0
 11 17  1  0
 11 18  1  0
 12 13  1  0
 12 19  1  0
 12 20  1  0
 13 14  1  0
 13 21  1  0
 13 22  1  0
 14 15  1  0
 15 24  1  0
 15 25  1  0
M  RAD  1  15   2
M  END
>  <reaction>  (11) 
rmg_rxn_688

>  <mol_properties>  (11) 
{"0": {"label": "*3", "atom_type": "Cs"}, "1": {"label": "*4", "atom_type": "Cs"}, "13": {"label": "*0", "atom_type": "O2s"}, "14": {"label": "*1", "atom_type": "Cs"}, "22": {"label": "*2", "atom_type": "H0"}}

>  <type>  (11) 
unop_7

>  <geom_source>  (11) 
Heuristics

$$$$

     RDKit          3D

 25 23  0  0  0  0  0  0  0  0999 V2000
    1.0608    1.9840    0.2042 C   0  0  0  0  0  0  0  0  0  0  0  0
    0.6640    2.6617   -1.1011 C   0  0  0  0  0  0  0  0  0  0  0  0
   -0.8460    2.7485   -1.2818 C   0  0  0  0  0  0  0  0  0  0  0  0
    2.1451    1.9314    0.3155 H   0  0  0  0  0  0  0  0  0  0  0  0
    0.6622    2.5283    1.0639 H   0  0  0  0  0  0  0  0  0  0  0  0
    1.0930    3.6671   -1.1342 H   0  0  0  0  0  0  0  0  0  0  0  0
    1.1005    2.1157   -1.9420 H   0  0  0  0  0  0  0  0  0  0  0  0
   -1.3047    3.3168   -0.4690 H   0  0  0  0  0  0  0  0  0  0  0  0
   -1.1102    3.2365   -2.2215 H   0  0  0  0  0  0  0  0  0  0  0  0
   -1.2971    1.7532   -1.2832 H   0  0  0  0  0  0  0  0  0  0  0  0
    0.3344   -2.8494   -1.1007 C   0  0  0  0  0  0  0  0  0  0  0  0
    0.3344   -2.8494    0.4222 C   0  0  0  0  0  0  0  0  0  0  0  0
    0.3344   -1.4568    1.0183 C   0  0  0  0  0  0  0  0  0  0  0  0
   -0.8506   -0.7934    0.6542 O   0  0  0  0  0  0  0  0  0  0  0  0
   -0.9114    0.5177    1.1393 C   0  0  0  0  0  3  0  0  0  0  0  0
    1.2168   -2.3358   -1.4904 H   0  0  0  0  0  0  0  0  0  0  0  0
   -0.5480   -2.3395   -1.4871 H   0  0  0  0  0  0  0  0  0  0  0  0
    0.3393   -3.8674   -1.4930 H   0  0  0  0  0  0  0  0  0  0  0  0
   -0.5397   -3.3876    0.7979 H   0  0  0  0  0  0  0  0  0  0  0  0
    1.2162   -3.3756    0.7985 H   0  0  0  0  0  0  0  0  0  0  0  0
    0.4113   -1.5105    2.1144 H   0  0  0  0  0  0  0  0  0  0  0  0
    1.2068   -0.8898    0.6561 H   0  0  0  0  0  0  0  0  0  0  0  0
    0.0773    1.2528    0.6706 H   0  0  0  0  0  0  0  0  0  0  0  0
   -0.8694    0.5438    2.2368 H   0  0  0  0  0  0  0  0  0  0  0  0
   -1.8571    0.9479    0.8122 H   0  0  0  0  0  0  0  0  0  0  0  0
  1  2  1  0
  1  4  1  0
  1  5  1  0
  1 23  1  0
  2  3  1  0
  2  6  1  0
  2  7  1  0
  3  8  1  0
  3  9  1  0
  3 10  1  0
 11 12  1  0
 11 16  1  0
 11 17  1  0
 11 18  1  0
 12 13  1  0
 12 19  1  0
 12 20  1  0
 13 14  1  0
 13 21  1  0
 13 22  1  0
 14 15  1  0
 15 24  1  0
 15 25  1  0
M  RAD  1  15   2
M  END
>  <reaction>  (12) 
rmg_rxn_688

>  <mol_properties>  (12) 
{"0": {"label": "*3", "atom_type": "Cs"}, "1": {"label": "*4", "atom_type": "Cs"}, "13": {"label": "*0", "atom_type": "O2s"}, "14": {"label": "*1", "atom_type": "Cs"}, "22": {"label": "*2", "atom_type": "H0"}}

>  <type>  (12) 
unop_8

>  <geom_source>  (12) 
Heuristics

$$$$

     RDKit          3D

 25 23  0  0  0  0  0  0  0  0999 V2000
    0.4729    2.4805    0.0906 C   0  0  0  0  0  0  0  0  0  0  0  0
    1.7056    1.6271   -0.1790 C   0  0  0  0  0  0  0  0  0  0  0  0
    1.5954    0.8290   -1.4719 C   0  0  0  0  0  0  0  0  0  0  0  0
    0.5706    3.0440    1.0200 H   0  0  0  0  0  0  0  0  0  0  0  0
    0.3084    3.1958   -0.7188 H   0  0  0  0  0  0  0  0  0  0  0  0
    2.5902    2.2685   -0.2215 H   0  0  0  0  0  0  0  0  0  0  0  0
    1.8649    0.9426    0.6588 H   0  0  0  0  0  0  0  0  0  0  0  0
    1.4662    1.4924   -2.3306 H   0  0  0  0  0  0  0  0  0  0  0  0
    2.4869    0.2247   -1.6475 H   0  0  0  0  0  0  0  0  0  0  0  0
    0.7351    0.1559   -1.4433 H   0  0  0  0  0  0  0  0  0  0  0  0
   -0.2534   -2.3530   -1.2143 C   0  0  0  0  0  0  0  0  0  0  0  0
   -0.2534   -2.3530    0.3086 C   0  0  0  0  0  0  0  0  0  0  0  0
   -0.2534   -0.9604    0.9047 C   0  0  0  0  0  0  0  0  0  0  0  0
   -1.4385   -0.2969    0.5405 O   0  0  0  0  0  0  0  0  0  0  0  0
   -1.4992    1.0142    1.0257 C   0  0  0  0  0  3  0  0  0  0  0  0
    0.6290   -1.8393   -1.6040 H   0  0  0  0  0  0  0  0  0  0  0  0
   -1.1359   -1.8431   -1.6007 H   0  0  0  0  0  0  0  0  0  0  0  0
   -0.2485   -3.3710   -1.6066 H   0  0  0  0  0  0  0  0  0  0  0  0
   -1.1275   -2.8911    0.6843 H   0  0  0  0  0  0  0  0  0  0  0  0
    0.6283   -2.8791    0.6849 H   0  0  0  0  0  0  0  0  0  0  0  0
   -0.1766   -1.0141    2.0007 H   0  0  0  0  0  0  0  0  0  0  0  0
    0.6190   -0.3934    0.5425 H   0  0  0  0  0  0  0  0  0  0  0  0
   -0.5106    1.7492    0.5570 H   0  0  0  0  0  0  0  0  0  0  0  0
   -1.4572    1.0403    2.1232 H   0  0  0  0  0  0  0  0  0  0  0  0
   -2.4449    1.4443    0.6986 H   0  0  0  0  0  0  0  0  0  0  0  0
  1  2  1  0
  1  4  1  0
  1  5  1  0
  1 23  1  0
  2  3  1  0
  2  6  1  0
  2  7  1  0
  3  8  1  0
  3  9  1  0
  3 10  1  0
 11 12  1  0
 11 16  1  0
 11 17  1  0
 11 18  1  0
 12 13  1  0
 12 19  1  0
 12 20  1  0
 13 14  1  0
 13 21  1  0
 13 22  1  0
 14 15  1  0
 15 24  1  0
 15 25  1  0
M  RAD  1  15   2
M  END
>  <reaction>  (13) 
rmg_rxn_688

>  <mol_properties>  (13) 
{"0": {"label": "*3", "atom_type": "Cs"}, "1": {"label": "*4", "atom_type": "Cs"}, "13": {"label": "*0", "atom_type": "O2s"}, "14": {"label": "*1", "atom_type": "Cs"}, "22": {"label": "*2", "atom_type": "H0"}}

>  <type>  (13) 
unop_9

>  <geom_source>  (13) 
Heuristics

$$$$

     RDKit          3D

 25 23  0  0  0  0  0  0  0  0999 V2000
    0.9610    2.1669    0.3081 C   0  0  0  0  0  0  0  0  0  0  0  0
    0.9156    2.2344   -1.2130 C   0  0  0  0  0  0  0  0  0  0  0  0
   -0.4954    2.0786   -1.7654 C   0  0  0  0  0  0  0  0  0  0  0  0
    1.9791    2.2804    0.6845 H   0  0  0  0  0  0  0  0  0  0  0  0
    0.3500    2.9562    0.7526 H   0  0  0  0  0  0  0  0  0  0  0  0
    1.3344    3.1876   -1.5477 H   0  0  0  0  0  0  0  0  0  0  0  0
    1.5584    1.4549   -1.6313 H   0  0  0  0  0  0  0  0  0  0  0  0
   -1.1524    2.8651   -1.3862 H   0  0  0  0  0  0  0  0  0  0  0  0
   -0.5075    2.1297   -2.8554 H   0  0  0  0  0  0  0  0  0  0  0  0
   -0.9266    1.1188   -1.4705 H   0  0  0  0  0  0  0  0  0  0  0  0
    0.2347   -2.6665   -0.9967 C   0  0  0  0  0  0  0  0  0  0  0  0
    0.2347   -2.6665    0.5262 C   0  0  0  0  0  0  0  0  0  0  0  0
    0.2347   -1.2739    1.1222 C   0  0  0  0  0  0  0  0  0  0  0  0
   -0.9503   -0.6105    0.7581 O   0  0  0  0  0  0  0  0  0  0  0  0
   -1.0111    0.7006    1.2432 C   0  0  0  0  0  3  0  0  0  0  0  0
    1.1171   -2.1529   -1.3865 H   0  0  0  0  0  0  0  0  0  0  0  0
   -0.6477   -2.1566   -1.3832 H   0  0  0  0  0  0  0  0  0  0  0  0
    0.2396   -3.6845   -1.3890 H   0  0  0  0  0  0  0  0  0  0  0  0
   -0.6394   -3.2047    0.9018 H   0  0  0  0  0  0  0  0  0  0  0  0
    1.1164   -3.1927    0.9024 H   0  0  0  0  0  0  0  0  0  0  0  0
    0.3115   -1.3276    2.2183 H   0  0  0  0  0  0  0  0  0  0  0  0
    1.1071   -0.7069    0.7600 H   0  0  0  0  0  0  0  0  0  0  0  0
   -0.0224    1.4357    0.7745 H   0  0  0  0  0  0  0  0  0  0  0  0
   -0.9691    0.7267    2.3407 H   0  0  0  0  0  0  0  0  0  0  0  0
   -1.9568    1.1307    0.9161 H   0  0  0  0  0  0  0  0  0  0  0  0
  1  2  1  0
  1  4  1  0
  1  5  1  0
  1 23  1  0
  2  3  1  0
  2  6  1  0
  2  7  1  0
  3  8  1  0
  3  9  1  0
  3 10  1  0
 11 12  1  0
 11 16  1  0
 11 17  1  0
 11 18  1  0
 12 13  1  0
 12 19  1  0
 12 20  1  0
 13 14  1  0
 13 21  1  0
 13 22  1  0
 14 15  1  0
 15 24  1  0
 15 25  1  0
M  RAD  1  15   2
M  END
>  <reaction>  (14) 
rmg_rxn_688

>  <mol_properties>  (14) 
{"0": {"label": "*3", "atom_type": "Cs"}, "1": {"label": "*4", "atom_type": "Cs"}, "13": {"label": "*0", "atom_type": "O2s"}, "14": {"label": "*1", "atom_type": "Cs"}, "22": {"label": "*2", "atom_type": "H0"}}

>  <type>  (14) 
unop_10

>  <geom_source>  (14) 
Heuristics

$$$$

     RDKit          3D

 25 23  0  0  0  0  0  0  0  0999 V2000
    0.5370    1.9550   -0.5129 C   0  0  0  0  0  0  0  0  0  0  0  0
    0.9264    3.0418    0.4811 C   0  0  0  0  0  0  0  0  0  0  0  0
    1.9778    2.5744    1.4794 C   0  0  0  0  0  0  0  0  0  0  0  0
   -0.2163    2.3085   -1.2190 H   0  0  0  0  0  0  0  0  0  0  0  0
    1.4047    1.6224   -1.0878 H   0  0  0  0  0  0  0  0  0  0  0  0
    1.3018    3.9138   -0.0615 H   0  0  0  0  0  0  0  0  0  0  0  0
    0.0363    3.3777    1.0203 H   0  0  0  0  0  0  0  0  0  0  0  0
    2.8909    2.2613    0.9672 H   0  0  0  0  0  0  0  0  0  0  0  0
    2.2434    3.3658    2.1823 H   0  0  0  0  0  0  0  0  0  0  0  0
    1.6153    1.7210    2.0577 H   0  0  0  0  0  0  0  0  0  0  0  0
   -0.1894   -2.8784   -1.8178 C   0  0  0  0  0  0  0  0  0  0  0  0
   -0.1894   -2.8784   -0.2949 C   0  0  0  0  0  0  0  0  0  0  0  0
   -0.1894   -1.4858    0.3012 C   0  0  0  0  0  0  0  0  0  0  0  0
   -1.3744   -0.8224   -0.0630 O   0  0  0  0  0  0  0  0  0  0  0  0
   -1.4352    0.4887    0.4222 C   0  0  0  0  0  3  0  0  0  0  0  0
    0.6930   -2.3647   -2.2075 H   0  0  0  0  0  0  0  0  0  0  0  0
   -1.0718   -2.3685   -2.2042 H   0  0  0  0  0  0  0  0  0  0  0  0
   -0.1844   -3.8964   -2.2101 H   0  0  0  0  0  0  0  0  0  0  0  0
   -1.0635   -3.4165    0.0808 H   0  0  0  0  0  0  0  0  0  0  0  0
    0.6924   -3.4045    0.0814 H   0  0  0  0  0  0  0  0  0  0  0  0
   -0.1125   -1.5395    1.3972 H   0  0  0  0  0  0  0  0  0  0  0  0
    0.6830   -0.9188   -0.0610 H   0  0  0  0  0  0  0  0  0  0  0  0
   -0.4465    1.2238   -0.0466 H   0  0  0  0  0  0  0  0  0  0  0  0
   -1.3932    0.5149    1.5197 H   0  0  0  0  0  0  0  0  0  0  0  0
   -2.3809    0.9189    0.0951 H   0  0  0  0  0  0  0  0  0  0  0  0
  1  2  1  0
  1  4  1  0
  1  5  1  0
  1 23  1  0
  2  3  1  0
  2  6  1  0
  2  7  1  0
  3  8  1  0
  3  9  1  0
  3 10  1  0
 11 12  1  0
 11 16  1  0
 11 17  1  0
 11 18  1  0
 12 13  1  0
 12 19  1  0
 12 20  1  0
 13 14  1  0
 13 21  1  0
 13 22  1  0
 14 15  1  0
 15 24  1  0
 15 25  1  0
M  RAD  1  15   2
M  END
>  <reaction>  (15) 
rmg_rxn_688

>  <mol_properties>  (15) 
{"0": {"label": "*3", "atom_type": "Cs"}, "1": {"label": "*4", "atom_type": "Cs"}, "13": {"label": "*0", "atom_type": "O2s"}, "14": {"label": "*1", "atom_type": "Cs"}, "22": {"label": "*2", "atom_type": "H0"}}

>  <type>  (15) 
unop_11

>  <geom_source>  (15) 
Heuristics

$$$$

     RDKit          3D

 25 23  0  0  0  0  0  0  0  0999 V2000
    0.6396    2.4413    0.2432 C   0  0  0  0  0  0  0  0  0  0  0  0
    1.5349    1.6249   -0.6800 C   0  0  0  0  0  0  0  0  0  0  0  0
    0.7830    1.0613   -1.8790 C   0  0  0  0  0  0  0  0  0  0  0  0
    1.1956    2.8361    1.0952 H   0  0  0  0  0  0  0  0  0  0  0  0
    0.1975    3.2871   -0.2889 H   0  0  0  0  0  0  0  0  0  0  0  0
    2.3624    2.2485   -1.0296 H   0  0  0  0  0  0  0  0  0  0  0  0
    1.9878    0.8047   -0.1161 H   0  0  0  0  0  0  0  0  0  0  0  0
    0.3454    1.8636   -2.4780 H   0  0  0  0  0  0  0  0  0  0  0  0
    1.4404    0.4802   -2.5278 H   0  0  0  0  0  0  0  0  0  0  0  0
   -0.0321    0.4085   -1.5572 H   0  0  0  0  0  0  0  0  0  0  0  0
   -0.0868   -2.3921   -1.0617 C   0  0  0  0  0  0  0  0  0  0  0  0
   -0.0868   -2.3921    0.4612 C   0  0  0  0  0  0  0  0  0  0  0  0
   -0.0868   -0.9995    1.0573 C   0  0  0  0  0  0  0  0  0  0  0  0
   -1.2718   -0.3361    0.6931 O   0  0  0  0  0  0  0  0  0  0  0  0
   -1.3326    0.9750    1.1783 C   0  0  0  0  0  3  0  0  0  0  0  0
    0.7956   -1.8785   -1.4514 H   0  0  0  0  0  0  0  0  0  0  0  0
   -0.9692   -1.8822   -1.4481 H   0  0  0  0  0  0  0  0  0  0  0  0
   -0.0819   -3.4101   -1.4540 H   0  0  0  0  0  0  0  0  0  0  0  0
   -0.9609   -2.9303    0.8368 H   0  0  0  0  0  0  0  0  0  0  0  0
    0.7949   -2.9183    0.8375 H   0  0  0  0  0  0  0  0  0  0  0  0
   -0.0100   -1.0532    2.1533 H   0  0  0  0  0  0  0  0  0  0  0  0
    0.7856   -0.4325    0.6951 H   0  0  0  0  0  0  0  0  0  0  0  0
   -0.3439    1.7101    0.7095 H   0  0  0  0  0  0  0  0  0  0  0  0
   -1.2906    1.0011    2.2758 H   0  0  0  0  0  0  0  0  0  0  0  0
   -2.2783    1.4051    0.8512 H   0  0  0  0  0  0  0  0  0  0  0  0
  1  2  1  0
  1  4  1  0
  1  5  1  0
  1 23  1  0
  2  3  1  0
  2  6  1  0
  2  7  1  0
  3  8  1  0
  3  9  1  0
  3 10  1  0
 11 12  1  0
 11 16  1  0
 11 17  1  0
 11 18  1  0
 12 13  1  0
 12 19  1  0
 12 20  1  0
 13 14  1  0
 13 21  1  0
 13 22  1  0
 14 15  1  0
 15 24  1  0
 15 25  1  0
M  RAD  1  15   2
M  END
>  <reaction>  (16) 
rmg_rxn_688

>  <mol_properties>  (16) 
{"0": {"label": "*3", "atom_type": "Cs"}, "1": {"label": "*4", "atom_type": "Cs"}, "13": {"label": "*0", "atom_type": "O2s"}, "14": {"label": "*1", "atom_type": "Cs"}, "22": {"label": "*2", "atom_type": "H0"}}

>  <type>  (16) 
unop_12

>  <geom_source>  (16) 
Heuristics

$$$$

     RDKit          3D

 25 23  0  0  0  0  0  0  0  0999 V2000
    0.9537   -1.0659    0.3867 O   0  0  0  0  0  0  0  0  0  0  0  0
    3.0465   -0.0582   -0.2846 C   0  0  0  0  0  0  0  0  0  0  0  0
   -3.5223   -0.4335    0.0913 C   0  0  0  0  0  0  0  0  0  0  0  0
    1.9727   -0.1760    0.8017 C   0  0  0  0  0  0  0  0  0  0  0  0
   -3.2041    1.0440   -0.1134 C   0  0  0  0  0  0  0  0  0  0  0  0
   -2.4742   -1.3198   -0.5721 C   0  0  0  0  0  0  0  0  0  0  0  0
    4.2031    0.8263    0.1723 C   0  0  0  0  0  0  0  0  0  0  0  0
   -0.1243   -0.3473   -0.1696 C   0  0  0  0  0  3  0  0  0  0  0  0
   -3.5512   -0.6548    1.1798 H   0  0  0  0  0  0  0  0  0  0  0  0
   -4.5211   -0.6582   -0.3410 H   0  0  0  0  0  0  0  0  0  0  0  0
    2.6034    0.3770   -1.2056 H   0  0  0  0  0  0  0  0  0  0  0  0
    3.4374   -1.0697   -0.5288 H   0  0  0  0  0  0  0  0  0  0  0  0
    2.4397   -0.6028    1.7152 H   0  0  0  0  0  0  0  0  0  0  0  0
    1.5937    0.8355    1.0862 H   0  0  0  0  0  0  0  0  0  0  0  0
   -2.2173    1.2919    0.3325 H   0  0  0  0  0  0  0  0  0  0  0  0
   -3.1896    1.2892   -1.1968 H   0  0  0  0  0  0  0  0  0  0  0  0
   -3.9824    1.6632    0.3804 H   0  0  0  0  0  0  0  0  0  0  0  0
   -2.4463   -1.1322   -1.6667 H   0  0  0  0  0  0  0  0  0  0  0  0
   -2.7267   -2.3873   -0.4002 H   0  0  0  0  0  0  0  0  0  0  0  0
   -1.3060   -1.0820   -0.0664 H   0  0  0  0  0  0  0  0  0  0  0  0
    3.8385    1.8505    0.4006 H   0  0  0  0  0  0  0  0  0  0  0  0
    4.6833    0.3972    1.0775 H   0  0  0  0  0  0  0  0  0  0  0  0
    4.9625    0.8915   -0.6351 H   0  0  0  0  0  0  0  0  0  0  0  0
   -0.6540    0.2554    0.6006 H   0  0  0  0  0  0  0  0  0  0  0  0
    0.1849    0.2659   -1.0443 H   0  0  0  0  0  0  0  0  0  0  0  0
  1  8  1  0
  1  4  1  0
  2  7  1  0
  2  4  1  0
  2 11  1  0
  2 12  1  0
  3  5  1  0
  3  6  1  0
  3  9  1  0
  3 10  1  0
  4 13  1  0
  4 14  1  0
  5 15  1  0
  5 16  1  0
  5 17  1  0
  6 18  1  0
  6 19  1  0
  6 20  1  0
  7 21  1  0
  7 22  1  0
  7 23  1  0
  8 24  1  0
  8 25  1  0
M  RAD  1   8   2
M  END
>  <reaction>  (17) 
rmg_rxn_688

>  <mol_properties>  (17) 
{"0": {"label": "*3", "atom_type": "Cs"}, "1": {"label": "*4", "atom_type": "Cs"}, "13": {"label": "*0", "atom_type": "O2s"}, "14": {"label": "*1", "atom_type": "Cs"}, "22": {"label": "*2", "atom_type": "H0"}}

>  <type>  (17) 
unop_13

>  <geom_source>  (17) 
AutoTST

$$$$

     RDKit          3D

 25 23  0  0  0  0  0  0  0  0999 V2000
    0.8131    2.3299    0.3182 C   0  0  0  0  0  0  0  0  0  0  0  0
    1.2406    1.8505   -1.0631 C   0  0  0  0  0  0  0  0  0  0  0  0
    0.0566    1.4935   -1.9527 C   0  0  0  0  0  0  0  0  0  0  0  0
    1.6741    2.5805    0.9401 H   0  0  0  0  0  0  0  0  0  0  0  0
    0.1826    3.2194    0.2452 H   0  0  0  0  0  0  0  0  0  0  0  0
    1.8396    2.6261   -1.5483 H   0  0  0  0  0  0  0  0  0  0  0  0
    1.8941    0.9798   -0.9601 H   0  0  0  0  0  0  0  0  0  0  0  0
   -0.5976    2.3567   -2.0973 H   0  0  0  0  0  0  0  0  0  0  0  0
    0.3827    1.1527   -2.9369 H   0  0  0  0  0  0  0  0  0  0  0  0
   -0.5427    0.6974   -1.5045 H   0  0  0  0  0  0  0  0  0  0  0  0
    0.0867   -2.5036   -0.9867 C   0  0  0  0  0  0  0  0  0  0  0  0
    0.0867   -2.5036    0.5362 C   0  0  0  0  0  0  0  0  0  0  0  0
    0.0867   -1.1110    1.1322 C   0  0  0  0  0  0  0  0  0  0  0  0
   -1.0983   -0.4475    0.7681 O   0  0  0  0  0  0  0  0  0  0  0  0
   -1.1591    0.8636    1.2532 C   0  0  0  0  0  3  0  0  0  0  0  0
    0.9691   -1.9899   -1.3764 H   0  0  0  0  0  0  0  0  0  0  0  0
   -0.7957   -1.9937   -1.3732 H   0  0  0  0  0  0  0  0  0  0  0  0
    0.0916   -3.5216   -1.3790 H   0  0  0  0  0  0  0  0  0  0  0  0
   -0.7874   -3.0417    0.9118 H   0  0  0  0  0  0  0  0  0  0  0  0
    0.9684   -3.0297    0.9124 H   0  0  0  0  0  0  0  0  0  0  0  0
    0.1635   -1.1647    2.2283 H   0  0  0  0  0  0  0  0  0  0  0  0
    0.9591   -0.5440    0.7700 H   0  0  0  0  0  0  0  0  0  0  0  0
   -0.1704    1.5986    0.7845 H   0  0  0  0  0  0  0  0  0  0  0  0
   -1.1171    0.8897    2.3507 H   0  0  0  0  0  0  0  0  0  0  0  0
   -2.1048    1.2937    0.9261 H   0  0  0  0  0  0  0  0  0  0  0  0
  1  2  1  0
  1  4  1  0
  1  5  1  0
  1 23  1  0
  2  3  1  0
  2  6  1  0
  2  7  1  0
  3  8  1  0
  3  9  1  0
  3 10  1  0
 11 12  1  0
 11 16  1  0
 11 17  1  0
 11 18  1  0
 12 13  1  0
 12 19  1  0
 12 20  1  0
 13 14  1  0
 13 21  1  0
 13 22  1  0
 14 15  1  0
 15 24  1  0
 15 25  1  0
M  RAD  1  15   2
M  END
>  <reaction>  (18) 
rmg_rxn_688

>  <mol_properties>  (18) 
{"0": {"label": "*3", "atom_type": "Cs"}, "1": {"label": "*4", "atom_type": "Cs"}, "13": {"label": "*0", "atom_type": "O2s"}, "14": {"label": "*1", "atom_type": "Cs"}, "22": {"label": "*2", "atom_type": "H0"}}

>  <type>  (18) 
unop_14

>  <geom_source>  (18) 
gaussian_log

$$$$
