
     RDKit          3D

  6  5  0  0  0  0  0  0  0  0999 V2000
    1.2314    0.0428    0.5088 O   0  0  0  0  0  0  0  0  0  0  0  0
    0.2987    0.2341   -0.4915 N   0  0  0  0  0  0  0  0  0  0  0  0
   -0.8599   -0.1122   -0.1290 C   0  0  0  0  0  0  0  0  0  0  0  0
    2.0507    0.3401    0.1082 H   0  0  0  0  0  0  0  0  0  0  0  0
   -1.0700   -0.5112    0.8610 H   0  0  0  0  0  0  0  0  0  0  0  0
   -1.6509    0.0064   -0.8574 H   0  0  0  0  0  0  0  0  0  0  0  0
  1  2  1  0
  1  4  1  0
  2  3  2  3
  3  5  1  0
  3  6  1  0
M  END
>  <reaction>  (1) 
rmg_rxn_15371

>  <mol_properties>  (1) 
{"2": {"label": "donator", "atom_type": "Cd"}, "4": {"label": "d_hydrogen", "atom_type": "H0"}}

>  <type>  (1) 
r1h

$$$$

     RDKit          3D

  9  8  0  0  0  0  0  0  0  0999 V2000
    1.3246   -0.8124   -0.0809 C   0  0  0  0  0  2  0  0  0  0  0  0
    0.4082    0.3080    0.1518 C   0  0  0  0  0  0  0  0  0  0  0  0
   -1.0545   -0.0277   -0.1520 C   0  0  0  0  0  0  0  0  0  0  0  0
    2.3933   -0.9471    0.0203 H   0  0  0  0  0  0  0  0  0  0  0  0
    0.4898    0.6406    1.1970 H   0  0  0  0  0  0  0  0  0  0  0  0
    0.7134    1.1680   -0.4624 H   0  0  0  0  0  0  0  0  0  0  0  0
   -1.4014   -0.8515    0.4727 H   0  0  0  0  0  0  0  0  0  0  0  0
   -1.1767   -0.3214   -1.1952 H   0  0  0  0  0  0  0  0  0  0  0  0
   -1.6915    0.8372    0.0370 H   0  0  0  0  0  0  0  0  0  0  0  0
  1  2  1  0
  1  4  1  0
  2  3  1  0
  2  5  1  0
  2  6  1  0
  3  7  1  0
  3  8  1  0
  3  9  1  0
M  RAD  1   1   3
M  END
>  <reaction>  (2) 
rmg_rxn_15371

>  <mol_properties>  (2) 
{"0": {"label": "acceptor", "atom_type": "Cs"}}

>  <type>  (2) 
r2

$$$$

     RDKit          3D

 10  9  0  0  0  0  0  0  0  0999 V2000
    1.4352    0.2660   -0.1351 C   0  0  0  0  0  3  0  0  0  0  0  0
    0.2236   -0.3243    0.4850 C   0  0  0  0  0  0  0  0  0  0  0  0
   -0.8893    0.6872    0.7364 C   0  0  0  0  0  0  0  0  0  0  0  0
    2.3577   -0.2958   -0.1940 H   0  0  0  0  0  0  0  0  0  0  0  0
    1.3935    1.2286   -0.6287 H   0  0  0  0  0  0  0  0  0  0  0  0
   -0.1633   -1.1318   -0.1556 H   0  0  0  0  0  0  0  0  0  0  0  0
    0.4945   -0.8215    1.4240 H   0  0  0  0  0  0  0  0  0  0  0  0
   -1.1991    1.1627   -0.1967 H   0  0  0  0  0  0  0  0  0  0  0  0
   -1.7660    0.2103    1.1768 H   0  0  0  0  0  0  0  0  0  0  0  0
   -0.5545    1.4732    1.4159 H   0  0  0  0  0  0  0  0  0  0  0  0
  1  2  1  0
  1  4  1  0
  1  5  1  0
  2  3  1  0
  2  6  1  0
  2  7  1  0
  3  8  1  0
  3  9  1  0
  3 10  1  0
M  RAD  1   1   2
M  END
>  <reaction>  (3) 
rmg_rxn_15371

>  <mol_properties>  (3) 
{"0": {"label": "a_hydrogen", "atom_type": "H0"}, "1": {"label": "acceptor", "atom_type": "Cs"}}

>  <type>  (3) 
r2h

$$$$

     RDKit          3D

 15 13  0  0  0  0  0  0  0  0999 V2000
   -0.4543   -1.6268   -0.1748 O   0  0  0  0  0  0  0  0  0  0  0  0
   -0.5828   -1.4217    1.1941 N   0  0  0  0  0  0  0  0  0  0  0  0
   -0.0640   -0.3595    1.5986 C   0  0  0  0  0  3  0  0  0  0  0  0
   -0.8997   -2.4659   -0.3099 H   0  0  0  0  0  0  0  0  0  0  0  0
    0.5497    0.4834    0.7663 H   0  0  0  0  0  0  0  0  0  0  0  0
   -0.1176   -0.1144    2.6540 H   0  0  0  0  0  0  0  0  0  0  0  0
    1.1103    1.3410   -0.0809 C   0  0  0  0  0  3  0  0  0  0  0  0
    0.3968    1.6334   -1.3399 C   0  0  0  0  0  0  0  0  0  0  0  0
   -1.1251    1.6585   -1.1925 C   0  0  0  0  0  0  0  0  0  0  0  0
    2.1112    1.6620    0.1831 H   0  0  0  0  0  0  0  0  0  0  0  0
    0.7477    2.5927   -1.7388 H   0  0  0  0  0  0  0  0  0  0  0  0
    0.6631    0.8774   -2.0930 H   0  0  0  0  0  0  0  0  0  0  0  0
   -1.4348    2.4195   -0.4744 H   0  0  0  0  0  0  0  0  0  0  0  0
   -1.4893    0.6907   -0.8453 H   0  0  0  0  0  0  0  0  0  0  0  0
   -1.6015    1.8782   -2.1490 H   0  0  0  0  0  0  0  0  0  0  0  0
  1  2  1  0
  1  4  1  0
  2  3  2  3
  3  6  1  0
  5  7  1  0
  7  8  1  0
  7 10  1  0
  8  9  1  0
  8 11  1  0
  8 12  1  0
  9 13  1  0
  9 14  1  0
  9 15  1  0
M  RAD  2   3   2   7   2
M  END
>  <reaction>  (4) 
rmg_rxn_15371

>  <mol_properties>  (4) 
{"1": {"label": "*4", "atom_type": "N3d"}, "2": {"label": "*3", "atom_type": "Cd"}, "4": {"label": "*2", "atom_type": "H0"}, "6": {"label": "*1", "atom_type": "Cs"}, "7": {"label": "*0", "atom_type": "Cs"}}

>  <type>  (4) 
ts

$$$$

     RDKit          3D

 15 13  0  0  0  0  0  0  0  0999 V2000
    1.5233   -0.9854   -0.4946 O   0  0  0  0  0  0  0  0  0  0  0  0
    1.8637    0.0016    0.3360 N   0  0  0  0  0  0  0  0  0  0  0  0
    1.1880    1.0237    0.4904 C   0  0  0  0  0  3  0  0  0  0  0  0
    0.6607   -0.7946   -0.9428 H   0  0  0  0  0  0  0  0  0  0  0  0
    0.1241    1.3292   -0.1822 H   0  0  0  0  0  0  0  0  0  0  0  0
    1.4839    1.7947    1.1729 H   0  0  0  0  0  0  0  0  0  0  0  0
   -0.9596    1.0305   -0.8050 C   0  0  0  0  0  3  0  0  0  0  0  0
   -1.9326    0.3905    0.1232 C   0  0  0  0  0  0  0  0  0  0  0  0
   -1.7819   -1.1082    0.4108 C   0  0  0  0  0  0  0  0  0  0  0  0
   -0.6941    0.3199   -1.6117 H   0  0  0  0  0  0  0  0  0  0  0  0
   -1.9860    0.9451    1.0643 H   0  0  0  0  0  0  0  0  0  0  0  0
   -2.8886    0.5504   -0.3940 H   0  0  0  0  0  0  0  0  0  0  0  0
   -2.6159   -1.4692    1.0093 H   0  0  0  0  0  0  0  0  0  0  0  0
   -0.8644   -1.3012    0.9663 H   0  0  0  0  0  0  0  0  0  0  0  0
   -1.7571   -1.6813   -0.5158 H   0  0  0  0  0  0  0  0  0  0  0  0
  1  2  1  0
  1  4  1  0
  2  3  2  3
  3  6  1  0
  5  7  1  0
  7  8  1  0
  7 10  1  0
  8  9  1  0
  8 11  1  0
  8 12  1  0
  9 13  1  0
  9 14  1  0
  9 15  1  0
M  RAD  2   3   2   7   2
M  END
>  <reaction>  (5) 
rmg_rxn_15371

>  <mol_properties>  (5) 
{"1": {"label": "*4", "atom_type": "N3d"}, "2": {"label": "*3", "atom_type": "Cd"}, "4": {"label": "*2", "atom_type": "H0"}, "6": {"label": "*1", "atom_type": "Cs"}, "7": {"label": "*0", "atom_type": "Cs"}}

>  <type>  (5) 
unop_1

>  <geom_source>  (5) 
crest_best.xyz

$$$$

     RDKit          3D

 15 13  0  0  0  0  0  0  0  0999 V2000
    0.2858   -2.3678   -0.7680 O   0  0  0  0  0  0  0  0  0  0  0  0
    0.2858   -2.3678    0.6130 N   0  0  0  0  0  0  0  0  0  0  0  0
    0.2858   -1.1970    1.0850 C   0  0  0  0  0  3  0  0  0  0  0  0
    0.2858   -3.3009   -0.9900 H   0  0  0  0  0  0  0  0  0  0  0  0
    0.2858   -0.1330    0.3285 H   0  0  0  0  0  0  0  0  0  0  0  0
    0.2858   -1.1095    2.1633 H   0  0  0  0  0  0  0  0  0  0  0  0
    0.2858    0.9250   -0.4237 C   0  0  0  0  0  3  0  0  0  0  0  0
   -0.8174    1.9137   -0.3452 C   0  0  0  0  0  0  0  0  0  0  0  0
   -0.3484    3.3291   -0.0262 C   0  0  0  0  0  0  0  0  0  0  0  0
    1.3117    1.2465   -0.5501 H   0  0  0  0  0  0  0  0  0  0  0  0
   -1.3718    1.9252   -1.2962 H   0  0  0  0  0  0  0  0  0  0  0  0
   -1.5527    1.5879    0.4001 H   0  0  0  0  0  0  0  0  0  0  0  0
    0.3547    3.6843   -0.7827 H   0  0  0  0  0  0  0  0  0  0  0  0
    0.1570    3.3629    0.9408 H   0  0  0  0  0  0  0  0  0  0  0  0
   -1.1867    4.0264    0.0060 H   0  0  0  0  0  0  0  0  0  0  0  0
  1  2  1  0
  1  4  1  0
  2  3  2  3
  3  6  1  0
  5  7  1  0
  7  8  1  0
  7 10  1  0
  8  9  1  0
  8 11  1  0
  8 12  1  0
  9 13  1  0
  9 14  1  0
  9 15  1  0
M  RAD  2   3   2   7   2
M  END
>  <reaction>  (6) 
rmg_rxn_15371

>  <mol_properties>  (6) 
{"1": {"label": "*4", "atom_type": "N3d"}, "2": {"label": "*3", "atom_type": "Cd"}, "4": {"label": "*2", "atom_type": "H0"}, "6": {"label": "*1", "atom_type": "Cs"}, "7": {"label": "*0", "atom_type": "Cs"}}

>  <type>  (6) 
unop_2

>  <geom_source>  (6) 
Heuristics

$$$$

     RDKit          3D

 15 13  0  0  0  0  0  0  0  0999 V2000
    1.5211   -0.9866   -0.4938 O   0  0  0  0  0  0  0  0  0  0  0  0
    1.8641    0.0009    0.3351 N   0  0  0  0  0  0  0  0  0  0  0  0
    1.1899    1.0239    0.4895 C   0  0  0  0  0  3  0  0  0  0  0  0
    0.6581   -0.7951   -0.9410 H   0  0  0  0  0  0  0  0  0  0  0  0
    0.1248    1.3297   -0.1813 H   0  0  0  0  0  0  0  0  0  0  0  0
    1.4876    1.7951    1.1710 H   0  0  0  0  0  0  0  0  0  0  0  0
   -0.9591    1.0317   -0.8039 C   0  0  0  0  0  3  0  0  0  0  0  0
   -1.9321    0.3911    0.1238 C   0  0  0  0  0  0  0  0  0  0  0  0
   -1.7824   -1.1080    0.4101 C   0  0  0  0  0  0  0  0  0  0  0  0
   -0.6939    0.3219   -1.6113 H   0  0  0  0  0  0  0  0  0  0  0  0
   -1.9852    0.9447    1.0656 H   0  0  0  0  0  0  0  0  0  0  0  0
   -2.8880    0.5521   -0.3931 H   0  0  0  0  0  0  0  0  0  0  0  0
   -0.8648   -1.3023    0.9649 H   0  0  0  0  0  0  0  0  0  0  0  0
   -1.7587   -1.6803   -0.5172 H   0  0  0  0  0  0  0  0  0  0  0  0
   -2.6164   -1.4688    1.0087 H   0  0  0  0  0  0  0  0  0  0  0  0
  1  2  1  0
  1  4  1  0
  2  3  2  3
  3  6  1  0
  5  7  1  0
  7  8  1  0
  7 10  1  0
  8  9  1  0
  8 11  1  0
  8 12  1  0
  9 13  1  0
  9 14  1  0
  9 15  1  0
M  RAD  2   3   2   7   2
M  END
>  <reaction>  (7) 
rmg_rxn_15371

>  <mol_properties>  (7) 
{"1": {"label": "*4", "atom_type": "N3d"}, "2": {"label": "*3", "atom_type": "Cd"}, "4": {"label": "*2", "atom_type": "H0"}, "6": {"label": "*1", "atom_type": "Cs"}, "7": {"label": "*0", "atom_type": "Cs"}}

>  <type>  (7) 
unop_3

>  <geom_source>  (7) 
Heuristics

$$$$

     RDKit          3D

 15 13  0  0  0  0  0  0  0  0999 V2000
    0.3085   -2.0186   -0.1580 O   0  0  0  0  0  0  0  0  0  0  0  0
    0.3085   -2.0186    1.2230 N   0  0  0  0  0  0  0  0  0  0  0  0
    0.3085   -0.8478    1.6950 C   0  0  0  0  0  3  0  0  0  0  0  0
    0.3085   -2.9517   -0.3800 H   0  0  0  0  0  0  0  0  0  0  0  0
    0.3085    0.2162    0.9385 H   0  0  0  0  0  0  0  0  0  0  0  0
    0.3085   -0.7604    2.7733 H   0  0  0  0  0  0  0  0  0  0  0  0
    0.3085    1.2742    0.1863 C   0  0  0  0  0  3  0  0  0  0  0  0
   -0.3284    1.2546   -1.1534 C   0  0  0  0  0  0  0  0  0  0  0  0
   -0.8733    2.6097   -1.5913 C   0  0  0  0  0  0  0  0  0  0  0  0
    0.6190    2.2068    0.6399 H   0  0  0  0  0  0  0  0  0  0  0  0
    0.3967    0.9004   -1.9022 H   0  0  0  0  0  0  0  0  0  0  0  0
   -1.1307    0.5074   -1.1698 H   0  0  0  0  0  0  0  0  0  0  0  0
   -0.0772    3.3569   -1.6195 H   0  0  0  0  0  0  0  0  0  0  0  0
   -1.6385    2.9639   -0.8980 H   0  0  0  0  0  0  0  0  0  0  0  0
   -1.3175    2.5554   -2.5862 H   0  0  0  0  0  0  0  0  0  0  0  0
  1  2  1  0
  1  4  1  0
  2  3  2  3
  3  6  1  0
  5  7  1  0
  7  8  1  0
  7 10  1  0
  8  9  1  0
  8 11  1  0
  8 12  1  0
  9 13  1  0
  9 14  1  0
  9 15  1  0
M  RAD  2   3   2   7   2
M  END
>  <reaction>  (8) 
rmg_rxn_15371

>  <mol_properties>  (8) 
{"1": {"label": "*4", "atom_type": "N3d"}, "2": {"label": "*3", "atom_type": "Cd"}, "4": {"label": "*2", "atom_type": "H0"}, "6": {"label": "*1", "atom_type": "Cs"}, "7": {"label": "*0", "atom_type": "Cs"}}

>  <type>  (8) 
unop_4

>  <geom_source>  (8) 
Heuristics

$$$$

     RDKit          3D

 15 13  0  0  0  0  0  0  0  0999 V2000
   -1.5218   -0.9870    0.4934 O   0  0  0  0  0  0  0  0  0  0  0  0
   -1.8650    0.0009   -0.3350 N   0  0  0  0  0  0  0  0  0  0  0  0
   -1.1904    1.0237   -0.4894 C   0  0  0  0  0  3  0  0  0  0  0  0
   -0.6586   -0.7959    0.9403 H   0  0  0  0  0  0  0  0  0  0  0  0
   -0.1252    1.3291    0.1811 H   0  0  0  0  0  0  0  0  0  0  0  0
   -1.4884    1.7952   -1.1705 H   0  0  0  0  0  0  0  0  0  0  0  0
    0.9587    1.0313    0.8039 C   0  0  0  0  0  3  0  0  0  0  0  0
    1.9325    0.3916   -0.1235 C   0  0  0  0  0  0  0  0  0  0  0  0
    1.7844   -1.1076   -0.4101 C   0  0  0  0  0  0  0  0  0  0  0  0
    0.6936    0.3210    1.6109 H   0  0  0  0  0  0  0  0  0  0  0  0
    1.9857    0.9455   -1.0651 H   0  0  0  0  0  0  0  0  0  0  0  0
    2.8881    0.5533    0.3939 H   0  0  0  0  0  0  0  0  0  0  0  0
    1.7606   -1.6799    0.5170 H   0  0  0  0  0  0  0  0  0  0  0  0
    2.6191   -1.4676   -1.0083 H   0  0  0  0  0  0  0  0  0  0  0  0
    0.8673   -1.3026   -0.9654 H   0  0  0  0  0  0  0  0  0  0  0  0
  1  2  1  0
  1  4  1  0
  2  3  2  3
  3  6  1  0
  5  7  1  0
  7  8  1  0
  7 10  1  0
  8  9  1  0
  8 11  1  0
  8 12  1  0
  9 13  1  0
  9 14  1  0
  9 15  1  0
M  RAD  2   3   2   7   2
M  END
>  <reaction>  (9) 
rmg_rxn_15371

>  <mol_properties>  (9) 
{"1": {"label": "*4", "atom_type": "N3d"}, "2": {"label": "*3", "atom_type": "Cd"}, "4": {"label": "*2", "atom_type": "H0"}, "6": {"label": "*1", "atom_type": "Cs"}, "7": {"label": "*0", "atom_type": "Cs"}}

>  <type>  (9) 
unop_5

>  <geom_source>  (9) 
Heuristics

$$$$

     RDKit          3D

 15 13  0  0  0  0  0  0  0  0999 V2000
    0.0573   -2.4254   -0.8055 O   0  0  0  0  0  0  0  0  0  0  0  0
    0.0573   -2.4254    0.5755 N   0  0  0  0  0  0  0  0  0  0  0  0
    0.0573   -1.2546    1.0475 C   0  0  0  0  0  3  0  0  0  0  0  0
    0.0573   -3.3586   -1.0275 H   0  0  0  0  0  0  0  0  0  0  0  0
    0.0573   -0.1906    0.2910 H   0  0  0  0  0  0  0  0  0  0  0  0
    0.0573   -1.1672    2.1258 H   0  0  0  0  0  0  0  0  0  0  0  0
    0.0573    0.8673   -0.4612 C   0  0  0  0  0  3  0  0  0  0  0  0
   -0.5796    2.1263   -0.0027 C   0  0  0  0  0  0  0  0  0  0  0  0
    0.2995    3.3585   -0.1865 C   0  0  0  0  0  0  0  0  0  0  0  0
    0.9091    0.8871   -1.1291 H   0  0  0  0  0  0  0  0  0  0  0  0
   -1.5277    2.2782   -0.5412 H   0  0  0  0  0  0  0  0  0  0  0  0
   -0.8713    2.0303    1.0499 H   0  0  0  0  0  0  0  0  0  0  0  0
    0.5657    3.4916   -1.2373 H   0  0  0  0  0  0  0  0  0  0  0  0
    1.2261    3.2639    0.3827 H   0  0  0  0  0  0  0  0  0  0  0  0
   -0.2113    4.2629    0.1469 H   0  0  0  0  0  0  0  0  0  0  0  0
  1  2  1  0
  1  4  1  0
  2  3  2  3
  3  6  1  0
  5  7  1  0
  7  8  1  0
  7 10  1  0
  8  9  1  0
  8 11  1  0
  8 12  1  0
  9 13  1  0
  9 14  1  0
  9 15  1  0
M  RAD  2   3   2   7   2
M  END
>  <reaction>  (10) 
rmg_rxn_15371

>  <mol_properties>  (10) 
{"1": {"label": "*4", "atom_type": "N3d"}, "2": {"label": "*3", "atom_type": "Cd"}, "4": {"label": "*2", "atom_type": "H0"}, "6": {"label": "*1", "atom_type": "Cs"}, "7": {"label": "*0", "atom_type": "Cs"}}

>  <type>  (10) 
unop_6

>  <geom_source>  (10) 
Heuristics

$$$$

     RDKit          3D

 15 13  0  0  0  0  0  0  0  0999 V2000
   -0.3942   -2.1278   -0.2919 O   0  0  0  0  0  0  0  0  0  0  0  0
   -0.3942   -2.1278    1.0890 N   0  0  0  0  0  0  0  0  0  0  0  0
   -0.3942   -0.9570    1.5610 C   0  0  0  0  0  3  0  0  0  0  0  0
   -0.3942   -3.0609   -0.5140 H   0  0  0  0  0  0  0  0  0  0  0  0
   -0.3942    0.1070    0.8045 H   0  0  0  0  0  0  0  0  0  0  0  0
   -0.3942   -0.8696    2.6393 H   0  0  0  0  0  0  0  0  0  0  0  0
   -0.3942    1.1649    0.0523 C   0  0  0  0  0  3  0  0  0  0  0  0
    0.7090    1.4155   -0.9074 C   0  0  0  0  0  0  0  0  0  0  0  0
    0.8298    2.8748   -1.3327 C   0  0  0  0  0  0  0  0  0  0  0  0
   -0.8406    1.9784    0.6100 H   0  0  0  0  0  0  0  0  0  0  0  0
    1.6637    1.0900   -0.4663 H   0  0  0  0  0  0  0  0  0  0  0  0
    0.5810    0.7793   -1.7912 H   0  0  0  0  0  0  0  0  0  0  0  0
    0.9986    3.5183   -0.4665 H   0  0  0  0  0  0  0  0  0  0  0  0
   -0.0830    3.2131   -1.8265 H   0  0  0  0  0  0  0  0  0  0  0  0
    1.6614    3.0185   -2.0240 H   0  0  0  0  0  0  0  0  0  0  0  0
  1  2  1  0
  1  4  1  0
  2  3  2  3
  3  6  1  0
  5  7  1  0
  7  8  1  0
  7 10  1  0
  8  9  1  0
  8 11  1  0
  8 12  1  0
  9 13  1  0
  9 14  1  0
  9 15  1  0
M  RAD  2   3   2   7   2
M  END
>  <reaction>  (11) 
rmg_rxn_15371

>  <mol_properties>  (11) 
{"1": {"label": "*4", "atom_type": "N3d"}, "2": {"label": "*3", "atom_type": "Cd"}, "4": {"label": "*2", "atom_type": "H0"}, "6": {"label": "*1", "atom_type": "Cs"}, "7": {"label": "*0", "atom_type": "Cs"}}

>  <type>  (11) 
unop_7

>  <geom_source>  (11) 
Heuristics

$$$$

     RDKit          3D

 15 13  0  0  0  0  0  0  0  0999 V2000
    1.5219   -0.9863    0.4940 O   0  0  0  0  0  0  0  0  0  0  0  0
    1.8641    0.0011   -0.3354 N   0  0  0  0  0  0  0  0  0  0  0  0
    1.1894    1.0238   -0.4898 C   0  0  0  0  0  3  0  0  0  0  0  0
    0.6591   -0.7950    0.9416 H   0  0  0  0  0  0  0  0  0  0  0  0
    0.1247    1.3295    0.1815 H   0  0  0  0  0  0  0  0  0  0  0  0
    1.4865    1.7947   -1.1719 H   0  0  0  0  0  0  0  0  0  0  0  0
   -0.9591    1.0313    0.8042 C   0  0  0  0  0  3  0  0  0  0  0  0
   -1.9323    0.3910   -0.1235 C   0  0  0  0  0  0  0  0  0  0  0  0
   -1.7826   -1.1080   -0.4103 C   0  0  0  0  0  0  0  0  0  0  0  0
   -0.6940    0.3213    1.6114 H   0  0  0  0  0  0  0  0  0  0  0  0
   -2.8882    0.5517    0.3937 H   0  0  0  0  0  0  0  0  0  0  0  0
   -1.9857    0.9449   -1.0651 H   0  0  0  0  0  0  0  0  0  0  0  0
   -2.6166   -1.4686   -1.0092 H   0  0  0  0  0  0  0  0  0  0  0  0
   -1.7590   -1.6805    0.5167 H   0  0  0  0  0  0  0  0  0  0  0  0
   -0.8650   -1.3020   -0.9651 H   0  0  0  0  0  0  0  0  0  0  0  0
  1  2  1  0
  1  4  1  0
  2  3  2  3
  3  6  1  0
  5  7  1  0
  7  8  1  0
  7 10  1  0
  8  9  1  0
  8 11  1  0
  8 12  1  0
  9 13  1  0
  9 14  1  0
  9 15  1  0
M  RAD  2   3   2   7   2
M  END
>  <reaction>  (12) 
rmg_rxn_15371

>  <mol_properties>  (12) 
{"1": {"label": "*4", "atom_type": "N3d"}, "2": {"label": "*3", "atom_type": "Cd"}, "4": {"label": "*2", "atom_type": "H0"}, "6": {"label": "*1", "atom_type": "Cs"}, "7": {"label": "*0", "atom_type": "Cs"}}

>  <type>  (12) 
unop_8

>  <geom_source>  (12) 
Heuristics

$$$$

     RDKit          3D

 15 13  0  0  0  0  0  0  0  0999 V2000
   -0.0471   -2.4366   -0.7071 O   0  0  0  0  0  0  0  0  0  0  0  0
   -0.0471   -2.4366    0.6738 N   0  0  0  0  0  0  0  0  0  0  0  0
   -0.0471   -1.2658    1.1458 C   0  0  0  0  0  3  0  0  0  0  0  0
   -0.0471   -3.3697   -0.9291 H   0  0  0  0  0  0  0  0  0  0  0  0
   -0.0471   -0.2018    0.3893 H   0  0  0  0  0  0  0  0  0  0  0  0
   -0.0471   -1.1784    2.2241 H   0  0  0  0  0  0  0  0  0  0  0  0
   -0.0471    0.8561   -0.3629 C   0  0  0  0  0  3  0  0  0  0  0  0
   -0.0471    2.2140    0.2347 C   0  0  0  0  0  0  0  0  0  0  0  0
    0.2345    3.3247   -0.7712 C   0  0  0  0  0  0  0  0  0  0  0  0
   -0.1479    0.7200   -1.4321 H   0  0  0  0  0  0  0  0  0  0  0  0
   -1.0176    2.4051    0.7180 H   0  0  0  0  0  0  0  0  0  0  0  0
    0.6826    2.2575    1.0519 H   0  0  0  0  0  0  0  0  0  0  0  0
   -0.5087    3.3206   -1.5715 H   0  0  0  0  0  0  0  0  0  0  0  0
    1.2174    3.1958   -1.2283 H   0  0  0  0  0  0  0  0  0  0  0  0
    0.2091    4.3060   -0.2953 H   0  0  0  0  0  0  0  0  0  0  0  0
  1  2  1  0
  1  4  1  0
  2  3  2  3
  3  6  1  0
  5  7  1  0
  7  8  1  0
  7 10  1  0
  8  9  1  0
  8 11  1  0
  8 12  1  0
  9 13  1  0
  9 14  1  0
  9 15  1  0
M  RAD  2   3   2   7   2
M  END
>  <reaction>  (13) 
rmg_rxn_15371

>  <mol_properties>  (13) 
{"1": {"label": "*4", "atom_type": "N3d"}, "2": {"label": "*3", "atom_type": "Cd"}, "4": {"label": "*2", "atom_type": "H0"}, "6": {"label": "*1", "atom_type": "Cs"}, "7": {"label": "*0", "atom_type": "Cs"}}

>  <type>  (13) 
unop_9

>  <geom_source>  (13) 
Heuristics

$$$$

     RDKit          3D

 15 13  0  0  0  0  0  0  0  0999 V2000
   -1.5213   -0.9875   -0.4929 O   0  0  0  0  0  0  0  0  0  0  0  0
   -1.8649    0.0007    0.3349 N   0  0  0  0  0  0  0  0  0  0  0  0
   -1.1909    1.0239    0.4887 C   0  0  0  0  0  3  0  0  0  0  0  0
   -0.6582   -0.7963   -0.9399 H   0  0  0  0  0  0  0  0  0  0  0  0
   -0.1255    1.3294   -0.1818 H   0  0  0  0  0  0  0  0  0  0  0  0
   -1.4893    1.7957    1.1693 H   0  0  0  0  0  0  0  0  0  0  0  0
    0.9587    1.0315   -0.8039 C   0  0  0  0  0  3  0  0  0  0  0  0
    1.9320    0.3919    0.1242 C   0  0  0  0  0  0  0  0  0  0  0  0
    1.7846   -1.1075    0.4095 C   0  0  0  0  0  0  0  0  0  0  0  0
    0.6940    0.3212   -1.6111 H   0  0  0  0  0  0  0  0  0  0  0  0
    2.8880    0.5547   -0.3920 H   0  0  0  0  0  0  0  0  0  0  0  0
    1.9837    0.9452    1.0662 H   0  0  0  0  0  0  0  0  0  0  0  0
    0.8670   -1.3037    0.9636 H   0  0  0  0  0  0  0  0  0  0  0  0
    2.6189   -1.4673    1.0085 H   0  0  0  0  0  0  0  0  0  0  0  0
    1.7625   -1.6792   -0.5180 H   0  0  0  0  0  0  0  0  0  0  0  0
  1  2  1  0
  1  4  1  0
  2  3  2  3
  3  6  1  0
  5  7  1  0
  7  8  1  0
  7 10  1  0
  8  9  1  0
  8 11  1  0
  8 12  1  0
  9 13  1  0
  9 14  1  0
  9 15  1  0
M  RAD  2   3   2   7   2
M  END
>  <reaction>  (14) 
rmg_rxn_15371

>  <mol_properties>  (14) 
{"1": {"label": "*4", "atom_type": "N3d"}, "2": {"label": "*3", "atom_type": "Cd"}, "4": {"label": "*2", "atom_type": "H0"}, "6": {"label": "*1", "atom_type": "Cs"}, "7": {"label": "*0", "atom_type": "Cs"}}

>  <type>  (14) 
unop_10

>  <geom_source>  (14) 
Heuristics

$$$$

     RDKit          3D

 15 13  0  0  0  0  0  0  0  0999 V2000
   -0.4118   -2.2603   -0.5059 O   0  0  0  0  0  0  0  0  0  0  0  0
   -0.4118   -2.2603    0.8751 N   0  0  0  0  0  0  0  0  0  0  0  0
   -0.4118   -1.0895    1.3471 C   0  0  0  0  0  3  0  0  0  0  0  0
   -0.4118   -3.1934   -0.7279 H   0  0  0  0  0  0  0  0  0  0  0  0
   -0.4118   -0.0255    0.5906 H   0  0  0  0  0  0  0  0  0  0  0  0
   -0.4118   -1.0021    2.4254 H   0  0  0  0  0  0  0  0  0  0  0  0
   -0.4118    1.0324   -0.1616 C   0  0  0  0  0  3  0  0  0  0  0  0
    0.8621    1.6521   -0.6022 C   0  0  0  0  0  0  0  0  0  0  0  0
    0.7688    3.1598   -0.8103 C   0  0  0  0  0  0  0  0  0  0  0  0
   -1.2065    1.6356    0.2586 H   0  0  0  0  0  0  0  0  0  0  0  0
    1.6510    1.4398    0.1357 H   0  0  0  0  0  0  0  0  0  0  0  0
    1.2079    1.1694   -1.5240 H   0  0  0  0  0  0  0  0  0  0  0  0
    0.4643    3.6602    0.1114 H   0  0  0  0  0  0  0  0  0  0  0  0
    0.0331    3.4016   -1.5797 H   0  0  0  0  0  0  0  0  0  0  0  0
    1.7287    3.5775   -1.1172 H   0  0  0  0  0  0  0  0  0  0  0  0
  1  2  1  0
  1  4  1  0
  2  3  2  3
  3  6  1  0
  5  7  1  0
  7  8  1  0
  7 10  1  0
  8  9  1  0
  8 11  1  0
  8 12  1  0
  9 13  1  0
  9 14  1  0
  9 15  1  0
M  RAD  2   3   2   7   2
M  END
>  <reaction>  (15) 
rmg_rxn_15371

>  <mol_properties>  (15) 
{"1": {"label": "*4", "atom_type": "N3d"}, "2": {"label": "*3", "atom_type": "Cd"}, "4": {"label": "*2", "atom_type": "H0"}, "6": {"label": "*1", "atom_type": "Cs"}, "7": {"label": "*0", "atom_type": "Cs"}}

>  <type>  (15) 
unop_11

>  <geom_source>  (15) 
Heuristics

$$$$

     RDKit          3D

 15 13  0  0  0  0  0  0  0  0999 V2000
    1.5223    0.9866   -0.4937 O   0  0  0  0  0  0  0  0  0  0  0  0
    1.8649   -0.0010    0.3352 N   0  0  0  0  0  0  0  0  0  0  0  0
    1.1900   -1.0236    0.4898 C   0  0  0  0  0  3  0  0  0  0  0  0
    0.6591    0.7957   -0.9408 H   0  0  0  0  0  0  0  0  0  0  0  0
    0.1248   -1.3290   -0.1809 H   0  0  0  0  0  0  0  0  0  0  0  0
    1.4877   -1.7950    1.1711 H   0  0  0  0  0  0  0  0  0  0  0  0
   -0.9589   -1.0312   -0.8041 C   0  0  0  0  0  3  0  0  0  0  0  0
   -1.9328   -0.3913    0.1231 C   0  0  0  0  0  0  0  0  0  0  0  0
   -1.7840    1.1076    0.4104 C   0  0  0  0  0  0  0  0  0  0  0  0
   -0.6935   -0.3209   -1.6110 H   0  0  0  0  0  0  0  0  0  0  0  0
   -2.8882   -0.5523   -0.3948 H   0  0  0  0  0  0  0  0  0  0  0  0
   -1.9867   -0.9455    1.0645 H   0  0  0  0  0  0  0  0  0  0  0  0
   -1.7610    1.6805   -0.5164 H   0  0  0  0  0  0  0  0  0  0  0  0
   -0.8663    1.3021    0.9649 H   0  0  0  0  0  0  0  0  0  0  0  0
   -2.6180    1.4675    1.0097 H   0  0  0  0  0  0  0  0  0  0  0  0
  1  2  1  0
  1  4  1  0
  2  3  2  3
  3  6  1  0
  5  7  1  0
  7  8  1  0
  7 10  1  0
  8  9  1  0
  8 11  1  0
  8 12  1  0
  9 13  1  0
  9 14  1  0
  9 15  1  0
M  RAD  2   3   2   7   2
M  END
>  <reaction>  (16) 
rmg_rxn_15371

>  <mol_properties>  (16) 
{"1": {"label": "*4", "atom_type": "N3d"}, "2": {"label": "*3", "atom_type": "Cd"}, "4": {"label": "*2", "atom_type": "H0"}, "6": {"label": "*1", "atom_type": "Cs"}, "7": {"label": "*0", "atom_type": "Cs"}}

>  <type>  (16) 
unop_12

>  <geom_source>  (16) 
Heuristics

$$$$

     RDKit          3D

 15 13  0  0  0  0  0  0  0  0999 V2000
   -0.2892   -2.3714   -0.6739 O   0  0  0  0  0  0  0  0  0  0  0  0
   -0.2892   -2.3714    0.7071 N   0  0  0  0  0  0  0  0  0  0  0  0
   -0.2892   -1.2006    1.1791 C   0  0  0  0  0  3  0  0  0  0  0  0
   -0.2892   -3.3045   -0.8959 H   0  0  0  0  0  0  0  0  0  0  0  0
   -0.2892   -0.1366    0.4226 H   0  0  0  0  0  0  0  0  0  0  0  0
   -0.2892   -1.1131    2.2574 H   0  0  0  0  0  0  0  0  0  0  0  0
   -0.2892    0.9214   -0.3296 C   0  0  0  0  0  3  0  0  0  0  0  0
    0.8140    1.9101   -0.2511 C   0  0  0  0  0  0  0  0  0  0  0  0
    0.3656    3.3471   -0.4945 C   0  0  0  0  0  0  0  0  0  0  0  0
   -1.3226    1.2352   -0.2546 H   0  0  0  0  0  0  0  0  0  0  0  0
    1.2971    1.8472    0.7361 H   0  0  0  0  0  0  0  0  0  0  0  0
    1.6028    1.6402   -0.9632 H   0  0  0  0  0  0  0  0  0  0  0  0
   -0.3920    3.6453    0.2333 H   0  0  0  0  0  0  0  0  0  0  0  0
   -0.0676    3.4561   -1.4905 H   0  0  0  0  0  0  0  0  0  0  0  0
    1.2021    4.0424   -0.4117 H   0  0  0  0  0  0  0  0  0  0  0  0
  1  2  1  0
  1  4  1  0
  2  3  2  3
  3  6  1  0
  5  7  1  0
  7  8  1  0
  7 10  1  0
  8  9  1  0
  8 11  1  0
  8 12  1  0
  9 13  1  0
  9 14  1  0
  9 15  1  0
M  RAD  2   3   2   7   2
M  END
>  <reaction>  (17) 
rmg_rxn_15371

>  <mol_properties>  (17) 
{"1": {"label": "*4", "atom_type": "N3d"}, "2": {"label": "*3", "atom_type": "Cd"}, "4": {"label": "*2", "atom_type": "H0"}, "6": {"label": "*1", "atom_type": "Cs"}, "7": {"label": "*0", "atom_type": "Cs"}}

>  <type>  (17) 
unop_13

>  <geom_source>  (17) 
Heuristics

$$$$

     RDKit          3D

 15 13  0  0  0  0  0  0  0  0999 V2000
    0.4440   -2.2569   -0.5943 O   0  0  0  0  0  0  0  0  0  0  0  0
    0.4440   -2.2569    0.7866 N   0  0  0  0  0  0  0  0  0  0  0  0
    0.4440   -1.0861    1.2586 C   0  0  0  0  0  3  0  0  0  0  0  0
    0.4440   -3.1900   -0.8163 H   0  0  0  0  0  0  0  0  0  0  0  0
    0.4440   -0.0221    0.5021 H   0  0  0  0  0  0  0  0  0  0  0  0
    0.4440   -0.9987    2.3369 H   0  0  0  0  0  0  0  0  0  0  0  0
    0.4440    1.0358   -0.2501 C   0  0  0  0  0  3  0  0  0  0  0  0
   -0.8298    1.6555   -0.6907 C   0  0  0  0  0  0  0  0  0  0  0  0
   -0.9293    3.1429   -0.3700 C   0  0  0  0  0  0  0  0  0  0  0  0
    1.3078    1.6462   -0.0192 H   0  0  0  0  0  0  0  0  0  0  0  0
   -0.9544    1.5131   -1.7752 H   0  0  0  0  0  0  0  0  0  0  0  0
   -1.6752    1.1203   -0.2422 H   0  0  0  0  0  0  0  0  0  0  0  0
   -0.1161    3.6969   -0.8438 H   0  0  0  0  0  0  0  0  0  0  0  0
   -0.8665    3.3140    0.7063 H   0  0  0  0  0  0  0  0  0  0  0  0
   -1.8719    3.5624   -0.7245 H   0  0  0  0  0  0  0  0  0  0  0  0
  1  2  1  0
  1  4  1  0
  2  3  2  3
  3  6  1  0
  5  7  1  0
  7  8  1  0
  7 10  1  0
  8  9  1  0
  8 11  1  0
  8 12  1  0
  9 13  1  0
  9 14  1  0
  9 15  1  0
M  RAD  2   3   2   7   2
M  END
>  <reaction>  (18) 
rmg_rxn_15371

>  <mol_properties>  (18) 
{"1": {"label": "*4", "atom_type": "N3d"}, "2": {"label": "*3", "atom_type": "Cd"}, "4": {"label": "*2", "atom_type": "H0"}, "6": {"label": "*1", "atom_type": "Cs"}, "7": {"label": "*0", "atom_type": "Cs"}}

>  <type>  (18) 
unop_14

>  <geom_source>  (18) 
Heuristics

$$$$

     RDKit          3D

 15 13  0  0  0  0  0  0  0  0999 V2000
    1.5233   -0.9854   -0.4946 O   0  0  0  0  0  0  0  0  0  0  0  0
    1.8637    0.0016    0.3360 N   0  0  0  0  0  0  0  0  0  0  0  0
    1.1880    1.0237    0.4904 C   0  0  0  0  0  3  0  0  0  0  0  0
    0.6607   -0.7946   -0.9428 H   0  0  0  0  0  0  0  0  0  0  0  0
    0.1241    1.3292   -0.1822 H   0  0  0  0  0  0  0  0  0  0  0  0
    1.4839    1.7947    1.1729 H   0  0  0  0  0  0  0  0  0  0  0  0
   -0.9596    1.0305   -0.8050 C   0  0  0  0  0  3  0  0  0  0  0  0
   -1.9326    0.3905    0.1232 C   0  0  0  0  0  0  0  0  0  0  0  0
   -1.7819   -1.1082    0.4108 C   0  0  0  0  0  0  0  0  0  0  0  0
   -0.6941    0.3199   -1.6117 H   0  0  0  0  0  0  0  0  0  0  0  0
   -1.9860    0.9451    1.0643 H   0  0  0  0  0  0  0  0  0  0  0  0
   -2.8886    0.5504   -0.3940 H   0  0  0  0  0  0  0  0  0  0  0  0
   -2.6159   -1.4692    1.0093 H   0  0  0  0  0  0  0  0  0  0  0  0
   -0.8644   -1.3012    0.9663 H   0  0  0  0  0  0  0  0  0  0  0  0
   -1.7571   -1.6813   -0.5158 H   0  0  0  0  0  0  0  0  0  0  0  0
  1  2  1  0
  1  4  1  0
  2  3  2  3
  3  6  1  0
  5  7  1  0
  7  8  1  0
  7 10  1  0
  8  9  1  0
  8 11  1  0
  8 12  1  0
  9 13  1  0
  9 14  1  0
  9 15  1  0
M  RAD  2   3   2   7   2
M  END
>  <reaction>  (19) 
rmg_rxn_15371

>  <mol_properties>  (19) 
{"1": {"label": "*4", "atom_type": "N3d"}, "2": {"label": "*3", "atom_type": "Cd"}, "4": {"label": "*2", "atom_type": "H0"}, "6": {"label": "*1", "atom_type": "Cs"}, "7": {"label": "*0", "atom_type": "Cs"}}

>  <type>  (19) 
unop_15

>  <geom_source>  (19) 
Heuristics

$$$$

     RDKit          3D

 15 13  0  0  0  0  0  0  0  0999 V2000
   -0.2234   -2.0201   -0.1175 O   0  0  0  0  0  0  0  0  0  0  0  0
   -0.2234   -2.0201    1.2635 N   0  0  0  0  0  0  0  0  0  0  0  0
   -0.2234   -0.8493    1.7354 C   0  0  0  0  0  3  0  0  0  0  0  0
   -0.2234   -2.9533   -0.3395 H   0  0  0  0  0  0  0  0  0  0  0  0
   -0.2234    0.2146    0.9789 H   0  0  0  0  0  0  0  0  0  0  0  0
   -0.2234   -0.7619    2.8137 H   0  0  0  0  0  0  0  0  0  0  0  0
   -0.2234    1.2726    0.2267 C   0  0  0  0  0  3  0  0  0  0  0  0
    0.4135    1.2530   -1.1130 C   0  0  0  0  0  0  0  0  0  0  0  0
    0.4498    2.6174   -1.7927 C   0  0  0  0  0  0  0  0  0  0  0  0
   -0.3518    2.2019    0.7670 H   0  0  0  0  0  0  0  0  0  0  0  0
    1.4409    0.8669   -1.0281 H   0  0  0  0  0  0  0  0  0  0  0  0
   -0.1019    0.5299   -1.7561 H   0  0  0  0  0  0  0  0  0  0  0  0
    0.9959    3.3401   -1.1825 H   0  0  0  0  0  0  0  0  0  0  0  0
   -0.5598    3.0040   -1.9438 H   0  0  0  0  0  0  0  0  0  0  0  0
    0.9398    2.5623   -2.7658 H   0  0  0  0  0  0  0  0  0  0  0  0
  1  2  1  0
  1  4  1  0
  2  3  2  3
  3  6  1  0
  5  7  1  0
  7  8  1  0
  7 10  1  0
  8  9  1  0
  8 11  1  0
  8 12  1  0
  9 13  1  0
  9 14  1  0
  9 15  1  0
M  RAD  2   3   2   7   2
M  END
>  <reaction>  (20) 
rmg_rxn_15371

>  <mol_properties>  (20) 
{"1": {"label": "*4", "atom_type": "N3d"}, "2": {"label": "*3", "atom_type": "Cd"}, "4": {"label": "*2", "atom_type": "H0"}, "6": {"label": "*1", "atom_type": "Cs"}, "7": {"label": "*0", "atom_type": "Cs"}}

>  <type>  (20) 
unop_16

>  <geom_source>  (20) 
Heuristics

$$$$

     RDKit          3D

 15 13  0  0  0  0  0  0  0  0999 V2000
    0.4564   -2.1251   -0.3627 O   0  0  0  0  0  0  0  0  0  0  0  0
    0.4564   -2.1251    1.0182 N   0  0  0  0  0  0  0  0  0  0  0  0
    0.4564   -0.9543    1.4902 C   0  0  0  0  0  3  0  0  0  0  0  0
    0.4564   -3.0582   -0.5847 H   0  0  0  0  0  0  0  0  0  0  0  0
    0.4564    0.1097    0.7337 H   0  0  0  0  0  0  0  0  0  0  0  0
    0.4564   -0.8669    2.5685 H   0  0  0  0  0  0  0  0  0  0  0  0
    0.4564    1.1676   -0.0185 C   0  0  0  0  0  3  0  0  0  0  0  0
   -0.6468    1.4183   -0.9782 C   0  0  0  0  0  0  0  0  0  0  0  0
   -1.1393    2.8613   -0.9805 C   0  0  0  0  0  0  0  0  0  0  0  0
    1.0358    1.9869    0.3878 H   0  0  0  0  0  0  0  0  0  0  0  0
   -0.3209    1.1486   -1.9945 H   0  0  0  0  0  0  0  0  0  0  0  0
   -1.4818    0.7399   -0.7660 H   0  0  0  0  0  0  0  0  0  0  0  0
   -0.3273    3.5476   -1.2305 H   0  0  0  0  0  0  0  0  0  0  0  0
   -1.5234    3.1430    0.0017 H   0  0  0  0  0  0  0  0  0  0  0  0
   -1.9373    3.0064   -1.7099 H   0  0  0  0  0  0  0  0  0  0  0  0
  1  2  1  0
  1  4  1  0
  2  3  2  3
  3  6  1  0
  5  7  1  0
  7  8  1  0
  7 10  1  0
  8  9  1  0
  8 11  1  0
  8 12  1  0
  9 13  1  0
  9 14  1  0
  9 15  1  0
M  RAD  2   3   2   7   2
M  END
>  <reaction>  (21) 
rmg_rxn_15371

>  <mol_properties>  (21) 
{"1": {"label": "*4", "atom_type": "N3d"}, "2": {"label": "*3", "atom_type": "Cd"}, "4": {"label": "*2", "atom_type": "H0"}, "6": {"label": "*1", "atom_type": "Cs"}, "7": {"label": "*0", "atom_type": "Cs"}}

>  <type>  (21) 
unop_17

>  <geom_source>  (21) 
Heuristics

$$$$

     RDKit          3D

 15 13  0  0  0  0  0  0  0  0999 V2000
   -0.1083   -2.4284   -0.7263 O   0  0  0  0  0  0  0  0  0  0  0  0
   -0.1083   -2.4284    0.6547 N   0  0  0  0  0  0  0  0  0  0  0  0
   -0.1083   -1.2577    1.1267 C   0  0  0  0  0  3  0  0  0  0  0  0
   -0.1083   -3.3616   -0.9483 H   0  0  0  0  0  0  0  0  0  0  0  0
   -0.1083   -0.1937    0.3702 H   0  0  0  0  0  0  0  0  0  0  0  0
   -0.1083   -1.1702    2.2049 H   0  0  0  0  0  0  0  0  0  0  0  0
   -0.1083    0.8643   -0.3821 C   0  0  0  0  0  3  0  0  0  0  0  0
    0.5286    2.1232    0.0765 C   0  0  0  0  0  0  0  0  0  0  0  0
   -0.0457    3.3736   -0.5806 C   0  0  0  0  0  0  0  0  0  0  0  0
   -1.0693    0.8776   -0.8804 H   0  0  0  0  0  0  0  0  0  0  0  0
    0.4262    2.2127    1.1689 H   0  0  0  0  0  0  0  0  0  0  0  0
    1.6101    2.0742   -0.0973 H   0  0  0  0  0  0  0  0  0  0  0  0
   -1.1163    3.4588   -0.3825 H   0  0  0  0  0  0  0  0  0  0  0  0
    0.0915    3.3424   -1.6631 H   0  0  0  0  0  0  0  0  0  0  0  0
    0.4377    4.2764   -0.2045 H   0  0  0  0  0  0  0  0  0  0  0  0
  1  2  1  0
  1  4  1  0
  2  3  2  3
  3  6  1  0
  5  7  1  0
  7  8  1  0
  7 10  1  0
  8  9  1  0
  8 11  1  0
  8 12  1  0
  9 13  1  0
  9 14  1  0
  9 15  1  0
M  RAD  2   3   2   7   2
M  END
>  <reaction>  (22) 
rmg_rxn_15371

>  <mol_properties>  (22) 
{"1": {"label": "*4", "atom_type": "N3d"}, "2": {"label": "*3", "atom_type": "Cd"}, "4": {"label": "*2", "atom_type": "H0"}, "6": {"label": "*1", "atom_type": "Cs"}, "7": {"label": "*0", "atom_type": "Cs"}}

>  <type>  (22) 
unop_18

>  <geom_source>  (22) 
Heuristics

$$$$

     RDKit          3D

 15 13  0  0  0  0  0  0  0  0999 V2000
    0.0471   -1.9781   -0.0623 O   0  0  0  0  0  0  0  0  0  0  0  0
    0.0471   -1.9781    1.3187 N   0  0  0  0  0  0  0  0  0  0  0  0
    0.0471   -0.8073    1.7907 C   0  0  0  0  0  3  0  0  0  0  0  0
    0.0471   -2.9112   -0.2843 H   0  0  0  0  0  0  0  0  0  0  0  0
    0.0471    0.2567    1.0342 H   0  0  0  0  0  0  0  0  0  0  0  0
    0.0471   -0.7199    2.8690 H   0  0  0  0  0  0  0  0  0  0  0  0
    0.0471    1.3146    0.2820 C   0  0  0  0  0  3  0  0  0  0  0  0
    0.0471    1.1962   -1.1968 C   0  0  0  0  0  0  0  0  0  0  0  0
   -0.2345    2.5111   -1.9156 C   0  0  0  0  0  0  0  0  0  0  0  0
    0.1479    2.2798    0.7617 H   0  0  0  0  0  0  0  0  0  0  0  0
    1.0176    0.8024   -1.5361 H   0  0  0  0  0  0  0  0  0  0  0  0
   -0.6826    0.4386   -1.5064 H   0  0  0  0  0  0  0  0  0  0  0  0
    0.5087    3.2656   -1.6489 H   0  0  0  0  0  0  0  0  0  0  0  0
   -1.2174    2.9005   -1.6437 H   0  0  0  0  0  0  0  0  0  0  0  0
   -0.2091    2.3838   -2.9987 H   0  0  0  0  0  0  0  0  0  0  0  0
  1  2  1  0
  1  4  1  0
  2  3  2  3
  3  6  1  0
  5  7  1  0
  7  8  1  0
  7 10  1  0
  8  9  1  0
  8 11  1  0
  8 12  1  0
  9 13  1  0
  9 14  1  0
  9 15  1  0
M  RAD  2   3   2   7   2
M  END
>  <reaction>  (23) 
rmg_rxn_15371

>  <mol_properties>  (23) 
{"1": {"label": "*4", "atom_type": "N3d"}, "2": {"label": "*3", "atom_type": "Cd"}, "4": {"label": "*2", "atom_type": "H0"}, "6": {"label": "*1", "atom_type": "Cs"}, "7": {"label": "*0", "atom_type": "Cs"}}

>  <type>  (23) 
unop_19

>  <geom_source>  (23) 
Heuristics

$$$$

     RDKit          3D

 15 13  0  0  0  0  0  0  0  0999 V2000
    3.4012    0.9270    0.0101 O   0  0  0  0  0  0  0  0  0  0  0  0
    2.3826    0.3039    0.6922 N   0  0  0  0  0  0  0  0  0  0  0  0
   -1.7832   -0.3106    0.2799 C   0  0  0  0  0  0  0  0  0  0  0  0
   -1.5945    0.8447   -0.6946 C   0  0  0  0  0  0  0  0  0  0  0  0
   -0.6856   -1.3473    0.0985 C   0  0  0  0  0  2  0  0  0  0  0  0
    1.7988   -0.7351    0.1935 C   0  0  0  0  0  0  0  0  0  0  0  0
   -2.7697   -0.7877    0.0973 H   0  0  0  0  0  0  0  0  0  0  0  0
   -1.7587    0.0737    1.3221 H   0  0  0  0  0  0  0  0  0  0  0  0
   -2.4116    1.5839   -0.5570 H   0  0  0  0  0  0  0  0  0  0  0  0
   -1.6225    0.4738   -1.7416 H   0  0  0  0  0  0  0  0  0  0  0  0
   -0.6229    1.3510   -0.5102 H   0  0  0  0  0  0  0  0  0  0  0  0
   -0.8632   -2.2101    0.7746 H   0  0  0  0  0  0  0  0  0  0  0  0
    0.5755   -0.7756    0.3950 H   0  0  0  0  0  0  0  0  0  0  0  0
    2.1006   -1.1323   -0.7676 H   0  0  0  0  0  0  0  0  0  0  0  0
    3.8533    1.7405    0.4079 H   0  0  0  0  0  0  0  0  0  0  0  0
  1  2  1  0
  1 15  1  0
  2  6  2  3
  3  5  1  0
  3  4  1  0
  3  7  1  0
  3  8  1  0
  4  9  1  0
  4 10  1  0
  4 11  1  0
  5 12  1  0
  6 13  1  0
  6 14  1  0
M  RAD  1   5   3
M  END
>  <reaction>  (24) 
rmg_rxn_15371

>  <mol_properties>  (24) 
{"1": {"label": "*4", "atom_type": "N3d"}, "2": {"label": "*3", "atom_type": "Cd"}, "4": {"label": "*2", "atom_type": "H0"}, "6": {"label": "*1", "atom_type": "Cs"}, "7": {"label": "*0", "atom_type": "Cs"}}

>  <type>  (24) 
unop_20

>  <geom_source>  (24) 
AutoTST

$$$$

     RDKit          3D

 15 13  0  0  0  0  0  0  0  0999 V2000
    0.3085   -2.0186   -0.1580 O   0  0  0  0  0  0  0  0  0  0  0  0
    0.3085   -2.0186    1.2230 N   0  0  0  0  0  0  0  0  0  0  0  0
    0.3085   -0.8478    1.6950 C   0  0  0  0  0  3  0  0  0  0  0  0
    0.3085   -2.9517   -0.3800 H   0  0  0  0  0  0  0  0  0  0  0  0
    0.3085    0.2162    0.9385 H   0  0  0  0  0  0  0  0  0  0  0  0
    0.3085   -0.7603    2.7733 H   0  0  0  0  0  0  0  0  0  0  0  0
    0.3085    1.2741    0.1863 C   0  0  0  0  0  3  0  0  0  0  0  0
   -0.3284    1.2546   -1.1535 C   0  0  0  0  0  0  0  0  0  0  0  0
   -0.8733    2.6097   -1.5913 C   0  0  0  0  0  0  0  0  0  0  0  0
    0.6190    2.2067    0.6399 H   0  0  0  0  0  0  0  0  0  0  0  0
    0.3967    0.9004   -1.9022 H   0  0  0  0  0  0  0  0  0  0  0  0
   -1.1307    0.5074   -1.1698 H   0  0  0  0  0  0  0  0  0  0  0  0
   -0.0772    3.3569   -1.6195 H   0  0  0  0  0  0  0  0  0  0  0  0
   -1.6385    2.9639   -0.8980 H   0  0  0  0  0  0  0  0  0  0  0  0
   -1.3175    2.5554   -2.5862 H   0  0  0  0  0  0  0  0  0  0  0  0
  1  2  1  0
  1  4  1  0
  2  3  2  3
  3  6  1  0
  5  7  1  0
  7  8  1  0
  7 10  1  0
  8  9  1  0
  8 11  1  0
  8 12  1  0
  9 13  1  0
  9 14  1  0
  9 15  1  0
M  RAD  2   3   2   7   2
M  END
>  <reaction>  (25) 
rmg_rxn_15371

>  <mol_properties>  (25) 
{"1": {"label": "*4", "atom_type": "N3d"}, "2": {"label": "*3", "atom_type": "Cd"}, "4": {"label": "*2", "atom_type": "H0"}, "6": {"label": "*1", "atom_type": "Cs"}, "7": {"label": "*0", "atom_type": "Cs"}}

>  <type>  (25) 
unop_21

>  <geom_source>  (25) 
gaussian_log

$$$$
