
     RDKit          3D

  9  8  0  0  0  0  0  0  0  0999 V2000
   -1.5470   -0.0755   -0.1976 C   0  0  0  0  0  0  0  0  0  0  0  0
   -0.2885    0.4507    0.1749 O   0  0  0  0  0  0  0  0  0  0  0  0
   -0.1502    1.7216   -0.3294 N   0  0  0  0  0  0  0  0  0  0  0  0
    0.9626    2.2353   -0.0219 C   0  0  0  0  0  0  0  0  0  0  0  0
   -1.6392   -0.1356   -1.2844 H   0  0  0  0  0  0  0  0  0  0  0  0
   -2.3597    0.5337    0.2044 H   0  0  0  0  0  0  0  0  0  0  0  0
   -1.5879   -1.0750    0.2318 H   0  0  0  0  0  0  0  0  0  0  0  0
    1.1497    3.2381   -0.3820 H   0  0  0  0  0  0  0  0  0  0  0  0
    1.7060    1.7101    0.5739 H   0  0  0  0  0  0  0  0  0  0  0  0
  1  2  1  0
  1  5  1  0
  1  6  1  0
  1  7  1  0
  2  3  1  0
  3  4  2  3
  4  8  1  0
  4  9  1  0
M  END
>  <reaction>  (1) 
rmg_rxn_15619

>  <mol_properties>  (1) 
{"0": {"label": "donator", "atom_type": "Cs"}, "4": {"label": "d_hydrogen", "atom_type": "H0"}}

>  <type>  (1) 
r1h

$$$$

     RDKit          3D

 14 13  0  0  0  0  0  0  0  0999 V2000
    2.6694    0.2813   -0.6046 C   0  0  0  0  0  3  0  0  0  0  0  0
    1.5626   -0.5075   -0.0103 C   0  0  0  0  0  0  0  0  0  0  0  0
    0.5522   -0.8487   -0.9278 O   0  0  0  0  0  0  0  0  0  0  0  0
    0.9505   -1.8204   -1.8682 C   0  0  0  0  0  0  0  0  0  0  0  0
   -0.2101   -2.1029   -2.7930 C   0  0  0  0  0  0  0  0  0  0  0  0
    2.4666    0.9443   -1.4355 H   0  0  0  0  0  0  0  0  0  0  0  0
    3.6339    0.3312   -0.1179 H   0  0  0  0  0  0  0  0  0  0  0  0
    1.0573    0.0741    0.7733 H   0  0  0  0  0  0  0  0  0  0  0  0
    1.9580   -1.4106    0.4809 H   0  0  0  0  0  0  0  0  0  0  0  0
    1.8195   -1.4649   -2.4379 H   0  0  0  0  0  0  0  0  0  0  0  0
    1.2587   -2.7372   -1.3440 H   0  0  0  0  0  0  0  0  0  0  0  0
   -0.5051   -1.1971   -3.3238 H   0  0  0  0  0  0  0  0  0  0  0  0
    0.0686   -2.8601   -3.5276 H   0  0  0  0  0  0  0  0  0  0  0  0
   -1.0699   -2.4661   -2.2289 H   0  0  0  0  0  0  0  0  0  0  0  0
  1  2  1  0
  1  6  1  0
  1  7  1  0
  2  3  1  0
  2  8  1  0
  2  9  1  0
  3  4  1  0
  4  5  1  0
  4 10  1  0
  4 11  1  0
  5 12  1  0
  5 13  1  0
  5 14  1  0
M  RAD  1   1   2
M  END
>  <reaction>  (2) 
rmg_rxn_15619

>  <mol_properties>  (2) 
{"0": {"label": "acceptor", "atom_type": "Cs"}}

>  <type>  (2) 
r2

$$$$

     RDKit          3D

 15 14  0  0  0  0  0  0  0  0999 V2000
    2.4145    0.0817    0.4065 C   0  0  0  0  0  0  0  0  0  0  0  0
    1.1257   -0.2220   -0.3219 C   0  0  0  0  0  0  0  0  0  0  0  0
    1.0983   -1.5879   -0.6512 O   0  0  0  0  0  0  0  0  0  0  0  0
   -0.0685   -1.9694   -1.3352 C   0  0  0  0  0  0  0  0  0  0  0  0
    0.0024   -3.4478   -1.6403 C   0  0  0  0  0  0  0  0  0  0  0  0
    3.2736   -0.1534   -0.2229 H   0  0  0  0  0  0  0  0  0  0  0  0
    2.4581    1.1389    0.6728 H   0  0  0  0  0  0  0  0  0  0  0  0
    2.4855   -0.5095    1.3201 H   0  0  0  0  0  0  0  0  0  0  0  0
    0.2597    0.0294    0.3083 H   0  0  0  0  0  0  0  0  0  0  0  0
    1.0482    0.3858   -1.2356 H   0  0  0  0  0  0  0  0  0  0  0  0
   -0.9535   -1.7457   -0.7211 H   0  0  0  0  0  0  0  0  0  0  0  0
   -0.1650   -1.3894   -2.2650 H   0  0  0  0  0  0  0  0  0  0  0  0
    0.0831   -4.0247   -0.7183 H   0  0  0  0  0  0  0  0  0  0  0  0
   -0.8950   -3.7674   -2.1724 H   0  0  0  0  0  0  0  0  0  0  0  0
    0.8712   -3.6686   -2.2613 H   0  0  0  0  0  0  0  0  0  0  0  0
  1  2  1  0
  1  6  1  0
  1  7  1  0
  1  8  1  0
  2  3  1  0
  2  9  1  0
  2 10  1  0
  3  4  1  0
  4  5  1  0
  4 11  1  0
  4 12  1  0
  5 13  1  0
  5 14  1  0
  5 15  1  0
M  END
>  <reaction>  (3) 
rmg_rxn_15619

>  <mol_properties>  (3) 
{"0": {"label": "a_hydrogen", "atom_type": "H0"}, "1": {"label": "acceptor", "atom_type": "Cs"}}

>  <type>  (3) 
r2h

$$$$

     RDKit          3D

 23 21  0  0  0  0  0  0  0  0999 V2000
   -1.7728    1.1867    1.2369 C   0  0  0  0  0  0  0  0  0  0  0  0
   -1.5954    1.1948   -0.1401 O   0  0  0  0  0  0  0  0  0  0  0  0
   -1.7410   -0.0701   -0.6594 N   0  0  0  0  0  0  0  0  0  0  0  0
   -1.4928   -0.0983   -1.8981 C   0  0  0  0  0  0  0  0  0  0  0  0
   -0.7224    0.6424    1.8301 H   0  0  0  0  0  0  0  0  0  0  0  0
   -2.6283    0.5879    1.5510 H   0  0  0  0  0  0  0  0  0  0  0  0
   -1.8089    2.2195    1.5740 H   0  0  0  0  0  0  0  0  0  0  0  0
   -1.5965   -1.0557   -2.3909 H   0  0  0  0  0  0  0  0  0  0  0  0
   -1.1905    0.7853   -2.4550 H   0  0  0  0  0  0  0  0  0  0  0  0
    0.3513   -0.0029    2.4062 C   0  0  0  0  0  3  0  0  0  0  0  0
    0.8547   -0.9708    1.3833 C   0  0  0  0  0  0  0  0  0  0  0  0
    1.3892   -0.2562    0.2972 O   0  0  0  0  0  0  0  0  0  0  0  0
    1.8025   -1.0848   -0.7576 C   0  0  0  0  0  0  0  0  0  0  0  0
    2.3145   -0.2187   -1.8848 C   0  0  0  0  0  0  0  0  0  0  0  0
    1.0531    0.7908    2.6532 H   0  0  0  0  0  0  0  0  0  0  0  0
   -0.0785   -0.4764    3.2866 H   0  0  0  0  0  0  0  0  0  0  0  0
    0.0357   -1.6207    1.0409 H   0  0  0  0  0  0  0  0  0  0  0  0
    1.6304   -1.6277    1.8139 H   0  0  0  0  0  0  0  0  0  0  0  0
    2.5883   -1.7735   -0.4125 H   0  0  0  0  0  0  0  0  0  0  0  0
    0.9579   -1.7009   -1.0996 H   0  0  0  0  0  0  0  0  0  0  0  0
    3.1601    0.3838   -1.5516 H   0  0  0  0  0  0  0  0  0  0  0  0
    2.6376   -0.8376   -2.7235 H   0  0  0  0  0  0  0  0  0  0  0  0
    1.5299    0.4561   -2.2301 H   0  0  0  0  0  0  0  0  0  0  0  0
  1  2  1  0
  1  5  1  0
  1  6  1  0
  1  7  1  0
  2  3  1  0
  3  4  2  3
  4  8  1  0
  4  9  1  0
 10 11  1  0
 10 15  1  0
 10 16  1  0
 11 12  1  0
 11 17  1  0
 11 18  1  0
 12 13  1  0
 13 14  1  0
 13 19  1  0
 13 20  1  0
 14 21  1  0
 14 22  1  0
 14 23  1  0
M  RAD  1  10   2
M  END
>  <reaction>  (4) 
rmg_rxn_15619

>  <mol_properties>  (4) 
{"0": {"label": "*1", "atom_type": "Cs"}, "1": {"label": "*0", "atom_type": "O2s"}, "4": {"label": "*2", "atom_type": "H0"}, "9": {"label": "*3", "atom_type": "Cs"}, "10": {"label": "*4", "atom_type": "Cs"}}

>  <type>  (4) 
ts

$$$$

     RDKit          3D

 23 21  0  0  0  0  0  0  0  0999 V2000
   -2.3203   -0.7017   -0.1538 C   0  0  0  0  0  3  0  0  0  0  0  0
   -1.9199    0.4759   -0.7555 O   0  0  0  0  0  0  0  0  0  0  0  0
   -1.3119    1.4636   -0.0591 N   0  0  0  0  0  0  0  0  0  0  0  0
   -0.9864    1.3371    1.1542 C   0  0  0  0  0  0  0  0  0  0  0  0
   -1.2524   -1.5072    0.0363 H   0  0  0  0  0  0  0  0  0  0  0  0
   -2.9517   -1.2225   -0.8651 H   0  0  0  0  0  0  0  0  0  0  0  0
   -2.7841   -0.5815    0.8243 H   0  0  0  0  0  0  0  0  0  0  0  0
   -0.5132    2.1951    1.5986 H   0  0  0  0  0  0  0  0  0  0  0  0
   -1.1130    0.4557    1.7735 H   0  0  0  0  0  0  0  0  0  0  0  0
   -0.2024   -2.2635    0.1459 C   0  0  0  0  0  0  0  0  0  0  0  0
    0.9818   -1.4611   -0.3223 C   0  0  0  0  0  0  0  0  0  0  0  0
    1.2298   -0.4301    0.6093 O   0  0  0  0  0  0  0  0  0  0  0  0
    2.3455    0.3795    0.3177 C   0  0  0  0  0  0  0  0  0  0  0  0
    2.1608    1.2920   -0.8938 C   0  0  0  0  0  0  0  0  0  0  0  0
   -0.1291   -2.5320    1.1931 H   0  0  0  0  0  0  0  0  0  0  0  0
   -0.3901   -3.1254   -0.4828 H   0  0  0  0  0  0  0  0  0  0  0  0
    0.7790   -1.0457   -1.3203 H   0  0  0  0  0  0  0  0  0  0  0  0
    1.8803   -2.1030   -0.4043 H   0  0  0  0  0  0  0  0  0  0  0  0
    2.4823    0.9853    1.2175 H   0  0  0  0  0  0  0  0  0  0  0  0
    3.2386   -0.2512    0.1804 H   0  0  0  0  0  0  0  0  0  0  0  0
    2.9664    2.0205   -0.9212 H   0  0  0  0  0  0  0  0  0  0  0  0
    2.1793    0.7254   -1.8217 H   0  0  0  0  0  0  0  0  0  0  0  0
    1.2093    1.8134   -0.8207 H   0  0  0  0  0  0  0  0  0  0  0  0
  1  2  1  0
  1  6  1  0
  1  7  1  0
  2  3  1  0
  3  4  2  3
  4  8  1  0
  4  9  1  0
  5 10  1  0
 10 11  1  0
 10 15  1  0
 10 16  1  0
 11 12  1  0
 11 17  1  0
 11 18  1  0
 12 13  1  0
 13 14  1  0
 13 19  1  0
 13 20  1  0
 14 21  1  0
 14 22  1  0
 14 23  1  0
M  RAD  1   1   2
M  END
>  <reaction>  (5) 
rmg_rxn_15619

>  <mol_properties>  (5) 
{"0": {"label": "*1", "atom_type": "Cs"}, "1": {"label": "*0", "atom_type": "O2s"}, "4": {"label": "*2", "atom_type": "H0"}, "9": {"label": "*3", "atom_type": "Cs"}, "10": {"label": "*4", "atom_type": "Cs"}}

>  <type>  (5) 
unop_1

>  <geom_source>  (5) 
crest_best.xyz

$$$$

     RDKit          3D

 23 21  0  0  0  0  0  0  0  0999 V2000
   -1.3070   -0.1512   -0.5753 C   0  0  0  0  0  3  0  0  0  0  0  0
   -1.3071   -0.0933   -1.9881 O   0  0  0  0  0  0  0  0  0  0  0  0
   -1.3071   -1.3672   -2.5039 N   0  0  0  0  0  0  0  0  0  0  0  0
   -1.3071   -1.3672   -3.7675 C   0  0  0  0  0  0  0  0  0  0  0  0
   -0.2365   -0.7634   -0.1311 H   0  0  0  0  0  0  0  0  0  0  0  0
   -2.1992   -0.6614   -0.2051 H   0  0  0  0  0  0  0  0  0  0  0  0
   -1.3071    0.8837   -0.2375 H   0  0  0  0  0  0  0  0  0  0  0  0
   -1.3071   -2.3343   -4.2523 H   0  0  0  0  0  0  0  0  0  0  0  0
   -1.3071   -0.4507   -4.3537 H   0  0  0  0  0  0  0  0  0  0  0  0
    0.8324   -1.3746    0.3122 C   0  0  0  0  0  0  0  0  0  0  0  0
    1.6377   -0.4552    1.2009 C   0  0  0  0  0  0  0  0  0  0  0  0
    0.8048    0.5781    1.6631 O   0  0  0  0  0  0  0  0  0  0  0  0
    1.4673    1.4900    2.5024 C   0  0  0  0  0  0  0  0  0  0  0  0
    0.4882    2.5542    2.9411 C   0  0  0  0  0  0  0  0  0  0  0  0
   -0.0022   -1.8064    0.8657 H   0  0  0  0  0  0  0  0  0  0  0  0
    1.4598   -2.1864   -0.0592 H   0  0  0  0  0  0  0  0  0  0  0  0
    2.4879   -0.0317    0.6458 H   0  0  0  0  0  0  0  0  0  0  0  0
    2.0533   -1.0119    2.0539 H   0  0  0  0  0  0  0  0  0  0  0  0
    1.8802    0.9641    3.3760 H   0  0  0  0  0  0  0  0  0  0  0  0
    2.3148    1.9443    1.9680 H   0  0  0  0  0  0  0  0  0  0  0  0
   -0.3450    2.1065    3.4838 H   0  0  0  0  0  0  0  0  0  0  0  0
    0.9813    3.2751    3.5951 H   0  0  0  0  0  0  0  0  0  0  0  0
    0.0893    3.0861    2.0766 H   0  0  0  0  0  0  0  0  0  0  0  0
  1  2  1  0
  1  6  1  0
  1  7  1  0
  2  3  1  0
  3  4  2  3
  4  8  1  0
  4  9  1  0
  5 10  1  0
 10 11  1  0
 10 15  1  0
 10 16  1  0
 11 12  1  0
 11 17  1  0
 11 18  1  0
 12 13  1  0
 13 14  1  0
 13 19  1  0
 13 20  1  0
 14 21  1  0
 14 22  1  0
 14 23  1  0
M  RAD  1   1   2
M  END
>  <reaction>  (6) 
rmg_rxn_15619

>  <mol_properties>  (6) 
{"0": {"label": "*1", "atom_type": "Cs"}, "1": {"label": "*0", "atom_type": "O2s"}, "4": {"label": "*2", "atom_type": "H0"}, "9": {"label": "*3", "atom_type": "Cs"}, "10": {"label": "*4", "atom_type": "Cs"}}

>  <type>  (6) 
unop_2

>  <geom_source>  (6) 
Heuristics

$$$$

     RDKit          3D

 23 21  0  0  0  0  0  0  0  0999 V2000
   -1.1990   -1.4836   -0.9135 C   0  0  0  0  0  3  0  0  0  0  0  0
   -2.2933   -0.9800   -0.3354 O   0  0  0  0  0  0  0  0  0  0  0  0
   -2.1383    0.2556    0.2422 N   0  0  0  0  0  0  0  0  0  0  0  0
   -3.1785    0.7330    0.8039 C   0  0  0  0  0  0  0  0  0  0  0  0
    1.0435    2.3558    1.1229 H   0  0  0  0  0  0  0  0  0  0  0  0
   -0.2685   -0.9480   -0.9084 H   0  0  0  0  0  0  0  0  0  0  0  0
   -1.3510   -2.4417   -1.3655 H   0  0  0  0  0  0  0  0  0  0  0  0
   -3.0740    1.6999    1.2601 H   0  0  0  0  0  0  0  0  0  0  0  0
   -4.1362    0.2255    0.8424 H   0  0  0  0  0  0  0  0  0  0  0  0
    0.6631    2.1800    0.1141 C   0  0  0  0  0  0  0  0  0  0  0  0
    1.6369    1.4362   -0.7850 C   0  0  0  0  0  0  0  0  0  0  0  0
    1.6897    0.0473   -0.5464 O   0  0  0  0  0  0  0  0  0  0  0  0
    2.2615   -0.3196    0.6917 C   0  0  0  0  0  0  0  0  0  0  0  0
    2.3912   -1.8343    0.7312 C   0  0  0  0  0  0  0  0  0  0  0  0
   -0.3106    1.7053    0.1394 H   0  0  0  0  0  0  0  0  0  0  0  0
    0.5979    3.2192   -0.1267 H   0  0  0  0  0  0  0  0  0  0  0  0
    2.6460    1.8685   -0.6923 H   0  0  0  0  0  0  0  0  0  0  0  0
    1.3147    1.5213   -1.8267 H   0  0  0  0  0  0  0  0  0  0  0  0
    3.2520    0.1521    0.7945 H   0  0  0  0  0  0  0  0  0  0  0  0
    1.6302    0.0247    1.5227 H   0  0  0  0  0  0  0  0  0  0  0  0
    2.8571   -2.1422    1.6632 H   0  0  0  0  0  0  0  0  0  0  0  0
    1.4087   -2.2919    0.6539 H   0  0  0  0  0  0  0  0  0  0  0  0
    2.9977   -2.1763   -0.1029 H   0  0  0  0  0  0  0  0  0  0  0  0
  1  2  1  0
  1  6  1  0
  1  7  1  0
  2  3  1  0
  3  4  2  3
  4  8  1  0
  4  9  1  0
  5 10  1  0
 10 11  1  0
 10 15  1  0
 10 16  1  0
 11 12  1  0
 11 17  1  0
 11 18  1  0
 12 13  1  0
 13 14  1  0
 13 19  1  0
 13 20  1  0
 14 21  1  0
 14 22  1  0
 14 23  1  0
M  RAD  1   1   2
M  END
>  <reaction>  (7) 
rmg_rxn_15619

>  <mol_properties>  (7) 
{"0": {"label": "*1", "atom_type": "Cs"}, "1": {"label": "*0", "atom_type": "O2s"}, "4": {"label": "*2", "atom_type": "H0"}, "9": {"label": "*3", "atom_type": "Cs"}, "10": {"label": "*4", "atom_type": "Cs"}}

>  <type>  (7) 
unop_3

>  <geom_source>  (7) 
Heuristics

$$$$

     RDKit          3D

 23 21  0  0  0  0  0  0  0  0999 V2000
    3.9017   -0.3601   -0.5944 C   0  0  0  0  0  3  0  0  0  0  0  0
    3.1562    0.5519    0.0389 O   0  0  0  0  0  0  0  0  0  0  0  0
    1.8214    0.2266    0.1590 N   0  0  0  0  0  0  0  0  0  0  0  0
    1.0993    1.0830    0.7608 C   0  0  0  0  0  0  0  0  0  0  0  0
   -2.0450    2.4141   -0.1442 H   0  0  0  0  0  0  0  0  0  0  0  0
    3.4602   -1.2648   -0.9622 H   0  0  0  0  0  0  0  0  0  0  0  0
    4.9365   -0.1071   -0.6818 H   0  0  0  0  0  0  0  0  0  0  0  0
    0.0554    0.8417    0.8621 H   0  0  0  0  0  0  0  0  0  0  0  0
    1.4803    2.0163    1.1633 H   0  0  0  0  0  0  0  0  0  0  0  0
   -2.9030    1.8170   -0.4548 C   0  0  0  0  0  0  0  0  0  0  0  0
   -2.5540    0.3564   -0.6449 C   0  0  0  0  0  0  0  0  0  0  0  0
   -1.9405   -0.1158    0.5367 O   0  0  0  0  0  0  0  0  0  0  0  0
   -1.7563   -1.5132    0.5937 C   0  0  0  0  0  0  0  0  0  0  0  0
   -0.7083   -2.0499   -0.3791 C   0  0  0  0  0  0  0  0  0  0  0  0
   -3.4505    1.9999    0.4437 H   0  0  0  0  0  0  0  0  0  0  0  0
   -3.3883    2.2407   -1.3230 H   0  0  0  0  0  0  0  0  0  0  0  0
   -1.8762    0.2446   -1.5032 H   0  0  0  0  0  0  0  0  0  0  0  0
   -3.4662   -0.2270   -0.8475 H   0  0  0  0  0  0  0  0  0  0  0  0
   -1.4367   -1.7039    1.6217 H   0  0  0  0  0  0  0  0  0  0  0  0
   -2.7199   -2.0201    0.4255 H   0  0  0  0  0  0  0  0  0  0  0  0
    0.2144   -1.4828   -0.2772 H   0  0  0  0  0  0  0  0  0  0  0  0
   -0.5141   -3.0949   -0.1531 H   0  0  0  0  0  0  0  0  0  0  0  0
   -1.0564   -1.9800   -1.4069 H   0  0  0  0  0  0  0  0  0  0  0  0
  1  2  1  0
  1  6  1  0
  1  7  1  0
  2  3  1  0
  3  4  2  3
  4  8  1  0
  4  9  1  0
  5 10  1  0
 10 11  1  0
 10 15  1  0
 10 16  1  0
 11 12  1  0
 11 17  1  0
 11 18  1  0
 12 13  1  0
 13 14  1  0
 13 19  1  0
 13 20  1  0
 14 21  1  0
 14 22  1  0
 14 23  1  0
M  RAD  1   1   2
M  END
>  <reaction>  (8) 
rmg_rxn_15619

>  <mol_properties>  (8) 
{"0": {"label": "*1", "atom_type": "Cs"}, "1": {"label": "*0", "atom_type": "O2s"}, "4": {"label": "*2", "atom_type": "H0"}, "9": {"label": "*3", "atom_type": "Cs"}, "10": {"label": "*4", "atom_type": "Cs"}}

>  <type>  (8) 
unop_4

>  <geom_source>  (8) 
Heuristics

$$$$

     RDKit          3D

 23 21  0  0  0  0  0  0  0  0999 V2000
   -2.3193   -0.7054    0.1420 C   0  0  0  0  0  3  0  0  0  0  0  0
   -1.9247    0.4688    0.7541 O   0  0  0  0  0  0  0  0  0  0  0  0
   -1.3169    1.4637    0.0683 N   0  0  0  0  0  0  0  0  0  0  0  0
   -0.9869    1.3492   -1.1451 C   0  0  0  0  0  0  0  0  0  0  0  0
   -1.2495   -1.5100   -0.0423 H   0  0  0  0  0  0  0  0  0  0  0  0
   -2.7743   -0.5802   -0.8395 H   0  0  0  0  0  0  0  0  0  0  0  0
   -2.9564   -1.2308    0.8447 H   0  0  0  0  0  0  0  0  0  0  0  0
   -0.5145    2.2125   -1.5799 H   0  0  0  0  0  0  0  0  0  0  0  0
   -1.1083    0.4730   -1.7727 H   0  0  0  0  0  0  0  0  0  0  0  0
   -0.1986   -2.2658   -0.1441 C   0  0  0  0  0  0  0  0  0  0  0  0
    0.9828   -1.4592    0.3237 C   0  0  0  0  0  0  0  0  0  0  0  0
    1.2281   -0.4292   -0.6097 O   0  0  0  0  0  0  0  0  0  0  0  0
    2.3451    0.3802   -0.3225 C   0  0  0  0  0  0  0  0  0  0  0  0
    2.1668    1.2898    0.8922 C   0  0  0  0  0  0  0  0  0  0  0  0
   -0.3874   -3.1242    0.4892 H   0  0  0  0  0  0  0  0  0  0  0  0
   -0.1216   -2.5405   -1.1894 H   0  0  0  0  0  0  0  0  0  0  0  0
    1.8832   -2.0982    0.4074 H   0  0  0  0  0  0  0  0  0  0  0  0
    0.7779   -1.0425    1.3208 H   0  0  0  0  0  0  0  0  0  0  0  0
    3.2391   -0.2505   -0.1916 H   0  0  0  0  0  0  0  0  0  0  0  0
    2.4766    0.9879   -1.2218 H   0  0  0  0  0  0  0  0  0  0  0  0
    1.2134    1.8086    0.8272 H   0  0  0  0  0  0  0  0  0  0  0  0
    2.1941    0.7214    1.8187 H   0  0  0  0  0  0  0  0  0  0  0  0
    2.9705    2.0206    0.9150 H   0  0  0  0  0  0  0  0  0  0  0  0
  1  2  1  0
  1  6  1  0
  1  7  1  0
  2  3  1  0
  3  4  2  3
  4  8  1  0
  4  9  1  0
  5 10  1  0
 10 11  1  0
 10 15  1  0
 10 16  1  0
 11 12  1  0
 11 17  1  0
 11 18  1  0
 12 13  1  0
 13 14  1  0
 13 19  1  0
 13 20  1  0
 14 21  1  0
 14 22  1  0
 14 23  1  0
M  RAD  1   1   2
M  END
>  <reaction>  (9) 
rmg_rxn_15619

>  <mol_properties>  (9) 
{"0": {"label": "*1", "atom_type": "Cs"}, "1": {"label": "*0", "atom_type": "O2s"}, "4": {"label": "*2", "atom_type": "H0"}, "9": {"label": "*3", "atom_type": "Cs"}, "10": {"label": "*4", "atom_type": "Cs"}}

>  <type>  (9) 
unop_5

>  <geom_source>  (9) 
Heuristics

$$$$

     RDKit          3D

 23 21  0  0  0  0  0  0  0  0999 V2000
   -1.1676    1.0674   -1.2188 C   0  0  0  0  0  3  0  0  0  0  0  0
   -2.1625    0.6621   -0.3488 O   0  0  0  0  0  0  0  0  0  0  0  0
   -1.9720   -0.6242    0.1137 N   0  0  0  0  0  0  0  0  0  0  0  0
   -2.8194   -1.0440    0.9515 C   0  0  0  0  0  0  0  0  0  0  0  0
   -0.0950    1.4541   -0.4924 H   0  0  0  0  0  0  0  0  0  0  0  0
   -1.5170    1.9507   -1.7407 H   0  0  0  0  0  0  0  0  0  0  0  0
   -0.8089    0.2745   -1.8703 H   0  0  0  0  0  0  0  0  0  0  0  0
   -2.6797   -2.0477    1.3110 H   0  0  0  0  0  0  0  0  0  0  0  0
   -3.6605   -0.4619    1.3142 H   0  0  0  0  0  0  0  0  0  0  0  0
    0.8647    1.8561    0.2832 C   0  0  0  0  0  0  0  0  0  0  0  0
    1.4468    0.7006    1.0709 C   0  0  0  0  0  0  0  0  0  0  0  0
    2.4728   -0.0037    0.4068 O   0  0  0  0  0  0  0  0  0  0  0  0
    2.0952   -0.7406   -0.7380 C   0  0  0  0  0  0  0  0  0  0  0  0
    1.1830   -1.9315   -0.4484 C   0  0  0  0  0  0  0  0  0  0  0  0
    1.5991    2.3276   -0.3608 H   0  0  0  0  0  0  0  0  0  0  0  0
    0.3884    2.5810    0.9338 H   0  0  0  0  0  0  0  0  0  0  0  0
    0.6470    0.0194    1.3956 H   0  0  0  0  0  0  0  0  0  0  0  0
    1.9413    1.0839    1.9731 H   0  0  0  0  0  0  0  0  0  0  0  0
    1.6273   -0.0804   -1.4814 H   0  0  0  0  0  0  0  0  0  0  0  0
    3.0466   -1.0953   -1.1448 H   0  0  0  0  0  0  0  0  0  0  0  0
    0.1858   -1.6099   -0.1561 H   0  0  0  0  0  0  0  0  0  0  0  0
    1.0987   -2.5422   -1.3435 H   0  0  0  0  0  0  0  0  0  0  0  0
    1.6086   -2.5359    0.3490 H   0  0  0  0  0  0  0  0  0  0  0  0
  1  2  1  0
  1  6  1  0
  1  7  1  0
  2  3  1  0
  3  4  2  3
  4  8  1  0
  4  9  1  0
  5 10  1  0
 10 11  1  0
 10 15  1  0
 10 16  1  0
 11 12  1  0
 11 17  1  0
 11 18  1  0
 12 13  1  0
 13 14  1  0
 13 19  1  0
 13 20  1  0
 14 21  1  0
 14 22  1  0
 14 23  1  0
M  RAD  1   1   2
M  END
>  <reaction>  (10) 
rmg_rxn_15619

>  <mol_properties>  (10) 
{"0": {"label": "*1", "atom_type": "Cs"}, "1": {"label": "*0", "atom_type": "O2s"}, "4": {"label": "*2", "atom_type": "H0"}, "9": {"label": "*3", "atom_type": "Cs"}, "10": {"label": "*4", "atom_type": "Cs"}}

>  <type>  (10) 
unop_6

>  <geom_source>  (10) 
Heuristics

$$$$

     RDKit          3D

 23 21  0  0  0  0  0  0  0  0999 V2000
   -1.9384    0.1594    1.0338 C   0  0  0  0  0  3  0  0  0  0  0  0
   -1.9384    0.2173   -0.3791 O   0  0  0  0  0  0  0  0  0  0  0  0
   -1.9384   -1.0566   -0.8948 N   0  0  0  0  0  0  0  0  0  0  0  0
   -1.9384   -1.0566   -2.1584 C   0  0  0  0  0  0  0  0  0  0  0  0
   -0.8678   -0.4528    1.4779 H   0  0  0  0  0  0  0  0  0  0  0  0
   -2.8306   -0.3508    1.4039 H   0  0  0  0  0  0  0  0  0  0  0  0
   -1.9385    1.1943    1.3716 H   0  0  0  0  0  0  0  0  0  0  0  0
   -1.9385   -2.0236   -2.6432 H   0  0  0  0  0  0  0  0  0  0  0  0
   -1.9384   -0.1401   -2.7446 H   0  0  0  0  0  0  0  0  0  0  0  0
    0.2010   -1.0639    1.9213 C   0  0  0  0  0  0  0  0  0  0  0  0
    1.3600   -0.8583    0.9737 C   0  0  0  0  0  0  0  0  0  0  0  0
    1.3647    0.4790    0.5417 O   0  0  0  0  0  0  0  0  0  0  0  0
    2.4125    0.7697   -0.3487 C   0  0  0  0  0  0  0  0  0  0  0  0
    2.3269    2.2243   -0.7494 C   0  0  0  0  0  0  0  0  0  0  0  0
    0.2941   -0.4072    2.7870 H   0  0  0  0  0  0  0  0  0  0  0  0
    0.1771   -2.0974    2.2706 H   0  0  0  0  0  0  0  0  0  0  0  0
    1.2729   -1.5318    0.1081 H   0  0  0  0  0  0  0  0  0  0  0  0
    2.3113   -1.0946    1.4730 H   0  0  0  0  0  0  0  0  0  0  0  0
    3.3806    0.5592    0.1297 H   0  0  0  0  0  0  0  0  0  0  0  0
    2.3421    0.1221   -1.2351 H   0  0  0  0  0  0  0  0  0  0  0  0
    2.4114    2.8677    0.1270 H   0  0  0  0  0  0  0  0  0  0  0  0
    3.1323    2.4736   -1.4420 H   0  0  0  0  0  0  0  0  0  0  0  0
    1.3736    2.4308   -1.2370 H   0  0  0  0  0  0  0  0  0  0  0  0
  1  2  1  0
  1  6  1  0
  1  7  1  0
  2  3  1  0
  3  4  2  3
  4  8  1  0
  4  9  1  0
  5 10  1  0
 10 11  1  0
 10 15  1  0
 10 16  1  0
 11 12  1  0
 11 17  1  0
 11 18  1  0
 12 13  1  0
 13 14  1  0
 13 19  1  0
 13 20  1  0
 14 21  1  0
 14 22  1  0
 14 23  1  0
M  RAD  1   1   2
M  END
>  <reaction>  (11) 
rmg_rxn_15619

>  <mol_properties>  (11) 
{"0": {"label": "*1", "atom_type": "Cs"}, "1": {"label": "*0", "atom_type": "O2s"}, "4": {"label": "*2", "atom_type": "H0"}, "9": {"label": "*3", "atom_type": "Cs"}, "10": {"label": "*4", "atom_type": "Cs"}}

>  <type>  (11) 
unop_7

>  <geom_source>  (11) 
Heuristics

$$$$

     RDKit          3D

 23 21  0  0  0  0  0  0  0  0999 V2000
   -1.1684   -1.0639   -1.2226 C   0  0  0  0  0  3  0  0  0  0  0  0
   -2.1632   -0.6575   -0.3527 O   0  0  0  0  0  0  0  0  0  0  0  0
   -1.9659    0.6250    0.1173 N   0  0  0  0  0  0  0  0  0  0  0  0
   -2.8135    1.0461    0.9541 C   0  0  0  0  0  0  0  0  0  0  0  0
   -0.0984   -1.4560   -0.4954 H   0  0  0  0  0  0  0  0  0  0  0  0
   -0.8058   -0.2702   -1.8710 H   0  0  0  0  0  0  0  0  0  0  0  0
   -1.5206   -1.9441   -1.7479 H   0  0  0  0  0  0  0  0  0  0  0  0
   -2.6684    2.0469    1.3197 H   0  0  0  0  0  0  0  0  0  0  0  0
   -3.6600    0.4680    1.3104 H   0  0  0  0  0  0  0  0  0  0  0  0
    0.8592   -1.8580    0.2828 C   0  0  0  0  0  0  0  0  0  0  0  0
    1.4371   -0.7013    1.0719 C   0  0  0  0  0  0  0  0  0  0  0  0
    2.4679    0.0006    0.4126 O   0  0  0  0  0  0  0  0  0  0  0  0
    2.0979    0.7350   -0.7363 C   0  0  0  0  0  0  0  0  0  0  0  0
    1.1902    1.9311   -0.4543 C   0  0  0  0  0  0  0  0  0  0  0  0
    0.3818   -2.5835    0.9319 H   0  0  0  0  0  0  0  0  0  0  0  0
    1.5963   -2.3286   -0.3588 H   0  0  0  0  0  0  0  0  0  0  0  0
    1.9253   -1.0826    1.9783 H   0  0  0  0  0  0  0  0  0  0  0  0
    0.6356   -0.0186    1.3894 H   0  0  0  0  0  0  0  0  0  0  0  0
    3.0523    1.0840   -1.1411 H   0  0  0  0  0  0  0  0  0  0  0  0
    1.6297    0.0743   -1.4790 H   0  0  0  0  0  0  0  0  0  0  0  0
    1.6169    2.5378    0.3408 H   0  0  0  0  0  0  0  0  0  0  0  0
    1.1098    2.5377   -1.3526 H   0  0  0  0  0  0  0  0  0  0  0  0
    0.1913    1.6149   -0.1619 H   0  0  0  0  0  0  0  0  0  0  0  0
  1  2  1  0
  1  6  1  0
  1  7  1  0
  2  3  1  0
  3  4  2  3
  4  8  1  0
  4  9  1  0
  5 10  1  0
 10 11  1  0
 10 15  1  0
 10 16  1  0
 11 12  1  0
 11 17  1  0
 11 18  1  0
 12 13  1  0
 13 14  1  0
 13 19  1  0
 13 20  1  0
 14 21  1  0
 14 22  1  0
 14 23  1  0
M  RAD  1   1   2
M  END
>  <reaction>  (12) 
rmg_rxn_15619

>  <mol_properties>  (12) 
{"0": {"label": "*1", "atom_type": "Cs"}, "1": {"label": "*0", "atom_type": "O2s"}, "4": {"label": "*2", "atom_type": "H0"}, "9": {"label": "*3", "atom_type": "Cs"}, "10": {"label": "*4", "atom_type": "Cs"}}

>  <type>  (12) 
unop_8

>  <geom_source>  (12) 
Heuristics

$$$$

     RDKit          3D

 23 21  0  0  0  0  0  0  0  0999 V2000
   -0.8863    0.3993   -0.9809 C   0  0  0  0  0  3  0  0  0  0  0  0
   -0.8863    0.4572   -2.3938 O   0  0  0  0  0  0  0  0  0  0  0  0
   -0.8863   -0.8166   -2.9095 N   0  0  0  0  0  0  0  0  0  0  0  0
   -0.8863   -0.8166   -4.1731 C   0  0  0  0  0  0  0  0  0  0  0  0
    0.1843   -0.2129   -0.5368 H   0  0  0  0  0  0  0  0  0  0  0  0
   -1.7784   -0.1109   -0.6107 H   0  0  0  0  0  0  0  0  0  0  0  0
   -0.8863    1.4342   -0.6431 H   0  0  0  0  0  0  0  0  0  0  0  0
   -0.8863   -1.7837   -4.6579 H   0  0  0  0  0  0  0  0  0  0  0  0
   -0.8863    0.0998   -4.7593 H   0  0  0  0  0  0  0  0  0  0  0  0
    1.2531   -0.8240   -0.0934 C   0  0  0  0  0  0  0  0  0  0  0  0
    1.6452   -0.2874    1.2638 C   0  0  0  0  0  0  0  0  0  0  0  0
    0.4852    0.1114    1.9496 O   0  0  0  0  0  0  0  0  0  0  0  0
    0.7486    0.6277    3.2299 C   0  0  0  0  0  0  0  0  0  0  0  0
   -0.5578    1.0241    3.8778 C   0  0  0  0  0  0  0  0  0  0  0  0
    0.5862   -1.6803    0.0125 H   0  0  0  0  0  0  0  0  0  0  0  0
    2.1396   -1.1405   -0.6452 H   0  0  0  0  0  0  0  0  0  0  0  0
    2.3298    0.5671    1.1561 H   0  0  0  0  0  0  0  0  0  0  0  0
    2.1772   -1.0571    1.8424 H   0  0  0  0  0  0  0  0  0  0  0  0
    1.2664   -0.1276    3.8397 H   0  0  0  0  0  0  0  0  0  0  0  0
    1.4190    1.4966    3.1534 H   0  0  0  0  0  0  0  0  0  0  0  0
   -1.2174    0.1603    3.9675 H   0  0  0  0  0  0  0  0  0  0  0  0
   -0.3778    1.4286    4.8750 H   0  0  0  0  0  0  0  0  0  0  0  0
   -1.0649    1.7835    3.2816 H   0  0  0  0  0  0  0  0  0  0  0  0
  1  2  1  0
  1  6  1  0
  1  7  1  0
  2  3  1  0
  3  4  2  3
  4  8  1  0
  4  9  1  0
  5 10  1  0
 10 11  1  0
 10 15  1  0
 10 16  1  0
 11 12  1  0
 11 17  1  0
 11 18  1  0
 12 13  1  0
 13 14  1  0
 13 19  1  0
 13 20  1  0
 14 21  1  0
 14 22  1  0
 14 23  1  0
M  RAD  1   1   2
M  END
>  <reaction>  (13) 
rmg_rxn_15619

>  <mol_properties>  (13) 
{"0": {"label": "*1", "atom_type": "Cs"}, "1": {"label": "*0", "atom_type": "O2s"}, "4": {"label": "*2", "atom_type": "H0"}, "9": {"label": "*3", "atom_type": "Cs"}, "10": {"label": "*4", "atom_type": "Cs"}}

>  <type>  (13) 
unop_9

>  <geom_source>  (13) 
Heuristics

$$$$

     RDKit          3D

 23 21  0  0  0  0  0  0  0  0999 V2000
   -1.5771    1.8454    1.1299 C   0  0  0  0  0  3  0  0  0  0  0  0
   -1.5771    1.9033   -0.2829 O   0  0  0  0  0  0  0  0  0  0  0  0
   -1.5771    0.6295   -0.7987 N   0  0  0  0  0  0  0  0  0  0  0  0
   -1.5771    0.6295   -2.0623 C   0  0  0  0  0  0  0  0  0  0  0  0
   -0.5065    1.2332    1.5741 H   0  0  0  0  0  0  0  0  0  0  0  0
   -2.4692    1.3352    1.5001 H   0  0  0  0  0  0  0  0  0  0  0  0
   -1.5771    2.8803    1.4677 H   0  0  0  0  0  0  0  0  0  0  0  0
   -1.5771   -0.3376   -2.5471 H   0  0  0  0  0  0  0  0  0  0  0  0
   -1.5771    1.5459   -2.6484 H   0  0  0  0  0  0  0  0  0  0  0  0
    0.5623    0.6221    2.0175 C   0  0  0  0  0  0  0  0  0  0  0  0
    0.6218   -0.7919    1.4876 C   0  0  0  0  0  0  0  0  0  0  0  0
    1.3557   -0.7998    0.2891 O   0  0  0  0  0  0  0  0  0  0  0  0
    1.4670   -2.0783   -0.2838 C   0  0  0  0  0  0  0  0  0  0  0  0
    2.2693   -1.9762   -1.5603 C   0  0  0  0  0  0  0  0  0  0  0  0
    1.5669    1.0010    2.2088 H   0  0  0  0  0  0  0  0  0  0  0  0
   -0.0038    0.6529    2.9497 H   0  0  0  0  0  0  0  0  0  0  0  0
   -0.3925   -1.1784    1.3090 H   0  0  0  0  0  0  0  0  0  0  0  0
    1.0970   -1.4582    2.2228 H   0  0  0  0  0  0  0  0  0  0  0  0
    1.9556   -2.7650    0.4234 H   0  0  0  0  0  0  0  0  0  0  0  0
    0.4660   -2.4852   -0.4905 H   0  0  0  0  0  0  0  0  0  0  0  0
    3.2669   -1.5867   -1.3544 H   0  0  0  0  0  0  0  0  0  0  0  0
    2.3691   -2.9590   -2.0237 H   0  0  0  0  0  0  0  0  0  0  0  0
    1.7782   -1.3072   -2.2677 H   0  0  0  0  0  0  0  0  0  0  0  0
  1  2  1  0
  1  6  1  0
  1  7  1  0
  2  3  1  0
  3  4  2  3
  4  8  1  0
  4  9  1  0
  5 10  1  0
 10 11  1  0
 10 15  1  0
 10 16  1  0
 11 12  1  0
 11 17  1  0
 11 18  1  0
 12 13  1  0
 13 14  1  0
 13 19  1  0
 13 20  1  0
 14 21  1  0
 14 22  1  0
 14 23  1  0
M  RAD  1   1   2
M  END
>  <reaction>  (14) 
rmg_rxn_15619

>  <mol_properties>  (14) 
{"0": {"label": "*1", "atom_type": "Cs"}, "1": {"label": "*0", "atom_type": "O2s"}, "4": {"label": "*2", "atom_type": "H0"}, "9": {"label": "*3", "atom_type": "Cs"}, "10": {"label": "*4", "atom_type": "Cs"}}

>  <type>  (14) 
unop_10

>  <geom_source>  (14) 
Heuristics

$$$$

     RDKit          3D

 23 21  0  0  0  0  0  0  0  0999 V2000
   -1.1910   -1.5302   -0.8423 C   0  0  0  0  0  3  0  0  0  0  0  0
   -2.3030   -1.0187   -0.3064 O   0  0  0  0  0  0  0  0  0  0  0  0
   -2.1705    0.2338    0.2395 N   0  0  0  0  0  0  0  0  0  0  0  0
   -3.2278    0.7207    0.7593 C   0  0  0  0  0  0  0  0  0  0  0  0
    3.0070   -2.1466   -0.2072 H   0  0  0  0  0  0  0  0  0  0  0  0
   -0.2668   -0.9839   -0.8344 H   0  0  0  0  0  0  0  0  0  0  0  0
   -1.3259   -2.5005   -1.2732 H   0  0  0  0  0  0  0  0  0  0  0  0
   -3.1403    1.7005    1.1907 H   0  0  0  0  0  0  0  0  0  0  0  0
   -4.1834    0.2085    0.7871 H   0  0  0  0  0  0  0  0  0  0  0  0
    2.5268   -1.7768    0.6997 C   0  0  0  0  0  0  0  0  0  0  0  0
    2.3174   -0.2778    0.6733 C   0  0  0  0  0  0  0  0  0  0  0  0
    1.6740    0.0631   -0.5367 O   0  0  0  0  0  0  0  0  0  0  0  0
    1.5833    1.4465   -0.7941 C   0  0  0  0  0  0  0  0  0  0  0  0
    0.6269    2.1939    0.1332 C   0  0  0  0  0  0  0  0  0  0  0  0
    1.6233   -2.3233    0.5381 H   0  0  0  0  0  0  0  0  0  0  0  0
    3.0477   -2.1034    1.5892 H   0  0  0  0  0  0  0  0  0  0  0  0
    3.2859    0.2434    0.7377 H   0  0  0  0  0  0  0  0  0  0  0  0
    1.7060    0.0256    1.5352 H   0  0  0  0  0  0  0  0  0  0  0  0
    2.5865    1.8994   -0.7464 H   0  0  0  0  0  0  0  0  0  0  0  0
    1.2218    1.5084   -1.8242 H   0  0  0  0  0  0  0  0  0  0  0  0
    1.0327    2.2646    1.1397 H   0  0  0  0  0  0  0  0  0  0  0  0
    0.4737    3.2006   -0.2462 H   0  0  0  0  0  0  0  0  0  0  0  0
   -0.3297    1.6764    0.1727 H   0  0  0  0  0  0  0  0  0  0  0  0
  1  2  1  0
  1  6  1  0
  1  7  1  0
  2  3  1  0
  3  4  2  3
  4  8  1  0
  4  9  1  0
  5 10  1  0
 10 11  1  0
 10 15  1  0
 10 16  1  0
 11 12  1  0
 11 17  1  0
 11 18  1  0
 12 13  1  0
 13 14  1  0
 13 19  1  0
 13 20  1  0
 14 21  1  0
 14 22  1  0
 14 23  1  0
M  RAD  1   1   2
M  END
>  <reaction>  (15) 
rmg_rxn_15619

>  <mol_properties>  (15) 
{"0": {"label": "*1", "atom_type": "Cs"}, "1": {"label": "*0", "atom_type": "O2s"}, "4": {"label": "*2", "atom_type": "H0"}, "9": {"label": "*3", "atom_type": "Cs"}, "10": {"label": "*4", "atom_type": "Cs"}}

>  <type>  (15) 
unop_11

>  <geom_source>  (15) 
Heuristics

$$$$

     RDKit          3D

 23 21  0  0  0  0  0  0  0  0999 V2000
   -0.6390    1.3030   -0.9519 C   0  0  0  0  0  3  0  0  0  0  0  0
   -0.6391    1.3609   -2.3648 O   0  0  0  0  0  0  0  0  0  0  0  0
   -0.6391    0.0871   -2.8806 N   0  0  0  0  0  0  0  0  0  0  0  0
   -0.6391    0.0871   -4.1442 C   0  0  0  0  0  0  0  0  0  0  0  0
    0.4316    0.6909   -0.5078 H   0  0  0  0  0  0  0  0  0  0  0  0
   -1.5312    0.7928   -0.5818 H   0  0  0  0  0  0  0  0  0  0  0  0
   -0.6391    2.3379   -0.6141 H   0  0  0  0  0  0  0  0  0  0  0  0
   -0.6391   -0.8800   -4.6290 H   0  0  0  0  0  0  0  0  0  0  0  0
   -0.6391    1.0036   -4.7303 H   0  0  0  0  0  0  0  0  0  0  0  0
    1.5004    0.0797   -0.0644 C   0  0  0  0  0  0  0  0  0  0  0  0
    1.4901    0.0235    1.4456 C   0  0  0  0  0  0  0  0  0  0  0  0
    0.3474   -0.6768    1.8687 O   0  0  0  0  0  0  0  0  0  0  0  0
    0.2485   -0.7825    3.2666 C   0  0  0  0  0  0  0  0  0  0  0  0
   -1.0073   -1.5482    3.6134 C   0  0  0  0  0  0  0  0  0  0  0  0
    1.5200   -0.9267   -0.4841 H   0  0  0  0  0  0  0  0  0  0  0  0
    2.3805    0.6199   -0.4166 H   0  0  0  0  0  0  0  0  0  0  0  0
    1.4853    1.0393    1.8680 H   0  0  0  0  0  0  0  0  0  0  0  0
    2.3962   -0.4773    1.8178 H   0  0  0  0  0  0  0  0  0  0  0  0
    1.1349   -1.2960    3.6676 H   0  0  0  0  0  0  0  0  0  0  0  0
    0.2240    0.2206    3.7178 H   0  0  0  0  0  0  0  0  0  0  0  0
   -0.9775   -2.5479    3.1788 H   0  0  0  0  0  0  0  0  0  0  0  0
   -1.1054   -1.6429    4.6960 H   0  0  0  0  0  0  0  0  0  0  0  0
   -1.8878   -1.0322    3.2290 H   0  0  0  0  0  0  0  0  0  0  0  0
  1  2  1  0
  1  6  1  0
  1  7  1  0
  2  3  1  0
  3  4  2  3
  4  8  1  0
  4  9  1  0
  5 10  1  0
 10 11  1  0
 10 15  1  0
 10 16  1  0
 11 12  1  0
 11 17  1  0
 11 18  1  0
 12 13  1  0
 13 14  1  0
 13 19  1  0
 13 20  1  0
 14 21  1  0
 14 22  1  0
 14 23  1  0
M  RAD  1   1   2
M  END
>  <reaction>  (16) 
rmg_rxn_15619

>  <mol_properties>  (16) 
{"0": {"label": "*1", "atom_type": "Cs"}, "1": {"label": "*0", "atom_type": "O2s"}, "4": {"label": "*2", "atom_type": "H0"}, "9": {"label": "*3", "atom_type": "Cs"}, "10": {"label": "*4", "atom_type": "Cs"}}

>  <type>  (16) 
unop_12

>  <geom_source>  (16) 
Heuristics

$$$$

     RDKit          3D

 23 21  0  0  0  0  0  0  0  0999 V2000
   -2.3136   -0.7085   -0.1570 C   0  0  0  0  0  3  0  0  0  0  0  0
   -1.9143    0.4696   -0.7586 O   0  0  0  0  0  0  0  0  0  0  0  0
   -1.3159    1.4619   -0.0609 N   0  0  0  0  0  0  0  0  0  0  0  0
   -0.9975    1.3408    1.1549 C   0  0  0  0  0  0  0  0  0  0  0  0
   -1.2447   -1.5121    0.0366 H   0  0  0  0  0  0  0  0  0  0  0  0
   -2.9418   -1.2315   -0.8695 H   0  0  0  0  0  0  0  0  0  0  0  0
   -2.7802   -0.5887    0.8197 H   0  0  0  0  0  0  0  0  0  0  0  0
   -0.5319    2.2028    1.5996 H   0  0  0  0  0  0  0  0  0  0  0  0
   -1.1228    0.4605    1.7758 H   0  0  0  0  0  0  0  0  0  0  0  0
   -0.1941   -2.2670    0.1480 C   0  0  0  0  0  0  0  0  0  0  0  0
    0.9890   -1.4616   -0.3176 C   0  0  0  0  0  0  0  0  0  0  0  0
    1.2267   -0.4252    0.6106 O   0  0  0  0  0  0  0  0  0  0  0  0
    2.3393    0.3893    0.3210 C   0  0  0  0  0  0  0  0  0  0  0  0
    2.1569    1.2926   -0.8977 C   0  0  0  0  0  0  0  0  0  0  0  0
   -0.1226   -2.5357    1.1952 H   0  0  0  0  0  0  0  0  0  0  0  0
   -0.3788   -3.1291   -0.4815 H   0  0  0  0  0  0  0  0  0  0  0  0
    0.7894   -1.0518   -1.3186 H   0  0  0  0  0  0  0  0  0  0  0  0
    1.8910   -2.0997   -0.3917 H   0  0  0  0  0  0  0  0  0  0  0  0
    2.4665    1.0017    1.2177 H   0  0  0  0  0  0  0  0  0  0  0  0
    3.2371   -0.2368    0.1937 H   0  0  0  0  0  0  0  0  0  0  0  0
    2.1869    0.7203   -1.8218 H   0  0  0  0  0  0  0  0  0  0  0  0
    1.2009    1.8072   -0.8349 H   0  0  0  0  0  0  0  0  0  0  0  0
    2.9571    2.0271   -0.9236 H   0  0  0  0  0  0  0  0  0  0  0  0
  1  2  1  0
  1  6  1  0
  1  7  1  0
  2  3  1  0
  3  4  2  3
  4  8  1  0
  4  9  1  0
  5 10  1  0
 10 11  1  0
 10 15  1  0
 10 16  1  0
 11 12  1  0
 11 17  1  0
 11 18  1  0
 12 13  1  0
 13 14  1  0
 13 19  1  0
 13 20  1  0
 14 21  1  0
 14 22  1  0
 14 23  1  0
M  RAD  1   1   2
M  END
>  <reaction>  (17) 
rmg_rxn_15619

>  <mol_properties>  (17) 
{"0": {"label": "*1", "atom_type": "Cs"}, "1": {"label": "*0", "atom_type": "O2s"}, "4": {"label": "*2", "atom_type": "H0"}, "9": {"label": "*3", "atom_type": "Cs"}, "10": {"label": "*4", "atom_type": "Cs"}}

>  <type>  (17) 
unop_13

>  <geom_source>  (17) 
Heuristics

$$$$

     RDKit          3D

 23 21  0  0  0  0  0  0  0  0999 V2000
   -1.1658   -1.0665    1.2185 C   0  0  0  0  0  3  0  0  0  0  0  0
   -2.1625   -0.6621    0.3500 O   0  0  0  0  0  0  0  0  0  0  0  0
   -1.9717    0.6227   -0.1163 N   0  0  0  0  0  0  0  0  0  0  0  0
   -2.8237    1.0428   -0.9492 C   0  0  0  0  0  0  0  0  0  0  0  0
   -0.0945   -1.4553    0.4916 H   0  0  0  0  0  0  0  0  0  0  0  0
   -1.5151   -1.9483    1.7432 H   0  0  0  0  0  0  0  0  0  0  0  0
   -0.8053   -0.2724    1.8676 H   0  0  0  0  0  0  0  0  0  0  0  0
   -2.6839    2.0451   -1.3126 H   0  0  0  0  0  0  0  0  0  0  0  0
   -3.6686    0.4618   -1.3047 H   0  0  0  0  0  0  0  0  0  0  0  0
    0.8663   -1.8570   -0.2828 C   0  0  0  0  0  0  0  0  0  0  0  0
    1.4469   -0.7008   -1.0707 C   0  0  0  0  0  0  0  0  0  0  0  0
    2.4727    0.0040   -0.4067 O   0  0  0  0  0  0  0  0  0  0  0  0
    2.0947    0.7412    0.7377 C   0  0  0  0  0  0  0  0  0  0  0  0
    1.1840    1.9330    0.4472 C   0  0  0  0  0  0  0  0  0  0  0  0
    1.6010   -2.3264    0.3623 H   0  0  0  0  0  0  0  0  0  0  0  0
    0.3921   -2.5835   -0.9333 H   0  0  0  0  0  0  0  0  0  0  0  0
    0.6463   -0.0200   -1.3943 H   0  0  0  0  0  0  0  0  0  0  0  0
    1.9410   -1.0831   -1.9735 H   0  0  0  0  0  0  0  0  0  0  0  0
    1.6252    0.0814    1.4805 H   0  0  0  0  0  0  0  0  0  0  0  0
    3.0459    1.0949    1.1458 H   0  0  0  0  0  0  0  0  0  0  0  0
    1.6111    2.5368   -0.3500 H   0  0  0  0  0  0  0  0  0  0  0  0
    0.1868    1.6125    0.1539 H   0  0  0  0  0  0  0  0  0  0  0  0
    1.0996    2.5440    1.3420 H   0  0  0  0  0  0  0  0  0  0  0  0
  1  2  1  0
  1  6  1  0
  1  7  1  0
  2  3  1  0
  3  4  2  3
  4  8  1  0
  4  9  1  0
  5 10  1  0
 10 11  1  0
 10 15  1  0
 10 16  1  0
 11 12  1  0
 11 17  1  0
 11 18  1  0
 12 13  1  0
 13 14  1  0
 13 19  1  0
 13 20  1  0
 14 21  1  0
 14 22  1  0
 14 23  1  0
M  RAD  1   1   2
M  END
>  <reaction>  (18) 
rmg_rxn_15619

>  <mol_properties>  (18) 
{"0": {"label": "*1", "atom_type": "Cs"}, "1": {"label": "*0", "atom_type": "O2s"}, "4": {"label": "*2", "atom_type": "H0"}, "9": {"label": "*3", "atom_type": "Cs"}, "10": {"label": "*4", "atom_type": "Cs"}}

>  <type>  (18) 
unop_14

>  <geom_source>  (18) 
Heuristics

$$$$

     RDKit          3D

 23 21  0  0  0  0  0  0  0  0999 V2000
   -1.2795    2.1968    0.6704 C   0  0  0  0  0  3  0  0  0  0  0  0
   -1.2795    2.2547   -0.7425 O   0  0  0  0  0  0  0  0  0  0  0  0
   -1.2795    0.9808   -1.2582 N   0  0  0  0  0  0  0  0  0  0  0  0
   -1.2795    0.9808   -2.5219 C   0  0  0  0  0  0  0  0  0  0  0  0
   -0.2089    1.5846    1.1145 H   0  0  0  0  0  0  0  0  0  0  0  0
   -2.1716    1.6866    1.0405 H   0  0  0  0  0  0  0  0  0  0  0  0
   -1.2795    3.2317    1.0082 H   0  0  0  0  0  0  0  0  0  0  0  0
   -1.2795    0.0137   -3.0067 H   0  0  0  0  0  0  0  0  0  0  0  0
   -1.2795    1.8973   -3.1080 H   0  0  0  0  0  0  0  0  0  0  0  0
    0.8599    0.9734    1.5579 C   0  0  0  0  0  0  0  0  0  0  0  0
    0.6061   -0.5107    1.6866 C   0  0  0  0  0  0  0  0  0  0  0  0
    1.1383   -1.1641    0.5619 O   0  0  0  0  0  0  0  0  0  0  0  0
    0.9507   -2.5566    0.5901 C   0  0  0  0  0  0  0  0  0  0  0  0
    1.5558   -3.1588   -0.6568 C   0  0  0  0  0  0  0  0  0  0  0  0
    1.9302    1.1743    1.4988 H   0  0  0  0  0  0  0  0  0  0  0  0
    0.4545    1.5025    2.4218 H   0  0  0  0  0  0  0  0  0  0  0  0
   -0.4730   -0.7111    1.7611 H   0  0  0  0  0  0  0  0  0  0  0  0
    1.0719   -0.9022    2.6032 H   0  0  0  0  0  0  0  0  0  0  0  0
    1.4219   -2.9806    1.4892 H   0  0  0  0  0  0  0  0  0  0  0  0
   -0.1230   -2.7894    0.6472 H   0  0  0  0  0  0  0  0  0  0  0  0
    2.6232   -2.9412   -0.7070 H   0  0  0  0  0  0  0  0  0  0  0  0
    1.4219   -4.2417   -0.6570 H   0  0  0  0  0  0  0  0  0  0  0  0
    1.0793   -2.7501   -1.5486 H   0  0  0  0  0  0  0  0  0  0  0  0
  1  2  1  0
  1  6  1  0
  1  7  1  0
  2  3  1  0
  3  4  2  3
  4  8  1  0
  4  9  1  0
  5 10  1  0
 10 11  1  0
 10 15  1  0
 10 16  1  0
 11 12  1  0
 11 17  1  0
 11 18  1  0
 12 13  1  0
 13 14  1  0
 13 19  1  0
 13 20  1  0
 14 21  1  0
 14 22  1  0
 14 23  1  0
M  RAD  1   1   2
M  END
>  <reaction>  (19) 
rmg_rxn_15619

>  <mol_properties>  (19) 
{"0": {"label": "*1", "atom_type": "Cs"}, "1": {"label": "*0", "atom_type": "O2s"}, "4": {"label": "*2", "atom_type": "H0"}, "9": {"label": "*3", "atom_type": "Cs"}, "10": {"label": "*4", "atom_type": "Cs"}}

>  <type>  (19) 
unop_15

>  <geom_source>  (19) 
Heuristics

$$$$

     RDKit          3D

 23 21  0  0  0  0  0  0  0  0999 V2000
   -2.3197   -0.7049    0.1443 C   0  0  0  0  0  3  0  0  0  0  0  0
   -1.9243    0.4701    0.7544 O   0  0  0  0  0  0  0  0  0  0  0  0
   -1.3162    1.4636    0.0666 N   0  0  0  0  0  0  0  0  0  0  0  0
   -0.9872    1.3469   -1.1468 C   0  0  0  0  0  0  0  0  0  0  0  0
   -1.2499   -1.5090   -0.0413 H   0  0  0  0  0  0  0  0  0  0  0  0
   -2.7766   -0.5807   -0.8365 H   0  0  0  0  0  0  0  0  0  0  0  0
   -2.9557   -1.2296    0.8486 H   0  0  0  0  0  0  0  0  0  0  0  0
   -0.5147    2.2093   -1.5833 H   0  0  0  0  0  0  0  0  0  0  0  0
   -1.1099    0.4700   -1.7731 H   0  0  0  0  0  0  0  0  0  0  0  0
   -0.1993   -2.2651   -0.1445 C   0  0  0  0  0  0  0  0  0  0  0  0
    0.9825   -1.4592    0.3235 C   0  0  0  0  0  0  0  0  0  0  0  0
    1.2288   -0.4293   -0.6098 O   0  0  0  0  0  0  0  0  0  0  0  0
    2.3456    0.3800   -0.3217 C   0  0  0  0  0  0  0  0  0  0  0  0
    2.1664    1.2899    0.8926 C   0  0  0  0  0  0  0  0  0  0  0  0
   -0.3879   -3.1242    0.4879 H   0  0  0  0  0  0  0  0  0  0  0  0
   -0.1229   -2.5385   -1.1902 H   0  0  0  0  0  0  0  0  0  0  0  0
    1.8824   -2.0989    0.4074 H   0  0  0  0  0  0  0  0  0  0  0  0
    0.7777   -1.0423    1.3205 H   0  0  0  0  0  0  0  0  0  0  0  0
    3.2394   -0.2508   -0.1898 H   0  0  0  0  0  0  0  0  0  0  0  0
    2.4781    0.9875   -1.2210 H   0  0  0  0  0  0  0  0  0  0  0  0
    2.9697    2.0211    0.9156 H   0  0  0  0  0  0  0  0  0  0  0  0
    1.2128    1.8082    0.8269 H   0  0  0  0  0  0  0  0  0  0  0  0
    2.1934    0.7219    1.8193 H   0  0  0  0  0  0  0  0  0  0  0  0
  1  2  1  0
  1  6  1  0
  1  7  1  0
  2  3  1  0
  3  4  2  3
  4  8  1  0
  4  9  1  0
  5 10  1  0
 10 11  1  0
 10 15  1  0
 10 16  1  0
 11 12  1  0
 11 17  1  0
 11 18  1  0
 12 13  1  0
 13 14  1  0
 13 19  1  0
 13 20  1  0
 14 21  1  0
 14 22  1  0
 14 23  1  0
M  RAD  1   1   2
M  END
>  <reaction>  (20) 
rmg_rxn_15619

>  <mol_properties>  (20) 
{"0": {"label": "*1", "atom_type": "Cs"}, "1": {"label": "*0", "atom_type": "O2s"}, "4": {"label": "*2", "atom_type": "H0"}, "9": {"label": "*3", "atom_type": "Cs"}, "10": {"label": "*4", "atom_type": "Cs"}}

>  <type>  (20) 
unop_16

>  <geom_source>  (20) 
Heuristics

$$$$

     RDKit          3D

 23 21  0  0  0  0  0  0  0  0999 V2000
   -1.0071    2.2585    0.0902 C   0  0  0  0  0  3  0  0  0  0  0  0
   -1.0072    2.3164   -1.3227 O   0  0  0  0  0  0  0  0  0  0  0  0
   -1.0072    1.0425   -1.8385 N   0  0  0  0  0  0  0  0  0  0  0  0
   -1.0072    1.0425   -3.1021 C   0  0  0  0  0  0  0  0  0  0  0  0
    0.0635    1.6463    0.5343 H   0  0  0  0  0  0  0  0  0  0  0  0
   -1.8993    1.7483    0.4603 H   0  0  0  0  0  0  0  0  0  0  0  0
   -1.0072    3.2934    0.4280 H   0  0  0  0  0  0  0  0  0  0  0  0
   -1.0072    0.0754   -3.5869 H   0  0  0  0  0  0  0  0  0  0  0  0
   -1.0072    1.9590   -3.6882 H   0  0  0  0  0  0  0  0  0  0  0  0
    1.1323    1.0351    0.9777 C   0  0  0  0  0  0  0  0  0  0  0  0
    0.7491   -0.1877    1.7785 C   0  0  0  0  0  0  0  0  0  0  0  0
    0.8823   -1.3262    0.9654 O   0  0  0  0  0  0  0  0  0  0  0  0
    0.5464   -2.5206    1.6254 C   0  0  0  0  0  0  0  0  0  0  0  0
    0.7230   -3.6767    0.6684 C   0  0  0  0  0  0  0  0  0  0  0  0
    2.1642    0.9584    0.6334 H   0  0  0  0  0  0  0  0  0  0  0  0
    1.0364    1.9332    1.5899 H   0  0  0  0  0  0  0  0  0  0  0  0
   -0.2872   -0.1026    2.1379 H   0  0  0  0  0  0  0  0  0  0  0  0
    1.3923   -0.2832    2.6659 H   0  0  0  0  0  0  0  0  0  0  0  0
    1.1864   -2.6530    2.5103 H   0  0  0  0  0  0  0  0  0  0  0  0
   -0.4931   -2.4725    1.9823 H   0  0  0  0  0  0  0  0  0  0  0  0
    1.7565   -3.7343    0.3253 H   0  0  0  0  0  0  0  0  0  0  0  0
    0.4674   -4.6168    1.1599 H   0  0  0  0  0  0  0  0  0  0  0  0
    0.0780   -3.5539   -0.2024 H   0  0  0  0  0  0  0  0  0  0  0  0
  1  2  1  0
  1  6  1  0
  1  7  1  0
  2  3  1  0
  3  4  2  3
  4  8  1  0
  4  9  1  0
  5 10  1  0
 10 11  1  0
 10 15  1  0
 10 16  1  0
 11 12  1  0
 11 17  1  0
 11 18  1  0
 12 13  1  0
 13 14  1  0
 13 19  1  0
 13 20  1  0
 14 21  1  0
 14 22  1  0
 14 23  1  0
M  RAD  1   1   2
M  END
>  <reaction>  (21) 
rmg_rxn_15619

>  <mol_properties>  (21) 
{"0": {"label": "*1", "atom_type": "Cs"}, "1": {"label": "*0", "atom_type": "O2s"}, "4": {"label": "*2", "atom_type": "H0"}, "9": {"label": "*3", "atom_type": "Cs"}, "10": {"label": "*4", "atom_type": "Cs"}}

>  <type>  (21) 
unop_17

>  <geom_source>  (21) 
Heuristics

$$$$

     RDKit          3D

 23 21  0  0  0  0  0  0  0  0999 V2000
   -1.1686    1.0739   -1.2145 C   0  0  0  0  0  3  0  0  0  0  0  0
   -2.1618    0.6646   -0.3442 O   0  0  0  0  0  0  0  0  0  0  0  0
   -1.9698   -0.6232    0.1130 N   0  0  0  0  0  0  0  0  0  0  0  0
   -2.8182   -1.0485    0.9470 C   0  0  0  0  0  0  0  0  0  0  0  0
   -0.0944    1.4592   -0.4898 H   0  0  0  0  0  0  0  0  0  0  0  0
   -1.5199    1.9585   -1.7329 H   0  0  0  0  0  0  0  0  0  0  0  0
   -0.8104    0.2834   -1.8692 H   0  0  0  0  0  0  0  0  0  0  0  0
   -2.6770   -2.0533    1.3029 H   0  0  0  0  0  0  0  0  0  0  0  0
   -3.6615   -0.4699    1.3100 H   0  0  0  0  0  0  0  0  0  0  0  0
    0.8695    1.8579    0.2822 C   0  0  0  0  0  0  0  0  0  0  0  0
    1.4471    0.7002    1.0701 C   0  0  0  0  0  0  0  0  0  0  0  0
    2.4714   -0.0069    0.4062 O   0  0  0  0  0  0  0  0  0  0  0  0
    2.0920   -0.7425   -0.7388 C   0  0  0  0  0  0  0  0  0  0  0  0
    1.1797   -1.9333   -0.4491 C   0  0  0  0  0  0  0  0  0  0  0  0
    1.6048    2.3239   -0.3648 H   0  0  0  0  0  0  0  0  0  0  0  0
    0.3994    2.5870    0.9328 H   0  0  0  0  0  0  0  0  0  0  0  0
    0.6448    0.0213    1.3934 H   0  0  0  0  0  0  0  0  0  0  0  0
    1.9419    1.0812    1.9730 H   0  0  0  0  0  0  0  0  0  0  0  0
    1.6232   -0.0814   -1.4809 H   0  0  0  0  0  0  0  0  0  0  0  0
    3.0426   -1.0971   -1.1475 H   0  0  0  0  0  0  0  0  0  0  0  0
    1.0940   -2.5432   -1.3446 H   0  0  0  0  0  0  0  0  0  0  0  0
    1.6062   -2.5386    0.3472 H   0  0  0  0  0  0  0  0  0  0  0  0
    0.1831   -1.6115   -0.1553 H   0  0  0  0  0  0  0  0  0  0  0  0
  1  2  1  0
  1  6  1  0
  1  7  1  0
  2  3  1  0
  3  4  2  3
  4  8  1  0
  4  9  1  0
  5 10  1  0
 10 11  1  0
 10 15  1  0
 10 16  1  0
 11 12  1  0
 11 17  1  0
 11 18  1  0
 12 13  1  0
 13 14  1  0
 13 19  1  0
 13 20  1  0
 14 21  1  0
 14 22  1  0
 14 23  1  0
M  RAD  1   1   2
M  END
>  <reaction>  (22) 
rmg_rxn_15619

>  <mol_properties>  (22) 
{"0": {"label": "*1", "atom_type": "Cs"}, "1": {"label": "*0", "atom_type": "O2s"}, "4": {"label": "*2", "atom_type": "H0"}, "9": {"label": "*3", "atom_type": "Cs"}, "10": {"label": "*4", "atom_type": "Cs"}}

>  <type>  (22) 
unop_18

>  <geom_source>  (22) 
Heuristics

$$$$

     RDKit          3D

 23 21  0  0  0  0  0  0  0  0999 V2000
   -1.6450   -0.3196    0.0041 C   0  0  0  0  0  3  0  0  0  0  0  0
   -1.6450   -0.2617   -1.4088 O   0  0  0  0  0  0  0  0  0  0  0  0
   -1.6450   -1.5356   -1.9245 N   0  0  0  0  0  0  0  0  0  0  0  0
   -1.6450   -1.5356   -3.1881 C   0  0  0  0  0  0  0  0  0  0  0  0
   -0.5744   -0.9318    0.4482 H   0  0  0  0  0  0  0  0  0  0  0  0
   -2.5371   -0.8298    0.3742 H   0  0  0  0  0  0  0  0  0  0  0  0
   -1.6450    0.7153    0.3419 H   0  0  0  0  0  0  0  0  0  0  0  0
   -1.6450   -2.5027   -3.6730 H   0  0  0  0  0  0  0  0  0  0  0  0
   -1.6450   -0.6191   -3.7743 H   0  0  0  0  0  0  0  0  0  0  0  0
    0.4944   -1.5430    0.8916 C   0  0  0  0  0  0  0  0  0  0  0  0
    1.6131   -0.5534    1.1217 C   0  0  0  0  0  0  0  0  0  0  0  0
    1.0640    0.7333    1.2555 O   0  0  0  0  0  0  0  0  0  0  0  0
    2.0320    1.7286    1.4740 C   0  0  0  0  0  0  0  0  0  0  0  0
    1.3405    3.0660    1.6031 C   0  0  0  0  0  0  0  0  0  0  0  0
   -0.2015   -1.5350    1.7312 H   0  0  0  0  0  0  0  0  0  0  0  0
    0.8977   -2.5512    0.7845 H   0  0  0  0  0  0  0  0  0  0  0  0
    2.3225   -0.5730    0.2811 H   0  0  0  0  0  0  0  0  0  0  0  0
    2.1783   -0.8162    2.0282 H   0  0  0  0  0  0  0  0  0  0  0  0
    2.6039    1.5019    2.3860 H   0  0  0  0  0  0  0  0  0  0  0  0
    2.7480    1.7451    0.6389 H   0  0  0  0  0  0  0  0  0  0  0  0
    0.6411    3.0553    2.4398 H   0  0  0  0  0  0  0  0  0  0  0  0
    2.0738    3.8558    1.7736 H   0  0  0  0  0  0  0  0  0  0  0  0
    0.7852    3.2984    0.6938 H   0  0  0  0  0  0  0  0  0  0  0  0
  1  2  1  0
  1  6  1  0
  1  7  1  0
  2  3  1  0
  3  4  2  3
  4  8  1  0
  4  9  1  0
  5 10  1  0
 10 11  1  0
 10 15  1  0
 10 16  1  0
 11 12  1  0
 11 17  1  0
 11 18  1  0
 12 13  1  0
 13 14  1  0
 13 19  1  0
 13 20  1  0
 14 21  1  0
 14 22  1  0
 14 23  1  0
M  RAD  1   1   2
M  END
>  <reaction>  (23) 
rmg_rxn_15619

>  <mol_properties>  (23) 
{"0": {"label": "*1", "atom_type": "Cs"}, "1": {"label": "*0", "atom_type": "O2s"}, "4": {"label": "*2", "atom_type": "H0"}, "9": {"label": "*3", "atom_type": "Cs"}, "10": {"label": "*4", "atom_type": "Cs"}}

>  <type>  (23) 
unop_19

>  <geom_source>  (23) 
Heuristics

$$$$

     RDKit          3D

 23 21  0  0  0  0  0  0  0  0999 V2000
   -2.3203   -0.7017   -0.1538 C   0  0  0  0  0  3  0  0  0  0  0  0
   -1.9199    0.4759   -0.7555 O   0  0  0  0  0  0  0  0  0  0  0  0
   -1.3119    1.4636   -0.0591 N   0  0  0  0  0  0  0  0  0  0  0  0
   -0.9864    1.3371    1.1542 C   0  0  0  0  0  0  0  0  0  0  0  0
   -1.2524   -1.5072    0.0363 H   0  0  0  0  0  0  0  0  0  0  0  0
   -2.9517   -1.2225   -0.8651 H   0  0  0  0  0  0  0  0  0  0  0  0
   -2.7841   -0.5815    0.8243 H   0  0  0  0  0  0  0  0  0  0  0  0
   -0.5132    2.1951    1.5986 H   0  0  0  0  0  0  0  0  0  0  0  0
   -1.1130    0.4557    1.7735 H   0  0  0  0  0  0  0  0  0  0  0  0
   -0.2024   -2.2635    0.1459 C   0  0  0  0  0  0  0  0  0  0  0  0
    0.9818   -1.4611   -0.3223 C   0  0  0  0  0  0  0  0  0  0  0  0
    1.2298   -0.4301    0.6093 O   0  0  0  0  0  0  0  0  0  0  0  0
    2.3455    0.3795    0.3177 C   0  0  0  0  0  0  0  0  0  0  0  0
    2.1608    1.2920   -0.8938 C   0  0  0  0  0  0  0  0  0  0  0  0
   -0.1291   -2.5320    1.1931 H   0  0  0  0  0  0  0  0  0  0  0  0
   -0.3901   -3.1254   -0.4828 H   0  0  0  0  0  0  0  0  0  0  0  0
    0.7790   -1.0457   -1.3203 H   0  0  0  0  0  0  0  0  0  0  0  0
    1.8803   -2.1030   -0.4043 H   0  0  0  0  0  0  0  0  0  0  0  0
    2.4823    0.9853    1.2175 H   0  0  0  0  0  0  0  0  0  0  0  0
    3.2386   -0.2512    0.1804 H   0  0  0  0  0  0  0  0  0  0  0  0
    2.9664    2.0205   -0.9212 H   0  0  0  0  0  0  0  0  0  0  0  0
    2.1793    0.7254   -1.8217 H   0  0  0  0  0  0  0  0  0  0  0  0
    1.2093    1.8134   -0.8207 H   0  0  0  0  0  0  0  0  0  0  0  0
  1  2  1  0
  1  6  1  0
  1  7  1  0
  2  3  1  0
  3  4  2  3
  4  8  1  0
  4  9  1  0
  5 10  1  0
 10 11  1  0
 10 15  1  0
 10 16  1  0
 11 12  1  0
 11 17  1  0
 11 18  1  0
 12 13  1  0
 13 14  1  0
 13 19  1  0
 13 20  1  0
 14 21  1  0
 14 22  1  0
 14 23  1  0
M  RAD  1   1   2
M  END
>  <reaction>  (24) 
rmg_rxn_15619

>  <mol_properties>  (24) 
{"0": {"label": "*1", "atom_type": "Cs"}, "1": {"label": "*0", "atom_type": "O2s"}, "4": {"label": "*2", "atom_type": "H0"}, "9": {"label": "*3", "atom_type": "Cs"}, "10": {"label": "*4", "atom_type": "Cs"}}

>  <type>  (24) 
unop_20

>  <geom_source>  (24) 
Heuristics

$$$$

     RDKit          3D

 23 21  0  0  0  0  0  0  0  0999 V2000
   -1.8206    1.2850    1.3568 C   0  0  0  0  0  3  0  0  0  0  0  0
   -1.8206    1.3429   -0.0561 O   0  0  0  0  0  0  0  0  0  0  0  0
   -1.8206    0.0690   -0.5718 N   0  0  0  0  0  0  0  0  0  0  0  0
   -1.8206    0.0690   -1.8354 C   0  0  0  0  0  0  0  0  0  0  0  0
   -0.7500    0.6728    1.8009 H   0  0  0  0  0  0  0  0  0  0  0  0
   -2.7127    0.7748    1.7269 H   0  0  0  0  0  0  0  0  0  0  0  0
   -1.8206    2.3199    1.6946 H   0  0  0  0  0  0  0  0  0  0  0  0
   -1.8206   -0.8980   -2.3203 H   0  0  0  0  0  0  0  0  0  0  0  0
   -1.8206    0.9855   -2.4216 H   0  0  0  0  0  0  0  0  0  0  0  0
    0.3188    0.0616    2.2443 C   0  0  0  0  0  0  0  0  0  0  0  0
    0.7916   -0.9696    1.2460 C   0  0  0  0  0  0  0  0  0  0  0  0
    1.4767   -0.3179    0.2062 O   0  0  0  0  0  0  0  0  0  0  0  0
    1.9576   -1.1988   -0.7775 C   0  0  0  0  0  0  0  0  0  0  0  0
    2.6740   -0.4013   -1.8427 C   0  0  0  0  0  0  0  0  0  0  0  0
    1.1663    0.6080    2.6597 H   0  0  0  0  0  0  0  0  0  0  0  0
   -0.2171   -0.4222    3.0625 H   0  0  0  0  0  0  0  0  0  0  0  0
   -0.0629   -1.5301    0.8386 H   0  0  0  0  0  0  0  0  0  0  0  0
    1.4551   -1.6997    1.7326 H   0  0  0  0  0  0  0  0  0  0  0  0
    2.6397   -1.9326   -0.3230 H   0  0  0  0  0  0  0  0  0  0  0  0
    1.1217   -1.7630   -1.2170 H   0  0  0  0  0  0  0  0  0  0  0  0
    3.5120    0.1469   -1.4107 H   0  0  0  0  0  0  0  0  0  0  0  0
    3.0569   -1.0657   -2.6189 H   0  0  0  0  0  0  0  0  0  0  0  0
    1.9949    0.3164   -2.3042 H   0  0  0  0  0  0  0  0  0  0  0  0
  1  2  1  0
  1  6  1  0
  1  7  1  0
  2  3  1  0
  3  4  2  3
  4  8  1  0
  4  9  1  0
  5 10  1  0
 10 11  1  0
 10 15  1  0
 10 16  1  0
 11 12  1  0
 11 17  1  0
 11 18  1  0
 12 13  1  0
 13 14  1  0
 13 19  1  0
 13 20  1  0
 14 21  1  0
 14 22  1  0
 14 23  1  0
M  RAD  1   1   2
M  END
>  <reaction>  (25) 
rmg_rxn_15619

>  <mol_properties>  (25) 
{"0": {"label": "*1", "atom_type": "Cs"}, "1": {"label": "*0", "atom_type": "O2s"}, "4": {"label": "*2", "atom_type": "H0"}, "9": {"label": "*3", "atom_type": "Cs"}, "10": {"label": "*4", "atom_type": "Cs"}}

>  <type>  (25) 
unop_21

>  <geom_source>  (25) 
Heuristics

$$$$

     RDKit          3D

 23 21  0  0  0  0  0  0  0  0999 V2000
   -1.8489   -0.1896    0.5781 C   0  0  0  0  0  3  0  0  0  0  0  0
   -1.8489   -0.1316   -0.8348 O   0  0  0  0  0  0  0  0  0  0  0  0
   -1.8489   -1.4055   -1.3505 N   0  0  0  0  0  0  0  0  0  0  0  0
   -1.8489   -1.4055   -2.6141 C   0  0  0  0  0  0  0  0  0  0  0  0
   -0.7783   -0.8017    1.0222 H   0  0  0  0  0  0  0  0  0  0  0  0
   -2.7410   -0.6997    0.9482 H   0  0  0  0  0  0  0  0  0  0  0  0
   -1.8489    0.8453    0.9159 H   0  0  0  0  0  0  0  0  0  0  0  0
   -1.8489   -2.3726   -3.0990 H   0  0  0  0  0  0  0  0  0  0  0  0
   -1.8489   -0.4890   -3.2003 H   0  0  0  0  0  0  0  0  0  0  0  0
    0.2906   -1.4129    1.4656 C   0  0  0  0  0  0  0  0  0  0  0  0
    1.5387   -0.6846    1.0236 C   0  0  0  0  0  0  0  0  0  0  0  0
    1.2386    0.6788    0.8619 O   0  0  0  0  0  0  0  0  0  0  0  0
    2.3430    1.4439    0.4497 C   0  0  0  0  0  0  0  0  0  0  0  0
    1.9152    2.8862    0.3067 C   0  0  0  0  0  0  0  0  0  0  0  0
   -0.0718   -1.0102    2.4121 H   0  0  0  0  0  0  0  0  0  0  0  0
    0.4998   -2.4756    1.5978 H   0  0  0  0  0  0  0  0  0  0  0  0
    1.9118   -1.1015    0.0763 H   0  0  0  0  0  0  0  0  0  0  0  0
    2.3391   -0.8068    1.7683 H   0  0  0  0  0  0  0  0  0  0  0  0
    3.1562    1.3554    1.1854 H   0  0  0  0  0  0  0  0  0  0  0  0
    2.7289    1.0608   -0.5066 H   0  0  0  0  0  0  0  0  0  0  0  0
    1.5462    3.2714    1.2578 H   0  0  0  0  0  0  0  0  0  0  0  0
    2.7582    3.5006   -0.0133 H   0  0  0  0  0  0  0  0  0  0  0  0
    1.1191    2.9770   -0.4332 H   0  0  0  0  0  0  0  0  0  0  0  0
  1  2  1  0
  1  6  1  0
  1  7  1  0
  2  3  1  0
  3  4  2  3
  4  8  1  0
  4  9  1  0
  5 10  1  0
 10 11  1  0
 10 15  1  0
 10 16  1  0
 11 12  1  0
 11 17  1  0
 11 18  1  0
 12 13  1  0
 13 14  1  0
 13 19  1  0
 13 20  1  0
 14 21  1  0
 14 22  1  0
 14 23  1  0
M  RAD  1   1   2
M  END
>  <reaction>  (26) 
rmg_rxn_15619

>  <mol_properties>  (26) 
{"0": {"label": "*1", "atom_type": "Cs"}, "1": {"label": "*0", "atom_type": "O2s"}, "4": {"label": "*2", "atom_type": "H0"}, "9": {"label": "*3", "atom_type": "Cs"}, "10": {"label": "*4", "atom_type": "Cs"}}

>  <type>  (26) 
unop_22

>  <geom_source>  (26) 
Heuristics

$$$$

     RDKit          3D

 23 21  0  0  0  0  0  0  0  0999 V2000
   -0.7767    1.9973   -0.4908 C   0  0  0  0  0  3  0  0  0  0  0  0
   -0.7767    2.0552   -1.9037 O   0  0  0  0  0  0  0  0  0  0  0  0
   -0.7767    0.7814   -2.4194 N   0  0  0  0  0  0  0  0  0  0  0  0
   -0.7767    0.7814   -3.6830 C   0  0  0  0  0  0  0  0  0  0  0  0
    0.2939    1.3851   -0.0467 H   0  0  0  0  0  0  0  0  0  0  0  0
   -1.6688    1.4871   -0.1207 H   0  0  0  0  0  0  0  0  0  0  0  0
   -0.7767    3.0322   -0.1530 H   0  0  0  0  0  0  0  0  0  0  0  0
   -0.7767   -0.1857   -4.1679 H   0  0  0  0  0  0  0  0  0  0  0  0
   -0.7767    1.6978   -4.2692 H   0  0  0  0  0  0  0  0  0  0  0  0
    1.3627    0.7740    0.3967 C   0  0  0  0  0  0  0  0  0  0  0  0
    1.0686    0.0738    1.7032 C   0  0  0  0  0  0  0  0  0  0  0  0
    0.5955   -1.2212    1.4307 O   0  0  0  0  0  0  0  0  0  0  0  0
    0.2927   -1.9556    2.5901 C   0  0  0  0  0  0  0  0  0  0  0  0
   -0.2045   -3.3248    2.1880 C   0  0  0  0  0  0  0  0  0  0  0  0
    2.1183    0.2270   -0.1683 H   0  0  0  0  0  0  0  0  0  0  0  0
    1.7321    1.7835    0.5837 H   0  0  0  0  0  0  0  0  0  0  0  0
    0.3172    0.6342    2.2789 H   0  0  0  0  0  0  0  0  0  0  0  0
    1.9761    0.0190    2.3227 H   0  0  0  0  0  0  0  0  0  0  0  0
    1.1878   -2.0425    3.2236 H   0  0  0  0  0  0  0  0  0  0  0  0
   -0.4711   -1.4273    3.1799 H   0  0  0  0  0  0  0  0  0  0  0  0
    0.5575   -3.8551    1.6158 H   0  0  0  0  0  0  0  0  0  0  0  0
   -0.4464   -3.9142    3.0738 H   0  0  0  0  0  0  0  0  0  0  0  0
   -1.1004   -3.2403    1.5721 H   0  0  0  0  0  0  0  0  0  0  0  0
  1  2  1  0
  1  6  1  0
  1  7  1  0
  2  3  1  0
  3  4  2  3
  4  8  1  0
  4  9  1  0
  5 10  1  0
 10 11  1  0
 10 15  1  0
 10 16  1  0
 11 12  1  0
 11 17  1  0
 11 18  1  0
 12 13  1  0
 13 14  1  0
 13 19  1  0
 13 20  1  0
 14 21  1  0
 14 22  1  0
 14 23  1  0
M  RAD  1   1   2
M  END
>  <reaction>  (27) 
rmg_rxn_15619

>  <mol_properties>  (27) 
{"0": {"label": "*1", "atom_type": "Cs"}, "1": {"label": "*0", "atom_type": "O2s"}, "4": {"label": "*2", "atom_type": "H0"}, "9": {"label": "*3", "atom_type": "Cs"}, "10": {"label": "*4", "atom_type": "Cs"}}

>  <type>  (27) 
unop_23

>  <geom_source>  (27) 
Heuristics

$$$$

     RDKit          3D

 23 21  0  0  0  0  0  0  0  0999 V2000
   -1.9381    0.6730    1.3111 C   0  0  0  0  0  3  0  0  0  0  0  0
   -1.9381    0.7309   -0.1018 O   0  0  0  0  0  0  0  0  0  0  0  0
   -1.9381   -0.5430   -0.6175 N   0  0  0  0  0  0  0  0  0  0  0  0
   -1.9381   -0.5430   -1.8811 C   0  0  0  0  0  0  0  0  0  0  0  0
   -0.8675    0.0608    1.7552 H   0  0  0  0  0  0  0  0  0  0  0  0
   -2.8302    0.1628    1.6812 H   0  0  0  0  0  0  0  0  0  0  0  0
   -1.9381    1.7079    1.6489 H   0  0  0  0  0  0  0  0  0  0  0  0
   -1.9381   -1.5101   -2.3659 H   0  0  0  0  0  0  0  0  0  0  0  0
   -1.9381    0.3735   -2.4673 H   0  0  0  0  0  0  0  0  0  0  0  0
    0.2013   -0.5504    2.1986 C   0  0  0  0  0  0  0  0  0  0  0  0
    1.0765   -0.9888    1.0473 C   0  0  0  0  0  0  0  0  0  0  0  0
    1.4630    0.1439    0.3106 O   0  0  0  0  0  0  0  0  0  0  0  0
    2.2843   -0.1635   -0.7876 C   0  0  0  0  0  0  0  0  0  0  0  0
    2.6408    1.1165   -1.5075 C   0  0  0  0  0  0  0  0  0  0  0  0
    0.7434    0.1348    2.8513 H   0  0  0  0  0  0  0  0  0  0  0  0
   -0.1117   -1.4150    2.7861 H   0  0  0  0  0  0  0  0  0  0  0  0
    0.5337   -1.6914    0.3978 H   0  0  0  0  0  0  0  0  0  0  0  0
    1.9673   -1.5155    1.4206 H   0  0  0  0  0  0  0  0  0  0  0  0
    3.1942   -0.6771   -0.4435 H   0  0  0  0  0  0  0  0  0  0  0  0
    1.7606   -0.8531   -1.4662 H   0  0  0  0  0  0  0  0  0  0  0  0
    3.1729    1.7949   -0.8398 H   0  0  0  0  0  0  0  0  0  0  0  0
    3.2794    0.9021   -2.3658 H   0  0  0  0  0  0  0  0  0  0  0  0
    1.7402    1.6190   -1.8620 H   0  0  0  0  0  0  0  0  0  0  0  0
  1  2  1  0
  1  6  1  0
  1  7  1  0
  2  3  1  0
  3  4  2  3
  4  8  1  0
  4  9  1  0
  5 10  1  0
 10 11  1  0
 10 15  1  0
 10 16  1  0
 11 12  1  0
 11 17  1  0
 11 18  1  0
 12 13  1  0
 13 14  1  0
 13 19  1  0
 13 20  1  0
 14 21  1  0
 14 22  1  0
 14 23  1  0
M  RAD  1   1   2
M  END
>  <reaction>  (28) 
rmg_rxn_15619

>  <mol_properties>  (28) 
{"0": {"label": "*1", "atom_type": "Cs"}, "1": {"label": "*0", "atom_type": "O2s"}, "4": {"label": "*2", "atom_type": "H0"}, "9": {"label": "*3", "atom_type": "Cs"}, "10": {"label": "*4", "atom_type": "Cs"}}

>  <type>  (28) 
unop_24

>  <geom_source>  (28) 
Heuristics

$$$$

     RDKit          3D

 23 21  0  0  0  0  0  0  0  0999 V2000
   -1.1918   -1.5020   -0.8823 C   0  0  0  0  0  3  0  0  0  0  0  0
   -2.2949   -0.9982   -0.3215 O   0  0  0  0  0  0  0  0  0  0  0  0
   -2.1554    0.2480    0.2368 N   0  0  0  0  0  0  0  0  0  0  0  0
   -3.2047    0.7260    0.7809 C   0  0  0  0  0  0  0  0  0  0  0  0
    1.0341    2.3552    1.1283 H   0  0  0  0  0  0  0  0  0  0  0  0
   -0.2664   -0.9577   -0.8808 H   0  0  0  0  0  0  0  0  0  0  0  0
   -1.3322   -2.4686   -1.3197 H   0  0  0  0  0  0  0  0  0  0  0  0
   -3.1124    1.7012    1.2219 H   0  0  0  0  0  0  0  0  0  0  0  0
   -4.1586    0.2113    0.8188 H   0  0  0  0  0  0  0  0  0  0  0  0
    0.6438    2.1759    0.1242 C   0  0  0  0  0  0  0  0  0  0  0  0
    1.6144    1.4435   -0.7874 C   0  0  0  0  0  0  0  0  0  0  0  0
    1.6891    0.0558   -0.5475 O   0  0  0  0  0  0  0  0  0  0  0  0
    2.2856   -0.3015    0.6817 C   0  0  0  0  0  0  0  0  0  0  0  0
    2.4453   -1.8135    0.7171 C   0  0  0  0  0  0  0  0  0  0  0  0
   -0.3252    1.6925    0.1596 H   0  0  0  0  0  0  0  0  0  0  0  0
    0.5667    3.2150   -0.1122 H   0  0  0  0  0  0  0  0  0  0  0  0
    2.6190    1.8892   -0.7096 H   0  0  0  0  0  0  0  0  0  0  0  0
    1.2763    1.5227   -1.8245 H   0  0  0  0  0  0  0  0  0  0  0  0
    3.2681    0.1892    0.7713 H   0  0  0  0  0  0  0  0  0  0  0  0
    1.6596    0.0295    1.5223 H   0  0  0  0  0  0  0  0  0  0  0  0
    3.0486   -2.1422   -0.1246 H   0  0  0  0  0  0  0  0  0  0  0  0
    2.9279   -2.1136    1.6431 H   0  0  0  0  0  0  0  0  0  0  0  0
    1.4710   -2.2900    0.6503 H   0  0  0  0  0  0  0  0  0  0  0  0
  1  2  1  0
  1  6  1  0
  1  7  1  0
  2  3  1  0
  3  4  2  3
  4  8  1  0
  4  9  1  0
  5 10  1  0
 10 11  1  0
 10 15  1  0
 10 16  1  0
 11 12  1  0
 11 17  1  0
 11 18  1  0
 12 13  1  0
 13 14  1  0
 13 19  1  0
 13 20  1  0
 14 21  1  0
 14 22  1  0
 14 23  1  0
M  RAD  1   1   2
M  END
>  <reaction>  (29) 
rmg_rxn_15619

>  <mol_properties>  (29) 
{"0": {"label": "*1", "atom_type": "Cs"}, "1": {"label": "*0", "atom_type": "O2s"}, "4": {"label": "*2", "atom_type": "H0"}, "9": {"label": "*3", "atom_type": "Cs"}, "10": {"label": "*4", "atom_type": "Cs"}}

>  <type>  (29) 
unop_25

>  <geom_source>  (29) 
Heuristics

$$$$

     RDKit          3D

 23 21  0  0  0  0  0  0  0  0999 V2000
   -1.5407   -0.2745    0.3530 O   0  0  0  0  0  0  0  0  0  0  0  0
    3.4011    0.2803   -0.3523 O   0  0  0  0  0  0  0  0  0  0  0  0
    3.1890    1.6073   -0.0576 N   0  0  0  0  0  0  0  0  0  0  0  0
   -1.2557   -1.5653   -0.1412 C   0  0  0  0  0  0  0  0  0  0  0  0
   -2.8903    0.0425    0.0875 C   0  0  0  0  0  0  0  0  0  0  0  0
    0.1989   -1.8979    0.1481 C   0  0  0  0  0  0  0  0  0  0  0  0
   -3.1904    1.4345    0.6219 C   0  0  0  0  0  0  0  0  0  0  0  0
    2.3011   -0.5967   -0.5187 C   0  0  0  0  0  3  0  0  0  0  0  0
    4.1872    2.4132    0.0947 C   0  0  0  0  0  0  0  0  0  0  0  0
   -1.8944   -2.3311    0.3555 H   0  0  0  0  0  0  0  0  0  0  0  0
   -1.4079   -1.6098   -1.2436 H   0  0  0  0  0  0  0  0  0  0  0  0
   -3.5735   -0.6787    0.5917 H   0  0  0  0  0  0  0  0  0  0  0  0
   -3.0899    0.0400   -1.0086 H   0  0  0  0  0  0  0  0  0  0  0  0
    0.3830   -1.8798    1.2433 H   0  0  0  0  0  0  0  0  0  0  0  0
    0.4387   -2.9097   -0.2417 H   0  0  0  0  0  0  0  0  0  0  0  0
    0.9690   -1.0306   -0.4278 H   0  0  0  0  0  0  0  0  0  0  0  0
   -3.0157    1.4665    1.7183 H   0  0  0  0  0  0  0  0  0  0  0  0
   -2.5345    2.1814    0.1263 H   0  0  0  0  0  0  0  0  0  0  0  0
   -4.2506    1.6948    0.4183 H   0  0  0  0  0  0  0  0  0  0  0  0
    2.6741   -1.6257   -0.6993 H   0  0  0  0  0  0  0  0  0  0  0  0
    1.6894   -0.2713   -1.3862 H   0  0  0  0  0  0  0  0  0  0  0  0
    5.2045    2.0565   -0.0074 H   0  0  0  0  0  0  0  0  0  0  0  0
    4.0076    3.4541    0.3261 H   0  0  0  0  0  0  0  0  0  0  0  0
  1  4  1  0
  1  5  1  0
  2  8  1  0
  2  3  1  0
  3  9  2  3
  4  6  1  0
  4 10  1  0
  4 11  1  0
  5  7  1  0
  5 12  1  0
  5 13  1  0
  6 14  1  0
  6 15  1  0
  6 16  1  0
  7 17  1  0
  7 18  1  0
  7 19  1  0
  8 20  1  0
  8 21  1  0
  9 22  1  0
  9 23  1  0
M  RAD  1   8   2
M  END
>  <reaction>  (30) 
rmg_rxn_15619

>  <mol_properties>  (30) 
{"0": {"label": "*1", "atom_type": "Cs"}, "1": {"label": "*0", "atom_type": "O2s"}, "4": {"label": "*2", "atom_type": "H0"}, "9": {"label": "*3", "atom_type": "Cs"}, "10": {"label": "*4", "atom_type": "Cs"}}

>  <type>  (30) 
unop_26

>  <geom_source>  (30) 
AutoTST

$$$$

     RDKit          3D

 23 21  0  0  0  0  0  0  0  0999 V2000
   -1.9384    0.1594    1.0338 C   0  0  0  0  0  3  0  0  0  0  0  0
   -1.9385    0.2173   -0.3791 O   0  0  0  0  0  0  0  0  0  0  0  0
   -1.9385   -1.0566   -0.8948 N   0  0  0  0  0  0  0  0  0  0  0  0
   -1.9385   -1.0566   -2.1584 C   0  0  0  0  0  0  0  0  0  0  0  0
   -0.8678   -0.4528    1.4779 H   0  0  0  0  0  0  0  0  0  0  0  0
   -2.8306   -0.3508    1.4039 H   0  0  0  0  0  0  0  0  0  0  0  0
   -1.9385    1.1943    1.3716 H   0  0  0  0  0  0  0  0  0  0  0  0
   -1.9385   -2.0236   -2.6433 H   0  0  0  0  0  0  0  0  0  0  0  0
   -1.9385   -0.1401   -2.7446 H   0  0  0  0  0  0  0  0  0  0  0  0
    0.2010   -1.0639    1.9213 C   0  0  0  0  0  0  0  0  0  0  0  0
    1.3600   -0.8583    0.9737 C   0  0  0  0  0  0  0  0  0  0  0  0
    1.3647    0.4790    0.5417 O   0  0  0  0  0  0  0  0  0  0  0  0
    2.4125    0.7697   -0.3487 C   0  0  0  0  0  0  0  0  0  0  0  0
    2.3269    2.2243   -0.7494 C   0  0  0  0  0  0  0  0  0  0  0  0
    0.2941   -0.4072    2.7870 H   0  0  0  0  0  0  0  0  0  0  0  0
    0.1771   -2.0974    2.2706 H   0  0  0  0  0  0  0  0  0  0  0  0
    1.2729   -1.5318    0.1081 H   0  0  0  0  0  0  0  0  0  0  0  0
    2.3113   -1.0946    1.4730 H   0  0  0  0  0  0  0  0  0  0  0  0
    3.3806    0.5592    0.1297 H   0  0  0  0  0  0  0  0  0  0  0  0
    2.3421    0.1221   -1.2351 H   0  0  0  0  0  0  0  0  0  0  0  0
    2.4114    2.8677    0.1270 H   0  0  0  0  0  0  0  0  0  0  0  0
    3.1323    2.4736   -1.4420 H   0  0  0  0  0  0  0  0  0  0  0  0
    1.3736    2.4308   -1.2370 H   0  0  0  0  0  0  0  0  0  0  0  0
  1  2  1  0
  1  6  1  0
  1  7  1  0
  2  3  1  0
  3  4  2  3
  4  8  1  0
  4  9  1  0
  5 10  1  0
 10 11  1  0
 10 15  1  0
 10 16  1  0
 11 12  1  0
 11 17  1  0
 11 18  1  0
 12 13  1  0
 13 14  1  0
 13 19  1  0
 13 20  1  0
 14 21  1  0
 14 22  1  0
 14 23  1  0
M  RAD  1   1   2
M  END
>  <reaction>  (31) 
rmg_rxn_15619

>  <mol_properties>  (31) 
{"0": {"label": "*1", "atom_type": "Cs"}, "1": {"label": "*0", "atom_type": "O2s"}, "4": {"label": "*2", "atom_type": "H0"}, "9": {"label": "*3", "atom_type": "Cs"}, "10": {"label": "*4", "atom_type": "Cs"}}

>  <type>  (31) 
unop_27

>  <geom_source>  (31) 
gaussian_log

$$$$
