
     RDKit          3D

 18 17  0  0  0  0  0  0  0  0999 V2000
    2.2026   -0.7213   -0.2612 C   0  0  0  0  0  0  0  0  0  0  0  0
    1.5384    0.2638    0.6915 C   0  0  0  0  0  0  0  0  0  0  0  0
    2.2584    1.5946    0.7694 C   0  0  0  0  0  0  0  0  0  0  0  0
    2.2212    2.2185   -0.4893 O   0  0  0  0  0  0  0  0  0  0  0  0
    2.8988    3.4488   -0.5204 C   0  0  0  0  0  0  0  0  0  0  0  0
    2.7981    4.0296   -1.9118 C   0  0  0  0  0  0  0  0  0  0  0  0
    3.2294   -0.9309    0.0486 H   0  0  0  0  0  0  0  0  0  0  0  0
    2.2338   -0.3181   -1.2734 H   0  0  0  0  0  0  0  0  0  0  0  0
    1.6610   -1.6680   -0.2875 H   0  0  0  0  0  0  0  0  0  0  0  0
    1.4990   -0.1566    1.7002 H   0  0  0  0  0  0  0  0  0  0  0  0
    0.5055    0.4455    0.3835 H   0  0  0  0  0  0  0  0  0  0  0  0
    3.3038    1.4410    1.0808 H   0  0  0  0  0  0  0  0  0  0  0  0
    1.7844    2.2410    1.5226 H   0  0  0  0  0  0  0  0  0  0  0  0
    2.4596    4.1376    0.2164 H   0  0  0  0  0  0  0  0  0  0  0  0
    3.9524    3.3035   -0.2397 H   0  0  0  0  0  0  0  0  0  0  0  0
    1.7543    4.1869   -2.1856 H   0  0  0  0  0  0  0  0  0  0  0  0
    3.2472    3.3545   -2.6411 H   0  0  0  0  0  0  0  0  0  0  0  0
    3.3178    4.9878   -1.9600 H   0  0  0  0  0  0  0  0  0  0  0  0
  1  2  1  0
  1  7  1  0
  1  8  1  0
  1  9  1  0
  2  3  1  0
  2 10  1  0
  2 11  1  0
  3  4  1  0
  3 12  1  0
  3 13  1  0
  4  5  1  0
  5  6  1  0
  5 14  1  0
  5 15  1  0
  6 16  1  0
  6 17  1  0
  6 18  1  0
M  END
>  <reaction>  (1) 
rmg_rxn_225

>  <mol_properties>  (1) 
{"1": {"label": "donator", "atom_type": "Cs"}, "9": {"label": "d_hydrogen", "atom_type": "H0"}}

>  <type>  (1) 
r1h

$$$$

     RDKit          3D

  8  7  0  0  0  0  0  0  0  0999 V2000
   -1.0336    0.3440   -0.0356 C   0  0  0  0  0  3  0  0  0  0  0  0
    0.1991   -0.4326   -0.0698 C   0  0  0  0  0  0  0  0  0  0  0  0
    0.9631   -0.0368    1.2269 N   0  0  0  0  0  0  0  0  0  0  0  0
    0.8138   -0.8074    2.1160 O   0  0  0  0  0  0  0  0  0  0  0  0
   -1.0668    1.3490   -0.4321 H   0  0  0  0  0  0  0  0  0  0  0  0
   -1.8598    0.0102    0.5774 H   0  0  0  0  0  0  0  0  0  0  0  0
    0.0447   -1.5108   -0.0264 H   0  0  0  0  0  0  0  0  0  0  0  0
    0.8639   -0.1518   -0.8851 H   0  0  0  0  0  0  0  0  0  0  0  0
  1  2  1  0
  1  5  1  0
  1  6  1  0
  2  3  1  0
  2  7  1  0
  2  8  1  0
  3  4  2  0
M  RAD  1   1   2
M  END
>  <reaction>  (2) 
rmg_rxn_225

>  <mol_properties>  (2) 
{"0": {"label": "acceptor", "atom_type": "Cs"}}

>  <type>  (2) 
r2

$$$$

     RDKit          3D

  9  8  0  0  0  0  0  0  0  0999 V2000
   -1.0314    0.2323   -0.1227 C   0  0  0  0  0  0  0  0  0  0  0  0
    0.3094   -0.4511    0.0063 C   0  0  0  0  0  0  0  0  0  0  0  0
    0.3197   -1.7698    0.6841 N   0  0  0  0  0  0  0  0  0  0  0  0
   -0.7498   -2.1455    1.0557 O   0  0  0  0  0  0  0  0  0  0  0  0
   -1.4744    0.4198    0.8552 H   0  0  0  0  0  0  0  0  0  0  0  0
   -0.9073    1.1865   -0.6350 H   0  0  0  0  0  0  0  0  0  0  0  0
   -1.7319   -0.3778   -0.6927 H   0  0  0  0  0  0  0  0  0  0  0  0
    1.0375    0.1401    0.5713 H   0  0  0  0  0  0  0  0  0  0  0  0
    0.7826   -0.6494   -0.9609 H   0  0  0  0  0  0  0  0  0  0  0  0
  1  2  1  0
  1  5  1  0
  1  6  1  0
  1  7  1  0
  2  3  1  0
  2  8  1  0
  2  9  1  0
  3  4  2  0
M  END
>  <reaction>  (3) 
rmg_rxn_225

>  <mol_properties>  (3) 
{"0": {"label": "acceptor", "atom_type": "Cs"}, "8": {"label": "a_hydrogen", "atom_type": "H0"}}

>  <type>  (3) 
r2h

$$$$

     RDKit          3D

 26 24  0  0  0  0  0  0  0  0999 V2000
    1.1794   -1.7684    0.6480 C   0  0  0  0  0  3  0  0  0  0  0  0
    2.2204   -1.3351   -0.3286 C   0  0  0  0  0  0  0  0  0  0  0  0
    3.6321   -1.7591   -0.0646 N   0  0  0  0  0  0  0  0  0  0  0  0
    3.7811   -2.4161    0.9173 O   0  0  0  0  0  0  0  0  0  0  0  0
    0.9787   -2.8364    0.6651 H   0  0  0  0  0  0  0  0  0  0  0  0
    1.2927   -1.3613    1.6497 H   0  0  0  0  0  0  0  0  0  0  0  0
    2.0310   -1.6997   -1.3435 H   0  0  0  0  0  0  0  0  0  0  0  0
    2.2965   -0.2458   -0.4157 H   0  0  0  0  0  0  0  0  0  0  0  0
   -0.9898   -0.7298   -1.7759 C   0  0  0  0  0  0  0  0  0  0  0  0
   -1.0752   -0.6315   -0.2758 C   0  0  0  0  0  0  0  0  0  0  0  0
   -1.0119    0.7556    0.2969 C   0  0  0  0  0  0  0  0  0  0  0  0
   -2.1400    1.4898   -0.1166 O   0  0  0  0  0  0  0  0  0  0  0  0
   -2.1474    2.8114    0.3667 C   0  0  0  0  0  0  0  0  0  0  0  0
   -3.3914    3.5084   -0.1323 C   0  0  0  0  0  0  0  0  0  0  0  0
   -0.1104   -0.2019   -2.1544 H   0  0  0  0  0  0  0  0  0  0  0  0
   -1.8680   -0.2786   -2.2448 H   0  0  0  0  0  0  0  0  0  0  0  0
   -0.9312   -1.7693   -2.1035 H   0  0  0  0  0  0  0  0  0  0  0  0
    0.0059   -1.2182    0.2024 H   0  0  0  0  0  0  0  0  0  0  0  0
   -1.8858   -1.2207    0.1534 H   0  0  0  0  0  0  0  0  0  0  0  0
   -0.0937    1.2608   -0.0449 H   0  0  0  0  0  0  0  0  0  0  0  0
   -0.9719    0.7132    1.3951 H   0  0  0  0  0  0  0  0  0  0  0  0
   -2.1225    2.8076    1.4662 H   0  0  0  0  0  0  0  0  0  0  0  0
   -1.2458    3.3396    0.0233 H   0  0  0  0  0  0  0  0  0  0  0  0
   -4.2856    2.9925    0.2191 H   0  0  0  0  0  0  0  0  0  0  0  0
   -3.4094    3.5249   -1.2226 H   0  0  0  0  0  0  0  0  0  0  0  0
   -3.4190    4.5369    0.2306 H   0  0  0  0  0  0  0  0  0  0  0  0
  1  2  1  0
  1  5  1  0
  1  6  1  0
  2  3  1  0
  2  7  1  0
  2  8  1  0
  3  4  2  0
  9 10  1  0
  9 15  1  0
  9 16  1  0
  9 17  1  0
 10 11  1  0
 10 18  1  0
 10 19  1  0
 11 12  1  0
 11 20  1  0
 11 21  1  0
 12 13  1  0
 13 14  1  0
 13 22  1  0
 13 23  1  0
 14 24  1  0
 14 25  1  0
 14 26  1  0
M  RAD  1   1   2
M  END
>  <reaction>  (4) 
rmg_rxn_225

>  <mol_properties>  (4) 
{"0": {"label": "*3", "atom_type": "Cs"}, "1": {"label": "*4", "atom_type": "Cs"}, "9": {"label": "*1", "atom_type": "Cs"}, "10": {"label": "*0", "atom_type": "Cs"}, "17": {"label": "*2", "atom_type": "H0"}}

>  <type>  (4) 
ts

$$$$

     RDKit          3D

 26 24  0  0  0  0  0  0  0  0999 V2000
    1.4280   -1.8959   -0.0063 C   0  0  0  0  0  0  0  0  0  0  0  0
    2.2577   -0.9558    0.8360 C   0  0  0  0  0  0  0  0  0  0  0  0
    2.8729   -1.5275    2.0579 N   0  0  0  0  0  0  0  0  0  0  0  0
    2.6380   -2.6831    2.2382 O   0  0  0  0  0  0  0  0  0  0  0  0
    2.0236   -2.7359   -0.3629 H   0  0  0  0  0  0  0  0  0  0  0  0
    0.5908   -2.3003    0.5623 H   0  0  0  0  0  0  0  0  0  0  0  0
    3.1055   -0.5288    0.2903 H   0  0  0  0  0  0  0  0  0  0  0  0
    1.6873   -0.0976    1.2061 H   0  0  0  0  0  0  0  0  0  0  0  0
   -0.6844   -0.6343   -2.4309 C   0  0  0  0  0  0  0  0  0  0  0  0
   -0.6844   -0.6343   -0.9080 C   0  0  0  0  0  3  0  0  0  0  0  0
   -0.6844    0.7588   -0.3125 C   0  0  0  0  0  0  0  0  0  0  0  0
   -1.8674    1.4224   -0.6801 O   0  0  0  0  0  0  0  0  0  0  0  0
   -1.9381    2.7404   -0.1992 C   0  0  0  0  0  0  0  0  0  0  0  0
   -3.2415    3.3582   -0.6500 C   0  0  0  0  0  0  0  0  0  0  0  0
    0.1977   -0.1200   -2.8205 H   0  0  0  0  0  0  0  0  0  0  0  0
   -1.5671   -0.1246   -2.8170 H   0  0  0  0  0  0  0  0  0  0  0  0
   -0.6789   -1.6522   -2.8236 H   0  0  0  0  0  0  0  0  0  0  0  0
    0.3734   -1.2660   -0.4565 H   0  0  0  0  0  0  0  0  0  0  0  0
   -1.5588   -1.1723   -0.5327 H   0  0  0  0  0  0  0  0  0  0  0  0
    0.1898    1.3239   -0.6729 H   0  0  0  0  0  0  0  0  0  0  0  0
   -0.6096    0.7049    0.7836 H   0  0  0  0  0  0  0  0  0  0  0  0
   -1.8709    2.7433    0.8989 H   0  0  0  0  0  0  0  0  0  0  0  0
   -1.0853    3.3234   -0.5771 H   0  0  0  0  0  0  0  0  0  0  0  0
   -4.0878    2.7888   -0.2643 H   0  0  0  0  0  0  0  0  0  0  0  0
   -3.3023    3.3701   -1.7388 H   0  0  0  0  0  0  0  0  0  0  0  0
   -3.3191    4.3842   -0.2870 H   0  0  0  0  0  0  0  0  0  0  0  0
  1  2  1  0
  1  5  1  0
  1  6  1  0
  1 18  1  0
  2  3  1  0
  2  7  1  0
  2  8  1  0
  3  4  2  0
  9 10  1  0
  9 15  1  0
  9 16  1  0
  9 17  1  0
 10 11  1  0
 10 19  1  0
 11 12  1  0
 11 20  1  0
 11 21  1  0
 12 13  1  0
 13 14  1  0
 13 22  1  0
 13 23  1  0
 14 24  1  0
 14 25  1  0
 14 26  1  0
M  RAD  1  10   2
M  END
>  <reaction>  (5) 
rmg_rxn_225

>  <mol_properties>  (5) 
{"0": {"label": "*3", "atom_type": "Cs"}, "1": {"label": "*4", "atom_type": "Cs"}, "9": {"label": "*1", "atom_type": "Cs"}, "10": {"label": "*0", "atom_type": "Cs"}, "17": {"label": "*2", "atom_type": "H0"}}

>  <type>  (5) 
unop_1

>  <geom_source>  (5) 
Heuristics

$$$$

     RDKit          3D

 26 24  0  0  0  0  0  0  0  0999 V2000
    1.1515   -1.8098    0.5833 C   0  0  0  0  0  0  0  0  0  0  0  0
    2.2885   -1.6600   -0.3998 C   0  0  0  0  0  0  0  0  0  0  0  0
    3.6512   -1.9383    0.1142 N   0  0  0  0  0  0  0  0  0  0  0  0
    3.6935   -2.2536    1.2639 O   0  0  0  0  0  0  0  0  0  0  0  0
    1.0985   -2.8261    0.9732 H   0  0  0  0  0  0  0  0  0  0  0  0
    1.2713   -1.1351    1.4307 H   0  0  0  0  0  0  0  0  0  0  0  0
    2.1942   -2.3229   -1.2661 H   0  0  0  0  0  0  0  0  0  0  0  0
    2.3652   -0.6491   -0.8133 H   0  0  0  0  0  0  0  0  0  0  0  0
   -0.9609   -0.5482   -1.8413 C   0  0  0  0  0  0  0  0  0  0  0  0
   -0.9609   -0.5482   -0.3184 C   0  0  0  0  0  3  0  0  0  0  0  0
   -0.9609    0.8448    0.2771 C   0  0  0  0  0  0  0  0  0  0  0  0
   -2.1439    1.5084   -0.0905 O   0  0  0  0  0  0  0  0  0  0  0  0
   -2.2146    2.8265    0.3904 C   0  0  0  0  0  0  0  0  0  0  0  0
   -3.5179    3.4443   -0.0604 C   0  0  0  0  0  0  0  0  0  0  0  0
   -0.0788   -0.0339   -2.2309 H   0  0  0  0  0  0  0  0  0  0  0  0
   -1.8436   -0.0385   -2.2274 H   0  0  0  0  0  0  0  0  0  0  0  0
   -0.9554   -1.5661   -2.2340 H   0  0  0  0  0  0  0  0  0  0  0  0
    0.0970   -1.1800    0.1331 H   0  0  0  0  0  0  0  0  0  0  0  0
   -1.8352   -1.0862    0.0569 H   0  0  0  0  0  0  0  0  0  0  0  0
   -0.0867    1.4099   -0.0833 H   0  0  0  0  0  0  0  0  0  0  0  0
   -0.8861    0.7909    1.3732 H   0  0  0  0  0  0  0  0  0  0  0  0
   -2.1473    2.8293    1.4885 H   0  0  0  0  0  0  0  0  0  0  0  0
   -1.3617    3.4095    0.0125 H   0  0  0  0  0  0  0  0  0  0  0  0
   -4.3643    2.8749    0.3253 H   0  0  0  0  0  0  0  0  0  0  0  0
   -3.5787    3.4561   -1.1492 H   0  0  0  0  0  0  0  0  0  0  0  0
   -3.5955    4.4703    0.3026 H   0  0  0  0  0  0  0  0  0  0  0  0
  1  2  1  0
  1  5  1  0
  1  6  1  0
  1 18  1  0
  2  3  1  0
  2  7  1  0
  2  8  1  0
  3  4  2  0
  9 10  1  0
  9 15  1  0
  9 16  1  0
  9 17  1  0
 10 11  1  0
 10 19  1  0
 11 12  1  0
 11 20  1  0
 11 21  1  0
 12 13  1  0
 13 14  1  0
 13 22  1  0
 13 23  1  0
 14 24  1  0
 14 25  1  0
 14 26  1  0
M  RAD  1  10   2
M  END
>  <reaction>  (6) 
rmg_rxn_225

>  <mol_properties>  (6) 
{"0": {"label": "*3", "atom_type": "Cs"}, "1": {"label": "*4", "atom_type": "Cs"}, "9": {"label": "*1", "atom_type": "Cs"}, "10": {"label": "*0", "atom_type": "Cs"}, "17": {"label": "*2", "atom_type": "H0"}}

>  <type>  (6) 
unop_2

>  <geom_source>  (6) 
Heuristics

$$$$

     RDKit          3D

 26 24  0  0  0  0  0  0  0  0999 V2000
    1.4936   -1.7245   -0.0305 C   0  0  0  0  0  0  0  0  0  0  0  0
    1.9024   -1.1398    1.3009 C   0  0  0  0  0  0  0  0  0  0  0  0
    2.6036   -2.0499    2.2381 N   0  0  0  0  0  0  0  0  0  0  0  0
    2.7670   -3.1574    1.8261 O   0  0  0  0  0  0  0  0  0  0  0  0
    2.3598   -2.0818   -0.5870 H   0  0  0  0  0  0  0  0  0  0  0  0
    0.8132   -2.5657    0.1003 H   0  0  0  0  0  0  0  0  0  0  0  0
    2.5838   -0.2885    1.2024 H   0  0  0  0  0  0  0  0  0  0  0  0
    1.0529   -0.7674    1.8827 H   0  0  0  0  0  0  0  0  0  0  0  0
   -0.6187   -0.4629   -2.4551 C   0  0  0  0  0  0  0  0  0  0  0  0
   -0.6187   -0.4629   -0.9322 C   0  0  0  0  0  3  0  0  0  0  0  0
   -0.6187    0.9301   -0.3367 C   0  0  0  0  0  0  0  0  0  0  0  0
   -1.8017    1.5937   -0.7043 O   0  0  0  0  0  0  0  0  0  0  0  0
   -1.8725    2.9118   -0.2234 C   0  0  0  0  0  0  0  0  0  0  0  0
   -3.1758    3.5296   -0.6742 C   0  0  0  0  0  0  0  0  0  0  0  0
    0.2633    0.0514   -2.8447 H   0  0  0  0  0  0  0  0  0  0  0  0
   -1.5015    0.0468   -2.8412 H   0  0  0  0  0  0  0  0  0  0  0  0
   -0.6133   -1.4808   -2.8478 H   0  0  0  0  0  0  0  0  0  0  0  0
    0.4391   -1.0947   -0.4807 H   0  0  0  0  0  0  0  0  0  0  0  0
   -1.4931   -1.0009   -0.5569 H   0  0  0  0  0  0  0  0  0  0  0  0
    0.2555    1.4952   -0.6971 H   0  0  0  0  0  0  0  0  0  0  0  0
   -0.5440    0.8762    0.7594 H   0  0  0  0  0  0  0  0  0  0  0  0
   -1.8052    2.9146    0.8747 H   0  0  0  0  0  0  0  0  0  0  0  0
   -1.0196    3.4948   -0.6013 H   0  0  0  0  0  0  0  0  0  0  0  0
   -4.0221    2.9602   -0.2885 H   0  0  0  0  0  0  0  0  0  0  0  0
   -3.2366    3.5414   -1.7630 H   0  0  0  0  0  0  0  0  0  0  0  0
   -3.2534    4.5556   -0.3112 H   0  0  0  0  0  0  0  0  0  0  0  0
  1  2  1  0
  1  5  1  0
  1  6  1  0
  1 18  1  0
  2  3  1  0
  2  7  1  0
  2  8  1  0
  3  4  2  0
  9 10  1  0
  9 15  1  0
  9 16  1  0
  9 17  1  0
 10 11  1  0
 10 19  1  0
 11 12  1  0
 11 20  1  0
 11 21  1  0
 12 13  1  0
 13 14  1  0
 13 22  1  0
 13 23  1  0
 14 24  1  0
 14 25  1  0
 14 26  1  0
M  RAD  1  10   2
M  END
>  <reaction>  (7) 
rmg_rxn_225

>  <mol_properties>  (7) 
{"0": {"label": "*3", "atom_type": "Cs"}, "1": {"label": "*4", "atom_type": "Cs"}, "9": {"label": "*1", "atom_type": "Cs"}, "10": {"label": "*0", "atom_type": "Cs"}, "17": {"label": "*2", "atom_type": "H0"}}

>  <type>  (7) 
unop_3

>  <geom_source>  (7) 
Heuristics

$$$$

     RDKit          3D

 26 24  0  0  0  0  0  0  0  0999 V2000
    1.6110   -1.2645    0.3719 C   0  0  0  0  0  0  0  0  0  0  0  0
    1.5972   -2.6918   -0.1221 C   0  0  0  0  0  0  0  0  0  0  0  0
    2.2024   -3.7090    0.7710 N   0  0  0  0  0  0  0  0  0  0  0  0
    2.6377   -3.2759    1.7938 O   0  0  0  0  0  0  0  0  0  0  0  0
    1.0674   -1.1669    1.3114 H   0  0  0  0  0  0  0  0  0  0  0  0
    2.6295   -0.9150    0.5400 H   0  0  0  0  0  0  0  0  0  0  0  0
    0.5864   -3.0709   -0.3048 H   0  0  0  0  0  0  0  0  0  0  0  0
    2.1326   -2.8216   -1.0684 H   0  0  0  0  0  0  0  0  0  0  0  0
   -0.5014   -0.0029   -2.0527 C   0  0  0  0  0  0  0  0  0  0  0  0
   -0.5014   -0.0029   -0.5298 C   0  0  0  0  0  3  0  0  0  0  0  0
   -0.5014    1.3901    0.0657 C   0  0  0  0  0  0  0  0  0  0  0  0
   -1.6844    2.0537   -0.3019 O   0  0  0  0  0  0  0  0  0  0  0  0
   -1.7551    3.3718    0.1790 C   0  0  0  0  0  0  0  0  0  0  0  0
   -3.0584    3.9896   -0.2718 C   0  0  0  0  0  0  0  0  0  0  0  0
    0.3807    0.5114   -2.4423 H   0  0  0  0  0  0  0  0  0  0  0  0
   -1.3841    0.5068   -2.4388 H   0  0  0  0  0  0  0  0  0  0  0  0
   -0.4959   -1.0208   -2.4454 H   0  0  0  0  0  0  0  0  0  0  0  0
    0.5564   -0.6347   -0.0783 H   0  0  0  0  0  0  0  0  0  0  0  0
   -1.3758   -0.5409   -0.1545 H   0  0  0  0  0  0  0  0  0  0  0  0
    0.3728    1.9552   -0.2947 H   0  0  0  0  0  0  0  0  0  0  0  0
   -0.4266    1.3362    1.1617 H   0  0  0  0  0  0  0  0  0  0  0  0
   -1.6879    3.3747    1.2771 H   0  0  0  0  0  0  0  0  0  0  0  0
   -0.9022    3.9548   -0.1989 H   0  0  0  0  0  0  0  0  0  0  0  0
   -3.9048    3.4202    0.1138 H   0  0  0  0  0  0  0  0  0  0  0  0
   -3.1192    4.0014   -1.3607 H   0  0  0  0  0  0  0  0  0  0  0  0
   -3.1360    5.0156    0.0912 H   0  0  0  0  0  0  0  0  0  0  0  0
  1  2  1  0
  1  5  1  0
  1  6  1  0
  1 18  1  0
  2  3  1  0
  2  7  1  0
  2  8  1  0
  3  4  2  0
  9 10  1  0
  9 15  1  0
  9 16  1  0
  9 17  1  0
 10 11  1  0
 10 19  1  0
 11 12  1  0
 11 20  1  0
 11 21  1  0
 12 13  1  0
 13 14  1  0
 13 22  1  0
 13 23  1  0
 14 24  1  0
 14 25  1  0
 14 26  1  0
M  RAD  1  10   2
M  END
>  <reaction>  (8) 
rmg_rxn_225

>  <mol_properties>  (8) 
{"0": {"label": "*3", "atom_type": "Cs"}, "1": {"label": "*4", "atom_type": "Cs"}, "9": {"label": "*1", "atom_type": "Cs"}, "10": {"label": "*0", "atom_type": "Cs"}, "17": {"label": "*2", "atom_type": "H0"}}

>  <type>  (8) 
unop_4

>  <geom_source>  (8) 
Heuristics

$$$$

     RDKit          3D

 26 24  0  0  0  0  0  0  0  0999 V2000
    1.4619   -1.6670    0.0049 C   0  0  0  0  0  0  0  0  0  0  0  0
    1.4494   -1.6596    1.5153 C   0  0  0  0  0  0  0  0  0  0  0  0
    2.5823   -2.3362    2.1916 N   0  0  0  0  0  0  0  0  0  0  0  0
    3.3865   -2.8165    1.4528 O   0  0  0  0  0  0  0  0  0  0  0  0
    2.3520   -1.1735   -0.3847 H   0  0  0  0  0  0  0  0  0  0  0  0
    1.4494   -2.6848   -0.3847 H   0  0  0  0  0  0  0  0  0  0  0  0
    1.4571   -0.6494    1.9375 H   0  0  0  0  0  0  0  0  0  0  0  0
    0.5637   -2.1454    1.9375 H   0  0  0  0  0  0  0  0  0  0  0  0
   -0.6505   -0.4055   -2.4197 C   0  0  0  0  0  0  0  0  0  0  0  0
   -0.6505   -0.4055   -0.8968 C   0  0  0  0  0  3  0  0  0  0  0  0
   -0.6505    0.9876   -0.3013 C   0  0  0  0  0  0  0  0  0  0  0  0
   -1.8335    1.6512   -0.6689 O   0  0  0  0  0  0  0  0  0  0  0  0
   -1.9042    2.9692   -0.1880 C   0  0  0  0  0  0  0  0  0  0  0  0
   -3.2075    3.5870   -0.6388 C   0  0  0  0  0  0  0  0  0  0  0  0
    0.2316    0.1088   -2.8094 H   0  0  0  0  0  0  0  0  0  0  0  0
   -1.5332    0.1042   -2.8058 H   0  0  0  0  0  0  0  0  0  0  0  0
   -0.6450   -1.4233   -2.8124 H   0  0  0  0  0  0  0  0  0  0  0  0
    0.4073   -1.0372   -0.4453 H   0  0  0  0  0  0  0  0  0  0  0  0
   -1.5249   -0.9434   -0.5216 H   0  0  0  0  0  0  0  0  0  0  0  0
    0.2237    1.5527   -0.6617 H   0  0  0  0  0  0  0  0  0  0  0  0
   -0.5757    0.9337    0.7947 H   0  0  0  0  0  0  0  0  0  0  0  0
   -1.8370    2.9721    0.9101 H   0  0  0  0  0  0  0  0  0  0  0  0
   -1.0514    3.5522   -0.5659 H   0  0  0  0  0  0  0  0  0  0  0  0
   -4.0539    3.0176   -0.2532 H   0  0  0  0  0  0  0  0  0  0  0  0
   -3.2683    3.5989   -1.7277 H   0  0  0  0  0  0  0  0  0  0  0  0
   -3.2852    4.6130   -0.2758 H   0  0  0  0  0  0  0  0  0  0  0  0
  1  2  1  0
  1  5  1  0
  1  6  1  0
  1 18  1  0
  2  3  1  0
  2  7  1  0
  2  8  1  0
  3  4  2  0
  9 10  1  0
  9 15  1  0
  9 16  1  0
  9 17  1  0
 10 11  1  0
 10 19  1  0
 11 12  1  0
 11 20  1  0
 11 21  1  0
 12 13  1  0
 13 14  1  0
 13 22  1  0
 13 23  1  0
 14 24  1  0
 14 25  1  0
 14 26  1  0
M  RAD  1  10   2
M  END
>  <reaction>  (9) 
rmg_rxn_225

>  <mol_properties>  (9) 
{"0": {"label": "*3", "atom_type": "Cs"}, "1": {"label": "*4", "atom_type": "Cs"}, "9": {"label": "*1", "atom_type": "Cs"}, "10": {"label": "*0", "atom_type": "Cs"}, "17": {"label": "*2", "atom_type": "H0"}}

>  <type>  (9) 
unop_5

>  <geom_source>  (9) 
Heuristics

$$$$

     RDKit          3D

 26 24  0  0  0  0  0  0  0  0999 V2000
    1.6865   -1.3550    0.1441 C   0  0  0  0  0  0  0  0  0  0  0  0
    1.3647   -2.8205    0.3182 C   0  0  0  0  0  0  0  0  0  0  0  0
    1.9356   -3.4878    1.5130 N   0  0  0  0  0  0  0  0  0  0  0  0
    2.5941   -2.7788    2.2107 O   0  0  0  0  0  0  0  0  0  0  0  0
    1.3247   -0.7687    0.9884 H   0  0  0  0  0  0  0  0  0  0  0  0
    2.7613   -1.1939    0.0645 H   0  0  0  0  0  0  0  0  0  0  0  0
    0.2902   -3.0155    0.3969 H   0  0  0  0  0  0  0  0  0  0  0  0
    1.7123   -3.4364   -0.5176 H   0  0  0  0  0  0  0  0  0  0  0  0
   -0.4259   -0.0934   -2.2805 C   0  0  0  0  0  0  0  0  0  0  0  0
   -0.4259   -0.0934   -0.7576 C   0  0  0  0  0  3  0  0  0  0  0  0
   -0.4259    1.2996   -0.1621 C   0  0  0  0  0  0  0  0  0  0  0  0
   -1.6089    1.9632   -0.5297 O   0  0  0  0  0  0  0  0  0  0  0  0
   -1.6796    3.2813   -0.0488 C   0  0  0  0  0  0  0  0  0  0  0  0
   -2.9830    3.8991   -0.4996 C   0  0  0  0  0  0  0  0  0  0  0  0
    0.4562    0.4209   -2.6701 H   0  0  0  0  0  0  0  0  0  0  0  0
   -1.3086    0.4162   -2.6666 H   0  0  0  0  0  0  0  0  0  0  0  0
   -0.4204   -1.1113   -2.6732 H   0  0  0  0  0  0  0  0  0  0  0  0
    0.6319   -0.7252   -0.3061 H   0  0  0  0  0  0  0  0  0  0  0  0
   -1.3003   -0.6314   -0.3823 H   0  0  0  0  0  0  0  0  0  0  0  0
    0.4483    1.8647   -0.5225 H   0  0  0  0  0  0  0  0  0  0  0  0
   -0.3511    1.2457    0.9340 H   0  0  0  0  0  0  0  0  0  0  0  0
   -1.6124    3.2841    1.0493 H   0  0  0  0  0  0  0  0  0  0  0  0
   -0.8268    3.8643   -0.4267 H   0  0  0  0  0  0  0  0  0  0  0  0
   -3.8293    3.3297   -0.1139 H   0  0  0  0  0  0  0  0  0  0  0  0
   -3.0438    3.9109   -1.5884 H   0  0  0  0  0  0  0  0  0  0  0  0
   -3.0606    4.9251   -0.1366 H   0  0  0  0  0  0  0  0  0  0  0  0
  1  2  1  0
  1  5  1  0
  1  6  1  0
  1 18  1  0
  2  3  1  0
  2  7  1  0
  2  8  1  0
  3  4  2  0
  9 10  1  0
  9 15  1  0
  9 16  1  0
  9 17  1  0
 10 11  1  0
 10 19  1  0
 11 12  1  0
 11 20  1  0
 11 21  1  0
 12 13  1  0
 13 14  1  0
 13 22  1  0
 13 23  1  0
 14 24  1  0
 14 25  1  0
 14 26  1  0
M  RAD  1  10   2
M  END
>  <reaction>  (10) 
rmg_rxn_225

>  <mol_properties>  (10) 
{"0": {"label": "*3", "atom_type": "Cs"}, "1": {"label": "*4", "atom_type": "Cs"}, "9": {"label": "*1", "atom_type": "Cs"}, "10": {"label": "*0", "atom_type": "Cs"}, "17": {"label": "*2", "atom_type": "H0"}}

>  <type>  (10) 
unop_6

>  <geom_source>  (10) 
Heuristics

$$$$

     RDKit          3D

 26 24  0  0  0  0  0  0  0  0999 V2000
    1.6473   -1.5287   -0.0063 C   0  0  0  0  0  0  0  0  0  0  0  0
    1.2131   -2.7049    0.8360 C   0  0  0  0  0  0  0  0  0  0  0  0
    2.0081   -2.9756    2.0579 N   0  0  0  0  0  0  0  0  0  0  0  0
    2.9141   -2.2207    2.2382 O   0  0  0  0  0  0  0  0  0  0  0  0
    1.6064   -0.5999    0.5623 H   0  0  0  0  0  0  0  0  0  0  0  0
    2.6693   -1.6547   -0.3629 H   0  0  0  0  0  0  0  0  0  0  0  0
    0.1870   -2.6097    1.2061 H   0  0  0  0  0  0  0  0  0  0  0  0
    1.2392   -3.6538    0.2903 H   0  0  0  0  0  0  0  0  0  0  0  0
   -0.4651   -0.2671   -2.4309 C   0  0  0  0  0  0  0  0  0  0  0  0
   -0.4651   -0.2671   -0.9080 C   0  0  0  0  0  3  0  0  0  0  0  0
   -0.4651    1.1259   -0.3125 C   0  0  0  0  0  0  0  0  0  0  0  0
   -1.6481    1.7895   -0.6801 O   0  0  0  0  0  0  0  0  0  0  0  0
   -1.7189    3.1076   -0.1992 C   0  0  0  0  0  0  0  0  0  0  0  0
   -3.0222    3.7254   -0.6500 C   0  0  0  0  0  0  0  0  0  0  0  0
    0.4169    0.2472   -2.8205 H   0  0  0  0  0  0  0  0  0  0  0  0
   -1.3479    0.2426   -2.8170 H   0  0  0  0  0  0  0  0  0  0  0  0
   -0.4597   -1.2850   -2.8236 H   0  0  0  0  0  0  0  0  0  0  0  0
    0.5927   -0.8989   -0.4565 H   0  0  0  0  0  0  0  0  0  0  0  0
   -1.3395   -0.8051   -0.5327 H   0  0  0  0  0  0  0  0  0  0  0  0
    0.4091    1.6910   -0.6729 H   0  0  0  0  0  0  0  0  0  0  0  0
   -0.3903    1.0720    0.7836 H   0  0  0  0  0  0  0  0  0  0  0  0
   -1.6516    3.1105    0.8989 H   0  0  0  0  0  0  0  0  0  0  0  0
   -0.8660    3.6906   -0.5771 H   0  0  0  0  0  0  0  0  0  0  0  0
   -3.8685    3.1560   -0.2643 H   0  0  0  0  0  0  0  0  0  0  0  0
   -3.0830    3.7372   -1.7388 H   0  0  0  0  0  0  0  0  0  0  0  0
   -3.0998    4.7514   -0.2870 H   0  0  0  0  0  0  0  0  0  0  0  0
  1  2  1  0
  1  5  1  0
  1  6  1  0
  1 18  1  0
  2  3  1  0
  2  7  1  0
  2  8  1  0
  3  4  2  0
  9 10  1  0
  9 15  1  0
  9 16  1  0
  9 17  1  0
 10 11  1  0
 10 19  1  0
 11 12  1  0
 11 20  1  0
 11 21  1  0
 12 13  1  0
 13 14  1  0
 13 22  1  0
 13 23  1  0
 14 24  1  0
 14 25  1  0
 14 26  1  0
M  RAD  1  10   2
M  END
>  <reaction>  (11) 
rmg_rxn_225

>  <mol_properties>  (11) 
{"0": {"label": "*3", "atom_type": "Cs"}, "1": {"label": "*4", "atom_type": "Cs"}, "9": {"label": "*1", "atom_type": "Cs"}, "10": {"label": "*0", "atom_type": "Cs"}, "17": {"label": "*2", "atom_type": "H0"}}

>  <type>  (11) 
unop_7

>  <geom_source>  (11) 
Heuristics

$$$$

     RDKit          3D

 26 24  0  0  0  0  0  0  0  0999 V2000
    1.2937   -2.0127    0.1441 C   0  0  0  0  0  0  0  0  0  0  0  0
    2.4314   -1.0345    0.3182 C   0  0  0  0  0  0  0  0  0  0  0  0
    3.2896   -1.2207    1.5130 N   0  0  0  0  0  0  0  0  0  0  0  0
    2.9776   -2.1367    2.2107 O   0  0  0  0  0  0  0  0  0  0  0  0
    1.6615   -3.0355    0.0645 H   0  0  0  0  0  0  0  0  0  0  0  0
    0.6059   -1.9722    0.9884 H   0  0  0  0  0  0  0  0  0  0  0  0
    3.1384   -1.0485   -0.5176 H   0  0  0  0  0  0  0  0  0  0  0  0
    2.0935    0.0040    0.3969 H   0  0  0  0  0  0  0  0  0  0  0  0
   -0.8187   -0.7512   -2.2805 C   0  0  0  0  0  0  0  0  0  0  0  0
   -0.8187   -0.7512   -0.7576 C   0  0  0  0  0  3  0  0  0  0  0  0
   -0.8187    0.6419   -0.1621 C   0  0  0  0  0  0  0  0  0  0  0  0
   -2.0017    1.3055   -0.5297 O   0  0  0  0  0  0  0  0  0  0  0  0
   -2.0724    2.6236   -0.0488 C   0  0  0  0  0  0  0  0  0  0  0  0
   -3.3758    3.2413   -0.4996 C   0  0  0  0  0  0  0  0  0  0  0  0
    0.0633   -0.2368   -2.6701 H   0  0  0  0  0  0  0  0  0  0  0  0
   -1.7014   -0.2415   -2.6666 H   0  0  0  0  0  0  0  0  0  0  0  0
   -0.8132   -1.7690   -2.6732 H   0  0  0  0  0  0  0  0  0  0  0  0
    0.2391   -1.3829   -0.3061 H   0  0  0  0  0  0  0  0  0  0  0  0
   -1.6931   -1.2891   -0.3823 H   0  0  0  0  0  0  0  0  0  0  0  0
    0.0555    1.2070   -0.5225 H   0  0  0  0  0  0  0  0  0  0  0  0
   -0.7439    0.5880    0.9340 H   0  0  0  0  0  0  0  0  0  0  0  0
   -2.0052    2.6264    1.0493 H   0  0  0  0  0  0  0  0  0  0  0  0
   -1.2196    3.2065   -0.4267 H   0  0  0  0  0  0  0  0  0  0  0  0
   -4.2221    2.6719   -0.1139 H   0  0  0  0  0  0  0  0  0  0  0  0
   -3.4366    3.2532   -1.5884 H   0  0  0  0  0  0  0  0  0  0  0  0
   -3.4534    4.2674   -0.1366 H   0  0  0  0  0  0  0  0  0  0  0  0
  1  2  1  0
  1  5  1  0
  1  6  1  0
  1 18  1  0
  2  3  1  0
  2  7  1  0
  2  8  1  0
  3  4  2  0
  9 10  1  0
  9 15  1  0
  9 16  1  0
  9 17  1  0
 10 11  1  0
 10 19  1  0
 11 12  1  0
 11 20  1  0
 11 21  1  0
 12 13  1  0
 13 14  1  0
 13 22  1  0
 13 23  1  0
 14 24  1  0
 14 25  1  0
 14 26  1  0
M  RAD  1  10   2
M  END
>  <reaction>  (12) 
rmg_rxn_225

>  <mol_properties>  (12) 
{"0": {"label": "*3", "atom_type": "Cs"}, "1": {"label": "*4", "atom_type": "Cs"}, "9": {"label": "*1", "atom_type": "Cs"}, "10": {"label": "*0", "atom_type": "Cs"}, "17": {"label": "*2", "atom_type": "H0"}}

>  <type>  (12) 
unop_8

>  <geom_source>  (12) 
Heuristics

$$$$

     RDKit          3D

 26 24  0  0  0  0  0  0  0  0999 V2000
    1.4404   -1.3261    0.5833 C   0  0  0  0  0  0  0  0  0  0  0  0
    1.8476   -2.3981   -0.3998 C   0  0  0  0  0  0  0  0  0  0  0  0
    2.7388   -3.4659    0.1142 N   0  0  0  0  0  0  0  0  0  0  0  0
    3.0366   -3.3537    1.2639 O   0  0  0  0  0  0  0  0  0  0  0  0
    0.9032   -1.7515    1.4307 H   0  0  0  0  0  0  0  0  0  0  0  0
    2.3100   -0.7975    0.9732 H   0  0  0  0  0  0  0  0  0  0  0  0
    0.9940   -2.9451   -0.8133 H   0  0  0  0  0  0  0  0  0  0  0  0
    2.3866   -2.0008   -1.2661 H   0  0  0  0  0  0  0  0  0  0  0  0
   -0.6720   -0.0646   -1.8413 C   0  0  0  0  0  0  0  0  0  0  0  0
   -0.6720   -0.0646   -0.3184 C   0  0  0  0  0  3  0  0  0  0  0  0
   -0.6720    1.3285    0.2771 C   0  0  0  0  0  0  0  0  0  0  0  0
   -1.8550    1.9921   -0.0905 O   0  0  0  0  0  0  0  0  0  0  0  0
   -1.9257    3.3102    0.3904 C   0  0  0  0  0  0  0  0  0  0  0  0
   -3.2290    3.9280   -0.0604 C   0  0  0  0  0  0  0  0  0  0  0  0
    0.2101    0.4498   -2.2309 H   0  0  0  0  0  0  0  0  0  0  0  0
   -1.5547    0.4451   -2.2274 H   0  0  0  0  0  0  0  0  0  0  0  0
   -0.6665   -1.0824   -2.2340 H   0  0  0  0  0  0  0  0  0  0  0  0
    0.3858   -0.6963    0.1331 H   0  0  0  0  0  0  0  0  0  0  0  0
   -1.5464   -0.6025    0.0569 H   0  0  0  0  0  0  0  0  0  0  0  0
    0.2022    1.8936   -0.0833 H   0  0  0  0  0  0  0  0  0  0  0  0
   -0.5972    1.2746    1.3732 H   0  0  0  0  0  0  0  0  0  0  0  0
   -1.8585    3.3130    1.4885 H   0  0  0  0  0  0  0  0  0  0  0  0
   -1.0728    3.8931    0.0125 H   0  0  0  0  0  0  0  0  0  0  0  0
   -4.0754    3.3585    0.3253 H   0  0  0  0  0  0  0  0  0  0  0  0
   -3.2898    3.9398   -1.1492 H   0  0  0  0  0  0  0  0  0  0  0  0
   -3.3066    4.9540    0.3026 H   0  0  0  0  0  0  0  0  0  0  0  0
  1  2  1  0
  1  5  1  0
  1  6  1  0
  1 18  1  0
  2  3  1  0
  2  7  1  0
  2  8  1  0
  3  4  2  0
  9 10  1  0
  9 15  1  0
  9 16  1  0
  9 17  1  0
 10 11  1  0
 10 19  1  0
 11 12  1  0
 11 20  1  0
 11 21  1  0
 12 13  1  0
 13 14  1  0
 13 22  1  0
 13 23  1  0
 14 24  1  0
 14 25  1  0
 14 26  1  0
M  RAD  1  10   2
M  END
>  <reaction>  (13) 
rmg_rxn_225

>  <mol_properties>  (13) 
{"0": {"label": "*3", "atom_type": "Cs"}, "1": {"label": "*4", "atom_type": "Cs"}, "9": {"label": "*1", "atom_type": "Cs"}, "10": {"label": "*0", "atom_type": "Cs"}, "17": {"label": "*2", "atom_type": "H0"}}

>  <type>  (13) 
unop_9

>  <geom_source>  (13) 
Heuristics

$$$$

     RDKit          3D

 26 24  0  0  0  0  0  0  0  0999 V2000
    1.1782   -1.9892    0.3719 C   0  0  0  0  0  0  0  0  0  0  0  0
    2.4283   -1.3003   -0.1221 C   0  0  0  0  0  0  0  0  0  0  0  0
    3.6108   -1.3507    0.7710 N   0  0  0  0  0  0  0  0  0  0  0  0
    3.4359   -1.9393    1.7938 O   0  0  0  0  0  0  0  0  0  0  0  0
    1.3534   -3.0516    0.5400 H   0  0  0  0  0  0  0  0  0  0  0  0
    0.8345   -1.5569    1.3114 H   0  0  0  0  0  0  0  0  0  0  0  0
    2.7964   -1.7101   -1.0684 H   0  0  0  0  0  0  0  0  0  0  0  0
    2.2828   -0.2306   -0.3048 H   0  0  0  0  0  0  0  0  0  0  0  0
   -0.9342   -0.7277   -2.0527 C   0  0  0  0  0  0  0  0  0  0  0  0
   -0.9342   -0.7277   -0.5298 C   0  0  0  0  0  3  0  0  0  0  0  0
   -0.9342    0.6654    0.0657 C   0  0  0  0  0  0  0  0  0  0  0  0
   -2.1172    1.3290   -0.3019 O   0  0  0  0  0  0  0  0  0  0  0  0
   -2.1879    2.6471    0.1790 C   0  0  0  0  0  0  0  0  0  0  0  0
   -3.4912    3.2648   -0.2718 C   0  0  0  0  0  0  0  0  0  0  0  0
   -0.0521   -0.2133   -2.4423 H   0  0  0  0  0  0  0  0  0  0  0  0
   -1.8169   -0.2180   -2.4388 H   0  0  0  0  0  0  0  0  0  0  0  0
   -0.9287   -1.7455   -2.4454 H   0  0  0  0  0  0  0  0  0  0  0  0
    0.1236   -1.3594   -0.0783 H   0  0  0  0  0  0  0  0  0  0  0  0
   -1.8086   -1.2656   -0.1545 H   0  0  0  0  0  0  0  0  0  0  0  0
   -0.0600    1.2305   -0.2947 H   0  0  0  0  0  0  0  0  0  0  0  0
   -0.8594    0.6115    1.1617 H   0  0  0  0  0  0  0  0  0  0  0  0
   -2.1207    2.6499    1.2771 H   0  0  0  0  0  0  0  0  0  0  0  0
   -1.3351    3.2300   -0.1989 H   0  0  0  0  0  0  0  0  0  0  0  0
   -4.3376    2.6954    0.1138 H   0  0  0  0  0  0  0  0  0  0  0  0
   -3.5521    3.2767   -1.3607 H   0  0  0  0  0  0  0  0  0  0  0  0
   -3.5689    4.2909    0.0912 H   0  0  0  0  0  0  0  0  0  0  0  0
  1  2  1  0
  1  5  1  0
  1  6  1  0
  1 18  1  0
  2  3  1  0
  2  7  1  0
  2  8  1  0
  3  4  2  0
  9 10  1  0
  9 15  1  0
  9 16  1  0
  9 17  1  0
 10 11  1  0
 10 19  1  0
 11 12  1  0
 11 20  1  0
 11 21  1  0
 12 13  1  0
 13 14  1  0
 13 22  1  0
 13 23  1  0
 14 24  1  0
 14 25  1  0
 14 26  1  0
M  RAD  1  10   2
M  END
>  <reaction>  (14) 
rmg_rxn_225

>  <mol_properties>  (14) 
{"0": {"label": "*3", "atom_type": "Cs"}, "1": {"label": "*4", "atom_type": "Cs"}, "9": {"label": "*1", "atom_type": "Cs"}, "10": {"label": "*0", "atom_type": "Cs"}, "17": {"label": "*2", "atom_type": "H0"}}

>  <type>  (14) 
unop_10

>  <geom_source>  (14) 
Heuristics

$$$$

     RDKit          3D

 26 24  0  0  0  0  0  0  0  0999 V2000
    1.5275   -1.6678   -0.0305 C   0  0  0  0  0  0  0  0  0  0  0  0
    1.2065   -2.3049    1.3009 C   0  0  0  0  0  0  0  0  0  0  0  0
    2.3403   -2.4907    2.2381 N   0  0  0  0  0  0  0  0  0  0  0  0
    3.3929   -2.1094    1.8261 O   0  0  0  0  0  0  0  0  0  0  0  0
    1.9455   -0.6698    0.1003 H   0  0  0  0  0  0  0  0  0  0  0  0
    2.2529   -2.2609   -0.5870 H   0  0  0  0  0  0  0  0  0  0  0  0
    0.4759   -1.7336    1.8827 H   0  0  0  0  0  0  0  0  0  0  0  0
    0.7802   -3.3085    1.2024 H   0  0  0  0  0  0  0  0  0  0  0  0
   -0.5849   -0.4062   -2.4551 C   0  0  0  0  0  0  0  0  0  0  0  0
   -0.5849   -0.4062   -0.9322 C   0  0  0  0  0  3  0  0  0  0  0  0
   -0.5849    0.9869   -0.3367 C   0  0  0  0  0  0  0  0  0  0  0  0
   -1.7679    1.6505   -0.7043 O   0  0  0  0  0  0  0  0  0  0  0  0
   -1.8386    2.9685   -0.2234 C   0  0  0  0  0  0  0  0  0  0  0  0
   -3.1419    3.5863   -0.6742 C   0  0  0  0  0  0  0  0  0  0  0  0
    0.2972    0.1081   -2.8447 H   0  0  0  0  0  0  0  0  0  0  0  0
   -1.4676    0.1035   -2.8412 H   0  0  0  0  0  0  0  0  0  0  0  0
   -0.5794   -1.4241   -2.8478 H   0  0  0  0  0  0  0  0  0  0  0  0
    0.4730   -1.0380   -0.4807 H   0  0  0  0  0  0  0  0  0  0  0  0
   -1.4592   -0.9442   -0.5569 H   0  0  0  0  0  0  0  0  0  0  0  0
    0.2893    1.5519   -0.6971 H   0  0  0  0  0  0  0  0  0  0  0  0
   -0.5101    0.9329    0.7594 H   0  0  0  0  0  0  0  0  0  0  0  0
   -1.7713    2.9714    0.8747 H   0  0  0  0  0  0  0  0  0  0  0  0
   -0.9857    3.5515   -0.6013 H   0  0  0  0  0  0  0  0  0  0  0  0
   -3.9883    3.0169   -0.2885 H   0  0  0  0  0  0  0  0  0  0  0  0
   -3.2027    3.5982   -1.7630 H   0  0  0  0  0  0  0  0  0  0  0  0
   -3.2195    4.6123   -0.3112 H   0  0  0  0  0  0  0  0  0  0  0  0
  1  2  1  0
  1  5  1  0
  1  6  1  0
  1 18  1  0
  2  3  1  0
  2  7  1  0
  2  8  1  0
  3  4  2  0
  9 10  1  0
  9 15  1  0
  9 16  1  0
  9 17  1  0
 10 11  1  0
 10 19  1  0
 11 12  1  0
 11 20  1  0
 11 21  1  0
 12 13  1  0
 13 14  1  0
 13 22  1  0
 13 23  1  0
 14 24  1  0
 14 25  1  0
 14 26  1  0
M  RAD  1  10   2
M  END
>  <reaction>  (15) 
rmg_rxn_225

>  <mol_properties>  (15) 
{"0": {"label": "*3", "atom_type": "Cs"}, "1": {"label": "*4", "atom_type": "Cs"}, "9": {"label": "*1", "atom_type": "Cs"}, "10": {"label": "*0", "atom_type": "Cs"}, "17": {"label": "*2", "atom_type": "H0"}}

>  <type>  (15) 
unop_11

>  <geom_source>  (15) 
Heuristics

$$$$

     RDKit          3D

 26 24  0  0  0  0  0  0  0  0999 V2000
    1.2521   -1.5418    0.6716 C   0  0  0  0  0  0  0  0  0  0  0  0
    2.0805   -2.0365   -0.4905 C   0  0  0  0  0  0  0  0  0  0  0  0
    3.3203   -2.7769   -0.1540 N   0  0  0  0  0  0  0  0  0  0  0  0
    3.5242   -2.8987    1.0150 O   0  0  0  0  0  0  0  0  0  0  0  0
    0.9196   -2.3683    1.2992 H   0  0  0  0  0  0  0  0  0  0  0  0
    1.8222   -0.8571    1.2992 H   0  0  0  0  0  0  0  0  0  0  0  0
    1.5330   -2.7243   -1.1432 H   0  0  0  0  0  0  0  0  0  0  0  0
    2.4264   -1.2283   -1.1432 H   0  0  0  0  0  0  0  0  0  0  0  0
   -0.8603   -0.2802   -1.7530 C   0  0  0  0  0  0  0  0  0  0  0  0
   -0.8603   -0.2802   -0.2301 C   0  0  0  0  0  3  0  0  0  0  0  0
   -0.8603    1.1129    0.3654 C   0  0  0  0  0  0  0  0  0  0  0  0
   -2.0433    1.7765   -0.0022 O   0  0  0  0  0  0  0  0  0  0  0  0
   -2.1140    3.0945    0.4787 C   0  0  0  0  0  0  0  0  0  0  0  0
   -3.4173    3.7123    0.0279 C   0  0  0  0  0  0  0  0  0  0  0  0
    0.0218    0.2341   -2.1426 H   0  0  0  0  0  0  0  0  0  0  0  0
   -1.7430    0.2295   -2.1391 H   0  0  0  0  0  0  0  0  0  0  0  0
   -0.8548   -1.2981   -2.1457 H   0  0  0  0  0  0  0  0  0  0  0  0
    0.1975   -0.9120    0.2214 H   0  0  0  0  0  0  0  0  0  0  0  0
   -1.7347   -0.8182    0.1452 H   0  0  0  0  0  0  0  0  0  0  0  0
    0.0139    1.6779    0.0050 H   0  0  0  0  0  0  0  0  0  0  0  0
   -0.7855    1.0590    1.4615 H   0  0  0  0  0  0  0  0  0  0  0  0
   -2.0467    3.0974    1.5768 H   0  0  0  0  0  0  0  0  0  0  0  0
   -1.2611    3.6775    0.1008 H   0  0  0  0  0  0  0  0  0  0  0  0
   -4.2637    3.1429    0.4136 H   0  0  0  0  0  0  0  0  0  0  0  0
   -3.4781    3.7242   -1.0609 H   0  0  0  0  0  0  0  0  0  0  0  0
   -3.4949    4.7383    0.3909 H   0  0  0  0  0  0  0  0  0  0  0  0
  1  2  1  0
  1  5  1  0
  1  6  1  0
  1 18  1  0
  2  3  1  0
  2  7  1  0
  2  8  1  0
  3  4  2  0
  9 10  1  0
  9 15  1  0
  9 16  1  0
  9 17  1  0
 10 11  1  0
 10 19  1  0
 11 12  1  0
 11 20  1  0
 11 21  1  0
 12 13  1  0
 13 14  1  0
 13 22  1  0
 13 23  1  0
 14 24  1  0
 14 25  1  0
 14 26  1  0
M  RAD  1  10   2
M  END
>  <reaction>  (16) 
rmg_rxn_225

>  <mol_properties>  (16) 
{"0": {"label": "*3", "atom_type": "Cs"}, "1": {"label": "*4", "atom_type": "Cs"}, "9": {"label": "*1", "atom_type": "Cs"}, "10": {"label": "*0", "atom_type": "Cs"}, "17": {"label": "*2", "atom_type": "H0"}}

>  <type>  (16) 
unop_12

>  <geom_source>  (16) 
Heuristics

$$$$

     RDKit          3D

 26 24  0  0  0  0  0  0  0  0999 V2000
   -2.0952    0.5144   -0.4751 O   0  0  0  0  0  0  0  0  0  0  0  0
    5.3984   -0.9146   -0.1223 O   0  0  0  0  0  0  0  0  0  0  0  0
    4.5472   -1.5642    0.4061 N   0  0  0  0  0  0  0  0  0  0  0  0
   -3.3326    0.0257    0.0073 C   0  0  0  0  0  0  0  0  0  0  0  0
    3.3328   -0.9447    0.8769 C   0  0  0  0  0  0  0  0  0  0  0  0
   -1.0996    0.4153    0.5230 C   0  0  0  0  0  0  0  0  0  0  0  0
    2.4853   -0.4638   -0.2946 C   0  0  0  0  0  0  0  0  0  0  0  0
   -3.5367   -1.4198   -0.4320 C   0  0  0  0  0  0  0  0  0  0  0  0
    0.3024    2.2846   -0.4617 C   0  0  0  0  0  0  0  0  0  0  0  0
    0.2539    0.8143   -0.0593 C   0  0  0  0  0  3  0  0  0  0  0  0
    2.7523   -1.6884    1.4619 H   0  0  0  0  0  0  0  0  0  0  0  0
    3.5790   -0.0884    1.5412 H   0  0  0  0  0  0  0  0  0  0  0  0
   -4.1416    0.6404   -0.4409 H   0  0  0  0  0  0  0  0  0  0  0  0
   -3.4502    0.1077    1.1142 H   0  0  0  0  0  0  0  0  0  0  0  0
    3.0320    0.3103   -0.8739 H   0  0  0  0  0  0  0  0  0  0  0  0
    2.2372   -1.3158   -0.9628 H   0  0  0  0  0  0  0  0  0  0  0  0
    1.3807    0.0531    0.1556 H   0  0  0  0  0  0  0  0  0  0  0  0
   -2.7696   -2.0759    0.0297 H   0  0  0  0  0  0  0  0  0  0  0  0
   -4.5419   -1.7688   -0.1148 H   0  0  0  0  0  0  0  0  0  0  0  0
   -3.4624   -1.4950   -1.5376 H   0  0  0  0  0  0  0  0  0  0  0  0
   -1.0102   -0.6301    0.8944 H   0  0  0  0  0  0  0  0  0  0  0  0
   -1.3347    1.0852    1.3808 H   0  0  0  0  0  0  0  0  0  0  0  0
    0.0848    2.9294    0.4157 H   0  0  0  0  0  0  0  0  0  0  0  0
    1.3183    2.5278   -0.8362 H   0  0  0  0  0  0  0  0  0  0  0  0
   -0.4345    2.4922   -1.2663 H   0  0  0  0  0  0  0  0  0  0  0  0
    0.5049    0.1694   -0.9291 H   0  0  0  0  0  0  0  0  0  0  0  0
  1  4  1  0
  1  6  1  0
  2  3  2  0
  3  5  1  0
  4  8  1  0
  4 13  1  0
  4 14  1  0
  5  7  1  0
  5 11  1  0
  5 12  1  0
  6 10  1  0
  6 21  1  0
  6 22  1  0
  7 15  1  0
  7 16  1  0
  7 17  1  0
  8 18  1  0
  8 19  1  0
  8 20  1  0
  9 10  1  0
  9 23  1  0
  9 24  1  0
  9 25  1  0
 10 26  1  0
M  RAD  1  10   2
M  END
>  <reaction>  (17) 
rmg_rxn_225

>  <mol_properties>  (17) 
{"0": {"label": "*3", "atom_type": "Cs"}, "1": {"label": "*4", "atom_type": "Cs"}, "9": {"label": "*1", "atom_type": "Cs"}, "10": {"label": "*0", "atom_type": "Cs"}, "17": {"label": "*2", "atom_type": "H0"}}

>  <type>  (17) 
unop_13

>  <geom_source>  (17) 
AutoTST

$$$$

     RDKit          3D

 26 24  0  0  0  0  0  0  0  0999 V2000
    1.1515   -1.8098    0.5833 C   0  0  0  0  0  0  0  0  0  0  0  0
    2.2885   -1.6600   -0.3998 C   0  0  0  0  0  0  0  0  0  0  0  0
    3.6512   -1.9383    0.1142 N   0  0  0  0  0  0  0  0  0  0  0  0
    3.6935   -2.2536    1.2639 O   0  0  0  0  0  0  0  0  0  0  0  0
    1.0985   -2.8261    0.9732 H   0  0  0  0  0  0  0  0  0  0  0  0
    1.2713   -1.1351    1.4307 H   0  0  0  0  0  0  0  0  0  0  0  0
    2.1942   -2.3229   -1.2661 H   0  0  0  0  0  0  0  0  0  0  0  0
    2.3652   -0.6491   -0.8133 H   0  0  0  0  0  0  0  0  0  0  0  0
   -0.9608   -0.5482   -1.8413 C   0  0  0  0  0  0  0  0  0  0  0  0
   -0.9608   -0.5482   -0.3184 C   0  0  0  0  0  3  0  0  0  0  0  0
   -0.9608    0.8448    0.2771 C   0  0  0  0  0  0  0  0  0  0  0  0
   -2.1439    1.5084   -0.0905 O   0  0  0  0  0  0  0  0  0  0  0  0
   -2.2146    2.8265    0.3904 C   0  0  0  0  0  0  0  0  0  0  0  0
   -3.5179    3.4443   -0.0604 C   0  0  0  0  0  0  0  0  0  0  0  0
   -0.0788   -0.0339   -2.2309 H   0  0  0  0  0  0  0  0  0  0  0  0
   -1.8436   -0.0385   -2.2274 H   0  0  0  0  0  0  0  0  0  0  0  0
   -0.9554   -1.5661   -2.2340 H   0  0  0  0  0  0  0  0  0  0  0  0
    0.0970   -1.1800    0.1331 H   0  0  0  0  0  0  0  0  0  0  0  0
   -1.8352   -1.0862    0.0569 H   0  0  0  0  0  0  0  0  0  0  0  0
   -0.0867    1.4099   -0.0833 H   0  0  0  0  0  0  0  0  0  0  0  0
   -0.8861    0.7909    1.3732 H   0  0  0  0  0  0  0  0  0  0  0  0
   -2.1473    2.8293    1.4885 H   0  0  0  0  0  0  0  0  0  0  0  0
   -1.3617    3.4095    0.0125 H   0  0  0  0  0  0  0  0  0  0  0  0
   -4.3643    2.8749    0.3253 H   0  0  0  0  0  0  0  0  0  0  0  0
   -3.5787    3.4561   -1.1492 H   0  0  0  0  0  0  0  0  0  0  0  0
   -3.5955    4.4703    0.3026 H   0  0  0  0  0  0  0  0  0  0  0  0
  1  2  1  0
  1  5  1  0
  1  6  1  0
  1 18  1  0
  2  3  1  0
  2  7  1  0
  2  8  1  0
  3  4  2  0
  9 10  1  0
  9 15  1  0
  9 16  1  0
  9 17  1  0
 10 11  1  0
 10 19  1  0
 11 12  1  0
 11 20  1  0
 11 21  1  0
 12 13  1  0
 13 14  1  0
 13 22  1  0
 13 23  1  0
 14 24  1  0
 14 25  1  0
 14 26  1  0
M  RAD  1  10   2
M  END
>  <reaction>  (18) 
rmg_rxn_225

>  <mol_properties>  (18) 
{"0": {"label": "*3", "atom_type": "Cs"}, "1": {"label": "*4", "atom_type": "Cs"}, "9": {"label": "*1", "atom_type": "Cs"}, "10": {"label": "*0", "atom_type": "Cs"}, "17": {"label": "*2", "atom_type": "H0"}}

>  <type>  (18) 
unop_14

>  <geom_source>  (18) 
gaussian_log

$$$$
