
     RDKit          3D

 13 12  0  0  0  0  0  0  0  0999 V2000
   -2.5787    0.3845    0.5363 N   0  0  0  0  0  1  0  0  0  0  0  0
   -2.0448   -0.2878   -0.3016 N   0  0  0  0  0  0  0  0  0  0  0  0
   -0.5705   -0.4119   -0.5708 C   0  0  0  0  0  0  0  0  0  0  0  0
    0.2772    0.2247    0.5075 C   0  0  0  0  0  0  0  0  0  0  0  0
    0.2957   -0.5646    1.8104 C   0  0  0  0  0  0  0  0  0  0  0  0
   -2.5889   -0.8713   -0.9748 H   0  0  0  0  0  0  0  0  0  0  0  0
   -0.3659   -1.4815   -0.6747 H   0  0  0  0  0  0  0  0  0  0  0  0
   -0.4043    0.0541   -1.5457 H   0  0  0  0  0  0  0  0  0  0  0  0
    1.2919    0.3223    0.1145 H   0  0  0  0  0  0  0  0  0  0  0  0
   -0.0978    1.2330    0.6915 H   0  0  0  0  0  0  0  0  0  0  0  0
    0.6693   -1.5792    1.6503 H   0  0  0  0  0  0  0  0  0  0  0  0
   -0.7042   -0.6287    2.2395 H   0  0  0  0  0  0  0  0  0  0  0  0
    0.9431   -0.0833    2.5443 H   0  0  0  0  0  0  0  0  0  0  0  0
  1  2  1  0
  2  3  1  0
  2  6  1  0
  3  4  1  0
  3  7  1  0
  3  8  1  0
  4  5  1  0
  4  9  1  0
  4 10  1  0
  5 11  1  0
  5 12  1  0
  5 13  1  0
M  RAD  1   1   3
M  END
>  <reaction>  (1) 
rmg_rxn_15458

>  <mol_properties>  (1) 
{"2": {"label": "donator", "atom_type": "Cs"}, "6": {"label": "d_hydrogen", "atom_type": "H0"}}

>  <type>  (1) 
r1h

$$$$

     RDKit          3D

  5  4  0  0  0  0  0  0  0  0999 V2000
    0.8934    0.3742    0.4948 O   0  0  0  0  0  0  0  0  0  0  0  0
    0.1582   -0.1610   -0.5904 N   0  0  0  0  0  0  0  0  0  0  0  0
   -1.0297   -0.3739   -0.4689 C   0  0  0  0  0  3  0  0  0  0  0  0
    1.7805    0.4382    0.1306 H   0  0  0  0  0  0  0  0  0  0  0  0
   -1.8023   -0.2775    0.2859 H   0  0  0  0  0  0  0  0  0  0  0  0
  1  2  1  0
  1  4  1  0
  2  3  2  3
  3  5  1  0
M  RAD  1   3   2
M  END
>  <reaction>  (2) 
rmg_rxn_15458

>  <mol_properties>  (2) 
{"2": {"label": "acceptor", "atom_type": "Cd"}}

>  <type>  (2) 
r2

$$$$

     RDKit          3D

  6  5  0  0  0  0  0  0  0  0999 V2000
    1.2314    0.0428    0.5088 O   0  0  0  0  0  0  0  0  0  0  0  0
    0.2987    0.2341   -0.4915 N   0  0  0  0  0  0  0  0  0  0  0  0
   -0.8599   -0.1122   -0.1290 C   0  0  0  0  0  0  0  0  0  0  0  0
    2.0507    0.3401    0.1082 H   0  0  0  0  0  0  0  0  0  0  0  0
   -1.0700   -0.5112    0.8610 H   0  0  0  0  0  0  0  0  0  0  0  0
   -1.6509    0.0064   -0.8574 H   0  0  0  0  0  0  0  0  0  0  0  0
  1  2  1  0
  1  4  1  0
  2  3  2  3
  3  5  1  0
  3  6  1  0
M  END
>  <reaction>  (3) 
rmg_rxn_15458

>  <mol_properties>  (3) 
{"2": {"label": "acceptor", "atom_type": "Cd"}, "5": {"label": "a_hydrogen", "atom_type": "H0"}}

>  <type>  (3) 
r2h

$$$$

     RDKit          3D

 18 16  0  0  0  0  0  0  0  0999 V2000
   -1.6038   -0.9293    3.1323 O   0  0  0  0  0  0  0  0  0  0  0  0
   -0.6692   -0.6950    2.1227 N   0  0  0  0  0  0  0  0  0  0  0  0
   -0.8151    0.3844    1.5234 C   0  0  0  0  0  3  0  0  0  0  0  0
   -1.3516   -1.7943    3.4645 H   0  0  0  0  0  0  0  0  0  0  0  0
   -1.5680    1.1555    1.6828 H   0  0  0  0  0  0  0  0  0  0  0  0
    1.2222   -1.5617   -1.6485 N   0  0  0  0  0  1  0  0  0  0  0  0
    1.2554   -0.9970   -0.5824 N   0  0  0  0  0  0  0  0  0  0  0  0
    1.1095    0.4539   -0.3542 C   0  0  0  0  0  0  0  0  0  0  0  0
    0.7688    1.2697   -1.5698 C   0  0  0  0  0  0  0  0  0  0  0  0
   -0.6512    1.0537   -2.0842 C   0  0  0  0  0  0  0  0  0  0  0  0
    1.3831   -1.5061    0.3144 H   0  0  0  0  0  0  0  0  0  0  0  0
    0.1746    0.5251    0.4906 H   0  0  0  0  0  0  0  0  0  0  0  0
    1.9755    0.8056    0.2108 H   0  0  0  0  0  0  0  0  0  0  0  0
    0.9189    2.3204   -1.3122 H   0  0  0  0  0  0  0  0  0  0  0  0
    1.4843    1.0280   -2.3605 H   0  0  0  0  0  0  0  0  0  0  0  0
   -1.3889    1.3078   -1.3199 H   0  0  0  0  0  0  0  0  0  0  0  0
   -0.8017    0.0159   -2.3782 H   0  0  0  0  0  0  0  0  0  0  0  0
   -0.8412    1.6831   -2.9540 H   0  0  0  0  0  0  0  0  0  0  0  0
  1  2  1  0
  1  4  1  0
  2  3  2  3
  3  5  1  0
  6  7  1  0
  7  8  1  0
  7 11  1  0
  8  9  1  0
  8 12  1  0
  8 13  1  0
  9 10  1  0
  9 14  1  0
  9 15  1  0
 10 16  1  0
 10 17  1  0
 10 18  1  0
M  RAD  2   3   2   6   3
M  END
>  <reaction>  (4) 
rmg_rxn_15458

>  <mol_properties>  (4) 
{"1": {"label": "*4", "atom_type": "N3d"}, "2": {"label": "*3", "atom_type": "Cd"}, "6": {"label": "*0", "atom_type": "N3s"}, "7": {"label": "*1", "atom_type": "Cs"}, "11": {"label": "*2", "atom_type": "H0"}}

>  <type>  (4) 
ts

$$$$

     RDKit          3D

 18 16  0  0  0  0  0  0  0  0999 V2000
    3.5881    0.2952   -0.1098 O   0  0  0  0  0  0  0  0  0  0  0  0
    2.2545    0.2344    0.3260 N   0  0  0  0  0  0  0  0  0  0  0  0
    1.3487    0.1787   -0.5255 C   0  0  0  0  0  0  0  0  0  0  0  0
    4.1092    0.3299    0.7040 H   0  0  0  0  0  0  0  0  0  0  0  0
    1.4568    0.1718   -1.6048 H   0  0  0  0  0  0  0  0  0  0  0  0
   -2.4982    1.5557   -0.5159 N   0  0  0  0  0  1  0  0  0  0  0  0
   -1.7021    1.2549    0.3711 N   0  0  0  0  0  0  0  0  0  0  0  0
   -1.0603    0.0493    0.5538 C   0  0  0  0  0  3  0  0  0  0  0  0
   -1.6959   -1.1265   -0.1469 C   0  0  0  0  0  0  0  0  0  0  0  0
   -0.8598   -2.3917   -0.0160 C   0  0  0  0  0  0  0  0  0  0  0  0
   -1.4126    1.9829    1.0577 H   0  0  0  0  0  0  0  0  0  0  0  0
    0.1935    0.1351   -0.0374 H   0  0  0  0  0  0  0  0  0  0  0  0
   -0.7562   -0.1223    1.5839 H   0  0  0  0  0  0  0  0  0  0  0  0
   -2.6930   -1.3023    0.2729 H   0  0  0  0  0  0  0  0  0  0  0  0
   -1.8395   -0.8613   -1.1979 H   0  0  0  0  0  0  0  0  0  0  0  0
    0.1217   -2.2532   -0.4631 H   0  0  0  0  0  0  0  0  0  0  0  0
   -1.3536   -3.2205   -0.5160 H   0  0  0  0  0  0  0  0  0  0  0  0
   -0.7237   -2.6539    1.0309 H   0  0  0  0  0  0  0  0  0  0  0  0
  1  2  1  0
  1  4  1  0
  2  3  2  3
  3  5  1  0
  3 12  1  0
  6  7  1  0
  7  8  1  0
  7 11  1  0
  8  9  1  0
  8 13  1  0
  9 10  1  0
  9 14  1  0
  9 15  1  0
 10 16  1  0
 10 17  1  0
 10 18  1  0
M  CHG  2   6  -1   8   1
M  RAD  1   6   2
M  END
>  <reaction>  (5) 
rmg_rxn_15458

>  <mol_properties>  (5) 
{"1": {"label": "*4", "atom_type": "N3d"}, "2": {"label": "*3", "atom_type": "Cd"}, "6": {"label": "*0", "atom_type": "N3s"}, "7": {"label": "*1", "atom_type": "Cs"}, "11": {"label": "*2", "atom_type": "H0"}}

>  <type>  (5) 
unop_1

>  <geom_source>  (5) 
crest_best.xyz

$$$$

     RDKit          3D

 18 16  0  0  0  0  0  0  0  0999 V2000
   -1.3130    0.1999    3.3325 O   0  0  0  0  0  0  0  0  0  0  0  0
   -0.4502   -0.4633    2.4823 N   0  0  0  0  0  0  0  0  0  0  0  0
   -0.8484   -0.4291    1.2849 C   0  0  0  0  0  0  0  0  0  0  0  0
   -0.8993    0.0986    4.1919 H   0  0  0  0  0  0  0  0  0  0  0  0
   -1.7672    0.0712    0.9863 H   0  0  0  0  0  0  0  0  0  0  0  0
    0.9628   -1.1539   -2.6496 N   0  0  0  0  0  1  0  0  0  0  0  0
    0.9628   -1.1539   -1.4500 N   0  0  0  0  0  0  0  0  0  0  0  0
    0.9628    0.0405   -0.5362 C   0  0  0  0  0  3  0  0  0  0  0  0
    0.7061    1.3382   -1.2688 C   0  0  0  0  0  0  0  0  0  0  0  0
   -0.7372    1.5008   -1.7283 C   0  0  0  0  0  0  0  0  0  0  0  0
    0.9821   -2.0378   -0.8949 H   0  0  0  0  0  0  0  0  0  0  0  0
    0.0522   -0.1956    0.3794 H   0  0  0  0  0  0  0  0  0  0  0  0
    1.9382    0.0392   -0.0424 H   0  0  0  0  0  0  0  0  0  0  0  0
    0.9796    2.1555   -0.5974 H   0  0  0  0  0  0  0  0  0  0  0  0
    1.3757    1.3873   -2.1293 H   0  0  0  0  0  0  0  0  0  0  0  0
   -1.4269    1.4557   -0.8817 H   0  0  0  0  0  0  0  0  0  0  0  0
   -1.0093    0.7188   -2.4372 H   0  0  0  0  0  0  0  0  0  0  0  0
   -0.8791    2.4626   -2.2225 H   0  0  0  0  0  0  0  0  0  0  0  0
  1  2  1  0
  1  4  1  0
  2  3  2  3
  3  5  1  0
  3 12  1  0
  6  7  1  0
  7  8  1  0
  7 11  1  0
  8  9  1  0
  8 13  1  0
  9 10  1  0
  9 14  1  0
  9 15  1  0
 10 16  1  0
 10 17  1  0
 10 18  1  0
M  CHG  2   6  -1   8   1
M  RAD  1   6   2
M  END
>  <reaction>  (6) 
rmg_rxn_15458

>  <mol_properties>  (6) 
{"1": {"label": "*4", "atom_type": "N3d"}, "2": {"label": "*3", "atom_type": "Cd"}, "6": {"label": "*0", "atom_type": "N3s"}, "7": {"label": "*1", "atom_type": "Cs"}, "11": {"label": "*2", "atom_type": "H0"}}

>  <type>  (6) 
unop_2

>  <geom_source>  (6) 
Heuristics

$$$$

     RDKit          3D

 18 16  0  0  0  0  0  0  0  0999 V2000
    3.5883   -0.2953    0.1109 O   0  0  0  0  0  0  0  0  0  0  0  0
    2.2552   -0.2334   -0.3267 N   0  0  0  0  0  0  0  0  0  0  0  0
    1.3483   -0.1822    0.5240 C   0  0  0  0  0  0  0  0  0  0  0  0
    4.1106   -0.3246   -0.7025 H   0  0  0  0  0  0  0  0  0  0  0  0
    1.4548   -0.1811    1.6034 H   0  0  0  0  0  0  0  0  0  0  0  0
   -2.4982   -1.5553    0.5161 N   0  0  0  0  0  1  0  0  0  0  0  0
   -1.7038   -1.2540   -0.3722 N   0  0  0  0  0  0  0  0  0  0  0  0
   -1.0611   -0.0487   -0.5543 C   0  0  0  0  0  3  0  0  0  0  0  0
   -1.6942    1.1265    0.1497 C   0  0  0  0  0  0  0  0  0  0  0  0
   -0.8593    2.3921    0.0157 C   0  0  0  0  0  0  0  0  0  0  0  0
   -1.4172   -1.9811   -1.0609 H   0  0  0  0  0  0  0  0  0  0  0  0
    0.1934   -0.1364    0.0351 H   0  0  0  0  0  0  0  0  0  0  0  0
   -0.7590    0.1242   -1.5848 H   0  0  0  0  0  0  0  0  0  0  0  0
   -2.6933    1.3020   -0.2655 H   0  0  0  0  0  0  0  0  0  0  0  0
   -1.8329    0.8606    1.2012 H   0  0  0  0  0  0  0  0  0  0  0  0
   -0.7316    2.6574   -1.0316 H   0  0  0  0  0  0  0  0  0  0  0  0
    0.1258    2.2525    0.4545 H   0  0  0  0  0  0  0  0  0  0  0  0
   -1.3490    3.2195    0.5219 H   0  0  0  0  0  0  0  0  0  0  0  0
  1  2  1  0
  1  4  1  0
  2  3  2  3
  3  5  1  0
  3 12  1  0
  6  7  1  0
  7  8  1  0
  7 11  1  0
  8  9  1  0
  8 13  1  0
  9 10  1  0
  9 14  1  0
  9 15  1  0
 10 16  1  0
 10 17  1  0
 10 18  1  0
M  CHG  2   6  -1   8   1
M  RAD  1   6   2
M  END
>  <reaction>  (7) 
rmg_rxn_15458

>  <mol_properties>  (7) 
{"1": {"label": "*4", "atom_type": "N3d"}, "2": {"label": "*3", "atom_type": "Cd"}, "6": {"label": "*0", "atom_type": "N3s"}, "7": {"label": "*1", "atom_type": "Cs"}, "11": {"label": "*2", "atom_type": "H0"}}

>  <type>  (7) 
unop_3

>  <geom_source>  (7) 
Heuristics

$$$$

     RDKit          3D

 18 16  0  0  0  0  0  0  0  0999 V2000
   -1.5754   -1.3357    2.9782 O   0  0  0  0  0  0  0  0  0  0  0  0
   -0.9203   -1.2040    1.7697 N   0  0  0  0  0  0  0  0  0  0  0  0
   -0.7198    0.0060    1.4709 C   0  0  0  0  0  0  0  0  0  0  0  0
   -1.6620   -2.2854    3.0814 H   0  0  0  0  0  0  0  0  0  0  0  0
   -1.0366    0.8281    2.1091 H   0  0  0  0  0  0  0  0  0  0  0  0
    1.0914   -0.7189   -2.4636 N   0  0  0  0  0  1  0  0  0  0  0  0
    1.0914   -0.7189   -1.2640 N   0  0  0  0  0  0  0  0  0  0  0  0
    1.0914    0.4755   -0.3502 C   0  0  0  0  0  3  0  0  0  0  0  0
    0.8347    1.7732   -1.0828 C   0  0  0  0  0  0  0  0  0  0  0  0
   -0.6086    1.9359   -1.5423 C   0  0  0  0  0  0  0  0  0  0  0  0
    1.1107   -1.6028   -0.7089 H   0  0  0  0  0  0  0  0  0  0  0  0
    0.1808    0.2394    0.5654 H   0  0  0  0  0  0  0  0  0  0  0  0
    2.0668    0.4743    0.1435 H   0  0  0  0  0  0  0  0  0  0  0  0
    1.1082    2.5905   -0.4114 H   0  0  0  0  0  0  0  0  0  0  0  0
    1.5043    1.8224   -1.9434 H   0  0  0  0  0  0  0  0  0  0  0  0
   -1.2983    1.8908   -0.6957 H   0  0  0  0  0  0  0  0  0  0  0  0
   -0.8807    1.1539   -2.2512 H   0  0  0  0  0  0  0  0  0  0  0  0
   -0.7505    2.8976   -2.0365 H   0  0  0  0  0  0  0  0  0  0  0  0
  1  2  1  0
  1  4  1  0
  2  3  2  3
  3  5  1  0
  3 12  1  0
  6  7  1  0
  7  8  1  0
  7 11  1  0
  8  9  1  0
  8 13  1  0
  9 10  1  0
  9 14  1  0
  9 15  1  0
 10 16  1  0
 10 17  1  0
 10 18  1  0
M  CHG  2   6  -1   8   1
M  RAD  1   6   2
M  END
>  <reaction>  (8) 
rmg_rxn_15458

>  <mol_properties>  (8) 
{"1": {"label": "*4", "atom_type": "N3d"}, "2": {"label": "*3", "atom_type": "Cd"}, "6": {"label": "*0", "atom_type": "N3s"}, "7": {"label": "*1", "atom_type": "Cs"}, "11": {"label": "*2", "atom_type": "H0"}}

>  <type>  (8) 
unop_4

>  <geom_source>  (8) 
Heuristics

$$$$

     RDKit          3D

 18 16  0  0  0  0  0  0  0  0999 V2000
    3.5902   -0.2864    0.1103 O   0  0  0  0  0  0  0  0  0  0  0  0
    2.2562   -0.2335   -0.3258 N   0  0  0  0  0  0  0  0  0  0  0  0
    1.3514   -0.1559    0.5251 C   0  0  0  0  0  0  0  0  0  0  0  0
    4.1105   -0.3403   -0.7030 H   0  0  0  0  0  0  0  0  0  0  0  0
    1.4606   -0.1249    1.6038 H   0  0  0  0  0  0  0  0  0  0  0  0
   -2.4794   -1.5732    0.5169 N   0  0  0  0  0  1  0  0  0  0  0  0
   -1.6878   -1.2632   -0.3707 N   0  0  0  0  0  0  0  0  0  0  0  0
   -1.0594   -0.0505   -0.5533 C   0  0  0  0  0  3  0  0  0  0  0  0
   -1.7070    1.1178    0.1489 C   0  0  0  0  0  0  0  0  0  0  0  0
   -0.8882    2.3936    0.0121 C   0  0  0  0  0  0  0  0  0  0  0  0
   -1.3910   -1.9877   -1.0579 H   0  0  0  0  0  0  0  0  0  0  0  0
    0.1958   -0.1231    0.0370 H   0  0  0  0  0  0  0  0  0  0  0  0
   -0.7582    0.1250   -1.5836 H   0  0  0  0  0  0  0  0  0  0  0  0
   -2.7084    1.2798   -0.2661 H   0  0  0  0  0  0  0  0  0  0  0  0
   -1.8419    0.8523    1.2010 H   0  0  0  0  0  0  0  0  0  0  0  0
   -1.3895    3.2163    0.5147 H   0  0  0  0  0  0  0  0  0  0  0  0
   -0.7623    2.6570   -1.0359 H   0  0  0  0  0  0  0  0  0  0  0  0
    0.0979    2.2682    0.4529 H   0  0  0  0  0  0  0  0  0  0  0  0
  1  2  1  0
  1  4  1  0
  2  3  2  3
  3  5  1  0
  3 12  1  0
  6  7  1  0
  7  8  1  0
  7 11  1  0
  8  9  1  0
  8 13  1  0
  9 10  1  0
  9 14  1  0
  9 15  1  0
 10 16  1  0
 10 17  1  0
 10 18  1  0
M  CHG  2   6  -1   8   1
M  RAD  1   6   2
M  END
>  <reaction>  (9) 
rmg_rxn_15458

>  <mol_properties>  (9) 
{"1": {"label": "*4", "atom_type": "N3d"}, "2": {"label": "*3", "atom_type": "Cd"}, "6": {"label": "*0", "atom_type": "N3s"}, "7": {"label": "*1", "atom_type": "Cs"}, "11": {"label": "*2", "atom_type": "H0"}}

>  <type>  (9) 
unop_5

>  <geom_source>  (9) 
Heuristics

$$$$

     RDKit          3D

 18 16  0  0  0  0  0  0  0  0999 V2000
   -1.7326    0.3297    3.0953 O   0  0  0  0  0  0  0  0  0  0  0  0
   -0.5493   -0.0157    2.4729 N   0  0  0  0  0  0  0  0  0  0  0  0
   -0.7458   -0.5267    1.3355 C   0  0  0  0  0  0  0  0  0  0  0  0
   -1.4438    0.6983    3.9324 H   0  0  0  0  0  0  0  0  0  0  0  0
   -1.7412   -0.6666    0.9193 H   0  0  0  0  0  0  0  0  0  0  0  0
    1.0654   -1.2515   -2.5990 N   0  0  0  0  0  1  0  0  0  0  0  0
    1.0654   -1.2515   -1.3994 N   0  0  0  0  0  0  0  0  0  0  0  0
    1.0654   -0.0571   -0.4856 C   0  0  0  0  0  3  0  0  0  0  0  0
    0.8087    1.2406   -1.2182 C   0  0  0  0  0  0  0  0  0  0  0  0
   -0.6347    1.4032   -1.6777 C   0  0  0  0  0  0  0  0  0  0  0  0
    1.0847   -2.1354   -0.8443 H   0  0  0  0  0  0  0  0  0  0  0  0
    0.1547   -0.2932    0.4300 H   0  0  0  0  0  0  0  0  0  0  0  0
    2.0407   -0.0584    0.0082 H   0  0  0  0  0  0  0  0  0  0  0  0
    1.0822    2.0579   -0.5468 H   0  0  0  0  0  0  0  0  0  0  0  0
    1.4783    1.2897   -2.0787 H   0  0  0  0  0  0  0  0  0  0  0  0
   -1.3244    1.3582   -0.8311 H   0  0  0  0  0  0  0  0  0  0  0  0
   -0.9067    0.6212   -2.3866 H   0  0  0  0  0  0  0  0  0  0  0  0
   -0.7765    2.3650   -2.1719 H   0  0  0  0  0  0  0  0  0  0  0  0
  1  2  1  0
  1  4  1  0
  2  3  2  3
  3  5  1  0
  3 12  1  0
  6  7  1  0
  7  8  1  0
  7 11  1  0
  8  9  1  0
  8 13  1  0
  9 10  1  0
  9 14  1  0
  9 15  1  0
 10 16  1  0
 10 17  1  0
 10 18  1  0
M  CHG  2   6  -1   8   1
M  RAD  1   6   2
M  END
>  <reaction>  (10) 
rmg_rxn_15458

>  <mol_properties>  (10) 
{"1": {"label": "*4", "atom_type": "N3d"}, "2": {"label": "*3", "atom_type": "Cd"}, "6": {"label": "*0", "atom_type": "N3s"}, "7": {"label": "*1", "atom_type": "Cs"}, "11": {"label": "*2", "atom_type": "H0"}}

>  <type>  (10) 
unop_6

>  <geom_source>  (10) 
Heuristics

$$$$

     RDKit          3D

 18 16  0  0  0  0  0  0  0  0999 V2000
   -2.5295   -0.0780    2.2090 O   0  0  0  0  0  0  0  0  0  0  0  0
   -1.5974   -0.5301    1.2958 N   0  0  0  0  0  0  0  0  0  0  0  0
   -0.4152   -0.3610    1.7050 C   0  0  0  0  0  0  0  0  0  0  0  0
   -3.3676   -0.2632    1.7809 H   0  0  0  0  0  0  0  0  0  0  0  0
   -0.1867    0.0905    2.6681 H   0  0  0  0  0  0  0  0  0  0  0  0
    1.3960   -1.0858   -2.2294 N   0  0  0  0  0  1  0  0  0  0  0  0
    1.3960   -1.0858   -1.0299 N   0  0  0  0  0  0  0  0  0  0  0  0
    1.3960    0.1086   -0.1161 C   0  0  0  0  0  3  0  0  0  0  0  0
    1.1393    1.4063   -0.8487 C   0  0  0  0  0  0  0  0  0  0  0  0
   -0.3041    1.5689   -1.3082 C   0  0  0  0  0  0  0  0  0  0  0  0
    1.4153   -1.9697   -0.4748 H   0  0  0  0  0  0  0  0  0  0  0  0
    0.4853   -0.1275    0.7996 H   0  0  0  0  0  0  0  0  0  0  0  0
    2.3713    0.1073    0.3777 H   0  0  0  0  0  0  0  0  0  0  0  0
    1.4128    2.2236   -0.1773 H   0  0  0  0  0  0  0  0  0  0  0  0
    1.8089    1.4554   -1.7092 H   0  0  0  0  0  0  0  0  0  0  0  0
   -0.9938    1.5238   -0.4615 H   0  0  0  0  0  0  0  0  0  0  0  0
   -0.5761    0.7869   -2.0170 H   0  0  0  0  0  0  0  0  0  0  0  0
   -0.4459    2.5307   -1.8023 H   0  0  0  0  0  0  0  0  0  0  0  0
  1  2  1  0
  1  4  1  0
  2  3  2  3
  3  5  1  0
  3 12  1  0
  6  7  1  0
  7  8  1  0
  7 11  1  0
  8  9  1  0
  8 13  1  0
  9 10  1  0
  9 14  1  0
  9 15  1  0
 10 16  1  0
 10 17  1  0
 10 18  1  0
M  CHG  2   6  -1   8   1
M  RAD  1   6   2
M  END
>  <reaction>  (11) 
rmg_rxn_15458

>  <mol_properties>  (11) 
{"1": {"label": "*4", "atom_type": "N3d"}, "2": {"label": "*3", "atom_type": "Cd"}, "6": {"label": "*0", "atom_type": "N3s"}, "7": {"label": "*1", "atom_type": "Cs"}, "11": {"label": "*2", "atom_type": "H0"}}

>  <type>  (11) 
unop_7

>  <geom_source>  (11) 
Heuristics

$$$$

     RDKit          3D

 18 16  0  0  0  0  0  0  0  0999 V2000
    3.5873    0.3004   -0.1104 O   0  0  0  0  0  0  0  0  0  0  0  0
    2.2544    0.2322    0.3266 N   0  0  0  0  0  0  0  0  0  0  0  0
    1.3470    0.1963   -0.5243 C   0  0  0  0  0  0  0  0  0  0  0  0
    4.1099    0.3145    0.7032 H   0  0  0  0  0  0  0  0  0  0  0  0
    1.4530    0.2139   -1.6037 H   0  0  0  0  0  0  0  0  0  0  0  0
   -2.5085    1.5462   -0.5145 N   0  0  0  0  0  1  0  0  0  0  0  0
   -1.7119    1.2491    0.3732 N   0  0  0  0  0  0  0  0  0  0  0  0
   -1.0615    0.0478    0.5540 C   0  0  0  0  0  3  0  0  0  0  0  0
   -1.6873   -1.1308   -0.1508 C   0  0  0  0  0  0  0  0  0  0  0  0
   -0.8448   -2.3914   -0.0170 C   0  0  0  0  0  0  0  0  0  0  0  0
   -1.4297    1.9774    1.0625 H   0  0  0  0  0  0  0  0  0  0  0  0
    0.1924    0.1442   -0.0356 H   0  0  0  0  0  0  0  0  0  0  0  0
   -0.7577   -0.1243    1.5841 H   0  0  0  0  0  0  0  0  0  0  0  0
   -2.6855   -1.3125    0.2639 H   0  0  0  0  0  0  0  0  0  0  0  0
   -1.8273   -0.8655   -1.2023 H   0  0  0  0  0  0  0  0  0  0  0  0
   -0.7145   -2.6553    1.0303 H   0  0  0  0  0  0  0  0  0  0  0  0
    0.1390   -2.2461   -0.4569 H   0  0  0  0  0  0  0  0  0  0  0  0
   -1.3302   -3.2219   -0.5223 H   0  0  0  0  0  0  0  0  0  0  0  0
  1  2  1  0
  1  4  1  0
  2  3  2  3
  3  5  1  0
  3 12  1  0
  6  7  1  0
  7  8  1  0
  7 11  1  0
  8  9  1  0
  8 13  1  0
  9 10  1  0
  9 14  1  0
  9 15  1  0
 10 16  1  0
 10 17  1  0
 10 18  1  0
M  CHG  2   6  -1   8   1
M  RAD  1   6   2
M  END
>  <reaction>  (12) 
rmg_rxn_15458

>  <mol_properties>  (12) 
{"1": {"label": "*4", "atom_type": "N3d"}, "2": {"label": "*3", "atom_type": "Cd"}, "6": {"label": "*0", "atom_type": "N3s"}, "7": {"label": "*1", "atom_type": "Cs"}, "11": {"label": "*2", "atom_type": "H0"}}

>  <type>  (12) 
unop_8

>  <geom_source>  (12) 
Heuristics

$$$$

     RDKit          3D

 18 16  0  0  0  0  0  0  0  0999 V2000
   -1.8212    0.0224    3.1513 O   0  0  0  0  0  0  0  0  0  0  0  0
   -0.8437    0.3682    2.2391 N   0  0  0  0  0  0  0  0  0  0  0  0
   -0.6810   -0.5237    1.3608 C   0  0  0  0  0  0  0  0  0  0  0  0
   -1.8418    0.7720    3.7495 H   0  0  0  0  0  0  0  0  0  0  0  0
   -1.2569   -1.4466    1.3482 H   0  0  0  0  0  0  0  0  0  0  0  0
    1.1302   -1.2486   -2.5736 N   0  0  0  0  0  1  0  0  0  0  0  0
    1.1302   -1.2486   -1.3740 N   0  0  0  0  0  0  0  0  0  0  0  0
    1.1302   -0.0541   -0.4602 C   0  0  0  0  0  3  0  0  0  0  0  0
    0.8736    1.2435   -1.1928 C   0  0  0  0  0  0  0  0  0  0  0  0
   -0.5698    1.4062   -1.6524 C   0  0  0  0  0  0  0  0  0  0  0  0
    1.1496   -2.1324   -0.8189 H   0  0  0  0  0  0  0  0  0  0  0  0
    0.2196   -0.2902    0.4554 H   0  0  0  0  0  0  0  0  0  0  0  0
    2.1056   -0.0554    0.0335 H   0  0  0  0  0  0  0  0  0  0  0  0
    1.1471    2.0609   -0.5215 H   0  0  0  0  0  0  0  0  0  0  0  0
    1.5431    1.2927   -2.0534 H   0  0  0  0  0  0  0  0  0  0  0  0
   -1.2595    1.3611   -0.8057 H   0  0  0  0  0  0  0  0  0  0  0  0
   -0.8418    0.6242   -2.3612 H   0  0  0  0  0  0  0  0  0  0  0  0
   -0.7117    2.3679   -2.1465 H   0  0  0  0  0  0  0  0  0  0  0  0
  1  2  1  0
  1  4  1  0
  2  3  2  3
  3  5  1  0
  3 12  1  0
  6  7  1  0
  7  8  1  0
  7 11  1  0
  8  9  1  0
  8 13  1  0
  9 10  1  0
  9 14  1  0
  9 15  1  0
 10 16  1  0
 10 17  1  0
 10 18  1  0
M  CHG  2   6  -1   8   1
M  RAD  1   6   2
M  END
>  <reaction>  (13) 
rmg_rxn_15458

>  <mol_properties>  (13) 
{"1": {"label": "*4", "atom_type": "N3d"}, "2": {"label": "*3", "atom_type": "Cd"}, "6": {"label": "*0", "atom_type": "N3s"}, "7": {"label": "*1", "atom_type": "Cs"}, "11": {"label": "*2", "atom_type": "H0"}}

>  <type>  (13) 
unop_9

>  <geom_source>  (13) 
Heuristics

$$$$

     RDKit          3D

 18 16  0  0  0  0  0  0  0  0999 V2000
   -3.5870   -0.3006   -0.1091 O   0  0  0  0  0  0  0  0  0  0  0  0
   -2.2533   -0.2352    0.3258 N   0  0  0  0  0  0  0  0  0  0  0  0
   -1.3473   -0.1928   -0.5264 C   0  0  0  0  0  0  0  0  0  0  0  0
   -4.1080   -0.3214    0.7053 H   0  0  0  0  0  0  0  0  0  0  0  0
   -1.4550   -0.2025   -1.6057 H   0  0  0  0  0  0  0  0  0  0  0  0
    2.5102   -1.5447   -0.5147 N   0  0  0  0  0  1  0  0  0  0  0  0
    1.7116   -1.2495    0.3717 N   0  0  0  0  0  0  0  0  0  0  0  0
    1.0606   -0.0486    0.5536 C   0  0  0  0  0  3  0  0  0  0  0  0
    1.6881    1.1315   -0.1470 C   0  0  0  0  0  0  0  0  0  0  0  0
    0.8427    2.3906   -0.0174 C   0  0  0  0  0  0  0  0  0  0  0  0
    1.4279   -1.9793    1.0589 H   0  0  0  0  0  0  0  0  0  0  0  0
   -0.1922   -0.1435   -0.0383 H   0  0  0  0  0  0  0  0  0  0  0  0
    0.7546    0.1211    1.5834 H   0  0  0  0  0  0  0  0  0  0  0  0
    2.6836    1.3148    0.2735 H   0  0  0  0  0  0  0  0  0  0  0  0
    1.8344    0.8669   -1.1978 H   0  0  0  0  0  0  0  0  0  0  0  0
   -0.1372    2.2448   -0.4656 H   0  0  0  0  0  0  0  0  0  0  0  0
    1.3310    3.2229   -0.5169 H   0  0  0  0  0  0  0  0  0  0  0  0
    0.7034    2.6520    1.0293 H   0  0  0  0  0  0  0  0  0  0  0  0
  1  2  1  0
  1  4  1  0
  2  3  2  3
  3  5  1  0
  3 12  1  0
  6  7  1  0
  7  8  1  0
  7 11  1  0
  8  9  1  0
  8 13  1  0
  9 10  1  0
  9 14  1  0
  9 15  1  0
 10 16  1  0
 10 17  1  0
 10 18  1  0
M  CHG  2   6  -1   8   1
M  RAD  1   6   2
M  END
>  <reaction>  (14) 
rmg_rxn_15458

>  <mol_properties>  (14) 
{"1": {"label": "*4", "atom_type": "N3d"}, "2": {"label": "*3", "atom_type": "Cd"}, "6": {"label": "*0", "atom_type": "N3s"}, "7": {"label": "*1", "atom_type": "Cs"}, "11": {"label": "*2", "atom_type": "H0"}}

>  <type>  (14) 
unop_10

>  <geom_source>  (14) 
Heuristics

$$$$

     RDKit          3D

 18 16  0  0  0  0  0  0  0  0999 V2000
   -2.2500    0.4178    2.4891 O   0  0  0  0  0  0  0  0  0  0  0  0
   -1.6386   -0.1324    1.3798 N   0  0  0  0  0  0  0  0  0  0  0  0
   -0.4666   -0.5265    1.6337 C   0  0  0  0  0  0  0  0  0  0  0  0
   -3.1159    0.6705    2.1629 H   0  0  0  0  0  0  0  0  0  0  0  0
   -0.0163   -0.4314    2.6195 H   0  0  0  0  0  0  0  0  0  0  0  0
    1.3446   -1.2513   -2.3007 N   0  0  0  0  0  1  0  0  0  0  0  0
    1.3446   -1.2513   -1.1011 N   0  0  0  0  0  0  0  0  0  0  0  0
    1.3446   -0.0569   -0.1873 C   0  0  0  0  0  3  0  0  0  0  0  0
    1.0880    1.2408   -0.9199 C   0  0  0  0  0  0  0  0  0  0  0  0
   -0.3554    1.4034   -1.3795 C   0  0  0  0  0  0  0  0  0  0  0  0
    1.3640   -2.1352   -0.5461 H   0  0  0  0  0  0  0  0  0  0  0  0
    0.4340   -0.2930    0.7283 H   0  0  0  0  0  0  0  0  0  0  0  0
    2.3200   -0.0582    0.3064 H   0  0  0  0  0  0  0  0  0  0  0  0
    1.3615    2.0581   -0.2486 H   0  0  0  0  0  0  0  0  0  0  0  0
    1.7575    1.2899   -1.7805 H   0  0  0  0  0  0  0  0  0  0  0  0
   -1.0451    1.3583   -0.5328 H   0  0  0  0  0  0  0  0  0  0  0  0
   -0.6274    0.6214   -2.0883 H   0  0  0  0  0  0  0  0  0  0  0  0
   -0.4973    2.3652   -1.8736 H   0  0  0  0  0  0  0  0  0  0  0  0
  1  2  1  0
  1  4  1  0
  2  3  2  3
  3  5  1  0
  3 12  1  0
  6  7  1  0
  7  8  1  0
  7 11  1  0
  8  9  1  0
  8 13  1  0
  9 10  1  0
  9 14  1  0
  9 15  1  0
 10 16  1  0
 10 17  1  0
 10 18  1  0
M  CHG  2   6  -1   8   1
M  RAD  1   6   2
M  END
>  <reaction>  (15) 
rmg_rxn_15458

>  <mol_properties>  (15) 
{"1": {"label": "*4", "atom_type": "N3d"}, "2": {"label": "*3", "atom_type": "Cd"}, "6": {"label": "*0", "atom_type": "N3s"}, "7": {"label": "*1", "atom_type": "Cs"}, "11": {"label": "*2", "atom_type": "H0"}}

>  <type>  (15) 
unop_11

>  <geom_source>  (15) 
Heuristics

$$$$

     RDKit          3D

 18 16  0  0  0  0  0  0  0  0999 V2000
    3.5887   -0.2942    0.1095 O   0  0  0  0  0  0  0  0  0  0  0  0
    2.2550   -0.2323   -0.3259 N   0  0  0  0  0  0  0  0  0  0  0  0
    1.3494   -0.1782    0.5260 C   0  0  0  0  0  0  0  0  0  0  0  0
    4.1096   -0.3256   -0.7046 H   0  0  0  0  0  0  0  0  0  0  0  0
    1.4575   -0.1749    1.6052 H   0  0  0  0  0  0  0  0  0  0  0  0
   -2.4959   -1.5586    0.5148 N   0  0  0  0  0  1  0  0  0  0  0  0
   -1.7006   -1.2556   -0.3720 N   0  0  0  0  0  0  0  0  0  0  0  0
   -1.0599   -0.0491   -0.5530 C   0  0  0  0  0  3  0  0  0  0  0  0
   -1.6966    1.1250    0.1495 C   0  0  0  0  0  0  0  0  0  0  0  0
   -0.8648    2.3926    0.0147 C   0  0  0  0  0  0  0  0  0  0  0  0
   -1.4108   -1.9824   -1.0599 H   0  0  0  0  0  0  0  0  0  0  0  0
    0.1941   -0.1347    0.0379 H   0  0  0  0  0  0  0  0  0  0  0  0
   -0.7562    0.1243   -1.5829 H   0  0  0  0  0  0  0  0  0  0  0  0
   -2.6959    1.2974   -0.2666 H   0  0  0  0  0  0  0  0  0  0  0  0
   -1.8354    0.8600    1.2012 H   0  0  0  0  0  0  0  0  0  0  0  0
   -1.3595    3.2205    0.5153 H   0  0  0  0  0  0  0  0  0  0  0  0
   -0.7329    2.6542   -1.0330 H   0  0  0  0  0  0  0  0  0  0  0  0
    0.1185    2.2576    0.4588 H   0  0  0  0  0  0  0  0  0  0  0  0
  1  2  1  0
  1  4  1  0
  2  3  2  3
  3  5  1  0
  3 12  1  0
  6  7  1  0
  7  8  1  0
  7 11  1  0
  8  9  1  0
  8 13  1  0
  9 10  1  0
  9 14  1  0
  9 15  1  0
 10 16  1  0
 10 17  1  0
 10 18  1  0
M  CHG  2   6  -1   8   1
M  RAD  1   6   2
M  END
>  <reaction>  (16) 
rmg_rxn_15458

>  <mol_properties>  (16) 
{"1": {"label": "*4", "atom_type": "N3d"}, "2": {"label": "*3", "atom_type": "Cd"}, "6": {"label": "*0", "atom_type": "N3s"}, "7": {"label": "*1", "atom_type": "Cs"}, "11": {"label": "*2", "atom_type": "H0"}}

>  <type>  (16) 
unop_12

>  <geom_source>  (16) 
Heuristics

$$$$

     RDKit          3D

 18 16  0  0  0  0  0  0  0  0999 V2000
   -1.8345    0.5313    2.8993 O   0  0  0  0  0  0  0  0  0  0  0  0
   -1.5237    0.2190    1.5905 N   0  0  0  0  0  0  0  0  0  0  0  0
   -0.5708   -0.6055    1.5155 C   0  0  0  0  0  0  0  0  0  0  0  0
   -2.5593    1.1536    2.8130 H   0  0  0  0  0  0  0  0  0  0  0  0
   -0.0714   -1.0065    2.3949 H   0  0  0  0  0  0  0  0  0  0  0  0
    1.2404   -1.3304   -2.4190 N   0  0  0  0  0  1  0  0  0  0  0  0
    1.2404   -1.3304   -1.2194 N   0  0  0  0  0  0  0  0  0  0  0  0
    1.2404   -0.1359   -0.3056 C   0  0  0  0  0  3  0  0  0  0  0  0
    0.9837    1.1617   -1.0382 C   0  0  0  0  0  0  0  0  0  0  0  0
   -0.4596    1.3244   -1.4977 C   0  0  0  0  0  0  0  0  0  0  0  0
    1.2597   -2.2142   -0.6643 H   0  0  0  0  0  0  0  0  0  0  0  0
    0.3298   -0.3720    0.6100 H   0  0  0  0  0  0  0  0  0  0  0  0
    2.2158   -0.1372    0.1882 H   0  0  0  0  0  0  0  0  0  0  0  0
    1.2572    1.9791   -0.3668 H   0  0  0  0  0  0  0  0  0  0  0  0
    1.6533    1.2109   -1.8987 H   0  0  0  0  0  0  0  0  0  0  0  0
   -1.1493    1.2793   -0.6511 H   0  0  0  0  0  0  0  0  0  0  0  0
   -0.7317    0.5424   -2.2066 H   0  0  0  0  0  0  0  0  0  0  0  0
   -0.6015    2.2861   -1.9919 H   0  0  0  0  0  0  0  0  0  0  0  0
  1  2  1  0
  1  4  1  0
  2  3  2  3
  3  5  1  0
  3 12  1  0
  6  7  1  0
  7  8  1  0
  7 11  1  0
  8  9  1  0
  8 13  1  0
  9 10  1  0
  9 14  1  0
  9 15  1  0
 10 16  1  0
 10 17  1  0
 10 18  1  0
M  CHG  2   6  -1   8   1
M  RAD  1   6   2
M  END
>  <reaction>  (17) 
rmg_rxn_15458

>  <mol_properties>  (17) 
{"1": {"label": "*4", "atom_type": "N3d"}, "2": {"label": "*3", "atom_type": "Cd"}, "6": {"label": "*0", "atom_type": "N3s"}, "7": {"label": "*1", "atom_type": "Cs"}, "11": {"label": "*2", "atom_type": "H0"}}

>  <type>  (17) 
unop_13

>  <geom_source>  (17) 
Heuristics

$$$$

     RDKit          3D

 18 16  0  0  0  0  0  0  0  0999 V2000
   -1.0751   -0.3289    3.4652 O   0  0  0  0  0  0  0  0  0  0  0  0
   -0.5015   -0.8551    2.3245 N   0  0  0  0  0  0  0  0  0  0  0  0
   -0.8896   -0.2577    1.2824 C   0  0  0  0  0  0  0  0  0  0  0  0
   -0.7017   -0.8638    4.1684 H   0  0  0  0  0  0  0  0  0  0  0  0
   -1.5938    0.5711    1.3091 H   0  0  0  0  0  0  0  0  0  0  0  0
    0.9216   -0.9825   -2.6521 N   0  0  0  0  0  1  0  0  0  0  0  0
    0.9216   -0.9825   -1.4525 N   0  0  0  0  0  0  0  0  0  0  0  0
    0.9216    0.2119   -0.5387 C   0  0  0  0  0  3  0  0  0  0  0  0
    0.6650    1.5096   -1.2713 C   0  0  0  0  0  0  0  0  0  0  0  0
   -0.7784    1.6722   -1.7308 C   0  0  0  0  0  0  0  0  0  0  0  0
    0.9410   -1.8664   -0.8974 H   0  0  0  0  0  0  0  0  0  0  0  0
    0.0110   -0.0242    0.3769 H   0  0  0  0  0  0  0  0  0  0  0  0
    1.8970    0.2106   -0.0450 H   0  0  0  0  0  0  0  0  0  0  0  0
    0.9385    2.3269   -0.5999 H   0  0  0  0  0  0  0  0  0  0  0  0
    1.3345    1.5587   -2.1319 H   0  0  0  0  0  0  0  0  0  0  0  0
   -1.4681    1.6272   -0.8842 H   0  0  0  0  0  0  0  0  0  0  0  0
   -1.0504    0.8902   -2.4397 H   0  0  0  0  0  0  0  0  0  0  0  0
   -0.9203    2.6340   -2.2250 H   0  0  0  0  0  0  0  0  0  0  0  0
  1  2  1  0
  1  4  1  0
  2  3  2  3
  3  5  1  0
  3 12  1  0
  6  7  1  0
  7  8  1  0
  7 11  1  0
  8  9  1  0
  8 13  1  0
  9 10  1  0
  9 14  1  0
  9 15  1  0
 10 16  1  0
 10 17  1  0
 10 18  1  0
M  CHG  2   6  -1   8   1
M  RAD  1   6   2
M  END
>  <reaction>  (18) 
rmg_rxn_15458

>  <mol_properties>  (18) 
{"1": {"label": "*4", "atom_type": "N3d"}, "2": {"label": "*3", "atom_type": "Cd"}, "6": {"label": "*0", "atom_type": "N3s"}, "7": {"label": "*1", "atom_type": "Cs"}, "11": {"label": "*2", "atom_type": "H0"}}

>  <type>  (18) 
unop_14

>  <geom_source>  (18) 
Heuristics

$$$$

     RDKit          3D

 18 16  0  0  0  0  0  0  0  0999 V2000
    3.5881    0.2952   -0.1098 O   0  0  0  0  0  0  0  0  0  0  0  0
    2.2545    0.2344    0.3260 N   0  0  0  0  0  0  0  0  0  0  0  0
    1.3487    0.1787   -0.5255 C   0  0  0  0  0  0  0  0  0  0  0  0
    4.1092    0.3299    0.7040 H   0  0  0  0  0  0  0  0  0  0  0  0
    1.4568    0.1718   -1.6048 H   0  0  0  0  0  0  0  0  0  0  0  0
   -2.4982    1.5557   -0.5159 N   0  0  0  0  0  1  0  0  0  0  0  0
   -1.7021    1.2549    0.3711 N   0  0  0  0  0  0  0  0  0  0  0  0
   -1.0603    0.0493    0.5538 C   0  0  0  0  0  3  0  0  0  0  0  0
   -1.6959   -1.1265   -0.1469 C   0  0  0  0  0  0  0  0  0  0  0  0
   -0.8598   -2.3917   -0.0160 C   0  0  0  0  0  0  0  0  0  0  0  0
   -1.4126    1.9829    1.0577 H   0  0  0  0  0  0  0  0  0  0  0  0
    0.1935    0.1351   -0.0374 H   0  0  0  0  0  0  0  0  0  0  0  0
   -0.7562   -0.1223    1.5839 H   0  0  0  0  0  0  0  0  0  0  0  0
   -2.6930   -1.3023    0.2729 H   0  0  0  0  0  0  0  0  0  0  0  0
   -1.8395   -0.8613   -1.1979 H   0  0  0  0  0  0  0  0  0  0  0  0
    0.1217   -2.2532   -0.4631 H   0  0  0  0  0  0  0  0  0  0  0  0
   -1.3536   -3.2205   -0.5160 H   0  0  0  0  0  0  0  0  0  0  0  0
   -0.7237   -2.6539    1.0309 H   0  0  0  0  0  0  0  0  0  0  0  0
  1  2  1  0
  1  4  1  0
  2  3  2  3
  3  5  1  0
  3 12  1  0
  6  7  1  0
  7  8  1  0
  7 11  1  0
  8  9  1  0
  8 13  1  0
  9 10  1  0
  9 14  1  0
  9 15  1  0
 10 16  1  0
 10 17  1  0
 10 18  1  0
M  CHG  2   6  -1   8   1
M  RAD  1   6   2
M  END
>  <reaction>  (19) 
rmg_rxn_15458

>  <mol_properties>  (19) 
{"1": {"label": "*4", "atom_type": "N3d"}, "2": {"label": "*3", "atom_type": "Cd"}, "6": {"label": "*0", "atom_type": "N3s"}, "7": {"label": "*1", "atom_type": "Cs"}, "11": {"label": "*2", "atom_type": "H0"}}

>  <type>  (19) 
unop_15

>  <geom_source>  (19) 
Heuristics

$$$$

     RDKit          3D

 18 16  0  0  0  0  0  0  0  0999 V2000
   -2.4972   -0.7499    2.2124 O   0  0  0  0  0  0  0  0  0  0  0  0
   -1.4290   -0.8807    1.3470 N   0  0  0  0  0  0  0  0  0  0  0  0
   -0.4485   -0.1665    1.6962 C   0  0  0  0  0  0  0  0  0  0  0  0
   -3.1595   -1.3337    1.8374 H   0  0  0  0  0  0  0  0  0  0  0  0
   -0.4700    0.4680    2.5797 H   0  0  0  0  0  0  0  0  0  0  0  0
    1.3627   -0.8913   -2.2382 N   0  0  0  0  0  1  0  0  0  0  0  0
    1.3627   -0.8913   -1.0386 N   0  0  0  0  0  0  0  0  0  0  0  0
    1.3627    0.3031   -0.1248 C   0  0  0  0  0  3  0  0  0  0  0  0
    1.1060    1.6008   -0.8574 C   0  0  0  0  0  0  0  0  0  0  0  0
   -0.3373    1.7634   -1.3170 C   0  0  0  0  0  0  0  0  0  0  0  0
    1.3820   -1.7752   -0.4836 H   0  0  0  0  0  0  0  0  0  0  0  0
    0.4521    0.0670    0.7908 H   0  0  0  0  0  0  0  0  0  0  0  0
    2.3381    0.3018    0.3689 H   0  0  0  0  0  0  0  0  0  0  0  0
    1.3795    2.4181   -0.1861 H   0  0  0  0  0  0  0  0  0  0  0  0
    1.7756    1.6500   -1.7180 H   0  0  0  0  0  0  0  0  0  0  0  0
   -1.0270    1.7184   -0.4703 H   0  0  0  0  0  0  0  0  0  0  0  0
   -0.6094    0.9814   -2.0258 H   0  0  0  0  0  0  0  0  0  0  0  0
   -0.4792    2.7252   -1.8111 H   0  0  0  0  0  0  0  0  0  0  0  0
  1  2  1  0
  1  4  1  0
  2  3  2  3
  3  5  1  0
  3 12  1  0
  6  7  1  0
  7  8  1  0
  7 11  1  0
  8  9  1  0
  8 13  1  0
  9 10  1  0
  9 14  1  0
  9 15  1  0
 10 16  1  0
 10 17  1  0
 10 18  1  0
M  CHG  2   6  -1   8   1
M  RAD  1   6   2
M  END
>  <reaction>  (20) 
rmg_rxn_15458

>  <mol_properties>  (20) 
{"1": {"label": "*4", "atom_type": "N3d"}, "2": {"label": "*3", "atom_type": "Cd"}, "6": {"label": "*0", "atom_type": "N3s"}, "7": {"label": "*1", "atom_type": "Cs"}, "11": {"label": "*2", "atom_type": "H0"}}

>  <type>  (20) 
unop_16

>  <geom_source>  (20) 
Heuristics

$$$$

     RDKit          3D

 18 16  0  0  0  0  0  0  0  0999 V2000
   -1.1663   -0.9443    3.3414 O   0  0  0  0  0  0  0  0  0  0  0  0
   -0.6744   -1.1167    2.0626 N   0  0  0  0  0  0  0  0  0  0  0  0
   -0.8434   -0.0889    1.3494 C   0  0  0  0  0  0  0  0  0  0  0  0
   -0.9767   -1.7827    3.7670 H   0  0  0  0  0  0  0  0  0  0  0  0
   -1.3232    0.8127    1.7240 H   0  0  0  0  0  0  0  0  0  0  0  0
    0.9678   -0.8138   -2.5851 N   0  0  0  0  0  1  0  0  0  0  0  0
    0.9678   -0.8138   -1.3855 N   0  0  0  0  0  0  0  0  0  0  0  0
    0.9678    0.3807   -0.4717 C   0  0  0  0  0  3  0  0  0  0  0  0
    0.7112    1.6784   -1.2043 C   0  0  0  0  0  0  0  0  0  0  0  0
   -0.7322    1.8410   -1.6638 C   0  0  0  0  0  0  0  0  0  0  0  0
    0.9872   -1.6976   -0.8304 H   0  0  0  0  0  0  0  0  0  0  0  0
    0.0572    0.1446    0.4439 H   0  0  0  0  0  0  0  0  0  0  0  0
    1.9432    0.3794    0.0220 H   0  0  0  0  0  0  0  0  0  0  0  0
    0.9847    2.4957   -0.5329 H   0  0  0  0  0  0  0  0  0  0  0  0
    1.3807    1.7275   -2.0648 H   0  0  0  0  0  0  0  0  0  0  0  0
   -1.4219    1.7959   -0.8172 H   0  0  0  0  0  0  0  0  0  0  0  0
   -1.0042    1.0590   -2.3727 H   0  0  0  0  0  0  0  0  0  0  0  0
   -0.8740    2.8027   -2.1580 H   0  0  0  0  0  0  0  0  0  0  0  0
  1  2  1  0
  1  4  1  0
  2  3  2  3
  3  5  1  0
  3 12  1  0
  6  7  1  0
  7  8  1  0
  7 11  1  0
  8  9  1  0
  8 13  1  0
  9 10  1  0
  9 14  1  0
  9 15  1  0
 10 16  1  0
 10 17  1  0
 10 18  1  0
M  CHG  2   6  -1   8   1
M  RAD  1   6   2
M  END
>  <reaction>  (21) 
rmg_rxn_15458

>  <mol_properties>  (21) 
{"1": {"label": "*4", "atom_type": "N3d"}, "2": {"label": "*3", "atom_type": "Cd"}, "6": {"label": "*0", "atom_type": "N3s"}, "7": {"label": "*1", "atom_type": "Cs"}, "11": {"label": "*2", "atom_type": "H0"}}

>  <type>  (21) 
unop_17

>  <geom_source>  (21) 
Heuristics

$$$$

     RDKit          3D

 18 16  0  0  0  0  0  0  0  0999 V2000
   -1.5863    0.2367    3.2169 O   0  0  0  0  0  0  0  0  0  0  0  0
   -1.2491    0.4290    1.8916 N   0  0  0  0  0  0  0  0  0  0  0  0
   -0.6656   -0.5777    1.4022 C   0  0  0  0  0  0  0  0  0  0  0  0
   -2.0138    1.0605    3.4590 H   0  0  0  0  0  0  0  0  0  0  0  0
   -0.4649   -1.4777    1.9795 H   0  0  0  0  0  0  0  0  0  0  0  0
    1.1456   -1.3025   -2.5323 N   0  0  0  0  0  1  0  0  0  0  0  0
    1.1456   -1.3025   -1.3327 N   0  0  0  0  0  0  0  0  0  0  0  0
    1.1456   -0.1081   -0.4189 C   0  0  0  0  0  3  0  0  0  0  0  0
    0.8890    1.1896   -1.1515 C   0  0  0  0  0  0  0  0  0  0  0  0
   -0.5544    1.3522   -1.6110 C   0  0  0  0  0  0  0  0  0  0  0  0
    1.1650   -2.1864   -0.7776 H   0  0  0  0  0  0  0  0  0  0  0  0
    0.2350   -0.3442    0.4967 H   0  0  0  0  0  0  0  0  0  0  0  0
    2.1210   -0.1094    0.0748 H   0  0  0  0  0  0  0  0  0  0  0  0
    1.1625    2.0069   -0.4801 H   0  0  0  0  0  0  0  0  0  0  0  0
    1.5585    1.2387   -2.0120 H   0  0  0  0  0  0  0  0  0  0  0  0
   -1.2441    1.3072   -0.7644 H   0  0  0  0  0  0  0  0  0  0  0  0
   -0.8264    0.5702   -2.3199 H   0  0  0  0  0  0  0  0  0  0  0  0
   -0.6963    2.3140   -2.1052 H   0  0  0  0  0  0  0  0  0  0  0  0
  1  2  1  0
  1  4  1  0
  2  3  2  3
  3  5  1  0
  3 12  1  0
  6  7  1  0
  7  8  1  0
  7 11  1  0
  8  9  1  0
  8 13  1  0
  9 10  1  0
  9 14  1  0
  9 15  1  0
 10 16  1  0
 10 17  1  0
 10 18  1  0
M  CHG  2   6  -1   8   1
M  RAD  1   6   2
M  END
>  <reaction>  (22) 
rmg_rxn_15458

>  <mol_properties>  (22) 
{"1": {"label": "*4", "atom_type": "N3d"}, "2": {"label": "*3", "atom_type": "Cd"}, "6": {"label": "*0", "atom_type": "N3s"}, "7": {"label": "*1", "atom_type": "Cs"}, "11": {"label": "*2", "atom_type": "H0"}}

>  <type>  (22) 
unop_18

>  <geom_source>  (22) 
Heuristics

$$$$

     RDKit          3D

 18 16  0  0  0  0  0  0  0  0999 V2000
   -2.1186   -1.2666    2.5231 O   0  0  0  0  0  0  0  0  0  0  0  0
   -1.1864   -1.1173    1.5152 N   0  0  0  0  0  0  0  0  0  0  0  0
   -0.5652   -0.0221    1.6053 C   0  0  0  0  0  0  0  0  0  0  0  0
   -2.5096   -2.1228    2.3388 H   0  0  0  0  0  0  0  0  0  0  0  0
   -0.7616    0.7006    2.3945 H   0  0  0  0  0  0  0  0  0  0  0  0
    1.2460   -0.7469   -2.3292 N   0  0  0  0  0  1  0  0  0  0  0  0
    1.2460   -0.7469   -1.1296 N   0  0  0  0  0  0  0  0  0  0  0  0
    1.2460    0.4475   -0.2158 C   0  0  0  0  0  3  0  0  0  0  0  0
    0.9893    1.7452   -0.9484 C   0  0  0  0  0  0  0  0  0  0  0  0
   -0.4541    1.9078   -1.4079 C   0  0  0  0  0  0  0  0  0  0  0  0
    1.2653   -1.6308   -0.5745 H   0  0  0  0  0  0  0  0  0  0  0  0
    0.3353    0.2114    0.6998 H   0  0  0  0  0  0  0  0  0  0  0  0
    2.2213    0.4462    0.2780 H   0  0  0  0  0  0  0  0  0  0  0  0
    1.2628    2.5625   -0.2770 H   0  0  0  0  0  0  0  0  0  0  0  0
    1.6589    1.7943   -1.8089 H   0  0  0  0  0  0  0  0  0  0  0  0
   -1.1438    1.8628   -0.5612 H   0  0  0  0  0  0  0  0  0  0  0  0
   -0.7261    1.1258   -2.1167 H   0  0  0  0  0  0  0  0  0  0  0  0
   -0.5959    2.8696   -1.9020 H   0  0  0  0  0  0  0  0  0  0  0  0
  1  2  1  0
  1  4  1  0
  2  3  2  3
  3  5  1  0
  3 12  1  0
  6  7  1  0
  7  8  1  0
  7 11  1  0
  8  9  1  0
  8 13  1  0
  9 10  1  0
  9 14  1  0
  9 15  1  0
 10 16  1  0
 10 17  1  0
 10 18  1  0
M  CHG  2   6  -1   8   1
M  RAD  1   6   2
M  END
>  <reaction>  (23) 
rmg_rxn_15458

>  <mol_properties>  (23) 
{"1": {"label": "*4", "atom_type": "N3d"}, "2": {"label": "*3", "atom_type": "Cd"}, "6": {"label": "*0", "atom_type": "N3s"}, "7": {"label": "*1", "atom_type": "Cs"}, "11": {"label": "*2", "atom_type": "H0"}}

>  <type>  (23) 
unop_19

>  <geom_source>  (23) 
Heuristics

$$$$

     RDKit          3D

 18 16  0  0  0  0  0  0  0  0999 V2000
    3.0582    0.7970   -0.3333 O   0  0  0  0  0  0  0  0  0  0  0  0
   -1.0773   -0.1505   -1.8861 N   0  0  0  0  0  0  0  0  0  0  0  0
    2.8092   -0.1474    0.6343 N   0  0  0  0  0  0  0  0  0  0  0  0
   -0.3772    0.5729   -2.6165 N   0  0  0  0  0  1  0  0  0  0  0  0
   -1.3079   -0.4178    0.5366 C   0  0  0  0  0  0  0  0  0  0  0  0
   -1.1767    1.0593    0.8945 C   0  0  0  0  0  0  0  0  0  0  0  0
   -0.4998   -0.7600   -0.7149 C   0  0  0  0  0  3  0  0  0  0  0  0
    1.6437   -0.6961    0.7269 C   0  0  0  0  0  0  0  0  0  0  0  0
   -0.9242   -1.0245    1.3847 H   0  0  0  0  0  0  0  0  0  0  0  0
   -2.3785   -0.6752    0.3830 H   0  0  0  0  0  0  0  0  0  0  0  0
   -0.1086    1.3254    1.0444 H   0  0  0  0  0  0  0  0  0  0  0  0
   -1.7300    1.2637    1.8353 H   0  0  0  0  0  0  0  0  0  0  0  0
   -1.6039    1.6940    0.0893 H   0  0  0  0  0  0  0  0  0  0  0  0
   -0.4632   -1.8618   -0.8534 H   0  0  0  0  0  0  0  0  0  0  0  0
   -2.0405   -0.3818   -2.1697 H   0  0  0  0  0  0  0  0  0  0  0  0
    1.4570   -1.4380    1.4911 H   0  0  0  0  0  0  0  0  0  0  0  0
    0.7459   -0.3823   -0.0455 H   0  0  0  0  0  0  0  0  0  0  0  0
    3.9737    1.2233   -0.4007 H   0  0  0  0  0  0  0  0  0  0  0  0
  1  3  1  0
  1 18  1  0
  2  7  1  0
  2  4  1  0
  2 15  1  0
  3  8  2  3
  5  6  1  0
  5  7  1  0
  5  9  1  0
  5 10  1  0
  6 11  1  0
  6 12  1  0
  6 13  1  0
  7 14  1  0
  8 16  1  0
  8 17  1  0
M  CHG  2   4  -1   7   1
M  RAD  1   4   2
M  END
>  <reaction>  (24) 
rmg_rxn_15458

>  <mol_properties>  (24) 
{"1": {"label": "*4", "atom_type": "N3d"}, "2": {"label": "*3", "atom_type": "Cd"}, "6": {"label": "*0", "atom_type": "N3s"}, "7": {"label": "*1", "atom_type": "Cs"}, "11": {"label": "*2", "atom_type": "H0"}}

>  <type>  (24) 
unop_20

>  <geom_source>  (24) 
AutoTST

$$$$

     RDKit          3D

 18 16  0  0  0  0  0  0  0  0999 V2000
   -1.5754   -1.3357    2.9782 O   0  0  0  0  0  0  0  0  0  0  0  0
   -0.9203   -1.2040    1.7697 N   0  0  0  0  0  0  0  0  0  0  0  0
   -0.7198    0.0060    1.4709 C   0  0  0  0  0  0  0  0  0  0  0  0
   -1.6620   -2.2854    3.0814 H   0  0  0  0  0  0  0  0  0  0  0  0
   -1.0366    0.8281    2.1091 H   0  0  0  0  0  0  0  0  0  0  0  0
    1.0914   -0.7189   -2.4636 N   0  0  0  0  0  1  0  0  0  0  0  0
    1.0914   -0.7189   -1.2640 N   0  0  0  0  0  0  0  0  0  0  0  0
    1.0914    0.4755   -0.3502 C   0  0  0  0  0  3  0  0  0  0  0  0
    0.8347    1.7732   -1.0828 C   0  0  0  0  0  0  0  0  0  0  0  0
   -0.6086    1.9359   -1.5423 C   0  0  0  0  0  0  0  0  0  0  0  0
    1.1107   -1.6028   -0.7089 H   0  0  0  0  0  0  0  0  0  0  0  0
    0.1808    0.2394    0.5654 H   0  0  0  0  0  0  0  0  0  0  0  0
    2.0668    0.4743    0.1435 H   0  0  0  0  0  0  0  0  0  0  0  0
    1.1082    2.5905   -0.4114 H   0  0  0  0  0  0  0  0  0  0  0  0
    1.5043    1.8224   -1.9433 H   0  0  0  0  0  0  0  0  0  0  0  0
   -1.2983    1.8908   -0.6957 H   0  0  0  0  0  0  0  0  0  0  0  0
   -0.8807    1.1539   -2.2512 H   0  0  0  0  0  0  0  0  0  0  0  0
   -0.7505    2.8976   -2.0365 H   0  0  0  0  0  0  0  0  0  0  0  0
  1  2  1  0
  1  4  1  0
  2  3  2  3
  3  5  1  0
  3 12  1  0
  6  7  1  0
  7  8  1  0
  7 11  1  0
  8  9  1  0
  8 13  1  0
  9 10  1  0
  9 14  1  0
  9 15  1  0
 10 16  1  0
 10 17  1  0
 10 18  1  0
M  CHG  2   6  -1   8   1
M  RAD  1   6   2
M  END
>  <reaction>  (25) 
rmg_rxn_15458

>  <mol_properties>  (25) 
{"1": {"label": "*4", "atom_type": "N3d"}, "2": {"label": "*3", "atom_type": "Cd"}, "6": {"label": "*0", "atom_type": "N3s"}, "7": {"label": "*1", "atom_type": "Cs"}, "11": {"label": "*2", "atom_type": "H0"}}

>  <type>  (25) 
unop_21

>  <geom_source>  (25) 
gaussian_log

$$$$
