
     RDKit          3D

 12 11  0  0  0  0  0  0  0  0999 V2000
    1.8075    0.1979    0.4695 C   0  0  0  0  0  0  0  0  0  0  0  0
    1.0072   -0.8859   -0.7259 S   0  0  0  0  0  0  0  0  0  0  0  0
   -0.7258   -0.6904   -0.2447 C   0  0  0  0  0  0  0  0  0  0  0  0
   -1.0856   -1.2776    1.1108 C   0  0  0  0  0  0  0  0  0  0  0  0
    1.7126   -0.1777    1.4878 H   0  0  0  0  0  0  0  0  0  0  0  0
    1.4024    1.2089    0.4095 H   0  0  0  0  0  0  0  0  0  0  0  0
    2.8647    0.2298    0.2095 H   0  0  0  0  0  0  0  0  0  0  0  0
   -1.2866   -1.1892   -1.0369 H   0  0  0  0  0  0  0  0  0  0  0  0
   -0.9814    0.3707   -0.2917 H   0  0  0  0  0  0  0  0  0  0  0  0
   -0.5492   -0.7768    1.9180 H   0  0  0  0  0  0  0  0  0  0  0  0
   -0.8418   -2.3397    1.1503 H   0  0  0  0  0  0  0  0  0  0  0  0
   -2.1545   -1.1604    1.3035 H   0  0  0  0  0  0  0  0  0  0  0  0
  1  2  1  0
  1  5  1  0
  1  6  1  0
  1  7  1  0
  2  3  1  0
  3  4  1  0
  3  8  1  0
  3  9  1  0
  4 10  1  0
  4 11  1  0
  4 12  1  0
M  END
>  <reaction>  (1) 
rmg_rxn_522

>  <mol_properties>  (1) 
{"0": {"label": "donator", "atom_type": "Cs"}, "4": {"label": "d_hydrogen", "atom_type": "H0"}}

>  <type>  (1) 
r1h

$$$$

     RDKit          3D

 17 16  0  0  0  0  0  0  0  0999 V2000
   -2.5196    0.7765    0.6863 C   0  0  0  0  0  0  0  0  0  0  0  0
   -1.7832    0.2264   -0.5439 C   0  0  0  0  0  0  0  0  0  0  0  0
   -0.5364   -0.5090   -0.2164 C   0  0  0  0  0  3  0  0  0  0  0  0
   -0.7195   -1.6896    0.4220 O   0  0  0  0  0  0  0  0  0  0  0  0
    0.4618   -2.3470    0.8423 C   0  0  0  0  0  0  0  0  0  0  0  0
    0.0797   -3.6206    1.5573 C   0  0  0  0  0  0  0  0  0  0  0  0
   -1.8902    1.4809    1.2340 H   0  0  0  0  0  0  0  0  0  0  0  0
   -3.4347    1.2951    0.3937 H   0  0  0  0  0  0  0  0  0  0  0  0
   -2.7882   -0.0345    1.3642 H   0  0  0  0  0  0  0  0  0  0  0  0
   -2.4551   -0.4399   -1.0937 H   0  0  0  0  0  0  0  0  0  0  0  0
   -1.5294    1.0480   -1.2176 H   0  0  0  0  0  0  0  0  0  0  0  0
    0.3864    0.0229    0.0104 H   0  0  0  0  0  0  0  0  0  0  0  0
    1.0871   -2.5604   -0.0319 H   0  0  0  0  0  0  0  0  0  0  0  0
    1.0283   -1.6824    1.5065 H   0  0  0  0  0  0  0  0  0  0  0  0
   -0.4799   -4.2803    0.8934 H   0  0  0  0  0  0  0  0  0  0  0  0
    0.9764   -4.1449    1.8908 H   0  0  0  0  0  0  0  0  0  0  0  0
   -0.5383   -3.4025    2.4289 H   0  0  0  0  0  0  0  0  0  0  0  0
  1  2  1  0
  1  7  1  0
  1  8  1  0
  1  9  1  0
  2  3  1  0
  2 10  1  0
  2 11  1  0
  3  4  1  0
  3 12  1  0
  4  5  1  0
  5  6  1  0
  5 13  1  0
  5 14  1  0
  6 15  1  0
  6 16  1  0
  6 17  1  0
M  RAD  1   3   2
M  END
>  <reaction>  (2) 
rmg_rxn_522

>  <mol_properties>  (2) 
{"2": {"label": "acceptor", "atom_type": "Cs"}}

>  <type>  (2) 
r2

$$$$

     RDKit          3D

 18 17  0  0  0  0  0  0  0  0999 V2000
    2.2026   -0.7213   -0.2612 C   0  0  0  0  0  0  0  0  0  0  0  0
    1.5384    0.2638    0.6915 C   0  0  0  0  0  0  0  0  0  0  0  0
    2.2584    1.5946    0.7694 C   0  0  0  0  0  0  0  0  0  0  0  0
    2.2212    2.2185   -0.4893 O   0  0  0  0  0  0  0  0  0  0  0  0
    2.8988    3.4488   -0.5204 C   0  0  0  0  0  0  0  0  0  0  0  0
    2.7981    4.0296   -1.9118 C   0  0  0  0  0  0  0  0  0  0  0  0
    3.2294   -0.9309    0.0486 H   0  0  0  0  0  0  0  0  0  0  0  0
    2.2338   -0.3181   -1.2734 H   0  0  0  0  0  0  0  0  0  0  0  0
    1.6610   -1.6680   -0.2875 H   0  0  0  0  0  0  0  0  0  0  0  0
    1.4990   -0.1566    1.7002 H   0  0  0  0  0  0  0  0  0  0  0  0
    0.5055    0.4455    0.3835 H   0  0  0  0  0  0  0  0  0  0  0  0
    3.3038    1.4410    1.0808 H   0  0  0  0  0  0  0  0  0  0  0  0
    1.7844    2.2410    1.5226 H   0  0  0  0  0  0  0  0  0  0  0  0
    2.4596    4.1376    0.2164 H   0  0  0  0  0  0  0  0  0  0  0  0
    3.9524    3.3035   -0.2397 H   0  0  0  0  0  0  0  0  0  0  0  0
    1.7543    4.1869   -2.1856 H   0  0  0  0  0  0  0  0  0  0  0  0
    3.2472    3.3545   -2.6411 H   0  0  0  0  0  0  0  0  0  0  0  0
    3.3178    4.9878   -1.9600 H   0  0  0  0  0  0  0  0  0  0  0  0
  1  2  1  0
  1  7  1  0
  1  8  1  0
  1  9  1  0
  2  3  1  0
  2 10  1  0
  2 11  1  0
  3  4  1  0
  3 12  1  0
  3 13  1  0
  4  5  1  0
  5  6  1  0
  5 14  1  0
  5 15  1  0
  6 16  1  0
  6 17  1  0
  6 18  1  0
M  END
>  <reaction>  (3) 
rmg_rxn_522

>  <mol_properties>  (3) 
{"0": {"label": "a_hydrogen", "atom_type": "H0"}, "3": {"label": "acceptor", "atom_type": "Cs"}}

>  <type>  (3) 
r2h

$$$$

     RDKit          3D

 29 27  0  0  0  0  0  0  0  0999 V2000
   -0.0387    0.8162    1.7444 C   0  0  0  0  0  3  0  0  0  0  0  0
   -1.4265   -0.2109    2.1012 S   0  0  0  0  0  0  0  0  0  0  0  0
   -0.8096   -1.8337    1.5900 C   0  0  0  0  0  0  0  0  0  0  0  0
   -0.8539   -2.0875    0.0919 C   0  0  0  0  0  0  0  0  0  0  0  0
    0.2311    1.0268    0.4143 H   0  0  0  0  0  0  0  0  0  0  0  0
    0.8987    0.4382    2.1543 H   0  0  0  0  0  0  0  0  0  0  0  0
   -0.2409    1.8283    2.0909 H   0  0  0  0  0  0  0  0  0  0  0  0
   -1.4354   -2.5530    2.1207 H   0  0  0  0  0  0  0  0  0  0  0  0
    0.2045   -1.9430    1.9813 H   0  0  0  0  0  0  0  0  0  0  0  0
   -0.2690   -1.3513   -0.4588 H   0  0  0  0  0  0  0  0  0  0  0  0
   -1.8786   -2.0386   -0.2782 H   0  0  0  0  0  0  0  0  0  0  0  0
   -0.4563   -3.0805   -0.1337 H   0  0  0  0  0  0  0  0  0  0  0  0
   -1.7441    1.0600   -1.6754 C   0  0  0  0  0  0  0  0  0  0  0  0
   -0.5722    2.0198   -1.5027 C   0  0  0  0  0  0  0  0  0  0  0  0
    0.6210    1.4004   -0.8298 C   0  0  0  0  0  0  0  0  0  0  0  0
    1.0827    0.2933   -1.5150 O   0  0  0  0  0  0  0  0  0  0  0  0
    2.2448   -0.2872   -0.9642 C   0  0  0  0  0  0  0  0  0  0  0  0
    2.6417   -1.4743   -1.8087 C   0  0  0  0  0  0  0  0  0  0  0  0
   -2.0865    0.6859   -0.7088 H   0  0  0  0  0  0  0  0  0  0  0  0
   -2.5815    1.5586   -2.1653 H   0  0  0  0  0  0  0  0  0  0  0  0
   -1.4555    0.2029   -2.2845 H   0  0  0  0  0  0  0  0  0  0  0  0
   -0.2670    2.4138   -2.4792 H   0  0  0  0  0  0  0  0  0  0  0  0
   -0.8778    2.8804   -0.9014 H   0  0  0  0  0  0  0  0  0  0  0  0
    1.4265    2.1147   -0.6120 H   0  0  0  0  0  0  0  0  0  0  0  0
    3.0495    0.4597   -0.9331 H   0  0  0  0  0  0  0  0  0  0  0  0
    2.0448   -0.5981    0.0695 H   0  0  0  0  0  0  0  0  0  0  0  0
    2.8406   -1.1656   -2.8354 H   0  0  0  0  0  0  0  0  0  0  0  0
    3.5424   -1.9388   -1.4048 H   0  0  0  0  0  0  0  0  0  0  0  0
    1.8435   -2.2175   -1.8202 H   0  0  0  0  0  0  0  0  0  0  0  0
  1  2  1  0
  1  6  1  0
  1  7  1  0
  2  3  1  0
  3  4  1  0
  3  8  1  0
  3  9  1  0
  4 10  1  0
  4 11  1  0
  4 12  1  0
  5 15  1  0
 13 14  1  0
 13 19  1  0
 13 20  1  0
 13 21  1  0
 14 15  1  0
 14 22  1  0
 14 23  1  0
 15 16  1  0
 15 24  1  0
 16 17  1  0
 17 18  1  0
 17 25  1  0
 17 26  1  0
 18 27  1  0
 18 28  1  0
 18 29  1  0
M  RAD  1   1   2
M  END
>  <reaction>  (4) 
rmg_rxn_522

>  <mol_properties>  (4) 
{"0": {"label": "*3", "atom_type": "Cs"}, "1": {"label": "*4", "atom_type": "S2s"}, "4": {"label": "*2", "atom_type": "H0"}, "14": {"label": "*1", "atom_type": "Cs"}, "15": {"label": "*0", "atom_type": "O2s"}}

>  <type>  (4) 
ts

$$$$

     RDKit          3D

 29 26  0  0  0  0  0  0  0  0999 V2000
    0.7994    0.4455    1.9820 C   0  0  0  0  0  0  0  0  0  0  0  0
   -0.8437   -0.1334    2.4398 S   0  0  0  0  0  0  0  0  0  0  0  0
   -0.8437   -1.7735    1.6762 C   0  0  0  0  0  3  0  0  0  0  0  0
   -0.8437   -1.7735    0.1558 C   0  0  0  0  0  3  0  0  0  0  0  0
    0.9142    0.6212    0.6916 H   0  0  0  0  0  0  0  0  0  0  0  0
    1.5664   -0.2476    2.3301 H   0  0  0  0  0  0  0  0  0  0  0  0
    0.9459    1.4049    2.4764 H   0  0  0  0  0  0  0  0  0  0  0  0
   -1.7477   -2.2515    2.0571 H   0  0  0  0  0  0  0  0  0  0  0  0
    0.0055   -2.3383    2.0674 H   0  0  0  0  0  0  0  0  0  0  0  0
    0.0633   -1.3173   -0.2435 H   0  0  0  0  0  0  0  0  0  0  0  0
   -1.6997   -1.2203   -0.2319 H   0  0  0  0  0  0  0  0  0  0  0  0
   -0.8921   -2.7967   -0.2237 H   0  0  0  0  0  0  0  0  0  0  0  0
    0.1578    3.0874   -1.2681 C   0  0  0  0  0  0  0  0  0  0  0  0
    1.3746    2.2435   -0.9124 C   0  0  0  0  0  0  0  0  0  0  0  0
    1.0304    0.7988   -0.6131 C   0  0  0  0  0  3  0  0  0  0  0  0
    0.4917    0.2001   -1.7648 O   0  0  0  0  0  0  0  0  0  0  0  0
    0.1087   -1.1373   -1.5692 C   0  0  0  0  0  0  0  0  0  0  0  0
   -0.4547   -1.6807   -2.8618 C   0  0  0  0  0  0  0  0  0  0  0  0
   -0.5648    3.0941   -0.4482 H   0  0  0  0  0  0  0  0  0  0  0  0
    0.4426    4.1208   -1.4716 H   0  0  0  0  0  0  0  0  0  0  0  0
   -0.3420    2.6911   -2.1519 H   0  0  0  0  0  0  0  0  0  0  0  0
    2.0987    2.2654   -1.7309 H   0  0  0  0  0  0  0  0  0  0  0  0
    1.8766    2.6584   -0.0340 H   0  0  0  0  0  0  0  0  0  0  0  0
    1.9286    0.2516   -0.2912 H   0  0  0  0  0  0  0  0  0  0  0  0
    0.9761   -1.7327   -1.2475 H   0  0  0  0  0  0  0  0  0  0  0  0
   -0.6413   -1.1987   -0.7669 H   0  0  0  0  0  0  0  0  0  0  0  0
    0.2929   -1.6329   -3.6544 H   0  0  0  0  0  0  0  0  0  0  0  0
   -0.7590   -2.7207   -2.7339 H   0  0  0  0  0  0  0  0  0  0  0  0
   -1.3241   -1.1007   -3.1734 H   0  0  0  0  0  0  0  0  0  0  0  0
  1  2  1  0
  1  5  1  0
  1  6  1  0
  1  7  1  0
  2  3  1  0
  3  8  1  0
  3  9  1  0
  4 10  1  0
  4 11  1  0
  4 12  1  0
 13 14  1  0
 13 19  1  0
 13 20  1  0
 13 21  1  0
 14 15  1  0
 14 22  1  0
 14 23  1  0
 15 16  1  0
 15 24  1  0
 16 17  1  0
 17 18  1  0
 17 25  1  0
 17 26  1  0
 18 27  1  0
 18 28  1  0
 18 29  1  0
M  RAD  3   3   2   4   2  15   2
M  END
>  <reaction>  (5) 
rmg_rxn_522

>  <mol_properties>  (5) 
{"0": {"label": "*3", "atom_type": "Cs"}, "1": {"label": "*4", "atom_type": "S2s"}, "4": {"label": "*2", "atom_type": "H0"}, "14": {"label": "*1", "atom_type": "Cs"}, "15": {"label": "*0", "atom_type": "O2s"}}

>  <type>  (5) 
unop_1

>  <geom_source>  (5) 
Heuristics

$$$$

     RDKit          3D

 29 27  0  0  0  0  0  0  0  0999 V2000
    0.3540    0.7777    1.8517 C   0  0  0  0  0  0  0  0  0  0  0  0
   -1.2891    0.1989    2.3095 S   0  0  0  0  0  0  0  0  0  0  0  0
   -1.2891   -1.4412    1.5458 C   0  0  0  0  0  0  0  0  0  0  0  0
   -1.2891   -1.4412    0.0254 C   0  0  0  0  0  0  0  0  0  0  0  0
    0.4688    0.9534    0.5613 H   0  0  0  0  0  0  0  0  0  0  0  0
    1.1210    0.0847    2.1998 H   0  0  0  0  0  0  0  0  0  0  0  0
    0.5004    1.7371    2.3460 H   0  0  0  0  0  0  0  0  0  0  0  0
   -2.1932   -1.9192    1.9267 H   0  0  0  0  0  0  0  0  0  0  0  0
   -0.4399   -2.0061    1.9371 H   0  0  0  0  0  0  0  0  0  0  0  0
   -0.3821   -0.9851   -0.3739 H   0  0  0  0  0  0  0  0  0  0  0  0
   -2.1451   -0.8880   -0.3623 H   0  0  0  0  0  0  0  0  0  0  0  0
   -1.3376   -2.4645   -0.3541 H   0  0  0  0  0  0  0  0  0  0  0  0
   -1.7138    0.3374   -1.4607 C   0  0  0  0  0  0  0  0  0  0  0  0
   -0.7552    1.5143   -1.3372 C   0  0  0  0  0  0  0  0  0  0  0  0
    0.5849    1.1310   -0.7435 C   0  0  0  0  0  3  0  0  0  0  0  0
    1.2294    0.2201   -1.5978 O   0  0  0  0  0  0  0  0  0  0  0  0
    2.4702   -0.2198   -1.1076 C   0  0  0  0  0  0  0  0  0  0  0  0
    3.0728   -1.1902   -2.0969 C   0  0  0  0  0  0  0  0  0  0  0  0
   -1.9129   -0.1073   -0.4825 H   0  0  0  0  0  0  0  0  0  0  0  0
   -2.6682    0.6513   -1.8860 H   0  0  0  0  0  0  0  0  0  0  0  0
   -1.2932   -0.4374   -2.1016 H   0  0  0  0  0  0  0  0  0  0  0  0
   -0.5842    1.9637   -2.3188 H   0  0  0  0  0  0  0  0  0  0  0  0
   -1.1931    2.2915   -0.7047 H   0  0  0  0  0  0  0  0  0  0  0  0
    1.2112    2.0249   -0.6071 H   0  0  0  0  0  0  0  0  0  0  0  0
    3.1397    0.6398   -0.9557 H   0  0  0  0  0  0  0  0  0  0  0  0
    2.3364   -0.7026   -0.1283 H   0  0  0  0  0  0  0  0  0  0  0  0
    3.2187   -0.7084   -3.0643 H   0  0  0  0  0  0  0  0  0  0  0  0
    4.0396   -1.5457   -1.7369 H   0  0  0  0  0  0  0  0  0  0  0  0
    2.4170   -2.0504   -2.2364 H   0  0  0  0  0  0  0  0  0  0  0  0
  1  2  1  0
  1  5  1  0
  1  6  1  0
  1  7  1  0
  2  3  1  0
  3  4  1  0
  3  8  1  0
  3  9  1  0
  4 10  1  0
  4 11  1  0
  4 12  1  0
 13 14  1  0
 13 19  1  0
 13 20  1  0
 13 21  1  0
 14 15  1  0
 14 22  1  0
 14 23  1  0
 15 16  1  0
 15 24  1  0
 16 17  1  0
 17 18  1  0
 17 25  1  0
 17 26  1  0
 18 27  1  0
 18 28  1  0
 18 29  1  0
M  RAD  1  15   2
M  END
>  <reaction>  (6) 
rmg_rxn_522

>  <mol_properties>  (6) 
{"0": {"label": "*3", "atom_type": "Cs"}, "1": {"label": "*4", "atom_type": "S2s"}, "4": {"label": "*2", "atom_type": "H0"}, "14": {"label": "*1", "atom_type": "Cs"}, "15": {"label": "*0", "atom_type": "O2s"}}

>  <type>  (6) 
unop_2

>  <geom_source>  (6) 
Heuristics

$$$$

     RDKit          3D

 29 27  0  0  0  0  0  0  0  0999 V2000
    0.9014    0.1758    1.8894 C   0  0  0  0  0  0  0  0  0  0  0  0
   -0.7417   -0.4030    2.3472 S   0  0  0  0  0  0  0  0  0  0  0  0
   -0.7417   -2.0431    1.5836 C   0  0  0  0  0  0  0  0  0  0  0  0
   -0.7417   -2.0431    0.0632 C   0  0  0  0  0  0  0  0  0  0  0  0
    1.0163    0.3515    0.5990 H   0  0  0  0  0  0  0  0  0  0  0  0
    1.6684   -0.5172    2.2375 H   0  0  0  0  0  0  0  0  0  0  0  0
    1.0479    1.1352    2.3838 H   0  0  0  0  0  0  0  0  0  0  0  0
   -1.6457   -2.5211    1.9645 H   0  0  0  0  0  0  0  0  0  0  0  0
    0.1076   -2.6080    1.9748 H   0  0  0  0  0  0  0  0  0  0  0  0
    0.1653   -1.5869   -0.3361 H   0  0  0  0  0  0  0  0  0  0  0  0
   -1.5976   -1.4899   -0.3245 H   0  0  0  0  0  0  0  0  0  0  0  0
   -0.7901   -3.0664   -0.3163 H   0  0  0  0  0  0  0  0  0  0  0  0
    1.5085    3.0231   -0.9642 C   0  0  0  0  0  0  0  0  0  0  0  0
    2.1295    1.6329   -0.9933 C   0  0  0  0  0  0  0  0  0  0  0  0
    1.1324    0.5291   -0.7057 C   0  0  0  0  0  3  0  0  0  0  0  0
    0.1509    0.5145   -1.7114 O   0  0  0  0  0  0  0  0  0  0  0  0
   -0.8406   -0.4595   -1.5068 C   0  0  0  0  0  0  0  0  0  0  0  0
   -1.8397   -0.3882   -2.6382 C   0  0  0  0  0  0  0  0  0  0  0  0
    1.0714    3.2342    0.0150 H   0  0  0  0  0  0  0  0  0  0  0  0
    2.2554    3.7913   -1.1698 H   0  0  0  0  0  0  0  0  0  0  0  0
    0.7176    3.1084   -1.7093 H   0  0  0  0  0  0  0  0  0  0  0  0
    2.5833    1.4450   -1.9698 H   0  0  0  0  0  0  0  0  0  0  0  0
    2.9310    1.5632   -0.2528 H   0  0  0  0  0  0  0  0  0  0  0  0
    1.6426   -0.4445   -0.6653 H   0  0  0  0  0  0  0  0  0  0  0  0
   -0.3816   -1.4583   -1.4615 H   0  0  0  0  0  0  0  0  0  0  0  0
   -1.3399   -0.2888   -0.5416 H   0  0  0  0  0  0  0  0  0  0  0  0
   -1.3480   -0.5710   -3.5943 H   0  0  0  0  0  0  0  0  0  0  0  0
   -2.6207   -1.1377   -2.5007 H   0  0  0  0  0  0  0  0  0  0  0  0
   -2.3067    0.5967   -2.6742 H   0  0  0  0  0  0  0  0  0  0  0  0
  1  2  1  0
  1  5  1  0
  1  6  1  0
  1  7  1  0
  2  3  1  0
  3  4  1  0
  3  8  1  0
  3  9  1  0
  4 10  1  0
  4 11  1  0
  4 12  1  0
 13 14  1  0
 13 19  1  0
 13 20  1  0
 13 21  1  0
 14 15  1  0
 14 22  1  0
 14 23  1  0
 15 16  1  0
 15 24  1  0
 16 17  1  0
 17 18  1  0
 17 25  1  0
 17 26  1  0
 18 27  1  0
 18 28  1  0
 18 29  1  0
M  RAD  1  15   2
M  END
>  <reaction>  (7) 
rmg_rxn_522

>  <mol_properties>  (7) 
{"0": {"label": "*3", "atom_type": "Cs"}, "1": {"label": "*4", "atom_type": "S2s"}, "4": {"label": "*2", "atom_type": "H0"}, "14": {"label": "*1", "atom_type": "Cs"}, "15": {"label": "*0", "atom_type": "O2s"}}

>  <type>  (7) 
unop_3

>  <geom_source>  (7) 
Heuristics

$$$$

     RDKit          3D

 29 26  0  0  0  0  0  0  0  0999 V2000
   -0.0678    0.4271    1.3117 C   0  0  0  0  0  0  0  0  0  0  0  0
   -1.7109   -0.1518    1.7695 S   0  0  0  0  0  0  0  0  0  0  0  0
   -1.7109   -1.7919    1.0059 C   0  0  0  0  0  3  0  0  0  0  0  0
   -1.7109   -1.7919   -0.5145 C   0  0  0  0  0  3  0  0  0  0  0  0
    0.0470    0.6027    0.0213 H   0  0  0  0  0  0  0  0  0  0  0  0
    0.6992   -0.2660    1.6598 H   0  0  0  0  0  0  0  0  0  0  0  0
    0.0786    1.3865    1.8061 H   0  0  0  0  0  0  0  0  0  0  0  0
   -2.6150   -2.2699    1.3868 H   0  0  0  0  0  0  0  0  0  0  0  0
   -0.8617   -2.3568    1.3971 H   0  0  0  0  0  0  0  0  0  0  0  0
   -0.8039   -1.3357   -0.9138 H   0  0  0  0  0  0  0  0  0  0  0  0
   -2.5669   -1.2387   -0.9022 H   0  0  0  0  0  0  0  0  0  0  0  0
   -1.7594   -2.8151   -0.8940 H   0  0  0  0  0  0  0  0  0  0  0  0
    0.2173   -1.7516   -1.1619 C   0  0  0  0  0  0  0  0  0  0  0  0
   -0.0898   -0.5247   -2.0102 C   0  0  0  0  0  0  0  0  0  0  0  0
    0.1631    0.7804   -1.2834 C   0  0  0  0  0  3  0  0  0  0  0  0
    1.5295    0.8821   -0.9709 O   0  0  0  0  0  0  0  0  0  0  0  0
    1.8520    2.0507   -0.2609 C   0  0  0  0  0  0  0  0  0  0  0  0
    3.3363    2.0588    0.0228 C   0  0  0  0  0  0  0  0  0  0  0  0
   -0.3975   -1.7643   -0.2584 H   0  0  0  0  0  0  0  0  0  0  0  0
    0.0188   -2.6709   -1.7147 H   0  0  0  0  0  0  0  0  0  0  0  0
    1.2633   -1.7571   -0.8553 H   0  0  0  0  0  0  0  0  0  0  0  0
    0.5144   -0.5375   -2.9211 H   0  0  0  0  0  0  0  0  0  0  0  0
   -1.1371   -0.5370   -2.3244 H   0  0  0  0  0  0  0  0  0  0  0  0
   -0.1428    1.6311   -1.9099 H   0  0  0  0  0  0  0  0  0  0  0  0
    1.5680    2.9367   -0.8479 H   0  0  0  0  0  0  0  0  0  0  0  0
    1.2808    2.0881    0.6784 H   0  0  0  0  0  0  0  0  0  0  0  0
    3.9035    2.0356   -0.9083 H   0  0  0  0  0  0  0  0  0  0  0  0
    3.6109    2.9594    0.5742 H   0  0  0  0  0  0  0  0  0  0  0  0
    3.6163    1.1889    0.6180 H   0  0  0  0  0  0  0  0  0  0  0  0
  1  2  1  0
  1  5  1  0
  1  6  1  0
  1  7  1  0
  2  3  1  0
  3  8  1  0
  3  9  1  0
  4 10  1  0
  4 11  1  0
  4 12  1  0
 13 14  1  0
 13 19  1  0
 13 20  1  0
 13 21  1  0
 14 15  1  0
 14 22  1  0
 14 23  1  0
 15 16  1  0
 15 24  1  0
 16 17  1  0
 17 18  1  0
 17 25  1  0
 17 26  1  0
 18 27  1  0
 18 28  1  0
 18 29  1  0
M  RAD  3   3   2   4   2  15   2
M  END
>  <reaction>  (8) 
rmg_rxn_522

>  <mol_properties>  (8) 
{"0": {"label": "*3", "atom_type": "Cs"}, "1": {"label": "*4", "atom_type": "S2s"}, "4": {"label": "*2", "atom_type": "H0"}, "14": {"label": "*1", "atom_type": "Cs"}, "15": {"label": "*0", "atom_type": "O2s"}}

>  <type>  (8) 
unop_4

>  <geom_source>  (8) 
Heuristics

$$$$

     RDKit          3D

 29 27  0  0  0  0  0  0  0  0999 V2000
    0.7849   -0.1743    1.6072 C   0  0  0  0  0  0  0  0  0  0  0  0
   -0.8582   -0.7532    2.0650 S   0  0  0  0  0  0  0  0  0  0  0  0
   -0.8582   -2.3933    1.3014 C   0  0  0  0  0  0  0  0  0  0  0  0
   -0.8582   -2.3933   -0.2190 C   0  0  0  0  0  0  0  0  0  0  0  0
    0.8997    0.0013    0.3168 H   0  0  0  0  0  0  0  0  0  0  0  0
    1.5519   -0.8674    1.9553 H   0  0  0  0  0  0  0  0  0  0  0  0
    0.9314    0.7850    2.1016 H   0  0  0  0  0  0  0  0  0  0  0  0
   -1.7623   -2.8713    1.6823 H   0  0  0  0  0  0  0  0  0  0  0  0
   -0.0090   -2.9582    1.6926 H   0  0  0  0  0  0  0  0  0  0  0  0
    0.0488   -1.9371   -0.6183 H   0  0  0  0  0  0  0  0  0  0  0  0
   -1.7142   -1.8401   -0.6067 H   0  0  0  0  0  0  0  0  0  0  0  0
   -0.9067   -3.4165   -0.5985 H   0  0  0  0  0  0  0  0  0  0  0  0
    2.7829    1.9575   -0.6103 C   0  0  0  0  0  0  0  0  0  0  0  0
    2.4109    0.6648   -1.3242 C   0  0  0  0  0  0  0  0  0  0  0  0
    1.0158    0.1789   -0.9879 C   0  0  0  0  0  3  0  0  0  0  0  0
    0.0746    1.1255   -1.4272 O   0  0  0  0  0  0  0  0  0  0  0  0
   -1.2513    0.7733   -1.1244 C   0  0  0  0  0  0  0  0  0  0  0  0
   -2.1754    1.8534   -1.6370 C   0  0  0  0  0  0  0  0  0  0  0  0
    2.7417    1.8294    0.4742 H   0  0  0  0  0  0  0  0  0  0  0  0
    3.7938    2.2735   -0.8718 H   0  0  0  0  0  0  0  0  0  0  0  0
    2.0948    2.7589   -0.8794 H   0  0  0  0  0  0  0  0  0  0  0  0
    2.4796    0.8006   -2.4066 H   0  0  0  0  0  0  0  0  0  0  0  0
    3.1160   -0.1279   -1.0590 H   0  0  0  0  0  0  0  0  0  0  0  0
    0.8240   -0.7917   -1.4683 H   0  0  0  0  0  0  0  0  0  0  0  0
   -1.4973   -0.1944   -1.5864 H   0  0  0  0  0  0  0  0  0  0  0  0
   -1.3677    0.6516   -0.0373 H   0  0  0  0  0  0  0  0  0  0  0  0
   -2.0707    1.9652   -2.7167 H   0  0  0  0  0  0  0  0  0  0  0  0
   -3.2131    1.6007   -1.4132 H   0  0  0  0  0  0  0  0  0  0  0  0
   -1.9425    2.8100   -1.1679 H   0  0  0  0  0  0  0  0  0  0  0  0
  1  2  1  0
  1  5  1  0
  1  6  1  0
  1  7  1  0
  2  3  1  0
  3  4  1  0
  3  8  1  0
  3  9  1  0
  4 10  1  0
  4 11  1  0
  4 12  1  0
 13 14  1  0
 13 19  1  0
 13 20  1  0
 13 21  1  0
 14 15  1  0
 14 22  1  0
 14 23  1  0
 15 16  1  0
 15 24  1  0
 16 17  1  0
 17 18  1  0
 17 25  1  0
 17 26  1  0
 18 27  1  0
 18 28  1  0
 18 29  1  0
M  RAD  1  15   2
M  END
>  <reaction>  (9) 
rmg_rxn_522

>  <mol_properties>  (9) 
{"0": {"label": "*3", "atom_type": "Cs"}, "1": {"label": "*4", "atom_type": "S2s"}, "4": {"label": "*2", "atom_type": "H0"}, "14": {"label": "*1", "atom_type": "Cs"}, "15": {"label": "*0", "atom_type": "O2s"}}

>  <type>  (9) 
unop_5

>  <geom_source>  (9) 
Heuristics

$$$$

     RDKit          3D

 29 27  0  0  0  0  0  0  0  0999 V2000
   -0.0129    0.1733    1.2134 C   0  0  0  0  0  0  0  0  0  0  0  0
   -1.6561   -0.4055    1.6712 S   0  0  0  0  0  0  0  0  0  0  0  0
   -1.6561   -2.0456    0.9076 C   0  0  0  0  0  0  0  0  0  0  0  0
   -1.6561   -2.0456   -0.6128 C   0  0  0  0  0  0  0  0  0  0  0  0
    0.1019    0.3490   -0.0770 H   0  0  0  0  0  0  0  0  0  0  0  0
    0.7541   -0.5197    1.5615 H   0  0  0  0  0  0  0  0  0  0  0  0
    0.1335    1.1327    1.7078 H   0  0  0  0  0  0  0  0  0  0  0  0
   -2.5601   -2.5236    1.2885 H   0  0  0  0  0  0  0  0  0  0  0  0
   -0.8068   -2.6105    1.2988 H   0  0  0  0  0  0  0  0  0  0  0  0
   -0.7491   -1.5894   -1.0121 H   0  0  0  0  0  0  0  0  0  0  0  0
   -2.5120   -1.4924   -1.0005 H   0  0  0  0  0  0  0  0  0  0  0  0
   -1.7045   -3.0689   -0.9923 H   0  0  0  0  0  0  0  0  0  0  0  0
    1.3452   -1.7216   -1.0607 C   0  0  0  0  0  0  0  0  0  0  0  0
    0.6980   -0.7509   -2.0395 C   0  0  0  0  0  0  0  0  0  0  0  0
    0.2180    0.5266   -1.3817 C   0  0  0  0  0  3  0  0  0  0  0  0
    1.3195    1.2195   -0.8511 O   0  0  0  0  0  0  0  0  0  0  0  0
    0.9634    2.4055   -0.1876 C   0  0  0  0  0  0  0  0  0  0  0  0
    2.2149    3.0665    0.3418 C   0  0  0  0  0  0  0  0  0  0  0  0
    0.6417   -2.0108   -0.2760 H   0  0  0  0  0  0  0  0  0  0  0  0
    1.6730   -2.6304   -1.5677 H   0  0  0  0  0  0  0  0  0  0  0  0
    2.2123   -1.2665   -0.5821 H   0  0  0  0  0  0  0  0  0  0  0  0
    1.4047   -0.4894   -2.8314 H   0  0  0  0  0  0  0  0  0  0  0  0
   -0.1611   -1.2226   -2.5246 H   0  0  0  0  0  0  0  0  0  0  0  0
   -0.3056    1.1589   -2.1137 H   0  0  0  0  0  0  0  0  0  0  0  0
    0.4364    3.0788   -0.8798 H   0  0  0  0  0  0  0  0  0  0  0  0
    0.2697    2.1804    0.6358 H   0  0  0  0  0  0  0  0  0  0  0  0
    2.8973    3.3026   -0.4754 H   0  0  0  0  0  0  0  0  0  0  0  0
    1.9626    3.9921    0.8617 H   0  0  0  0  0  0  0  0  0  0  0  0
    2.7299    2.4058    1.0401 H   0  0  0  0  0  0  0  0  0  0  0  0
  1  2  1  0
  1  5  1  0
  1  6  1  0
  1  7  1  0
  2  3  1  0
  3  4  1  0
  3  8  1  0
  3  9  1  0
  4 10  1  0
  4 11  1  0
  4 12  1  0
 13 14  1  0
 13 19  1  0
 13 20  1  0
 13 21  1  0
 14 15  1  0
 14 22  1  0
 14 23  1  0
 15 16  1  0
 15 24  1  0
 16 17  1  0
 17 18  1  0
 17 25  1  0
 17 26  1  0
 18 27  1  0
 18 28  1  0
 18 29  1  0
M  RAD  1  15   2
M  END
>  <reaction>  (10) 
rmg_rxn_522

>  <mol_properties>  (10) 
{"0": {"label": "*3", "atom_type": "Cs"}, "1": {"label": "*4", "atom_type": "S2s"}, "4": {"label": "*2", "atom_type": "H0"}, "14": {"label": "*1", "atom_type": "Cs"}, "15": {"label": "*0", "atom_type": "O2s"}}

>  <type>  (10) 
unop_6

>  <geom_source>  (10) 
Heuristics

$$$$

     RDKit          3D

 29 27  0  0  0  0  0  0  0  0999 V2000
    0.1496   -0.0601    1.1949 C   0  0  0  0  0  0  0  0  0  0  0  0
   -1.4936   -0.6390    1.6527 S   0  0  0  0  0  0  0  0  0  0  0  0
   -1.4936   -2.2791    0.8890 C   0  0  0  0  0  0  0  0  0  0  0  0
   -1.4936   -2.2791   -0.6314 C   0  0  0  0  0  0  0  0  0  0  0  0
    0.2644    0.1155   -0.0955 H   0  0  0  0  0  0  0  0  0  0  0  0
    0.9166   -0.7532    1.5430 H   0  0  0  0  0  0  0  0  0  0  0  0
    0.2960    0.8993    1.6892 H   0  0  0  0  0  0  0  0  0  0  0  0
   -2.3976   -2.7571    1.2699 H   0  0  0  0  0  0  0  0  0  0  0  0
   -0.6443   -2.8440    1.2803 H   0  0  0  0  0  0  0  0  0  0  0  0
   -0.5866   -1.8229   -1.0307 H   0  0  0  0  0  0  0  0  0  0  0  0
   -2.3495   -1.7259   -1.0191 H   0  0  0  0  0  0  0  0  0  0  0  0
   -1.5420   -3.3023   -1.0109 H   0  0  0  0  0  0  0  0  0  0  0  0
    2.4367   -1.0955   -0.8786 C   0  0  0  0  0  0  0  0  0  0  0  0
    1.4770   -0.5959   -1.9503 C   0  0  0  0  0  0  0  0  0  0  0  0
    0.3805    0.2932   -1.4003 C   0  0  0  0  0  3  0  0  0  0  0  0
    0.9532    1.4527   -0.8502 O   0  0  0  0  0  0  0  0  0  0  0  0
    0.0087    2.3235   -0.2818 C   0  0  0  0  0  0  0  0  0  0  0  0
    0.7271    3.5295    0.2776 C   0  0  0  0  0  0  0  0  0  0  0  0
    1.9055   -1.6753   -0.1196 H   0  0  0  0  0  0  0  0  0  0  0  0
    3.2079   -1.7356   -1.3096 H   0  0  0  0  0  0  0  0  0  0  0  0
    2.9269   -0.2597   -0.3794 H   0  0  0  0  0  0  0  0  0  0  0  0
    2.0250   -0.0387   -2.7146 H   0  0  0  0  0  0  0  0  0  0  0  0
    1.0023   -1.4422   -2.4545 H   0  0  0  0  0  0  0  0  0  0  0  0
   -0.3256    0.5658   -2.1984 H   0  0  0  0  0  0  0  0  0  0  0  0
   -0.7237    2.6312   -1.0429 H   0  0  0  0  0  0  0  0  0  0  0  0
   -0.5485    1.8052    0.5125 H   0  0  0  0  0  0  0  0  0  0  0  0
    1.2686    4.0519   -0.5118 H   0  0  0  0  0  0  0  0  0  0  0  0
    0.0121    4.2218    0.7248 H   0  0  0  0  0  0  0  0  0  0  0  0
    1.4423    3.2270    1.0434 H   0  0  0  0  0  0  0  0  0  0  0  0
  1  2  1  0
  1  5  1  0
  1  6  1  0
  1  7  1  0
  2  3  1  0
  3  4  1  0
  3  8  1  0
  3  9  1  0
  4 10  1  0
  4 11  1  0
  4 12  1  0
 13 14  1  0
 13 19  1  0
 13 20  1  0
 13 21  1  0
 14 15  1  0
 14 22  1  0
 14 23  1  0
 15 16  1  0
 15 24  1  0
 16 17  1  0
 17 18  1  0
 17 25  1  0
 17 26  1  0
 18 27  1  0
 18 28  1  0
 18 29  1  0
M  RAD  1  15   2
M  END
>  <reaction>  (11) 
rmg_rxn_522

>  <mol_properties>  (11) 
{"0": {"label": "*3", "atom_type": "Cs"}, "1": {"label": "*4", "atom_type": "S2s"}, "4": {"label": "*2", "atom_type": "H0"}, "14": {"label": "*1", "atom_type": "Cs"}, "15": {"label": "*0", "atom_type": "O2s"}}

>  <type>  (11) 
unop_7

>  <geom_source>  (11) 
Heuristics

$$$$

     RDKit          3D

 29 27  0  0  0  0  0  0  0  0999 V2000
    0.6606    0.5979    1.9897 C   0  0  0  0  0  0  0  0  0  0  0  0
   -0.9825    0.0191    2.4475 S   0  0  0  0  0  0  0  0  0  0  0  0
   -0.9825   -1.6210    1.6839 C   0  0  0  0  0  0  0  0  0  0  0  0
   -0.9825   -1.6210    0.1635 C   0  0  0  0  0  0  0  0  0  0  0  0
    0.7755    0.7736    0.6993 H   0  0  0  0  0  0  0  0  0  0  0  0
    1.4276   -0.0951    2.3378 H   0  0  0  0  0  0  0  0  0  0  0  0
    0.8071    1.5573    2.4841 H   0  0  0  0  0  0  0  0  0  0  0  0
   -1.8865   -2.0990    2.0648 H   0  0  0  0  0  0  0  0  0  0  0  0
   -0.1332   -2.1859    2.0751 H   0  0  0  0  0  0  0  0  0  0  0  0
   -0.0755   -1.1649   -0.2358 H   0  0  0  0  0  0  0  0  0  0  0  0
   -1.8384   -1.0678   -0.2242 H   0  0  0  0  0  0  0  0  0  0  0  0
   -1.0309   -2.6443   -0.2160 H   0  0  0  0  0  0  0  0  0  0  0  0
   -0.9402    2.4902   -1.4446 C   0  0  0  0  0  0  0  0  0  0  0  0
    0.5029    2.3684   -0.9737 C   0  0  0  0  0  0  0  0  0  0  0  0
    0.8916    0.9512   -0.6054 C   0  0  0  0  0  3  0  0  0  0  0  0
    0.8068    0.1339   -1.7455 O   0  0  0  0  0  0  0  0  0  0  0  0
    1.1170   -1.2121   -1.4892 C   0  0  0  0  0  0  0  0  0  0  0  0
    0.9944   -1.9975   -2.7743 C   0  0  0  0  0  0  0  0  0  0  0  0
   -1.6331    2.1606   -0.6665 H   0  0  0  0  0  0  0  0  0  0  0  0
   -1.1856    3.5232   -1.6954 H   0  0  0  0  0  0  0  0  0  0  0  0
   -1.1113    1.8750   -2.3280 H   0  0  0  0  0  0  0  0  0  0  0  0
    1.1830    2.7237   -1.7522 H   0  0  0  0  0  0  0  0  0  0  0  0
    0.6672    3.0007   -0.0967 H   0  0  0  0  0  0  0  0  0  0  0  0
    1.9151    0.9289   -0.2032 H   0  0  0  0  0  0  0  0  0  0  0  0
    2.1375   -1.2916   -1.0859 H   0  0  0  0  0  0  0  0  0  0  0  0
    0.4351   -1.6150   -0.7258 H   0  0  0  0  0  0  0  0  0  0  0  0
    1.6801   -1.6075   -3.5274 H   0  0  0  0  0  0  0  0  0  0  0  0
    1.2318   -3.0480   -2.5995 H   0  0  0  0  0  0  0  0  0  0  0  0
   -0.0210   -1.9321   -3.1667 H   0  0  0  0  0  0  0  0  0  0  0  0
  1  2  1  0
  1  5  1  0
  1  6  1  0
  1  7  1  0
  2  3  1  0
  3  4  1  0
  3  8  1  0
  3  9  1  0
  4 10  1  0
  4 11  1  0
  4 12  1  0
 13 14  1  0
 13 19  1  0
 13 20  1  0
 13 21  1  0
 14 15  1  0
 14 22  1  0
 14 23  1  0
 15 16  1  0
 15 24  1  0
 16 17  1  0
 17 18  1  0
 17 25  1  0
 17 26  1  0
 18 27  1  0
 18 28  1  0
 18 29  1  0
M  RAD  1  15   2
M  END
>  <reaction>  (12) 
rmg_rxn_522

>  <mol_properties>  (12) 
{"0": {"label": "*3", "atom_type": "Cs"}, "1": {"label": "*4", "atom_type": "S2s"}, "4": {"label": "*2", "atom_type": "H0"}, "14": {"label": "*1", "atom_type": "Cs"}, "15": {"label": "*0", "atom_type": "O2s"}}

>  <type>  (12) 
unop_8

>  <geom_source>  (12) 
Heuristics

$$$$

     RDKit          3D

 29 27  0  0  0  0  0  0  0  0999 V2000
    0.5189    0.7014    1.9498 C   0  0  0  0  0  0  0  0  0  0  0  0
   -1.1242    0.1226    2.4076 S   0  0  0  0  0  0  0  0  0  0  0  0
   -1.1242   -1.5176    1.6440 C   0  0  0  0  0  0  0  0  0  0  0  0
   -1.1242   -1.5176    0.1236 C   0  0  0  0  0  0  0  0  0  0  0  0
    0.6337    0.8771    0.6594 H   0  0  0  0  0  0  0  0  0  0  0  0
    1.2859    0.0084    2.2979 H   0  0  0  0  0  0  0  0  0  0  0  0
    0.6653    1.6608    2.4442 H   0  0  0  0  0  0  0  0  0  0  0  0
   -2.0283   -1.9955    2.0249 H   0  0  0  0  0  0  0  0  0  0  0  0
   -0.2750   -2.0824    2.0352 H   0  0  0  0  0  0  0  0  0  0  0  0
   -0.2172   -1.0614   -0.2757 H   0  0  0  0  0  0  0  0  0  0  0  0
   -1.9802   -0.9643   -0.2641 H   0  0  0  0  0  0  0  0  0  0  0  0
   -1.1727   -2.5408   -0.2559 H   0  0  0  0  0  0  0  0  0  0  0  0
   -1.5955    1.4747   -1.5120 C   0  0  0  0  0  0  0  0  0  0  0  0
   -0.2553    2.0834   -1.1213 C   0  0  0  0  0  0  0  0  0  0  0  0
    0.7498    1.0547   -0.6453 C   0  0  0  0  0  3  0  0  0  0  0  0
    1.0412    0.1676   -1.6956 O   0  0  0  0  0  0  0  0  0  0  0  0
    1.9426   -0.8470   -1.3327 C   0  0  0  0  0  0  0  0  0  0  0  0
    2.1842   -1.7396   -2.5279 C   0  0  0  0  0  0  0  0  0  0  0  0
   -2.0484    0.9533   -0.6650 H   0  0  0  0  0  0  0  0  0  0  0  0
   -2.2944    2.2440   -1.8438 H   0  0  0  0  0  0  0  0  0  0  0  0
   -1.4715    0.7549   -2.3210 H   0  0  0  0  0  0  0  0  0  0  0  0
    0.1742    2.6215   -1.9703 H   0  0  0  0  0  0  0  0  0  0  0  0
   -0.3934    2.8145   -0.3199 H   0  0  0  0  0  0  0  0  0  0  0  0
    1.6714    1.5504   -0.3064 H   0  0  0  0  0  0  0  0  0  0  0  0
    2.8880   -0.4029   -0.9872 H   0  0  0  0  0  0  0  0  0  0  0  0
    1.5334   -1.4295   -0.4942 H   0  0  0  0  0  0  0  0  0  0  0  0
    2.6029   -1.1655   -3.3552 H   0  0  0  0  0  0  0  0  0  0  0  0
    2.8833   -2.5365   -2.2695 H   0  0  0  0  0  0  0  0  0  0  0  0
    1.2499   -2.1926   -2.8615 H   0  0  0  0  0  0  0  0  0  0  0  0
  1  2  1  0
  1  5  1  0
  1  6  1  0
  1  7  1  0
  2  3  1  0
  3  4  1  0
  3  8  1  0
  3  9  1  0
  4 10  1  0
  4 11  1  0
  4 12  1  0
 13 14  1  0
 13 19  1  0
 13 20  1  0
 13 21  1  0
 14 15  1  0
 14 22  1  0
 14 23  1  0
 15 16  1  0
 15 24  1  0
 16 17  1  0
 17 18  1  0
 17 25  1  0
 17 26  1  0
 18 27  1  0
 18 28  1  0
 18 29  1  0
M  RAD  1  15   2
M  END
>  <reaction>  (13) 
rmg_rxn_522

>  <mol_properties>  (13) 
{"0": {"label": "*3", "atom_type": "Cs"}, "1": {"label": "*4", "atom_type": "S2s"}, "4": {"label": "*2", "atom_type": "H0"}, "14": {"label": "*1", "atom_type": "Cs"}, "15": {"label": "*0", "atom_type": "O2s"}}

>  <type>  (13) 
unop_9

>  <geom_source>  (13) 
Heuristics

$$$$

     RDKit          3D

 29 27  0  0  0  0  0  0  0  0999 V2000
    0.4285   -0.2323    1.3006 C   0  0  0  0  0  0  0  0  0  0  0  0
   -1.2146   -0.8111    1.7583 S   0  0  0  0  0  0  0  0  0  0  0  0
   -1.2146   -2.4513    0.9947 C   0  0  0  0  0  0  0  0  0  0  0  0
   -1.2146   -2.4513   -0.5257 C   0  0  0  0  0  0  0  0  0  0  0  0
    0.5433   -0.0566    0.0101 H   0  0  0  0  0  0  0  0  0  0  0  0
    1.1955   -0.9253    1.6487 H   0  0  0  0  0  0  0  0  0  0  0  0
    0.5750    0.7271    1.7949 H   0  0  0  0  0  0  0  0  0  0  0  0
   -2.1187   -2.9293    1.3756 H   0  0  0  0  0  0  0  0  0  0  0  0
   -0.3654   -3.0161    1.3860 H   0  0  0  0  0  0  0  0  0  0  0  0
   -0.3076   -1.9951   -0.9250 H   0  0  0  0  0  0  0  0  0  0  0  0
   -2.0706   -1.8981   -0.9134 H   0  0  0  0  0  0  0  0  0  0  0  0
   -1.2631   -3.4745   -0.9052 H   0  0  0  0  0  0  0  0  0  0  0  0
    3.1081    0.2074   -0.6428 C   0  0  0  0  0  0  0  0  0  0  0  0
    2.0909   -0.1226   -1.7270 C   0  0  0  0  0  0  0  0  0  0  0  0
    0.6594    0.1210   -1.2946 C   0  0  0  0  0  3  0  0  0  0  0  0
    0.4803    1.4888   -1.0266 O   0  0  0  0  0  0  0  0  0  0  0  0
   -0.8148    1.8036   -0.5827 C   0  0  0  0  0  0  0  0  0  0  0  0
   -0.8975    3.2902   -0.3245 C   0  0  0  0  0  0  0  0  0  0  0  0
    2.9363   -0.3987    0.2503 H   0  0  0  0  0  0  0  0  0  0  0  0
    4.1253    0.0151   -0.9871 H   0  0  0  0  0  0  0  0  0  0  0  0
    3.0383    1.2562   -0.3543 H   0  0  0  0  0  0  0  0  0  0  0  0
    2.2894    0.4730   -2.6217 H   0  0  0  0  0  0  0  0  0  0  0  0
    2.1797   -1.1727   -2.0192 H   0  0  0  0  0  0  0  0  0  0  0  0
   -0.0370   -0.2012   -2.0826 H   0  0  0  0  0  0  0  0  0  0  0  0
   -1.5543    1.5032   -1.3399 H   0  0  0  0  0  0  0  0  0  0  0  0
   -1.0438    1.2408    0.3343 H   0  0  0  0  0  0  0  0  0  0  0  0
   -0.6842    3.8489   -1.2364 H   0  0  0  0  0  0  0  0  0  0  0  0
   -1.8969    3.5589    0.0214 H   0  0  0  0  0  0  0  0  0  0  0  0
   -0.1755    3.5865    0.4373 H   0  0  0  0  0  0  0  0  0  0  0  0
  1  2  1  0
  1  5  1  0
  1  6  1  0
  1  7  1  0
  2  3  1  0
  3  4  1  0
  3  8  1  0
  3  9  1  0
  4 10  1  0
  4 11  1  0
  4 12  1  0
 13 14  1  0
 13 19  1  0
 13 20  1  0
 13 21  1  0
 14 15  1  0
 14 22  1  0
 14 23  1  0
 15 16  1  0
 15 24  1  0
 16 17  1  0
 17 18  1  0
 17 25  1  0
 17 26  1  0
 18 27  1  0
 18 28  1  0
 18 29  1  0
M  RAD  1  15   2
M  END
>  <reaction>  (14) 
rmg_rxn_522

>  <mol_properties>  (14) 
{"0": {"label": "*3", "atom_type": "Cs"}, "1": {"label": "*4", "atom_type": "S2s"}, "4": {"label": "*2", "atom_type": "H0"}, "14": {"label": "*1", "atom_type": "Cs"}, "15": {"label": "*0", "atom_type": "O2s"}}

>  <type>  (14) 
unop_10

>  <geom_source>  (14) 
Heuristics

$$$$

     RDKit          3D

 29 26  0  0  0  0  0  0  0  0999 V2000
    0.1591    0.7811    1.6816 C   0  0  0  0  0  0  0  0  0  0  0  0
   -1.4840    0.2023    2.1394 S   0  0  0  0  0  0  0  0  0  0  0  0
   -1.4840   -1.4378    1.3758 C   0  0  0  0  0  3  0  0  0  0  0  0
   -1.4840   -1.4378   -0.1446 C   0  0  0  0  0  0  0  0  0  0  0  0
    0.2739    0.9568    0.3912 H   0  0  0  0  0  0  0  0  0  0  0  0
    0.9261    0.0881    2.0297 H   0  0  0  0  0  0  0  0  0  0  0  0
    0.3056    1.7405    2.1760 H   0  0  0  0  0  0  0  0  0  0  0  0
   -2.3881   -1.9158    1.7567 H   0  0  0  0  0  0  0  0  0  0  0  0
   -0.6348   -2.0027    1.7670 H   0  0  0  0  0  0  0  0  0  0  0  0
   -0.5770   -0.9816   -0.5439 H   0  0  0  0  0  0  0  0  0  0  0  0
   -2.3400   -0.8846   -0.5323 H   0  0  0  0  0  0  0  0  0  0  0  0
   -1.5325   -2.4611   -0.5241 H   0  0  0  0  0  0  0  0  0  0  0  0
   -1.3732   -0.6384   -1.3336 C   0  0  0  0  0  3  0  0  0  0  0  0
   -0.9137    0.7883   -1.6033 C   0  0  0  0  0  0  0  0  0  0  0  0
    0.3900    1.1344   -0.9135 C   0  0  0  0  0  0  0  0  0  0  0  0
    1.4153    0.3164   -1.4181 O   0  0  0  0  0  3  0  0  0  0  0  0
    2.6599    0.5442   -0.8075 C   0  0  0  0  0  0  0  0  0  0  0  0
    3.6842   -0.3827   -1.4199 C   0  0  0  0  0  0  0  0  0  0  0  0
   -1.5238   -0.8036   -0.2638 H   0  0  0  0  0  0  0  0  0  0  0  0
   -2.3158   -0.8498   -1.8407 H   0  0  0  0  0  0  0  0  0  0  0  0
   -0.6302   -1.3557   -1.6820 H   0  0  0  0  0  0  0  0  0  0  0  0
   -0.7904    0.9461   -2.6779 H   0  0  0  0  0  0  0  0  0  0  0  0
   -1.6726    1.4986   -1.2637 H   0  0  0  0  0  0  0  0  0  0  0  0
    0.6393    2.1929   -1.0784 H   0  0  0  0  0  0  0  0  0  0  0  0
    2.9594    1.5937   -0.9464 H   0  0  0  0  0  0  0  0  0  0  0  0
    2.5831    0.3704    0.2760 H   0  0  0  0  0  0  0  0  0  0  0  0
    3.7709   -0.2016   -2.4918 H   0  0  0  0  0  0  0  0  0  0  0  0
    4.6610   -0.2230   -0.9607 H   0  0  0  0  0  0  0  0  0  0  0  0
    3.3961   -1.4237   -1.2691 H   0  0  0  0  0  0  0  0  0  0  0  0
  1  2  1  0
  1  5  1  0
  1  6  1  0
  1  7  1  0
  2  3  1  0
  3  8  1  0
  3  9  1  0
  4 10  1  0
  4 11  1  0
  4 12  1  0
  4 19  1  0
 13 14  1  0
 13 20  1  0
 13 21  1  0
 14 15  1  0
 14 22  1  0
 14 23  1  0
 15 16  2  3
 15 24  1  0
 16 17  1  0
 17 18  1  0
 17 25  1  0
 17 26  1  0
 18 27  1  0
 18 28  1  0
 18 29  1  0
M  CHG  2  13  -1  16   1
M  RAD  1   3   2
M  END
>  <reaction>  (15) 
rmg_rxn_522

>  <mol_properties>  (15) 
{"0": {"label": "*3", "atom_type": "Cs"}, "1": {"label": "*4", "atom_type": "S2s"}, "4": {"label": "*2", "atom_type": "H0"}, "14": {"label": "*1", "atom_type": "Cs"}, "15": {"label": "*0", "atom_type": "O2s"}}

>  <type>  (15) 
unop_11

>  <geom_source>  (15) 
Heuristics

$$$$

     RDKit          3D

 29 27  0  0  0  0  0  0  0  0999 V2000
    2.0551    1.5254    1.4627 S   0  0  0  0  0  0  0  0  0  0  0  0
   -2.1327    0.2912   -0.4281 O   0  0  0  0  0  0  0  0  0  0  0  0
   -0.9016   -1.4557   -1.5335 C   0  0  0  0  0  0  0  0  0  0  0  0
   -1.1949   -0.7420   -0.2149 C   0  0  0  0  0  3  0  0  0  0  0  0
   -2.2378    1.1029    0.7251 C   0  0  0  0  0  0  0  0  0  0  0  0
    3.0873    0.7621    0.1638 C   0  0  0  0  0  0  0  0  0  0  0  0
   -2.1338   -2.1734   -2.0806 C   0  0  0  0  0  0  0  0  0  0  0  0
   -1.4402    2.3877    0.5356 C   0  0  0  0  0  0  0  0  0  0  0  0
    3.8236   -0.4582    0.7015 C   0  0  0  0  0  0  0  0  0  0  0  0
    0.6425    0.4050    1.2197 C   0  0  0  0  0  0  0  0  0  0  0  0
   -0.0944   -2.2007   -1.3664 H   0  0  0  0  0  0  0  0  0  0  0  0
   -0.5405   -0.7168   -2.2809 H   0  0  0  0  0  0  0  0  0  0  0  0
   -1.5913   -1.4780    0.5211 H   0  0  0  0  0  0  0  0  0  0  0  0
   -0.0151   -0.2367    0.2569 H   0  0  0  0  0  0  0  0  0  0  0  0
   -1.9242    0.5975    1.6702 H   0  0  0  0  0  0  0  0  0  0  0  0
   -3.3063    1.3757    0.8555 H   0  0  0  0  0  0  0  0  0  0  0  0
    3.8347    1.5124   -0.1698 H   0  0  0  0  0  0  0  0  0  0  0  0
    2.4691    0.4799   -0.7155 H   0  0  0  0  0  0  0  0  0  0  0  0
   -1.8696   -2.6961   -3.0239 H   0  0  0  0  0  0  0  0  0  0  0  0
   -2.9444   -1.4453   -2.2957 H   0  0  0  0  0  0  0  0  0  0  0  0
   -2.4996   -2.9251   -1.3491 H   0  0  0  0  0  0  0  0  0  0  0  0
   -0.3594    2.1592    0.4289 H   0  0  0  0  0  0  0  0  0  0  0  0
   -1.5803    3.0487    1.4168 H   0  0  0  0  0  0  0  0  0  0  0  0
   -1.7902    2.9215   -0.3733 H   0  0  0  0  0  0  0  0  0  0  0  0
    4.4912   -0.8660   -0.0865 H   0  0  0  0  0  0  0  0  0  0  0  0
    3.1034   -1.2487    0.9973 H   0  0  0  0  0  0  0  0  0  0  0  0
    4.4406   -0.1761    1.5808 H   0  0  0  0  0  0  0  0  0  0  0  0
   -0.2540    0.8338    1.7124 H   0  0  0  0  0  0  0  0  0  0  0  0
    0.8629   -0.5843    1.6701 H   0  0  0  0  0  0  0  0  0  0  0  0
  1 10  1  0
  1  6  1  0
  2  5  1  0
  2  4  1  0
  3  7  1  0
  3  4  1  0
  3 11  1  0
  3 12  1  0
  4 13  1  0
  5  8  1  0
  5 15  1  0
  5 16  1  0
  6  9  1  0
  6 17  1  0
  6 18  1  0
  7 19  1  0
  7 20  1  0
  7 21  1  0
  8 22  1  0
  8 23  1  0
  8 24  1  0
  9 25  1  0
  9 26  1  0
  9 27  1  0
 10 14  1  0
 10 28  1  0
 10 29  1  0
M  RAD  1   4   2
M  END
>  <reaction>  (16) 
rmg_rxn_522

>  <mol_properties>  (16) 
{"0": {"label": "*3", "atom_type": "Cs"}, "1": {"label": "*4", "atom_type": "S2s"}, "4": {"label": "*2", "atom_type": "H0"}, "14": {"label": "*1", "atom_type": "Cs"}, "15": {"label": "*0", "atom_type": "O2s"}}

>  <type>  (16) 
unop_12

>  <geom_source>  (16) 
AutoTST

$$$$

     RDKit          3D

 29 27  0  0  0  0  0  0  0  0999 V2000
    0.3540    0.7777    1.8517 C   0  0  0  0  0  0  0  0  0  0  0  0
   -1.2891    0.1989    2.3095 S   0  0  0  0  0  0  0  0  0  0  0  0
   -1.2891   -1.4412    1.5458 C   0  0  0  0  0  0  0  0  0  0  0  0
   -1.2891   -1.4412    0.0255 C   0  0  0  0  0  0  0  0  0  0  0  0
    0.4688    0.9534    0.5613 H   0  0  0  0  0  0  0  0  0  0  0  0
    1.1210    0.0847    2.1998 H   0  0  0  0  0  0  0  0  0  0  0  0
    0.5004    1.7371    2.3460 H   0  0  0  0  0  0  0  0  0  0  0  0
   -2.1932   -1.9192    1.9267 H   0  0  0  0  0  0  0  0  0  0  0  0
   -0.4399   -2.0061    1.9371 H   0  0  0  0  0  0  0  0  0  0  0  0
   -0.3821   -0.9851   -0.3739 H   0  0  0  0  0  0  0  0  0  0  0  0
   -2.1451   -0.8880   -0.3623 H   0  0  0  0  0  0  0  0  0  0  0  0
   -1.3376   -2.4645   -0.3541 H   0  0  0  0  0  0  0  0  0  0  0  0
   -1.7138    0.3374   -1.4607 C   0  0  0  0  0  0  0  0  0  0  0  0
   -0.7552    1.5143   -1.3372 C   0  0  0  0  0  0  0  0  0  0  0  0
    0.5849    1.1310   -0.7435 C   0  0  0  0  0  3  0  0  0  0  0  0
    1.2294    0.2201   -1.5978 O   0  0  0  0  0  0  0  0  0  0  0  0
    2.4702   -0.2198   -1.1076 C   0  0  0  0  0  0  0  0  0  0  0  0
    3.0728   -1.1902   -2.0969 C   0  0  0  0  0  0  0  0  0  0  0  0
   -1.9129   -0.1073   -0.4825 H   0  0  0  0  0  0  0  0  0  0  0  0
   -2.6682    0.6513   -1.8861 H   0  0  0  0  0  0  0  0  0  0  0  0
   -1.2932   -0.4375   -2.1016 H   0  0  0  0  0  0  0  0  0  0  0  0
   -0.5842    1.9637   -2.3188 H   0  0  0  0  0  0  0  0  0  0  0  0
   -1.1931    2.2915   -0.7047 H   0  0  0  0  0  0  0  0  0  0  0  0
    1.2112    2.0249   -0.6071 H   0  0  0  0  0  0  0  0  0  0  0  0
    3.1397    0.6398   -0.9557 H   0  0  0  0  0  0  0  0  0  0  0  0
    2.3363   -0.7026   -0.1283 H   0  0  0  0  0  0  0  0  0  0  0  0
    3.2187   -0.7084   -3.0643 H   0  0  0  0  0  0  0  0  0  0  0  0
    4.0396   -1.5457   -1.7369 H   0  0  0  0  0  0  0  0  0  0  0  0
    2.4170   -2.0504   -2.2363 H   0  0  0  0  0  0  0  0  0  0  0  0
  1  2  1  0
  1  5  1  0
  1  6  1  0
  1  7  1  0
  2  3  1  0
  3  4  1  0
  3  8  1  0
  3  9  1  0
  4 10  1  0
  4 11  1  0
  4 12  1  0
 13 14  1  0
 13 19  1  0
 13 20  1  0
 13 21  1  0
 14 15  1  0
 14 22  1  0
 14 23  1  0
 15 16  1  0
 15 24  1  0
 16 17  1  0
 17 18  1  0
 17 25  1  0
 17 26  1  0
 18 27  1  0
 18 28  1  0
 18 29  1  0
M  RAD  1  15   2
M  END
>  <reaction>  (17) 
rmg_rxn_522

>  <mol_properties>  (17) 
{"0": {"label": "*3", "atom_type": "Cs"}, "1": {"label": "*4", "atom_type": "S2s"}, "4": {"label": "*2", "atom_type": "H0"}, "14": {"label": "*1", "atom_type": "Cs"}, "15": {"label": "*0", "atom_type": "O2s"}}

>  <type>  (17) 
unop_13

>  <geom_source>  (17) 
gaussian_log

$$$$
