
     RDKit          3D

 12 11  0  0  0  0  0  0  0  0999 V2000
    1.8075    0.1979    0.4695 C   0  0  0  0  0  0  0  0  0  0  0  0
    1.0072   -0.8859   -0.7259 S   0  0  0  0  0  0  0  0  0  0  0  0
   -0.7258   -0.6904   -0.2447 C   0  0  0  0  0  0  0  0  0  0  0  0
   -1.0856   -1.2776    1.1108 C   0  0  0  0  0  0  0  0  0  0  0  0
    1.7126   -0.1777    1.4878 H   0  0  0  0  0  0  0  0  0  0  0  0
    1.4024    1.2089    0.4095 H   0  0  0  0  0  0  0  0  0  0  0  0
    2.8647    0.2298    0.2095 H   0  0  0  0  0  0  0  0  0  0  0  0
   -1.2866   -1.1892   -1.0369 H   0  0  0  0  0  0  0  0  0  0  0  0
   -0.9814    0.3707   -0.2917 H   0  0  0  0  0  0  0  0  0  0  0  0
   -0.5492   -0.7768    1.9180 H   0  0  0  0  0  0  0  0  0  0  0  0
   -0.8418   -2.3397    1.1503 H   0  0  0  0  0  0  0  0  0  0  0  0
   -2.1545   -1.1604    1.3035 H   0  0  0  0  0  0  0  0  0  0  0  0
  1  2  1  0
  1  5  1  0
  1  6  1  0
  1  7  1  0
  2  3  1  0
  3  4  1  0
  3  8  1  0
  3  9  1  0
  4 10  1  0
  4 11  1  0
  4 12  1  0
M  END
>  <reaction>  (1) 
rmg_rxn_531

>  <mol_properties>  (1) 
{"0": {"label": "donator", "atom_type": "Cs"}, "4": {"label": "d_hydrogen", "atom_type": "H0"}}

>  <type>  (1) 
r1h

$$$$

     RDKit          3D

 14 13  0  0  0  0  0  0  0  0999 V2000
    2.5796   -0.5432    0.2329 C   0  0  0  0  0  3  0  0  0  0  0  0
    1.2594    0.0982    0.3029 C   0  0  0  0  0  0  0  0  0  0  0  0
   -0.0483   -1.0244    0.9576 S   0  0  0  0  0  0  0  0  0  0  0  0
   -0.0049   -2.3732   -0.2491 C   0  0  0  0  0  0  0  0  0  0  0  0
   -0.3891   -1.9781   -1.6653 C   0  0  0  0  0  0  0  0  0  0  0  0
    2.9359   -0.9798   -0.6903 H   0  0  0  0  0  0  0  0  0  0  0  0
    3.1327   -0.7454    1.1400 H   0  0  0  0  0  0  0  0  0  0  0  0
    0.9347    0.4858   -0.6621 H   0  0  0  0  0  0  0  0  0  0  0  0
    1.2442    0.9220    1.0193 H   0  0  0  0  0  0  0  0  0  0  0  0
    0.9819   -2.8380   -0.2257 H   0  0  0  0  0  0  0  0  0  0  0  0
   -0.7110   -3.1037    0.1493 H   0  0  0  0  0  0  0  0  0  0  0  0
    0.3274   -1.2737   -2.0913 H   0  0  0  0  0  0  0  0  0  0  0  0
   -0.4075   -2.8581   -2.3121 H   0  0  0  0  0  0  0  0  0  0  0  0
   -1.3749   -1.5123   -1.6865 H   0  0  0  0  0  0  0  0  0  0  0  0
  1  2  1  0
  1  6  1  0
  1  7  1  0
  2  3  1  0
  2  8  1  0
  2  9  1  0
  3  4  1  0
  4  5  1  0
  4 10  1  0
  4 11  1  0
  5 12  1  0
  5 13  1  0
  5 14  1  0
M  RAD  1   1   2
M  END
>  <reaction>  (2) 
rmg_rxn_531

>  <mol_properties>  (2) 
{"0": {"label": "acceptor", "atom_type": "Cs"}}

>  <type>  (2) 
r2

$$$$

     RDKit          3D

 15 14  0  0  0  0  0  0  0  0999 V2000
   -2.0554    0.0723   -0.4910 C   0  0  0  0  0  0  0  0  0  0  0  0
   -0.7461   -0.6266   -0.8178 C   0  0  0  0  0  0  0  0  0  0  0  0
    0.3249    0.2591   -1.9782 S   0  0  0  0  0  0  0  0  0  0  0  0
   -0.7172    0.3642   -3.4551 C   0  0  0  0  0  0  0  0  0  0  0  0
   -1.1375   -0.9737   -4.0409 C   0  0  0  0  0  0  0  0  0  0  0  0
   -2.7005    0.1427   -1.3684 H   0  0  0  0  0  0  0  0  0  0  0  0
   -2.6016   -0.4848    0.2733 H   0  0  0  0  0  0  0  0  0  0  0  0
   -1.8758    1.0825   -0.1213 H   0  0  0  0  0  0  0  0  0  0  0  0
   -0.1320   -0.7246    0.0789 H   0  0  0  0  0  0  0  0  0  0  0  0
   -0.9254   -1.6374   -1.1879 H   0  0  0  0  0  0  0  0  0  0  0  0
   -1.5873    0.9874   -3.2422 H   0  0  0  0  0  0  0  0  0  0  0  0
   -0.1021    0.9161   -4.1678 H   0  0  0  0  0  0  0  0  0  0  0  0
   -1.7876   -1.5224   -3.3574 H   0  0  0  0  0  0  0  0  0  0  0  0
   -0.2676   -1.5962   -4.2534 H   0  0  0  0  0  0  0  0  0  0  0  0
   -1.6916   -0.8229   -4.9700 H   0  0  0  0  0  0  0  0  0  0  0  0
  1  2  1  0
  1  6  1  0
  1  7  1  0
  1  8  1  0
  2  3  1  0
  2  9  1  0
  2 10  1  0
  3  4  1  0
  4  5  1  0
  4 11  1  0
  4 12  1  0
  5 13  1  0
  5 14  1  0
  5 15  1  0
M  END
>  <reaction>  (3) 
rmg_rxn_531

>  <mol_properties>  (3) 
{"0": {"label": "a_hydrogen", "atom_type": "H0"}, "1": {"label": "acceptor", "atom_type": "Cs"}}

>  <type>  (3) 
r2h

$$$$

     RDKit          3D

 26 24  0  0  0  0  0  0  0  0999 V2000
    0.4521   -0.5344    1.6488 C   0  0  0  0  0  0  0  0  0  0  0  0
   -1.3110   -0.5626    1.5905 S   0  0  0  0  0  0  0  0  0  0  0  0
   -1.6279   -2.3315    1.3837 C   0  0  0  0  0  0  0  0  0  0  0  0
   -1.1310   -2.9234    0.0751 C   0  0  0  0  0  0  0  0  0  0  0  0
    0.9650   -0.6206    0.4563 H   0  0  0  0  0  0  0  0  0  0  0  0
    0.8827   -1.3517    2.2278 H   0  0  0  0  0  0  0  0  0  0  0  0
    0.7905    0.4394    1.9941 H   0  0  0  0  0  0  0  0  0  0  0  0
   -2.7122   -2.4258    1.4614 H   0  0  0  0  0  0  0  0  0  0  0  0
   -1.1965   -2.8582    2.2377 H   0  0  0  0  0  0  0  0  0  0  0  0
   -0.0452   -2.8573   -0.0011 H   0  0  0  0  0  0  0  0  0  0  0  0
   -1.5627   -2.3994   -0.7787 H   0  0  0  0  0  0  0  0  0  0  0  0
   -1.4078   -3.9780    0.0084 H   0  0  0  0  0  0  0  0  0  0  0  0
    1.4905   -0.6268   -0.8402 C   0  0  0  0  0  3  0  0  0  0  0  0
    2.1297    0.7055   -1.1038 C   0  0  0  0  0  0  0  0  0  0  0  0
    1.1342    2.1631   -0.6698 S   0  0  0  0  0  0  0  0  0  0  0  0
   -0.4266    1.8205   -1.5191 C   0  0  0  0  0  0  0  0  0  0  0  0
   -0.3160    1.6844   -3.0285 C   0  0  0  0  0  0  0  0  0  0  0  0
    0.5996   -0.8401   -1.4273 H   0  0  0  0  0  0  0  0  0  0  0  0
    2.1875   -1.4635   -0.8437 H   0  0  0  0  0  0  0  0  0  0  0  0
    2.4301    0.7883   -2.1533 H   0  0  0  0  0  0  0  0  0  0  0  0
    3.0382    0.8215   -0.5101 H   0  0  0  0  0  0  0  0  0  0  0  0
   -0.8896    0.9394   -1.0705 H   0  0  0  0  0  0  0  0  0  0  0  0
   -1.0567    2.6720   -1.2568 H   0  0  0  0  0  0  0  0  0  0  0  0
    0.2940    0.8235   -3.3082 H   0  0  0  0  0  0  0  0  0  0  0  0
   -1.3057    1.5426   -3.4685 H   0  0  0  0  0  0  0  0  0  0  0  0
    0.1343    2.5744   -3.4696 H   0  0  0  0  0  0  0  0  0  0  0  0
  1  2  1  0
  1  5  1  0
  1  6  1  0
  1  7  1  0
  2  3  1  0
  3  4  1  0
  3  8  1  0
  3  9  1  0
  4 10  1  0
  4 11  1  0
  4 12  1  0
 13 14  1  0
 13 18  1  0
 13 19  1  0
 14 15  1  0
 14 20  1  0
 14 21  1  0
 15 16  1  0
 16 17  1  0
 16 22  1  0
 16 23  1  0
 17 24  1  0
 17 25  1  0
 17 26  1  0
M  RAD  1  13   2
M  END
>  <reaction>  (4) 
rmg_rxn_531

>  <mol_properties>  (4) 
{"0": {"label": "*1", "atom_type": "Cs"}, "1": {"label": "*0", "atom_type": "S2s"}, "4": {"label": "*2", "atom_type": "H0"}, "12": {"label": "*3", "atom_type": "Cs"}, "13": {"label": "*4", "atom_type": "Cs"}}

>  <type>  (4) 
ts

$$$$

     RDKit          3D

 26 24  0  0  0  0  0  0  0  0999 V2000
    0.8753   -0.5721    2.1652 C   0  0  0  0  0  0  0  0  0  0  0  0
   -0.7678   -1.1510    2.6230 S   0  0  0  0  0  0  0  0  0  0  0  0
   -0.7678   -2.7911    1.8593 C   0  0  0  0  0  0  0  0  0  0  0  0
   -0.7678   -2.7911    0.3389 C   0  0  0  0  0  0  0  0  0  0  0  0
    0.9902   -0.3965    0.8748 H   0  0  0  0  0  0  0  0  0  0  0  0
    1.6423   -1.2652    2.5133 H   0  0  0  0  0  0  0  0  0  0  0  0
    1.0218    0.3872    2.6595 H   0  0  0  0  0  0  0  0  0  0  0  0
   -1.6718   -3.2691    2.2402 H   0  0  0  0  0  0  0  0  0  0  0  0
    0.0814   -3.3560    2.2506 H   0  0  0  0  0  0  0  0  0  0  0  0
    0.1392   -2.3349   -0.0604 H   0  0  0  0  0  0  0  0  0  0  0  0
   -1.6238   -2.2379   -0.0488 H   0  0  0  0  0  0  0  0  0  0  0  0
   -0.8162   -3.8143   -0.0406 H   0  0  0  0  0  0  0  0  0  0  0  0
    1.1051   -0.2206   -0.4169 C   0  0  0  0  0  3  0  0  0  0  0  0
    1.4506    1.2238   -0.7393 C   0  0  0  0  0  0  0  0  0  0  0  0
    0.0330    2.2808   -1.1284 S   0  0  0  0  0  0  0  0  0  0  0  0
   -0.6656    1.4616   -2.5841 C   0  0  0  0  0  0  0  0  0  0  0  0
    0.2683    1.3703   -3.7795 C   0  0  0  0  0  0  0  0  0  0  0  0
    0.6854   -0.7340   -1.2837 H   0  0  0  0  0  0  0  0  0  0  0  0
    2.0020   -0.7663   -0.1156 H   0  0  0  0  0  0  0  0  0  0  0  0
    2.1784    1.2790   -1.5505 H   0  0  0  0  0  0  0  0  0  0  0  0
    1.9063    1.7090    0.1254 H   0  0  0  0  0  0  0  0  0  0  0  0
   -1.0364    0.4746   -2.3026 H   0  0  0  0  0  0  0  0  0  0  0  0
   -1.5395    2.0677   -2.8284 H   0  0  0  0  0  0  0  0  0  0  0  0
    1.1287    0.7337   -3.5665 H   0  0  0  0  0  0  0  0  0  0  0  0
   -0.2542    0.9391   -4.6362 H   0  0  0  0  0  0  0  0  0  0  0  0
    0.6388    2.3568   -4.0604 H   0  0  0  0  0  0  0  0  0  0  0  0
  1  2  1  0
  1  5  1  0
  1  6  1  0
  1  7  1  0
  2  3  1  0
  3  4  1  0
  3  8  1  0
  3  9  1  0
  4 10  1  0
  4 11  1  0
  4 12  1  0
 13 14  1  0
 13 18  1  0
 13 19  1  0
 14 15  1  0
 14 20  1  0
 14 21  1  0
 15 16  1  0
 16 17  1  0
 16 22  1  0
 16 23  1  0
 17 24  1  0
 17 25  1  0
 17 26  1  0
M  RAD  1  13   2
M  END
>  <reaction>  (5) 
rmg_rxn_531

>  <mol_properties>  (5) 
{"0": {"label": "*1", "atom_type": "Cs"}, "1": {"label": "*0", "atom_type": "S2s"}, "4": {"label": "*2", "atom_type": "H0"}, "12": {"label": "*3", "atom_type": "Cs"}, "13": {"label": "*4", "atom_type": "Cs"}}

>  <type>  (5) 
unop_1

>  <geom_source>  (5) 
Heuristics

$$$$

     RDKit          3D

 26 24  0  0  0  0  0  0  0  0999 V2000
    1.3378    0.7983    2.1467 C   0  0  0  0  0  0  0  0  0  0  0  0
   -0.3053    0.2195    2.6045 S   0  0  0  0  0  0  0  0  0  0  0  0
   -0.3053   -1.4207    1.8408 C   0  0  0  0  0  0  0  0  0  0  0  0
   -0.3053   -1.4207    0.3205 C   0  0  0  0  0  0  0  0  0  0  0  0
    1.4527    0.9740    0.8563 H   0  0  0  0  0  0  0  0  0  0  0  0
    2.1048    0.1053    2.4948 H   0  0  0  0  0  0  0  0  0  0  0  0
    1.4843    1.7577    2.6410 H   0  0  0  0  0  0  0  0  0  0  0  0
   -1.2093   -1.8986    2.2218 H   0  0  0  0  0  0  0  0  0  0  0  0
    0.5439   -1.9855    2.2321 H   0  0  0  0  0  0  0  0  0  0  0  0
    0.6017   -0.9645   -0.0788 H   0  0  0  0  0  0  0  0  0  0  0  0
   -1.1613   -0.8674   -0.0673 H   0  0  0  0  0  0  0  0  0  0  0  0
   -0.3537   -2.4439   -0.0591 H   0  0  0  0  0  0  0  0  0  0  0  0
    1.5676    1.1498   -0.4354 C   0  0  0  0  0  3  0  0  0  0  0  0
    0.2329    1.5354   -1.0515 C   0  0  0  0  0  0  0  0  0  0  0  0
   -0.9722    0.1894   -1.1699 S   0  0  0  0  0  0  0  0  0  0  0  0
   -0.1118   -1.0011   -2.2285 C   0  0  0  0  0  0  0  0  0  0  0  0
    0.2442   -0.4882   -3.6141 C   0  0  0  0  0  0  0  0  0  0  0  0
    2.1045    0.4347   -1.0609 H   0  0  0  0  0  0  0  0  0  0  0  0
    2.2031    2.0314   -0.3263 H   0  0  0  0  0  0  0  0  0  0  0  0
    0.3731    1.9852   -2.0358 H   0  0  0  0  0  0  0  0  0  0  0  0
   -0.2708    2.2810   -0.4341 H   0  0  0  0  0  0  0  0  0  0  0  0
    0.7738   -1.3737   -1.7111 H   0  0  0  0  0  0  0  0  0  0  0  0
   -0.8095   -1.8372   -2.2990 H   0  0  0  0  0  0  0  0  0  0  0  0
    0.9733    0.3223   -3.5648 H   0  0  0  0  0  0  0  0  0  0  0  0
    0.6842   -1.2888   -4.2127 H   0  0  0  0  0  0  0  0  0  0  0  0
   -0.6411   -0.1158   -4.1308 H   0  0  0  0  0  0  0  0  0  0  0  0
  1  2  1  0
  1  5  1  0
  1  6  1  0
  1  7  1  0
  2  3  1  0
  3  4  1  0
  3  8  1  0
  3  9  1  0
  4 10  1  0
  4 11  1  0
  4 12  1  0
 13 14  1  0
 13 18  1  0
 13 19  1  0
 14 15  1  0
 14 20  1  0
 14 21  1  0
 15 16  1  0
 16 17  1  0
 16 22  1  0
 16 23  1  0
 17 24  1  0
 17 25  1  0
 17 26  1  0
M  RAD  1  13   2
M  END
>  <reaction>  (6) 
rmg_rxn_531

>  <mol_properties>  (6) 
{"0": {"label": "*1", "atom_type": "Cs"}, "1": {"label": "*0", "atom_type": "S2s"}, "4": {"label": "*2", "atom_type": "H0"}, "12": {"label": "*3", "atom_type": "Cs"}, "13": {"label": "*4", "atom_type": "Cs"}}

>  <type>  (6) 
unop_2

>  <geom_source>  (6) 
Heuristics

$$$$

     RDKit          3D

 26 24  0  0  0  0  0  0  0  0999 V2000
    0.4543   -0.7589    1.9826 C   0  0  0  0  0  0  0  0  0  0  0  0
   -1.1888   -1.3377    2.4404 S   0  0  0  0  0  0  0  0  0  0  0  0
   -1.1888   -2.9779    1.6768 C   0  0  0  0  0  0  0  0  0  0  0  0
   -1.1888   -2.9779    0.1564 C   0  0  0  0  0  0  0  0  0  0  0  0
    0.5692   -0.5832    0.6922 H   0  0  0  0  0  0  0  0  0  0  0  0
    1.2213   -1.4519    2.3307 H   0  0  0  0  0  0  0  0  0  0  0  0
    0.6008    0.2005    2.4770 H   0  0  0  0  0  0  0  0  0  0  0  0
   -2.0928   -3.4558    2.0577 H   0  0  0  0  0  0  0  0  0  0  0  0
   -0.3396   -3.5427    2.0680 H   0  0  0  0  0  0  0  0  0  0  0  0
   -0.2818   -2.5217   -0.2429 H   0  0  0  0  0  0  0  0  0  0  0  0
   -2.0448   -2.4246   -0.2313 H   0  0  0  0  0  0  0  0  0  0  0  0
   -1.2372   -4.0011   -0.2231 H   0  0  0  0  0  0  0  0  0  0  0  0
    0.6841   -0.4074   -0.5995 C   0  0  0  0  0  3  0  0  0  0  0  0
    1.6809    0.6969   -0.9102 C   0  0  0  0  0  0  0  0  0  0  0  0
    1.0054    2.3758   -0.8515 S   0  0  0  0  0  0  0  0  0  0  0  0
   -0.2813    2.3140   -2.1239 C   0  0  0  0  0  0  0  0  0  0  0  0
    0.2152    1.9937   -3.5241 C   0  0  0  0  0  0  0  0  0  0  0  0
   -0.0988   -0.4638   -1.3577 H   0  0  0  0  0  0  0  0  0  0  0  0
    1.1877   -1.3764   -0.5759 H   0  0  0  0  0  0  0  0  0  0  0  0
    2.1580    0.5309   -1.8775 H   0  0  0  0  0  0  0  0  0  0  0  0
    2.4780    0.7119   -0.1651 H   0  0  0  0  0  0  0  0  0  0  0  0
   -1.0619    1.6157   -1.8176 H   0  0  0  0  0  0  0  0  0  0  0  0
   -0.7229    3.3115   -2.0948 H   0  0  0  0  0  0  0  0  0  0  0  0
    0.6235    0.9833   -3.5817 H   0  0  0  0  0  0  0  0  0  0  0  0
   -0.6066    2.0564   -4.2408 H   0  0  0  0  0  0  0  0  0  0  0  0
    0.9954    2.6917   -3.8297 H   0  0  0  0  0  0  0  0  0  0  0  0
  1  2  1  0
  1  5  1  0
  1  6  1  0
  1  7  1  0
  2  3  1  0
  3  4  1  0
  3  8  1  0
  3  9  1  0
  4 10  1  0
  4 11  1  0
  4 12  1  0
 13 14  1  0
 13 18  1  0
 13 19  1  0
 14 15  1  0
 14 20  1  0
 14 21  1  0
 15 16  1  0
 16 17  1  0
 16 22  1  0
 16 23  1  0
 17 24  1  0
 17 25  1  0
 17 26  1  0
M  RAD  1  13   2
M  END
>  <reaction>  (7) 
rmg_rxn_531

>  <mol_properties>  (7) 
{"0": {"label": "*1", "atom_type": "Cs"}, "1": {"label": "*0", "atom_type": "S2s"}, "4": {"label": "*2", "atom_type": "H0"}, "12": {"label": "*3", "atom_type": "Cs"}, "13": {"label": "*4", "atom_type": "Cs"}}

>  <type>  (7) 
unop_3

>  <geom_source>  (7) 
Heuristics

$$$$

     RDKit          3D

 26 24  0  0  0  0  0  0  0  0999 V2000
    0.0867    1.4283    1.5206 C   0  0  0  0  0  0  0  0  0  0  0  0
   -1.5564    0.8494    1.9784 S   0  0  0  0  0  0  0  0  0  0  0  0
   -1.5564   -0.7907    1.2147 C   0  0  0  0  0  0  0  0  0  0  0  0
   -1.5564   -0.7907   -0.3056 C   0  0  0  0  0  0  0  0  0  0  0  0
    0.2016    1.6039    0.2302 H   0  0  0  0  0  0  0  0  0  0  0  0
    0.8537    0.7352    1.8687 H   0  0  0  0  0  0  0  0  0  0  0  0
    0.2332    2.3876    2.0149 H   0  0  0  0  0  0  0  0  0  0  0  0
   -2.4604   -1.2687    1.5956 H   0  0  0  0  0  0  0  0  0  0  0  0
   -0.7071   -1.3556    1.6060 H   0  0  0  0  0  0  0  0  0  0  0  0
   -0.6494   -0.3345   -0.7050 H   0  0  0  0  0  0  0  0  0  0  0  0
   -2.4123   -0.2375   -0.6934 H   0  0  0  0  0  0  0  0  0  0  0  0
   -1.6048   -1.8139   -0.6852 H   0  0  0  0  0  0  0  0  0  0  0  0
    0.3165    1.7798   -1.0615 C   0  0  0  0  0  3  0  0  0  0  0  0
    0.0664    0.4812   -1.8103 C   0  0  0  0  0  0  0  0  0  0  0  0
    0.3388   -1.0245   -0.8425 S   0  0  0  0  0  0  0  0  0  0  0  0
    2.0884   -0.8817   -0.3989 C   0  0  0  0  0  0  0  0  0  0  0  0
    3.0473   -0.8309   -1.5769 C   0  0  0  0  0  0  0  0  0  0  0  0
    1.3675    1.8870   -0.7880 H   0  0  0  0  0  0  0  0  0  0  0  0
    0.0521    2.6349   -1.6875 H   0  0  0  0  0  0  0  0  0  0  0  0
    0.6602    0.4377   -2.7248 H   0  0  0  0  0  0  0  0  0  0  0  0
   -0.9801    0.4102   -2.1114 H   0  0  0  0  0  0  0  0  0  0  0  0
    2.2281   -0.0195    0.2552 H   0  0  0  0  0  0  0  0  0  0  0  0
    2.2756   -1.7696    0.2071 H   0  0  0  0  0  0  0  0  0  0  0  0
    2.9017    0.0723   -2.1718 H   0  0  0  0  0  0  0  0  0  0  0  0
    4.0809   -0.8276   -1.2239 H   0  0  0  0  0  0  0  0  0  0  0  0
    2.9072   -1.6927   -2.2304 H   0  0  0  0  0  0  0  0  0  0  0  0
  1  2  1  0
  1  5  1  0
  1  6  1  0
  1  7  1  0
  2  3  1  0
  3  4  1  0
  3  8  1  0
  3  9  1  0
  4 10  1  0
  4 11  1  0
  4 12  1  0
 13 14  1  0
 13 18  1  0
 13 19  1  0
 14 15  1  0
 14 20  1  0
 14 21  1  0
 15 16  1  0
 16 17  1  0
 16 22  1  0
 16 23  1  0
 17 24  1  0
 17 25  1  0
 17 26  1  0
M  RAD  1  13   2
M  END
>  <reaction>  (8) 
rmg_rxn_531

>  <mol_properties>  (8) 
{"0": {"label": "*1", "atom_type": "Cs"}, "1": {"label": "*0", "atom_type": "S2s"}, "4": {"label": "*2", "atom_type": "H0"}, "12": {"label": "*3", "atom_type": "Cs"}, "13": {"label": "*4", "atom_type": "Cs"}}

>  <type>  (8) 
unop_4

>  <geom_source>  (8) 
Heuristics

$$$$

     RDKit          3D

 26 24  0  0  0  0  0  0  0  0999 V2000
   -0.1229   -0.6939    1.5866 C   0  0  0  0  0  0  0  0  0  0  0  0
   -1.7660   -1.2728    2.0443 S   0  0  0  0  0  0  0  0  0  0  0  0
   -1.7660   -2.9129    1.2807 C   0  0  0  0  0  0  0  0  0  0  0  0
   -1.7660   -2.9129   -0.2397 C   0  0  0  0  0  0  0  0  0  0  0  0
   -0.0081   -0.5183    0.2961 H   0  0  0  0  0  0  0  0  0  0  0  0
    0.6441   -1.3870    1.9347 H   0  0  0  0  0  0  0  0  0  0  0  0
    0.0236    0.2654    2.0809 H   0  0  0  0  0  0  0  0  0  0  0  0
   -2.6701   -3.3909    1.6616 H   0  0  0  0  0  0  0  0  0  0  0  0
   -0.9168   -3.4778    1.6720 H   0  0  0  0  0  0  0  0  0  0  0  0
   -0.8590   -2.4567   -0.6390 H   0  0  0  0  0  0  0  0  0  0  0  0
   -2.6220   -2.3597   -0.6274 H   0  0  0  0  0  0  0  0  0  0  0  0
   -1.8144   -3.9361   -0.6192 H   0  0  0  0  0  0  0  0  0  0  0  0
    0.1069   -0.3424   -0.9956 C   0  0  0  0  0  3  0  0  0  0  0  0
    1.5006    0.1454   -1.3549 C   0  0  0  0  0  0  0  0  0  0  0  0
    2.0319    1.6459   -0.4920 S   0  0  0  0  0  0  0  0  0  0  0  0
    0.7883    2.8508   -1.0211 C   0  0  0  0  0  0  0  0  0  0  0  0
    0.7293    3.0968   -2.5196 C   0  0  0  0  0  0  0  0  0  0  0  0
   -0.6587    0.3690   -1.3098 H   0  0  0  0  0  0  0  0  0  0  0  0
   -0.1027   -1.2910   -1.4948 H   0  0  0  0  0  0  0  0  0  0  0  0
    1.5968    0.2923   -2.4319 H   0  0  0  0  0  0  0  0  0  0  0  0
    2.2492   -0.5960   -1.0707 H   0  0  0  0  0  0  0  0  0  0  0  0
   -0.1893    2.5572   -0.6352 H   0  0  0  0  0  0  0  0  0  0  0  0
    1.0721    3.7642   -0.4956 H   0  0  0  0  0  0  0  0  0  0  0  0
    0.4070    2.2042   -3.0585 H   0  0  0  0  0  0  0  0  0  0  0  0
    0.0147    3.8915   -2.7451 H   0  0  0  0  0  0  0  0  0  0  0  0
    1.7065    3.3901   -2.9048 H   0  0  0  0  0  0  0  0  0  0  0  0
  1  2  1  0
  1  5  1  0
  1  6  1  0
  1  7  1  0
  2  3  1  0
  3  4  1  0
  3  8  1  0
  3  9  1  0
  4 10  1  0
  4 11  1  0
  4 12  1  0
 13 14  1  0
 13 18  1  0
 13 19  1  0
 14 15  1  0
 14 20  1  0
 14 21  1  0
 15 16  1  0
 16 17  1  0
 16 22  1  0
 16 23  1  0
 17 24  1  0
 17 25  1  0
 17 26  1  0
M  RAD  1  13   2
M  END
>  <reaction>  (9) 
rmg_rxn_531

>  <mol_properties>  (9) 
{"0": {"label": "*1", "atom_type": "Cs"}, "1": {"label": "*0", "atom_type": "S2s"}, "4": {"label": "*2", "atom_type": "H0"}, "12": {"label": "*3", "atom_type": "Cs"}, "13": {"label": "*4", "atom_type": "Cs"}}

>  <type>  (9) 
unop_5

>  <geom_source>  (9) 
Heuristics

$$$$

     RDKit          3D

 26 24  0  0  0  0  0  0  0  0999 V2000
   -0.3511    1.1441    1.3689 C   0  0  0  0  0  0  0  0  0  0  0  0
   -1.9942    0.5653    1.8267 S   0  0  0  0  0  0  0  0  0  0  0  0
   -1.9942   -1.0748    1.0630 C   0  0  0  0  0  0  0  0  0  0  0  0
   -1.9942   -1.0748   -0.4574 C   0  0  0  0  0  0  0  0  0  0  0  0
   -0.2363    1.3198    0.0785 H   0  0  0  0  0  0  0  0  0  0  0  0
    0.4159    0.4511    1.7170 H   0  0  0  0  0  0  0  0  0  0  0  0
   -0.2047    2.1035    1.8632 H   0  0  0  0  0  0  0  0  0  0  0  0
   -2.8983   -1.5528    1.4439 H   0  0  0  0  0  0  0  0  0  0  0  0
   -1.1450   -1.6397    1.4543 H   0  0  0  0  0  0  0  0  0  0  0  0
   -1.0873   -0.6187   -0.8567 H   0  0  0  0  0  0  0  0  0  0  0  0
   -2.8502   -0.5216   -0.8451 H   0  0  0  0  0  0  0  0  0  0  0  0
   -2.0427   -2.0981   -0.8369 H   0  0  0  0  0  0  0  0  0  0  0  0
   -0.1213    1.4956   -1.2132 C   0  0  0  0  0  3  0  0  0  0  0  0
    0.3596    0.2244   -1.8933 C   0  0  0  0  0  0  0  0  0  0  0  0
    1.0689   -1.0163   -0.7817 S   0  0  0  0  0  0  0  0  0  0  0  0
    2.4673   -0.1238   -0.0563 C   0  0  0  0  0  0  0  0  0  0  0  0
    3.5122    0.3511   -1.0524 C   0  0  0  0  0  0  0  0  0  0  0  0
    0.7081    2.0510   -0.7721 H   0  0  0  0  0  0  0  0  0  0  0  0
   -0.6066    2.1526   -1.9384 H   0  0  0  0  0  0  0  0  0  0  0  0
    1.0738    0.4525   -2.6862 H   0  0  0  0  0  0  0  0  0  0  0  0
   -0.4763   -0.2962   -2.3634 H   0  0  0  0  0  0  0  0  0  0  0  0
    2.0953    0.7075    0.5448 H   0  0  0  0  0  0  0  0  0  0  0  0
    2.9024   -0.8441    0.6385 H   0  0  0  0  0  0  0  0  0  0  0  0
    3.1051    1.1032   -1.7303 H   0  0  0  0  0  0  0  0  0  0  0  0
    4.3563    0.8048   -0.5284 H   0  0  0  0  0  0  0  0  0  0  0  0
    3.8836   -0.4800   -1.6531 H   0  0  0  0  0  0  0  0  0  0  0  0
  1  2  1  0
  1  5  1  0
  1  6  1  0
  1  7  1  0
  2  3  1  0
  3  4  1  0
  3  8  1  0
  3  9  1  0
  4 10  1  0
  4 11  1  0
  4 12  1  0
 13 14  1  0
 13 18  1  0
 13 19  1  0
 14 15  1  0
 14 20  1  0
 14 21  1  0
 15 16  1  0
 16 17  1  0
 16 22  1  0
 16 23  1  0
 17 24  1  0
 17 25  1  0
 17 26  1  0
M  RAD  1  13   2
M  END
>  <reaction>  (10) 
rmg_rxn_531

>  <mol_properties>  (10) 
{"0": {"label": "*1", "atom_type": "Cs"}, "1": {"label": "*0", "atom_type": "S2s"}, "4": {"label": "*2", "atom_type": "H0"}, "12": {"label": "*3", "atom_type": "Cs"}, "13": {"label": "*4", "atom_type": "Cs"}}

>  <type>  (10) 
unop_6

>  <geom_source>  (10) 
Heuristics

$$$$

     RDKit          3D

 26 24  0  0  0  0  0  0  0  0999 V2000
   -0.6359    0.6256    1.2693 C   0  0  0  0  0  0  0  0  0  0  0  0
   -2.2790    0.0468    1.7271 S   0  0  0  0  0  0  0  0  0  0  0  0
   -2.2790   -1.5933    0.9634 C   0  0  0  0  0  0  0  0  0  0  0  0
   -2.2790   -1.5933   -0.5569 C   0  0  0  0  0  0  0  0  0  0  0  0
   -0.5211    0.8013   -0.0211 H   0  0  0  0  0  0  0  0  0  0  0  0
    0.1311   -0.0674    1.6174 H   0  0  0  0  0  0  0  0  0  0  0  0
   -0.4894    1.5850    1.7636 H   0  0  0  0  0  0  0  0  0  0  0  0
   -3.1831   -2.0713    1.3444 H   0  0  0  0  0  0  0  0  0  0  0  0
   -1.4298   -2.1582    1.3547 H   0  0  0  0  0  0  0  0  0  0  0  0
   -1.3720   -1.1372   -0.9562 H   0  0  0  0  0  0  0  0  0  0  0  0
   -3.1350   -1.0401   -0.9446 H   0  0  0  0  0  0  0  0  0  0  0  0
   -2.3274   -2.6166   -0.9365 H   0  0  0  0  0  0  0  0  0  0  0  0
   -0.4061    0.9771   -1.3128 C   0  0  0  0  0  3  0  0  0  0  0  0
    0.6898    0.0935   -1.8853 C   0  0  0  0  0  0  0  0  0  0  0  0
    1.8209   -0.6128   -0.6606 S   0  0  0  0  0  0  0  0  0  0  0  0
    2.5380    0.8680    0.0952 C   0  0  0  0  0  0  0  0  0  0  0  0
    3.2951    1.7745   -0.8612 C   0  0  0  0  0  0  0  0  0  0  0  0
    0.0056    1.8783   -0.8553 H   0  0  0  0  0  0  0  0  0  0  0  0
   -1.0890    1.2942   -2.1041 H   0  0  0  0  0  0  0  0  0  0  0  0
    1.2638    0.6267   -2.6450 H   0  0  0  0  0  0  0  0  0  0  0  0
    0.2578   -0.7812   -2.3743 H   0  0  0  0  0  0  0  0  0  0  0  0
    1.7584    1.4209    0.6219 H   0  0  0  0  0  0  0  0  0  0  0  0
    3.2107    0.4706    0.8569 H   0  0  0  0  0  0  0  0  0  0  0  0
    2.6296    2.2139   -1.6062 H   0  0  0  0  0  0  0  0  0  0  0  0
    3.7624    2.5963   -0.3141 H   0  0  0  0  0  0  0  0  0  0  0  0
    4.0739    1.2216   -1.3875 H   0  0  0  0  0  0  0  0  0  0  0  0
  1  2  1  0
  1  5  1  0
  1  6  1  0
  1  7  1  0
  2  3  1  0
  3  4  1  0
  3  8  1  0
  3  9  1  0
  4 10  1  0
  4 11  1  0
  4 12  1  0
 13 14  1  0
 13 18  1  0
 13 19  1  0
 14 15  1  0
 14 20  1  0
 14 21  1  0
 15 16  1  0
 16 17  1  0
 16 22  1  0
 16 23  1  0
 17 24  1  0
 17 25  1  0
 17 26  1  0
M  RAD  1  13   2
M  END
>  <reaction>  (11) 
rmg_rxn_531

>  <mol_properties>  (11) 
{"0": {"label": "*1", "atom_type": "Cs"}, "1": {"label": "*0", "atom_type": "S2s"}, "4": {"label": "*2", "atom_type": "H0"}, "12": {"label": "*3", "atom_type": "Cs"}, "13": {"label": "*4", "atom_type": "Cs"}}

>  <type>  (11) 
unop_7

>  <geom_source>  (11) 
Heuristics

$$$$

     RDKit          3D

 26 24  0  0  0  0  0  0  0  0999 V2000
    1.2111   -0.2408    2.2361 C   0  0  0  0  0  0  0  0  0  0  0  0
   -0.4321   -0.8197    2.6939 S   0  0  0  0  0  0  0  0  0  0  0  0
   -0.4321   -2.4598    1.9302 C   0  0  0  0  0  0  0  0  0  0  0  0
   -0.4321   -2.4598    0.4099 C   0  0  0  0  0  0  0  0  0  0  0  0
    1.3259   -0.0652    0.9457 H   0  0  0  0  0  0  0  0  0  0  0  0
    1.9781   -0.9339    2.5842 H   0  0  0  0  0  0  0  0  0  0  0  0
    1.3575    0.7185    2.7304 H   0  0  0  0  0  0  0  0  0  0  0  0
   -1.3361   -2.9378    2.3112 H   0  0  0  0  0  0  0  0  0  0  0  0
    0.4172   -3.0247    2.3215 H   0  0  0  0  0  0  0  0  0  0  0  0
    0.4749   -2.0036    0.0106 H   0  0  0  0  0  0  0  0  0  0  0  0
   -1.2880   -1.9066    0.0221 H   0  0  0  0  0  0  0  0  0  0  0  0
   -0.4805   -3.4830    0.0303 H   0  0  0  0  0  0  0  0  0  0  0  0
    1.4409    0.1107   -0.3460 C   0  0  0  0  0  3  0  0  0  0  0  0
    1.0553    1.5277   -0.7372 C   0  0  0  0  0  0  0  0  0  0  0  0
   -0.6662    1.7357   -1.2582 S   0  0  0  0  0  0  0  0  0  0  0  0
   -0.7654    0.6380   -2.6947 C   0  0  0  0  0  0  0  0  0  0  0  0
    0.1767    0.9862   -3.8351 C   0  0  0  0  0  0  0  0  0  0  0  0
    1.3911   -0.5670   -1.2000 H   0  0  0  0  0  0  0  0  0  0  0  0
    2.4656    0.0875    0.0312 H   0  0  0  0  0  0  0  0  0  0  0  0
    1.7188    1.9122   -1.5135 H   0  0  0  0  0  0  0  0  0  0  0  0
    1.1503    2.1986    0.1182 H   0  0  0  0  0  0  0  0  0  0  0  0
   -0.6234   -0.3951   -2.3730 H   0  0  0  0  0  0  0  0  0  0  0  0
   -1.8041    0.7266   -3.0175 H   0  0  0  0  0  0  0  0  0  0  0  0
    1.2208    0.8635   -3.5423 H   0  0  0  0  0  0  0  0  0  0  0  0
   -0.0033    0.3294   -4.6890 H   0  0  0  0  0  0  0  0  0  0  0  0
    0.0345    2.0187   -4.1562 H   0  0  0  0  0  0  0  0  0  0  0  0
  1  2  1  0
  1  5  1  0
  1  6  1  0
  1  7  1  0
  2  3  1  0
  3  4  1  0
  3  8  1  0
  3  9  1  0
  4 10  1  0
  4 11  1  0
  4 12  1  0
 13 14  1  0
 13 18  1  0
 13 19  1  0
 14 15  1  0
 14 20  1  0
 14 21  1  0
 15 16  1  0
 16 17  1  0
 16 22  1  0
 16 23  1  0
 17 24  1  0
 17 25  1  0
 17 26  1  0
M  RAD  1  13   2
M  END
>  <reaction>  (12) 
rmg_rxn_531

>  <mol_properties>  (12) 
{"0": {"label": "*1", "atom_type": "Cs"}, "1": {"label": "*0", "atom_type": "S2s"}, "4": {"label": "*2", "atom_type": "H0"}, "12": {"label": "*3", "atom_type": "Cs"}, "13": {"label": "*4", "atom_type": "Cs"}}

>  <type>  (12) 
unop_8

>  <geom_source>  (12) 
Heuristics

$$$$

     RDKit          3D

 26 24  0  0  0  0  0  0  0  0999 V2000
    1.3951    0.2437    2.2371 C   0  0  0  0  0  0  0  0  0  0  0  0
   -0.2480   -0.3351    2.6948 S   0  0  0  0  0  0  0  0  0  0  0  0
   -0.2480   -1.9753    1.9312 C   0  0  0  0  0  0  0  0  0  0  0  0
   -0.2480   -1.9753    0.4108 C   0  0  0  0  0  0  0  0  0  0  0  0
    1.5100    0.4194    0.9467 H   0  0  0  0  0  0  0  0  0  0  0  0
    2.1621   -0.4493    2.5852 H   0  0  0  0  0  0  0  0  0  0  0  0
    1.5416    1.2031    2.7314 H   0  0  0  0  0  0  0  0  0  0  0  0
   -1.1520   -2.4532    2.3121 H   0  0  0  0  0  0  0  0  0  0  0  0
    0.6013   -2.5401    2.3225 H   0  0  0  0  0  0  0  0  0  0  0  0
    0.6590   -1.5191    0.0115 H   0  0  0  0  0  0  0  0  0  0  0  0
   -1.1039   -1.4220    0.0231 H   0  0  0  0  0  0  0  0  0  0  0  0
   -0.2964   -2.9985    0.0313 H   0  0  0  0  0  0  0  0  0  0  0  0
    1.6249    0.5952   -0.3450 C   0  0  0  0  0  3  0  0  0  0  0  0
    0.6244    1.6246   -0.8437 C   0  0  0  0  0  0  0  0  0  0  0  0
   -1.0060    0.9626   -1.2703 S   0  0  0  0  0  0  0  0  0  0  0  0
   -0.6071   -0.2152   -2.5863 C   0  0  0  0  0  0  0  0  0  0  0  0
    0.0532    0.3921   -3.8130 C   0  0  0  0  0  0  0  0  0  0  0  0
    1.8818   -0.1229   -1.1256 H   0  0  0  0  0  0  0  0  0  0  0  0
    2.5499    1.0859   -0.0341 H   0  0  0  0  0  0  0  0  0  0  0  0
    1.0255    2.1784   -1.6942 H   0  0  0  0  0  0  0  0  0  0  0  0
    0.4107    2.3576   -0.0640 H   0  0  0  0  0  0  0  0  0  0  0  0
   -0.0005   -1.0250   -2.1775 H   0  0  0  0  0  0  0  0  0  0  0  0
   -1.5738   -0.6482   -2.8486 H   0  0  0  0  0  0  0  0  0  0  0  0
    1.0400    0.7941   -3.5776 H   0  0  0  0  0  0  0  0  0  0  0  0
    0.1848   -0.3671   -4.5871 H   0  0  0  0  0  0  0  0  0  0  0  0
   -0.5532    1.2015   -4.2211 H   0  0  0  0  0  0  0  0  0  0  0  0
  1  2  1  0
  1  5  1  0
  1  6  1  0
  1  7  1  0
  2  3  1  0
  3  4  1  0
  3  8  1  0
  3  9  1  0
  4 10  1  0
  4 11  1  0
  4 12  1  0
 13 14  1  0
 13 18  1  0
 13 19  1  0
 14 15  1  0
 14 20  1  0
 14 21  1  0
 15 16  1  0
 16 17  1  0
 16 22  1  0
 16 23  1  0
 17 24  1  0
 17 25  1  0
 17 26  1  0
M  RAD  1  13   2
M  END
>  <reaction>  (13) 
rmg_rxn_531

>  <mol_properties>  (13) 
{"0": {"label": "*1", "atom_type": "Cs"}, "1": {"label": "*0", "atom_type": "S2s"}, "4": {"label": "*2", "atom_type": "H0"}, "12": {"label": "*3", "atom_type": "Cs"}, "13": {"label": "*4", "atom_type": "Cs"}}

>  <type>  (13) 
unop_9

>  <geom_source>  (13) 
Heuristics

$$$$

     RDKit          3D

 26 24  0  0  0  0  0  0  0  0999 V2000
   -0.6098   -0.0830    1.2846 C   0  0  0  0  0  0  0  0  0  0  0  0
   -2.2530   -0.6619    1.7424 S   0  0  0  0  0  0  0  0  0  0  0  0
   -2.2530   -2.3020    0.9787 C   0  0  0  0  0  0  0  0  0  0  0  0
   -2.2530   -2.3020   -0.5417 C   0  0  0  0  0  0  0  0  0  0  0  0
   -0.4950    0.0926   -0.0058 H   0  0  0  0  0  0  0  0  0  0  0  0
    0.1572   -0.7761    1.6327 H   0  0  0  0  0  0  0  0  0  0  0  0
   -0.4634    0.8763    1.7789 H   0  0  0  0  0  0  0  0  0  0  0  0
   -3.1570   -2.7800    1.3596 H   0  0  0  0  0  0  0  0  0  0  0  0
   -1.4037   -2.8669    1.3700 H   0  0  0  0  0  0  0  0  0  0  0  0
   -1.3460   -1.8458   -0.9410 H   0  0  0  0  0  0  0  0  0  0  0  0
   -3.1089   -1.7488   -0.9294 H   0  0  0  0  0  0  0  0  0  0  0  0
   -2.3014   -3.3252   -0.9212 H   0  0  0  0  0  0  0  0  0  0  0  0
   -0.3800    0.2685   -1.2975 C   0  0  0  0  0  3  0  0  0  0  0  0
    1.0500    0.0287   -1.7527 C   0  0  0  0  0  0  0  0  0  0  0  0
    2.3133    0.3135   -0.4874 S   0  0  0  0  0  0  0  0  0  0  0  0
    2.0657    2.0620   -0.0877 C   0  0  0  0  0  0  0  0  0  0  0  0
    2.2590    3.0202   -1.2514 C   0  0  0  0  0  0  0  0  0  0  0  0
   -0.5513    1.3186   -1.0551 H   0  0  0  0  0  0  0  0  0  0  0  0
   -1.0804   -0.0030   -2.0905 H   0  0  0  0  0  0  0  0  0  0  0  0
    1.2822    0.6227   -2.6382 H   0  0  0  0  0  0  0  0  0  0  0  0
    1.1916   -1.0172   -2.0298 H   0  0  0  0  0  0  0  0  0  0  0  0
    1.0830    2.1949    0.3679 H   0  0  0  0  0  0  0  0  0  0  0  0
    2.8030    2.2566    0.6929 H   0  0  0  0  0  0  0  0  0  0  0  0
    1.5040    2.8671   -2.0244 H   0  0  0  0  0  0  0  0  0  0  0  0
    2.1725    4.0538   -0.9091 H   0  0  0  0  0  0  0  0  0  0  0  0
    3.2410    2.8870   -1.7065 H   0  0  0  0  0  0  0  0  0  0  0  0
  1  2  1  0
  1  5  1  0
  1  6  1  0
  1  7  1  0
  2  3  1  0
  3  4  1  0
  3  8  1  0
  3  9  1  0
  4 10  1  0
  4 11  1  0
  4 12  1  0
 13 14  1  0
 13 18  1  0
 13 19  1  0
 14 15  1  0
 14 20  1  0
 14 21  1  0
 15 16  1  0
 16 17  1  0
 16 22  1  0
 16 23  1  0
 17 24  1  0
 17 25  1  0
 17 26  1  0
M  RAD  1  13   2
M  END
>  <reaction>  (14) 
rmg_rxn_531

>  <mol_properties>  (14) 
{"0": {"label": "*1", "atom_type": "Cs"}, "1": {"label": "*0", "atom_type": "S2s"}, "4": {"label": "*2", "atom_type": "H0"}, "12": {"label": "*3", "atom_type": "Cs"}, "13": {"label": "*4", "atom_type": "Cs"}}

>  <type>  (14) 
unop_10

>  <geom_source>  (14) 
Heuristics

$$$$

     RDKit          3D

 26 24  0  0  0  0  0  0  0  0999 V2000
    1.0298    1.2539    1.9543 C   0  0  0  0  0  0  0  0  0  0  0  0
   -0.6134    0.6751    2.4121 S   0  0  0  0  0  0  0  0  0  0  0  0
   -0.6134   -0.9650    1.6484 C   0  0  0  0  0  3  0  0  0  0  0  0
   -0.6134   -0.9650    0.1281 C   0  0  0  0  0  0  0  0  0  0  0  0
    1.1446    1.4296    0.6639 H   0  0  0  0  0  0  0  0  0  0  0  0
    1.7968    0.5609    2.3024 H   0  0  0  0  0  0  0  0  0  0  0  0
    1.1762    2.2133    2.4486 H   0  0  0  0  0  0  0  0  0  0  0  0
   -1.5174   -1.4430    2.0294 H   0  0  0  0  0  0  0  0  0  0  0  0
    0.2359   -1.5299    2.0397 H   0  0  0  0  0  0  0  0  0  0  0  0
    0.2936   -0.5089   -0.2712 H   0  0  0  0  0  0  0  0  0  0  0  0
   -1.4693   -0.4118   -0.2597 H   0  0  0  0  0  0  0  0  0  0  0  0
   -0.6618   -1.9883   -0.2515 H   0  0  0  0  0  0  0  0  0  0  0  0
    1.2596    1.6054   -0.6278 C   0  0  0  0  0  3  0  0  0  0  0  0
   -0.0388    1.2634   -1.3397 C   0  0  0  0  0  0  0  0  0  0  0  0
   -0.6761   -0.3993   -1.0114 S   0  0  0  0  0  3  0  0  0  0  0  0
    0.6685   -1.4497   -1.6172 C   0  0  0  0  0  0  0  0  0  0  0  0
    0.9922   -1.2907   -3.0935 C   0  0  0  0  0  0  0  0  0  0  0  0
    2.0846    0.9850   -0.9818 H   0  0  0  0  0  0  0  0  0  0  0  0
    1.5301    2.6472   -0.8134 H   0  0  0  0  0  0  0  0  0  0  0  0
    0.0567    1.4098   -2.4169 H   0  0  0  0  0  0  0  0  0  0  0  0
   -0.8426    1.9203   -1.0033 H   0  0  0  0  0  0  0  0  0  0  0  0
    1.5572   -1.2921   -1.0038 H   0  0  0  0  0  0  0  0  0  0  0  0
    0.3195   -2.4627   -1.4103 H   0  0  0  0  0  0  0  0  0  0  0  0
    1.3819   -0.2950   -3.3120 H   0  0  0  0  0  0  0  0  0  0  0  0
    1.7536   -2.0137   -3.3942 H   0  0  0  0  0  0  0  0  0  0  0  0
    0.1038   -1.4482   -3.7061 H   0  0  0  0  0  0  0  0  0  0  0  0
  1  2  1  0
  1  5  1  0
  1  6  1  0
  1  7  1  0
  2  3  1  0
  3  8  1  0
  3  9  1  0
  4 15  1  0
  4 10  1  0
  4 11  1  0
  4 12  1  0
 13 14  1  0
 13 18  1  0
 13 19  1  0
 14 15  1  0
 14 20  1  0
 14 21  1  0
 15 16  1  0
 16 17  1  0
 16 22  1  0
 16 23  1  0
 17 24  1  0
 17 25  1  0
 17 26  1  0
M  CHG  2  13  -1  15   1
M  RAD  1   3   2
M  END
>  <reaction>  (15) 
rmg_rxn_531

>  <mol_properties>  (15) 
{"0": {"label": "*1", "atom_type": "Cs"}, "1": {"label": "*0", "atom_type": "S2s"}, "4": {"label": "*2", "atom_type": "H0"}, "12": {"label": "*3", "atom_type": "Cs"}, "13": {"label": "*4", "atom_type": "Cs"}}

>  <type>  (15) 
unop_11

>  <geom_source>  (15) 
Heuristics

$$$$

     RDKit          3D

 26 24  0  0  0  0  0  0  0  0999 V2000
   -2.1043    0.3600   -1.4868 S   0  0  0  0  0  0  0  0  0  0  0  0
    2.5402   -0.0244   -0.9572 S   0  0  0  0  0  0  0  0  0  0  0  0
   -2.0982   -1.3375   -0.8103 C   0  0  0  0  0  0  0  0  0  0  0  0
   -3.3583    1.0215   -0.3356 C   0  0  0  0  0  0  0  0  0  0  0  0
    4.0918   -0.4298   -0.0794 C   0  0  0  0  0  0  0  0  0  0  0  0
   -1.1053   -1.4536    0.3375 C   0  0  0  0  0  0  0  0  0  0  0  0
   -3.5937    2.4971   -0.6199 C   0  0  0  0  0  0  0  0  0  0  0  0
    4.3396    0.5488    1.0612 C   0  0  0  0  0  0  0  0  0  0  0  0
    1.4454   -0.9784    0.1439 C   0  0  0  0  0  3  0  0  0  0  0  0
   -1.7866   -2.0302   -1.6198 H   0  0  0  0  0  0  0  0  0  0  0  0
   -3.1120   -1.6404   -0.4724 H   0  0  0  0  0  0  0  0  0  0  0  0
   -3.0117    0.9052    0.7123 H   0  0  0  0  0  0  0  0  0  0  0  0
   -4.3133    0.4695   -0.4666 H   0  0  0  0  0  0  0  0  0  0  0  0
    4.0731   -1.4709    0.3074 H   0  0  0  0  0  0  0  0  0  0  0  0
    4.9290   -0.3513   -0.8045 H   0  0  0  0  0  0  0  0  0  0  0  0
   -1.4070   -0.8016    1.1829 H   0  0  0  0  0  0  0  0  0  0  0  0
   -1.0709   -2.5042    0.6950 H   0  0  0  0  0  0  0  0  0  0  0  0
    0.0869   -1.1082   -0.0696 H   0  0  0  0  0  0  0  0  0  0  0  0
   -4.3582    2.8947    0.0804 H   0  0  0  0  0  0  0  0  0  0  0  0
   -3.9567    2.6330   -1.6607 H   0  0  0  0  0  0  0  0  0  0  0  0
   -2.6509    3.0680   -0.4822 H   0  0  0  0  0  0  0  0  0  0  0  0
    4.3704    1.5888    0.6727 H   0  0  0  0  0  0  0  0  0  0  0  0
    3.5400    0.4674    1.8260 H   0  0  0  0  0  0  0  0  0  0  0  0
    5.3135    0.3192    1.5425 H   0  0  0  0  0  0  0  0  0  0  0  0
    1.7111   -2.0557    0.1226 H   0  0  0  0  0  0  0  0  0  0  0  0
    1.4863   -0.5872    1.1806 H   0  0  0  0  0  0  0  0  0  0  0  0
  1  3  1  0
  1  4  1  0
  2  9  1  0
  2  5  1  0
  3  6  1  0
  3 10  1  0
  3 11  1  0
  4  7  1  0
  4 12  1  0
  4 13  1  0
  5  8  1  0
  5 14  1  0
  5 15  1  0
  6 16  1  0
  6 17  1  0
  6 18  1  0
  7 19  1  0
  7 20  1  0
  7 21  1  0
  8 22  1  0
  8 23  1  0
  8 24  1  0
  9 25  1  0
  9 26  1  0
M  RAD  1   9   2
M  END
>  <reaction>  (16) 
rmg_rxn_531

>  <mol_properties>  (16) 
{"0": {"label": "*1", "atom_type": "Cs"}, "1": {"label": "*0", "atom_type": "S2s"}, "4": {"label": "*2", "atom_type": "H0"}, "12": {"label": "*3", "atom_type": "Cs"}, "13": {"label": "*4", "atom_type": "Cs"}}

>  <type>  (16) 
unop_12

>  <geom_source>  (16) 
AutoTST

$$$$

     RDKit          3D

 26 24  0  0  0  0  0  0  0  0999 V2000
    1.3378    0.7983    2.1467 C   0  0  0  0  0  0  0  0  0  0  0  0
   -0.3053    0.2195    2.6045 S   0  0  0  0  0  0  0  0  0  0  0  0
   -0.3053   -1.4206    1.8409 C   0  0  0  0  0  0  0  0  0  0  0  0
   -0.3053   -1.4206    0.3205 C   0  0  0  0  0  0  0  0  0  0  0  0
    1.4527    0.9740    0.8563 H   0  0  0  0  0  0  0  0  0  0  0  0
    2.1048    0.1053    2.4948 H   0  0  0  0  0  0  0  0  0  0  0  0
    1.4843    1.7577    2.6410 H   0  0  0  0  0  0  0  0  0  0  0  0
   -1.2093   -1.8986    2.2218 H   0  0  0  0  0  0  0  0  0  0  0  0
    0.5440   -1.9855    2.2321 H   0  0  0  0  0  0  0  0  0  0  0  0
    0.6017   -0.9645   -0.0788 H   0  0  0  0  0  0  0  0  0  0  0  0
   -1.1613   -0.8674   -0.0673 H   0  0  0  0  0  0  0  0  0  0  0  0
   -0.3537   -2.4439   -0.0591 H   0  0  0  0  0  0  0  0  0  0  0  0
    1.5676    1.1498   -0.4354 C   0  0  0  0  0  3  0  0  0  0  0  0
    0.2329    1.5354   -1.0515 C   0  0  0  0  0  0  0  0  0  0  0  0
   -0.9722    0.1894   -1.1699 S   0  0  0  0  0  0  0  0  0  0  0  0
   -0.1118   -1.0011   -2.2285 C   0  0  0  0  0  0  0  0  0  0  0  0
    0.2442   -0.4882   -3.6141 C   0  0  0  0  0  0  0  0  0  0  0  0
    2.1045    0.4347   -1.0609 H   0  0  0  0  0  0  0  0  0  0  0  0
    2.2031    2.0314   -0.3263 H   0  0  0  0  0  0  0  0  0  0  0  0
    0.3731    1.9852   -2.0358 H   0  0  0  0  0  0  0  0  0  0  0  0
   -0.2708    2.2810   -0.4341 H   0  0  0  0  0  0  0  0  0  0  0  0
    0.7738   -1.3737   -1.7111 H   0  0  0  0  0  0  0  0  0  0  0  0
   -0.8095   -1.8372   -2.2990 H   0  0  0  0  0  0  0  0  0  0  0  0
    0.9733    0.3223   -3.5648 H   0  0  0  0  0  0  0  0  0  0  0  0
    0.6842   -1.2888   -4.2127 H   0  0  0  0  0  0  0  0  0  0  0  0
   -0.6411   -0.1158   -4.1308 H   0  0  0  0  0  0  0  0  0  0  0  0
  1  2  1  0
  1  5  1  0
  1  6  1  0
  1  7  1  0
  2  3  1  0
  3  4  1  0
  3  8  1  0
  3  9  1  0
  4 10  1  0
  4 11  1  0
  4 12  1  0
 13 14  1  0
 13 18  1  0
 13 19  1  0
 14 15  1  0
 14 20  1  0
 14 21  1  0
 15 16  1  0
 16 17  1  0
 16 22  1  0
 16 23  1  0
 17 24  1  0
 17 25  1  0
 17 26  1  0
M  RAD  1  13   2
M  END
>  <reaction>  (17) 
rmg_rxn_531

>  <mol_properties>  (17) 
{"0": {"label": "*1", "atom_type": "Cs"}, "1": {"label": "*0", "atom_type": "S2s"}, "4": {"label": "*2", "atom_type": "H0"}, "12": {"label": "*3", "atom_type": "Cs"}, "13": {"label": "*4", "atom_type": "Cs"}}

>  <type>  (17) 
unop_13

>  <geom_source>  (17) 
gaussian_log

$$$$
