
     RDKit          3D

  6  5  0  0  0  0  0  0  0  0999 V2000
   -0.4547   -0.0097   -0.0070 C   0  0  0  0  0  0  0  0  0  0  0  0
    0.8695   -0.1987   -0.6218 N   0  0  0  0  0  0  0  0  0  0  0  0
    1.0322   -1.2809   -1.0969 O   0  0  0  0  0  0  0  0  0  0  0  0
   -0.2820    0.2687    1.0347 H   0  0  0  0  0  0  0  0  0  0  0  0
   -1.0716   -0.9051   -0.0916 H   0  0  0  0  0  0  0  0  0  0  0  0
   -0.9130    0.8487   -0.5026 H   0  0  0  0  0  0  0  0  0  0  0  0
  1  2  1  0
  1  4  1  0
  1  5  1  0
  1  6  1  0
  2  3  2  0
M  END
>  <reaction>  (1) 
rmg_rxn_587

>  <mol_properties>  (1) 
{"0": {"label": "donator", "atom_type": "Cs"}, "3": {"label": "d_hydrogen", "atom_type": "H0"}}

>  <type>  (1) 
r1h

$$$$

     RDKit          3D

 13 12  0  0  0  0  0  0  0  0999 V2000
    2.0654   -0.2739   -0.0844 C   0  0  0  0  0  3  0  0  0  0  0  0
    0.6326   -0.4110   -0.4406 C   0  0  0  0  0  0  0  0  0  0  0  0
   -0.3055    0.4151    0.4359 C   0  0  0  0  0  0  0  0  0  0  0  0
   -1.7714    0.2357    0.0671 C   0  0  0  0  0  0  0  0  0  0  0  0
    2.3610    0.0676    0.8995 H   0  0  0  0  0  0  0  0  0  0  0  0
    2.8408   -0.6127   -0.7582 H   0  0  0  0  0  0  0  0  0  0  0  0
    0.3313   -1.4695   -0.3768 H   0  0  0  0  0  0  0  0  0  0  0  0
    0.4826   -0.1432   -1.4940 H   0  0  0  0  0  0  0  0  0  0  0  0
   -0.1518    0.1351    1.4826 H   0  0  0  0  0  0  0  0  0  0  0  0
   -0.0303    1.4705    0.3565 H   0  0  0  0  0  0  0  0  0  0  0  0
   -2.0768   -0.8084    0.1692 H   0  0  0  0  0  0  0  0  0  0  0  0
   -1.9546    0.5339   -0.9679 H   0  0  0  0  0  0  0  0  0  0  0  0
   -2.4194    0.8370    0.7066 H   0  0  0  0  0  0  0  0  0  0  0  0
  1  2  1  0
  1  5  1  0
  1  6  1  0
  2  3  1  0
  2  7  1  0
  2  8  1  0
  3  4  1  0
  3  9  1  0
  3 10  1  0
  4 11  1  0
  4 12  1  0
  4 13  1  0
M  RAD  1   1   2
M  END
>  <reaction>  (2) 
rmg_rxn_587

>  <mol_properties>  (2) 
{"0": {"label": "acceptor", "atom_type": "Cs"}}

>  <type>  (2) 
r2

$$$$

     RDKit          3D

 14 13  0  0  0  0  0  0  0  0999 V2000
    1.8106   -0.5953    0.5577 C   0  0  0  0  0  0  0  0  0  0  0  0
    0.5197    0.2064    0.6554 C   0  0  0  0  0  0  0  0  0  0  0  0
   -0.5206   -0.2080   -0.3788 C   0  0  0  0  0  0  0  0  0  0  0  0
   -1.8114    0.5937   -0.2812 C   0  0  0  0  0  0  0  0  0  0  0  0
    2.2725   -0.4752   -0.4251 H   0  0  0  0  0  0  0  0  0  0  0  0
    1.6214   -1.6612    0.7052 H   0  0  0  0  0  0  0  0  0  0  0  0
    2.5364   -0.2784    1.3084 H   0  0  0  0  0  0  0  0  0  0  0  0
    0.0930    0.0950    1.6574 H   0  0  0  0  0  0  0  0  0  0  0  0
    0.7393    1.2723    0.5354 H   0  0  0  0  0  0  0  0  0  0  0  0
   -0.7402   -1.2739   -0.2588 H   0  0  0  0  0  0  0  0  0  0  0  0
   -0.0938   -0.0965   -1.3808 H   0  0  0  0  0  0  0  0  0  0  0  0
   -1.6222    1.6596   -0.4287 H   0  0  0  0  0  0  0  0  0  0  0  0
   -2.2734    0.4736    0.7017 H   0  0  0  0  0  0  0  0  0  0  0  0
   -2.5373    0.2768   -1.0318 H   0  0  0  0  0  0  0  0  0  0  0  0
  1  2  1  0
  1  5  1  0
  1  6  1  0
  1  7  1  0
  2  3  1  0
  2  8  1  0
  2  9  1  0
  3  4  1  0
  3 10  1  0
  3 11  1  0
  4 12  1  0
  4 13  1  0
  4 14  1  0
M  END
>  <reaction>  (3) 
rmg_rxn_587

>  <mol_properties>  (3) 
{"0": {"label": "a_hydrogen", "atom_type": "H0"}, "1": {"label": "acceptor", "atom_type": "Cs"}}

>  <type>  (3) 
r2h

$$$$

     RDKit          3D

 19 17  0  0  0  0  0  0  0  0999 V2000
    1.7541    1.0018   -1.0458 C   0  0  0  0  0  0  0  0  0  0  0  0
    2.8308    0.1999   -0.5842 N   0  0  0  0  0  0  0  0  0  0  0  0
    2.5742   -0.9796   -0.4834 O   0  0  0  0  0  0  0  0  0  0  0  0
    1.0028    1.1328   -0.0561 H   0  0  0  0  0  0  0  0  0  0  0  0
    1.1137    0.5033   -1.7756 H   0  0  0  0  0  0  0  0  0  0  0  0
    2.0828    1.9993   -1.3233 H   0  0  0  0  0  0  0  0  0  0  0  0
    0.0156    1.1032    1.0197 C   0  0  0  0  0  3  0  0  0  0  0  0
   -0.9754    0.0485    0.6357 C   0  0  0  0  0  0  0  0  0  0  0  0
   -2.0545   -0.1586    1.7055 C   0  0  0  0  0  0  0  0  0  0  0  0
   -3.0614   -1.2311    1.3112 C   0  0  0  0  0  0  0  0  0  0  0  0
    0.6820    0.8689    1.8464 H   0  0  0  0  0  0  0  0  0  0  0  0
   -0.3347    2.1327    1.0220 H   0  0  0  0  0  0  0  0  0  0  0  0
   -0.4550   -0.8974    0.4628 H   0  0  0  0  0  0  0  0  0  0  0  0
   -1.4598    0.3190   -0.3075 H   0  0  0  0  0  0  0  0  0  0  0  0
   -1.5743   -0.4313    2.6494 H   0  0  0  0  0  0  0  0  0  0  0  0
   -2.5722    0.7883    1.8839 H   0  0  0  0  0  0  0  0  0  0  0  0
   -2.5673   -2.1922    1.1540 H   0  0  0  0  0  0  0  0  0  0  0  0
   -3.5741   -0.9655    0.3840 H   0  0  0  0  0  0  0  0  0  0  0  0
   -3.8182   -1.3659    2.0852 H   0  0  0  0  0  0  0  0  0  0  0  0
  1  2  1  0
  1  4  1  0
  1  5  1  0
  1  6  1  0
  2  3  2  0
  7  8  1  0
  7 11  1  0
  7 12  1  0
  8  9  1  0
  8 13  1  0
  8 14  1  0
  9 10  1  0
  9 15  1  0
  9 16  1  0
 10 17  1  0
 10 18  1  0
 10 19  1  0
M  RAD  1   7   2
M  END
>  <reaction>  (4) 
rmg_rxn_587

>  <mol_properties>  (4) 
{"0": {"label": "*1", "atom_type": "Cs"}, "1": {"label": "*0", "atom_type": "N3d"}, "3": {"label": "*2", "atom_type": "H0"}, "6": {"label": "*3", "atom_type": "Cs"}, "7": {"label": "*4", "atom_type": "Cs"}}

>  <type>  (4) 
ts

$$$$

     RDKit          3D

 19 17  0  0  0  0  0  0  0  0999 V2000
    1.2379   -0.1362   -1.5322 C   0  0  0  0  0  0  0  0  0  0  0  0
    1.2379   -1.4819   -2.1290 N   0  0  0  0  0  0  0  0  0  0  0  0
    1.2379   -1.4819   -3.3221 O   0  0  0  0  0  1  0  0  0  0  0  0
    0.1819   -0.0648   -0.7596 H   0  0  0  0  0  0  0  0  0  0  0  0
    1.2379    0.6443   -2.2940 H   0  0  0  0  0  0  0  0  0  0  0  0
    2.1179   -0.0767   -0.8884 H   0  0  0  0  0  0  0  0  0  0  0  0
   -0.8733    0.0066    0.0124 C   0  0  0  0  0  0  0  0  0  0  0  0
   -0.4891    0.2830    1.4596 C   0  0  0  0  0  0  0  0  0  0  0  0
   -1.4304    1.2625    2.1510 C   0  0  0  0  0  0  0  0  0  0  0  0
   -1.0462    1.5390    3.5982 C   0  0  0  0  0  0  0  0  0  0  0  0
   -0.8655    0.9264   -0.5772 H   0  0  0  0  0  0  0  0  0  0  0  0
   -1.8782   -0.4177   -0.0516 H   0  0  0  0  0  0  0  0  0  0  0  0
    0.5313    0.6778    1.4998 H   0  0  0  0  0  0  0  0  0  0  0  0
   -0.4739   -0.6565    2.0215 H   0  0  0  0  0  0  0  0  0  0  0  0
   -1.4456    2.2020    1.5891 H   0  0  0  0  0  0  0  0  0  0  0  0
   -2.4508    0.8678    2.1108 H   0  0  0  0  0  0  0  0  0  0  0  0
   -0.0414    1.9632    3.6622 H   0  0  0  0  0  0  0  0  0  0  0  0
   -1.0540    0.6191    4.1878 H   0  0  0  0  0  0  0  0  0  0  0  0
   -1.7357    2.2422    4.0682 H   0  0  0  0  0  0  0  0  0  0  0  0
  1  2  2  3
  1  5  1  0
  1  6  1  0
  2  3  1  0
  4  7  1  0
  7  8  1  0
  7 11  1  0
  7 12  1  0
  8  9  1  0
  8 13  1  0
  8 14  1  0
  9 10  1  0
  9 15  1  0
  9 16  1  0
 10 17  1  0
 10 18  1  0
 10 19  1  0
M  RAD  1   3   2
M  END
>  <reaction>  (5) 
rmg_rxn_587

>  <mol_properties>  (5) 
{"0": {"label": "*1", "atom_type": "Cs"}, "1": {"label": "*0", "atom_type": "N3d"}, "3": {"label": "*2", "atom_type": "H0"}, "6": {"label": "*3", "atom_type": "Cs"}, "7": {"label": "*4", "atom_type": "Cs"}}

>  <type>  (5) 
unop_1

>  <geom_source>  (5) 
Heuristics

$$$$

     RDKit          3D

 19 17  0  0  0  0  0  0  0  0999 V2000
    1.6574    1.0553   -1.1877 C   0  0  0  0  0  0  0  0  0  0  0  0
    1.6574   -0.2905   -1.7845 N   0  0  0  0  0  0  0  0  0  0  0  0
    1.6574   -0.2905   -2.9776 O   0  0  0  0  0  1  0  0  0  0  0  0
    0.6014    1.1267   -0.4151 H   0  0  0  0  0  0  0  0  0  0  0  0
    1.6574    1.8357   -1.9495 H   0  0  0  0  0  0  0  0  0  0  0  0
    2.5374    1.1148   -0.5439 H   0  0  0  0  0  0  0  0  0  0  0  0
   -0.4538    1.1980    0.3569 C   0  0  0  0  0  0  0  0  0  0  0  0
   -0.8199   -0.1644    0.9300 C   0  0  0  0  0  0  0  0  0  0  0  0
   -1.7366   -0.0748    2.1446 C   0  0  0  0  0  0  0  0  0  0  0  0
   -2.1027   -1.4372    2.7177 C   0  0  0  0  0  0  0  0  0  0  0  0
    0.0616    1.8099    1.1010 H   0  0  0  0  0  0  0  0  0  0  0  0
   -1.3470    1.7433    0.0429 H   0  0  0  0  0  0  0  0  0  0  0  0
    0.0918   -0.7029    1.2082 H   0  0  0  0  0  0  0  0  0  0  0  0
   -1.3065   -0.7690    0.1578 H   0  0  0  0  0  0  0  0  0  0  0  0
   -1.2500    0.5298    2.9168 H   0  0  0  0  0  0  0  0  0  0  0  0
   -2.6483    0.4637    1.8665 H   0  0  0  0  0  0  0  0  0  0  0  0
   -1.2095   -1.9825    3.0318 H   0  0  0  0  0  0  0  0  0  0  0  0
   -2.6181   -2.0491    1.9737 H   0  0  0  0  0  0  0  0  0  0  0  0
   -2.7584   -1.3437    3.5849 H   0  0  0  0  0  0  0  0  0  0  0  0
  1  2  2  3
  1  5  1  0
  1  6  1  0
  2  3  1  0
  4  7  1  0
  7  8  1  0
  7 11  1  0
  7 12  1  0
  8  9  1  0
  8 13  1  0
  8 14  1  0
  9 10  1  0
  9 15  1  0
  9 16  1  0
 10 17  1  0
 10 18  1  0
 10 19  1  0
M  RAD  1   3   2
M  END
>  <reaction>  (6) 
rmg_rxn_587

>  <mol_properties>  (6) 
{"0": {"label": "*1", "atom_type": "Cs"}, "1": {"label": "*0", "atom_type": "N3d"}, "3": {"label": "*2", "atom_type": "H0"}, "6": {"label": "*3", "atom_type": "Cs"}, "7": {"label": "*4", "atom_type": "Cs"}}

>  <type>  (6) 
unop_2

>  <geom_source>  (6) 
Heuristics

$$$$

     RDKit          3D

 19 17  0  0  0  0  0  0  0  0999 V2000
    1.4243   -0.4211   -1.3204 C   0  0  0  0  0  0  0  0  0  0  0  0
    1.4243   -1.7669   -1.9173 N   0  0  0  0  0  0  0  0  0  0  0  0
    1.4243   -1.7669   -3.1104 O   0  0  0  0  0  1  0  0  0  0  0  0
    0.3683   -0.3497   -0.5479 H   0  0  0  0  0  0  0  0  0  0  0  0
    1.4243    0.3594   -2.0822 H   0  0  0  0  0  0  0  0  0  0  0  0
    2.3043   -0.3616   -0.6766 H   0  0  0  0  0  0  0  0  0  0  0  0
   -0.6870   -0.2784    0.2242 C   0  0  0  0  0  0  0  0  0  0  0  0
   -0.4566    0.6616    1.3998 C   0  0  0  0  0  0  0  0  0  0  0  0
   -1.7370    1.3243    1.8946 C   0  0  0  0  0  0  0  0  0  0  0  0
   -1.5066    2.2642    3.0702 C   0  0  0  0  0  0  0  0  0  0  0  0
   -1.1183    0.2561   -0.6256 H   0  0  0  0  0  0  0  0  0  0  0  0
   -1.3776   -1.0808    0.4941 H   0  0  0  0  0  0  0  0  0  0  0  0
    0.2613    1.4374    1.1146 H   0  0  0  0  0  0  0  0  0  0  0  0
    0.0039    0.1103    2.2260 H   0  0  0  0  0  0  0  0  0  0  0  0
   -2.1975    1.8755    1.0683 H   0  0  0  0  0  0  0  0  0  0  0  0
   -2.4549    0.5484    2.1798 H   0  0  0  0  0  0  0  0  0  0  0  0
   -0.8160    3.0666    2.8002 H   0  0  0  0  0  0  0  0  0  0  0  0
   -1.0753    1.7297    3.9199 H   0  0  0  0  0  0  0  0  0  0  0  0
   -2.4383    2.7241    3.4036 H   0  0  0  0  0  0  0  0  0  0  0  0
  1  2  2  3
  1  5  1  0
  1  6  1  0
  2  3  1  0
  4  7  1  0
  7  8  1  0
  7 11  1  0
  7 12  1  0
  8  9  1  0
  8 13  1  0
  8 14  1  0
  9 10  1  0
  9 15  1  0
  9 16  1  0
 10 17  1  0
 10 18  1  0
 10 19  1  0
M  RAD  1   3   2
M  END
>  <reaction>  (7) 
rmg_rxn_587

>  <mol_properties>  (7) 
{"0": {"label": "*1", "atom_type": "Cs"}, "1": {"label": "*0", "atom_type": "N3d"}, "3": {"label": "*2", "atom_type": "H0"}, "6": {"label": "*3", "atom_type": "Cs"}, "7": {"label": "*4", "atom_type": "Cs"}}

>  <type>  (7) 
unop_3

>  <geom_source>  (7) 
Heuristics

$$$$

     RDKit          3D

 19 17  0  0  0  0  0  0  0  0999 V2000
    2.2578    0.2027   -0.2236 C   0  0  0  0  0  0  0  0  0  0  0  0
    2.2578   -1.1430   -0.8204 N   0  0  0  0  0  0  0  0  0  0  0  0
    2.2578   -1.1430   -2.0135 O   0  0  0  0  0  1  0  0  0  0  0  0
    1.2018    0.2741    0.5490 H   0  0  0  0  0  0  0  0  0  0  0  0
    2.2578    0.9832   -0.9853 H   0  0  0  0  0  0  0  0  0  0  0  0
    3.1379    0.2622    0.4202 H   0  0  0  0  0  0  0  0  0  0  0  0
    0.1466    0.3455    1.3210 C   0  0  0  0  0  0  0  0  0  0  0  0
   -1.1381    0.1299    0.5326 C   0  0  0  0  0  0  0  0  0  0  0  0
   -2.3224    0.9067    1.0961 C   0  0  0  0  0  0  0  0  0  0  0  0
   -3.6071    0.6911    0.3077 C   0  0  0  0  0  0  0  0  0  0  0  0
    0.0251    0.0318    2.3606 H   0  0  0  0  0  0  0  0  0  0  0  0
    0.4304    1.4006    1.3259 H   0  0  0  0  0  0  0  0  0  0  0  0
   -1.3844   -0.9367    0.5161 H   0  0  0  0  0  0  0  0  0  0  0  0
   -0.9820    0.4220   -0.5110 H   0  0  0  0  0  0  0  0  0  0  0  0
   -2.4785    0.6146    2.1397 H   0  0  0  0  0  0  0  0  0  0  0  0
   -2.0761    1.9733    1.1126 H   0  0  0  0  0  0  0  0  0  0  0  0
   -3.8909   -0.3640    0.3028 H   0  0  0  0  0  0  0  0  0  0  0  0
   -3.4856    1.0048   -0.7319 H   0  0  0  0  0  0  0  0  0  0  0  0
   -4.4373    1.2579    0.7322 H   0  0  0  0  0  0  0  0  0  0  0  0
  1  2  2  3
  1  5  1  0
  1  6  1  0
  2  3  1  0
  4  7  1  0
  7  8  1  0
  7 11  1  0
  7 12  1  0
  8  9  1  0
  8 13  1  0
  8 14  1  0
  9 10  1  0
  9 15  1  0
  9 16  1  0
 10 17  1  0
 10 18  1  0
 10 19  1  0
M  RAD  1   3   2
M  END
>  <reaction>  (8) 
rmg_rxn_587

>  <mol_properties>  (8) 
{"0": {"label": "*1", "atom_type": "Cs"}, "1": {"label": "*0", "atom_type": "N3d"}, "3": {"label": "*2", "atom_type": "H0"}, "6": {"label": "*3", "atom_type": "Cs"}, "7": {"label": "*4", "atom_type": "Cs"}}

>  <type>  (8) 
unop_4

>  <geom_source>  (8) 
Heuristics

$$$$

     RDKit          3D

 19 17  0  0  0  0  0  0  0  0999 V2000
    1.5973   -0.5021   -1.1577 C   0  0  0  0  0  0  0  0  0  0  0  0
    1.5973   -1.8478   -1.7545 N   0  0  0  0  0  0  0  0  0  0  0  0
    1.5973   -1.8478   -2.9476 O   0  0  0  0  0  1  0  0  0  0  0  0
    0.5413   -0.4307   -0.3851 H   0  0  0  0  0  0  0  0  0  0  0  0
    1.5973    0.2784   -1.9194 H   0  0  0  0  0  0  0  0  0  0  0  0
    2.4773   -0.4426   -0.5138 H   0  0  0  0  0  0  0  0  0  0  0  0
   -0.5140   -0.3593    0.3869 C   0  0  0  0  0  0  0  0  0  0  0  0
   -0.6198    1.0004    1.0642 C   0  0  0  0  0  0  0  0  0  0  0  0
   -1.8378    1.1220    1.9727 C   0  0  0  0  0  0  0  0  0  0  0  0
   -1.9436    2.4817    2.6499 C   0  0  0  0  0  0  0  0  0  0  0  0
   -1.3933   -0.5587   -0.2301 H   0  0  0  0  0  0  0  0  0  0  0  0
   -0.4415   -1.1603    1.1265 H   0  0  0  0  0  0  0  0  0  0  0  0
   -0.6598    1.7872    0.3040 H   0  0  0  0  0  0  0  0  0  0  0  0
    0.2850    1.1900    1.6507 H   0  0  0  0  0  0  0  0  0  0  0  0
   -2.7426    0.9324    1.3862 H   0  0  0  0  0  0  0  0  0  0  0  0
   -1.7977    0.3352    2.7328 H   0  0  0  0  0  0  0  0  0  0  0  0
   -2.0161    3.2827    1.9104 H   0  0  0  0  0  0  0  0  0  0  0  0
   -1.0643    2.6811    3.2670 H   0  0  0  0  0  0  0  0  0  0  0  0
   -2.8230    2.5412    3.2933 H   0  0  0  0  0  0  0  0  0  0  0  0
  1  2  2  3
  1  5  1  0
  1  6  1  0
  2  3  1  0
  4  7  1  0
  7  8  1  0
  7 11  1  0
  7 12  1  0
  8  9  1  0
  8 13  1  0
  8 14  1  0
  9 10  1  0
  9 15  1  0
  9 16  1  0
 10 17  1  0
 10 18  1  0
 10 19  1  0
M  RAD  1   3   2
M  END
>  <reaction>  (9) 
rmg_rxn_587

>  <mol_properties>  (9) 
{"0": {"label": "*1", "atom_type": "Cs"}, "1": {"label": "*0", "atom_type": "N3d"}, "3": {"label": "*2", "atom_type": "H0"}, "6": {"label": "*3", "atom_type": "Cs"}, "7": {"label": "*4", "atom_type": "Cs"}}

>  <type>  (9) 
unop_5

>  <geom_source>  (9) 
Heuristics

$$$$

     RDKit          3D

 19 17  0  0  0  0  0  0  0  0999 V2000
    2.1231   -0.2643   -0.3144 C   0  0  0  0  0  0  0  0  0  0  0  0
    2.1231   -1.6100   -0.9112 N   0  0  0  0  0  0  0  0  0  0  0  0
    2.1231   -1.6100   -2.1043 O   0  0  0  0  0  1  0  0  0  0  0  0
    1.0671   -0.1929    0.4582 H   0  0  0  0  0  0  0  0  0  0  0  0
    2.1231    0.5162   -1.0762 H   0  0  0  0  0  0  0  0  0  0  0  0
    3.0031   -0.2048    0.3294 H   0  0  0  0  0  0  0  0  0  0  0  0
    0.0119   -0.1215    1.2302 C   0  0  0  0  0  0  0  0  0  0  0  0
   -1.2031    0.3923    0.4696 C   0  0  0  0  0  0  0  0  0  0  0  0
   -2.0613    1.3481    1.2903 C   0  0  0  0  0  0  0  0  0  0  0  0
   -3.2763    1.8619    0.5297 C   0  0  0  0  0  0  0  0  0  0  0  0
   -0.2897   -0.6585    2.1327 H   0  0  0  0  0  0  0  0  0  0  0  0
    0.6586    0.7036    1.5380 H   0  0  0  0  0  0  0  0  0  0  0  0
   -1.8184   -0.4534    0.1458 H   0  0  0  0  0  0  0  0  0  0  0  0
   -0.8770    0.8987   -0.4446 H   0  0  0  0  0  0  0  0  0  0  0  0
   -2.3874    0.8417    2.2045 H   0  0  0  0  0  0  0  0  0  0  0  0
   -1.4461    2.1938    1.6142 H   0  0  0  0  0  0  0  0  0  0  0  0
   -3.9230    1.0368    0.2220 H   0  0  0  0  0  0  0  0  0  0  0  0
   -2.9747    2.3989   -0.3728 H   0  0  0  0  0  0  0  0  0  0  0  0
   -3.8719    2.5430    1.1397 H   0  0  0  0  0  0  0  0  0  0  0  0
  1  2  2  3
  1  5  1  0
  1  6  1  0
  2  3  1  0
  4  7  1  0
  7  8  1  0
  7 11  1  0
  7 12  1  0
  8  9  1  0
  8 13  1  0
  8 14  1  0
  9 10  1  0
  9 15  1  0
  9 16  1  0
 10 17  1  0
 10 18  1  0
 10 19  1  0
M  RAD  1   3   2
M  END
>  <reaction>  (10) 
rmg_rxn_587

>  <mol_properties>  (10) 
{"0": {"label": "*1", "atom_type": "Cs"}, "1": {"label": "*0", "atom_type": "N3d"}, "3": {"label": "*2", "atom_type": "H0"}, "6": {"label": "*3", "atom_type": "Cs"}, "7": {"label": "*4", "atom_type": "Cs"}}

>  <type>  (10) 
unop_6

>  <geom_source>  (10) 
Heuristics

$$$$

     RDKit          3D

 19 17  0  0  0  0  0  0  0  0999 V2000
    1.8934   -0.5505   -0.5980 C   0  0  0  0  0  0  0  0  0  0  0  0
    1.8934   -1.8963   -1.1948 N   0  0  0  0  0  0  0  0  0  0  0  0
    1.8934   -1.8963   -2.3879 O   0  0  0  0  0  1  0  0  0  0  0  0
    0.8374   -0.4791    0.1746 H   0  0  0  0  0  0  0  0  0  0  0  0
    1.8934    0.2300   -1.3597 H   0  0  0  0  0  0  0  0  0  0  0  0
    2.7734   -0.4910    0.0458 H   0  0  0  0  0  0  0  0  0  0  0  0
   -0.2178   -0.4078    0.9466 C   0  0  0  0  0  0  0  0  0  0  0  0
   -1.1582    0.7059    0.5060 C   0  0  0  0  0  0  0  0  0  0  0  0
   -1.7642    1.4735    1.6752 C   0  0  0  0  0  0  0  0  0  0  0  0
   -2.7046    2.5872    1.2346 C   0  0  0  0  0  0  0  0  0  0  0  0
   -0.7401   -1.1370    1.5705 H   0  0  0  0  0  0  0  0  0  0  0  0
    0.6142   -0.0088    1.5318 H   0  0  0  0  0  0  0  0  0  0  0  0
   -1.9648    0.2859   -0.1035 H   0  0  0  0  0  0  0  0  0  0  0  0
   -0.6205    1.4058   -0.1418 H   0  0  0  0  0  0  0  0  0  0  0  0
   -2.3019    0.7737    2.3231 H   0  0  0  0  0  0  0  0  0  0  0  0
   -0.9576    1.8935    2.2847 H   0  0  0  0  0  0  0  0  0  0  0  0
   -3.5366    2.1883    0.6494 H   0  0  0  0  0  0  0  0  0  0  0  0
   -2.1823    3.3165    0.6107 H   0  0  0  0  0  0  0  0  0  0  0  0
   -3.1235    3.1194    2.0901 H   0  0  0  0  0  0  0  0  0  0  0  0
  1  2  2  3
  1  5  1  0
  1  6  1  0
  2  3  1  0
  4  7  1  0
  7  8  1  0
  7 11  1  0
  7 12  1  0
  8  9  1  0
  8 13  1  0
  8 14  1  0
  9 10  1  0
  9 15  1  0
  9 16  1  0
 10 17  1  0
 10 18  1  0
 10 19  1  0
M  RAD  1   3   2
M  END
>  <reaction>  (11) 
rmg_rxn_587

>  <mol_properties>  (11) 
{"0": {"label": "*1", "atom_type": "Cs"}, "1": {"label": "*0", "atom_type": "N3d"}, "3": {"label": "*2", "atom_type": "H0"}, "6": {"label": "*3", "atom_type": "Cs"}, "7": {"label": "*4", "atom_type": "Cs"}}

>  <type>  (11) 
unop_7

>  <geom_source>  (11) 
Heuristics

$$$$

     RDKit          3D

 19 17  0  0  0  0  0  0  0  0999 V2000
    1.2036    0.3169   -1.6250 C   0  0  0  0  0  0  0  0  0  0  0  0
    1.2036   -1.0288   -2.2218 N   0  0  0  0  0  0  0  0  0  0  0  0
    1.2036   -1.0288   -3.4149 O   0  0  0  0  0  1  0  0  0  0  0  0
    0.1476    0.3883   -0.8524 H   0  0  0  0  0  0  0  0  0  0  0  0
    1.2036    1.0974   -2.3867 H   0  0  0  0  0  0  0  0  0  0  0  0
    2.0836    0.3764   -0.9811 H   0  0  0  0  0  0  0  0  0  0  0  0
   -0.9077    0.4597   -0.0804 C   0  0  0  0  0  0  0  0  0  0  0  0
   -0.5932    0.0068    1.3390 C   0  0  0  0  0  0  0  0  0  0  0  0
   -1.2807    0.8547    2.4028 C   0  0  0  0  0  0  0  0  0  0  0  0
   -0.9662    0.4018    3.8222 C   0  0  0  0  0  0  0  0  0  0  0  0
   -0.5896    1.4925   -0.2411 H   0  0  0  0  0  0  0  0  0  0  0  0
   -1.9811    0.4106   -0.2780 H   0  0  0  0  0  0  0  0  0  0  0  0
    0.4890    0.0353    1.5023 H   0  0  0  0  0  0  0  0  0  0  0  0
   -0.8923   -1.0387    1.4657 H   0  0  0  0  0  0  0  0  0  0  0  0
   -0.9816    1.9002    2.2761 H   0  0  0  0  0  0  0  0  0  0  0  0
   -2.3629    0.8262    2.2394 H   0  0  0  0  0  0  0  0  0  0  0  0
    0.1072    0.4509    4.0198 H   0  0  0  0  0  0  0  0  0  0  0  0
   -1.2843   -0.6310    3.9829 H   0  0  0  0  0  0  0  0  0  0  0  0
   -1.4705    1.0251    4.5623 H   0  0  0  0  0  0  0  0  0  0  0  0
  1  2  2  3
  1  5  1  0
  1  6  1  0
  2  3  1  0
  4  7  1  0
  7  8  1  0
  7 11  1  0
  7 12  1  0
  8  9  1  0
  8 13  1  0
  8 14  1  0
  9 10  1  0
  9 15  1  0
  9 16  1  0
 10 17  1  0
 10 18  1  0
 10 19  1  0
M  RAD  1   3   2
M  END
>  <reaction>  (12) 
rmg_rxn_587

>  <mol_properties>  (12) 
{"0": {"label": "*1", "atom_type": "Cs"}, "1": {"label": "*0", "atom_type": "N3d"}, "3": {"label": "*2", "atom_type": "H0"}, "6": {"label": "*3", "atom_type": "Cs"}, "7": {"label": "*4", "atom_type": "Cs"}}

>  <type>  (12) 
unop_8

>  <geom_source>  (12) 
Heuristics

$$$$

     RDKit          3D

 19 17  0  0  0  0  0  0  0  0999 V2000
    2.2211    0.6990   -0.3843 C   0  0  0  0  0  0  0  0  0  0  0  0
    2.2211   -0.6468   -0.9811 N   0  0  0  0  0  0  0  0  0  0  0  0
    2.2211   -0.6468   -2.1742 O   0  0  0  0  0  1  0  0  0  0  0  0
    1.1651    0.7704    0.3883 H   0  0  0  0  0  0  0  0  0  0  0  0
    2.2211    1.4794   -1.1460 H   0  0  0  0  0  0  0  0  0  0  0  0
    3.1011    0.7585    0.2596 H   0  0  0  0  0  0  0  0  0  0  0  0
    0.1099    0.8417    1.1603 C   0  0  0  0  0  0  0  0  0  0  0  0
   -1.0210   -0.0373    0.6435 C   0  0  0  0  0  0  0  0  0  0  0  0
   -2.3794    0.3315    1.2284 C   0  0  0  0  0  0  0  0  0  0  0  0
   -3.5102   -0.5475    0.7116 C   0  0  0  0  0  0  0  0  0  0  0  0
    0.1992    0.7660    2.2467 H   0  0  0  0  0  0  0  0  0  0  0  0
   -0.0679    1.8918    0.9164 H   0  0  0  0  0  0  0  0  0  0  0  0
   -0.8051   -1.0859    0.8724 H   0  0  0  0  0  0  0  0  0  0  0  0
   -1.0702    0.0316   -0.4480 H   0  0  0  0  0  0  0  0  0  0  0  0
   -2.3301    0.2626    2.3199 H   0  0  0  0  0  0  0  0  0  0  0  0
   -2.5953    1.3801    0.9995 H   0  0  0  0  0  0  0  0  0  0  0  0
   -3.3325   -1.5976    0.9555 H   0  0  0  0  0  0  0  0  0  0  0  0
   -3.5996   -0.4718   -0.3748 H   0  0  0  0  0  0  0  0  0  0  0  0
   -4.4697   -0.2620    1.1458 H   0  0  0  0  0  0  0  0  0  0  0  0
  1  2  2  3
  1  5  1  0
  1  6  1  0
  2  3  1  0
  4  7  1  0
  7  8  1  0
  7 11  1  0
  7 12  1  0
  8  9  1  0
  8 13  1  0
  8 14  1  0
  9 10  1  0
  9 15  1  0
  9 16  1  0
 10 17  1  0
 10 18  1  0
 10 19  1  0
M  RAD  1   3   2
M  END
>  <reaction>  (13) 
rmg_rxn_587

>  <mol_properties>  (13) 
{"0": {"label": "*1", "atom_type": "Cs"}, "1": {"label": "*0", "atom_type": "N3d"}, "3": {"label": "*2", "atom_type": "H0"}, "6": {"label": "*3", "atom_type": "Cs"}, "7": {"label": "*4", "atom_type": "Cs"}}

>  <type>  (13) 
unop_9

>  <geom_source>  (13) 
Heuristics

$$$$

     RDKit          3D

 19 17  0  0  0  0  0  0  0  0999 V2000
    1.3564    0.7725   -1.5084 C   0  0  0  0  0  0  0  0  0  0  0  0
    1.3564   -0.5732   -2.1052 N   0  0  0  0  0  0  0  0  0  0  0  0
    1.3564   -0.5732   -3.2983 O   0  0  0  0  0  1  0  0  0  0  0  0
    0.3004    0.8439   -0.7358 H   0  0  0  0  0  0  0  0  0  0  0  0
    1.3564    1.5530   -2.2702 H   0  0  0  0  0  0  0  0  0  0  0  0
    2.2364    0.8320   -0.8646 H   0  0  0  0  0  0  0  0  0  0  0  0
   -0.7549    0.9153    0.0362 C   0  0  0  0  0  0  0  0  0  0  0  0
   -0.7150   -0.1375    1.1356 C   0  0  0  0  0  0  0  0  0  0  0  0
   -1.3910    0.3180    2.4237 C   0  0  0  0  0  0  0  0  0  0  0  0
   -1.3511   -0.7348    3.5230 C   0  0  0  0  0  0  0  0  0  0  0  0
   -0.2518    1.8318    0.3535 H   0  0  0  0  0  0  0  0  0  0  0  0
   -1.7848    1.1758   -0.2190 H   0  0  0  0  0  0  0  0  0  0  0  0
    0.3247   -0.4040    1.3515 H   0  0  0  0  0  0  0  0  0  0  0  0
   -1.1970   -1.0551    0.7831 H   0  0  0  0  0  0  0  0  0  0  0  0
   -0.9089    1.2356    2.7761 H   0  0  0  0  0  0  0  0  0  0  0  0
   -2.4307    0.5844    2.2078 H   0  0  0  0  0  0  0  0  0  0  0  0
   -0.3212   -0.9954    3.7783 H   0  0  0  0  0  0  0  0  0  0  0  0
   -1.8542   -1.6513    3.2057 H   0  0  0  0  0  0  0  0  0  0  0  0
   -1.8413   -0.3830    4.4323 H   0  0  0  0  0  0  0  0  0  0  0  0
  1  2  2  3
  1  5  1  0
  1  6  1  0
  2  3  1  0
  4  7  1  0
  7  8  1  0
  7 11  1  0
  7 12  1  0
  8  9  1  0
  8 13  1  0
  8 14  1  0
  9 10  1  0
  9 15  1  0
  9 16  1  0
 10 17  1  0
 10 18  1  0
 10 19  1  0
M  RAD  1   3   2
M  END
>  <reaction>  (14) 
rmg_rxn_587

>  <mol_properties>  (14) 
{"0": {"label": "*1", "atom_type": "Cs"}, "1": {"label": "*0", "atom_type": "N3d"}, "3": {"label": "*2", "atom_type": "H0"}, "6": {"label": "*3", "atom_type": "Cs"}, "7": {"label": "*4", "atom_type": "Cs"}}

>  <type>  (14) 
unop_10

>  <geom_source>  (14) 
Heuristics

$$$$

     RDKit          3D

 19 17  0  0  0  0  0  0  0  0999 V2000
    1.6902   -0.5892   -0.9414 C   0  0  0  0  0  0  0  0  0  0  0  0
    1.6902   -1.9349   -1.5383 N   0  0  0  0  0  0  0  0  0  0  0  0
    1.6902   -1.9349   -2.7314 O   0  0  0  0  0  1  0  0  0  0  0  0
    0.6342   -0.5178   -0.1689 H   0  0  0  0  0  0  0  0  0  0  0  0
    1.6902    0.1913   -1.7032 H   0  0  0  0  0  0  0  0  0  0  0  0
    2.5702   -0.5297   -0.2976 H   0  0  0  0  0  0  0  0  0  0  0  0
   -0.4210   -0.4464    0.6032 C   0  0  0  0  0  0  0  0  0  0  0  0
   -0.9554    0.9768    0.6888 C   0  0  0  0  0  0  0  0  0  0  0  0
   -1.6563    1.2733    2.0096 C   0  0  0  0  0  0  0  0  0  0  0  0
   -2.1907    2.6966    2.0952 C   0  0  0  0  0  0  0  0  0  0  0  0
   -1.2291   -1.1747    0.7059 H   0  0  0  0  0  0  0  0  0  0  0  0
    0.3020   -0.6416    1.3987 H   0  0  0  0  0  0  0  0  0  0  0  0
   -1.6529    1.1575   -0.1354 H   0  0  0  0  0  0  0  0  0  0  0  0
   -0.1332    1.6867    0.5524 H   0  0  0  0  0  0  0  0  0  0  0  0
   -2.4786    0.5634    2.1460 H   0  0  0  0  0  0  0  0  0  0  0  0
   -0.9588    1.0926    2.8338 H   0  0  0  0  0  0  0  0  0  0  0  0
   -2.9137    2.8917    1.2996 H   0  0  0  0  0  0  0  0  0  0  0  0
   -1.3827    3.4248    1.9925 H   0  0  0  0  0  0  0  0  0  0  0  0
   -2.6868    2.8812    3.0494 H   0  0  0  0  0  0  0  0  0  0  0  0
  1  2  2  3
  1  5  1  0
  1  6  1  0
  2  3  1  0
  4  7  1  0
  7  8  1  0
  7 11  1  0
  7 12  1  0
  8  9  1  0
  8 13  1  0
  8 14  1  0
  9 10  1  0
  9 15  1  0
  9 16  1  0
 10 17  1  0
 10 18  1  0
 10 19  1  0
M  RAD  1   3   2
M  END
>  <reaction>  (15) 
rmg_rxn_587

>  <mol_properties>  (15) 
{"0": {"label": "*1", "atom_type": "Cs"}, "1": {"label": "*0", "atom_type": "N3d"}, "3": {"label": "*2", "atom_type": "H0"}, "6": {"label": "*3", "atom_type": "Cs"}, "7": {"label": "*4", "atom_type": "Cs"}}

>  <type>  (15) 
unop_11

>  <geom_source>  (15) 
Heuristics

$$$$

     RDKit          3D

 19 17  0  0  0  0  0  0  0  0999 V2000
    1.9948    1.0323   -0.7561 C   0  0  0  0  0  0  0  0  0  0  0  0
    1.9948   -0.3135   -1.3529 N   0  0  0  0  0  0  0  0  0  0  0  0
    1.9948   -0.3135   -2.5460 O   0  0  0  0  0  1  0  0  0  0  0  0
    0.9388    1.1037    0.0165 H   0  0  0  0  0  0  0  0  0  0  0  0
    1.9948    1.8128   -1.5179 H   0  0  0  0  0  0  0  0  0  0  0  0
    2.8748    1.0918   -0.1123 H   0  0  0  0  0  0  0  0  0  0  0  0
   -0.1165    1.1750    0.7885 C   0  0  0  0  0  0  0  0  0  0  0  0
   -0.9111   -0.1238    0.7700 C   0  0  0  0  0  0  0  0  0  0  0  0
   -2.1490   -0.0794    1.6583 C   0  0  0  0  0  0  0  0  0  0  0  0
   -2.9436   -1.3782    1.6398 C   0  0  0  0  0  0  0  0  0  0  0  0
    0.2246    1.4108    1.7993 H   0  0  0  0  0  0  0  0  0  0  0  0
   -0.7272    2.0124    0.4427 H   0  0  0  0  0  0  0  0  0  0  0  0
   -0.2698   -0.9513    1.0903 H   0  0  0  0  0  0  0  0  0  0  0  0
   -1.2146   -0.3541   -0.2564 H   0  0  0  0  0  0  0  0  0  0  0  0
   -1.8455    0.1510    2.6846 H   0  0  0  0  0  0  0  0  0  0  0  0
   -2.7903    0.7481    1.3380 H   0  0  0  0  0  0  0  0  0  0  0  0
   -2.3329   -2.2156    1.9855 H   0  0  0  0  0  0  0  0  0  0  0  0
   -3.2847   -1.6140    0.6289 H   0  0  0  0  0  0  0  0  0  0  0  0
   -3.8230   -1.3187    2.2831 H   0  0  0  0  0  0  0  0  0  0  0  0
  1  2  2  3
  1  5  1  0
  1  6  1  0
  2  3  1  0
  4  7  1  0
  7  8  1  0
  7 11  1  0
  7 12  1  0
  8  9  1  0
  8 13  1  0
  8 14  1  0
  9 10  1  0
  9 15  1  0
  9 16  1  0
 10 17  1  0
 10 18  1  0
 10 19  1  0
M  RAD  1   3   2
M  END
>  <reaction>  (16) 
rmg_rxn_587

>  <mol_properties>  (16) 
{"0": {"label": "*1", "atom_type": "Cs"}, "1": {"label": "*0", "atom_type": "N3d"}, "3": {"label": "*2", "atom_type": "H0"}, "6": {"label": "*3", "atom_type": "Cs"}, "7": {"label": "*4", "atom_type": "Cs"}}

>  <type>  (16) 
unop_12

>  <geom_source>  (16) 
Heuristics

$$$$

     RDKit          3D

 19 17  0  0  0  0  0  0  0  0999 V2000
    1.5789    2.3211    0.7129 O   0  0  0  0  0  1  0  0  0  0  0  0
    2.4594    1.6750    1.1930 N   0  0  0  0  0  0  0  0  0  0  0  0
   -0.2896   -0.1650   -0.8983 C   0  0  0  0  0  0  0  0  0  0  0  0
   -1.7290   -0.6985   -0.8485 C   0  0  0  0  0  0  0  0  0  0  0  0
    0.5469   -0.6114    0.2991 C   0  0  0  0  0  0  0  0  0  0  0  0
   -2.5646   -0.0379    0.2475 C   0  0  0  0  0  0  0  0  0  0  0  0
    2.8981    0.4644    0.5545 C   0  0  0  0  0  0  0  0  0  0  0  0
    0.1964   -0.5477   -1.8215 H   0  0  0  0  0  0  0  0  0  0  0  0
   -0.2932    0.9450   -0.9556 H   0  0  0  0  0  0  0  0  0  0  0  0
   -2.2134   -0.4933   -1.8276 H   0  0  0  0  0  0  0  0  0  0  0  0
   -1.7239   -1.8003   -0.7003 H   0  0  0  0  0  0  0  0  0  0  0  0
    0.1720   -0.1485    1.2354 H   0  0  0  0  0  0  0  0  0  0  0  0
    0.5267   -1.7176    0.3976 H   0  0  0  0  0  0  0  0  0  0  0  0
    1.7843   -0.2316    0.1227 H   0  0  0  0  0  0  0  0  0  0  0  0
   -3.6172   -0.3823    0.1667 H   0  0  0  0  0  0  0  0  0  0  0  0
   -2.5453    1.0673    0.1381 H   0  0  0  0  0  0  0  0  0  0  0  0
   -2.1858   -0.3172    1.2524 H   0  0  0  0  0  0  0  0  0  0  0  0
    3.6783   -0.0193    1.1774 H   0  0  0  0  0  0  0  0  0  0  0  0
    3.3208    0.6979   -0.4455 H   0  0  0  0  0  0  0  0  0  0  0  0
  1  2  1  0
  2  7  2  3
  3  5  1  0
  3  4  1  0
  3  8  1  0
  3  9  1  0
  4  6  1  0
  4 10  1  0
  4 11  1  0
  5 12  1  0
  5 13  1  0
  5 14  1  0
  6 15  1  0
  6 16  1  0
  6 17  1  0
  7 18  1  0
  7 19  1  0
M  RAD  1   1   2
M  END
>  <reaction>  (17) 
rmg_rxn_587

>  <mol_properties>  (17) 
{"0": {"label": "*1", "atom_type": "Cs"}, "1": {"label": "*0", "atom_type": "N3d"}, "3": {"label": "*2", "atom_type": "H0"}, "6": {"label": "*3", "atom_type": "Cs"}, "7": {"label": "*4", "atom_type": "Cs"}}

>  <type>  (17) 
unop_13

>  <geom_source>  (17) 
AutoTST

$$$$

     RDKit          3D

 19 17  0  0  0  0  0  0  0  0999 V2000
    1.6574    1.0553   -1.1877 C   0  0  0  0  0  0  0  0  0  0  0  0
    1.6574   -0.2905   -1.7845 N   0  0  0  0  0  0  0  0  0  0  0  0
    1.6574   -0.2905   -2.9776 O   0  0  0  0  0  1  0  0  0  0  0  0
    0.6014    1.1267   -0.4151 H   0  0  0  0  0  0  0  0  0  0  0  0
    1.6574    1.8357   -1.9495 H   0  0  0  0  0  0  0  0  0  0  0  0
    2.5374    1.1148   -0.5439 H   0  0  0  0  0  0  0  0  0  0  0  0
   -0.4538    1.1980    0.3569 C   0  0  0  0  0  0  0  0  0  0  0  0
   -0.8199   -0.1644    0.9300 C   0  0  0  0  0  0  0  0  0  0  0  0
   -1.7366   -0.0748    2.1446 C   0  0  0  0  0  0  0  0  0  0  0  0
   -2.1027   -1.4372    2.7177 C   0  0  0  0  0  0  0  0  0  0  0  0
    0.0616    1.8099    1.1010 H   0  0  0  0  0  0  0  0  0  0  0  0
   -1.3470    1.7433    0.0428 H   0  0  0  0  0  0  0  0  0  0  0  0
    0.0918   -0.7029    1.2082 H   0  0  0  0  0  0  0  0  0  0  0  0
   -1.3065   -0.7690    0.1578 H   0  0  0  0  0  0  0  0  0  0  0  0
   -1.2500    0.5298    2.9168 H   0  0  0  0  0  0  0  0  0  0  0  0
   -2.6483    0.4637    1.8665 H   0  0  0  0  0  0  0  0  0  0  0  0
   -1.2095   -1.9825    3.0318 H   0  0  0  0  0  0  0  0  0  0  0  0
   -2.6181   -2.0491    1.9737 H   0  0  0  0  0  0  0  0  0  0  0  0
   -2.7584   -1.3437    3.5849 H   0  0  0  0  0  0  0  0  0  0  0  0
  1  2  2  3
  1  5  1  0
  1  6  1  0
  2  3  1  0
  4  7  1  0
  7  8  1  0
  7 11  1  0
  7 12  1  0
  8  9  1  0
  8 13  1  0
  8 14  1  0
  9 10  1  0
  9 15  1  0
  9 16  1  0
 10 17  1  0
 10 18  1  0
 10 19  1  0
M  RAD  1   3   2
M  END
>  <reaction>  (18) 
rmg_rxn_587

>  <mol_properties>  (18) 
{"0": {"label": "*1", "atom_type": "Cs"}, "1": {"label": "*0", "atom_type": "N3d"}, "3": {"label": "*2", "atom_type": "H0"}, "6": {"label": "*3", "atom_type": "Cs"}, "7": {"label": "*4", "atom_type": "Cs"}}

>  <type>  (18) 
unop_14

>  <geom_source>  (18) 
gaussian_log

$$$$
