
     RDKit          3D

  9  8  0  0  0  0  0  0  0  0999 V2000
   -1.0434   -0.0834    0.0221 C   0  0  0  0  0  0  0  0  0  0  0  0
    0.4680   -0.2131    0.0785 C   0  0  0  0  0  0  0  0  0  0  0  0
    0.9450   -1.3136   -0.7058 N   0  0  0  0  0  2  0  0  0  0  0  0
   -1.5170   -0.9919    0.3960 H   0  0  0  0  0  0  0  0  0  0  0  0
   -1.3864    0.7592    0.6249 H   0  0  0  0  0  0  0  0  0  0  0  0
   -1.3736    0.0696   -1.0061 H   0  0  0  0  0  0  0  0  0  0  0  0
    0.8045   -0.3309    1.1214 H   0  0  0  0  0  0  0  0  0  0  0  0
    0.9463    0.7186   -0.2648 H   0  0  0  0  0  0  0  0  0  0  0  0
    1.9638   -1.3321   -0.6157 H   0  0  0  0  0  0  0  0  0  0  0  0
  1  2  1  0
  1  4  1  0
  1  5  1  0
  1  6  1  0
  2  3  1  0
  2  7  1  0
  2  8  1  0
  3  9  1  0
M  RAD  1   3   2
M  END
>  <reaction>  (1) 
rmg_rxn_190

>  <mol_properties>  (1) 
{"2": {"label": "donator", "atom_type": "N3s"}, "8": {"label": "d_hydrogen", "atom_type": "H0"}}

>  <type>  (1) 
r1h

$$$$

     RDKit          3D

 13 13  0  0  0  0  0  0  0  0999 V2000
   -1.1371    0.3608    0.3110 C   0  0  0  0  0  3  0  0  0  0  0  0
   -0.0045    1.3224    0.2943 C   0  0  0  0  0  0  0  0  0  0  0  0
    1.2245    0.6965    0.6137 O   0  0  0  0  0  0  0  0  0  0  0  0
    1.3926   -0.4921   -0.0955 C   0  0  0  0  0  0  0  0  0  0  0  0
    0.4387   -1.4537    0.2351 O   0  0  0  0  0  0  0  0  0  0  0  0
   -0.8659   -1.0349   -0.1206 C   0  0  0  0  0  0  0  0  0  0  0  0
   -2.1544    0.7285    0.3341 H   0  0  0  0  0  0  0  0  0  0  0  0
   -0.1488    2.1272    1.0165 H   0  0  0  0  0  0  0  0  0  0  0  0
    0.0825    1.7949   -0.7036 H   0  0  0  0  0  0  0  0  0  0  0  0
    1.3549   -0.2872   -1.1815 H   0  0  0  0  0  0  0  0  0  0  0  0
    2.3646   -0.8956    0.1787 H   0  0  0  0  0  0  0  0  0  0  0  0
   -1.5620   -1.7401    0.3358 H   0  0  0  0  0  0  0  0  0  0  0  0
   -0.9852   -1.1268   -1.2179 H   0  0  0  0  0  0  0  0  0  0  0  0
  1  2  1  0
  1  6  1  0
  1  7  1  0
  2  3  1  0
  2  8  1  0
  2  9  1  0
  3  4  1  0
  4  5  1  0
  4 10  1  0
  4 11  1  0
  5  6  1  0
  6 12  1  0
  6 13  1  0
M  RAD  1   1   2
M  END
>  <reaction>  (2) 
rmg_rxn_190

>  <mol_properties>  (2) 
{"0": {"label": "acceptor", "atom_type": "Cs"}}

>  <type>  (2) 
r2

$$$$

     RDKit          3D

 14 14  0  0  0  0  0  0  0  0999 V2000
   -1.1778    0.2241    0.1818 C   0  0  0  0  0  0  0  0  0  0  0  0
   -0.5633   -1.1636    0.0678 C   0  0  0  0  0  0  0  0  0  0  0  0
    0.6943   -1.1996    0.7146 O   0  0  0  0  0  0  0  0  0  0  0  0
    1.5547   -0.2288    0.2011 C   0  0  0  0  0  0  0  0  0  0  0  0
    1.0729    1.0696    0.3698 O   0  0  0  0  0  0  0  0  0  0  0  0
   -0.1607    1.2493   -0.2989 C   0  0  0  0  0  0  0  0  0  0  0  0
   -2.0927    0.2866   -0.4117 H   0  0  0  0  0  0  0  0  0  0  0  0
   -1.4303    0.4248    1.2248 H   0  0  0  0  0  0  0  0  0  0  0  0
   -1.1822   -1.9235    0.5431 H   0  0  0  0  0  0  0  0  0  0  0  0
   -0.4389   -1.4347   -0.9919 H   0  0  0  0  0  0  0  0  0  0  0  0
    1.7250   -0.4207   -0.8742 H   0  0  0  0  0  0  0  0  0  0  0  0
    2.4896   -0.3010    0.7524 H   0  0  0  0  0  0  0  0  0  0  0  0
   -0.0080    1.1481   -1.3844 H   0  0  0  0  0  0  0  0  0  0  0  0
   -0.4826    2.2695   -0.0942 H   0  0  0  0  0  0  0  0  0  0  0  0
  1  2  1  0
  1  6  1  0
  1  7  1  0
  1  8  1  0
  2  3  1  0
  2  9  1  0
  2 10  1  0
  3  4  1  0
  4  5  1  0
  4 11  1  0
  4 12  1  0
  5  6  1  0
  6 13  1  0
  6 14  1  0
M  END
>  <reaction>  (3) 
rmg_rxn_190

>  <mol_properties>  (3) 
{"0": {"label": "a_hydrogen", "atom_type": "H0"}, "1": {"label": "acceptor", "atom_type": "Cs"}}

>  <type>  (3) 
r2h

$$$$

     RDKit          3D

 22 21  0  0  0  0  0  0  0  0999 V2000
    0.3234   -1.0764   -4.2010 C   0  0  0  0  0  0  0  0  0  0  0  0
    0.3689   -0.9956   -2.6822 C   0  0  0  0  0  0  0  0  0  0  0  0
    0.5656    0.3438   -2.2251 N   0  0  0  0  0  2  0  0  0  0  0  0
    1.2589   -0.7173   -4.6306 H   0  0  0  0  0  0  0  0  0  0  0  0
    0.1656   -2.1058   -4.5268 H   0  0  0  0  0  0  0  0  0  0  0  0
   -0.4876   -0.4614   -4.5921 H   0  0  0  0  0  0  0  0  0  0  0  0
    1.1660   -1.6431   -2.2842 H   0  0  0  0  0  0  0  0  0  0  0  0
   -0.5646   -1.3916   -2.2506 H   0  0  0  0  0  0  0  0  0  0  0  0
    0.6293    0.2715   -1.0509 H   0  0  0  0  0  0  0  0  0  0  0  0
    0.6250    0.0405    0.3703 C   0  0  0  0  0  3  0  0  0  0  0  0
    0.5100    1.4162    0.9695 C   0  0  0  0  0  0  0  0  0  0  0  0
    0.1846    1.3073    2.3514 O   0  0  0  0  0  0  0  0  0  0  0  0
   -0.9757    0.5554    2.5356 C   0  0  0  0  0  0  0  0  0  0  0  0
   -0.8547   -0.7583    2.0755 O   0  0  0  0  0  0  0  0  0  0  0  0
   -0.5936   -0.7870    0.6778 C   0  0  0  0  0  0  0  0  0  0  0  0
    1.5733   -0.4601    0.5548 H   0  0  0  0  0  0  0  0  0  0  0  0
    1.4413    1.9753    0.9086 H   0  0  0  0  0  0  0  0  0  0  0  0
   -0.2751    1.9903    0.4558 H   0  0  0  0  0  0  0  0  0  0  0  0
   -1.8200    1.0480    2.0199 H   0  0  0  0  0  0  0  0  0  0  0  0
   -1.1612    0.5044    3.6062 H   0  0  0  0  0  0  0  0  0  0  0  0
   -1.4676   -0.3896    0.1387 H   0  0  0  0  0  0  0  0  0  0  0  0
   -0.4664   -1.8335    0.4052 H   0  0  0  0  0  0  0  0  0  0  0  0
  1  2  1  0
  1  4  1  0
  1  5  1  0
  1  6  1  0
  2  3  1  0
  2  7  1  0
  2  8  1  0
  3  9  1  0
 10 11  1  0
 10 15  1  0
 10 16  1  0
 11 12  1  0
 11 17  1  0
 11 18  1  0
 12 13  1  0
 13 14  1  0
 13 19  1  0
 13 20  1  0
 14 15  1  0
 15 21  1  0
 15 22  1  0
M  RAD  2   3   2  10   2
M  END
>  <reaction>  (4) 
rmg_rxn_190

>  <mol_properties>  (4) 
{"1": {"label": "*0", "atom_type": "Cs"}, "2": {"label": "*1", "atom_type": "N3s"}, "8": {"label": "*2", "atom_type": "H0"}, "9": {"label": "*3", "atom_type": "Cs"}, "10": {"label": "*4", "atom_type": "Cs"}}

>  <type>  (4) 
ts

$$$$

     RDKit          3D

 22 21  0  0  0  0  0  0  0  0999 V2000
    0.0335   -1.7356   -3.9391 C   0  0  0  0  0  0  0  0  0  0  0  0
    0.0335   -1.7356   -2.4212 C   0  0  0  0  0  0  0  0  0  0  0  0
    0.0335   -0.4080   -1.8814 N   0  0  0  0  0  2  0  0  0  0  0  0
    0.9157   -1.2191   -4.3192 H   0  0  0  0  0  0  0  0  0  0  0  0
    0.0335   -2.7545   -4.3302 H   0  0  0  0  0  0  0  0  0  0  0  0
   -0.8487   -1.2191   -4.3192 H   0  0  0  0  0  0  0  0  0  0  0  0
    0.9057   -2.2893   -2.0372 H   0  0  0  0  0  0  0  0  0  0  0  0
   -0.8387   -2.2893   -2.0372 H   0  0  0  0  0  0  0  0  0  0  0  0
    0.0335   -0.5116   -0.6582 H   0  0  0  0  0  0  0  0  0  0  0  0
    0.0335   -0.6221    0.6480 C   0  0  0  0  0  3  0  0  0  0  0  0
    1.2685    0.0435    1.2383 C   0  0  0  0  0  0  0  0  0  0  0  0
    0.9122    0.8461    2.3474 O   0  0  0  0  0  0  0  0  0  0  0  0
   -0.0474    1.7961    1.9963 C   0  0  0  0  0  0  0  0  0  0  0  0
   -1.2351    1.2260    1.5373 O   0  0  0  0  0  0  0  0  0  0  0  0
   -1.0149    0.4474    0.3768 C   0  0  0  0  0  0  0  0  0  0  0  0
   -0.3637   -1.3474    1.3607 H   0  0  0  0  0  0  0  0  0  0  0  0
    1.9915   -0.6867    1.5991 H   0  0  0  0  0  0  0  0  0  0  0  0
    1.7605    0.6675    0.4765 H   0  0  0  0  0  0  0  0  0  0  0  0
    0.3646    2.4638    1.2175 H   0  0  0  0  0  0  0  0  0  0  0  0
   -0.2861    2.3618    2.8942 H   0  0  0  0  0  0  0  0  0  0  0  0
   -0.6835    1.0999   -0.4455 H   0  0  0  0  0  0  0  0  0  0  0  0
   -1.9761    0.0152    0.1022 H   0  0  0  0  0  0  0  0  0  0  0  0
  1  2  1  0
  1  4  1  0
  1  5  1  0
  1  6  1  0
  2  3  1  0
  2  7  1  0
  2  8  1  0
  3  9  1  0
 10 11  1  0
 10 15  1  0
 10 16  1  0
 11 12  1  0
 11 17  1  0
 11 18  1  0
 12 13  1  0
 13 14  1  0
 13 19  1  0
 13 20  1  0
 14 15  1  0
 15 21  1  0
 15 22  1  0
M  RAD  2   3   2  10   2
M  END
>  <reaction>  (5) 
rmg_rxn_190

>  <mol_properties>  (5) 
{"1": {"label": "*0", "atom_type": "Cs"}, "2": {"label": "*1", "atom_type": "N3s"}, "8": {"label": "*2", "atom_type": "H0"}, "9": {"label": "*3", "atom_type": "Cs"}, "10": {"label": "*4", "atom_type": "Cs"}}

>  <type>  (5) 
unop_1

>  <geom_source>  (5) 
Heuristics

$$$$

     RDKit          3D

 22 21  0  0  0  0  0  0  0  0999 V2000
   -0.7209   -0.8696   -4.1201 C   0  0  0  0  0  0  0  0  0  0  0  0
   -0.7209   -0.8696   -2.6021 C   0  0  0  0  0  0  0  0  0  0  0  0
   -0.7209    0.4579   -2.0623 N   0  0  0  0  0  2  0  0  0  0  0  0
    0.1614   -0.3532   -4.5002 H   0  0  0  0  0  0  0  0  0  0  0  0
   -0.7209   -1.8885   -4.5112 H   0  0  0  0  0  0  0  0  0  0  0  0
   -1.6031   -0.3532   -4.5002 H   0  0  0  0  0  0  0  0  0  0  0  0
    0.1514   -1.4233   -2.2182 H   0  0  0  0  0  0  0  0  0  0  0  0
   -1.5931   -1.4233   -2.2182 H   0  0  0  0  0  0  0  0  0  0  0  0
   -0.7209    0.3544   -0.8391 H   0  0  0  0  0  0  0  0  0  0  0  0
   -0.7209    0.2438    0.4670 C   0  0  0  0  0  3  0  0  0  0  0  0
   -0.0079   -1.0316    0.8930 C   0  0  0  0  0  0  0  0  0  0  0  0
    0.4884   -0.9010    2.2114 O   0  0  0  0  0  0  0  0  0  0  0  0
    1.3313    0.2047    2.3269 C   0  0  0  0  0  0  0  0  0  0  0  0
    0.6913    1.4097    2.0362 O   0  0  0  0  0  0  0  0  0  0  0  0
    0.2079    1.4256    0.7068 C   0  0  0  0  0  0  0  0  0  0  0  0
   -1.6280    0.3685    1.0615 H   0  0  0  0  0  0  0  0  0  0  0  0
   -0.6765   -1.8913    0.8935 H   0  0  0  0  0  0  0  0  0  0  0  0
    0.8258   -1.2444    0.2064 H   0  0  0  0  0  0  0  0  0  0  0  0
    2.1985    0.0774    1.6531 H   0  0  0  0  0  0  0  0  0  0  0  0
    1.6595    0.2544    3.3628 H   0  0  0  0  0  0  0  0  0  0  0  0
    1.0568    1.3856    0.0070 H   0  0  0  0  0  0  0  0  0  0  0  0
   -0.3016    2.3784    0.5698 H   0  0  0  0  0  0  0  0  0  0  0  0
  1  2  1  0
  1  4  1  0
  1  5  1  0
  1  6  1  0
  2  3  1  0
  2  7  1  0
  2  8  1  0
  3  9  1  0
 10 11  1  0
 10 15  1  0
 10 16  1  0
 11 12  1  0
 11 17  1  0
 11 18  1  0
 12 13  1  0
 13 14  1  0
 13 19  1  0
 13 20  1  0
 14 15  1  0
 15 21  1  0
 15 22  1  0
M  RAD  2   3   2  10   2
M  END
>  <reaction>  (6) 
rmg_rxn_190

>  <mol_properties>  (6) 
{"1": {"label": "*0", "atom_type": "Cs"}, "2": {"label": "*1", "atom_type": "N3s"}, "8": {"label": "*2", "atom_type": "H0"}, "9": {"label": "*3", "atom_type": "Cs"}, "10": {"label": "*4", "atom_type": "Cs"}}

>  <type>  (6) 
unop_2

>  <geom_source>  (6) 
Heuristics

$$$$

     RDKit          3D

 22 21  0  0  0  0  0  0  0  0999 V2000
    0.4475   -1.5136   -4.0582 C   0  0  0  0  0  0  0  0  0  0  0  0
    0.4475   -1.5136   -2.5402 C   0  0  0  0  0  0  0  0  0  0  0  0
    0.4475   -0.1860   -2.0005 N   0  0  0  0  0  2  0  0  0  0  0  0
    1.3297   -0.9971   -4.4383 H   0  0  0  0  0  0  0  0  0  0  0  0
    0.4475   -2.5324   -4.4493 H   0  0  0  0  0  0  0  0  0  0  0  0
   -0.4348   -0.9971   -4.4383 H   0  0  0  0  0  0  0  0  0  0  0  0
    1.3197   -2.0673   -2.1563 H   0  0  0  0  0  0  0  0  0  0  0  0
   -0.4248   -2.0673   -2.1563 H   0  0  0  0  0  0  0  0  0  0  0  0
    0.4475   -0.2895   -0.7772 H   0  0  0  0  0  0  0  0  0  0  0  0
    0.4475   -0.4001    0.5289 C   0  0  0  0  0  3  0  0  0  0  0  0
    1.1605    0.7856    1.1632 C   0  0  0  0  0  0  0  0  0  0  0  0
    0.5448    1.1317    2.3891 O   0  0  0  0  0  0  0  0  0  0  0  0
   -0.8130    1.4006    2.2145 C   0  0  0  0  0  0  0  0  0  0  0  0
   -1.5255    0.3069    1.7220 O   0  0  0  0  0  0  0  0  0  0  0  0
   -1.0411   -0.0914    0.4539 C   0  0  0  0  0  0  0  0  0  0  0  0
    0.6034   -1.2887    1.1436 H   0  0  0  0  0  0  0  0  0  0  0  0
    2.2024    0.5617    1.3879 H   0  0  0  0  0  0  0  0  0  0  0  0
    1.1334    1.6499    0.4820 H   0  0  0  0  0  0  0  0  0  0  0  0
   -0.9322    2.2570    1.5257 H   0  0  0  0  0  0  0  0  0  0  0  0
   -1.2236    1.6401    3.1928 H   0  0  0  0  0  0  0  0  0  0  0  0
   -1.2230    0.7112   -0.2772 H   0  0  0  0  0  0  0  0  0  0  0  0
   -1.6231   -0.9623    0.1554 H   0  0  0  0  0  0  0  0  0  0  0  0
  1  2  1  0
  1  4  1  0
  1  5  1  0
  1  6  1  0
  2  3  1  0
  2  7  1  0
  2  8  1  0
  3  9  1  0
 10 11  1  0
 10 15  1  0
 10 16  1  0
 11 12  1  0
 11 17  1  0
 11 18  1  0
 12 13  1  0
 13 14  1  0
 13 19  1  0
 13 20  1  0
 14 15  1  0
 15 21  1  0
 15 22  1  0
M  RAD  2   3   2  10   2
M  END
>  <reaction>  (7) 
rmg_rxn_190

>  <mol_properties>  (7) 
{"1": {"label": "*0", "atom_type": "Cs"}, "2": {"label": "*1", "atom_type": "N3s"}, "8": {"label": "*2", "atom_type": "H0"}, "9": {"label": "*3", "atom_type": "Cs"}, "10": {"label": "*4", "atom_type": "Cs"}}

>  <type>  (7) 
unop_3

>  <geom_source>  (7) 
Heuristics

$$$$

     RDKit          3D

 22 21  0  0  0  0  0  0  0  0999 V2000
    0.1723   -0.6732   -4.3963 C   0  0  0  0  0  0  0  0  0  0  0  0
    0.1723   -0.6732   -2.8784 C   0  0  0  0  0  0  0  0  0  0  0  0
    0.1723    0.6544   -2.3386 N   0  0  0  0  0  2  0  0  0  0  0  0
    1.0545   -0.1567   -4.7764 H   0  0  0  0  0  0  0  0  0  0  0  0
    0.1723   -1.6920   -4.7874 H   0  0  0  0  0  0  0  0  0  0  0  0
   -0.7100   -0.1567   -4.7764 H   0  0  0  0  0  0  0  0  0  0  0  0
    1.0445   -1.2269   -2.4944 H   0  0  0  0  0  0  0  0  0  0  0  0
   -0.7000   -1.2269   -2.4944 H   0  0  0  0  0  0  0  0  0  0  0  0
    0.1723    0.5509   -1.1154 H   0  0  0  0  0  0  0  0  0  0  0  0
    0.1723    0.4403    0.1908 C   0  0  0  0  0  3  0  0  0  0  0  0
   -1.0627   -0.3150    0.6608 C   0  0  0  0  0  0  0  0  0  0  0  0
   -1.3818    0.0433    1.9917 O   0  0  0  0  0  0  0  0  0  0  0  0
   -0.3033   -0.1810    2.8479 C   0  0  0  0  0  0  0  0  0  0  0  0
    0.8252    0.5659    2.5089 O   0  0  0  0  0  0  0  0  0  0  0  0
    1.2841    0.2408    1.2108 C   0  0  0  0  0  0  0  0  0  0  0  0
   -0.0610    1.5039    0.1114 H   0  0  0  0  0  0  0  0  0  0  0  0
   -1.9375   -0.0824    0.0552 H   0  0  0  0  0  0  0  0  0  0  0  0
   -0.8845   -1.3999    0.6054 H   0  0  0  0  0  0  0  0  0  0  0  0
   -0.0473   -1.2565    2.8422 H   0  0  0  0  0  0  0  0  0  0  0  0
   -0.6105    0.1309    3.8436 H   0  0  0  0  0  0  0  0  0  0  0  0
    1.6274   -0.8050    1.1941 H   0  0  0  0  0  0  0  0  0  0  0  0
    2.1405    0.8834    1.0109 H   0  0  0  0  0  0  0  0  0  0  0  0
  1  2  1  0
  1  4  1  0
  1  5  1  0
  1  6  1  0
  2  3  1  0
  2  7  1  0
  2  8  1  0
  3  9  1  0
 10 11  1  0
 10 15  1  0
 10 16  1  0
 11 12  1  0
 11 17  1  0
 11 18  1  0
 12 13  1  0
 13 14  1  0
 13 19  1  0
 13 20  1  0
 14 15  1  0
 15 21  1  0
 15 22  1  0
M  RAD  2   3   2  10   2
M  END
>  <reaction>  (8) 
rmg_rxn_190

>  <mol_properties>  (8) 
{"1": {"label": "*0", "atom_type": "Cs"}, "2": {"label": "*1", "atom_type": "N3s"}, "8": {"label": "*2", "atom_type": "H0"}, "9": {"label": "*3", "atom_type": "Cs"}, "10": {"label": "*4", "atom_type": "Cs"}}

>  <type>  (8) 
unop_4

>  <geom_source>  (8) 
Heuristics

$$$$

     RDKit          3D

 22 21  0  0  0  0  0  0  0  0999 V2000
    0.4549   -1.0720   -4.3020 C   0  0  0  0  0  0  0  0  0  0  0  0
    0.4549   -1.0720   -2.7840 C   0  0  0  0  0  0  0  0  0  0  0  0
    0.4549    0.2556   -2.2443 N   0  0  0  0  0  2  0  0  0  0  0  0
    1.3371   -0.5555   -4.6821 H   0  0  0  0  0  0  0  0  0  0  0  0
    0.4549   -2.0909   -4.6931 H   0  0  0  0  0  0  0  0  0  0  0  0
   -0.4274   -0.5555   -4.6821 H   0  0  0  0  0  0  0  0  0  0  0  0
    1.3271   -1.6257   -2.4001 H   0  0  0  0  0  0  0  0  0  0  0  0
   -0.4174   -1.6257   -2.4001 H   0  0  0  0  0  0  0  0  0  0  0  0
    0.4549    0.1520   -1.0211 H   0  0  0  0  0  0  0  0  0  0  0  0
    0.4549    0.0415    0.2851 C   0  0  0  0  0  3  0  0  0  0  0  0
    0.4549    1.4175    0.9355 C   0  0  0  0  0  0  0  0  0  0  0  0
    0.3063    1.2992    2.3374 O   0  0  0  0  0  0  0  0  0  0  0  0
   -0.8508    0.5920    2.6651 C   0  0  0  0  0  0  0  0  0  0  0  0
   -0.8515   -0.7113    2.1673 O   0  0  0  0  0  0  0  0  0  0  0  0
   -0.7763   -0.7203    0.7546 C   0  0  0  0  0  0  0  0  0  0  0  0
    1.3536   -0.5014    0.5841 H   0  0  0  0  0  0  0  0  0  0  0  0
    1.3894    1.9496    0.7631 H   0  0  0  0  0  0  0  0  0  0  0  0
   -0.3676    2.0262    0.5294 H   0  0  0  0  0  0  0  0  0  0  0  0
   -1.7339    1.1332    2.2787 H   0  0  0  0  0  0  0  0  0  0  0  0
   -0.8919    0.5238    3.7499 H   0  0  0  0  0  0  0  0  0  0  0  0
   -1.6853   -0.2621    0.3357 H   0  0  0  0  0  0  0  0  0  0  0  0
   -0.7499   -1.7653    0.4487 H   0  0  0  0  0  0  0  0  0  0  0  0
  1  2  1  0
  1  4  1  0
  1  5  1  0
  1  6  1  0
  2  3  1  0
  2  7  1  0
  2  8  1  0
  3  9  1  0
 10 11  1  0
 10 15  1  0
 10 16  1  0
 11 12  1  0
 11 17  1  0
 11 18  1  0
 12 13  1  0
 13 14  1  0
 13 19  1  0
 13 20  1  0
 14 15  1  0
 15 21  1  0
 15 22  1  0
M  RAD  2   3   2  10   2
M  END
>  <reaction>  (9) 
rmg_rxn_190

>  <mol_properties>  (9) 
{"1": {"label": "*0", "atom_type": "Cs"}, "2": {"label": "*1", "atom_type": "N3s"}, "8": {"label": "*2", "atom_type": "H0"}, "9": {"label": "*3", "atom_type": "Cs"}, "10": {"label": "*4", "atom_type": "Cs"}}

>  <type>  (9) 
unop_5

>  <geom_source>  (9) 
Heuristics

$$$$

     RDKit          3D

 22 21  0  0  0  0  0  0  0  0999 V2000
    0.2147   -0.8835   -4.4106 C   0  0  0  0  0  0  0  0  0  0  0  0
    0.2147   -0.8835   -2.8926 C   0  0  0  0  0  0  0  0  0  0  0  0
    0.2147    0.4441   -2.3529 N   0  0  0  0  0  2  0  0  0  0  0  0
    1.0969   -0.3670   -4.7907 H   0  0  0  0  0  0  0  0  0  0  0  0
    0.2147   -1.9024   -4.8017 H   0  0  0  0  0  0  0  0  0  0  0  0
   -0.6675   -0.3670   -4.7907 H   0  0  0  0  0  0  0  0  0  0  0  0
    1.0869   -1.4372   -2.5087 H   0  0  0  0  0  0  0  0  0  0  0  0
   -0.6575   -1.4372   -2.5087 H   0  0  0  0  0  0  0  0  0  0  0  0
    0.2147    0.3405   -1.1297 H   0  0  0  0  0  0  0  0  0  0  0  0
    0.2147    0.2300    0.1765 C   0  0  0  0  0  3  0  0  0  0  0  0
   -1.2113    0.1851    0.7067 C   0  0  0  0  0  0  0  0  0  0  0  0
   -1.2823    0.7969    1.9803 O   0  0  0  0  0  0  0  0  0  0  0  0
   -0.3968    0.1997    2.8779 C   0  0  0  0  0  0  0  0  0  0  0  0
    0.9356    0.3008    2.4767 O   0  0  0  0  0  0  0  0  0  0  0  0
    1.1471   -0.3424    1.2346 C   0  0  0  0  0  0  0  0  0  0  0  0
    0.4926    1.2652   -0.0306 H   0  0  0  0  0  0  0  0  0  0  0  0
   -1.9031    0.7242    0.0609 H   0  0  0  0  0  0  0  0  0  0  0  0
   -1.5528   -0.8588    0.7814 H   0  0  0  0  0  0  0  0  0  0  0  0
   -0.6630   -0.8661    3.0024 H   0  0  0  0  0  0  0  0  0  0  0  0
   -0.4906    0.7275    3.8243 H   0  0  0  0  0  0  0  0  0  0  0  0
    0.9716   -1.4234    1.3464 H   0  0  0  0  0  0  0  0  0  0  0  0
    2.1950   -0.1924    0.9783 H   0  0  0  0  0  0  0  0  0  0  0  0
  1  2  1  0
  1  4  1  0
  1  5  1  0
  1  6  1  0
  2  3  1  0
  2  7  1  0
  2  8  1  0
  3  9  1  0
 10 11  1  0
 10 15  1  0
 10 16  1  0
 11 12  1  0
 11 17  1  0
 11 18  1  0
 12 13  1  0
 13 14  1  0
 13 19  1  0
 13 20  1  0
 14 15  1  0
 15 21  1  0
 15 22  1  0
M  RAD  2   3   2  10   2
M  END
>  <reaction>  (10) 
rmg_rxn_190

>  <mol_properties>  (10) 
{"1": {"label": "*0", "atom_type": "Cs"}, "2": {"label": "*1", "atom_type": "N3s"}, "8": {"label": "*2", "atom_type": "H0"}, "9": {"label": "*3", "atom_type": "Cs"}, "10": {"label": "*4", "atom_type": "Cs"}}

>  <type>  (10) 
unop_6

>  <geom_source>  (10) 
Heuristics

$$$$

     RDKit          3D

 22 21  0  0  0  0  0  0  0  0999 V2000
    0.1429   -0.9829   -4.4187 C   0  0  0  0  0  0  0  0  0  0  0  0
    0.1429   -0.9829   -2.9007 C   0  0  0  0  0  0  0  0  0  0  0  0
    0.1429    0.3446   -2.3609 N   0  0  0  0  0  2  0  0  0  0  0  0
    1.0251   -0.4665   -4.7987 H   0  0  0  0  0  0  0  0  0  0  0  0
    0.1429   -2.0018   -4.8097 H   0  0  0  0  0  0  0  0  0  0  0  0
   -0.7393   -0.4665   -4.7987 H   0  0  0  0  0  0  0  0  0  0  0  0
    1.0152   -1.5366   -2.5168 H   0  0  0  0  0  0  0  0  0  0  0  0
   -0.7293   -1.5366   -2.5168 H   0  0  0  0  0  0  0  0  0  0  0  0
    0.1429    0.2411   -1.1377 H   0  0  0  0  0  0  0  0  0  0  0  0
    0.1429    0.1305    0.1684 C   0  0  0  0  0  3  0  0  0  0  0  0
   -1.0920    0.7961    0.7588 C   0  0  0  0  0  0  0  0  0  0  0  0
   -0.7934    1.3530    2.0245 O   0  0  0  0  0  0  0  0  0  0  0  0
   -0.2826    0.3882    2.8933 C   0  0  0  0  0  0  0  0  0  0  0  0
    0.9048   -0.1830    2.4350 O   0  0  0  0  0  0  0  0  0  0  0  0
    0.7138   -0.8372    1.1952 C   0  0  0  0  0  0  0  0  0  0  0  0
    0.8888    0.8924   -0.0663 H   0  0  0  0  0  0  0  0  0  0  0  0
   -1.4526    1.6124    0.1343 H   0  0  0  0  0  0  0  0  0  0  0  0
   -1.9031    0.0593    0.8641 H   0  0  0  0  0  0  0  0  0  0  0  0
   -1.0371   -0.4053    3.0455 H   0  0  0  0  0  0  0  0  0  0  0  0
   -0.0599    0.8860    3.8345 H   0  0  0  0  0  0  0  0  0  0  0  0
    0.0298   -1.6889    1.3312 H   0  0  0  0  0  0  0  0  0  0  0  0
    1.6853   -1.2257    0.8927 H   0  0  0  0  0  0  0  0  0  0  0  0
  1  2  1  0
  1  4  1  0
  1  5  1  0
  1  6  1  0
  2  3  1  0
  2  7  1  0
  2  8  1  0
  3  9  1  0
 10 11  1  0
 10 15  1  0
 10 16  1  0
 11 12  1  0
 11 17  1  0
 11 18  1  0
 12 13  1  0
 13 14  1  0
 13 19  1  0
 13 20  1  0
 14 15  1  0
 15 21  1  0
 15 22  1  0
M  RAD  2   3   2  10   2
M  END
>  <reaction>  (11) 
rmg_rxn_190

>  <mol_properties>  (11) 
{"1": {"label": "*0", "atom_type": "Cs"}, "2": {"label": "*1", "atom_type": "N3s"}, "8": {"label": "*2", "atom_type": "H0"}, "9": {"label": "*3", "atom_type": "Cs"}, "10": {"label": "*4", "atom_type": "Cs"}}

>  <type>  (11) 
unop_7

>  <geom_source>  (11) 
Heuristics

$$$$

     RDKit          3D

 22 21  0  0  0  0  0  0  0  0999 V2000
   -0.4155   -1.6318   -3.9339 C   0  0  0  0  0  0  0  0  0  0  0  0
   -0.4155   -1.6318   -2.4159 C   0  0  0  0  0  0  0  0  0  0  0  0
   -0.4155   -0.3043   -1.8761 N   0  0  0  0  0  2  0  0  0  0  0  0
    0.4667   -1.1153   -4.3139 H   0  0  0  0  0  0  0  0  0  0  0  0
   -0.4155   -2.6507   -4.3249 H   0  0  0  0  0  0  0  0  0  0  0  0
   -1.2977   -1.1153   -4.3139 H   0  0  0  0  0  0  0  0  0  0  0  0
    0.4567   -2.1855   -2.0320 H   0  0  0  0  0  0  0  0  0  0  0  0
   -1.2877   -2.1855   -2.0320 H   0  0  0  0  0  0  0  0  0  0  0  0
   -0.4155   -0.4078   -0.6529 H   0  0  0  0  0  0  0  0  0  0  0  0
   -0.4155   -0.5183    0.6532 C   0  0  0  0  0  3  0  0  0  0  0  0
    1.0105   -0.5632    1.1834 C   0  0  0  0  0  0  0  0  0  0  0  0
    1.1470    0.2930    2.3013 O   0  0  0  0  0  0  0  0  0  0  0  0
    0.7724    1.5994    1.9861 C   0  0  0  0  0  0  0  0  0  0  0  0
   -0.5597    1.7017    1.5842 O   0  0  0  0  0  0  0  0  0  0  0  0
   -0.8044    0.9347    0.4209 C   0  0  0  0  0  0  0  0  0  0  0  0
   -1.0902   -0.9616    1.3882 H   0  0  0  0  0  0  0  0  0  0  0  0
    1.2897   -1.5616    1.5172 H   0  0  0  0  0  0  0  0  0  0  0  0
    1.7150   -0.2541    0.3961 H   0  0  0  0  0  0  0  0  0  0  0  0
    1.4285    1.9865    1.1850 H   0  0  0  0  0  0  0  0  0  0  0  0
    0.8843    2.1948    2.8895 H   0  0  0  0  0  0  0  0  0  0  0  0
   -0.2275    1.3493   -0.4201 H   0  0  0  0  0  0  0  0  0  0  0  0
   -1.8639    1.0413    0.1923 H   0  0  0  0  0  0  0  0  0  0  0  0
  1  2  1  0
  1  4  1  0
  1  5  1  0
  1  6  1  0
  2  3  1  0
  2  7  1  0
  2  8  1  0
  3  9  1  0
 10 11  1  0
 10 15  1  0
 10 16  1  0
 11 12  1  0
 11 17  1  0
 11 18  1  0
 12 13  1  0
 13 14  1  0
 13 19  1  0
 13 20  1  0
 14 15  1  0
 15 21  1  0
 15 22  1  0
M  RAD  2   3   2  10   2
M  END
>  <reaction>  (12) 
rmg_rxn_190

>  <mol_properties>  (12) 
{"1": {"label": "*0", "atom_type": "Cs"}, "2": {"label": "*1", "atom_type": "N3s"}, "8": {"label": "*2", "atom_type": "H0"}, "9": {"label": "*3", "atom_type": "Cs"}, "10": {"label": "*4", "atom_type": "Cs"}}

>  <type>  (12) 
unop_8

>  <geom_source>  (12) 
Heuristics

$$$$

     RDKit          3D

 22 21  0  0  0  0  0  0  0  0999 V2000
   -0.0774   -0.5017   -4.3545 C   0  0  0  0  0  0  0  0  0  0  0  0
   -0.0774   -0.5017   -2.8365 C   0  0  0  0  0  0  0  0  0  0  0  0
   -0.0774    0.8259   -2.2968 N   0  0  0  0  0  2  0  0  0  0  0  0
    0.8048    0.0148   -4.7346 H   0  0  0  0  0  0  0  0  0  0  0  0
   -0.0774   -1.5206   -4.7456 H   0  0  0  0  0  0  0  0  0  0  0  0
   -0.9596    0.0148   -4.7346 H   0  0  0  0  0  0  0  0  0  0  0  0
    0.7948   -1.0554   -2.4526 H   0  0  0  0  0  0  0  0  0  0  0  0
   -0.9496   -1.0554   -2.4526 H   0  0  0  0  0  0  0  0  0  0  0  0
   -0.0774    0.7223   -1.0736 H   0  0  0  0  0  0  0  0  0  0  0  0
   -0.0774    0.6118    0.2326 C   0  0  0  0  0  3  0  0  0  0  0  0
   -0.7904   -0.6636    0.6586 C   0  0  0  0  0  0  0  0  0  0  0  0
   -1.0260   -0.6533    2.0535 O   0  0  0  0  0  0  0  0  0  0  0  0
    0.1618   -0.4836    2.7654 C   0  0  0  0  0  0  0  0  0  0  0  0
    0.8031    0.7209    2.4751 O   0  0  0  0  0  0  0  0  0  0  0  0
    1.1545    0.7976    1.1068 C   0  0  0  0  0  0  0  0  0  0  0  0
   -0.7476    1.4635    0.3639 H   0  0  0  0  0  0  0  0  0  0  0  0
   -1.7619   -0.7674    0.1774 H   0  0  0  0  0  0  0  0  0  0  0  0
   -0.1808   -1.5418    0.3958 H   0  0  0  0  0  0  0  0  0  0  0  0
    0.8445   -1.3252    2.5468 H   0  0  0  0  0  0  0  0  0  0  0  0
   -0.0941   -0.4671    3.8225 H   0  0  0  0  0  0  0  0  0  0  0  0
    1.9010    0.0223    0.8756 H   0  0  0  0  0  0  0  0  0  0  0  0
    1.6177    1.7718    0.9563 H   0  0  0  0  0  0  0  0  0  0  0  0
  1  2  1  0
  1  4  1  0
  1  5  1  0
  1  6  1  0
  2  3  1  0
  2  7  1  0
  2  8  1  0
  3  9  1  0
 10 11  1  0
 10 15  1  0
 10 16  1  0
 11 12  1  0
 11 17  1  0
 11 18  1  0
 12 13  1  0
 13 14  1  0
 13 19  1  0
 13 20  1  0
 14 15  1  0
 15 21  1  0
 15 22  1  0
M  RAD  2   3   2  10   2
M  END
>  <reaction>  (13) 
rmg_rxn_190

>  <mol_properties>  (13) 
{"1": {"label": "*0", "atom_type": "Cs"}, "2": {"label": "*1", "atom_type": "N3s"}, "8": {"label": "*2", "atom_type": "H0"}, "9": {"label": "*3", "atom_type": "Cs"}, "10": {"label": "*4", "atom_type": "Cs"}}

>  <type>  (13) 
unop_9

>  <geom_source>  (13) 
Heuristics

$$$$

     RDKit          3D

 22 21  0  0  0  0  0  0  0  0999 V2000
   -0.7040   -1.2957   -3.9997 C   0  0  0  0  0  0  0  0  0  0  0  0
   -0.7040   -1.2957   -2.4817 C   0  0  0  0  0  0  0  0  0  0  0  0
   -0.7040    0.0319   -1.9420 N   0  0  0  0  0  2  0  0  0  0  0  0
    0.1782   -0.7792   -4.3798 H   0  0  0  0  0  0  0  0  0  0  0  0
   -0.7040   -2.3146   -4.3908 H   0  0  0  0  0  0  0  0  0  0  0  0
   -1.5862   -0.7792   -4.3798 H   0  0  0  0  0  0  0  0  0  0  0  0
    0.1683   -1.8494   -2.0978 H   0  0  0  0  0  0  0  0  0  0  0  0
   -1.5762   -1.8494   -2.0978 H   0  0  0  0  0  0  0  0  0  0  0  0
   -0.7040   -0.0717   -0.7188 H   0  0  0  0  0  0  0  0  0  0  0  0
   -0.7040   -0.1822    0.5874 C   0  0  0  0  0  3  0  0  0  0  0  0
    0.5310   -0.9375    1.0574 C   0  0  0  0  0  0  0  0  0  0  0  0
    1.0237   -0.3759    2.2588 O   0  0  0  0  0  0  0  0  0  0  0  0
    1.2979    0.9834    2.1060 C   0  0  0  0  0  0  0  0  0  0  0  0
    0.1702    1.7313    1.7664 O   0  0  0  0  0  0  0  0  0  0  0  0
   -0.3766    1.3032    0.5339 C   0  0  0  0  0  0  0  0  0  0  0  0
   -1.5213   -0.3487    1.2917 H   0  0  0  0  0  0  0  0  0  0  0  0
    0.3133   -1.9840    1.2667 H   0  0  0  0  0  0  0  0  0  0  0  0
    1.3142   -0.8969    0.2849 H   0  0  0  0  0  0  0  0  0  0  0  0
    2.0742    1.1166    1.3303 H   0  0  0  0  0  0  0  0  0  0  0  0
    1.6532    1.3516    3.0659 H   0  0  0  0  0  0  0  0  0  0  0  0
    0.3427    1.5016   -0.2754 H   0  0  0  0  0  0  0  0  0  0  0  0
   -1.2638    1.9097    0.3570 H   0  0  0  0  0  0  0  0  0  0  0  0
  1  2  1  0
  1  4  1  0
  1  5  1  0
  1  6  1  0
  2  3  1  0
  2  7  1  0
  2  8  1  0
  3  9  1  0
 10 11  1  0
 10 15  1  0
 10 16  1  0
 11 12  1  0
 11 17  1  0
 11 18  1  0
 12 13  1  0
 13 14  1  0
 13 19  1  0
 13 20  1  0
 14 15  1  0
 15 21  1  0
 15 22  1  0
M  RAD  2   3   2  10   2
M  END
>  <reaction>  (14) 
rmg_rxn_190

>  <mol_properties>  (14) 
{"1": {"label": "*0", "atom_type": "Cs"}, "2": {"label": "*1", "atom_type": "N3s"}, "8": {"label": "*2", "atom_type": "H0"}, "9": {"label": "*3", "atom_type": "Cs"}, "10": {"label": "*4", "atom_type": "Cs"}}

>  <type>  (14) 
unop_10

>  <geom_source>  (14) 
Heuristics

$$$$

     RDKit          3D

 22 21  0  0  0  0  0  0  0  0999 V2000
    0.1701   -0.9502   -4.4171 C   0  0  0  0  0  0  0  0  0  0  0  0
    0.1701   -0.9502   -2.8992 C   0  0  0  0  0  0  0  0  0  0  0  0
    0.1701    0.3774   -2.3594 N   0  0  0  0  0  2  0  0  0  0  0  0
    1.0523   -0.4337   -4.7972 H   0  0  0  0  0  0  0  0  0  0  0  0
    0.1701   -1.9691   -4.8082 H   0  0  0  0  0  0  0  0  0  0  0  0
   -0.7122   -0.4337   -4.7972 H   0  0  0  0  0  0  0  0  0  0  0  0
    1.0423   -1.5039   -2.5152 H   0  0  0  0  0  0  0  0  0  0  0  0
   -0.7022   -1.5039   -2.5152 H   0  0  0  0  0  0  0  0  0  0  0  0
    0.1701    0.2738   -1.1362 H   0  0  0  0  0  0  0  0  0  0  0  0
    0.1701    0.1633    0.1700 C   0  0  0  0  0  3  0  0  0  0  0  0
   -0.5429    1.3490    0.8043 C   0  0  0  0  0  0  0  0  0  0  0  0
   -0.1290    1.5110    2.1474 O   0  0  0  0  0  0  0  0  0  0  0  0
   -0.3421    0.3468    2.8859 C   0  0  0  0  0  0  0  0  0  0  0  0
    0.3695   -0.7478    2.3940 O   0  0  0  0  0  0  0  0  0  0  0  0
   -0.0129   -1.0530    1.0665 C   0  0  0  0  0  0  0  0  0  0  0  0
    1.2343    0.3878    0.0754 H   0  0  0  0  0  0  0  0  0  0  0  0
   -0.3161    2.2827    0.2915 H   0  0  0  0  0  0  0  0  0  0  0  0
   -1.6324    1.1946    0.7721 H   0  0  0  0  0  0  0  0  0  0  0  0
   -1.4218    0.1094    2.8940 H   0  0  0  0  0  0  0  0  0  0  0  0
    0.0127    0.5354    3.8967 H   0  0  0  0  0  0  0  0  0  0  0  0
   -1.0651   -1.3763    1.0528 H   0  0  0  0  0  0  0  0  0  0  0  0
    0.6050   -1.8911    0.7471 H   0  0  0  0  0  0  0  0  0  0  0  0
  1  2  1  0
  1  4  1  0
  1  5  1  0
  1  6  1  0
  2  3  1  0
  2  7  1  0
  2  8  1  0
  3  9  1  0
 10 11  1  0
 10 15  1  0
 10 16  1  0
 11 12  1  0
 11 17  1  0
 11 18  1  0
 12 13  1  0
 13 14  1  0
 13 19  1  0
 13 20  1  0
 14 15  1  0
 15 21  1  0
 15 22  1  0
M  RAD  2   3   2  10   2
M  END
>  <reaction>  (15) 
rmg_rxn_190

>  <mol_properties>  (15) 
{"1": {"label": "*0", "atom_type": "Cs"}, "2": {"label": "*1", "atom_type": "N3s"}, "8": {"label": "*2", "atom_type": "H0"}, "9": {"label": "*3", "atom_type": "Cs"}, "10": {"label": "*4", "atom_type": "Cs"}}

>  <type>  (15) 
unop_11

>  <geom_source>  (15) 
Heuristics

$$$$

     RDKit          3D

 22 21  0  0  0  0  0  0  0  0999 V2000
   -0.4549   -0.5518   -4.2580 C   0  0  0  0  0  0  0  0  0  0  0  0
   -0.4549   -0.5518   -2.7400 C   0  0  0  0  0  0  0  0  0  0  0  0
   -0.4549    0.7757   -2.2002 N   0  0  0  0  0  2  0  0  0  0  0  0
    0.4274   -0.0353   -4.6381 H   0  0  0  0  0  0  0  0  0  0  0  0
   -0.4549   -1.5707   -4.6491 H   0  0  0  0  0  0  0  0  0  0  0  0
   -1.3371   -0.0353   -4.6381 H   0  0  0  0  0  0  0  0  0  0  0  0
    0.4174   -1.1055   -2.3561 H   0  0  0  0  0  0  0  0  0  0  0  0
   -1.3271   -1.1055   -2.3561 H   0  0  0  0  0  0  0  0  0  0  0  0
   -0.4549    0.6722   -0.9770 H   0  0  0  0  0  0  0  0  0  0  0  0
   -0.4549    0.5617    0.3291 C   0  0  0  0  0  3  0  0  0  0  0  0
   -0.4549   -0.9041    0.7390 C   0  0  0  0  0  0  0  0  0  0  0  0
   -0.3063   -1.0231    2.1409 O   0  0  0  0  0  0  0  0  0  0  0  0
    0.8508   -0.3810    2.5828 C   0  0  0  0  0  0  0  0  0  0  0  0
    0.8515    0.9874    2.3110 O   0  0  0  0  0  0  0  0  0  0  0  0
    0.7763    1.2337    0.9200 C   0  0  0  0  0  0  0  0  0  0  0  0
   -1.3536    1.0465    0.7151 H   0  0  0  0  0  0  0  0  0  0  0  0
   -1.3894   -1.3996    0.4796 H   0  0  0  0  0  0  0  0  0  0  0  0
    0.3676   -1.4359    0.2363 H   0  0  0  0  0  0  0  0  0  0  0  0
    1.7339   -0.8496    2.1109 H   0  0  0  0  0  0  0  0  0  0  0  0
    0.8919   -0.4962    3.6636 H   0  0  0  0  0  0  0  0  0  0  0  0
    1.6853    0.8524    0.4300 H   0  0  0  0  0  0  0  0  0  0  0  0
    0.7499    2.3153    0.7941 H   0  0  0  0  0  0  0  0  0  0  0  0
  1  2  1  0
  1  4  1  0
  1  5  1  0
  1  6  1  0
  2  3  1  0
  2  7  1  0
  2  8  1  0
  3  9  1  0
 10 11  1  0
 10 15  1  0
 10 16  1  0
 11 12  1  0
 11 17  1  0
 11 18  1  0
 12 13  1  0
 13 14  1  0
 13 19  1  0
 13 20  1  0
 14 15  1  0
 15 21  1  0
 15 22  1  0
M  RAD  2   3   2  10   2
M  END
>  <reaction>  (16) 
rmg_rxn_190

>  <mol_properties>  (16) 
{"1": {"label": "*0", "atom_type": "Cs"}, "2": {"label": "*1", "atom_type": "N3s"}, "8": {"label": "*2", "atom_type": "H0"}, "9": {"label": "*3", "atom_type": "Cs"}, "10": {"label": "*4", "atom_type": "Cs"}}

>  <type>  (16) 
unop_12

>  <geom_source>  (16) 
Heuristics

$$$$

     RDKit          3D

 22 21  0  0  0  0  0  0  0  0999 V2000
   -0.7209   -0.8696   -4.1201 C   0  0  0  0  0  0  0  0  0  0  0  0
   -0.7209   -0.8696   -2.6021 C   0  0  0  0  0  0  0  0  0  0  0  0
   -0.7209    0.4579   -2.0623 N   0  0  0  0  0  2  0  0  0  0  0  0
    0.1614   -0.3532   -4.5002 H   0  0  0  0  0  0  0  0  0  0  0  0
   -0.7209   -1.8885   -4.5112 H   0  0  0  0  0  0  0  0  0  0  0  0
   -1.6031   -0.3532   -4.5002 H   0  0  0  0  0  0  0  0  0  0  0  0
    0.1514   -1.4233   -2.2182 H   0  0  0  0  0  0  0  0  0  0  0  0
   -1.5931   -1.4233   -2.2182 H   0  0  0  0  0  0  0  0  0  0  0  0
   -0.7209    0.3544   -0.8391 H   0  0  0  0  0  0  0  0  0  0  0  0
   -0.7209    0.2438    0.4670 C   0  0  0  0  0  3  0  0  0  0  0  0
   -0.0079   -1.0316    0.8930 C   0  0  0  0  0  0  0  0  0  0  0  0
    0.4884   -0.9010    2.2114 O   0  0  0  0  0  0  0  0  0  0  0  0
    1.3314    0.2047    2.3269 C   0  0  0  0  0  0  0  0  0  0  0  0
    0.6913    1.4098    2.0362 O   0  0  0  0  0  0  0  0  0  0  0  0
    0.2079    1.4256    0.7068 C   0  0  0  0  0  0  0  0  0  0  0  0
   -1.6280    0.3685    1.0615 H   0  0  0  0  0  0  0  0  0  0  0  0
   -0.6765   -1.8913    0.8935 H   0  0  0  0  0  0  0  0  0  0  0  0
    0.8258   -1.2445    0.2064 H   0  0  0  0  0  0  0  0  0  0  0  0
    2.1985    0.0774    1.6531 H   0  0  0  0  0  0  0  0  0  0  0  0
    1.6595    0.2544    3.3628 H   0  0  0  0  0  0  0  0  0  0  0  0
    1.0568    1.3856    0.0070 H   0  0  0  0  0  0  0  0  0  0  0  0
   -0.3016    2.3784    0.5698 H   0  0  0  0  0  0  0  0  0  0  0  0
  1  2  1  0
  1  4  1  0
  1  5  1  0
  1  6  1  0
  2  3  1  0
  2  7  1  0
  2  8  1  0
  3  9  1  0
 10 11  1  0
 10 15  1  0
 10 16  1  0
 11 12  1  0
 11 17  1  0
 11 18  1  0
 12 13  1  0
 13 14  1  0
 13 19  1  0
 13 20  1  0
 14 15  1  0
 15 21  1  0
 15 22  1  0
M  RAD  2   3   2  10   2
M  END
>  <reaction>  (17) 
rmg_rxn_190

>  <mol_properties>  (17) 
{"1": {"label": "*0", "atom_type": "Cs"}, "2": {"label": "*1", "atom_type": "N3s"}, "8": {"label": "*2", "atom_type": "H0"}, "9": {"label": "*3", "atom_type": "Cs"}, "10": {"label": "*4", "atom_type": "Cs"}}

>  <type>  (17) 
unop_13

>  <geom_source>  (17) 
gaussian_log

$$$$
