
     RDKit          3D

  9  8  0  0  0  0  0  0  0  0999 V2000
   -1.0314    0.2323   -0.1227 C   0  0  0  0  0  0  0  0  0  0  0  0
    0.3094   -0.4511    0.0063 C   0  0  0  0  0  0  0  0  0  0  0  0
    0.3197   -1.7698    0.6841 N   0  0  0  0  0  0  0  0  0  0  0  0
   -0.7498   -2.1455    1.0557 O   0  0  0  0  0  0  0  0  0  0  0  0
   -1.4744    0.4198    0.8552 H   0  0  0  0  0  0  0  0  0  0  0  0
   -0.9073    1.1865   -0.6350 H   0  0  0  0  0  0  0  0  0  0  0  0
   -1.7319   -0.3778   -0.6927 H   0  0  0  0  0  0  0  0  0  0  0  0
    1.0375    0.1401    0.5713 H   0  0  0  0  0  0  0  0  0  0  0  0
    0.7826   -0.6494   -0.9609 H   0  0  0  0  0  0  0  0  0  0  0  0
  1  2  1  0
  1  5  1  0
  1  6  1  0
  1  7  1  0
  2  3  1  0
  2  8  1  0
  2  9  1  0
  3  4  2  0
M  END
>  <reaction>  (1) 
rmg_rxn_187

>  <mol_properties>  (1) 
{"0": {"label": "donator", "atom_type": "Cs"}, "4": {"label": "d_hydrogen", "atom_type": "H0"}}

>  <type>  (1) 
r1h

$$$$

     RDKit          3D

 17 16  0  0  0  0  0  0  0  0999 V2000
    3.3619    0.3511   -1.0290 C   0  0  0  0  0  3  0  0  0  0  0  0
    2.1806    1.0643   -0.5073 C   0  0  0  0  0  0  0  0  0  0  0  0
    1.4028    0.1998    0.2757 O   0  0  0  0  0  0  0  0  0  0  0  0
    0.2433    0.8081    0.7885 C   0  0  0  0  0  0  0  0  0  0  0  0
   -0.5040   -0.1878    1.6510 C   0  0  0  0  0  0  0  0  0  0  0  0
    0.2852   -0.6298    2.8762 C   0  0  0  0  0  0  0  0  0  0  0  0
    4.1174    0.8902   -1.5820 H   0  0  0  0  0  0  0  0  0  0  0  0
    3.4399   -0.7198   -0.9141 H   0  0  0  0  0  0  0  0  0  0  0  0
    1.5724    1.4684   -1.3398 H   0  0  0  0  0  0  0  0  0  0  0  0
    2.4896    1.9442    0.0856 H   0  0  0  0  0  0  0  0  0  0  0  0
    0.5169    1.6937    1.3835 H   0  0  0  0  0  0  0  0  0  0  0  0
   -0.3954    1.1528   -0.0379 H   0  0  0  0  0  0  0  0  0  0  0  0
   -0.7611   -1.0545    1.0367 H   0  0  0  0  0  0  0  0  0  0  0  0
   -1.4466    0.2743    1.9571 H   0  0  0  0  0  0  0  0  0  0  0  0
    0.5263    0.2245    3.5136 H   0  0  0  0  0  0  0  0  0  0  0  0
    1.2220   -1.1033    2.5825 H   0  0  0  0  0  0  0  0  0  0  0  0
   -0.2849   -1.3427    3.4737 H   0  0  0  0  0  0  0  0  0  0  0  0
  1  2  1  0
  1  7  1  0
  1  8  1  0
  2  3  1  0
  2  9  1  0
  2 10  1  0
  3  4  1  0
  4  5  1  0
  4 11  1  0
  4 12  1  0
  5  6  1  0
  5 13  1  0
  5 14  1  0
  6 15  1  0
  6 16  1  0
  6 17  1  0
M  RAD  1   1   2
M  END
>  <reaction>  (2) 
rmg_rxn_187

>  <mol_properties>  (2) 
{"0": {"label": "acceptor", "atom_type": "Cs"}}

>  <type>  (2) 
r2

$$$$

     RDKit          3D

 18 17  0  0  0  0  0  0  0  0999 V2000
    2.2026   -0.7213   -0.2612 C   0  0  0  0  0  0  0  0  0  0  0  0
    1.5384    0.2638    0.6915 C   0  0  0  0  0  0  0  0  0  0  0  0
    2.2584    1.5946    0.7694 C   0  0  0  0  0  0  0  0  0  0  0  0
    2.2212    2.2185   -0.4893 O   0  0  0  0  0  0  0  0  0  0  0  0
    2.8988    3.4488   -0.5204 C   0  0  0  0  0  0  0  0  0  0  0  0
    2.7981    4.0296   -1.9118 C   0  0  0  0  0  0  0  0  0  0  0  0
    3.2294   -0.9309    0.0486 H   0  0  0  0  0  0  0  0  0  0  0  0
    2.2338   -0.3181   -1.2734 H   0  0  0  0  0  0  0  0  0  0  0  0
    1.6610   -1.6680   -0.2875 H   0  0  0  0  0  0  0  0  0  0  0  0
    1.4990   -0.1566    1.7002 H   0  0  0  0  0  0  0  0  0  0  0  0
    0.5055    0.4455    0.3835 H   0  0  0  0  0  0  0  0  0  0  0  0
    3.3038    1.4410    1.0808 H   0  0  0  0  0  0  0  0  0  0  0  0
    1.7844    2.2410    1.5226 H   0  0  0  0  0  0  0  0  0  0  0  0
    2.4596    4.1376    0.2164 H   0  0  0  0  0  0  0  0  0  0  0  0
    3.9524    3.3035   -0.2397 H   0  0  0  0  0  0  0  0  0  0  0  0
    1.7543    4.1869   -2.1856 H   0  0  0  0  0  0  0  0  0  0  0  0
    3.2472    3.3545   -2.6411 H   0  0  0  0  0  0  0  0  0  0  0  0
    3.3178    4.9878   -1.9600 H   0  0  0  0  0  0  0  0  0  0  0  0
  1  2  1  0
  1  7  1  0
  1  8  1  0
  1  9  1  0
  2  3  1  0
  2 10  1  0
  2 11  1  0
  3  4  1  0
  3 12  1  0
  3 13  1  0
  4  5  1  0
  5  6  1  0
  5 14  1  0
  5 15  1  0
  6 16  1  0
  6 17  1  0
  6 18  1  0
M  END
>  <reaction>  (3) 
rmg_rxn_187

>  <mol_properties>  (3) 
{"0": {"label": "a_hydrogen", "atom_type": "H0"}, "1": {"label": "acceptor", "atom_type": "Cs"}}

>  <type>  (3) 
r2h

$$$$

     RDKit          3D

 26 24  0  0  0  0  0  0  0  0999 V2000
    2.7520    1.3821    1.1527 C   0  0  0  0  0  0  0  0  0  0  0  0
    2.4570    0.6870    2.4425 C   0  0  0  0  0  0  0  0  0  0  0  0
    2.1999   -0.7730    2.3808 N   0  0  0  0  0  0  0  0  0  0  0  0
    2.3597   -1.2636    1.3049 O   0  0  0  0  0  0  0  0  0  0  0  0
    1.6112    1.4509    0.4603 H   0  0  0  0  0  0  0  0  0  0  0  0
    3.0248    2.4263    1.2840 H   0  0  0  0  0  0  0  0  0  0  0  0
    3.4357    0.8521    0.4954 H   0  0  0  0  0  0  0  0  0  0  0  0
    1.5813    1.0946    2.9586 H   0  0  0  0  0  0  0  0  0  0  0  0
    3.2765    0.7617    3.1702 H   0  0  0  0  0  0  0  0  0  0  0  0
    0.4291    1.5584   -0.1805 C   0  0  0  0  0  3  0  0  0  0  0  0
   -0.2537    0.2301   -0.0544 C   0  0  0  0  0  0  0  0  0  0  0  0
   -1.4977    0.2846   -0.7137 O   0  0  0  0  0  0  0  0  0  0  0  0
   -2.2034   -0.9322   -0.6571 C   0  0  0  0  0  0  0  0  0  0  0  0
   -3.5021   -0.7935   -1.4243 C   0  0  0  0  0  0  0  0  0  0  0  0
   -3.2951   -0.5211   -2.9083 C   0  0  0  0  0  0  0  0  0  0  0  0
    0.7132    1.8216   -1.1970 H   0  0  0  0  0  0  0  0  0  0  0  0
   -0.0775    2.3747    0.3305 H   0  0  0  0  0  0  0  0  0  0  0  0
   -0.4066   -0.0253    1.0052 H   0  0  0  0  0  0  0  0  0  0  0  0
    0.3699   -0.5630   -0.4886 H   0  0  0  0  0  0  0  0  0  0  0  0
   -1.5918   -1.7393   -1.0891 H   0  0  0  0  0  0  0  0  0  0  0  0
   -2.4049   -1.1994    0.3904 H   0  0  0  0  0  0  0  0  0  0  0  0
   -4.0883    0.0113   -0.9731 H   0  0  0  0  0  0  0  0  0  0  0  0
   -4.0728   -1.7162   -1.2873 H   0  0  0  0  0  0  0  0  0  0  0  0
   -2.7295   -1.3299   -3.3775 H   0  0  0  0  0  0  0  0  0  0  0  0
   -2.7408    0.4055   -3.0573 H   0  0  0  0  0  0  0  0  0  0  0  0
   -4.2502   -0.4349   -3.4285 H   0  0  0  0  0  0  0  0  0  0  0  0
  1  2  1  0
  1  5  1  0
  1  6  1  0
  1  7  1  0
  2  3  1  0
  2  8  1  0
  2  9  1  0
  3  4  2  0
 10 11  1  0
 10 16  1  0
 10 17  1  0
 11 12  1  0
 11 18  1  0
 11 19  1  0
 12 13  1  0
 13 14  1  0
 13 20  1  0
 13 21  1  0
 14 15  1  0
 14 22  1  0
 14 23  1  0
 15 24  1  0
 15 25  1  0
 15 26  1  0
M  RAD  1  10   2
M  END
>  <reaction>  (4) 
rmg_rxn_187

>  <mol_properties>  (4) 
{"0": {"label": "*1", "atom_type": "Cs"}, "1": {"label": "*0", "atom_type": "Cs"}, "4": {"label": "*2", "atom_type": "H0"}, "9": {"label": "*3", "atom_type": "Cs"}, "10": {"label": "*4", "atom_type": "Cs"}}

>  <type>  (4) 
ts

$$$$

     RDKit          3D

 26 24  0  0  0  0  0  0  0  0999 V2000
    2.2927   -0.4814    1.5975 C   0  0  0  0  0  0  0  0  0  0  0  0
    2.2927   -1.6584    2.5442 C   0  0  0  0  0  0  0  0  0  0  0  0
    2.2927   -3.0065    1.9269 N   0  0  0  0  0  0  0  0  0  0  0  0
    2.2927   -3.0065    0.7340 O   0  0  0  0  0  0  0  0  0  0  0  0
    1.2366   -0.4942    0.8264 H   0  0  0  0  0  0  0  0  0  0  0  0
    2.2927    0.4470    2.1689 H   0  0  0  0  0  0  0  0  0  0  0  0
    3.1729   -0.4920    0.9549 H   0  0  0  0  0  0  0  0  0  0  0  0
    1.4215   -1.6733    3.2072 H   0  0  0  0  0  0  0  0  0  0  0  0
    3.1639   -1.6733    3.2072 H   0  0  0  0  0  0  0  0  0  0  0  0
    0.1791   -0.5069    0.0543 C   0  0  0  0  0  3  0  0  0  0  0  0
   -0.6346    0.7497    0.2600 C   0  0  0  0  0  0  0  0  0  0  0  0
   -1.1201    1.1877   -0.9834 O   0  0  0  0  0  0  0  0  0  0  0  0
   -1.8947    2.3571   -0.8976 C   0  0  0  0  0  0  0  0  0  0  0  0
   -2.4023    2.7254   -2.2767 C   0  0  0  0  0  0  0  0  0  0  0  0
   -3.3305    1.6756   -2.8730 C   0  0  0  0  0  0  0  0  0  0  0  0
   -0.4355   -1.2921   -0.3874 H   0  0  0  0  0  0  0  0  0  0  0  0
    1.0203   -0.3127   -0.6120 H   0  0  0  0  0  0  0  0  0  0  0  0
   -0.0179    1.5360    0.7201 H   0  0  0  0  0  0  0  0  0  0  0  0
   -1.4747    0.5562    0.9432 H   0  0  0  0  0  0  0  0  0  0  0  0
   -2.7428    2.1955   -0.2134 H   0  0  0  0  0  0  0  0  0  0  0  0
   -1.2911    3.1772   -0.4819 H   0  0  0  0  0  0  0  0  0  0  0  0
   -1.5422    2.8820   -2.9328 H   0  0  0  0  0  0  0  0  0  0  0  0
   -2.9205    3.6852   -2.1990 H   0  0  0  0  0  0  0  0  0  0  0  0
   -4.2079    1.5258   -2.2388 H   0  0  0  0  0  0  0  0  0  0  0  0
   -2.8191    0.7178   -2.9689 H   0  0  0  0  0  0  0  0  0  0  0  0
   -3.6798    1.9765   -3.8618 H   0  0  0  0  0  0  0  0  0  0  0  0
  1  2  1  0
  1  5  1  0
  1  6  1  0
  1  7  1  0
  2  3  1  0
  2  8  1  0
  2  9  1  0
  3  4  2  0
 10 11  1  0
 10 16  1  0
 10 17  1  0
 11 12  1  0
 11 18  1  0
 11 19  1  0
 12 13  1  0
 13 14  1  0
 13 20  1  0
 13 21  1  0
 14 15  1  0
 14 22  1  0
 14 23  1  0
 15 24  1  0
 15 25  1  0
 15 26  1  0
M  RAD  1  10   2
M  END
>  <reaction>  (5) 
rmg_rxn_187

>  <mol_properties>  (5) 
{"0": {"label": "*1", "atom_type": "Cs"}, "1": {"label": "*0", "atom_type": "Cs"}, "4": {"label": "*2", "atom_type": "H0"}, "9": {"label": "*3", "atom_type": "Cs"}, "10": {"label": "*4", "atom_type": "Cs"}}

>  <type>  (5) 
unop_1

>  <geom_source>  (5) 
Heuristics

$$$$

     RDKit          3D

 26 24  0  0  0  0  0  0  0  0999 V2000
    2.9109    0.9607    0.9192 C   0  0  0  0  0  0  0  0  0  0  0  0
    2.9109   -0.2162    1.8660 C   0  0  0  0  0  0  0  0  0  0  0  0
    2.9109   -1.5644    1.2487 N   0  0  0  0  0  0  0  0  0  0  0  0
    2.9109   -1.5644    0.0557 O   0  0  0  0  0  0  0  0  0  0  0  0
    1.8547    0.9480    0.1481 H   0  0  0  0  0  0  0  0  0  0  0  0
    2.9109    1.8892    1.4907 H   0  0  0  0  0  0  0  0  0  0  0  0
    3.7910    0.9501    0.2766 H   0  0  0  0  0  0  0  0  0  0  0  0
    2.0397   -0.2311    2.5290 H   0  0  0  0  0  0  0  0  0  0  0  0
    3.7821   -0.2311    2.5290 H   0  0  0  0  0  0  0  0  0  0  0  0
    0.7973    0.9352   -0.6239 C   0  0  0  0  0  3  0  0  0  0  0  0
   -0.3646    0.2842    0.0901 C   0  0  0  0  0  0  0  0  0  0  0  0
   -1.5580    0.6438   -0.5580 O   0  0  0  0  0  0  0  0  0  0  0  0
   -2.7030    0.0841    0.0340 C   0  0  0  0  0  0  0  0  0  0  0  0
   -3.9287    0.4960   -0.7555 C   0  0  0  0  0  0  0  0  0  0  0  0
   -3.9234   -0.0274   -2.1856 C   0  0  0  0  0  0  0  0  0  0  0  0
    0.8403    0.6061   -1.6628 H   0  0  0  0  0  0  0  0  0  0  0  0
    0.6940    2.0208   -0.6109 H   0  0  0  0  0  0  0  0  0  0  0  0
   -0.3977    0.6047    1.1420 H   0  0  0  0  0  0  0  0  0  0  0  0
   -0.2524   -0.8101    0.0886 H   0  0  0  0  0  0  0  0  0  0  0  0
   -2.6168   -1.0139    0.0524 H   0  0  0  0  0  0  0  0  0  0  0  0
   -2.7897    0.4227    1.0769 H   0  0  0  0  0  0  0  0  0  0  0  0
   -3.9910    1.5873   -0.7555 H   0  0  0  0  0  0  0  0  0  0  0  0
   -4.8105    0.1283   -0.2235 H   0  0  0  0  0  0  0  0  0  0  0  0
   -3.8855   -1.1195   -2.2007 H   0  0  0  0  0  0  0  0  0  0  0  0
   -3.0558    0.3454   -2.7299 H   0  0  0  0  0  0  0  0  0  0  0  0
   -4.8217    0.2836   -2.7209 H   0  0  0  0  0  0  0  0  0  0  0  0
  1  2  1  0
  1  5  1  0
  1  6  1  0
  1  7  1  0
  2  3  1  0
  2  8  1  0
  2  9  1  0
  3  4  2  0
 10 11  1  0
 10 16  1  0
 10 17  1  0
 11 12  1  0
 11 18  1  0
 11 19  1  0
 12 13  1  0
 13 14  1  0
 13 20  1  0
 13 21  1  0
 14 15  1  0
 14 22  1  0
 14 23  1  0
 15 24  1  0
 15 25  1  0
 15 26  1  0
M  RAD  1  10   2
M  END
>  <reaction>  (6) 
rmg_rxn_187

>  <mol_properties>  (6) 
{"0": {"label": "*1", "atom_type": "Cs"}, "1": {"label": "*0", "atom_type": "Cs"}, "4": {"label": "*2", "atom_type": "H0"}, "9": {"label": "*3", "atom_type": "Cs"}, "10": {"label": "*4", "atom_type": "Cs"}}

>  <type>  (6) 
unop_2

>  <geom_source>  (6) 
Heuristics

$$$$

     RDKit          3D

 26 24  0  0  0  0  0  0  0  0999 V2000
    2.1110   -0.3280    1.9680 C   0  0  0  0  0  0  0  0  0  0  0  0
    2.1110   -1.5050    2.9148 C   0  0  0  0  0  0  0  0  0  0  0  0
    2.1110   -2.8531    2.2975 N   0  0  0  0  0  0  0  0  0  0  0  0
    2.1110   -2.8531    1.1045 O   0  0  0  0  0  0  0  0  0  0  0  0
    1.0549   -0.3407    1.1969 H   0  0  0  0  0  0  0  0  0  0  0  0
    2.1110    0.6004    2.5395 H   0  0  0  0  0  0  0  0  0  0  0  0
    2.9911   -0.3386    1.3254 H   0  0  0  0  0  0  0  0  0  0  0  0
    1.2398   -1.5198    3.5778 H   0  0  0  0  0  0  0  0  0  0  0  0
    2.9822   -1.5198    3.5778 H   0  0  0  0  0  0  0  0  0  0  0  0
   -0.0026   -0.3535    0.4249 C   0  0  0  0  0  3  0  0  0  0  0  0
   -0.3945    1.0571    0.0503 C   0  0  0  0  0  0  0  0  0  0  0  0
   -1.0358    1.0359   -1.1995 O   0  0  0  0  0  0  0  0  0  0  0  0
   -1.4421    2.3078   -1.6379 C   0  0  0  0  0  0  0  0  0  0  0  0
   -2.1545    2.1763   -2.9685 C   0  0  0  0  0  0  0  0  0  0  0  0
   -3.4350    1.3564   -2.8835 C   0  0  0  0  0  0  0  0  0  0  0  0
   -0.8847   -0.9919    0.4853 H   0  0  0  0  0  0  0  0  0  0  0  0
    0.6749   -0.7724   -0.3200 H   0  0  0  0  0  0  0  0  0  0  0  0
    0.4943    1.7038    0.0050 H   0  0  0  0  0  0  0  0  0  0  0  0
   -1.0667    1.4838    0.8092 H   0  0  0  0  0  0  0  0  0  0  0  0
   -2.1135    2.7641   -0.8932 H   0  0  0  0  0  0  0  0  0  0  0  0
   -0.5675    2.9674   -1.7372 H   0  0  0  0  0  0  0  0  0  0  0  0
   -1.4664    1.7242   -3.6874 H   0  0  0  0  0  0  0  0  0  0  0  0
   -2.3760    3.1835   -3.3322 H   0  0  0  0  0  0  0  0  0  0  0  0
   -4.1427    1.8104   -2.1854 H   0  0  0  0  0  0  0  0  0  0  0  0
   -3.2236    0.3452   -2.5359 H   0  0  0  0  0  0  0  0  0  0  0  0
   -3.9226    1.2877   -3.8570 H   0  0  0  0  0  0  0  0  0  0  0  0
  1  2  1  0
  1  5  1  0
  1  6  1  0
  1  7  1  0
  2  3  1  0
  2  8  1  0
  2  9  1  0
  3  4  2  0
 10 11  1  0
 10 16  1  0
 10 17  1  0
 11 12  1  0
 11 18  1  0
 11 19  1  0
 12 13  1  0
 13 14  1  0
 13 20  1  0
 13 21  1  0
 14 15  1  0
 14 22  1  0
 14 23  1  0
 15 24  1  0
 15 25  1  0
 15 26  1  0
M  RAD  1  10   2
M  END
>  <reaction>  (7) 
rmg_rxn_187

>  <mol_properties>  (7) 
{"0": {"label": "*1", "atom_type": "Cs"}, "1": {"label": "*0", "atom_type": "Cs"}, "4": {"label": "*2", "atom_type": "H0"}, "9": {"label": "*3", "atom_type": "Cs"}, "10": {"label": "*4", "atom_type": "Cs"}}

>  <type>  (7) 
unop_3

>  <geom_source>  (7) 
Heuristics

$$$$

     RDKit          3D

 26 24  0  0  0  0  0  0  0  0999 V2000
    1.5884    1.3150    2.3931 C   0  0  0  0  0  0  0  0  0  0  0  0
    1.5884    0.1380    3.3398 C   0  0  0  0  0  0  0  0  0  0  0  0
    1.5884   -1.2101    2.7225 N   0  0  0  0  0  0  0  0  0  0  0  0
    1.5884   -1.2101    1.5296 O   0  0  0  0  0  0  0  0  0  0  0  0
    0.5322    1.3022    1.6220 H   0  0  0  0  0  0  0  0  0  0  0  0
    1.5884    2.2434    2.9645 H   0  0  0  0  0  0  0  0  0  0  0  0
    2.4685    1.3044    1.7505 H   0  0  0  0  0  0  0  0  0  0  0  0
    0.7172    0.1231    4.0028 H   0  0  0  0  0  0  0  0  0  0  0  0
    2.4596    0.1231    4.0028 H   0  0  0  0  0  0  0  0  0  0  0  0
   -0.5252    1.2895    0.8499 C   0  0  0  0  0  3  0  0  0  0  0  0
   -0.5573    0.0227    0.0267 C   0  0  0  0  0  0  0  0  0  0  0  0
   -1.1678    0.2964   -1.2085 O   0  0  0  0  0  0  0  0  0  0  0  0
   -1.2450   -0.8253   -2.0517 C   0  0  0  0  0  0  0  0  0  0  0  0
   -1.8796   -0.4219   -3.3669 C   0  0  0  0  0  0  0  0  0  0  0  0
   -1.0575    0.6012   -4.1394 C   0  0  0  0  0  0  0  0  0  0  0  0
    0.0410    2.0660    0.3344 H   0  0  0  0  0  0  0  0  0  0  0  0
   -1.5368    1.6586    1.0227 H   0  0  0  0  0  0  0  0  0  0  0  0
   -1.1153   -0.7649    0.5547 H   0  0  0  0  0  0  0  0  0  0  0  0
    0.4625   -0.3566   -0.1352 H   0  0  0  0  0  0  0  0  0  0  0  0
   -0.2365   -1.2320   -2.2276 H   0  0  0  0  0  0  0  0  0  0  0  0
   -1.8372   -1.6169   -1.5695 H   0  0  0  0  0  0  0  0  0  0  0  0
   -2.8776   -0.0251   -3.1636 H   0  0  0  0  0  0  0  0  0  0  0  0
   -2.0143   -1.3264   -3.9665 H   0  0  0  0  0  0  0  0  0  0  0  0
   -0.0642    0.2084   -4.3707 H   0  0  0  0  0  0  0  0  0  0  0  0
   -0.9296    1.5132   -3.5564 H   0  0  0  0  0  0  0  0  0  0  0  0
   -1.5414    0.8633   -5.0814 H   0  0  0  0  0  0  0  0  0  0  0  0
  1  2  1  0
  1  5  1  0
  1  6  1  0
  1  7  1  0
  2  3  1  0
  2  8  1  0
  2  9  1  0
  3  4  2  0
 10 11  1  0
 10 16  1  0
 10 17  1  0
 11 12  1  0
 11 18  1  0
 11 19  1  0
 12 13  1  0
 13 14  1  0
 13 20  1  0
 13 21  1  0
 14 15  1  0
 14 22  1  0
 14 23  1  0
 15 24  1  0
 15 25  1  0
 15 26  1  0
M  RAD  1  10   2
M  END
>  <reaction>  (8) 
rmg_rxn_187

>  <mol_properties>  (8) 
{"0": {"label": "*1", "atom_type": "Cs"}, "1": {"label": "*0", "atom_type": "Cs"}, "4": {"label": "*2", "atom_type": "H0"}, "9": {"label": "*3", "atom_type": "Cs"}, "10": {"label": "*4", "atom_type": "Cs"}}

>  <type>  (8) 
unop_4

>  <geom_source>  (8) 
Heuristics

$$$$

     RDKit          3D

 26 24  0  0  0  0  0  0  0  0999 V2000
    2.1174   -0.2465    2.0311 C   0  0  0  0  0  0  0  0  0  0  0  0
    2.1174   -1.4235    2.9779 C   0  0  0  0  0  0  0  0  0  0  0  0
    2.1174   -2.7716    2.3606 N   0  0  0  0  0  0  0  0  0  0  0  0
    2.1174   -2.7716    1.1676 O   0  0  0  0  0  0  0  0  0  0  0  0
    1.0613   -0.2592    1.2600 H   0  0  0  0  0  0  0  0  0  0  0  0
    2.1174    0.6819    2.6026 H   0  0  0  0  0  0  0  0  0  0  0  0
    2.9976   -0.2571    1.3885 H   0  0  0  0  0  0  0  0  0  0  0  0
    1.2462   -1.4383    3.6409 H   0  0  0  0  0  0  0  0  0  0  0  0
    2.9886   -1.4383    3.6409 H   0  0  0  0  0  0  0  0  0  0  0  0
    0.0038   -0.2720    0.4880 C   0  0  0  0  0  3  0  0  0  0  0  0
    0.0255    0.9132   -0.4493 C   0  0  0  0  0  0  0  0  0  0  0  0
   -1.1185    0.8720   -1.2636 O   0  0  0  0  0  0  0  0  0  0  0  0
   -1.1915    1.9393   -2.1749 C   0  0  0  0  0  0  0  0  0  0  0  0
   -2.4725    1.8287   -2.9762 C   0  0  0  0  0  0  0  0  0  0  0  0
   -3.7263    1.9492   -2.1202 C   0  0  0  0  0  0  0  0  0  0  0  0
   -0.8859   -0.2447    1.1180 H   0  0  0  0  0  0  0  0  0  0  0  0
   -0.0025   -1.2053   -0.0762 H   0  0  0  0  0  0  0  0  0  0  0  0
    0.9312    0.8932   -1.0734 H   0  0  0  0  0  0  0  0  0  0  0  0
    0.0460    1.8538    0.1206 H   0  0  0  0  0  0  0  0  0  0  0  0
   -1.1667    2.8977   -1.6323 H   0  0  0  0  0  0  0  0  0  0  0  0
   -0.3196    1.9206   -2.8452 H   0  0  0  0  0  0  0  0  0  0  0  0
   -2.4696    0.8720   -3.5050 H   0  0  0  0  0  0  0  0  0  0  0  0
   -2.4607    2.6123   -3.7388 H   0  0  0  0  0  0  0  0  0  0  0  0
   -3.7544    2.9119   -1.6037 H   0  0  0  0  0  0  0  0  0  0  0  0
   -3.7556    1.1632   -1.3656 H   0  0  0  0  0  0  0  0  0  0  0  0
   -4.6273    1.8704   -2.7303 H   0  0  0  0  0  0  0  0  0  0  0  0
  1  2  1  0
  1  5  1  0
  1  6  1  0
  1  7  1  0
  2  3  1  0
  2  8  1  0
  2  9  1  0
  3  4  2  0
 10 11  1  0
 10 16  1  0
 10 17  1  0
 11 12  1  0
 11 18  1  0
 11 19  1  0
 12 13  1  0
 13 14  1  0
 13 20  1  0
 13 21  1  0
 14 15  1  0
 14 22  1  0
 14 23  1  0
 15 24  1  0
 15 25  1  0
 15 26  1  0
M  RAD  1  10   2
M  END
>  <reaction>  (9) 
rmg_rxn_187

>  <mol_properties>  (9) 
{"0": {"label": "*1", "atom_type": "Cs"}, "1": {"label": "*0", "atom_type": "Cs"}, "4": {"label": "*2", "atom_type": "H0"}, "9": {"label": "*3", "atom_type": "Cs"}, "10": {"label": "*4", "atom_type": "Cs"}}

>  <type>  (9) 
unop_5

>  <geom_source>  (9) 
Heuristics

$$$$

     RDKit          3D

 26 24  0  0  0  0  0  0  0  0999 V2000
    1.3718    0.6562    2.5658 C   0  0  0  0  0  0  0  0  0  0  0  0
    1.3718   -0.5207    3.5126 C   0  0  0  0  0  0  0  0  0  0  0  0
    1.3718   -1.8689    2.8953 N   0  0  0  0  0  0  0  0  0  0  0  0
    1.3718   -1.8689    1.7023 O   0  0  0  0  0  0  0  0  0  0  0  0
    0.3156    0.6435    1.7947 H   0  0  0  0  0  0  0  0  0  0  0  0
    1.3718    1.5847    3.1373 H   0  0  0  0  0  0  0  0  0  0  0  0
    2.2519    0.6456    1.9232 H   0  0  0  0  0  0  0  0  0  0  0  0
    0.5006   -0.5356    4.1756 H   0  0  0  0  0  0  0  0  0  0  0  0
    2.2430   -0.5356    4.1756 H   0  0  0  0  0  0  0  0  0  0  0  0
   -0.7418    0.6307    1.0227 C   0  0  0  0  0  3  0  0  0  0  0  0
   -0.4567   -0.1441   -0.2430 C   0  0  0  0  0  0  0  0  0  0  0  0
   -1.0671    0.5103   -1.3260 O   0  0  0  0  0  0  0  0  0  0  0  0
   -0.8580   -0.1361   -2.5561 C   0  0  0  0  0  0  0  0  0  0  0  0
   -1.5180    0.6625   -3.6615 C   0  0  0  0  0  0  0  0  0  0  0  0
   -0.9199    2.0522   -3.8351 C   0  0  0  0  0  0  0  0  0  0  0  0
   -0.3466    1.6444    0.9474 H   0  0  0  0  0  0  0  0  0  0  0  0
   -1.8162    0.6926    1.1991 H   0  0  0  0  0  0  0  0  0  0  0  0
   -0.8419   -1.1712   -0.1599 H   0  0  0  0  0  0  0  0  0  0  0  0
    0.6276   -0.2179   -0.4127 H   0  0  0  0  0  0  0  0  0  0  0  0
    0.2221   -0.2304   -2.7512 H   0  0  0  0  0  0  0  0  0  0  0  0
   -1.2738   -1.1538   -2.5205 H   0  0  0  0  0  0  0  0  0  0  0  0
   -2.5866    0.7383   -3.4445 H   0  0  0  0  0  0  0  0  0  0  0  0
   -1.4229    0.0932   -4.5903 H   0  0  0  0  0  0  0  0  0  0  0  0
    0.1443    1.9910   -4.0764 H   0  0  0  0  0  0  0  0  0  0  0  0
   -1.0226    2.6339   -2.9191 H   0  0  0  0  0  0  0  0  0  0  0  0
   -1.4152    2.5950   -4.6415 H   0  0  0  0  0  0  0  0  0  0  0  0
  1  2  1  0
  1  5  1  0
  1  6  1  0
  1  7  1  0
  2  3  1  0
  2  8  1  0
  2  9  1  0
  3  4  2  0
 10 11  1  0
 10 16  1  0
 10 17  1  0
 11 12  1  0
 11 18  1  0
 11 19  1  0
 12 13  1  0
 13 14  1  0
 13 20  1  0
 13 21  1  0
 14 15  1  0
 14 22  1  0
 14 23  1  0
 15 24  1  0
 15 25  1  0
 15 26  1  0
M  RAD  1  10   2
M  END
>  <reaction>  (10) 
rmg_rxn_187

>  <mol_properties>  (10) 
{"0": {"label": "*1", "atom_type": "Cs"}, "1": {"label": "*0", "atom_type": "Cs"}, "4": {"label": "*2", "atom_type": "H0"}, "9": {"label": "*3", "atom_type": "Cs"}, "10": {"label": "*4", "atom_type": "Cs"}}

>  <type>  (10) 
unop_6

>  <geom_source>  (10) 
Heuristics

$$$$

     RDKit          3D

 26 24  0  0  0  0  0  0  0  0999 V2000
    1.4744    0.0084    2.4315 C   0  0  0  0  0  0  0  0  0  0  0  0
    1.4744   -1.1686    3.3782 C   0  0  0  0  0  0  0  0  0  0  0  0
    1.4744   -2.5167    2.7610 N   0  0  0  0  0  0  0  0  0  0  0  0
    1.4744   -2.5167    1.5680 O   0  0  0  0  0  0  0  0  0  0  0  0
    0.4183   -0.0043    1.6604 H   0  0  0  0  0  0  0  0  0  0  0  0
    1.4744    0.9368    3.0029 H   0  0  0  0  0  0  0  0  0  0  0  0
    2.3545   -0.0022    1.7889 H   0  0  0  0  0  0  0  0  0  0  0  0
    0.6032   -1.1835    4.0413 H   0  0  0  0  0  0  0  0  0  0  0  0
    2.3456   -1.1835    4.0413 H   0  0  0  0  0  0  0  0  0  0  0  0
   -0.6392   -0.0171    0.8884 C   0  0  0  0  0  3  0  0  0  0  0  0
   -0.2267   -0.0937   -0.5634 C   0  0  0  0  0  0  0  0  0  0  0  0
   -1.0719    0.7331   -1.3222 O   0  0  0  0  0  0  0  0  0  0  0  0
   -0.7668    0.7312   -2.6940 C   0  0  0  0  0  0  0  0  0  0  0  0
   -1.7028    1.6775   -3.4177 C   0  0  0  0  0  0  0  0  0  0  0  0
   -1.5472    3.1269   -2.9770 C   0  0  0  0  0  0  0  0  0  0  0  0
   -0.5615    1.0074    1.2542 H   0  0  0  0  0  0  0  0  0  0  0  0
   -1.6709   -0.3487    1.0105 H   0  0  0  0  0  0  0  0  0  0  0  0
   -0.2904   -1.1300   -0.9270 H   0  0  0  0  0  0  0  0  0  0  0  0
    0.8184    0.2277   -0.6836 H   0  0  0  0  0  0  0  0  0  0  0  0
    0.2785    1.0438   -2.8459 H   0  0  0  0  0  0  0  0  0  0  0  0
   -0.8657   -0.2867   -3.0989 H   0  0  0  0  0  0  0  0  0  0  0  0
   -2.7303    1.3433   -3.2525 H   0  0  0  0  0  0  0  0  0  0  0  0
   -1.5088    1.5873   -4.4901 H   0  0  0  0  0  0  0  0  0  0  0  0
   -0.5298    3.4823   -3.1587 H   0  0  0  0  0  0  0  0  0  0  0  0
   -1.7530    3.2307   -1.9117 H   0  0  0  0  0  0  0  0  0  0  0  0
   -2.2316    3.7786   -3.5220 H   0  0  0  0  0  0  0  0  0  0  0  0
  1  2  1  0
  1  5  1  0
  1  6  1  0
  1  7  1  0
  2  3  1  0
  2  8  1  0
  2  9  1  0
  3  4  2  0
 10 11  1  0
 10 16  1  0
 10 17  1  0
 11 12  1  0
 11 18  1  0
 11 19  1  0
 12 13  1  0
 13 14  1  0
 13 20  1  0
 13 21  1  0
 14 15  1  0
 14 22  1  0
 14 23  1  0
 15 24  1  0
 15 25  1  0
 15 26  1  0
M  RAD  1  10   2
M  END
>  <reaction>  (11) 
rmg_rxn_187

>  <mol_properties>  (11) 
{"0": {"label": "*1", "atom_type": "Cs"}, "1": {"label": "*0", "atom_type": "Cs"}, "4": {"label": "*2", "atom_type": "H0"}, "9": {"label": "*3", "atom_type": "Cs"}, "10": {"label": "*4", "atom_type": "Cs"}}

>  <type>  (11) 
unop_7

>  <geom_source>  (11) 
Heuristics

$$$$

     RDKit          3D

 26 24  0  0  0  0  0  0  0  0999 V2000
    2.6251   -0.3084    1.1425 C   0  0  0  0  0  0  0  0  0  0  0  0
    2.6251   -1.4854    2.0892 C   0  0  0  0  0  0  0  0  0  0  0  0
    2.6251   -2.8336    1.4720 N   0  0  0  0  0  0  0  0  0  0  0  0
    2.6251   -2.8336    0.2790 O   0  0  0  0  0  0  0  0  0  0  0  0
    1.5689   -0.3212    0.3714 H   0  0  0  0  0  0  0  0  0  0  0  0
    2.6251    0.6200    1.7139 H   0  0  0  0  0  0  0  0  0  0  0  0
    3.5052   -0.3191    0.4999 H   0  0  0  0  0  0  0  0  0  0  0  0
    1.7539   -1.5003    2.7523 H   0  0  0  0  0  0  0  0  0  0  0  0
    3.4963   -1.5003    2.7523 H   0  0  0  0  0  0  0  0  0  0  0  0
    0.5115   -0.3339   -0.4006 C   0  0  0  0  0  3  0  0  0  0  0  0
   -0.6193    0.4307    0.2475 C   0  0  0  0  0  0  0  0  0  0  0  0
   -1.2996    1.1633   -0.7395 O   0  0  0  0  0  0  0  0  0  0  0  0
   -2.3760    1.9119   -0.2337 C   0  0  0  0  0  0  0  0  0  0  0  0
   -3.0664    2.6319   -1.3740 C   0  0  0  0  0  0  0  0  0  0  0  0
   -3.6844    1.6843   -2.3935 C   0  0  0  0  0  0  0  0  0  0  0  0
    0.1255   -1.0208   -1.1548 H   0  0  0  0  0  0  0  0  0  0  0  0
    1.2085    0.3515   -0.8841 H   0  0  0  0  0  0  0  0  0  0  0  0
   -0.2304    1.1117    1.0190 H   0  0  0  0  0  0  0  0  0  0  0  0
   -1.3144   -0.2605    0.7468 H   0  0  0  0  0  0  0  0  0  0  0  0
   -3.0879    1.2456    0.2788 H   0  0  0  0  0  0  0  0  0  0  0  0
   -2.0126    2.6362    0.5101 H   0  0  0  0  0  0  0  0  0  0  0  0
   -2.3396    3.2862   -1.8622 H   0  0  0  0  0  0  0  0  0  0  0  0
   -3.8373    3.2785   -0.9457 H   0  0  0  0  0  0  0  0  0  0  0  0
   -4.4312    1.0396   -1.9236 H   0  0  0  0  0  0  0  0  0  0  0  0
   -2.9218    1.0448   -2.8380 H   0  0  0  0  0  0  0  0  0  0  0  0
   -4.1763    2.2368   -3.1954 H   0  0  0  0  0  0  0  0  0  0  0  0
  1  2  1  0
  1  5  1  0
  1  6  1  0
  1  7  1  0
  2  3  1  0
  2  8  1  0
  2  9  1  0
  3  4  2  0
 10 11  1  0
 10 16  1  0
 10 17  1  0
 11 12  1  0
 11 18  1  0
 11 19  1  0
 12 13  1  0
 13 14  1  0
 13 20  1  0
 13 21  1  0
 14 15  1  0
 14 22  1  0
 14 23  1  0
 15 24  1  0
 15 25  1  0
 15 26  1  0
M  RAD  1  10   2
M  END
>  <reaction>  (12) 
rmg_rxn_187

>  <mol_properties>  (12) 
{"0": {"label": "*1", "atom_type": "Cs"}, "1": {"label": "*0", "atom_type": "Cs"}, "4": {"label": "*2", "atom_type": "H0"}, "9": {"label": "*3", "atom_type": "Cs"}, "10": {"label": "*4", "atom_type": "Cs"}}

>  <type>  (12) 
unop_8

>  <geom_source>  (12) 
Heuristics

$$$$

     RDKit          3D

 26 24  0  0  0  0  0  0  0  0999 V2000
    2.0632    1.6864    1.9317 C   0  0  0  0  0  0  0  0  0  0  0  0
    2.0632    0.5094    2.8784 C   0  0  0  0  0  0  0  0  0  0  0  0
    2.0632   -0.8387    2.2612 N   0  0  0  0  0  0  0  0  0  0  0  0
    2.0632   -0.8387    1.0682 O   0  0  0  0  0  0  0  0  0  0  0  0
    1.0070    1.6737    1.1606 H   0  0  0  0  0  0  0  0  0  0  0  0
    2.0632    2.6148    2.5031 H   0  0  0  0  0  0  0  0  0  0  0  0
    2.9433    1.6758    1.2891 H   0  0  0  0  0  0  0  0  0  0  0  0
    1.1920    0.4946    3.5415 H   0  0  0  0  0  0  0  0  0  0  0  0
    2.9344    0.4946    3.5415 H   0  0  0  0  0  0  0  0  0  0  0  0
   -0.0504    1.6609    0.3886 C   0  0  0  0  0  3  0  0  0  0  0  0
   -0.5043    0.2402    0.1457 C   0  0  0  0  0  0  0  0  0  0  0  0
   -1.3456    0.2158   -0.9791 O   0  0  0  0  0  0  0  0  0  0  0  0
   -1.8224   -1.0692   -1.2896 C   0  0  0  0  0  0  0  0  0  0  0  0
   -2.6841   -0.9980   -2.5336 C   0  0  0  0  0  0  0  0  0  0  0  0
   -1.9155   -0.5490   -3.7693 C   0  0  0  0  0  0  0  0  0  0  0  0
    0.4955    2.0407   -0.4758 H   0  0  0  0  0  0  0  0  0  0  0  0
   -0.9079    2.3108    0.5667 H   0  0  0  0  0  0  0  0  0  0  0  0
   -1.0412   -0.1474    1.0242 H   0  0  0  0  0  0  0  0  0  0  0  0
    0.3620   -0.4172   -0.0201 H   0  0  0  0  0  0  0  0  0  0  0  0
   -0.9752   -1.7534   -1.4553 H   0  0  0  0  0  0  0  0  0  0  0  0
   -2.4040   -1.4676   -0.4452 H   0  0  0  0  0  0  0  0  0  0  0  0
   -3.5163   -0.3160   -2.3409 H   0  0  0  0  0  0  0  0  0  0  0  0
   -3.1177   -1.9881   -2.6993 H   0  0  0  0  0  0  0  0  0  0  0  0
   -1.0941   -1.2359   -3.9881 H   0  0  0  0  0  0  0  0  0  0  0  0
   -1.4912    0.4439   -3.6204 H   0  0  0  0  0  0  0  0  0  0  0  0
   -2.5653   -0.5147   -4.6450 H   0  0  0  0  0  0  0  0  0  0  0  0
  1  2  1  0
  1  5  1  0
  1  6  1  0
  1  7  1  0
  2  3  1  0
  2  8  1  0
  2  9  1  0
  3  4  2  0
 10 11  1  0
 10 16  1  0
 10 17  1  0
 11 12  1  0
 11 18  1  0
 11 19  1  0
 12 13  1  0
 13 14  1  0
 13 20  1  0
 13 21  1  0
 14 15  1  0
 14 22  1  0
 14 23  1  0
 15 24  1  0
 15 25  1  0
 15 26  1  0
M  RAD  1  10   2
M  END
>  <reaction>  (13) 
rmg_rxn_187

>  <mol_properties>  (13) 
{"0": {"label": "*1", "atom_type": "Cs"}, "1": {"label": "*0", "atom_type": "Cs"}, "4": {"label": "*2", "atom_type": "H0"}, "9": {"label": "*3", "atom_type": "Cs"}, "10": {"label": "*4", "atom_type": "Cs"}}

>  <type>  (13) 
unop_9

>  <geom_source>  (13) 
Heuristics

$$$$

     RDKit          3D

 26 24  0  0  0  0  0  0  0  0999 V2000
    2.8908    0.2302    0.8580 C   0  0  0  0  0  0  0  0  0  0  0  0
    2.8908   -0.9468    1.8047 C   0  0  0  0  0  0  0  0  0  0  0  0
    2.8908   -2.2949    1.1874 N   0  0  0  0  0  0  0  0  0  0  0  0
    2.8908   -2.2949   -0.0055 O   0  0  0  0  0  0  0  0  0  0  0  0
    1.8347    0.2175    0.0869 H   0  0  0  0  0  0  0  0  0  0  0  0
    2.8908    1.1586    1.4294 H   0  0  0  0  0  0  0  0  0  0  0  0
    3.7710    0.2196    0.2154 H   0  0  0  0  0  0  0  0  0  0  0  0
    2.0196   -0.9617    2.4677 H   0  0  0  0  0  0  0  0  0  0  0  0
    3.7620   -0.9617    2.4677 H   0  0  0  0  0  0  0  0  0  0  0  0
    0.7772    0.2047   -0.6852 C   0  0  0  0  0  3  0  0  0  0  0  0
   -0.4810    0.2711    0.1490 C   0  0  0  0  0  0  0  0  0  0  0  0
   -1.4709    0.9592   -0.5721 O   0  0  0  0  0  0  0  0  0  0  0  0
   -2.6871    1.0737    0.1228 C   0  0  0  0  0  0  0  0  0  0  0  0
   -3.6972    1.7923   -0.7481 C   0  0  0  0  0  0  0  0  0  0  0  0
   -4.0369    1.0318   -2.0230 C   0  0  0  0  0  0  0  0  0  0  0  0
    0.5870   -0.3193   -1.6225 H   0  0  0  0  0  0  0  0  0  0  0  0
    1.1345    1.2083   -0.9184 H   0  0  0  0  0  0  0  0  0  0  0  0
   -0.2843    0.7859    1.1012 H   0  0  0  0  0  0  0  0  0  0  0  0
   -0.8328   -0.7416    0.3955 H   0  0  0  0  0  0  0  0  0  0  0  0
   -3.0621    0.0728    0.3893 H   0  0  0  0  0  0  0  0  0  0  0  0
   -2.5322    1.6254    1.0616 H   0  0  0  0  0  0  0  0  0  0  0  0
   -3.3016    2.7809   -0.9950 H   0  0  0  0  0  0  0  0  0  0  0  0
   -4.6007    1.9521   -0.1532 H   0  0  0  0  0  0  0  0  0  0  0  0
   -4.4563    0.0497   -1.7908 H   0  0  0  0  0  0  0  0  0  0  0  0
   -3.1453    0.8799   -2.6312 H   0  0  0  0  0  0  0  0  0  0  0  0
   -4.7696    1.5755   -2.6212 H   0  0  0  0  0  0  0  0  0  0  0  0
  1  2  1  0
  1  5  1  0
  1  6  1  0
  1  7  1  0
  2  3  1  0
  2  8  1  0
  2  9  1  0
  3  4  2  0
 10 11  1  0
 10 16  1  0
 10 17  1  0
 11 12  1  0
 11 18  1  0
 11 19  1  0
 12 13  1  0
 13 14  1  0
 13 20  1  0
 13 21  1  0
 14 15  1  0
 14 22  1  0
 14 23  1  0
 15 24  1  0
 15 25  1  0
 15 26  1  0
M  RAD  1  10   2
M  END
>  <reaction>  (14) 
rmg_rxn_187

>  <mol_properties>  (14) 
{"0": {"label": "*1", "atom_type": "Cs"}, "1": {"label": "*0", "atom_type": "Cs"}, "4": {"label": "*2", "atom_type": "H0"}, "9": {"label": "*3", "atom_type": "Cs"}, "10": {"label": "*4", "atom_type": "Cs"}}

>  <type>  (14) 
unop_10

>  <geom_source>  (14) 
Heuristics

$$$$

     RDKit          3D

 26 24  0  0  0  0  0  0  0  0999 V2000
    1.8337   -0.3255    2.1394 C   0  0  0  0  0  0  0  0  0  0  0  0
    1.8337   -1.5024    3.0862 C   0  0  0  0  0  0  0  0  0  0  0  0
    1.8337   -2.8506    2.4689 N   0  0  0  0  0  0  0  0  0  0  0  0
    1.8337   -2.8506    1.2759 O   0  0  0  0  0  0  0  0  0  0  0  0
    0.7776   -0.3382    1.3683 H   0  0  0  0  0  0  0  0  0  0  0  0
    1.8337    0.6030    2.7109 H   0  0  0  0  0  0  0  0  0  0  0  0
    2.7139   -0.3361    1.4968 H   0  0  0  0  0  0  0  0  0  0  0  0
    0.9625   -1.5173    3.7492 H   0  0  0  0  0  0  0  0  0  0  0  0
    2.7049   -1.5173    3.7492 H   0  0  0  0  0  0  0  0  0  0  0  0
   -0.2799   -0.3510    0.5963 C   0  0  0  0  0  3  0  0  0  0  0  0
    0.0362    0.2899   -0.7353 C   0  0  0  0  0  0  0  0  0  0  0  0
   -1.1397    0.8482   -1.2636 O   0  0  0  0  0  0  0  0  0  0  0  0
   -0.9487    1.4727   -2.5080 C   0  0  0  0  0  0  0  0  0  0  0  0
   -2.2585    2.0747   -2.9739 C   0  0  0  0  0  0  0  0  0  0  0  0
   -2.7742    3.1721   -2.0525 C   0  0  0  0  0  0  0  0  0  0  0  0
   -0.6697    0.3907    1.2944 H   0  0  0  0  0  0  0  0  0  0  0  0
   -1.0275   -1.1355    0.4749 H   0  0  0  0  0  0  0  0  0  0  0  0
    0.4441   -0.4559   -1.4336 H   0  0  0  0  0  0  0  0  0  0  0  0
    0.8006    1.0716   -0.6140 H   0  0  0  0  0  0  0  0  0  0  0  0
   -0.1819    2.2585   -2.4193 H   0  0  0  0  0  0  0  0  0  0  0  0
   -0.5828    0.7405   -3.2428 H   0  0  0  0  0  0  0  0  0  0  0  0
   -2.9988    1.2746   -3.0555 H   0  0  0  0  0  0  0  0  0  0  0  0
   -2.1070    2.4702   -3.9821 H   0  0  0  0  0  0  0  0  0  0  0  0
   -2.0538    3.9907   -1.9804 H   0  0  0  0  0  0  0  0  0  0  0  0
   -2.9430    2.7849   -1.0477 H   0  0  0  0  0  0  0  0  0  0  0  0
   -3.7142    3.5851   -2.4215 H   0  0  0  0  0  0  0  0  0  0  0  0
  1  2  1  0
  1  5  1  0
  1  6  1  0
  1  7  1  0
  2  3  1  0
  2  8  1  0
  2  9  1  0
  3  4  2  0
 10 11  1  0
 10 16  1  0
 10 17  1  0
 11 12  1  0
 11 18  1  0
 11 19  1  0
 12 13  1  0
 13 14  1  0
 13 20  1  0
 13 21  1  0
 14 15  1  0
 14 22  1  0
 14 23  1  0
 15 24  1  0
 15 25  1  0
 15 26  1  0
M  RAD  1  10   2
M  END
>  <reaction>  (15) 
rmg_rxn_187

>  <mol_properties>  (15) 
{"0": {"label": "*1", "atom_type": "Cs"}, "1": {"label": "*0", "atom_type": "Cs"}, "4": {"label": "*2", "atom_type": "H0"}, "9": {"label": "*3", "atom_type": "Cs"}, "10": {"label": "*4", "atom_type": "Cs"}}

>  <type>  (15) 
unop_11

>  <geom_source>  (15) 
Heuristics

$$$$

     RDKit          3D

 26 24  0  0  0  0  0  0  0  0999 V2000
    2.5959    1.5538    1.3460 C   0  0  0  0  0  0  0  0  0  0  0  0
    2.5959    0.3769    2.2927 C   0  0  0  0  0  0  0  0  0  0  0  0
    2.5959   -0.9713    1.6755 N   0  0  0  0  0  0  0  0  0  0  0  0
    2.5959   -0.9713    0.4825 O   0  0  0  0  0  0  0  0  0  0  0  0
    1.5398    1.5411    0.5749 H   0  0  0  0  0  0  0  0  0  0  0  0
    2.5959    2.4823    1.9174 H   0  0  0  0  0  0  0  0  0  0  0  0
    3.4761    1.5432    0.7034 H   0  0  0  0  0  0  0  0  0  0  0  0
    1.7247    0.3620    2.9558 H   0  0  0  0  0  0  0  0  0  0  0  0
    3.4671    0.3620    2.9558 H   0  0  0  0  0  0  0  0  0  0  0  0
    0.4823    1.5283   -0.1972 C   0  0  0  0  0  3  0  0  0  0  0  0
   -0.3851    0.3330    0.1226 C   0  0  0  0  0  0  0  0  0  0  0  0
   -1.5096    0.3468   -0.7193 O   0  0  0  0  0  0  0  0  0  0  0  0
   -2.3829   -0.7320   -0.4990 C   0  0  0  0  0  0  0  0  0  0  0  0
   -3.5378   -0.6507   -1.4761 C   0  0  0  0  0  0  0  0  0  0  0  0
   -3.1024   -0.7811   -2.9296 C   0  0  0  0  0  0  0  0  0  0  0  0
    0.8119    1.4943   -1.2362 H   0  0  0  0  0  0  0  0  0  0  0  0
   -0.0716    2.4549   -0.0421 H   0  0  0  0  0  0  0  0  0  0  0  0
   -0.7041    0.3600    1.1751 H   0  0  0  0  0  0  0  0  0  0  0  0
    0.1788   -0.6006   -0.0207 H   0  0  0  0  0  0  0  0  0  0  0  0
   -1.8435   -1.6835   -0.6296 H   0  0  0  0  0  0  0  0  0  0  0  0
   -2.7561   -0.7072    0.5354 H   0  0  0  0  0  0  0  0  0  0  0  0
   -4.0556    0.2998   -1.3233 H   0  0  0  0  0  0  0  0  0  0  0  0
   -4.2482   -1.4427   -1.2236 H   0  0  0  0  0  0  0  0  0  0  0  0
   -2.6038   -1.7381   -3.1027 H   0  0  0  0  0  0  0  0  0  0  0  0
   -2.4050    0.0130   -3.1965 H   0  0  0  0  0  0  0  0  0  0  0  0
   -3.9590   -0.7235   -3.6028 H   0  0  0  0  0  0  0  0  0  0  0  0
  1  2  1  0
  1  5  1  0
  1  6  1  0
  1  7  1  0
  2  3  1  0
  2  8  1  0
  2  9  1  0
  3  4  2  0
 10 11  1  0
 10 16  1  0
 10 17  1  0
 11 12  1  0
 11 18  1  0
 11 19  1  0
 12 13  1  0
 13 14  1  0
 13 20  1  0
 13 21  1  0
 14 15  1  0
 14 22  1  0
 14 23  1  0
 15 24  1  0
 15 25  1  0
 15 26  1  0
M  RAD  1  10   2
M  END
>  <reaction>  (16) 
rmg_rxn_187

>  <mol_properties>  (16) 
{"0": {"label": "*1", "atom_type": "Cs"}, "1": {"label": "*0", "atom_type": "Cs"}, "4": {"label": "*2", "atom_type": "H0"}, "9": {"label": "*3", "atom_type": "Cs"}, "10": {"label": "*4", "atom_type": "Cs"}}

>  <type>  (16) 
unop_12

>  <geom_source>  (16) 
Heuristics

$$$$

     RDKit          3D

 26 24  0  0  0  0  0  0  0  0999 V2000
    0.6332   -1.8815   -0.0550 O   0  0  0  0  0  0  0  0  0  0  0  0
   -4.7336    3.6393    0.7229 O   0  0  0  0  0  0  0  0  0  0  0  0
   -3.9457    3.2775   -0.0980 N   0  0  0  0  0  0  0  0  0  0  0  0
    3.0265   -1.5323   -0.0190 C   0  0  0  0  0  0  0  0  0  0  0  0
    1.7170   -1.3457   -0.7918 C   0  0  0  0  0  0  0  0  0  0  0  0
    0.0142   -0.8924    0.7471 C   0  0  0  0  0  0  0  0  0  0  0  0
    4.2209   -1.0250   -0.8218 C   0  0  0  0  0  0  0  0  0  0  0  0
   -1.1603   -0.2657    0.0057 C   0  0  0  0  0  0  0  0  0  0  0  0
   -3.5376    1.8960   -0.1694 C   0  0  0  0  0  0  0  0  0  0  0  0
   -2.7086    1.5168    1.0503 C   0  0  0  0  0  3  0  0  0  0  0  0
    2.9783   -0.9791    0.9432 H   0  0  0  0  0  0  0  0  0  0  0  0
    3.1716   -2.6112    0.2058 H   0  0  0  0  0  0  0  0  0  0  0  0
   -0.3802   -1.3869    1.6594 H   0  0  0  0  0  0  0  0  0  0  0  0
    0.7144   -0.0982    1.0962 H   0  0  0  0  0  0  0  0  0  0  0  0
    1.5731   -0.2746   -1.0693 H   0  0  0  0  0  0  0  0  0  0  0  0
    1.7862   -1.9095   -1.7466 H   0  0  0  0  0  0  0  0  0  0  0  0
   -1.8814   -1.0532   -0.2996 H   0  0  0  0  0  0  0  0  0  0  0  0
   -0.8054    0.2735   -0.8973 H   0  0  0  0  0  0  0  0  0  0  0  0
   -1.7773    0.5975    0.8054 H   0  0  0  0  0  0  0  0  0  0  0  0
    4.1078    0.0588   -1.0378 H   0  0  0  0  0  0  0  0  0  0  0  0
    4.3084   -1.5830   -1.7783 H   0  0  0  0  0  0  0  0  0  0  0  0
    5.1526   -1.1751   -0.2367 H   0  0  0  0  0  0  0  0  0  0  0  0
   -4.4320    1.2400   -0.2348 H   0  0  0  0  0  0  0  0  0  0  0  0
   -2.9237    1.7470   -1.0819 H   0  0  0  0  0  0  0  0  0  0  0  0
   -3.3123    1.6067    1.9783 H   0  0  0  0  0  0  0  0  0  0  0  0
   -1.8061    2.1602    1.1229 H   0  0  0  0  0  0  0  0  0  0  0  0
  1  6  1  0
  1  5  1  0
  2  3  2  0
  3  9  1  0
  4  7  1  0
  4  5  1  0
  4 11  1  0
  4 12  1  0
  5 15  1  0
  5 16  1  0
  6  8  1  0
  6 13  1  0
  6 14  1  0
  7 20  1  0
  7 21  1  0
  7 22  1  0
  8 17  1  0
  8 18  1  0
  8 19  1  0
  9 10  1  0
  9 23  1  0
  9 24  1  0
 10 25  1  0
 10 26  1  0
M  RAD  1  10   2
M  END
>  <reaction>  (17) 
rmg_rxn_187

>  <mol_properties>  (17) 
{"0": {"label": "*1", "atom_type": "Cs"}, "1": {"label": "*0", "atom_type": "Cs"}, "4": {"label": "*2", "atom_type": "H0"}, "9": {"label": "*3", "atom_type": "Cs"}, "10": {"label": "*4", "atom_type": "Cs"}}

>  <type>  (17) 
unop_13

>  <geom_source>  (17) 
AutoTST

$$$$

     RDKit          3D

 26 24  0  0  0  0  0  0  0  0999 V2000
    2.9109    0.9607    0.9192 C   0  0  0  0  0  0  0  0  0  0  0  0
    2.9109   -0.2162    1.8660 C   0  0  0  0  0  0  0  0  0  0  0  0
    2.9109   -1.5644    1.2487 N   0  0  0  0  0  0  0  0  0  0  0  0
    2.9109   -1.5644    0.0557 O   0  0  0  0  0  0  0  0  0  0  0  0
    1.8547    0.9480    0.1481 H   0  0  0  0  0  0  0  0  0  0  0  0
    2.9109    1.8892    1.4907 H   0  0  0  0  0  0  0  0  0  0  0  0
    3.7910    0.9501    0.2767 H   0  0  0  0  0  0  0  0  0  0  0  0
    2.0397   -0.2311    2.5290 H   0  0  0  0  0  0  0  0  0  0  0  0
    3.7821   -0.2311    2.5290 H   0  0  0  0  0  0  0  0  0  0  0  0
    0.7973    0.9353   -0.6239 C   0  0  0  0  0  3  0  0  0  0  0  0
   -0.3646    0.2842    0.0901 C   0  0  0  0  0  0  0  0  0  0  0  0
   -1.5580    0.6438   -0.5580 O   0  0  0  0  0  0  0  0  0  0  0  0
   -2.7030    0.0841    0.0340 C   0  0  0  0  0  0  0  0  0  0  0  0
   -3.9287    0.4960   -0.7555 C   0  0  0  0  0  0  0  0  0  0  0  0
   -3.9234   -0.0274   -2.1856 C   0  0  0  0  0  0  0  0  0  0  0  0
    0.8403    0.6061   -1.6628 H   0  0  0  0  0  0  0  0  0  0  0  0
    0.6940    2.0208   -0.6109 H   0  0  0  0  0  0  0  0  0  0  0  0
   -0.3977    0.6047    1.1420 H   0  0  0  0  0  0  0  0  0  0  0  0
   -0.2524   -0.8101    0.0886 H   0  0  0  0  0  0  0  0  0  0  0  0
   -2.6168   -1.0139    0.0524 H   0  0  0  0  0  0  0  0  0  0  0  0
   -2.7897    0.4227    1.0769 H   0  0  0  0  0  0  0  0  0  0  0  0
   -3.9910    1.5873   -0.7555 H   0  0  0  0  0  0  0  0  0  0  0  0
   -4.8105    0.1283   -0.2235 H   0  0  0  0  0  0  0  0  0  0  0  0
   -3.8855   -1.1195   -2.2006 H   0  0  0  0  0  0  0  0  0  0  0  0
   -3.0558    0.3454   -2.7299 H   0  0  0  0  0  0  0  0  0  0  0  0
   -4.8217    0.2836   -2.7209 H   0  0  0  0  0  0  0  0  0  0  0  0
  1  2  1  0
  1  5  1  0
  1  6  1  0
  1  7  1  0
  2  3  1  0
  2  8  1  0
  2  9  1  0
  3  4  2  0
 10 11  1  0
 10 16  1  0
 10 17  1  0
 11 12  1  0
 11 18  1  0
 11 19  1  0
 12 13  1  0
 13 14  1  0
 13 20  1  0
 13 21  1  0
 14 15  1  0
 14 22  1  0
 14 23  1  0
 15 24  1  0
 15 25  1  0
 15 26  1  0
M  RAD  1  10   2
M  END
>  <reaction>  (18) 
rmg_rxn_187

>  <mol_properties>  (18) 
{"0": {"label": "*1", "atom_type": "Cs"}, "1": {"label": "*0", "atom_type": "Cs"}, "4": {"label": "*2", "atom_type": "H0"}, "9": {"label": "*3", "atom_type": "Cs"}, "10": {"label": "*4", "atom_type": "Cs"}}

>  <type>  (18) 
unop_14

>  <geom_source>  (18) 
gaussian_log

$$$$
