
     RDKit          3D

 18 17  0  0  0  0  0  0  0  0999 V2000
    2.2026   -0.7213   -0.2612 C   0  0  0  0  0  0  0  0  0  0  0  0
    1.5384    0.2638    0.6915 C   0  0  0  0  0  0  0  0  0  0  0  0
    2.2584    1.5946    0.7694 C   0  0  0  0  0  0  0  0  0  0  0  0
    2.2212    2.2185   -0.4893 O   0  0  0  0  0  0  0  0  0  0  0  0
    2.8988    3.4488   -0.5204 C   0  0  0  0  0  0  0  0  0  0  0  0
    2.7981    4.0296   -1.9118 C   0  0  0  0  0  0  0  0  0  0  0  0
    3.2294   -0.9309    0.0486 H   0  0  0  0  0  0  0  0  0  0  0  0
    2.2338   -0.3181   -1.2734 H   0  0  0  0  0  0  0  0  0  0  0  0
    1.6610   -1.6680   -0.2875 H   0  0  0  0  0  0  0  0  0  0  0  0
    1.4990   -0.1566    1.7002 H   0  0  0  0  0  0  0  0  0  0  0  0
    0.5055    0.4455    0.3835 H   0  0  0  0  0  0  0  0  0  0  0  0
    3.3038    1.4410    1.0808 H   0  0  0  0  0  0  0  0  0  0  0  0
    1.7844    2.2410    1.5226 H   0  0  0  0  0  0  0  0  0  0  0  0
    2.4596    4.1376    0.2164 H   0  0  0  0  0  0  0  0  0  0  0  0
    3.9524    3.3035   -0.2397 H   0  0  0  0  0  0  0  0  0  0  0  0
    1.7543    4.1869   -2.1856 H   0  0  0  0  0  0  0  0  0  0  0  0
    3.2472    3.3545   -2.6411 H   0  0  0  0  0  0  0  0  0  0  0  0
    3.3178    4.9878   -1.9600 H   0  0  0  0  0  0  0  0  0  0  0  0
  1  2  1  0
  1  7  1  0
  1  8  1  0
  1  9  1  0
  2  3  1  0
  2 10  1  0
  2 11  1  0
  3  4  1  0
  3 12  1  0
  3 13  1  0
  4  5  1  0
  5  6  1  0
  5 14  1  0
  5 15  1  0
  6 16  1  0
  6 17  1  0
  6 18  1  0
M  END
>  <reaction>  (1) 
rmg_rxn_660

>  <mol_properties>  (1) 
{"2": {"label": "donator", "atom_type": "Cs"}, "11": {"label": "d_hydrogen", "atom_type": "H0"}}

>  <type>  (1) 
r1h

$$$$

     RDKit          3D

 14 13  0  0  0  0  0  0  0  0999 V2000
    2.7687   -0.0362   -0.0732 C   0  0  0  0  0  3  0  0  0  0  0  0
    1.6543    0.2105    0.6386 O   0  0  0  0  0  0  0  0  0  0  0  0
    1.8652    0.6968    1.9544 C   0  0  0  0  0  0  0  0  0  0  0  0
    0.5252    0.9355    2.6156 C   0  0  0  0  0  0  0  0  0  0  0  0
   -0.2992    2.0181    1.9317 C   0  0  0  0  0  0  0  0  0  0  0  0
    2.5851   -0.4757   -1.0422 H   0  0  0  0  0  0  0  0  0  0  0  0
    3.6974   -0.2083    0.4611 H   0  0  0  0  0  0  0  0  0  0  0  0
    2.4441    1.6271    1.9039 H   0  0  0  0  0  0  0  0  0  0  0  0
    2.4506   -0.0397    2.5179 H   0  0  0  0  0  0  0  0  0  0  0  0
    0.7150    1.2089    3.6572 H   0  0  0  0  0  0  0  0  0  0  0  0
   -0.0287   -0.0066    2.6327 H   0  0  0  0  0  0  0  0  0  0  0  0
   -0.5056    1.7522    0.8949 H   0  0  0  0  0  0  0  0  0  0  0  0
   -1.2524    2.1635    2.4416 H   0  0  0  0  0  0  0  0  0  0  0  0
    0.2319    2.9729    1.9340 H   0  0  0  0  0  0  0  0  0  0  0  0
  1  2  1  0
  1  6  1  0
  1  7  1  0
  2  3  1  0
  3  4  1  0
  3  8  1  0
  3  9  1  0
  4  5  1  0
  4 10  1  0
  4 11  1  0
  5 12  1  0
  5 13  1  0
  5 14  1  0
M  RAD  1   1   2
M  END
>  <reaction>  (2) 
rmg_rxn_660

>  <mol_properties>  (2) 
{"0": {"label": "acceptor", "atom_type": "Cs"}}

>  <type>  (2) 
r2

$$$$

     RDKit          3D

 15 14  0  0  0  0  0  0  0  0999 V2000
   -1.2811   -0.4129    1.0228 C   0  0  0  0  0  0  0  0  0  0  0  0
   -1.0023   -0.5809   -0.4650 C   0  0  0  0  0  0  0  0  0  0  0  0
   -2.0576    0.0568   -1.3449 C   0  0  0  0  0  0  0  0  0  0  0  0
   -2.0663    1.4464   -1.1307 O   0  0  0  0  0  0  0  0  0  0  0  0
   -3.0424    2.1072   -1.8849 C   0  0  0  0  0  0  0  0  0  0  0  0
   -2.2382   -0.8657    1.2935 H   0  0  0  0  0  0  0  0  0  0  0  0
   -1.3219    0.6426    1.2914 H   0  0  0  0  0  0  0  0  0  0  0  0
   -0.5042   -0.8881    1.6236 H   0  0  0  0  0  0  0  0  0  0  0  0
   -0.0316   -0.1460   -0.7167 H   0  0  0  0  0  0  0  0  0  0  0  0
   -0.9494   -1.6429   -0.7203 H   0  0  0  0  0  0  0  0  0  0  0  0
   -1.8518   -0.1570   -2.4041 H   0  0  0  0  0  0  0  0  0  0  0  0
   -3.0491   -0.3636   -1.1124 H   0  0  0  0  0  0  0  0  0  0  0  0
   -4.0521    1.7545   -1.6343 H   0  0  0  0  0  0  0  0  0  0  0  0
   -2.8850    1.9634   -2.9626 H   0  0  0  0  0  0  0  0  0  0  0  0
   -2.9730    3.1700   -1.6570 H   0  0  0  0  0  0  0  0  0  0  0  0
  1  2  1  0
  1  6  1  0
  1  7  1  0
  1  8  1  0
  2  3  1  0
  2  9  1  0
  2 10  1  0
  3  4  1  0
  3 11  1  0
  3 12  1  0
  4  5  1  0
  5 13  1  0
  5 14  1  0
  5 15  1  0
M  END
>  <reaction>  (3) 
rmg_rxn_660

>  <mol_properties>  (3) 
{"0": {"label": "acceptor", "atom_type": "Cs"}, "14": {"label": "a_hydrogen", "atom_type": "H0"}}

>  <type>  (3) 
r2h

$$$$

     RDKit          3D

 32 30  0  0  0  0  0  0  0  0999 V2000
    1.9277   -0.4135    0.6154 C   0  0  0  0  0  3  0  0  0  0  0  0
    1.5664    0.8703    0.2700 O   0  0  0  0  0  0  0  0  0  0  0  0
    0.9481    0.9676   -0.9987 C   0  0  0  0  0  0  0  0  0  0  0  0
    0.5460    2.4061   -1.2427 C   0  0  0  0  0  0  0  0  0  0  0  0
    1.7282    3.3643   -1.2973 C   0  0  0  0  0  0  0  0  0  0  0  0
    2.4647   -0.4022    1.5615 H   0  0  0  0  0  0  0  0  0  0  0  0
    2.4671   -0.9492   -0.1745 H   0  0  0  0  0  0  0  0  0  0  0  0
    0.0708    0.3119   -1.0302 H   0  0  0  0  0  0  0  0  0  0  0  0
    1.6522    0.6269   -1.7728 H   0  0  0  0  0  0  0  0  0  0  0  0
   -0.1474    2.7095   -0.4532 H   0  0  0  0  0  0  0  0  0  0  0  0
   -0.0122    2.4414   -2.1824 H   0  0  0  0  0  0  0  0  0  0  0  0
    1.3963    4.3878   -1.4772 H   0  0  0  0  0  0  0  0  0  0  0  0
    2.2843    3.3466   -0.3599 H   0  0  0  0  0  0  0  0  0  0  0  0
    2.4158    3.0886   -2.1005 H   0  0  0  0  0  0  0  0  0  0  0  0
   -0.1989   -2.7405   -1.3145 C   0  0  0  0  0  0  0  0  0  0  0  0
   -0.3686   -3.0250    0.1739 C   0  0  0  0  0  0  0  0  0  0  0  0
   -0.4088   -1.7830    1.0220 C   0  0  0  0  0  0  0  0  0  0  0  0
   -1.4201   -0.9288    0.6208 O   0  0  0  0  0  0  0  0  0  0  0  0
   -1.5864    0.2047    1.4495 C   0  0  0  0  0  0  0  0  0  0  0  0
   -2.6381    1.0983    0.8361 C   0  0  0  0  0  0  0  0  0  0  0  0
    0.7311   -2.2018   -1.5074 H   0  0  0  0  0  0  0  0  0  0  0  0
   -1.0221   -2.1308   -1.6875 H   0  0  0  0  0  0  0  0  0  0  0  0
   -0.1757   -3.6682   -1.8877 H   0  0  0  0  0  0  0  0  0  0  0  0
    0.4554   -3.6470    0.5342 H   0  0  0  0  0  0  0  0  0  0  0  0
   -1.2878   -3.6008    0.3332 H   0  0  0  0  0  0  0  0  0  0  0  0
    0.7801   -1.1511    0.8462 H   0  0  0  0  0  0  0  0  0  0  0  0
   -0.4393   -1.9858    2.1005 H   0  0  0  0  0  0  0  0  0  0  0  0
   -1.8883   -0.1200    2.4546 H   0  0  0  0  0  0  0  0  0  0  0  0
   -0.6331    0.7372    1.5409 H   0  0  0  0  0  0  0  0  0  0  0  0
   -3.5869    0.5694    0.7392 H   0  0  0  0  0  0  0  0  0  0  0  0
   -2.3255    1.4295   -0.1554 H   0  0  0  0  0  0  0  0  0  0  0  0
   -2.7935    1.9794    1.4605 H   0  0  0  0  0  0  0  0  0  0  0  0
  1  2  1  0
  1  6  1  0
  1  7  1  0
  2  3  1  0
  3  4  1  0
  3  8  1  0
  3  9  1  0
  4  5  1  0
  4 10  1  0
  4 11  1  0
  5 12  1  0
  5 13  1  0
  5 14  1  0
 15 16  1  0
 15 21  1  0
 15 22  1  0
 15 23  1  0
 16 17  1  0
 16 24  1  0
 16 25  1  0
 17 18  1  0
 17 26  1  0
 17 27  1  0
 18 19  1  0
 19 20  1  0
 19 28  1  0
 19 29  1  0
 20 30  1  0
 20 31  1  0
 20 32  1  0
M  RAD  1   1   2
M  END
>  <reaction>  (4) 
rmg_rxn_660

>  <mol_properties>  (4) 
{"0": {"label": "*3", "atom_type": "Cs"}, "1": {"label": "*4", "atom_type": "O2s"}, "16": {"label": "*1", "atom_type": "Cs"}, "17": {"label": "*0", "atom_type": "O2s"}, "25": {"label": "*2", "atom_type": "H0"}}

>  <type>  (4) 
ts

$$$$

     RDKit          3D

 32 30  0  0  0  0  0  0  0  0999 V2000
    1.7060   -0.2124    0.5530 C   0  0  0  0  0  0  0  0  0  0  0  0
    1.3218    0.9406   -0.1406 O   0  0  0  0  0  0  0  0  0  0  0  0
    1.3707    0.7807   -1.5367 C   0  0  0  0  0  0  0  0  0  0  0  0
    0.9785    2.0818   -2.2058 C   0  0  0  0  0  0  0  0  0  0  0  0
    1.9404    3.2237   -1.9057 C   0  0  0  0  0  0  0  0  0  0  0  0
    1.6352    0.0035    1.6182 H   0  0  0  0  0  0  0  0  0  0  0  0
    2.7393   -0.4996    0.3158 H   0  0  0  0  0  0  0  0  0  0  0  0
    0.6906   -0.0273   -1.8446 H   0  0  0  0  0  0  0  0  0  0  0  0
    2.3874    0.4881   -1.8442 H   0  0  0  0  0  0  0  0  0  0  0  0
   -0.0317    2.3471   -1.8833 H   0  0  0  0  0  0  0  0  0  0  0  0
    0.9304    1.9038   -3.2837 H   0  0  0  0  0  0  0  0  0  0  0  0
    1.6290    4.1411   -2.4073 H   0  0  0  0  0  0  0  0  0  0  0  0
    1.9855    3.4195   -0.8344 H   0  0  0  0  0  0  0  0  0  0  0  0
    2.9505    2.9820   -2.2459 H   0  0  0  0  0  0  0  0  0  0  0  0
   -0.3893   -2.9599   -0.7016 C   0  0  0  0  0  0  0  0  0  0  0  0
   -0.3893   -2.9599    0.8213 C   0  0  0  0  0  0  0  0  0  0  0  0
   -0.3893   -1.5668    1.4168 C   0  0  0  0  0  3  0  0  0  0  0  0
   -1.5723   -0.9032    1.0492 O   0  0  0  0  0  0  0  0  0  0  0  0
   -1.6430    0.4149    1.5301 C   0  0  0  0  0  0  0  0  0  0  0  0
   -2.9463    1.0327    1.0792 C   0  0  0  0  0  0  0  0  0  0  0  0
    0.4928   -2.4455   -1.0913 H   0  0  0  0  0  0  0  0  0  0  0  0
   -1.2720   -2.4502   -1.0877 H   0  0  0  0  0  0  0  0  0  0  0  0
   -0.3838   -3.9777   -1.0943 H   0  0  0  0  0  0  0  0  0  0  0  0
    0.4922   -3.4863    1.1975 H   0  0  0  0  0  0  0  0  0  0  0  0
   -1.2637   -3.4978    1.1965 H   0  0  0  0  0  0  0  0  0  0  0  0
    0.6597   -0.8887    0.9843 H   0  0  0  0  0  0  0  0  0  0  0  0
   -0.3145   -1.6207    2.5128 H   0  0  0  0  0  0  0  0  0  0  0  0
   -1.5758    0.4177    2.6282 H   0  0  0  0  0  0  0  0  0  0  0  0
   -0.7901    0.9978    1.1522 H   0  0  0  0  0  0  0  0  0  0  0  0
   -3.7927    0.4632    1.4649 H   0  0  0  0  0  0  0  0  0  0  0  0
   -3.0071    1.0445   -0.0096 H   0  0  0  0  0  0  0  0  0  0  0  0
   -3.0239    2.0587    1.4423 H   0  0  0  0  0  0  0  0  0  0  0  0
  1  2  1  0
  1  6  1  0
  1  7  1  0
  1 26  1  0
  2  3  1  0
  3  4  1  0
  3  8  1  0
  3  9  1  0
  4  5  1  0
  4 10  1  0
  4 11  1  0
  5 12  1  0
  5 13  1  0
  5 14  1  0
 15 16  1  0
 15 21  1  0
 15 22  1  0
 15 23  1  0
 16 17  1  0
 16 24  1  0
 16 25  1  0
 17 18  1  0
 17 27  1  0
 18 19  1  0
 19 20  1  0
 19 28  1  0
 19 29  1  0
 20 30  1  0
 20 31  1  0
 20 32  1  0
M  RAD  1  17   2
M  END
>  <reaction>  (5) 
rmg_rxn_660

>  <mol_properties>  (5) 
{"0": {"label": "*3", "atom_type": "Cs"}, "1": {"label": "*4", "atom_type": "O2s"}, "16": {"label": "*1", "atom_type": "Cs"}, "17": {"label": "*0", "atom_type": "O2s"}, "25": {"label": "*2", "atom_type": "H0"}}

>  <type>  (5) 
unop_1

>  <geom_source>  (5) 
Heuristics

$$$$

     RDKit          3D

 32 30  0  0  0  0  0  0  0  0999 V2000
    1.1005    0.9465    0.6076 C   0  0  0  0  0  0  0  0  0  0  0  0
    1.4866    0.5337   -0.6725 O   0  0  0  0  0  0  0  0  0  0  0  0
    2.2156   -0.6686   -0.6627 C   0  0  0  0  0  0  0  0  0  0  0  0
    2.6246   -1.0200   -2.0783 C   0  0  0  0  0  0  0  0  0  0  0  0
    3.5622    0.0046   -2.7030 C   0  0  0  0  0  0  0  0  0  0  0  0
    0.5442    1.8769    0.5013 H   0  0  0  0  0  0  0  0  0  0  0  0
    1.9713    1.1239    1.2533 H   0  0  0  0  0  0  0  0  0  0  0  0
    1.6029   -1.4739   -0.2311 H   0  0  0  0  0  0  0  0  0  0  0  0
    3.1084   -0.5593   -0.0266 H   0  0  0  0  0  0  0  0  0  0  0  0
    1.7213   -1.1218   -2.6852 H   0  0  0  0  0  0  0  0  0  0  0  0
    3.1031   -2.0030   -2.0551 H   0  0  0  0  0  0  0  0  0  0  0  0
    3.8383   -0.2839   -3.7182 H   0  0  0  0  0  0  0  0  0  0  0  0
    3.0898    0.9861   -2.7442 H   0  0  0  0  0  0  0  0  0  0  0  0
    4.4814    0.0985   -2.1195 H   0  0  0  0  0  0  0  0  0  0  0  0
   -0.9948   -1.8010   -0.6470 C   0  0  0  0  0  0  0  0  0  0  0  0
   -0.9948   -1.8010    0.8759 C   0  0  0  0  0  0  0  0  0  0  0  0
   -0.9948   -0.4079    1.4714 C   0  0  0  0  0  3  0  0  0  0  0  0
   -2.1778    0.2557    1.1038 O   0  0  0  0  0  0  0  0  0  0  0  0
   -2.2485    1.5737    1.5847 C   0  0  0  0  0  0  0  0  0  0  0  0
   -3.5518    2.1915    1.1339 C   0  0  0  0  0  0  0  0  0  0  0  0
   -0.1127   -1.2867   -1.0366 H   0  0  0  0  0  0  0  0  0  0  0  0
   -1.8775   -1.2913   -1.0331 H   0  0  0  0  0  0  0  0  0  0  0  0
   -0.9893   -2.8188   -1.0397 H   0  0  0  0  0  0  0  0  0  0  0  0
   -0.1132   -2.3274    1.2522 H   0  0  0  0  0  0  0  0  0  0  0  0
   -1.8691   -2.3390    1.2512 H   0  0  0  0  0  0  0  0  0  0  0  0
    0.0543    0.2702    1.0389 H   0  0  0  0  0  0  0  0  0  0  0  0
   -0.9200   -0.4618    2.5674 H   0  0  0  0  0  0  0  0  0  0  0  0
   -2.1812    1.5766    2.6828 H   0  0  0  0  0  0  0  0  0  0  0  0
   -1.3956    2.1567    1.2068 H   0  0  0  0  0  0  0  0  0  0  0  0
   -4.3982    1.6221    1.5195 H   0  0  0  0  0  0  0  0  0  0  0  0
   -3.6126    2.2034    0.0450 H   0  0  0  0  0  0  0  0  0  0  0  0
   -3.6294    3.2175    1.4969 H   0  0  0  0  0  0  0  0  0  0  0  0
  1  2  1  0
  1  6  1  0
  1  7  1  0
  1 26  1  0
  2  3  1  0
  3  4  1  0
  3  8  1  0
  3  9  1  0
  4  5  1  0
  4 10  1  0
  4 11  1  0
  5 12  1  0
  5 13  1  0
  5 14  1  0
 15 16  1  0
 15 21  1  0
 15 22  1  0
 15 23  1  0
 16 17  1  0
 16 24  1  0
 16 25  1  0
 17 18  1  0
 17 27  1  0
 18 19  1  0
 19 20  1  0
 19 28  1  0
 19 29  1  0
 20 30  1  0
 20 31  1  0
 20 32  1  0
M  RAD  1  17   2
M  END
>  <reaction>  (6) 
rmg_rxn_660

>  <mol_properties>  (6) 
{"0": {"label": "*3", "atom_type": "Cs"}, "1": {"label": "*4", "atom_type": "O2s"}, "16": {"label": "*1", "atom_type": "Cs"}, "17": {"label": "*0", "atom_type": "O2s"}, "25": {"label": "*2", "atom_type": "H0"}}

>  <type>  (6) 
unop_2

>  <geom_source>  (6) 
Heuristics

$$$$

     RDKit          3D

 32 30  0  0  0  0  0  0  0  0999 V2000
    1.7590   -0.4439    0.1784 C   0  0  0  0  0  0  0  0  0  0  0  0
    1.4916    0.9280    0.1113 O   0  0  0  0  0  0  0  0  0  0  0  0
    0.9599    1.3214   -1.1295 C   0  0  0  0  0  0  0  0  0  0  0  0
    0.7376    2.8197   -1.1289 C   0  0  0  0  0  0  0  0  0  0  0  0
    2.0268    3.6168   -0.9817 C   0  0  0  0  0  0  0  0  0  0  0  0
    2.1624   -0.6541    1.1681 H   0  0  0  0  0  0  0  0  0  0  0  0
    2.4950   -0.7483   -0.5781 H   0  0  0  0  0  0  0  0  0  0  0  0
    0.0120    0.7947   -1.3141 H   0  0  0  0  0  0  0  0  0  0  0  0
    1.6531    1.0417   -1.9389 H   0  0  0  0  0  0  0  0  0  0  0  0
    0.0480    3.0678   -0.3179 H   0  0  0  0  0  0  0  0  0  0  0  0
    0.2358    3.0850   -2.0636 H   0  0  0  0  0  0  0  0  0  0  0  0
    1.8280    4.6895   -0.9903 H   0  0  0  0  0  0  0  0  0  0  0  0
    2.5286    3.3707   -0.0459 H   0  0  0  0  0  0  0  0  0  0  0  0
    2.7165    3.3972   -1.8005 H   0  0  0  0  0  0  0  0  0  0  0  0
   -0.3362   -3.1913   -1.0762 C   0  0  0  0  0  0  0  0  0  0  0  0
   -0.3362   -3.1913    0.4467 C   0  0  0  0  0  0  0  0  0  0  0  0
   -0.3362   -1.7983    1.0422 C   0  0  0  0  0  3  0  0  0  0  0  0
   -1.5192   -1.1347    0.6746 O   0  0  0  0  0  0  0  0  0  0  0  0
   -1.5899    0.1834    1.1555 C   0  0  0  0  0  0  0  0  0  0  0  0
   -2.8932    0.8012    0.7047 C   0  0  0  0  0  0  0  0  0  0  0  0
    0.5459   -2.6770   -1.4658 H   0  0  0  0  0  0  0  0  0  0  0  0
   -1.2189   -2.6817   -1.4623 H   0  0  0  0  0  0  0  0  0  0  0  0
   -0.3307   -4.2092   -1.4689 H   0  0  0  0  0  0  0  0  0  0  0  0
    0.5453   -3.7178    0.8230 H   0  0  0  0  0  0  0  0  0  0  0  0
   -1.2106   -3.7293    0.8220 H   0  0  0  0  0  0  0  0  0  0  0  0
    0.7128   -1.1202    0.6097 H   0  0  0  0  0  0  0  0  0  0  0  0
   -0.2614   -1.8522    2.1383 H   0  0  0  0  0  0  0  0  0  0  0  0
   -1.5227    0.1862    2.2536 H   0  0  0  0  0  0  0  0  0  0  0  0
   -0.7371    0.7664    0.7776 H   0  0  0  0  0  0  0  0  0  0  0  0
   -3.7396    0.2318    1.0904 H   0  0  0  0  0  0  0  0  0  0  0  0
   -2.9541    0.8130   -0.3841 H   0  0  0  0  0  0  0  0  0  0  0  0
   -2.9709    1.8272    1.0677 H   0  0  0  0  0  0  0  0  0  0  0  0
  1  2  1  0
  1  6  1  0
  1  7  1  0
  1 26  1  0
  2  3  1  0
  3  4  1  0
  3  8  1  0
  3  9  1  0
  4  5  1  0
  4 10  1  0
  4 11  1  0
  5 12  1  0
  5 13  1  0
  5 14  1  0
 15 16  1  0
 15 21  1  0
 15 22  1  0
 15 23  1  0
 16 17  1  0
 16 24  1  0
 16 25  1  0
 17 18  1  0
 17 27  1  0
 18 19  1  0
 19 20  1  0
 19 28  1  0
 19 29  1  0
 20 30  1  0
 20 31  1  0
 20 32  1  0
M  RAD  1  17   2
M  END
>  <reaction>  (7) 
rmg_rxn_660

>  <mol_properties>  (7) 
{"0": {"label": "*3", "atom_type": "Cs"}, "1": {"label": "*4", "atom_type": "O2s"}, "16": {"label": "*1", "atom_type": "Cs"}, "17": {"label": "*0", "atom_type": "O2s"}, "25": {"label": "*2", "atom_type": "H0"}}

>  <type>  (7) 
unop_3

>  <geom_source>  (7) 
Heuristics

$$$$

     RDKit          3D

 32 30  0  0  0  0  0  0  0  0999 V2000
    0.8507    0.9442   -0.7082 C   0  0  0  0  0  0  0  0  0  0  0  0
    2.0500    0.3181   -0.3506 O   0  0  0  0  0  0  0  0  0  0  0  0
    1.9449   -0.4269    0.8373 C   0  0  0  0  0  0  0  0  0  0  0  0
    3.2914   -1.0361    1.1694 C   0  0  0  0  0  0  0  0  0  0  0  0
    4.3671    0.0046    1.4504 C   0  0  0  0  0  0  0  0  0  0  0  0
    1.0264    1.4912   -1.6335 H   0  0  0  0  0  0  0  0  0  0  0  0
    0.5188    1.6501    0.0652 H   0  0  0  0  0  0  0  0  0  0  0  0
    1.1877   -1.2159    0.7181 H   0  0  0  0  0  0  0  0  0  0  0  0
    1.6112    0.2258    1.6597 H   0  0  0  0  0  0  0  0  0  0  0  0
    3.5968   -1.6769    0.3382 H   0  0  0  0  0  0  0  0  0  0  0  0
    3.1604   -1.6861    2.0390 H   0  0  0  0  0  0  0  0  0  0  0  0
    5.3195   -0.4704    1.6900 H   0  0  0  0  0  0  0  0  0  0  0  0
    4.5162    0.6497    0.5846 H   0  0  0  0  0  0  0  0  0  0  0  0
    4.0859    0.6371    2.2962 H   0  0  0  0  0  0  0  0  0  0  0  0
   -1.2445   -1.8032   -1.9628 C   0  0  0  0  0  0  0  0  0  0  0  0
   -1.2445   -1.8032   -0.4399 C   0  0  0  0  0  0  0  0  0  0  0  0
   -1.2445   -0.4102    0.1556 C   0  0  0  0  0  3  0  0  0  0  0  0
   -2.4275    0.2534   -0.2120 O   0  0  0  0  0  0  0  0  0  0  0  0
   -2.4982    1.5715    0.2689 C   0  0  0  0  0  0  0  0  0  0  0  0
   -3.8015    2.1893   -0.1819 C   0  0  0  0  0  0  0  0  0  0  0  0
   -0.3624   -1.2889   -2.3525 H   0  0  0  0  0  0  0  0  0  0  0  0
   -2.1272   -1.2935   -2.3489 H   0  0  0  0  0  0  0  0  0  0  0  0
   -1.2390   -2.8211   -2.3555 H   0  0  0  0  0  0  0  0  0  0  0  0
   -0.3630   -2.3297   -0.0636 H   0  0  0  0  0  0  0  0  0  0  0  0
   -2.1189   -2.3412   -0.0646 H   0  0  0  0  0  0  0  0  0  0  0  0
   -0.1955    0.2679   -0.2769 H   0  0  0  0  0  0  0  0  0  0  0  0
   -1.1697   -0.4641    1.2516 H   0  0  0  0  0  0  0  0  0  0  0  0
   -2.4310    1.5743    1.3670 H   0  0  0  0  0  0  0  0  0  0  0  0
   -1.6454    2.1545   -0.1090 H   0  0  0  0  0  0  0  0  0  0  0  0
   -4.6479    1.6199    0.2037 H   0  0  0  0  0  0  0  0  0  0  0  0
   -3.8624    2.2011   -1.2708 H   0  0  0  0  0  0  0  0  0  0  0  0
   -3.8792    3.2153    0.1811 H   0  0  0  0  0  0  0  0  0  0  0  0
  1  2  1  0
  1  6  1  0
  1  7  1  0
  1 26  1  0
  2  3  1  0
  3  4  1  0
  3  8  1  0
  3  9  1  0
  4  5  1  0
  4 10  1  0
  4 11  1  0
  5 12  1  0
  5 13  1  0
  5 14  1  0
 15 16  1  0
 15 21  1  0
 15 22  1  0
 15 23  1  0
 16 17  1  0
 16 24  1  0
 16 25  1  0
 17 18  1  0
 17 27  1  0
 18 19  1  0
 19 20  1  0
 19 28  1  0
 19 29  1  0
 20 30  1  0
 20 31  1  0
 20 32  1  0
M  RAD  1  17   2
M  END
>  <reaction>  (8) 
rmg_rxn_660

>  <mol_properties>  (8) 
{"0": {"label": "*3", "atom_type": "Cs"}, "1": {"label": "*4", "atom_type": "O2s"}, "16": {"label": "*1", "atom_type": "Cs"}, "17": {"label": "*0", "atom_type": "O2s"}, "25": {"label": "*2", "atom_type": "H0"}}

>  <type>  (8) 
unop_4

>  <geom_source>  (8) 
Heuristics

$$$$

     RDKit          3D

 32 30  0  0  0  0  0  0  0  0999 V2000
    1.7604   -0.4942   -0.3170 C   0  0  0  0  0  0  0  0  0  0  0  0
    1.7907    0.7996    0.2153 O   0  0  0  0  0  0  0  0  0  0  0  0
    0.6602    1.5603   -0.1319 C   0  0  0  0  0  0  0  0  0  0  0  0
    0.7927    2.9523    0.4507 C   0  0  0  0  0  0  0  0  0  0  0  0
    1.9772    3.7270   -0.1114 C   0  0  0  0  0  0  0  0  0  0  0  0
    2.6674   -1.0050    0.0038 H   0  0  0  0  0  0  0  0  0  0  0  0
    1.7306   -0.4773   -1.4149 H   0  0  0  0  0  0  0  0  0  0  0  0
   -0.2498    1.0724    0.2476 H   0  0  0  0  0  0  0  0  0  0  0  0
    0.5692    1.6158   -1.2285 H   0  0  0  0  0  0  0  0  0  0  0  0
    0.8811    2.8668    1.5368 H   0  0  0  0  0  0  0  0  0  0  0  0
   -0.1381    3.4901    0.2500 H   0  0  0  0  0  0  0  0  0  0  0  0
    2.0374    4.7242    0.3269 H   0  0  0  0  0  0  0  0  0  0  0  0
    2.9124    3.2068    0.0954 H   0  0  0  0  0  0  0  0  0  0  0  0
    1.8891    3.8418   -1.1946 H   0  0  0  0  0  0  0  0  0  0  0  0
   -0.3348   -3.2416   -1.5717 C   0  0  0  0  0  0  0  0  0  0  0  0
   -0.3348   -3.2416   -0.0488 C   0  0  0  0  0  0  0  0  0  0  0  0
   -0.3348   -1.8485    0.5468 C   0  0  0  0  0  3  0  0  0  0  0  0
   -1.5178   -1.1849    0.1792 O   0  0  0  0  0  0  0  0  0  0  0  0
   -1.5885    0.1331    0.6601 C   0  0  0  0  0  0  0  0  0  0  0  0
   -2.8918    0.7509    0.2092 C   0  0  0  0  0  0  0  0  0  0  0  0
    0.5473   -2.7273   -1.9613 H   0  0  0  0  0  0  0  0  0  0  0  0
   -1.2175   -2.7319   -1.9577 H   0  0  0  0  0  0  0  0  0  0  0  0
   -0.3293   -4.2594   -1.9643 H   0  0  0  0  0  0  0  0  0  0  0  0
    0.5467   -3.7681    0.3275 H   0  0  0  0  0  0  0  0  0  0  0  0
   -1.2092   -3.7796    0.3265 H   0  0  0  0  0  0  0  0  0  0  0  0
    0.7142   -1.1704    0.1143 H   0  0  0  0  0  0  0  0  0  0  0  0
   -0.2600   -1.9024    1.6428 H   0  0  0  0  0  0  0  0  0  0  0  0
   -1.5213    0.1360    1.7581 H   0  0  0  0  0  0  0  0  0  0  0  0
   -0.7357    0.7161    0.2822 H   0  0  0  0  0  0  0  0  0  0  0  0
   -3.7382    0.1815    0.5949 H   0  0  0  0  0  0  0  0  0  0  0  0
   -2.9527    0.7628   -0.8796 H   0  0  0  0  0  0  0  0  0  0  0  0
   -2.9695    1.7769    0.5723 H   0  0  0  0  0  0  0  0  0  0  0  0
  1  2  1  0
  1  6  1  0
  1  7  1  0
  1 26  1  0
  2  3  1  0
  3  4  1  0
  3  8  1  0
  3  9  1  0
  4  5  1  0
  4 10  1  0
  4 11  1  0
  5 12  1  0
  5 13  1  0
  5 14  1  0
 15 16  1  0
 15 21  1  0
 15 22  1  0
 15 23  1  0
 16 17  1  0
 16 24  1  0
 16 25  1  0
 17 18  1  0
 17 27  1  0
 18 19  1  0
 19 20  1  0
 19 28  1  0
 19 29  1  0
 20 30  1  0
 20 31  1  0
 20 32  1  0
M  RAD  1  17   2
M  END
>  <reaction>  (9) 
rmg_rxn_660

>  <mol_properties>  (9) 
{"0": {"label": "*3", "atom_type": "Cs"}, "1": {"label": "*4", "atom_type": "O2s"}, "16": {"label": "*1", "atom_type": "Cs"}, "17": {"label": "*0", "atom_type": "O2s"}, "25": {"label": "*2", "atom_type": "H0"}}

>  <type>  (9) 
unop_5

>  <geom_source>  (9) 
Heuristics

$$$$

     RDKit          3D

 32 30  0  0  0  0  0  0  0  0999 V2000
    1.0070    0.5737   -0.9986 C   0  0  0  0  0  0  0  0  0  0  0  0
    2.1109    0.4048   -0.1553 O   0  0  0  0  0  0  0  0  0  0  0  0
    1.7519   -0.0124    1.1386 C   0  0  0  0  0  0  0  0  0  0  0  0
    2.9978   -0.1325    1.9918 C   0  0  0  0  0  0  0  0  0  0  0  0
    3.7180    1.1944    2.1909 C   0  0  0  0  0  0  0  0  0  0  0  0
    1.3795    0.8929   -1.9710 H   0  0  0  0  0  0  0  0  0  0  0  0
    0.3186    1.3378   -0.6126 H   0  0  0  0  0  0  0  0  0  0  0  0
    1.2288   -0.9788    1.0882 H   0  0  0  0  0  0  0  0  0  0  0  0
    1.0551    0.7144    1.5859 H   0  0  0  0  0  0  0  0  0  0  0  0
    3.6691   -0.8580    1.5252 H   0  0  0  0  0  0  0  0  0  0  0  0
    2.7033   -0.5496    2.9588 H   0  0  0  0  0  0  0  0  0  0  0  0
    4.6055    1.0696    2.8129 H   0  0  0  0  0  0  0  0  0  0  0  0
    4.0289    1.6128    1.2336 H   0  0  0  0  0  0  0  0  0  0  0  0
    3.0658    1.9224    2.6797 H   0  0  0  0  0  0  0  0  0  0  0  0
   -1.0882   -2.1738   -2.2532 C   0  0  0  0  0  0  0  0  0  0  0  0
   -1.0882   -2.1738   -0.7303 C   0  0  0  0  0  0  0  0  0  0  0  0
   -1.0882   -0.7807   -0.1348 C   0  0  0  0  0  3  0  0  0  0  0  0
   -2.2712   -0.1171   -0.5024 O   0  0  0  0  0  0  0  0  0  0  0  0
   -2.3419    1.2010   -0.0215 C   0  0  0  0  0  0  0  0  0  0  0  0
   -3.6452    1.8188   -0.4723 C   0  0  0  0  0  0  0  0  0  0  0  0
   -0.2061   -1.6594   -2.6428 H   0  0  0  0  0  0  0  0  0  0  0  0
   -1.9709   -1.6641   -2.6393 H   0  0  0  0  0  0  0  0  0  0  0  0
   -1.0827   -3.1916   -2.6459 H   0  0  0  0  0  0  0  0  0  0  0  0
   -0.2067   -2.7002   -0.3540 H   0  0  0  0  0  0  0  0  0  0  0  0
   -1.9626   -2.7117   -0.3550 H   0  0  0  0  0  0  0  0  0  0  0  0
   -0.0392   -0.1026   -0.5673 H   0  0  0  0  0  0  0  0  0  0  0  0
   -1.0134   -0.8346    0.9613 H   0  0  0  0  0  0  0  0  0  0  0  0
   -2.2747    1.2038    1.0766 H   0  0  0  0  0  0  0  0  0  0  0  0
   -1.4891    1.7839   -0.3994 H   0  0  0  0  0  0  0  0  0  0  0  0
   -4.4916    1.2493   -0.0866 H   0  0  0  0  0  0  0  0  0  0  0  0
   -3.7060    1.8306   -1.5611 H   0  0  0  0  0  0  0  0  0  0  0  0
   -3.7229    2.8448   -0.1093 H   0  0  0  0  0  0  0  0  0  0  0  0
  1  2  1  0
  1  6  1  0
  1  7  1  0
  1 26  1  0
  2  3  1  0
  3  4  1  0
  3  8  1  0
  3  9  1  0
  4  5  1  0
  4 10  1  0
  4 11  1  0
  5 12  1  0
  5 13  1  0
  5 14  1  0
 15 16  1  0
 15 21  1  0
 15 22  1  0
 15 23  1  0
 16 17  1  0
 16 24  1  0
 16 25  1  0
 17 18  1  0
 17 27  1  0
 18 19  1  0
 19 20  1  0
 19 28  1  0
 19 29  1  0
 20 30  1  0
 20 31  1  0
 20 32  1  0
M  RAD  1  17   2
M  END
>  <reaction>  (10) 
rmg_rxn_660

>  <mol_properties>  (10) 
{"0": {"label": "*3", "atom_type": "Cs"}, "1": {"label": "*4", "atom_type": "O2s"}, "16": {"label": "*1", "atom_type": "Cs"}, "17": {"label": "*0", "atom_type": "O2s"}, "25": {"label": "*2", "atom_type": "H0"}}

>  <type>  (10) 
unop_6

>  <geom_source>  (10) 
Heuristics

$$$$

     RDKit          3D

 32 30  0  0  0  0  0  0  0  0999 V2000
    1.2713    0.1288   -1.0606 C   0  0  0  0  0  0  0  0  0  0  0  0
    2.0932    0.5330   -0.0027 O   0  0  0  0  0  0  0  0  0  0  0  0
    1.4237    0.5520    1.2335 C   0  0  0  0  0  0  0  0  0  0  0  0
    2.3719    1.0356    2.3114 C   0  0  0  0  0  0  0  0  0  0  0  0
    2.8435    2.4675    2.0963 C   0  0  0  0  0  0  0  0  0  0  0  0
    1.8714    0.1426   -1.9695 H   0  0  0  0  0  0  0  0  0  0  0  0
    0.4164    0.8067   -1.1881 H   0  0  0  0  0  0  0  0  0  0  0  0
    1.0540   -0.4558    1.4741 H   0  0  0  0  0  0  0  0  0  0  0  0
    0.5473    1.2169    1.1739 H   0  0  0  0  0  0  0  0  0  0  0  0
    3.2296    0.3591    2.3479 H   0  0  0  0  0  0  0  0  0  0  0  0
    1.8589    0.9489    3.2732 H   0  0  0  0  0  0  0  0  0  0  0  0
    3.5193    2.7819    2.8929 H   0  0  0  0  0  0  0  0  0  0  0  0
    3.3690    2.5627    1.1461 H   0  0  0  0  0  0  0  0  0  0  0  0
    1.9970    3.1587    2.0826 H   0  0  0  0  0  0  0  0  0  0  0  0
   -0.8239   -2.6186   -2.3153 C   0  0  0  0  0  0  0  0  0  0  0  0
   -0.8239   -2.6186   -0.7924 C   0  0  0  0  0  0  0  0  0  0  0  0
   -0.8239   -1.2256   -0.1968 C   0  0  0  0  0  3  0  0  0  0  0  0
   -2.0069   -0.5620   -0.5644 O   0  0  0  0  0  0  0  0  0  0  0  0
   -2.0776    0.7561   -0.0836 C   0  0  0  0  0  0  0  0  0  0  0  0
   -3.3810    1.3739   -0.5344 C   0  0  0  0  0  0  0  0  0  0  0  0
    0.0582   -2.1043   -2.7049 H   0  0  0  0  0  0  0  0  0  0  0  0
   -1.7066   -2.1089   -2.7013 H   0  0  0  0  0  0  0  0  0  0  0  0
   -0.8184   -3.6365   -2.7079 H   0  0  0  0  0  0  0  0  0  0  0  0
    0.0576   -3.1451   -0.4161 H   0  0  0  0  0  0  0  0  0  0  0  0
   -1.6983   -3.1566   -0.4171 H   0  0  0  0  0  0  0  0  0  0  0  0
    0.2251   -0.5475   -0.6293 H   0  0  0  0  0  0  0  0  0  0  0  0
   -0.7491   -1.2795    0.8992 H   0  0  0  0  0  0  0  0  0  0  0  0
   -2.0104    0.7590    1.0145 H   0  0  0  0  0  0  0  0  0  0  0  0
   -1.2248    1.3391   -0.4614 H   0  0  0  0  0  0  0  0  0  0  0  0
   -4.2273    0.8045   -0.1487 H   0  0  0  0  0  0  0  0  0  0  0  0
   -3.4418    1.3857   -1.6232 H   0  0  0  0  0  0  0  0  0  0  0  0
   -3.4586    2.3999   -0.1713 H   0  0  0  0  0  0  0  0  0  0  0  0
  1  2  1  0
  1  6  1  0
  1  7  1  0
  1 26  1  0
  2  3  1  0
  3  4  1  0
  3  8  1  0
  3  9  1  0
  4  5  1  0
  4 10  1  0
  4 11  1  0
  5 12  1  0
  5 13  1  0
  5 14  1  0
 15 16  1  0
 15 21  1  0
 15 22  1  0
 15 23  1  0
 16 17  1  0
 16 24  1  0
 16 25  1  0
 17 18  1  0
 17 27  1  0
 18 19  1  0
 19 20  1  0
 19 28  1  0
 19 29  1  0
 20 30  1  0
 20 31  1  0
 20 32  1  0
M  RAD  1  17   2
M  END
>  <reaction>  (11) 
rmg_rxn_660

>  <mol_properties>  (11) 
{"0": {"label": "*3", "atom_type": "Cs"}, "1": {"label": "*4", "atom_type": "O2s"}, "16": {"label": "*1", "atom_type": "Cs"}, "17": {"label": "*0", "atom_type": "O2s"}, "25": {"label": "*2", "atom_type": "H0"}}

>  <type>  (11) 
unop_7

>  <geom_source>  (11) 
Heuristics

$$$$

     RDKit          3D

 32 30  0  0  0  0  0  0  0  0999 V2000
    1.5707    0.1531    0.7918 C   0  0  0  0  0  0  0  0  0  0  0  0
    1.2819    0.8489   -0.3874 O   0  0  0  0  0  0  0  0  0  0  0  0
    1.7424    0.1872   -1.5395 C   0  0  0  0  0  0  0  0  0  0  0  0
    1.4235    1.0241   -2.7612 C   0  0  0  0  0  0  0  0  0  0  0  0
    2.1359    2.3700   -2.7681 C   0  0  0  0  0  0  0  0  0  0  0  0
    1.1777    0.7356    1.6241 H   0  0  0  0  0  0  0  0  0  0  0  0
    2.6529    0.0230    0.9279 H   0  0  0  0  0  0  0  0  0  0  0  0
    1.2660   -0.8012   -1.6186 H   0  0  0  0  0  0  0  0  0  0  0  0
    2.8292    0.0221   -1.4666 H   0  0  0  0  0  0  0  0  0  0  0  0
    0.3415    1.1715   -2.8079 H   0  0  0  0  0  0  0  0  0  0  0  0
    1.7029    0.4459   -3.6463 H   0  0  0  0  0  0  0  0  0  0  0  0
    1.8863    2.9414   -3.6634 H   0  0  0  0  0  0  0  0  0  0  0  0
    1.8538    2.9611   -1.8969 H   0  0  0  0  0  0  0  0  0  0  0  0
    3.2205    2.2371   -2.7469 H   0  0  0  0  0  0  0  0  0  0  0  0
   -0.5246   -2.5943   -0.4628 C   0  0  0  0  0  0  0  0  0  0  0  0
   -0.5246   -2.5943    1.0601 C   0  0  0  0  0  0  0  0  0  0  0  0
   -0.5246   -1.2012    1.6556 C   0  0  0  0  0  3  0  0  0  0  0  0
   -1.7076   -0.5376    1.2880 O   0  0  0  0  0  0  0  0  0  0  0  0
   -1.7783    0.7804    1.7689 C   0  0  0  0  0  0  0  0  0  0  0  0
   -3.0816    1.3982    1.3181 C   0  0  0  0  0  0  0  0  0  0  0  0
    0.3575   -2.0800   -0.8525 H   0  0  0  0  0  0  0  0  0  0  0  0
   -1.4073   -2.0846   -0.8489 H   0  0  0  0  0  0  0  0  0  0  0  0
   -0.5191   -3.6122   -0.8555 H   0  0  0  0  0  0  0  0  0  0  0  0
    0.3570   -3.1208    1.4363 H   0  0  0  0  0  0  0  0  0  0  0  0
   -1.3989   -3.1323    1.4353 H   0  0  0  0  0  0  0  0  0  0  0  0
    0.5245   -0.5231    1.2231 H   0  0  0  0  0  0  0  0  0  0  0  0
   -0.4498   -1.2552    2.7516 H   0  0  0  0  0  0  0  0  0  0  0  0
   -1.7110    0.7833    2.8670 H   0  0  0  0  0  0  0  0  0  0  0  0
   -0.9254    1.3634    1.3910 H   0  0  0  0  0  0  0  0  0  0  0  0
   -3.9280    0.8288    1.7037 H   0  0  0  0  0  0  0  0  0  0  0  0
   -3.1424    1.4101    0.2292 H   0  0  0  0  0  0  0  0  0  0  0  0
   -3.1592    2.4242    1.6811 H   0  0  0  0  0  0  0  0  0  0  0  0
  1  2  1  0
  1  6  1  0
  1  7  1  0
  1 26  1  0
  2  3  1  0
  3  4  1  0
  3  8  1  0
  3  9  1  0
  4  5  1  0
  4 10  1  0
  4 11  1  0
  5 12  1  0
  5 13  1  0
  5 14  1  0
 15 16  1  0
 15 21  1  0
 15 22  1  0
 15 23  1  0
 16 17  1  0
 16 24  1  0
 16 25  1  0
 17 18  1  0
 17 27  1  0
 18 19  1  0
 19 20  1  0
 19 28  1  0
 19 29  1  0
 20 30  1  0
 20 31  1  0
 20 32  1  0
M  RAD  1  17   2
M  END
>  <reaction>  (12) 
rmg_rxn_660

>  <mol_properties>  (12) 
{"0": {"label": "*3", "atom_type": "Cs"}, "1": {"label": "*4", "atom_type": "O2s"}, "16": {"label": "*1", "atom_type": "Cs"}, "17": {"label": "*0", "atom_type": "O2s"}, "25": {"label": "*2", "atom_type": "H0"}}

>  <type>  (12) 
unop_8

>  <geom_source>  (12) 
Heuristics

$$$$

     RDKit          3D

 32 30  0  0  0  0  0  0  0  0999 V2000
    0.8185    1.1560   -0.2756 C   0  0  0  0  0  0  0  0  0  0  0  0
    1.9010    0.3109   -0.5445 O   0  0  0  0  0  0  0  0  0  0  0  0
    2.0796   -0.6785    0.4384 C   0  0  0  0  0  0  0  0  0  0  0  0
    3.2898   -1.5204    0.0902 C   0  0  0  0  0  0  0  0  0  0  0  0
    4.5903   -0.7279    0.0874 C   0  0  0  0  0  0  0  0  0  0  0  0
    0.7571    1.8824   -1.0848 H   0  0  0  0  0  0  0  0  0  0  0  0
    0.9518    1.6913    0.6742 H   0  0  0  0  0  0  0  0  0  0  0  0
    1.1807   -1.3096    0.5015 H   0  0  0  0  0  0  0  0  0  0  0  0
    2.2179   -0.2059    1.4240 H   0  0  0  0  0  0  0  0  0  0  0  0
    3.1253   -1.9757   -0.8898 H   0  0  0  0  0  0  0  0  0  0  0  0
    3.3491   -2.3382    0.8136 H   0  0  0  0  0  0  0  0  0  0  0  0
    5.4385   -1.3669   -0.1624 H   0  0  0  0  0  0  0  0  0  0  0  0
    4.5477    0.0820   -0.6408 H   0  0  0  0  0  0  0  0  0  0  0  0
    4.7802   -0.2872    1.0692 H   0  0  0  0  0  0  0  0  0  0  0  0
   -1.2768   -1.5915   -1.5303 C   0  0  0  0  0  0  0  0  0  0  0  0
   -1.2768   -1.5915   -0.0074 C   0  0  0  0  0  0  0  0  0  0  0  0
   -1.2768   -0.1984    0.5882 C   0  0  0  0  0  3  0  0  0  0  0  0
   -2.4598    0.4652    0.2206 O   0  0  0  0  0  0  0  0  0  0  0  0
   -2.5305    1.7832    0.7014 C   0  0  0  0  0  0  0  0  0  0  0  0
   -3.8338    2.4010    0.2506 C   0  0  0  0  0  0  0  0  0  0  0  0
   -0.3947   -1.0772   -1.9199 H   0  0  0  0  0  0  0  0  0  0  0  0
   -2.1595   -1.0818   -1.9163 H   0  0  0  0  0  0  0  0  0  0  0  0
   -1.2713   -2.6093   -1.9229 H   0  0  0  0  0  0  0  0  0  0  0  0
   -0.3952   -2.1179    0.3689 H   0  0  0  0  0  0  0  0  0  0  0  0
   -2.1511   -2.1295    0.3679 H   0  0  0  0  0  0  0  0  0  0  0  0
   -0.2277    0.4797    0.1557 H   0  0  0  0  0  0  0  0  0  0  0  0
   -1.2020   -0.2523    1.6842 H   0  0  0  0  0  0  0  0  0  0  0  0
   -2.4632    1.7861    1.7995 H   0  0  0  0  0  0  0  0  0  0  0  0
   -1.6776    2.3662    0.3236 H   0  0  0  0  0  0  0  0  0  0  0  0
   -4.6802    1.8316    0.6363 H   0  0  0  0  0  0  0  0  0  0  0  0
   -3.8946    2.4129   -0.8382 H   0  0  0  0  0  0  0  0  0  0  0  0
   -3.9114    3.4270    0.6137 H   0  0  0  0  0  0  0  0  0  0  0  0
  1  2  1  0
  1  6  1  0
  1  7  1  0
  1 26  1  0
  2  3  1  0
  3  4  1  0
  3  8  1  0
  3  9  1  0
  4  5  1  0
  4 10  1  0
  4 11  1  0
  5 12  1  0
  5 13  1  0
  5 14  1  0
 15 16  1  0
 15 21  1  0
 15 22  1  0
 15 23  1  0
 16 17  1  0
 16 24  1  0
 16 25  1  0
 17 18  1  0
 17 27  1  0
 18 19  1  0
 19 20  1  0
 19 28  1  0
 19 29  1  0
 20 30  1  0
 20 31  1  0
 20 32  1  0
M  RAD  1  17   2
M  END
>  <reaction>  (13) 
rmg_rxn_660

>  <mol_properties>  (13) 
{"0": {"label": "*3", "atom_type": "Cs"}, "1": {"label": "*4", "atom_type": "O2s"}, "16": {"label": "*1", "atom_type": "Cs"}, "17": {"label": "*0", "atom_type": "O2s"}, "25": {"label": "*2", "atom_type": "H0"}}

>  <type>  (13) 
unop_9

>  <geom_source>  (13) 
Heuristics

$$$$

     RDKit          3D

 32 30  0  0  0  0  0  0  0  0999 V2000
    1.3495    0.5761    0.8210 C   0  0  0  0  0  0  0  0  0  0  0  0
    1.3427    0.6987   -0.5729 O   0  0  0  0  0  0  0  0  0  0  0  0
    2.0504   -0.3321   -1.2160 C   0  0  0  0  0  0  0  0  0  0  0  0
    2.0249   -0.1014   -2.7129 C   0  0  0  0  0  0  0  0  0  0  0  0
    2.7284    1.1821   -3.1335 C   0  0  0  0  0  0  0  0  0  0  0  0
    0.7801    1.4101    1.2292 H   0  0  0  0  0  0  0  0  0  0  0  0
    2.3710    0.6115    1.2234 H   0  0  0  0  0  0  0  0  0  0  0  0
    1.5986   -1.3048   -0.9717 H   0  0  0  0  0  0  0  0  0  0  0  0
    3.0907   -0.3538   -0.8538 H   0  0  0  0  0  0  0  0  0  0  0  0
    0.9832   -0.0844   -3.0436 H   0  0  0  0  0  0  0  0  0  0  0  0
    2.4959   -0.9634   -3.1934 H   0  0  0  0  0  0  0  0  0  0  0  0
    2.6940    1.3117   -4.2162 H   0  0  0  0  0  0  0  0  0  0  0  0
    2.2581    2.0499   -2.6712 H   0  0  0  0  0  0  0  0  0  0  0  0
    3.7785    1.1681   -2.8309 H   0  0  0  0  0  0  0  0  0  0  0  0
   -0.7457   -2.1714   -0.4336 C   0  0  0  0  0  0  0  0  0  0  0  0
   -0.7457   -2.1714    1.0893 C   0  0  0  0  0  0  0  0  0  0  0  0
   -0.7457   -0.7783    1.6848 C   0  0  0  0  0  3  0  0  0  0  0  0
   -1.9287   -0.1147    1.3172 O   0  0  0  0  0  0  0  0  0  0  0  0
   -1.9995    1.2033    1.7981 C   0  0  0  0  0  0  0  0  0  0  0  0
   -3.3028    1.8211    1.3473 C   0  0  0  0  0  0  0  0  0  0  0  0
    0.1363   -1.6570   -0.8232 H   0  0  0  0  0  0  0  0  0  0  0  0
   -1.6285   -1.6617   -0.8197 H   0  0  0  0  0  0  0  0  0  0  0  0
   -0.7403   -3.1892   -0.8263 H   0  0  0  0  0  0  0  0  0  0  0  0
    0.1358   -2.6978    1.4656 H   0  0  0  0  0  0  0  0  0  0  0  0
   -1.6201   -2.7093    1.4646 H   0  0  0  0  0  0  0  0  0  0  0  0
    0.3033   -0.1002    1.2523 H   0  0  0  0  0  0  0  0  0  0  0  0
   -0.6710   -0.8322    2.7808 H   0  0  0  0  0  0  0  0  0  0  0  0
   -1.9322    1.2062    2.8962 H   0  0  0  0  0  0  0  0  0  0  0  0
   -1.1466    1.7863    1.4202 H   0  0  0  0  0  0  0  0  0  0  0  0
   -4.1491    1.2517    1.7329 H   0  0  0  0  0  0  0  0  0  0  0  0
   -3.3636    1.8330    0.2584 H   0  0  0  0  0  0  0  0  0  0  0  0
   -3.3804    2.8472    1.7103 H   0  0  0  0  0  0  0  0  0  0  0  0
  1  2  1  0
  1  6  1  0
  1  7  1  0
  1 26  1  0
  2  3  1  0
  3  4  1  0
  3  8  1  0
  3  9  1  0
  4  5  1  0
  4 10  1  0
  4 11  1  0
  5 12  1  0
  5 13  1  0
  5 14  1  0
 15 16  1  0
 15 21  1  0
 15 22  1  0
 15 23  1  0
 16 17  1  0
 16 24  1  0
 16 25  1  0
 17 18  1  0
 17 27  1  0
 18 19  1  0
 19 20  1  0
 19 28  1  0
 19 29  1  0
 20 30  1  0
 20 31  1  0
 20 32  1  0
M  RAD  1  17   2
M  END
>  <reaction>  (14) 
rmg_rxn_660

>  <mol_properties>  (14) 
{"0": {"label": "*3", "atom_type": "Cs"}, "1": {"label": "*4", "atom_type": "O2s"}, "16": {"label": "*1", "atom_type": "Cs"}, "17": {"label": "*0", "atom_type": "O2s"}, "25": {"label": "*2", "atom_type": "H0"}}

>  <type>  (14) 
unop_10

>  <geom_source>  (14) 
Heuristics

$$$$

     RDKit          3D

 32 30  0  0  0  0  0  0  0  0999 V2000
    1.5773   -0.2772   -0.8269 C   0  0  0  0  0  0  0  0  0  0  0  0
    2.0062    0.6624    0.1172 O   0  0  0  0  0  0  0  0  0  0  0  0
    0.9531    1.1779    0.8931 C   0  0  0  0  0  0  0  0  0  0  0  0
    1.4983    2.2107    1.8578 C   0  0  0  0  0  0  0  0  0  0  0  0
    2.1036    3.4216    1.1603 C   0  0  0  0  0  0  0  0  0  0  0  0
    2.4543   -0.6197   -1.3746 H   0  0  0  0  0  0  0  0  0  0  0  0
    0.8633    0.1622   -1.5367 H   0  0  0  0  0  0  0  0  0  0  0  0
    0.4609    0.3629    1.4441 H   0  0  0  0  0  0  0  0  0  0  0  0
    0.1947    1.6350    0.2376 H   0  0  0  0  0  0  0  0  0  0  0  0
    2.2465    1.7306    2.4938 H   0  0  0  0  0  0  0  0  0  0  0  0
    0.6800    2.5236    2.5123 H   0  0  0  0  0  0  0  0  0  0  0  0
    2.4805    4.1443    1.8855 H   0  0  0  0  0  0  0  0  0  0  0  0
    2.9302    3.1230    0.5156 H   0  0  0  0  0  0  0  0  0  0  0  0
    1.3591    3.9265    0.5398 H   0  0  0  0  0  0  0  0  0  0  0  0
   -0.5179   -3.0246   -2.0816 C   0  0  0  0  0  0  0  0  0  0  0  0
   -0.5179   -3.0246   -0.5587 C   0  0  0  0  0  0  0  0  0  0  0  0
   -0.5179   -1.6316    0.0369 C   0  0  0  0  0  3  0  0  0  0  0  0
   -1.7009   -0.9680   -0.3307 O   0  0  0  0  0  0  0  0  0  0  0  0
   -1.7716    0.3501    0.1502 C   0  0  0  0  0  0  0  0  0  0  0  0
   -3.0750    0.9679   -0.3007 C   0  0  0  0  0  0  0  0  0  0  0  0
    0.3641   -2.5103   -2.4712 H   0  0  0  0  0  0  0  0  0  0  0  0
   -1.4006   -2.5150   -2.4676 H   0  0  0  0  0  0  0  0  0  0  0  0
   -0.5124   -4.0425   -2.4742 H   0  0  0  0  0  0  0  0  0  0  0  0
    0.3636   -3.5511   -0.1824 H   0  0  0  0  0  0  0  0  0  0  0  0
   -1.3923   -3.5626   -0.1834 H   0  0  0  0  0  0  0  0  0  0  0  0
    0.5311   -0.9535   -0.3956 H   0  0  0  0  0  0  0  0  0  0  0  0
   -0.4431   -1.6855    1.1329 H   0  0  0  0  0  0  0  0  0  0  0  0
   -1.7044    0.3529    1.2482 H   0  0  0  0  0  0  0  0  0  0  0  0
   -0.9188    0.9331   -0.2277 H   0  0  0  0  0  0  0  0  0  0  0  0
   -3.9213    0.3985    0.0850 H   0  0  0  0  0  0  0  0  0  0  0  0
   -3.1358    0.9797   -1.3895 H   0  0  0  0  0  0  0  0  0  0  0  0
   -3.1526    1.9939    0.0624 H   0  0  0  0  0  0  0  0  0  0  0  0
  1  2  1  0
  1  6  1  0
  1  7  1  0
  1 26  1  0
  2  3  1  0
  3  4  1  0
  3  8  1  0
  3  9  1  0
  4  5  1  0
  4 10  1  0
  4 11  1  0
  5 12  1  0
  5 13  1  0
  5 14  1  0
 15 16  1  0
 15 21  1  0
 15 22  1  0
 15 23  1  0
 16 17  1  0
 16 24  1  0
 16 25  1  0
 17 18  1  0
 17 27  1  0
 18 19  1  0
 19 20  1  0
 19 28  1  0
 19 29  1  0
 20 30  1  0
 20 31  1  0
 20 32  1  0
M  RAD  1  17   2
M  END
>  <reaction>  (15) 
rmg_rxn_660

>  <mol_properties>  (15) 
{"0": {"label": "*3", "atom_type": "Cs"}, "1": {"label": "*4", "atom_type": "O2s"}, "16": {"label": "*1", "atom_type": "Cs"}, "17": {"label": "*0", "atom_type": "O2s"}, "25": {"label": "*2", "atom_type": "H0"}}

>  <type>  (15) 
unop_11

>  <geom_source>  (15) 
Heuristics

$$$$

     RDKit          3D

 32 30  0  0  0  0  0  0  0  0999 V2000
    0.9061    1.1587    0.2024 C   0  0  0  0  0  0  0  0  0  0  0  0
    1.6910    0.3918   -0.6659 O   0  0  0  0  0  0  0  0  0  0  0  0
    2.1971   -0.7724   -0.0614 C   0  0  0  0  0  0  0  0  0  0  0  0
    3.0623   -1.5194   -1.0553 C   0  0  0  0  0  0  0  0  0  0  0  0
    4.2925   -0.7333   -1.4887 C   0  0  0  0  0  0  0  0  0  0  0  0
    0.5590    2.0315   -0.3492 H   0  0  0  0  0  0  0  0  0  0  0  0
    1.4822    1.4950    1.0751 H   0  0  0  0  0  0  0  0  0  0  0  0
    1.3666   -1.4096    0.2766 H   0  0  0  0  0  0  0  0  0  0  0  0
    2.7881   -0.5046    0.8290 H   0  0  0  0  0  0  0  0  0  0  0  0
    2.4517   -1.7715   -1.9261 H   0  0  0  0  0  0  0  0  0  0  0  0
    3.3628   -2.4647   -0.5948 H   0  0  0  0  0  0  0  0  0  0  0  0
    4.8925   -1.3038   -2.1992 H   0  0  0  0  0  0  0  0  0  0  0  0
    4.0043    0.2052   -1.9622 H   0  0  0  0  0  0  0  0  0  0  0  0
    4.9256   -0.4958   -0.6301 H   0  0  0  0  0  0  0  0  0  0  0  0
   -1.1891   -1.5887   -1.0523 C   0  0  0  0  0  0  0  0  0  0  0  0
   -1.1891   -1.5887    0.4706 C   0  0  0  0  0  0  0  0  0  0  0  0
   -1.1891   -0.1956    1.0661 C   0  0  0  0  0  3  0  0  0  0  0  0
   -2.3721    0.4680    0.6985 O   0  0  0  0  0  0  0  0  0  0  0  0
   -2.4429    1.7860    1.1794 C   0  0  0  0  0  0  0  0  0  0  0  0
   -3.7462    2.4038    0.7286 C   0  0  0  0  0  0  0  0  0  0  0  0
   -0.3071   -1.0744   -1.4419 H   0  0  0  0  0  0  0  0  0  0  0  0
   -2.0719   -1.0790   -1.4384 H   0  0  0  0  0  0  0  0  0  0  0  0
   -1.1837   -2.6066   -1.4450 H   0  0  0  0  0  0  0  0  0  0  0  0
   -0.3076   -2.1152    0.8469 H   0  0  0  0  0  0  0  0  0  0  0  0
   -2.0635   -2.1267    0.8459 H   0  0  0  0  0  0  0  0  0  0  0  0
   -0.1401    0.4825    0.6337 H   0  0  0  0  0  0  0  0  0  0  0  0
   -1.1144   -0.2495    2.1622 H   0  0  0  0  0  0  0  0  0  0  0  0
   -2.3756    1.7889    2.2775 H   0  0  0  0  0  0  0  0  0  0  0  0
   -1.5900    2.3690    0.8016 H   0  0  0  0  0  0  0  0  0  0  0  0
   -4.5925    1.8344    1.1143 H   0  0  0  0  0  0  0  0  0  0  0  0
   -3.8070    2.4157   -0.3602 H   0  0  0  0  0  0  0  0  0  0  0  0
   -3.8238    3.4298    1.0917 H   0  0  0  0  0  0  0  0  0  0  0  0
  1  2  1  0
  1  6  1  0
  1  7  1  0
  1 26  1  0
  2  3  1  0
  3  4  1  0
  3  8  1  0
  3  9  1  0
  4  5  1  0
  4 10  1  0
  4 11  1  0
  5 12  1  0
  5 13  1  0
  5 14  1  0
 15 16  1  0
 15 21  1  0
 15 22  1  0
 15 23  1  0
 16 17  1  0
 16 24  1  0
 16 25  1  0
 17 18  1  0
 17 27  1  0
 18 19  1  0
 19 20  1  0
 19 28  1  0
 19 29  1  0
 20 30  1  0
 20 31  1  0
 20 32  1  0
M  RAD  1  17   2
M  END
>  <reaction>  (16) 
rmg_rxn_660

>  <mol_properties>  (16) 
{"0": {"label": "*3", "atom_type": "Cs"}, "1": {"label": "*4", "atom_type": "O2s"}, "16": {"label": "*1", "atom_type": "Cs"}, "17": {"label": "*0", "atom_type": "O2s"}, "25": {"label": "*2", "atom_type": "H0"}}

>  <type>  (16) 
unop_12

>  <geom_source>  (16) 
Heuristics

$$$$

     RDKit          3D

 32 30  0  0  0  0  0  0  0  0999 V2000
    1.0257   -0.9347   -0.6356 O   0  0  0  0  0  0  0  0  0  0  0  0
   -3.1780    0.0209    0.4853 O   0  0  0  0  0  0  0  0  0  0  0  0
    3.2088   -0.2688    0.1602 C   0  0  0  0  0  0  0  0  0  0  0  0
   -1.9283    2.0470    0.1186 C   0  0  0  0  0  0  0  0  0  0  0  0
    2.3723   -0.7488   -1.0298 C   0  0  0  0  0  0  0  0  0  0  0  0
   -2.6727   -1.2106    0.9527 C   0  0  0  0  0  0  0  0  0  0  0  0
    4.6829   -0.1416   -0.2131 C   0  0  0  0  0  0  0  0  0  0  0  0
   -1.2337    2.0698    1.4761 C   0  0  0  0  0  0  0  0  0  0  0  0
   -2.9167   -2.3211   -0.0663 C   0  0  0  0  0  0  0  0  0  0  0  0
    0.2545    0.1999   -0.9647 C   0  0  0  0  0  0  0  0  0  0  0  0
   -2.2036    0.6164   -0.3344 C   0  0  0  0  0  3  0  0  0  0  0  0
    3.1075   -0.9919    0.9984 H   0  0  0  0  0  0  0  0  0  0  0  0
    2.8386    0.7201    0.5055 H   0  0  0  0  0  0  0  0  0  0  0  0
   -1.2701    2.5393   -0.6289 H   0  0  0  0  0  0  0  0  0  0  0  0
   -2.8818    2.6156    0.1744 H   0  0  0  0  0  0  0  0  0  0  0  0
    2.7640   -1.7337   -1.3630 H   0  0  0  0  0  0  0  0  0  0  0  0
    2.4927   -0.0534   -1.8955 H   0  0  0  0  0  0  0  0  0  0  0  0
   -1.5910   -1.1617    1.2259 H   0  0  0  0  0  0  0  0  0  0  0  0
   -3.2185   -1.4720    1.8837 H   0  0  0  0  0  0  0  0  0  0  0  0
    5.0861   -1.1253   -0.5354 H   0  0  0  0  0  0  0  0  0  0  0  0
    4.8104    0.5948   -1.0350 H   0  0  0  0  0  0  0  0  0  0  0  0
    5.2608    0.2070    0.6687 H   0  0  0  0  0  0  0  0  0  0  0  0
   -3.9980   -2.3799   -0.3129 H   0  0  0  0  0  0  0  0  0  0  0  0
   -2.5907   -3.2946    0.3567 H   0  0  0  0  0  0  0  0  0  0  0  0
   -2.3404   -2.1261   -0.9951 H   0  0  0  0  0  0  0  0  0  0  0  0
   -0.2822    1.4979    1.4308 H   0  0  0  0  0  0  0  0  0  0  0  0
   -1.0057    3.1190    1.7590 H   0  0  0  0  0  0  0  0  0  0  0  0
   -1.8902    1.6281    2.2557 H   0  0  0  0  0  0  0  0  0  0  0  0
    0.1717    0.3136   -2.0681 H   0  0  0  0  0  0  0  0  0  0  0  0
    0.6723    1.1250   -0.5096 H   0  0  0  0  0  0  0  0  0  0  0  0
   -0.9839    0.0312   -0.4786 H   0  0  0  0  0  0  0  0  0  0  0  0
   -2.5628    0.6187   -1.3857 H   0  0  0  0  0  0  0  0  0  0  0  0
  1 10  1  0
  1  5  1  0
  2  6  1  0
  2 11  1  0
  3  7  1  0
  3  5  1  0
  3 12  1  0
  3 13  1  0
  4  8  1  0
  4 11  1  0
  4 14  1  0
  4 15  1  0
  5 16  1  0
  5 17  1  0
  6  9  1  0
  6 18  1  0
  6 19  1  0
  7 20  1  0
  7 21  1  0
  7 22  1  0
  8 26  1  0
  8 27  1  0
  8 28  1  0
  9 23  1  0
  9 24  1  0
  9 25  1  0
 10 29  1  0
 10 30  1  0
 10 31  1  0
 11 32  1  0
M  RAD  1  11   2
M  END
>  <reaction>  (17) 
rmg_rxn_660

>  <mol_properties>  (17) 
{"0": {"label": "*3", "atom_type": "Cs"}, "1": {"label": "*4", "atom_type": "O2s"}, "16": {"label": "*1", "atom_type": "Cs"}, "17": {"label": "*0", "atom_type": "O2s"}, "25": {"label": "*2", "atom_type": "H0"}}

>  <type>  (17) 
unop_13

>  <geom_source>  (17) 
AutoTST

$$$$

     RDKit          3D

 32 30  0  0  0  0  0  0  0  0999 V2000
    1.1005    0.9465    0.6076 C   0  0  0  0  0  0  0  0  0  0  0  0
    1.4866    0.5337   -0.6725 O   0  0  0  0  0  0  0  0  0  0  0  0
    2.2156   -0.6686   -0.6627 C   0  0  0  0  0  0  0  0  0  0  0  0
    2.6246   -1.0200   -2.0783 C   0  0  0  0  0  0  0  0  0  0  0  0
    3.5622    0.0046   -2.7030 C   0  0  0  0  0  0  0  0  0  0  0  0
    0.5442    1.8769    0.5013 H   0  0  0  0  0  0  0  0  0  0  0  0
    1.9713    1.1239    1.2533 H   0  0  0  0  0  0  0  0  0  0  0  0
    1.6029   -1.4739   -0.2311 H   0  0  0  0  0  0  0  0  0  0  0  0
    3.1084   -0.5593   -0.0266 H   0  0  0  0  0  0  0  0  0  0  0  0
    1.7213   -1.1218   -2.6852 H   0  0  0  0  0  0  0  0  0  0  0  0
    3.1031   -2.0030   -2.0551 H   0  0  0  0  0  0  0  0  0  0  0  0
    3.8383   -0.2839   -3.7182 H   0  0  0  0  0  0  0  0  0  0  0  0
    3.0898    0.9861   -2.7442 H   0  0  0  0  0  0  0  0  0  0  0  0
    4.4814    0.0985   -2.1195 H   0  0  0  0  0  0  0  0  0  0  0  0
   -0.9948   -1.8010   -0.6470 C   0  0  0  0  0  0  0  0  0  0  0  0
   -0.9948   -1.8010    0.8759 C   0  0  0  0  0  0  0  0  0  0  0  0
   -0.9948   -0.4079    1.4714 C   0  0  0  0  0  3  0  0  0  0  0  0
   -2.1778    0.2557    1.1038 O   0  0  0  0  0  0  0  0  0  0  0  0
   -2.2485    1.5737    1.5847 C   0  0  0  0  0  0  0  0  0  0  0  0
   -3.5518    2.1915    1.1339 C   0  0  0  0  0  0  0  0  0  0  0  0
   -0.1127   -1.2867   -1.0367 H   0  0  0  0  0  0  0  0  0  0  0  0
   -1.8775   -1.2913   -1.0331 H   0  0  0  0  0  0  0  0  0  0  0  0
   -0.9893   -2.8188   -1.0397 H   0  0  0  0  0  0  0  0  0  0  0  0
   -0.1132   -2.3274    1.2522 H   0  0  0  0  0  0  0  0  0  0  0  0
   -1.8691   -2.3390    1.2512 H   0  0  0  0  0  0  0  0  0  0  0  0
    0.0543    0.2702    1.0389 H   0  0  0  0  0  0  0  0  0  0  0  0
   -0.9200   -0.4618    2.5674 H   0  0  0  0  0  0  0  0  0  0  0  0
   -2.1812    1.5766    2.6828 H   0  0  0  0  0  0  0  0  0  0  0  0
   -1.3956    2.1567    1.2068 H   0  0  0  0  0  0  0  0  0  0  0  0
   -4.3982    1.6221    1.5195 H   0  0  0  0  0  0  0  0  0  0  0  0
   -3.6126    2.2034    0.0450 H   0  0  0  0  0  0  0  0  0  0  0  0
   -3.6294    3.2176    1.4969 H   0  0  0  0  0  0  0  0  0  0  0  0
  1  2  1  0
  1  6  1  0
  1  7  1  0
  1 26  1  0
  2  3  1  0
  3  4  1  0
  3  8  1  0
  3  9  1  0
  4  5  1  0
  4 10  1  0
  4 11  1  0
  5 12  1  0
  5 13  1  0
  5 14  1  0
 15 16  1  0
 15 21  1  0
 15 22  1  0
 15 23  1  0
 16 17  1  0
 16 24  1  0
 16 25  1  0
 17 18  1  0
 17 27  1  0
 18 19  1  0
 19 20  1  0
 19 28  1  0
 19 29  1  0
 20 30  1  0
 20 31  1  0
 20 32  1  0
M  RAD  1  17   2
M  END
>  <reaction>  (18) 
rmg_rxn_660

>  <mol_properties>  (18) 
{"0": {"label": "*3", "atom_type": "Cs"}, "1": {"label": "*4", "atom_type": "O2s"}, "16": {"label": "*1", "atom_type": "Cs"}, "17": {"label": "*0", "atom_type": "O2s"}, "25": {"label": "*2", "atom_type": "H0"}}

>  <type>  (18) 
unop_14

>  <geom_source>  (18) 
gaussian_log

$$$$
