
     RDKit          3D

  9  9  0  0  0  0  0  0  0  0999 V2000
    1.4292   -0.6130    0.5042 O   0  0  0  0  0  0  0  0  0  0  0  0
    0.4683   -0.3219   -0.5063 N   0  0  0  0  0  0  0  0  0  0  0  0
   -0.2267    0.9155   -0.1805 C   0  0  0  0  0  0  0  0  0  0  0  0
   -0.8728   -0.3965    0.0559 C   0  0  0  0  0  0  0  0  0  0  0  0
    2.1248   -1.0453    0.0059 H   0  0  0  0  0  0  0  0  0  0  0  0
   -0.4980    1.5264   -1.0321 H   0  0  0  0  0  0  0  0  0  0  0  0
    0.1405    1.4456    0.6886 H   0  0  0  0  0  0  0  0  0  0  0  0
   -0.9339   -0.7359    1.0817 H   0  0  0  0  0  0  0  0  0  0  0  0
   -1.6314   -0.7750   -0.6174 H   0  0  0  0  0  0  0  0  0  0  0  0
  1  2  1  0
  1  5  1  0
  2  3  1  0
  2  4  1  0
  3  4  1  0
  3  6  1  0
  3  7  1  0
  4  8  1  0
  4  9  1  0
M  END
>  <reaction>  (1) 
rmg_rxn_16649

>  <mol_properties>  (1) 
{"0": {"label": "donator", "atom_type": "O2s"}, "4": {"label": "d_hydrogen", "atom_type": "H0"}}

>  <type>  (1) 
r1h

$$$$

     RDKit          3D

  7  6  0  0  0  0  0  0  0  0999 V2000
   -0.6441   -0.1356    0.0624 C   0  0  0  0  0  0  0  0  0  0  0  0
    0.8523    0.0148   -0.0333 C   0  0  0  0  0  0  0  0  0  0  0  0
    1.6700   -0.6077    0.6603 N   0  0  0  0  0  2  0  0  0  0  0  0
   -1.0940    0.8275    0.3091 H   0  0  0  0  0  0  0  0  0  0  0  0
   -0.9104   -0.8656    0.8237 H   0  0  0  0  0  0  0  0  0  0  0  0
   -1.0427   -0.4545   -0.9022 H   0  0  0  0  0  0  0  0  0  0  0  0
    1.2362    0.7308   -0.7748 H   0  0  0  0  0  0  0  0  0  0  0  0
  1  2  1  0
  1  4  1  0
  1  5  1  0
  1  6  1  0
  2  3  2  0
  2  7  1  0
M  RAD  1   3   2
M  END
>  <reaction>  (2) 
rmg_rxn_16649

>  <mol_properties>  (2) 
{"2": {"label": "acceptor", "atom_type": "N3d"}}

>  <type>  (2) 
r2

$$$$

     RDKit          3D

  8  7  0  0  0  0  0  0  0  0999 V2000
    0.9548    0.1194   -0.0790 C   0  0  0  0  0  0  0  0  0  0  0  0
   -0.4838   -0.2649    0.0193 C   0  0  0  0  0  0  0  0  0  0  0  0
   -0.8933   -1.1081    0.8664 N   0  0  0  0  0  0  0  0  0  0  0  0
    1.3360   -0.0983   -1.0800 H   0  0  0  0  0  0  0  0  0  0  0  0
    1.0698    1.1948    0.0786 H   0  0  0  0  0  0  0  0  0  0  0  0
    1.5426   -0.4219    0.6602 H   0  0  0  0  0  0  0  0  0  0  0  0
   -1.1575    0.2324   -0.6905 H   0  0  0  0  0  0  0  0  0  0  0  0
   -1.8989   -1.2455    0.7886 H   0  0  0  0  0  0  0  0  0  0  0  0
  1  2  1  0
  1  4  1  0
  1  5  1  0
  1  6  1  0
  2  3  2  3
  2  7  1  0
  3  8  1  0
M  END
>  <reaction>  (3) 
rmg_rxn_16649

>  <mol_properties>  (3) 
{"2": {"label": "acceptor", "atom_type": "N3d"}, "7": {"label": "a_hydrogen", "atom_type": "H0"}}

>  <type>  (3) 
r2h

$$$$

     RDKit          3D

 16 15  0  0  0  0  0  0  0  0999 V2000
    2.5375   -1.9035    0.9325 C   0  0  0  0  0  0  0  0  0  0  0  0
    1.2729   -1.1115    0.7768 C   0  0  0  0  0  0  0  0  0  0  0  0
    0.3291   -1.1209    1.5867 N   0  0  0  0  0  2  0  0  0  0  0  0
    2.5194   -2.4882    1.8497 H   0  0  0  0  0  0  0  0  0  0  0  0
    3.3936   -1.2262    0.9462 H   0  0  0  0  0  0  0  0  0  0  0  0
    2.6599   -2.5689    0.0757 H   0  0  0  0  0  0  0  0  0  0  0  0
    1.1727   -0.4720   -0.1252 H   0  0  0  0  0  0  0  0  0  0  0  0
   -1.2673    0.3917    0.5991 O   0  0  0  0  0  0  0  0  0  0  0  0
   -0.6047    0.7562   -0.5217 N   0  0  0  0  0  0  0  0  0  0  0  0
   -0.8132    2.1265   -0.9469 C   0  0  0  0  0  0  0  0  0  0  0  0
   -1.4367    0.9855   -1.6866 C   0  0  0  0  0  0  0  0  0  0  0  0
   -0.5647   -0.3825    1.2011 H   0  0  0  0  0  0  0  0  0  0  0  0
    0.0524    2.6350   -1.3523 H   0  0  0  0  0  0  0  0  0  0  0  0
   -1.4664    2.7175   -0.3178 H   0  0  0  0  0  0  0  0  0  0  0  0
   -2.4981    0.8296   -1.5418 H   0  0  0  0  0  0  0  0  0  0  0  0
   -1.0280    0.6577   -2.6342 H   0  0  0  0  0  0  0  0  0  0  0  0
  1  2  1  0
  1  4  1  0
  1  5  1  0
  1  6  1  0
  2  3  2  0
  2  7  1  0
  8  9  1  0
  8 12  1  0
  9 10  1  0
  9 11  1  0
 10 11  1  0
 10 13  1  0
 10 14  1  0
 11 15  1  0
 11 16  1  0
M  RAD  1   3   2
M  END
>  <reaction>  (4) 
rmg_rxn_16649

>  <mol_properties>  (4) 
{"1": {"label": "*4", "atom_type": "Cd"}, "2": {"label": "*3", "atom_type": "N3d"}, "7": {"label": "*1", "atom_type": "O2s"}, "8": {"label": "*0", "atom_type": "N3s"}, "11": {"label": "*2", "atom_type": "H0"}}

>  <type>  (4) 
ts

$$$$

     RDKit          3D

 16 15  0  0  0  0  0  0  0  0999 V2000
    2.9272   -0.6658   -0.0029 C   0  0  0  0  0  0  0  0  0  0  0  0
    2.2873    0.6870   -0.0002 C   0  0  0  0  0  0  0  0  0  0  0  0
    1.0783    0.9609    0.0030 N   0  0  0  0  0  2  0  0  0  0  0  0
    3.5610   -0.7685    0.8766 H   0  0  0  0  0  0  0  0  0  0  0  0
    3.5566   -0.7671   -0.8857 H   0  0  0  0  0  0  0  0  0  0  0  0
    2.1664   -1.4424   -0.0015 H   0  0  0  0  0  0  0  0  0  0  0  0
    2.9950    1.5225   -0.0014 H   0  0  0  0  0  0  0  0  0  0  0  0
   -0.3486   -0.9687    0.0045 O   0  0  0  0  0  0  0  0  0  0  0  0
   -1.6303   -0.6682    0.0010 N   0  0  0  0  0  0  0  0  0  0  0  0
   -2.1973    0.4199    0.7437 C   0  0  0  0  0  0  0  0  0  0  0  0
   -2.1941    0.4163   -0.7494 C   0  0  0  0  0  0  0  0  0  0  0  0
    0.3668   -0.0090    0.0042 H   0  0  0  0  0  0  0  0  0  0  0  0
   -1.5176    1.0900    1.2562 H   0  0  0  0  0  0  0  0  0  0  0  0
   -3.1119    0.1947    1.2734 H   0  0  0  0  0  0  0  0  0  0  0  0
   -3.1064    0.1884   -1.2819 H   0  0  0  0  0  0  0  0  0  0  0  0
   -1.5122    1.0838   -1.2623 H   0  0  0  0  0  0  0  0  0  0  0  0
  1  2  1  0
  1  4  1  0
  1  5  1  0
  1  6  1  0
  2  3  2  0
  2  7  1  0
  8  9  1  0
  8 12  1  0
  9 10  1  0
  9 11  1  0
 10 11  1  0
 10 13  1  0
 10 14  1  0
 11 15  1  0
 11 16  1  0
M  RAD  1   3   2
M  END
>  <reaction>  (5) 
rmg_rxn_16649

>  <mol_properties>  (5) 
{"1": {"label": "*4", "atom_type": "Cd"}, "2": {"label": "*3", "atom_type": "N3d"}, "7": {"label": "*1", "atom_type": "O2s"}, "8": {"label": "*0", "atom_type": "N3s"}, "11": {"label": "*2", "atom_type": "H0"}}

>  <type>  (5) 
unop_1

>  <geom_source>  (5) 
crest_best.xyz

$$$$

     RDKit          3D

 16 15  0  0  0  0  0  0  0  0999 V2000
    2.0116   -1.9102    2.4909 C   0  0  0  0  0  0  0  0  0  0  0  0
    1.5727   -1.0798    1.3313 C   0  0  0  0  0  0  0  0  0  0  0  0
    0.5417   -1.3642    0.6586 N   0  0  0  0  0  2  0  0  0  0  0  0
    3.0225   -2.2902    2.3220 H   0  0  0  0  0  0  0  0  0  0  0  0
    1.3288   -2.7450    2.6388 H   0  0  0  0  0  0  0  0  0  0  0  0
    2.0476   -1.3021    3.3984 H   0  0  0  0  0  0  0  0  0  0  0  0
    2.2032   -0.2105    1.1043 H   0  0  0  0  0  0  0  0  0  0  0  0
   -0.7104    0.5859    0.1536 O   0  0  0  0  0  0  0  0  0  0  0  0
   -0.7104    0.5859   -1.2708 N   0  0  0  0  0  0  0  0  0  0  0  0
   -0.7104    1.9570   -1.7614 C   0  0  0  0  0  0  0  0  0  0  0  0
   -1.9570    1.1566   -1.7614 C   0  0  0  0  0  0  0  0  0  0  0  0
   -0.1031   -0.3599    0.3985 H   0  0  0  0  0  0  0  0  0  0  0  0
   -0.1494    2.1172   -2.6733 H   0  0  0  0  0  0  0  0  0  0  0  0
   -0.6209    2.7263   -1.0055 H   0  0  0  0  0  0  0  0  0  0  0  0
   -2.6937    1.3954   -1.0055 H   0  0  0  0  0  0  0  0  0  0  0  0
   -2.3361    0.7133   -2.6733 H   0  0  0  0  0  0  0  0  0  0  0  0
  1  2  1  0
  1  4  1  0
  1  5  1  0
  1  6  1  0
  2  3  2  0
  2  7  1  0
  8  9  1  0
  8 12  1  0
  9 10  1  0
  9 11  1  0
 10 11  1  0
 10 13  1  0
 10 14  1  0
 11 15  1  0
 11 16  1  0
M  RAD  1   3   2
M  END
>  <reaction>  (6) 
rmg_rxn_16649

>  <mol_properties>  (6) 
{"1": {"label": "*4", "atom_type": "Cd"}, "2": {"label": "*3", "atom_type": "N3d"}, "7": {"label": "*1", "atom_type": "O2s"}, "8": {"label": "*0", "atom_type": "N3s"}, "11": {"label": "*2", "atom_type": "H0"}}

>  <type>  (6) 
unop_2

>  <geom_source>  (6) 
Heuristics

$$$$

     RDKit          3D

 16 15  0  0  0  0  0  0  0  0999 V2000
    2.5121   -2.3302    0.5866 C   0  0  0  0  0  0  0  0  0  0  0  0
    1.3362   -1.4435    0.3456 C   0  0  0  0  0  0  0  0  0  0  0  0
    0.4831   -1.2062    1.2468 N   0  0  0  0  0  2  0  0  0  0  0  0
    2.5012   -3.1700   -0.1130 H   0  0  0  0  0  0  0  0  0  0  0  0
    2.4993   -2.7068    1.6078 H   0  0  0  0  0  0  0  0  0  0  0  0
    3.4409   -1.7815    0.4108 H   0  0  0  0  0  0  0  0  0  0  0  0
    1.2638   -1.0145   -0.6621 H   0  0  0  0  0  0  0  0  0  0  0  0
   -0.7689    0.7440    0.7419 O   0  0  0  0  0  0  0  0  0  0  0  0
   -0.7689    0.7440   -0.6826 N   0  0  0  0  0  0  0  0  0  0  0  0
   -0.7689    2.1150   -1.1732 C   0  0  0  0  0  0  0  0  0  0  0  0
   -2.0156    1.3147   -1.1732 C   0  0  0  0  0  0  0  0  0  0  0  0
   -0.1617   -0.2019    0.9868 H   0  0  0  0  0  0  0  0  0  0  0  0
   -0.2080    2.2753   -2.0851 H   0  0  0  0  0  0  0  0  0  0  0  0
   -0.6794    2.8843   -0.4172 H   0  0  0  0  0  0  0  0  0  0  0  0
   -2.7523    1.5535   -0.4172 H   0  0  0  0  0  0  0  0  0  0  0  0
   -2.3947    0.8713   -2.0851 H   0  0  0  0  0  0  0  0  0  0  0  0
  1  2  1  0
  1  4  1  0
  1  5  1  0
  1  6  1  0
  2  3  2  0
  2  7  1  0
  8  9  1  0
  8 12  1  0
  9 10  1  0
  9 11  1  0
 10 11  1  0
 10 13  1  0
 10 14  1  0
 11 15  1  0
 11 16  1  0
M  RAD  1   3   2
M  END
>  <reaction>  (7) 
rmg_rxn_16649

>  <mol_properties>  (7) 
{"1": {"label": "*4", "atom_type": "Cd"}, "2": {"label": "*3", "atom_type": "N3d"}, "7": {"label": "*1", "atom_type": "O2s"}, "8": {"label": "*0", "atom_type": "N3s"}, "11": {"label": "*2", "atom_type": "H0"}}

>  <type>  (7) 
unop_3

>  <geom_source>  (7) 
Heuristics

$$$$

     RDKit          3D

 16 15  0  0  0  0  0  0  0  0999 V2000
    1.5827   -2.3066    2.5610 C   0  0  0  0  0  0  0  0  0  0  0  0
    1.3018   -1.1411    1.6723 C   0  0  0  0  0  0  0  0  0  0  0  0
    0.6837   -1.2697    0.5779 N   0  0  0  0  0  2  0  0  0  0  0  0
    2.6595   -2.4130    2.7150 H   0  0  0  0  0  0  0  0  0  0  0  0
    1.1853   -3.2208    2.1235 H   0  0  0  0  0  0  0  0  0  0  0  0
    1.1345   -2.1474    3.5452 H   0  0  0  0  0  0  0  0  0  0  0  0
    1.6669   -0.1707    2.0325 H   0  0  0  0  0  0  0  0  0  0  0  0
   -0.5684    0.6805    0.0729 O   0  0  0  0  0  0  0  0  0  0  0  0
   -0.5684    0.6805   -1.3515 N   0  0  0  0  0  0  0  0  0  0  0  0
   -0.5684    2.0515   -1.8421 C   0  0  0  0  0  0  0  0  0  0  0  0
   -1.8150    1.2512   -1.8421 C   0  0  0  0  0  0  0  0  0  0  0  0
    0.0389   -0.2654    0.3179 H   0  0  0  0  0  0  0  0  0  0  0  0
   -0.0075    2.2118   -2.7540 H   0  0  0  0  0  0  0  0  0  0  0  0
   -0.4789    2.8208   -1.0862 H   0  0  0  0  0  0  0  0  0  0  0  0
   -2.5518    1.4900   -1.0862 H   0  0  0  0  0  0  0  0  0  0  0  0
   -2.1942    0.8078   -2.7540 H   0  0  0  0  0  0  0  0  0  0  0  0
  1  2  1  0
  1  4  1  0
  1  5  1  0
  1  6  1  0
  2  3  2  0
  2  7  1  0
  8  9  1  0
  8 12  1  0
  9 10  1  0
  9 11  1  0
 10 11  1  0
 10 13  1  0
 10 14  1  0
 11 15  1  0
 11 16  1  0
M  RAD  1   3   2
M  END
>  <reaction>  (8) 
rmg_rxn_16649

>  <mol_properties>  (8) 
{"1": {"label": "*4", "atom_type": "Cd"}, "2": {"label": "*3", "atom_type": "N3d"}, "7": {"label": "*1", "atom_type": "O2s"}, "8": {"label": "*0", "atom_type": "N3s"}, "11": {"label": "*2", "atom_type": "H0"}}

>  <type>  (8) 
unop_4

>  <geom_source>  (8) 
Heuristics

$$$$

     RDKit          3D

 16 15  0  0  0  0  0  0  0  0999 V2000
    0.5693   -3.2678    1.2654 C   0  0  0  0  0  0  0  0  0  0  0  0
    0.4986   -1.9439    0.5802 C   0  0  0  0  0  0  0  0  0  0  0  0
    1.0507   -0.9136    1.0598 N   0  0  0  0  0  2  0  0  0  0  0  0
   -0.4368   -3.6301    1.4913 H   0  0  0  0  0  0  0  0  0  0  0  0
    1.1427   -3.1869    2.1871 H   0  0  0  0  0  0  0  0  0  0  0  0
    1.0344   -4.0080    0.6092 H   0  0  0  0  0  0  0  0  0  0  0  0
   -0.0626   -1.9270   -0.3630 H   0  0  0  0  0  0  0  0  0  0  0  0
   -0.2014    1.0365    0.5548 O   0  0  0  0  0  0  0  0  0  0  0  0
   -0.2014    1.0365   -0.8697 N   0  0  0  0  0  0  0  0  0  0  0  0
   -0.2014    2.4076   -1.3603 C   0  0  0  0  0  0  0  0  0  0  0  0
   -1.4480    1.6072   -1.3603 C   0  0  0  0  0  0  0  0  0  0  0  0
    0.4059    0.0907    0.7997 H   0  0  0  0  0  0  0  0  0  0  0  0
    0.3596    2.5678   -2.2722 H   0  0  0  0  0  0  0  0  0  0  0  0
   -0.1119    3.1769   -0.6043 H   0  0  0  0  0  0  0  0  0  0  0  0
   -2.1847    1.8461   -0.6043 H   0  0  0  0  0  0  0  0  0  0  0  0
   -1.8272    1.1639   -2.2722 H   0  0  0  0  0  0  0  0  0  0  0  0
  1  2  1  0
  1  4  1  0
  1  5  1  0
  1  6  1  0
  2  3  2  0
  2  7  1  0
  8  9  1  0
  8 12  1  0
  9 10  1  0
  9 11  1  0
 10 11  1  0
 10 13  1  0
 10 14  1  0
 11 15  1  0
 11 16  1  0
M  RAD  1   3   2
M  END
>  <reaction>  (9) 
rmg_rxn_16649

>  <mol_properties>  (9) 
{"1": {"label": "*4", "atom_type": "Cd"}, "2": {"label": "*3", "atom_type": "N3d"}, "7": {"label": "*1", "atom_type": "O2s"}, "8": {"label": "*0", "atom_type": "N3s"}, "11": {"label": "*2", "atom_type": "H0"}}

>  <type>  (9) 
unop_5

>  <geom_source>  (9) 
Heuristics

$$$$

     RDKit          3D

 16 15  0  0  0  0  0  0  0  0999 V2000
    1.6079   -2.5044    2.4141 C   0  0  0  0  0  0  0  0  0  0  0  0
    0.8665   -1.3497    1.8273 C   0  0  0  0  0  0  0  0  0  0  0  0
    0.7627   -1.1880    0.5785 N   0  0  0  0  0  2  0  0  0  0  0  0
    2.4218   -2.1465    3.0498 H   0  0  0  0  0  0  0  0  0  0  0  0
    2.0127   -3.1350    1.6245 H   0  0  0  0  0  0  0  0  0  0  0  0
    0.9437   -3.0955    3.0498 H   0  0  0  0  0  0  0  0  0  0  0  0
    0.4205   -0.6550    2.5506 H   0  0  0  0  0  0  0  0  0  0  0  0
   -0.4893    0.7622    0.0736 O   0  0  0  0  0  0  0  0  0  0  0  0
   -0.4893    0.7622   -1.3509 N   0  0  0  0  0  0  0  0  0  0  0  0
   -0.4893    2.1332   -1.8415 C   0  0  0  0  0  0  0  0  0  0  0  0
   -1.7359    1.3328   -1.8415 C   0  0  0  0  0  0  0  0  0  0  0  0
    0.1179   -0.1837    0.3185 H   0  0  0  0  0  0  0  0  0  0  0  0
    0.0716    2.2934   -2.7534 H   0  0  0  0  0  0  0  0  0  0  0  0
   -0.3998    2.9025   -1.0855 H   0  0  0  0  0  0  0  0  0  0  0  0
   -2.4727    1.5717   -1.0855 H   0  0  0  0  0  0  0  0  0  0  0  0
   -2.1151    0.8895   -2.7534 H   0  0  0  0  0  0  0  0  0  0  0  0
  1  2  1  0
  1  4  1  0
  1  5  1  0
  1  6  1  0
  2  3  2  0
  2  7  1  0
  8  9  1  0
  8 12  1  0
  9 10  1  0
  9 11  1  0
 10 11  1  0
 10 13  1  0
 10 14  1  0
 11 15  1  0
 11 16  1  0
M  RAD  1   3   2
M  END
>  <reaction>  (10) 
rmg_rxn_16649

>  <mol_properties>  (10) 
{"1": {"label": "*4", "atom_type": "Cd"}, "2": {"label": "*3", "atom_type": "N3d"}, "7": {"label": "*1", "atom_type": "O2s"}, "8": {"label": "*0", "atom_type": "N3s"}, "11": {"label": "*2", "atom_type": "H0"}}

>  <type>  (10) 
unop_6

>  <geom_source>  (10) 
Heuristics

$$$$

     RDKit          3D

 16 15  0  0  0  0  0  0  0  0999 V2000
    0.5285   -3.0006    2.0002 C   0  0  0  0  0  0  0  0  0  0  0  0
    0.3375   -1.9737    0.9344 C   0  0  0  0  0  0  0  0  0  0  0  0
    1.0904   -0.9636    0.8378 N   0  0  0  0  0  2  0  0  0  0  0  0
   -0.3737   -3.0820    2.6119 H   0  0  0  0  0  0  0  0  0  0  0  0
    1.3746   -2.7372    2.6325 H   0  0  0  0  0  0  0  0  0  0  0  0
    0.6988   -3.9827    1.5518 H   0  0  0  0  0  0  0  0  0  0  0  0
   -0.4967   -2.1550    0.2445 H   0  0  0  0  0  0  0  0  0  0  0  0
   -0.1617    0.9866    0.3329 O   0  0  0  0  0  0  0  0  0  0  0  0
   -0.1617    0.9866   -1.0916 N   0  0  0  0  0  0  0  0  0  0  0  0
   -0.1617    2.3576   -1.5822 C   0  0  0  0  0  0  0  0  0  0  0  0
   -1.4083    1.5572   -1.5822 C   0  0  0  0  0  0  0  0  0  0  0  0
    0.4456    0.0407    0.5778 H   0  0  0  0  0  0  0  0  0  0  0  0
    0.3993    2.5178   -2.4941 H   0  0  0  0  0  0  0  0  0  0  0  0
   -0.0722    3.1269   -0.8262 H   0  0  0  0  0  0  0  0  0  0  0  0
   -2.1450    1.7961   -0.8262 H   0  0  0  0  0  0  0  0  0  0  0  0
   -1.7875    1.1139   -2.4941 H   0  0  0  0  0  0  0  0  0  0  0  0
  1  2  1  0
  1  4  1  0
  1  5  1  0
  1  6  1  0
  2  3  2  0
  2  7  1  0
  8  9  1  0
  8 12  1  0
  9 10  1  0
  9 11  1  0
 10 11  1  0
 10 13  1  0
 10 14  1  0
 11 15  1  0
 11 16  1  0
M  RAD  1   3   2
M  END
>  <reaction>  (11) 
rmg_rxn_16649

>  <mol_properties>  (11) 
{"1": {"label": "*4", "atom_type": "Cd"}, "2": {"label": "*3", "atom_type": "N3d"}, "7": {"label": "*1", "atom_type": "O2s"}, "8": {"label": "*0", "atom_type": "N3s"}, "11": {"label": "*2", "atom_type": "H0"}}

>  <type>  (11) 
unop_7

>  <geom_source>  (11) 
Heuristics

$$$$

     RDKit          3D

 16 15  0  0  0  0  0  0  0  0999 V2000
    0.8996   -2.6242    2.4909 C   0  0  0  0  0  0  0  0  0  0  0  0
    0.3272   -1.8795    1.3313 C   0  0  0  0  0  0  0  0  0  0  0  0
    1.0150   -1.0604    0.6586 N   0  0  0  0  0  2  0  0  0  0  0  0
    0.3317   -2.4038    3.3984 H   0  0  0  0  0  0  0  0  0  0  0  0
    1.9429   -2.3508    2.6388 H   0  0  0  0  0  0  0  0  0  0  0  0
    0.8243   -3.7014    2.3220 H   0  0  0  0  0  0  0  0  0  0  0  0
   -0.7257   -2.0909    1.1043 H   0  0  0  0  0  0  0  0  0  0  0  0
   -0.2371    0.8898    0.1536 O   0  0  0  0  0  0  0  0  0  0  0  0
   -0.2371    0.8898   -1.2708 N   0  0  0  0  0  0  0  0  0  0  0  0
   -0.2371    2.2608   -1.7614 C   0  0  0  0  0  0  0  0  0  0  0  0
   -1.4837    1.4605   -1.7614 C   0  0  0  0  0  0  0  0  0  0  0  0
    0.3702   -0.0561    0.3985 H   0  0  0  0  0  0  0  0  0  0  0  0
    0.3238    2.4210   -2.6733 H   0  0  0  0  0  0  0  0  0  0  0  0
   -0.1476    3.0301   -1.0055 H   0  0  0  0  0  0  0  0  0  0  0  0
   -2.2205    1.6993   -1.0055 H   0  0  0  0  0  0  0  0  0  0  0  0
   -1.8629    1.0171   -2.6733 H   0  0  0  0  0  0  0  0  0  0  0  0
  1  2  1  0
  1  4  1  0
  1  5  1  0
  1  6  1  0
  2  3  2  0
  2  7  1  0
  8  9  1  0
  8 12  1  0
  9 10  1  0
  9 11  1  0
 10 11  1  0
 10 13  1  0
 10 14  1  0
 11 15  1  0
 11 16  1  0
M  RAD  1   3   2
M  END
>  <reaction>  (12) 
rmg_rxn_16649

>  <mol_properties>  (12) 
{"1": {"label": "*4", "atom_type": "Cd"}, "2": {"label": "*3", "atom_type": "N3d"}, "7": {"label": "*1", "atom_type": "O2s"}, "8": {"label": "*0", "atom_type": "N3s"}, "11": {"label": "*2", "atom_type": "H0"}}

>  <type>  (12) 
unop_8

>  <geom_source>  (12) 
Heuristics

$$$$

     RDKit          3D

 16 15  0  0  0  0  0  0  0  0999 V2000
    2.5083   -1.7295    2.0002 C   0  0  0  0  0  0  0  0  0  0  0  0
    1.6541   -1.1284    0.9344 C   0  0  0  0  0  0  0  0  0  0  0  0
    0.4223   -1.3925    0.8378 N   0  0  0  0  0  2  0  0  0  0  0  0
    3.3305   -2.2932    1.5518 H   0  0  0  0  0  0  0  0  0  0  0  0
    1.9167   -2.3892    2.6325 H   0  0  0  0  0  0  0  0  0  0  0  0
    2.9578   -0.9431    2.6119 H   0  0  0  0  0  0  0  0  0  0  0  0
    2.1662   -0.4454    0.2445 H   0  0  0  0  0  0  0  0  0  0  0  0
   -0.8297    0.5576    0.3329 O   0  0  0  0  0  0  0  0  0  0  0  0
   -0.8297    0.5576   -1.0916 N   0  0  0  0  0  0  0  0  0  0  0  0
   -0.8297    1.9287   -1.5822 C   0  0  0  0  0  0  0  0  0  0  0  0
   -2.0764    1.1283   -1.5822 C   0  0  0  0  0  0  0  0  0  0  0  0
   -0.2225   -0.3882    0.5778 H   0  0  0  0  0  0  0  0  0  0  0  0
   -0.2688    2.0889   -2.4941 H   0  0  0  0  0  0  0  0  0  0  0  0
   -0.7402    2.6980   -0.8262 H   0  0  0  0  0  0  0  0  0  0  0  0
   -2.8131    1.3671   -0.8262 H   0  0  0  0  0  0  0  0  0  0  0  0
   -2.4555    0.6850   -2.4941 H   0  0  0  0  0  0  0  0  0  0  0  0
  1  2  1  0
  1  4  1  0
  1  5  1  0
  1  6  1  0
  2  3  2  0
  2  7  1  0
  8  9  1  0
  8 12  1  0
  9 10  1  0
  9 11  1  0
 10 11  1  0
 10 13  1  0
 10 14  1  0
 11 15  1  0
 11 16  1  0
M  RAD  1   3   2
M  END
>  <reaction>  (13) 
rmg_rxn_16649

>  <mol_properties>  (13) 
{"1": {"label": "*4", "atom_type": "Cd"}, "2": {"label": "*3", "atom_type": "N3d"}, "7": {"label": "*1", "atom_type": "O2s"}, "8": {"label": "*0", "atom_type": "N3s"}, "11": {"label": "*2", "atom_type": "H0"}}

>  <type>  (13) 
unop_9

>  <geom_source>  (13) 
Heuristics

$$$$

     RDKit          3D

 16 15  0  0  0  0  0  0  0  0999 V2000
    2.9272   -0.6658   -0.0029 C   0  0  0  0  0  0  0  0  0  0  0  0
    2.2873    0.6870   -0.0002 C   0  0  0  0  0  0  0  0  0  0  0  0
    1.0783    0.9609    0.0030 N   0  0  0  0  0  2  0  0  0  0  0  0
    3.5610   -0.7685    0.8766 H   0  0  0  0  0  0  0  0  0  0  0  0
    3.5566   -0.7671   -0.8857 H   0  0  0  0  0  0  0  0  0  0  0  0
    2.1664   -1.4424   -0.0015 H   0  0  0  0  0  0  0  0  0  0  0  0
    2.9950    1.5225   -0.0014 H   0  0  0  0  0  0  0  0  0  0  0  0
   -0.3486   -0.9687    0.0045 O   0  0  0  0  0  0  0  0  0  0  0  0
   -1.6303   -0.6682    0.0010 N   0  0  0  0  0  0  0  0  0  0  0  0
   -2.1973    0.4199    0.7437 C   0  0  0  0  0  0  0  0  0  0  0  0
   -2.1941    0.4163   -0.7494 C   0  0  0  0  0  0  0  0  0  0  0  0
    0.3668   -0.0090    0.0042 H   0  0  0  0  0  0  0  0  0  0  0  0
   -1.5176    1.0900    1.2562 H   0  0  0  0  0  0  0  0  0  0  0  0
   -3.1119    0.1947    1.2734 H   0  0  0  0  0  0  0  0  0  0  0  0
   -3.1064    0.1884   -1.2819 H   0  0  0  0  0  0  0  0  0  0  0  0
   -1.5122    1.0838   -1.2623 H   0  0  0  0  0  0  0  0  0  0  0  0
  1  2  1  0
  1  4  1  0
  1  5  1  0
  1  6  1  0
  2  3  2  0
  2  7  1  0
  8  9  1  0
  8 12  1  0
  9 10  1  0
  9 11  1  0
 10 11  1  0
 10 13  1  0
 10 14  1  0
 11 15  1  0
 11 16  1  0
M  RAD  1   3   2
M  END
>  <reaction>  (14) 
rmg_rxn_16649

>  <mol_properties>  (14) 
{"1": {"label": "*4", "atom_type": "Cd"}, "2": {"label": "*3", "atom_type": "N3d"}, "7": {"label": "*1", "atom_type": "O2s"}, "8": {"label": "*0", "atom_type": "N3s"}, "11": {"label": "*2", "atom_type": "H0"}}

>  <type>  (14) 
unop_10

>  <geom_source>  (14) 
Heuristics

$$$$

     RDKit          3D

 16 15  0  0  0  0  0  0  0  0999 V2000
    1.0732   -3.2541    0.5866 C   0  0  0  0  0  0  0  0  0  0  0  0
    0.7564   -1.8158    0.3456 C   0  0  0  0  0  0  0  0  0  0  0  0
    0.8956   -0.9413    1.2468 N   0  0  0  0  0  2  0  0  0  0  0  0
    0.1876   -3.8701    0.4108 H   0  0  0  0  0  0  0  0  0  0  0  0
    1.4209   -3.3992    1.6078 H   0  0  0  0  0  0  0  0  0  0  0  0
    1.8413   -3.5937   -0.1130 H   0  0  0  0  0  0  0  0  0  0  0  0
    0.3964   -1.5714   -0.6621 H   0  0  0  0  0  0  0  0  0  0  0  0
   -0.3564    1.0088    0.7419 O   0  0  0  0  0  0  0  0  0  0  0  0
   -0.3564    1.0088   -0.6826 N   0  0  0  0  0  0  0  0  0  0  0  0
   -0.3564    2.3799   -1.1732 C   0  0  0  0  0  0  0  0  0  0  0  0
   -1.6031    1.5795   -1.1732 C   0  0  0  0  0  0  0  0  0  0  0  0
    0.2508    0.0630    0.9868 H   0  0  0  0  0  0  0  0  0  0  0  0
    0.2045    2.5401   -2.0851 H   0  0  0  0  0  0  0  0  0  0  0  0
   -0.2669    3.1492   -0.4172 H   0  0  0  0  0  0  0  0  0  0  0  0
   -2.3398    1.8184   -0.4172 H   0  0  0  0  0  0  0  0  0  0  0  0
   -1.9822    1.1362   -2.0851 H   0  0  0  0  0  0  0  0  0  0  0  0
  1  2  1  0
  1  4  1  0
  1  5  1  0
  1  6  1  0
  2  3  2  0
  2  7  1  0
  8  9  1  0
  8 12  1  0
  9 10  1  0
  9 11  1  0
 10 11  1  0
 10 13  1  0
 10 14  1  0
 11 15  1  0
 11 16  1  0
M  RAD  1   3   2
M  END
>  <reaction>  (15) 
rmg_rxn_16649

>  <mol_properties>  (15) 
{"1": {"label": "*4", "atom_type": "Cd"}, "2": {"label": "*3", "atom_type": "N3d"}, "7": {"label": "*1", "atom_type": "O2s"}, "8": {"label": "*0", "atom_type": "N3s"}, "11": {"label": "*2", "atom_type": "H0"}}

>  <type>  (15) 
unop_11

>  <geom_source>  (15) 
Heuristics

$$$$

     RDKit          3D

 16 15  0  0  0  0  0  0  0  0999 V2000
    2.7343   -1.8778    1.2654 C   0  0  0  0  0  0  0  0  0  0  0  0
    1.5600   -1.2625    0.5802 C   0  0  0  0  0  0  0  0  0  0  0  0
    0.3934   -1.3356    1.0598 N   0  0  0  0  0  2  0  0  0  0  0  0
    3.2137   -2.6088    0.6092 H   0  0  0  0  0  0  0  0  0  0  0  0
    2.4221   -2.3655    2.1871 H   0  0  0  0  0  0  0  0  0  0  0  0
    3.4825   -1.1138    1.4913 H   0  0  0  0  0  0  0  0  0  0  0  0
    1.7782   -0.7452   -0.3630 H   0  0  0  0  0  0  0  0  0  0  0  0
   -0.8587    0.6146    0.5548 O   0  0  0  0  0  0  0  0  0  0  0  0
   -0.8587    0.6146   -0.8697 N   0  0  0  0  0  0  0  0  0  0  0  0
   -0.8587    1.9856   -1.3603 C   0  0  0  0  0  0  0  0  0  0  0  0
   -2.1053    1.1852   -1.3603 C   0  0  0  0  0  0  0  0  0  0  0  0
   -0.2514   -0.3313    0.7997 H   0  0  0  0  0  0  0  0  0  0  0  0
   -0.2977    2.1458   -2.2722 H   0  0  0  0  0  0  0  0  0  0  0  0
   -0.7692    2.7549   -0.6043 H   0  0  0  0  0  0  0  0  0  0  0  0
   -2.8420    1.4241   -0.6043 H   0  0  0  0  0  0  0  0  0  0  0  0
   -2.4845    0.7419   -2.2722 H   0  0  0  0  0  0  0  0  0  0  0  0
  1  2  1  0
  1  4  1  0
  1  5  1  0
  1  6  1  0
  2  3  2  0
  2  7  1  0
  8  9  1  0
  8 12  1  0
  9 10  1  0
  9 11  1  0
 10 11  1  0
 10 13  1  0
 10 14  1  0
 11 15  1  0
 11 16  1  0
M  RAD  1   3   2
M  END
>  <reaction>  (16) 
rmg_rxn_16649

>  <mol_properties>  (16) 
{"1": {"label": "*4", "atom_type": "Cd"}, "2": {"label": "*3", "atom_type": "N3d"}, "7": {"label": "*1", "atom_type": "O2s"}, "8": {"label": "*0", "atom_type": "N3s"}, "11": {"label": "*2", "atom_type": "H0"}}

>  <type>  (16) 
unop_12

>  <geom_source>  (16) 
Heuristics

$$$$

     RDKit          3D

 16 15  0  0  0  0  0  0  0  0999 V2000
    1.4385   -2.3991    2.5610 C   0  0  0  0  0  0  0  0  0  0  0  0
    0.4957   -1.6587    1.6723 C   0  0  0  0  0  0  0  0  0  0  0  0
    0.8699   -1.1501    0.5779 N   0  0  0  0  0  2  0  0  0  0  0  0
    1.4803   -1.9254    3.5452 H   0  0  0  0  0  0  0  0  0  0  0  0
    2.4351   -2.4183    2.1235 H   0  0  0  0  0  0  0  0  0  0  0  0
    1.0870   -3.4226    2.7150 H   0  0  0  0  0  0  0  0  0  0  0  0
   -0.5386   -1.5867    2.0325 H   0  0  0  0  0  0  0  0  0  0  0  0
   -0.3822    0.8001    0.0729 O   0  0  0  0  0  0  0  0  0  0  0  0
   -0.3822    0.8001   -1.3515 N   0  0  0  0  0  0  0  0  0  0  0  0
   -0.3822    2.1711   -1.8421 C   0  0  0  0  0  0  0  0  0  0  0  0
   -1.6288    1.3707   -1.8421 C   0  0  0  0  0  0  0  0  0  0  0  0
    0.2251   -0.1458    0.3179 H   0  0  0  0  0  0  0  0  0  0  0  0
    0.1788    2.3313   -2.7540 H   0  0  0  0  0  0  0  0  0  0  0  0
   -0.2927    2.9404   -1.0862 H   0  0  0  0  0  0  0  0  0  0  0  0
   -2.3655    1.6096   -1.0862 H   0  0  0  0  0  0  0  0  0  0  0  0
   -2.0080    0.9274   -2.7540 H   0  0  0  0  0  0  0  0  0  0  0  0
  1  2  1  0
  1  4  1  0
  1  5  1  0
  1  6  1  0
  2  3  2  0
  2  7  1  0
  8  9  1  0
  8 12  1  0
  9 10  1  0
  9 11  1  0
 10 11  1  0
 10 13  1  0
 10 14  1  0
 11 15  1  0
 11 16  1  0
M  RAD  1   3   2
M  END
>  <reaction>  (17) 
rmg_rxn_16649

>  <mol_properties>  (17) 
{"1": {"label": "*4", "atom_type": "Cd"}, "2": {"label": "*3", "atom_type": "N3d"}, "7": {"label": "*1", "atom_type": "O2s"}, "8": {"label": "*0", "atom_type": "N3s"}, "11": {"label": "*2", "atom_type": "H0"}}

>  <type>  (17) 
unop_13

>  <geom_source>  (17) 
Heuristics

$$$$

     RDKit          3D

 16 15  0  0  0  0  0  0  0  0999 V2000
    1.8564   -2.8914    0.3031 C   0  0  0  0  0  0  0  0  0  0  0  0
    1.0504   -1.6360    0.2658 C   0  0  0  0  0  0  0  0  0  0  0  0
    0.6753   -1.0518    1.3214 N   0  0  0  0  0  2  0  0  0  0  0  0
    1.3283   -3.6945   -0.2173 H   0  0  0  0  0  0  0  0  0  0  0  0
    2.0471   -3.1885    1.3328 H   0  0  0  0  0  0  0  0  0  0  0  0
    2.8064   -2.7456   -0.2173 H   0  0  0  0  0  0  0  0  0  0  0  0
    0.8074   -1.2575   -0.7354 H   0  0  0  0  0  0  0  0  0  0  0  0
   -0.5768    0.8984    0.8165 O   0  0  0  0  0  0  0  0  0  0  0  0
   -0.5768    0.8984   -0.6080 N   0  0  0  0  0  0  0  0  0  0  0  0
   -0.5768    2.2694   -1.0986 C   0  0  0  0  0  0  0  0  0  0  0  0
   -1.8234    1.4690   -1.0986 C   0  0  0  0  0  0  0  0  0  0  0  0
    0.0305   -0.0475    1.0614 H   0  0  0  0  0  0  0  0  0  0  0  0
   -0.0158    2.4296   -2.0105 H   0  0  0  0  0  0  0  0  0  0  0  0
   -0.4873    3.0387   -0.3426 H   0  0  0  0  0  0  0  0  0  0  0  0
   -2.5601    1.7079   -0.3427 H   0  0  0  0  0  0  0  0  0  0  0  0
   -2.2026    1.0257   -2.0105 H   0  0  0  0  0  0  0  0  0  0  0  0
  1  2  1  0
  1  4  1  0
  1  5  1  0
  1  6  1  0
  2  3  2  0
  2  7  1  0
  8  9  1  0
  8 12  1  0
  9 10  1  0
  9 11  1  0
 10 11  1  0
 10 13  1  0
 10 14  1  0
 11 15  1  0
 11 16  1  0
M  RAD  1   3   2
M  END
>  <reaction>  (18) 
rmg_rxn_16649

>  <mol_properties>  (18) 
{"1": {"label": "*4", "atom_type": "Cd"}, "2": {"label": "*3", "atom_type": "N3d"}, "7": {"label": "*1", "atom_type": "O2s"}, "8": {"label": "*0", "atom_type": "N3s"}, "11": {"label": "*2", "atom_type": "H0"}}

>  <type>  (18) 
unop_14

>  <geom_source>  (18) 
Heuristics

$$$$

     RDKit          3D

 16 15  0  0  0  0  0  0  0  0999 V2000
    2.5121   -2.3302    0.5866 C   0  0  0  0  0  0  0  0  0  0  0  0
    1.3362   -1.4435    0.3456 C   0  0  0  0  0  0  0  0  0  0  0  0
    0.4831   -1.2062    1.2468 N   0  0  0  0  0  2  0  0  0  0  0  0
    2.5012   -3.1700   -0.1130 H   0  0  0  0  0  0  0  0  0  0  0  0
    2.4993   -2.7068    1.6078 H   0  0  0  0  0  0  0  0  0  0  0  0
    3.4409   -1.7815    0.4108 H   0  0  0  0  0  0  0  0  0  0  0  0
    1.2638   -1.0145   -0.6621 H   0  0  0  0  0  0  0  0  0  0  0  0
   -0.7689    0.7440    0.7419 O   0  0  0  0  0  0  0  0  0  0  0  0
   -0.7689    0.7440   -0.6826 N   0  0  0  0  0  0  0  0  0  0  0  0
   -0.7689    2.1150   -1.1732 C   0  0  0  0  0  0  0  0  0  0  0  0
   -2.0156    1.3147   -1.1732 C   0  0  0  0  0  0  0  0  0  0  0  0
   -0.1617   -0.2019    0.9868 H   0  0  0  0  0  0  0  0  0  0  0  0
   -0.2080    2.2753   -2.0851 H   0  0  0  0  0  0  0  0  0  0  0  0
   -0.6794    2.8843   -0.4172 H   0  0  0  0  0  0  0  0  0  0  0  0
   -2.7523    1.5535   -0.4173 H   0  0  0  0  0  0  0  0  0  0  0  0
   -2.3947    0.8713   -2.0851 H   0  0  0  0  0  0  0  0  0  0  0  0
  1  2  1  0
  1  4  1  0
  1  5  1  0
  1  6  1  0
  2  3  2  0
  2  7  1  0
  8  9  1  0
  8 12  1  0
  9 10  1  0
  9 11  1  0
 10 11  1  0
 10 13  1  0
 10 14  1  0
 11 15  1  0
 11 16  1  0
M  RAD  1   3   2
M  END
>  <reaction>  (19) 
rmg_rxn_16649

>  <mol_properties>  (19) 
{"1": {"label": "*4", "atom_type": "Cd"}, "2": {"label": "*3", "atom_type": "N3d"}, "7": {"label": "*1", "atom_type": "O2s"}, "8": {"label": "*0", "atom_type": "N3s"}, "11": {"label": "*2", "atom_type": "H0"}}

>  <type>  (19) 
unop_15

>  <geom_source>  (19) 
gaussian_log

$$$$
