
     RDKit          3D

 18 17  0  0  0  0  0  0  0  0999 V2000
    2.2026   -0.7213   -0.2612 C   0  0  0  0  0  0  0  0  0  0  0  0
    1.5384    0.2638    0.6915 C   0  0  0  0  0  0  0  0  0  0  0  0
    2.2584    1.5946    0.7694 C   0  0  0  0  0  0  0  0  0  0  0  0
    2.2212    2.2185   -0.4893 O   0  0  0  0  0  0  0  0  0  0  0  0
    2.8988    3.4488   -0.5204 C   0  0  0  0  0  0  0  0  0  0  0  0
    2.7981    4.0296   -1.9118 C   0  0  0  0  0  0  0  0  0  0  0  0
    3.2294   -0.9309    0.0486 H   0  0  0  0  0  0  0  0  0  0  0  0
    2.2338   -0.3181   -1.2734 H   0  0  0  0  0  0  0  0  0  0  0  0
    1.6610   -1.6680   -0.2875 H   0  0  0  0  0  0  0  0  0  0  0  0
    1.4990   -0.1566    1.7002 H   0  0  0  0  0  0  0  0  0  0  0  0
    0.5055    0.4455    0.3835 H   0  0  0  0  0  0  0  0  0  0  0  0
    3.3038    1.4410    1.0808 H   0  0  0  0  0  0  0  0  0  0  0  0
    1.7844    2.2410    1.5226 H   0  0  0  0  0  0  0  0  0  0  0  0
    2.4596    4.1376    0.2164 H   0  0  0  0  0  0  0  0  0  0  0  0
    3.9524    3.3035   -0.2397 H   0  0  0  0  0  0  0  0  0  0  0  0
    1.7543    4.1869   -2.1856 H   0  0  0  0  0  0  0  0  0  0  0  0
    3.2472    3.3545   -2.6411 H   0  0  0  0  0  0  0  0  0  0  0  0
    3.3178    4.9878   -1.9600 H   0  0  0  0  0  0  0  0  0  0  0  0
  1  2  1  0
  1  7  1  0
  1  8  1  0
  1  9  1  0
  2  3  1  0
  2 10  1  0
  2 11  1  0
  3  4  1  0
  3 12  1  0
  3 13  1  0
  4  5  1  0
  5  6  1  0
  5 14  1  0
  5 15  1  0
  6 16  1  0
  6 17  1  0
  6 18  1  0
M  END
>  <reaction>  (1) 
rmg_rxn_346

>  <mol_properties>  (1) 
{"2": {"label": "donator", "atom_type": "Cs"}, "11": {"label": "d_hydrogen", "atom_type": "H0"}}

>  <type>  (1) 
r1h

$$$$

     RDKit          3D

  8  7  0  0  0  0  0  0  0  0999 V2000
    1.3778   -0.6812    0.2772 C   0  0  0  0  0  3  0  0  0  0  0  0
    0.4890    0.2108   -0.0590 C   0  0  0  0  0  0  0  0  0  0  0  0
   -1.0010    0.0286   -0.0323 C   0  0  0  0  0  0  0  0  0  0  0  0
    2.4535   -0.7507    0.3287 H   0  0  0  0  0  0  0  0  0  0  0  0
    0.8447    1.1899   -0.3945 H   0  0  0  0  0  0  0  0  0  0  0  0
   -1.4635    0.7638    0.6301 H   0  0  0  0  0  0  0  0  0  0  0  0
   -1.2709   -0.9687    0.3117 H   0  0  0  0  0  0  0  0  0  0  0  0
   -1.4218    0.1801   -1.0289 H   0  0  0  0  0  0  0  0  0  0  0  0
  1  2  2  3
  1  4  1  0
  2  3  1  0
  2  5  1  0
  3  6  1  0
  3  7  1  0
  3  8  1  0
M  RAD  1   1   2
M  END
>  <reaction>  (2) 
rmg_rxn_346

>  <mol_properties>  (2) 
{"0": {"label": "acceptor", "atom_type": "Cd"}}

>  <type>  (2) 
r2

$$$$

     RDKit          3D

  9  8  0  0  0  0  0  0  0  0999 V2000
    1.1303   -0.2933   -0.7510 C   0  0  0  0  0  0  0  0  0  0  0  0
    0.2866    0.4560   -0.0588 C   0  0  0  0  0  0  0  0  0  0  0  0
   -0.9719   -0.0331    0.5823 C   0  0  0  0  0  0  0  0  0  0  0  0
    2.0274    0.1230   -1.1916 H   0  0  0  0  0  0  0  0  0  0  0  0
    0.9532   -1.3530   -0.9023 H   0  0  0  0  0  0  0  0  0  0  0  0
    0.5065    1.5132    0.0659 H   0  0  0  0  0  0  0  0  0  0  0  0
   -0.9526    0.1426    1.6610 H   0  0  0  0  0  0  0  0  0  0  0  0
   -1.1182   -1.1002    0.4106 H   0  0  0  0  0  0  0  0  0  0  0  0
   -1.8412    0.5010    0.1901 H   0  0  0  0  0  0  0  0  0  0  0  0
  1  2  2  3
  1  4  1  0
  1  5  1  0
  2  3  1  0
  2  6  1  0
  3  7  1  0
  3  8  1  0
  3  9  1  0
M  END
>  <reaction>  (3) 
rmg_rxn_346

>  <mol_properties>  (3) 
{"0": {"label": "acceptor", "atom_type": "Cd"}, "8": {"label": "a_hydrogen", "atom_type": "H0"}}

>  <type>  (3) 
r2h

$$$$

     RDKit          3D

 26 24  0  0  0  0  0  0  0  0999 V2000
    1.9415    0.4210    0.1847 C   0  0  0  0  0  3  0  0  0  0  0  0
    1.6169    1.0325   -0.9329 C   0  0  0  0  0  0  0  0  0  0  0  0
    2.5109    1.9322   -1.7373 C   0  0  0  0  0  0  0  0  0  0  0  0
    2.8853    0.4547    0.7195 H   0  0  0  0  0  0  0  0  0  0  0  0
    0.6117    0.8814   -1.3278 H   0  0  0  0  0  0  0  0  0  0  0  0
    2.6385    1.5413   -2.7500 H   0  0  0  0  0  0  0  0  0  0  0  0
    3.4951    2.0309   -1.2788 H   0  0  0  0  0  0  0  0  0  0  0  0
    2.0711    2.9284   -1.8310 H   0  0  0  0  0  0  0  0  0  0  0  0
   -0.0463   -2.3914   -1.0462 C   0  0  0  0  0  0  0  0  0  0  0  0
   -0.1769   -2.3627    0.4718 C   0  0  0  0  0  0  0  0  0  0  0  0
   -0.2272   -0.9701    1.0470 C   0  0  0  0  0  0  0  0  0  0  0  0
   -1.2716   -0.2389    0.5048 O   0  0  0  0  0  0  0  0  0  0  0  0
   -1.4751    1.0152    1.1210 C   0  0  0  0  0  0  0  0  0  0  0  0
   -2.5694    1.7472    0.3813 C   0  0  0  0  0  0  0  0  0  0  0  0
    0.8654   -1.8835   -1.3654 H   0  0  0  0  0  0  0  0  0  0  0  0
   -0.8932   -1.8916   -1.5168 H   0  0  0  0  0  0  0  0  0  0  0  0
   -0.0113   -3.4186   -1.4120 H   0  0  0  0  0  0  0  0  0  0  0  0
    0.6699   -2.8791    0.9317 H   0  0  0  0  0  0  0  0  0  0  0  0
   -1.0794   -2.9026    0.7777 H   0  0  0  0  0  0  0  0  0  0  0  0
    0.8389   -0.3882    0.7542 H   0  0  0  0  0  0  0  0  0  0  0  0
   -0.2517   -0.9634    2.1455 H   0  0  0  0  0  0  0  0  0  0  0  0
   -1.7501    0.8642    2.1740 H   0  0  0  0  0  0  0  0  0  0  0  0
   -0.5409    1.5892    1.1004 H   0  0  0  0  0  0  0  0  0  0  0  0
   -3.4949    1.1704    0.3931 H   0  0  0  0  0  0  0  0  0  0  0  0
   -2.2820    1.9162   -0.6572 H   0  0  0  0  0  0  0  0  0  0  0  0
   -2.7573    2.7145    0.8496 H   0  0  0  0  0  0  0  0  0  0  0  0
  1  2  2  3
  1  4  1  0
  2  3  1  0
  2  5  1  0
  3  6  1  0
  3  7  1  0
  3  8  1  0
  9 10  1  0
  9 15  1  0
  9 16  1  0
  9 17  1  0
 10 11  1  0
 10 18  1  0
 10 19  1  0
 11 12  1  0
 11 20  1  0
 11 21  1  0
 12 13  1  0
 13 14  1  0
 13 22  1  0
 13 23  1  0
 14 24  1  0
 14 25  1  0
 14 26  1  0
M  RAD  1   1   2
M  END
>  <reaction>  (4) 
rmg_rxn_346

>  <mol_properties>  (4) 
{"0": {"label": "*3", "atom_type": "Cd"}, "1": {"label": "*4", "atom_type": "Cd"}, "10": {"label": "*1", "atom_type": "Cs"}, "11": {"label": "*0", "atom_type": "O2s"}, "19": {"label": "*2", "atom_type": "H0"}}

>  <type>  (4) 
ts

$$$$

     RDKit          3D

 26 24  0  0  0  0  0  0  0  0999 V2000
    1.9258    0.2281   -0.0882 C   0  0  0  0  0  0  0  0  0  0  0  0
    1.7892    1.3544   -0.7703 C   0  0  0  0  0  0  0  0  0  0  0  0
    2.5641    2.6087   -0.5244 C   0  0  0  0  0  0  0  0  0  0  0  0
    2.6381    0.1421    0.7255 H   0  0  0  0  0  0  0  0  0  0  0  0
    1.0621    1.3927   -1.5774 H   0  0  0  0  0  0  0  0  0  0  0  0
    3.1235    2.9015   -1.4166 H   0  0  0  0  0  0  0  0  0  0  0  0
    3.2693    2.4867    0.2986 H   0  0  0  0  0  0  0  0  0  0  0  0
    1.8946    3.4386   -0.2840 H   0  0  0  0  0  0  0  0  0  0  0  0
   -0.1544   -2.5095   -1.3491 C   0  0  0  0  0  0  0  0  0  0  0  0
   -0.1544   -2.5095    0.1738 C   0  0  0  0  0  0  0  0  0  0  0  0
   -0.1544   -1.1165    0.7693 C   0  0  0  0  0  3  0  0  0  0  0  0
   -1.3374   -0.4529    0.4017 O   0  0  0  0  0  0  0  0  0  0  0  0
   -1.4081    0.8652    0.8826 C   0  0  0  0  0  0  0  0  0  0  0  0
   -2.7114    1.4830    0.4318 C   0  0  0  0  0  0  0  0  0  0  0  0
    0.7277   -1.9952   -1.7387 H   0  0  0  0  0  0  0  0  0  0  0  0
   -1.0371   -1.9999   -1.7352 H   0  0  0  0  0  0  0  0  0  0  0  0
   -0.1489   -3.5274   -1.7418 H   0  0  0  0  0  0  0  0  0  0  0  0
    0.7271   -3.0360    0.5501 H   0  0  0  0  0  0  0  0  0  0  0  0
   -1.0288   -3.0475    0.5491 H   0  0  0  0  0  0  0  0  0  0  0  0
    0.8946   -0.4384    0.3369 H   0  0  0  0  0  0  0  0  0  0  0  0
   -0.0796   -1.1704    1.8654 H   0  0  0  0  0  0  0  0  0  0  0  0
   -1.3409    0.8680    1.9807 H   0  0  0  0  0  0  0  0  0  0  0  0
   -0.5553    1.4482    0.5048 H   0  0  0  0  0  0  0  0  0  0  0  0
   -3.5578    0.9136    0.8175 H   0  0  0  0  0  0  0  0  0  0  0  0
   -2.7722    1.4948   -0.6570 H   0  0  0  0  0  0  0  0  0  0  0  0
   -2.7890    2.5090    0.7949 H   0  0  0  0  0  0  0  0  0  0  0  0
  1  2  2  3
  1  4  1  0
  1 20  1  0
  2  3  1  0
  2  5  1  0
  3  6  1  0
  3  7  1  0
  3  8  1  0
  9 10  1  0
  9 15  1  0
  9 16  1  0
  9 17  1  0
 10 11  1  0
 10 18  1  0
 10 19  1  0
 11 12  1  0
 11 21  1  0
 12 13  1  0
 13 14  1  0
 13 22  1  0
 13 23  1  0
 14 24  1  0
 14 25  1  0
 14 26  1  0
M  RAD  1  11   2
M  END
>  <reaction>  (5) 
rmg_rxn_346

>  <mol_properties>  (5) 
{"0": {"label": "*3", "atom_type": "Cd"}, "1": {"label": "*4", "atom_type": "Cd"}, "10": {"label": "*1", "atom_type": "Cs"}, "11": {"label": "*0", "atom_type": "O2s"}, "19": {"label": "*2", "atom_type": "H0"}}

>  <type>  (5) 
unop_1

>  <geom_source>  (5) 
Heuristics

$$$$

     RDKit          3D

 26 24  0  0  0  0  0  0  0  0999 V2000
    1.7636    0.5624    0.1413 C   0  0  0  0  0  0  0  0  0  0  0  0
    2.2947    0.3317   -1.0491 C   0  0  0  0  0  0  0  0  0  0  0  0
    3.2102    1.2617   -1.7778 C   0  0  0  0  0  0  0  0  0  0  0  0
    1.9684    1.4790    0.6844 H   0  0  0  0  0  0  0  0  0  0  0  0
    2.0602   -0.6013   -1.5551 H   0  0  0  0  0  0  0  0  0  0  0  0
    4.1713    0.7820   -1.9802 H   0  0  0  0  0  0  0  0  0  0  0  0
    3.3941    2.1710   -1.2041 H   0  0  0  0  0  0  0  0  0  0  0  0
    2.7877    1.5447   -2.7454 H   0  0  0  0  0  0  0  0  0  0  0  0
   -0.3166   -2.1752   -1.1196 C   0  0  0  0  0  0  0  0  0  0  0  0
   -0.3166   -2.1752    0.4033 C   0  0  0  0  0  0  0  0  0  0  0  0
   -0.3166   -0.7822    0.9988 C   0  0  0  0  0  3  0  0  0  0  0  0
   -1.4996   -0.1186    0.6312 O   0  0  0  0  0  0  0  0  0  0  0  0
   -1.5703    1.1995    1.1121 C   0  0  0  0  0  0  0  0  0  0  0  0
   -2.8736    1.8173    0.6613 C   0  0  0  0  0  0  0  0  0  0  0  0
    0.5655   -1.6609   -1.5092 H   0  0  0  0  0  0  0  0  0  0  0  0
   -1.1993   -1.6655   -1.5057 H   0  0  0  0  0  0  0  0  0  0  0  0
   -0.3111   -3.1931   -1.5123 H   0  0  0  0  0  0  0  0  0  0  0  0
    0.5649   -2.7017    0.7796 H   0  0  0  0  0  0  0  0  0  0  0  0
   -1.1910   -2.7132    0.7786 H   0  0  0  0  0  0  0  0  0  0  0  0
    0.7325   -0.1041    0.5664 H   0  0  0  0  0  0  0  0  0  0  0  0
   -0.2418   -0.8361    2.0949 H   0  0  0  0  0  0  0  0  0  0  0  0
   -1.5030    1.2023    2.2102 H   0  0  0  0  0  0  0  0  0  0  0  0
   -0.7174    1.7825    0.7342 H   0  0  0  0  0  0  0  0  0  0  0  0
   -3.7200    1.2479    1.0470 H   0  0  0  0  0  0  0  0  0  0  0  0
   -2.9344    1.8291   -0.4275 H   0  0  0  0  0  0  0  0  0  0  0  0
   -2.9512    2.8433    1.0243 H   0  0  0  0  0  0  0  0  0  0  0  0
  1  2  2  3
  1  4  1  0
  1 20  1  0
  2  3  1  0
  2  5  1  0
  3  6  1  0
  3  7  1  0
  3  8  1  0
  9 10  1  0
  9 15  1  0
  9 16  1  0
  9 17  1  0
 10 11  1  0
 10 18  1  0
 10 19  1  0
 11 12  1  0
 11 21  1  0
 12 13  1  0
 13 14  1  0
 13 22  1  0
 13 23  1  0
 14 24  1  0
 14 25  1  0
 14 26  1  0
M  RAD  1  11   2
M  END
>  <reaction>  (6) 
rmg_rxn_346

>  <mol_properties>  (6) 
{"0": {"label": "*3", "atom_type": "Cd"}, "1": {"label": "*4", "atom_type": "Cd"}, "10": {"label": "*1", "atom_type": "Cs"}, "11": {"label": "*0", "atom_type": "O2s"}, "19": {"label": "*2", "atom_type": "H0"}}

>  <type>  (6) 
unop_2

>  <geom_source>  (6) 
Heuristics

$$$$

     RDKit          3D

 26 24  0  0  0  0  0  0  0  0999 V2000
    1.8600    0.2269   -0.2125 C   0  0  0  0  0  0  0  0  0  0  0  0
    1.8246    1.5428   -0.3517 C   0  0  0  0  0  0  0  0  0  0  0  0
    2.9581    2.4704   -0.0533 C   0  0  0  0  0  0  0  0  0  0  0  0
    2.7508   -0.2811    0.1415 H   0  0  0  0  0  0  0  0  0  0  0  0
    0.9093    2.0070   -0.7099 H   0  0  0  0  0  0  0  0  0  0  0  0
    3.2400    3.0389   -0.9433 H   0  0  0  0  0  0  0  0  0  0  0  0
    3.8356    1.9271    0.2995 H   0  0  0  0  0  0  0  0  0  0  0  0
    2.6738    3.1987    0.7106 H   0  0  0  0  0  0  0  0  0  0  0  0
   -0.2202   -2.5108   -1.4734 C   0  0  0  0  0  0  0  0  0  0  0  0
   -0.2202   -2.5108    0.0495 C   0  0  0  0  0  0  0  0  0  0  0  0
   -0.2202   -1.1178    0.6450 C   0  0  0  0  0  3  0  0  0  0  0  0
   -1.4032   -0.4542    0.2774 O   0  0  0  0  0  0  0  0  0  0  0  0
   -1.4739    0.8639    0.7583 C   0  0  0  0  0  0  0  0  0  0  0  0
   -2.7772    1.4817    0.3075 C   0  0  0  0  0  0  0  0  0  0  0  0
    0.6619   -1.9965   -1.8630 H   0  0  0  0  0  0  0  0  0  0  0  0
   -1.1029   -2.0011   -1.8595 H   0  0  0  0  0  0  0  0  0  0  0  0
   -0.2147   -3.5287   -1.8661 H   0  0  0  0  0  0  0  0  0  0  0  0
    0.6613   -3.0373    0.4258 H   0  0  0  0  0  0  0  0  0  0  0  0
   -1.0946   -3.0488    0.4248 H   0  0  0  0  0  0  0  0  0  0  0  0
    0.8288   -0.4397    0.2126 H   0  0  0  0  0  0  0  0  0  0  0  0
   -0.1454   -1.1717    1.7411 H   0  0  0  0  0  0  0  0  0  0  0  0
   -1.4067    0.8668    1.8564 H   0  0  0  0  0  0  0  0  0  0  0  0
   -0.6211    1.4469    0.3804 H   0  0  0  0  0  0  0  0  0  0  0  0
   -3.6236    0.9123    0.6932 H   0  0  0  0  0  0  0  0  0  0  0  0
   -2.8380    1.4935   -0.7813 H   0  0  0  0  0  0  0  0  0  0  0  0
   -2.8548    2.5077    0.6705 H   0  0  0  0  0  0  0  0  0  0  0  0
  1  2  2  3
  1  4  1  0
  1 20  1  0
  2  3  1  0
  2  5  1  0
  3  6  1  0
  3  7  1  0
  3  8  1  0
  9 10  1  0
  9 15  1  0
  9 16  1  0
  9 17  1  0
 10 11  1  0
 10 18  1  0
 10 19  1  0
 11 12  1  0
 11 21  1  0
 12 13  1  0
 13 14  1  0
 13 22  1  0
 13 23  1  0
 14 24  1  0
 14 25  1  0
 14 26  1  0
M  RAD  1  11   2
M  END
>  <reaction>  (7) 
rmg_rxn_346

>  <mol_properties>  (7) 
{"0": {"label": "*3", "atom_type": "Cd"}, "1": {"label": "*4", "atom_type": "Cd"}, "10": {"label": "*1", "atom_type": "Cs"}, "11": {"label": "*0", "atom_type": "O2s"}, "19": {"label": "*2", "atom_type": "H0"}}

>  <type>  (7) 
unop_3

>  <geom_source>  (7) 
Heuristics

$$$$

     RDKit          3D

 26 24  0  0  0  0  0  0  0  0999 V2000
    1.5778    0.6075   -0.2806 C   0  0  0  0  0  0  0  0  0  0  0  0
    2.8135    0.1918   -0.0516 C   0  0  0  0  0  0  0  0  0  0  0  0
    3.9975    1.0819    0.1493 C   0  0  0  0  0  0  0  0  0  0  0  0
    1.3376    1.6639   -0.3390 H   0  0  0  0  0  0  0  0  0  0  0  0
    3.0056   -0.8769   -0.0017 H   0  0  0  0  0  0  0  0  0  0  0  0
    4.4549    0.9060    1.1263 H   0  0  0  0  0  0  0  0  0  0  0  0
    3.7203    2.1348    0.0842 H   0  0  0  0  0  0  0  0  0  0  0  0
    4.7666    0.8813   -0.6010 H   0  0  0  0  0  0  0  0  0  0  0  0
   -0.5024   -2.1302   -1.5414 C   0  0  0  0  0  0  0  0  0  0  0  0
   -0.5024   -2.1302   -0.0185 C   0  0  0  0  0  0  0  0  0  0  0  0
   -0.5024   -0.7371    0.5770 C   0  0  0  0  0  3  0  0  0  0  0  0
   -1.6854   -0.0735    0.2094 O   0  0  0  0  0  0  0  0  0  0  0  0
   -1.7561    1.2445    0.6903 C   0  0  0  0  0  0  0  0  0  0  0  0
   -3.0594    1.8623    0.2395 C   0  0  0  0  0  0  0  0  0  0  0  0
    0.3797   -1.6159   -1.9310 H   0  0  0  0  0  0  0  0  0  0  0  0
   -1.3851   -1.6205   -1.9275 H   0  0  0  0  0  0  0  0  0  0  0  0
   -0.4969   -3.1481   -1.9341 H   0  0  0  0  0  0  0  0  0  0  0  0
    0.3791   -2.6567    0.3578 H   0  0  0  0  0  0  0  0  0  0  0  0
   -1.3768   -2.6682    0.3568 H   0  0  0  0  0  0  0  0  0  0  0  0
    0.5466   -0.0590    0.1445 H   0  0  0  0  0  0  0  0  0  0  0  0
   -0.4276   -0.7910    1.6730 H   0  0  0  0  0  0  0  0  0  0  0  0
   -1.6889    1.2474    1.7884 H   0  0  0  0  0  0  0  0  0  0  0  0
   -0.9032    1.8275    0.3124 H   0  0  0  0  0  0  0  0  0  0  0  0
   -3.9058    1.2929    0.6251 H   0  0  0  0  0  0  0  0  0  0  0  0
   -3.1202    1.8742   -0.8494 H   0  0  0  0  0  0  0  0  0  0  0  0
   -3.1370    2.8883    0.6025 H   0  0  0  0  0  0  0  0  0  0  0  0
  1  2  2  3
  1  4  1  0
  1 20  1  0
  2  3  1  0
  2  5  1  0
  3  6  1  0
  3  7  1  0
  3  8  1  0
  9 10  1  0
  9 15  1  0
  9 16  1  0
  9 17  1  0
 10 11  1  0
 10 18  1  0
 10 19  1  0
 11 12  1  0
 11 21  1  0
 12 13  1  0
 13 14  1  0
 13 22  1  0
 13 23  1  0
 14 24  1  0
 14 25  1  0
 14 26  1  0
M  RAD  1  11   2
M  END
>  <reaction>  (8) 
rmg_rxn_346

>  <mol_properties>  (8) 
{"0": {"label": "*3", "atom_type": "Cd"}, "1": {"label": "*4", "atom_type": "Cd"}, "10": {"label": "*1", "atom_type": "Cs"}, "11": {"label": "*0", "atom_type": "O2s"}, "19": {"label": "*2", "atom_type": "H0"}}

>  <type>  (8) 
unop_4

>  <geom_source>  (8) 
Heuristics

$$$$

     RDKit          3D

 26 24  0  0  0  0  0  0  0  0999 V2000
    1.8011    0.2523   -0.2354 C   0  0  0  0  0  0  0  0  0  0  0  0
    2.0237    1.5006    0.1449 C   0  0  0  0  0  0  0  0  0  0  0  0
    3.1804    2.3402   -0.2926 C   0  0  0  0  0  0  0  0  0  0  0  0
    2.4723   -0.2601   -0.9166 H   0  0  0  0  0  0  0  0  0  0  0  0
    1.3230    1.9723    0.8291 H   0  0  0  0  0  0  0  0  0  0  0  0
    2.8345    3.2461   -0.7970 H   0  0  0  0  0  0  0  0  0  0  0  0
    3.8332    1.7948   -0.9753 H   0  0  0  0  0  0  0  0  0  0  0  0
    3.7736    2.6631    0.5668 H   0  0  0  0  0  0  0  0  0  0  0  0
   -0.2790   -2.4854   -1.4963 C   0  0  0  0  0  0  0  0  0  0  0  0
   -0.2790   -2.4854    0.0266 C   0  0  0  0  0  0  0  0  0  0  0  0
   -0.2790   -1.0923    0.6221 C   0  0  0  0  0  3  0  0  0  0  0  0
   -1.4620   -0.4287    0.2546 O   0  0  0  0  0  0  0  0  0  0  0  0
   -1.5328    0.8894    0.7354 C   0  0  0  0  0  0  0  0  0  0  0  0
   -2.8361    1.5071    0.2846 C   0  0  0  0  0  0  0  0  0  0  0  0
    0.6030   -1.9710   -1.8859 H   0  0  0  0  0  0  0  0  0  0  0  0
   -1.1618   -1.9757   -1.8823 H   0  0  0  0  0  0  0  0  0  0  0  0
   -0.2736   -3.5032   -1.8889 H   0  0  0  0  0  0  0  0  0  0  0  0
    0.6025   -3.0118    0.4029 H   0  0  0  0  0  0  0  0  0  0  0  0
   -1.1534   -3.0233    0.4019 H   0  0  0  0  0  0  0  0  0  0  0  0
    0.7700   -0.4142    0.1897 H   0  0  0  0  0  0  0  0  0  0  0  0
   -0.2043   -1.1462    1.7182 H   0  0  0  0  0  0  0  0  0  0  0  0
   -1.4655    0.8922    1.8335 H   0  0  0  0  0  0  0  0  0  0  0  0
   -0.6799    1.4723    0.3576 H   0  0  0  0  0  0  0  0  0  0  0  0
   -3.6824    0.9377    0.6703 H   0  0  0  0  0  0  0  0  0  0  0  0
   -2.8969    1.5190   -0.8042 H   0  0  0  0  0  0  0  0  0  0  0  0
   -2.9137    2.5332    0.6477 H   0  0  0  0  0  0  0  0  0  0  0  0
  1  2  2  3
  1  4  1  0
  1 20  1  0
  2  3  1  0
  2  5  1  0
  3  6  1  0
  3  7  1  0
  3  8  1  0
  9 10  1  0
  9 15  1  0
  9 16  1  0
  9 17  1  0
 10 11  1  0
 10 18  1  0
 10 19  1  0
 11 12  1  0
 11 21  1  0
 12 13  1  0
 13 14  1  0
 13 22  1  0
 13 23  1  0
 14 24  1  0
 14 25  1  0
 14 26  1  0
M  RAD  1  11   2
M  END
>  <reaction>  (9) 
rmg_rxn_346

>  <mol_properties>  (9) 
{"0": {"label": "*3", "atom_type": "Cd"}, "1": {"label": "*4", "atom_type": "Cd"}, "10": {"label": "*1", "atom_type": "Cs"}, "11": {"label": "*0", "atom_type": "O2s"}, "19": {"label": "*2", "atom_type": "H0"}}

>  <type>  (9) 
unop_5

>  <geom_source>  (9) 
Heuristics

$$$$

     RDKit          3D

 26 24  0  0  0  0  0  0  0  0999 V2000
    1.6339    0.4848   -0.3769 C   0  0  0  0  0  0  0  0  0  0  0  0
    2.7870    0.4654    0.2729 C   0  0  0  0  0  0  0  0  0  0  0  0
    3.6587    1.6553    0.5145 C   0  0  0  0  0  0  0  0  0  0  0  0
    1.2333    1.4038   -0.7917 H   0  0  0  0  0  0  0  0  0  0  0  0
    3.1478   -0.4796    0.6709 H   0  0  0  0  0  0  0  0  0  0  0  0
    3.8056    1.8189    1.5852 H   0  0  0  0  0  0  0  0  0  0  0  0
    3.2265    2.5600    0.0849 H   0  0  0  0  0  0  0  0  0  0  0  0
    4.6497    1.5065    0.0780 H   0  0  0  0  0  0  0  0  0  0  0  0
   -0.4463   -2.2529   -1.6378 C   0  0  0  0  0  0  0  0  0  0  0  0
   -0.4463   -2.2529   -0.1149 C   0  0  0  0  0  0  0  0  0  0  0  0
   -0.4463   -0.8598    0.4806 C   0  0  0  0  0  3  0  0  0  0  0  0
   -1.6293   -0.1962    0.1130 O   0  0  0  0  0  0  0  0  0  0  0  0
   -1.7000    1.1218    0.5939 C   0  0  0  0  0  0  0  0  0  0  0  0
   -3.0033    1.7396    0.1431 C   0  0  0  0  0  0  0  0  0  0  0  0
    0.4358   -1.7386   -2.0274 H   0  0  0  0  0  0  0  0  0  0  0  0
   -1.3290   -1.7432   -2.0239 H   0  0  0  0  0  0  0  0  0  0  0  0
   -0.4408   -3.2708   -2.0305 H   0  0  0  0  0  0  0  0  0  0  0  0
    0.4352   -2.7794    0.2614 H   0  0  0  0  0  0  0  0  0  0  0  0
   -1.3207   -2.7909    0.2604 H   0  0  0  0  0  0  0  0  0  0  0  0
    0.6027   -0.1817    0.0482 H   0  0  0  0  0  0  0  0  0  0  0  0
   -0.3715   -0.9138    1.5767 H   0  0  0  0  0  0  0  0  0  0  0  0
   -1.6328    1.1247    1.6920 H   0  0  0  0  0  0  0  0  0  0  0  0
   -0.8471    1.7048    0.2160 H   0  0  0  0  0  0  0  0  0  0  0  0
   -3.8497    1.1702    0.5288 H   0  0  0  0  0  0  0  0  0  0  0  0
   -3.0641    1.7515   -0.9457 H   0  0  0  0  0  0  0  0  0  0  0  0
   -3.0809    2.7656    0.5061 H   0  0  0  0  0  0  0  0  0  0  0  0
  1  2  2  3
  1  4  1  0
  1 20  1  0
  2  3  1  0
  2  5  1  0
  3  6  1  0
  3  7  1  0
  3  8  1  0
  9 10  1  0
  9 15  1  0
  9 16  1  0
  9 17  1  0
 10 11  1  0
 10 18  1  0
 10 19  1  0
 11 12  1  0
 11 21  1  0
 12 13  1  0
 13 14  1  0
 13 22  1  0
 13 23  1  0
 14 24  1  0
 14 25  1  0
 14 26  1  0
M  RAD  1  11   2
M  END
>  <reaction>  (10) 
rmg_rxn_346

>  <mol_properties>  (10) 
{"0": {"label": "*3", "atom_type": "Cd"}, "1": {"label": "*4", "atom_type": "Cd"}, "10": {"label": "*1", "atom_type": "Cs"}, "11": {"label": "*0", "atom_type": "O2s"}, "19": {"label": "*2", "atom_type": "H0"}}

>  <type>  (10) 
unop_6

>  <geom_source>  (10) 
Heuristics

$$$$

     RDKit          3D

 26 24  0  0  0  0  0  0  0  0999 V2000
    1.7235    0.3537   -0.3820 C   0  0  0  0  0  0  0  0  0  0  0  0
    2.6322    0.8310    0.4539 C   0  0  0  0  0  0  0  0  0  0  0  0
    3.2049    2.2109    0.4062 C   0  0  0  0  0  0  0  0  0  0  0  0
    1.3212    0.9597   -1.1870 H   0  0  0  0  0  0  0  0  0  0  0  0
    3.0058    0.1861    1.2452 H   0  0  0  0  0  0  0  0  0  0  0  0
    3.0136    2.7439    1.3411 H   0  0  0  0  0  0  0  0  0  0  0  0
    2.7790    2.7911   -0.4134 H   0  0  0  0  0  0  0  0  0  0  0  0
    4.2897    2.1775    0.2771 H   0  0  0  0  0  0  0  0  0  0  0  0
   -0.3567   -2.3840   -1.6428 C   0  0  0  0  0  0  0  0  0  0  0  0
   -0.3567   -2.3840   -0.1199 C   0  0  0  0  0  0  0  0  0  0  0  0
   -0.3567   -0.9909    0.4756 C   0  0  0  0  0  3  0  0  0  0  0  0
   -1.5397   -0.3273    0.1080 O   0  0  0  0  0  0  0  0  0  0  0  0
   -1.6104    0.9908    0.5889 C   0  0  0  0  0  0  0  0  0  0  0  0
   -2.9137    1.6085    0.1381 C   0  0  0  0  0  0  0  0  0  0  0  0
    0.5254   -1.8696   -2.0325 H   0  0  0  0  0  0  0  0  0  0  0  0
   -1.2394   -1.8743   -2.0289 H   0  0  0  0  0  0  0  0  0  0  0  0
   -0.3512   -3.4018   -2.0355 H   0  0  0  0  0  0  0  0  0  0  0  0
    0.5248   -2.9104    0.2563 H   0  0  0  0  0  0  0  0  0  0  0  0
   -1.2311   -2.9219    0.2553 H   0  0  0  0  0  0  0  0  0  0  0  0
    0.6924   -0.3128    0.0431 H   0  0  0  0  0  0  0  0  0  0  0  0
   -0.2819   -1.0448    1.5716 H   0  0  0  0  0  0  0  0  0  0  0  0
   -1.5431    0.9936    1.6870 H   0  0  0  0  0  0  0  0  0  0  0  0
   -0.7575    1.5737    0.2110 H   0  0  0  0  0  0  0  0  0  0  0  0
   -3.7601    1.0391    0.5237 H   0  0  0  0  0  0  0  0  0  0  0  0
   -2.9745    1.6204   -0.9508 H   0  0  0  0  0  0  0  0  0  0  0  0
   -2.9913    2.6346    0.5011 H   0  0  0  0  0  0  0  0  0  0  0  0
  1  2  2  3
  1  4  1  0
  1 20  1  0
  2  3  1  0
  2  5  1  0
  3  6  1  0
  3  7  1  0
  3  8  1  0
  9 10  1  0
  9 15  1  0
  9 16  1  0
  9 17  1  0
 10 11  1  0
 10 18  1  0
 10 19  1  0
 11 12  1  0
 11 21  1  0
 12 13  1  0
 13 14  1  0
 13 22  1  0
 13 23  1  0
 14 24  1  0
 14 25  1  0
 14 26  1  0
M  RAD  1  11   2
M  END
>  <reaction>  (11) 
rmg_rxn_346

>  <mol_properties>  (11) 
{"0": {"label": "*3", "atom_type": "Cd"}, "1": {"label": "*4", "atom_type": "Cd"}, "10": {"label": "*1", "atom_type": "Cs"}, "11": {"label": "*0", "atom_type": "O2s"}, "19": {"label": "*2", "atom_type": "H0"}}

>  <type>  (11) 
unop_7

>  <geom_source>  (11) 
Heuristics

$$$$

     RDKit          3D

 26 24  0  0  0  0  0  0  0  0999 V2000
    1.9298    0.3011    0.0529 C   0  0  0  0  0  0  0  0  0  0  0  0
    1.8759    1.0310   -1.0501 C   0  0  0  0  0  0  0  0  0  0  0  0
    2.4708    2.3928   -1.2107 C   0  0  0  0  0  0  0  0  0  0  0  0
    2.4298    0.6610    0.9459 H   0  0  0  0  0  0  0  0  0  0  0  0
    1.3637    0.6280   -1.9201 H   0  0  0  0  0  0  0  0  0  0  0  0
    3.2044    2.4037   -2.0209 H   0  0  0  0  0  0  0  0  0  0  0  0
    2.9644    2.7227   -0.2957 H   0  0  0  0  0  0  0  0  0  0  0  0
    1.7018    3.1250   -1.4702 H   0  0  0  0  0  0  0  0  0  0  0  0
   -0.1503   -2.4366   -1.2080 C   0  0  0  0  0  0  0  0  0  0  0  0
   -0.1503   -2.4366    0.3149 C   0  0  0  0  0  0  0  0  0  0  0  0
   -0.1503   -1.0436    0.9104 C   0  0  0  0  0  3  0  0  0  0  0  0
   -1.3333   -0.3800    0.5428 O   0  0  0  0  0  0  0  0  0  0  0  0
   -1.4041    0.9381    1.0237 C   0  0  0  0  0  0  0  0  0  0  0  0
   -2.7074    1.5559    0.5729 C   0  0  0  0  0  0  0  0  0  0  0  0
    0.7317   -1.9223   -1.5976 H   0  0  0  0  0  0  0  0  0  0  0  0
   -1.0331   -1.9269   -1.5941 H   0  0  0  0  0  0  0  0  0  0  0  0
   -0.1449   -3.4545   -1.6007 H   0  0  0  0  0  0  0  0  0  0  0  0
    0.7312   -2.9631    0.6912 H   0  0  0  0  0  0  0  0  0  0  0  0
   -1.0247   -2.9746    0.6902 H   0  0  0  0  0  0  0  0  0  0  0  0
    0.8987   -0.3655    0.4779 H   0  0  0  0  0  0  0  0  0  0  0  0
   -0.0756   -1.0975    2.0065 H   0  0  0  0  0  0  0  0  0  0  0  0
   -1.3368    0.9410    2.1218 H   0  0  0  0  0  0  0  0  0  0  0  0
   -0.5512    1.5211    0.6458 H   0  0  0  0  0  0  0  0  0  0  0  0
   -3.5537    0.9865    0.9586 H   0  0  0  0  0  0  0  0  0  0  0  0
   -2.7682    1.5677   -0.5159 H   0  0  0  0  0  0  0  0  0  0  0  0
   -2.7850    2.5819    0.9359 H   0  0  0  0  0  0  0  0  0  0  0  0
  1  2  2  3
  1  4  1  0
  1 20  1  0
  2  3  1  0
  2  5  1  0
  3  6  1  0
  3  7  1  0
  3  8  1  0
  9 10  1  0
  9 15  1  0
  9 16  1  0
  9 17  1  0
 10 11  1  0
 10 18  1  0
 10 19  1  0
 11 12  1  0
 11 21  1  0
 12 13  1  0
 13 14  1  0
 13 22  1  0
 13 23  1  0
 14 24  1  0
 14 25  1  0
 14 26  1  0
M  RAD  1  11   2
M  END
>  <reaction>  (12) 
rmg_rxn_346

>  <mol_properties>  (12) 
{"0": {"label": "*3", "atom_type": "Cd"}, "1": {"label": "*4", "atom_type": "Cd"}, "10": {"label": "*1", "atom_type": "Cs"}, "11": {"label": "*0", "atom_type": "O2s"}, "19": {"label": "*2", "atom_type": "H0"}}

>  <type>  (12) 
unop_8

>  <geom_source>  (12) 
Heuristics

$$$$

     RDKit          3D

 26 24  0  0  0  0  0  0  0  0999 V2000
    1.5822    0.6751   -0.1222 C   0  0  0  0  0  0  0  0  0  0  0  0
    2.7167    0.0697   -0.4362 C   0  0  0  0  0  0  0  0  0  0  0  0
    4.0444    0.7439   -0.5664 C   0  0  0  0  0  0  0  0  0  0  0  0
    1.5440    1.7425    0.0680 H   0  0  0  0  0  0  0  0  0  0  0  0
    2.7055   -1.0019   -0.6180 H   0  0  0  0  0  0  0  0  0  0  0  0
    4.7684    0.3150    0.1312 H   0  0  0  0  0  0  0  0  0  0  0  0
    3.9693    1.8139   -0.3689 H   0  0  0  0  0  0  0  0  0  0  0  0
    4.4532    0.6070   -1.5708 H   0  0  0  0  0  0  0  0  0  0  0  0
   -0.4980   -2.0626   -1.3831 C   0  0  0  0  0  0  0  0  0  0  0  0
   -0.4980   -2.0626    0.1398 C   0  0  0  0  0  0  0  0  0  0  0  0
   -0.4980   -0.6696    0.7354 C   0  0  0  0  0  3  0  0  0  0  0  0
   -1.6810   -0.0060    0.3678 O   0  0  0  0  0  0  0  0  0  0  0  0
   -1.7517    1.3121    0.8487 C   0  0  0  0  0  0  0  0  0  0  0  0
   -3.0550    1.9299    0.3978 C   0  0  0  0  0  0  0  0  0  0  0  0
    0.3841   -1.5483   -1.7727 H   0  0  0  0  0  0  0  0  0  0  0  0
   -1.3807   -1.5529   -1.7691 H   0  0  0  0  0  0  0  0  0  0  0  0
   -0.4925   -3.0805   -1.7757 H   0  0  0  0  0  0  0  0  0  0  0  0
    0.3835   -2.5891    0.5161 H   0  0  0  0  0  0  0  0  0  0  0  0
   -1.3724   -2.6006    0.5151 H   0  0  0  0  0  0  0  0  0  0  0  0
    0.5510    0.0085    0.3029 H   0  0  0  0  0  0  0  0  0  0  0  0
   -0.4232   -0.7235    1.8314 H   0  0  0  0  0  0  0  0  0  0  0  0
   -1.6845    1.3150    1.9467 H   0  0  0  0  0  0  0  0  0  0  0  0
   -0.8988    1.8951    0.4708 H   0  0  0  0  0  0  0  0  0  0  0  0
   -3.9014    1.3605    0.7835 H   0  0  0  0  0  0  0  0  0  0  0  0
   -3.1158    1.9417   -0.6910 H   0  0  0  0  0  0  0  0  0  0  0  0
   -3.1326    2.9559    0.7609 H   0  0  0  0  0  0  0  0  0  0  0  0
  1  2  2  3
  1  4  1  0
  1 20  1  0
  2  3  1  0
  2  5  1  0
  3  6  1  0
  3  7  1  0
  3  8  1  0
  9 10  1  0
  9 15  1  0
  9 16  1  0
  9 17  1  0
 10 11  1  0
 10 18  1  0
 10 19  1  0
 11 12  1  0
 11 21  1  0
 12 13  1  0
 13 14  1  0
 13 22  1  0
 13 23  1  0
 14 24  1  0
 14 25  1  0
 14 26  1  0
M  RAD  1  11   2
M  END
>  <reaction>  (13) 
rmg_rxn_346

>  <mol_properties>  (13) 
{"0": {"label": "*3", "atom_type": "Cd"}, "1": {"label": "*4", "atom_type": "Cd"}, "10": {"label": "*1", "atom_type": "Cs"}, "11": {"label": "*0", "atom_type": "O2s"}, "19": {"label": "*2", "atom_type": "H0"}}

>  <type>  (13) 
unop_9

>  <geom_source>  (13) 
Heuristics

$$$$

     RDKit          3D

 26 24  0  0  0  0  0  0  0  0999 V2000
    1.8693    0.4265    0.1429 C   0  0  0  0  0  0  0  0  0  0  0  0
    2.0598    0.6598   -1.1462 C   0  0  0  0  0  0  0  0  0  0  0  0
    2.7154    1.8778   -1.7126 C   0  0  0  0  0  0  0  0  0  0  0  0
    2.1906    1.1344    0.8997 H   0  0  0  0  0  0  0  0  0  0  0  0
    1.7207   -0.0792   -1.8676 H   0  0  0  0  0  0  0  0  0  0  0  0
    3.5967    1.6076   -2.3000 H   0  0  0  0  0  0  0  0  0  0  0  0
    3.0251    2.5664   -0.9254 H   0  0  0  0  0  0  0  0  0  0  0  0
    2.0364    2.4074   -2.3858 H   0  0  0  0  0  0  0  0  0  0  0  0
   -0.2108   -2.3112   -1.1180 C   0  0  0  0  0  0  0  0  0  0  0  0
   -0.2108   -2.3112    0.4049 C   0  0  0  0  0  0  0  0  0  0  0  0
   -0.2108   -0.9181    1.0004 C   0  0  0  0  0  3  0  0  0  0  0  0
   -1.3938   -0.2545    0.6328 O   0  0  0  0  0  0  0  0  0  0  0  0
   -1.4646    1.0635    1.1137 C   0  0  0  0  0  0  0  0  0  0  0  0
   -2.7679    1.6813    0.6629 C   0  0  0  0  0  0  0  0  0  0  0  0
    0.6712   -1.7969   -1.5076 H   0  0  0  0  0  0  0  0  0  0  0  0
   -1.0936   -1.8015   -1.5041 H   0  0  0  0  0  0  0  0  0  0  0  0
   -0.2054   -3.3291   -1.5107 H   0  0  0  0  0  0  0  0  0  0  0  0
    0.6707   -2.8377    0.7812 H   0  0  0  0  0  0  0  0  0  0  0  0
   -1.0852   -2.8492    0.7802 H   0  0  0  0  0  0  0  0  0  0  0  0
    0.8382   -0.2400    0.5679 H   0  0  0  0  0  0  0  0  0  0  0  0
   -0.1361   -0.9721    2.0965 H   0  0  0  0  0  0  0  0  0  0  0  0
   -1.3973    1.0664    2.2118 H   0  0  0  0  0  0  0  0  0  0  0  0
   -0.6117    1.6465    0.7358 H   0  0  0  0  0  0  0  0  0  0  0  0
   -3.6142    1.1119    1.0486 H   0  0  0  0  0  0  0  0  0  0  0  0
   -2.8287    1.6932   -0.4259 H   0  0  0  0  0  0  0  0  0  0  0  0
   -2.8455    2.7073    1.0259 H   0  0  0  0  0  0  0  0  0  0  0  0
  1  2  2  3
  1  4  1  0
  1 20  1  0
  2  3  1  0
  2  5  1  0
  3  6  1  0
  3  7  1  0
  3  8  1  0
  9 10  1  0
  9 15  1  0
  9 16  1  0
  9 17  1  0
 10 11  1  0
 10 18  1  0
 10 19  1  0
 11 12  1  0
 11 21  1  0
 12 13  1  0
 13 14  1  0
 13 22  1  0
 13 23  1  0
 14 24  1  0
 14 25  1  0
 14 26  1  0
M  RAD  1  11   2
M  END
>  <reaction>  (14) 
rmg_rxn_346

>  <mol_properties>  (14) 
{"0": {"label": "*3", "atom_type": "Cd"}, "1": {"label": "*4", "atom_type": "Cd"}, "10": {"label": "*1", "atom_type": "Cs"}, "11": {"label": "*0", "atom_type": "O2s"}, "19": {"label": "*2", "atom_type": "H0"}}

>  <type>  (14) 
unop_10

>  <geom_source>  (14) 
Heuristics

$$$$

     RDKit          3D

 26 24  0  0  0  0  0  0  0  0999 V2000
    1.7982    0.2652   -0.3022 C   0  0  0  0  0  0  0  0  0  0  0  0
    2.3664    1.2065    0.4350 C   0  0  0  0  0  0  0  0  0  0  0  0
    2.9327    2.4862   -0.0902 C   0  0  0  0  0  0  0  0  0  0  0  0
    1.7044    0.3685   -1.3781 H   0  0  0  0  0  0  0  0  0  0  0  0
    2.4375    1.0582    1.5095 H   0  0  0  0  0  0  0  0  0  0  0  0
    2.4349    3.3470    0.3637 H   0  0  0  0  0  0  0  0  0  0  0  0
    2.8216    2.5566   -1.1730 H   0  0  0  0  0  0  0  0  0  0  0  0
    3.9950    2.5702    0.1531 H   0  0  0  0  0  0  0  0  0  0  0  0
   -0.2819   -2.4725   -1.5631 C   0  0  0  0  0  0  0  0  0  0  0  0
   -0.2819   -2.4725   -0.0402 C   0  0  0  0  0  0  0  0  0  0  0  0
   -0.2819   -1.0794    0.5554 C   0  0  0  0  0  3  0  0  0  0  0  0
   -1.4649   -0.4158    0.1878 O   0  0  0  0  0  0  0  0  0  0  0  0
   -1.5357    0.9022    0.6687 C   0  0  0  0  0  0  0  0  0  0  0  0
   -2.8390    1.5200    0.2178 C   0  0  0  0  0  0  0  0  0  0  0  0
    0.6001   -1.9582   -1.9527 H   0  0  0  0  0  0  0  0  0  0  0  0
   -1.1647   -1.9628   -1.9491 H   0  0  0  0  0  0  0  0  0  0  0  0
   -0.2765   -3.4903   -1.9557 H   0  0  0  0  0  0  0  0  0  0  0  0
    0.5996   -2.9989    0.3361 H   0  0  0  0  0  0  0  0  0  0  0  0
   -1.1563   -3.0105    0.3351 H   0  0  0  0  0  0  0  0  0  0  0  0
    0.7671   -0.4013    0.1229 H   0  0  0  0  0  0  0  0  0  0  0  0
   -0.2072   -1.1333    1.6514 H   0  0  0  0  0  0  0  0  0  0  0  0
   -1.4684    0.9051    1.7667 H   0  0  0  0  0  0  0  0  0  0  0  0
   -0.6828    1.4852    0.2908 H   0  0  0  0  0  0  0  0  0  0  0  0
   -3.6853    0.9506    0.6035 H   0  0  0  0  0  0  0  0  0  0  0  0
   -2.8998    1.5319   -0.8710 H   0  0  0  0  0  0  0  0  0  0  0  0
   -2.9166    2.5460    0.5809 H   0  0  0  0  0  0  0  0  0  0  0  0
  1  2  2  3
  1  4  1  0
  1 20  1  0
  2  3  1  0
  2  5  1  0
  3  6  1  0
  3  7  1  0
  3  8  1  0
  9 10  1  0
  9 15  1  0
  9 16  1  0
  9 17  1  0
 10 11  1  0
 10 18  1  0
 10 19  1  0
 11 12  1  0
 11 21  1  0
 12 13  1  0
 13 14  1  0
 13 22  1  0
 13 23  1  0
 14 24  1  0
 14 25  1  0
 14 26  1  0
M  RAD  1  11   2
M  END
>  <reaction>  (15) 
rmg_rxn_346

>  <mol_properties>  (15) 
{"0": {"label": "*3", "atom_type": "Cd"}, "1": {"label": "*4", "atom_type": "Cd"}, "10": {"label": "*1", "atom_type": "Cs"}, "11": {"label": "*0", "atom_type": "O2s"}, "19": {"label": "*2", "atom_type": "H0"}}

>  <type>  (15) 
unop_11

>  <geom_source>  (15) 
Heuristics

$$$$

     RDKit          3D

 26 24  0  0  0  0  0  0  0  0999 V2000
    1.6524    0.6583    0.0405 C   0  0  0  0  0  0  0  0  0  0  0  0
    2.5291    0.1206   -0.7930 C   0  0  0  0  0  0  0  0  0  0  0  0
    3.7402    0.8116   -1.3316 C   0  0  0  0  0  0  0  0  0  0  0  0
    1.7632    1.6762    0.3994 H   0  0  0  0  0  0  0  0  0  0  0  0
    2.3760   -0.9030   -1.1251 H   0  0  0  0  0  0  0  0  0  0  0  0
    4.6499    0.2701   -1.0597 H   0  0  0  0  0  0  0  0  0  0  0  0
    3.8201    1.8306   -0.9510 H   0  0  0  0  0  0  0  0  0  0  0  0
    3.7109    0.8531   -2.4234 H   0  0  0  0  0  0  0  0  0  0  0  0
   -0.4277   -2.0794   -1.2203 C   0  0  0  0  0  0  0  0  0  0  0  0
   -0.4277   -2.0794    0.3026 C   0  0  0  0  0  0  0  0  0  0  0  0
   -0.4277   -0.6863    0.8981 C   0  0  0  0  0  3  0  0  0  0  0  0
   -1.6107   -0.0227    0.5305 O   0  0  0  0  0  0  0  0  0  0  0  0
   -1.6814    1.2954    1.0114 C   0  0  0  0  0  0  0  0  0  0  0  0
   -2.9848    1.9131    0.5606 C   0  0  0  0  0  0  0  0  0  0  0  0
    0.4543   -1.5650   -1.6100 H   0  0  0  0  0  0  0  0  0  0  0  0
   -1.3104   -1.5697   -1.6064 H   0  0  0  0  0  0  0  0  0  0  0  0
   -0.4222   -3.0972   -1.6130 H   0  0  0  0  0  0  0  0  0  0  0  0
    0.4538   -2.6058    0.6789 H   0  0  0  0  0  0  0  0  0  0  0  0
   -1.3021   -2.6173    0.6778 H   0  0  0  0  0  0  0  0  0  0  0  0
    0.6213   -0.0082    0.4656 H   0  0  0  0  0  0  0  0  0  0  0  0
   -0.3529   -0.7402    1.9941 H   0  0  0  0  0  0  0  0  0  0  0  0
   -1.6142    1.2982    2.1095 H   0  0  0  0  0  0  0  0  0  0  0  0
   -0.8286    1.8783    0.6335 H   0  0  0  0  0  0  0  0  0  0  0  0
   -3.8311    1.3437    0.9462 H   0  0  0  0  0  0  0  0  0  0  0  0
   -3.0456    1.9250   -0.5283 H   0  0  0  0  0  0  0  0  0  0  0  0
   -3.0624    2.9392    0.9236 H   0  0  0  0  0  0  0  0  0  0  0  0
  1  2  2  3
  1  4  1  0
  1 20  1  0
  2  3  1  0
  2  5  1  0
  3  6  1  0
  3  7  1  0
  3  8  1  0
  9 10  1  0
  9 15  1  0
  9 16  1  0
  9 17  1  0
 10 11  1  0
 10 18  1  0
 10 19  1  0
 11 12  1  0
 11 21  1  0
 12 13  1  0
 13 14  1  0
 13 22  1  0
 13 23  1  0
 14 24  1  0
 14 25  1  0
 14 26  1  0
M  RAD  1  11   2
M  END
>  <reaction>  (16) 
rmg_rxn_346

>  <mol_properties>  (16) 
{"0": {"label": "*3", "atom_type": "Cd"}, "1": {"label": "*4", "atom_type": "Cd"}, "10": {"label": "*1", "atom_type": "Cs"}, "11": {"label": "*0", "atom_type": "O2s"}, "19": {"label": "*2", "atom_type": "H0"}}

>  <type>  (16) 
unop_12

>  <geom_source>  (16) 
Heuristics

$$$$

     RDKit          3D

 26 24  0  0  0  0  0  0  0  0999 V2000
   -0.6381   -0.4288   -0.7442 O   0  0  0  0  0  0  0  0  0  0  0  0
   -0.9579    0.8691    1.2830 C   0  0  0  0  0  0  0  0  0  0  0  0
   -1.8887   -0.6349   -1.3663 C   0  0  0  0  0  0  0  0  0  0  0  0
   -0.6486    2.2188    1.9187 C   0  0  0  0  0  0  0  0  0  0  0  0
   -1.9827   -2.0796   -1.8322 C   0  0  0  0  0  0  0  0  0  0  0  0
    3.0371   -0.4278    1.1071 C   0  0  0  0  0  0  0  0  0  0  0  0
    2.7885   -0.5917   -0.3594 C   0  0  0  0  0  0  0  0  0  0  0  0
   -0.5775    0.8728   -0.1962 C   0  0  0  0  0  3  0  0  0  0  0  0
    1.6873   -0.0981   -0.9286 C   0  0  0  0  0  0  0  0  0  0  0  0
   -2.0412    0.6505    1.3947 H   0  0  0  0  0  0  0  0  0  0  0  0
   -0.3794    0.0798    1.8096 H   0  0  0  0  0  0  0  0  0  0  0  0
   -1.9932    0.0266   -2.2559 H   0  0  0  0  0  0  0  0  0  0  0  0
   -2.7279   -0.4421   -0.6599 H   0  0  0  0  0  0  0  0  0  0  0  0
   -1.8938   -2.7654   -0.9630 H   0  0  0  0  0  0  0  0  0  0  0  0
   -1.1688   -2.2998   -2.5552 H   0  0  0  0  0  0  0  0  0  0  0  0
   -2.9613   -2.2516   -2.3282 H   0  0  0  0  0  0  0  0  0  0  0  0
   -0.9154    2.1922    2.9962 H   0  0  0  0  0  0  0  0  0  0  0  0
   -1.2384    3.0212    1.4263 H   0  0  0  0  0  0  0  0  0  0  0  0
    0.4343    2.4489    1.8252 H   0  0  0  0  0  0  0  0  0  0  0  0
    2.2211   -0.9095    1.6863 H   0  0  0  0  0  0  0  0  0  0  0  0
    3.0866    0.6512    1.3652 H   0  0  0  0  0  0  0  0  0  0  0  0
    4.0011   -0.9064    1.3790 H   0  0  0  0  0  0  0  0  0  0  0  0
    3.5154   -1.1202   -0.9689 H   0  0  0  0  0  0  0  0  0  0  0  0
   -1.1308    1.6470   -0.7794 H   0  0  0  0  0  0  0  0  0  0  0  0
    1.5215   -0.2252   -1.9935 H   0  0  0  0  0  0  0  0  0  0  0  0
    0.8511    0.5031   -0.2603 H   0  0  0  0  0  0  0  0  0  0  0  0
  1  3  1  0
  1  8  1  0
  2  4  1  0
  2  8  1  0
  2 10  1  0
  2 11  1  0
  3  5  1  0
  3 12  1  0
  3 13  1  0
  4 17  1  0
  4 18  1  0
  4 19  1  0
  5 14  1  0
  5 15  1  0
  5 16  1  0
  6  7  1  0
  6 20  1  0
  6 21  1  0
  6 22  1  0
  7  9  2  3
  7 23  1  0
  8 24  1  0
  9 25  1  0
  9 26  1  0
M  RAD  1   8   2
M  END
>  <reaction>  (17) 
rmg_rxn_346

>  <mol_properties>  (17) 
{"0": {"label": "*3", "atom_type": "Cd"}, "1": {"label": "*4", "atom_type": "Cd"}, "10": {"label": "*1", "atom_type": "Cs"}, "11": {"label": "*0", "atom_type": "O2s"}, "19": {"label": "*2", "atom_type": "H0"}}

>  <type>  (17) 
unop_13

>  <geom_source>  (17) 
AutoTST

$$$$

     RDKit          3D

 26 24  0  0  0  0  0  0  0  0999 V2000
    1.7636    0.5624    0.1413 C   0  0  0  0  0  0  0  0  0  0  0  0
    2.2947    0.3317   -1.0491 C   0  0  0  0  0  0  0  0  0  0  0  0
    3.2102    1.2617   -1.7778 C   0  0  0  0  0  0  0  0  0  0  0  0
    1.9684    1.4790    0.6844 H   0  0  0  0  0  0  0  0  0  0  0  0
    2.0602   -0.6013   -1.5551 H   0  0  0  0  0  0  0  0  0  0  0  0
    4.1713    0.7821   -1.9802 H   0  0  0  0  0  0  0  0  0  0  0  0
    3.3941    2.1710   -1.2041 H   0  0  0  0  0  0  0  0  0  0  0  0
    2.7877    1.5447   -2.7454 H   0  0  0  0  0  0  0  0  0  0  0  0
   -0.3166   -2.1752   -1.1196 C   0  0  0  0  0  0  0  0  0  0  0  0
   -0.3166   -2.1752    0.4033 C   0  0  0  0  0  0  0  0  0  0  0  0
   -0.3166   -0.7822    0.9988 C   0  0  0  0  0  3  0  0  0  0  0  0
   -1.4996   -0.1186    0.6312 O   0  0  0  0  0  0  0  0  0  0  0  0
   -1.5703    1.1995    1.1121 C   0  0  0  0  0  0  0  0  0  0  0  0
   -2.8736    1.8173    0.6613 C   0  0  0  0  0  0  0  0  0  0  0  0
    0.5655   -1.6609   -1.5092 H   0  0  0  0  0  0  0  0  0  0  0  0
   -1.1993   -1.6656   -1.5057 H   0  0  0  0  0  0  0  0  0  0  0  0
   -0.3111   -3.1931   -1.5123 H   0  0  0  0  0  0  0  0  0  0  0  0
    0.5649   -2.7017    0.7796 H   0  0  0  0  0  0  0  0  0  0  0  0
   -1.1909   -2.7132    0.7786 H   0  0  0  0  0  0  0  0  0  0  0  0
    0.7325   -0.1041    0.5664 H   0  0  0  0  0  0  0  0  0  0  0  0
   -0.2418   -0.8361    2.0949 H   0  0  0  0  0  0  0  0  0  0  0  0
   -1.5030    1.2023    2.2102 H   0  0  0  0  0  0  0  0  0  0  0  0
   -0.7174    1.7825    0.7342 H   0  0  0  0  0  0  0  0  0  0  0  0
   -3.7200    1.2479    1.0470 H   0  0  0  0  0  0  0  0  0  0  0  0
   -2.9344    1.8291   -0.4275 H   0  0  0  0  0  0  0  0  0  0  0  0
   -2.9512    2.8433    1.0243 H   0  0  0  0  0  0  0  0  0  0  0  0
  1  2  2  3
  1  4  1  0
  1 20  1  0
  2  3  1  0
  2  5  1  0
  3  6  1  0
  3  7  1  0
  3  8  1  0
  9 10  1  0
  9 15  1  0
  9 16  1  0
  9 17  1  0
 10 11  1  0
 10 18  1  0
 10 19  1  0
 11 12  1  0
 11 21  1  0
 12 13  1  0
 13 14  1  0
 13 22  1  0
 13 23  1  0
 14 24  1  0
 14 25  1  0
 14 26  1  0
M  RAD  1  11   2
M  END
>  <reaction>  (18) 
rmg_rxn_346

>  <mol_properties>  (18) 
{"0": {"label": "*3", "atom_type": "Cd"}, "1": {"label": "*4", "atom_type": "Cd"}, "10": {"label": "*1", "atom_type": "Cs"}, "11": {"label": "*0", "atom_type": "O2s"}, "19": {"label": "*2", "atom_type": "H0"}}

>  <type>  (18) 
unop_14

>  <geom_source>  (18) 
gaussian_log

$$$$
