
     RDKit          3D

  6  5  0  0  0  0  0  0  0  0999 V2000
   -0.6628   -0.1053   -0.2416 N   0  0  0  0  0  0  0  0  0  0  0  0
    0.6229    0.0313    0.3460 N   0  0  0  0  0  0  0  0  0  0  0  0
   -1.1552    0.7686   -0.1293 H   0  0  0  0  0  0  0  0  0  0  0  0
   -1.2103   -0.8412    0.1876 H   0  0  0  0  0  0  0  0  0  0  0  0
    1.2634   -0.5674   -0.1542 H   0  0  0  0  0  0  0  0  0  0  0  0
    0.6334   -0.2313    1.3241 H   0  0  0  0  0  0  0  0  0  0  0  0
  1  2  1  0
  1  3  1  0
  1  4  1  0
  2  5  1  0
  2  6  1  0
M  END
>  <reaction>  (1) 
rmg_rxn_15590

>  <mol_properties>  (1) 
{"1": {"label": "donator", "atom_type": "N3s"}, "4": {"label": "d_hydrogen", "atom_type": "H0"}}

>  <type>  (1) 
r1h

$$$$

     RDKit          3D

  8  7  0  0  0  0  0  0  0  0999 V2000
    1.7077   -0.1964   -0.0607 C   0  0  0  0  0  3  0  0  0  0  0  0
    0.4209   -0.4565    0.2808 O   0  0  0  0  0  0  0  0  0  0  0  0
   -0.4607    0.4385   -0.2968 N   0  0  0  0  0  0  0  0  0  0  0  0
   -1.6584    0.1416   -0.0244 C   0  0  0  0  0  0  0  0  0  0  0  0
    2.4163   -0.7685    0.5170 H   0  0  0  0  0  0  0  0  0  0  0  0
    1.9214    0.7645   -0.5045 H   0  0  0  0  0  0  0  0  0  0  0  0
   -2.4185    0.7953   -0.4307 H   0  0  0  0  0  0  0  0  0  0  0  0
   -1.9286   -0.7185    0.5831 H   0  0  0  0  0  0  0  0  0  0  0  0
  1  2  1  0
  1  5  1  0
  1  6  1  0
  2  3  1  0
  3  4  2  3
  4  7  1  0
  4  8  1  0
M  RAD  1   1   2
M  END
>  <reaction>  (2) 
rmg_rxn_15590

>  <mol_properties>  (2) 
{"0": {"label": "acceptor", "atom_type": "Cs"}}

>  <type>  (2) 
r2

$$$$

     RDKit          3D

  9  8  0  0  0  0  0  0  0  0999 V2000
   -1.5470   -0.0755   -0.1976 C   0  0  0  0  0  0  0  0  0  0  0  0
   -0.2885    0.4507    0.1749 O   0  0  0  0  0  0  0  0  0  0  0  0
   -0.1502    1.7216   -0.3294 N   0  0  0  0  0  0  0  0  0  0  0  0
    0.9626    2.2353   -0.0219 C   0  0  0  0  0  0  0  0  0  0  0  0
   -1.6392   -0.1356   -1.2844 H   0  0  0  0  0  0  0  0  0  0  0  0
   -2.3597    0.5337    0.2044 H   0  0  0  0  0  0  0  0  0  0  0  0
   -1.5879   -1.0750    0.2318 H   0  0  0  0  0  0  0  0  0  0  0  0
    1.1497    3.2381   -0.3820 H   0  0  0  0  0  0  0  0  0  0  0  0
    1.7060    1.7101    0.5739 H   0  0  0  0  0  0  0  0  0  0  0  0
  1  2  1  0
  1  5  1  0
  1  6  1  0
  1  7  1  0
  2  3  1  0
  3  4  2  3
  4  8  1  0
  4  9  1  0
M  END
>  <reaction>  (3) 
rmg_rxn_15590

>  <mol_properties>  (3) 
{"0": {"label": "a_hydrogen", "atom_type": "H0"}, "1": {"label": "acceptor", "atom_type": "Cs"}}

>  <type>  (3) 
r2h

$$$$

     RDKit          3D

 14 12  0  0  0  0  0  0  0  0999 V2000
   -2.1091    0.9525    0.3184 N   0  0  0  0  0  0  0  0  0  0  0  0
   -1.9906   -0.1075   -0.5819 N   0  0  0  0  0  0  0  0  0  0  0  0
   -2.6700    0.6562    1.1030 H   0  0  0  0  0  0  0  0  0  0  0  0
   -1.2115    1.2976    0.6470 H   0  0  0  0  0  0  0  0  0  0  0  0
   -1.1716   -0.8786   -0.1898 H   0  0  0  0  0  0  0  0  0  0  0  0
   -1.5341    0.2708   -1.4088 H   0  0  0  0  0  0  0  0  0  0  0  0
    0.0202   -1.4770    0.3419 C   0  0  0  0  0  3  0  0  0  0  0  0
    1.1310   -0.8246   -0.1738 O   0  0  0  0  0  0  0  0  0  0  0  0
    1.1571    0.4927    0.2271 N   0  0  0  0  0  0  0  0  0  0  0  0
    2.1643    1.1040   -0.2309 C   0  0  0  0  0  0  0  0  0  0  0  0
    0.0543   -2.5131    0.0200 H   0  0  0  0  0  0  0  0  0  0  0  0
   -0.1131   -1.3255    1.4141 H   0  0  0  0  0  0  0  0  0  0  0  0
    2.2616    2.1471    0.0385 H   0  0  0  0  0  0  0  0  0  0  0  0
    2.9046    0.6198   -0.8632 H   0  0  0  0  0  0  0  0  0  0  0  0
  1  2  1  0
  1  3  1  0
  1  4  1  0
  2  5  1  0
  2  6  1  0
  7  8  1  0
  7 11  1  0
  7 12  1  0
  8  9  1  0
  9 10  2  3
 10 13  1  0
 10 14  1  0
M  RAD  1   7   2
M  END
>  <reaction>  (4) 
rmg_rxn_15590

>  <mol_properties>  (4) 
{"0": {"label": "*0", "atom_type": "N3s"}, "1": {"label": "*1", "atom_type": "N3s"}, "4": {"label": "*2", "atom_type": "H0"}, "6": {"label": "*3", "atom_type": "Cs"}, "7": {"label": "*4", "atom_type": "O2s"}}

>  <type>  (4) 
ts

$$$$

     RDKit          3D

 14 12  0  0  0  0  0  0  0  0999 V2000
    2.0356   -0.6919   -0.5320 N   0  0  0  0  0  0  0  0  0  0  0  0
    1.9039    0.1538    0.5328 N   0  0  0  0  0  0  0  0  0  0  0  0
    1.3245   -1.4138   -0.5076 H   0  0  0  0  0  0  0  0  0  0  0  0
    2.1236   -0.2720   -1.4568 H   0  0  0  0  0  0  0  0  0  0  0  0
    0.7983    0.7859    0.5455 H   0  0  0  0  0  0  0  0  0  0  0  0
    2.6128    0.8823    0.4595 H   0  0  0  0  0  0  0  0  0  0  0  0
   -0.3320    1.3861    0.3768 C   0  0  0  0  0  3  0  0  0  0  0  0
   -1.0623    0.7125   -0.6143 O   0  0  0  0  0  0  0  0  0  0  0  0
   -1.5486   -0.5259   -0.3907 N   0  0  0  0  0  0  0  0  0  0  0  0
   -1.3245   -1.1624    0.6761 C   0  0  0  0  0  0  0  0  0  0  0  0
   -0.1485    2.3813   -0.0145 H   0  0  0  0  0  0  0  0  0  0  0  0
   -0.8375    1.4121    1.3425 H   0  0  0  0  0  0  0  0  0  0  0  0
   -1.7729   -2.1391    0.7353 H   0  0  0  0  0  0  0  0  0  0  0  0
   -0.7234   -0.8281    1.5171 H   0  0  0  0  0  0  0  0  0  0  0  0
  1  2  1  0
  1  3  1  0
  1  4  1  0
  2  5  1  0
  2  6  1  0
  7  8  1  0
  7 11  1  0
  7 12  1  0
  8  9  1  0
  9 10  2  3
 10 13  1  0
 10 14  1  0
M  RAD  1   7   2
M  END
>  <reaction>  (5) 
rmg_rxn_15590

>  <mol_properties>  (5) 
{"0": {"label": "*0", "atom_type": "N3s"}, "1": {"label": "*1", "atom_type": "N3s"}, "4": {"label": "*2", "atom_type": "H0"}, "6": {"label": "*3", "atom_type": "Cs"}, "7": {"label": "*4", "atom_type": "O2s"}}

>  <type>  (5) 
unop_1

>  <geom_source>  (5) 
crest_best.xyz

$$$$

     RDKit          3D

 14 12  0  0  0  0  0  0  0  0999 V2000
    0.6407   -1.9003   -2.5058 N   0  0  0  0  0  0  0  0  0  0  0  0
    0.6407   -1.9003   -1.0857 N   0  0  0  0  0  0  0  0  0  0  0  0
    0.1597   -2.7297   -2.8212 H   0  0  0  0  0  0  0  0  0  0  0  0
    1.5759   -1.9026   -2.8947 H   0  0  0  0  0  0  0  0  0  0  0  0
    0.6407   -0.7498   -0.7072 H   0  0  0  0  0  0  0  0  0  0  0  0
    1.4508   -2.3676   -0.6968 H   0  0  0  0  0  0  0  0  0  0  0  0
    0.6407    0.4912   -0.2991 C   0  0  0  0  0  3  0  0  0  0  0  0
   -0.5380    0.6428    0.4672 O   0  0  0  0  0  0  0  0  0  0  0  0
   -0.2883    1.4584    1.5447 N   0  0  0  0  0  0  0  0  0  0  0  0
   -1.3153    1.6243    2.2619 C   0  0  0  0  0  0  0  0  0  0  0  0
    0.9843    1.4548   -0.6821 H   0  0  0  0  0  0  0  0  0  0  0  0
    1.4345    0.0295    0.2924 H   0  0  0  0  0  0  0  0  0  0  0  0
   -1.2015    2.2558    3.1329 H   0  0  0  0  0  0  0  0  0  0  0  0
   -2.2730    1.1632    2.0300 H   0  0  0  0  0  0  0  0  0  0  0  0
  1  2  1  0
  1  3  1  0
  1  4  1  0
  2  5  1  0
  2  6  1  0
  7  8  1  0
  7 11  1  0
  7 12  1  0
  8  9  1  0
  9 10  2  3
 10 13  1  0
 10 14  1  0
M  RAD  1   7   2
M  END
>  <reaction>  (6) 
rmg_rxn_15590

>  <mol_properties>  (6) 
{"0": {"label": "*0", "atom_type": "N3s"}, "1": {"label": "*1", "atom_type": "N3s"}, "4": {"label": "*2", "atom_type": "H0"}, "6": {"label": "*3", "atom_type": "Cs"}, "7": {"label": "*4", "atom_type": "O2s"}}

>  <type>  (6) 
unop_2

>  <geom_source>  (6) 
Heuristics

$$$$

     RDKit          3D

 14 12  0  0  0  0  0  0  0  0999 V2000
    0.5458   -2.3913   -1.2170 N   0  0  0  0  0  0  0  0  0  0  0  0
    0.5458   -2.3913    0.2031 N   0  0  0  0  0  0  0  0  0  0  0  0
    0.0648   -3.2207   -1.5324 H   0  0  0  0  0  0  0  0  0  0  0  0
    1.4810   -2.3935   -1.6059 H   0  0  0  0  0  0  0  0  0  0  0  0
    0.5458   -1.2407    0.5816 H   0  0  0  0  0  0  0  0  0  0  0  0
    1.3559   -2.8585    0.5920 H   0  0  0  0  0  0  0  0  0  0  0  0
    0.5458    0.0003    0.9897 C   0  0  0  0  0  3  0  0  0  0  0  0
   -0.1347    0.7327   -0.0103 O   0  0  0  0  0  0  0  0  0  0  0  0
   -0.5473    1.9402    0.5001 N   0  0  0  0  0  0  0  0  0  0  0  0
   -1.1625    2.6329   -0.3592 C   0  0  0  0  0  0  0  0  0  0  0  0
    1.4324    0.5383    1.3329 H   0  0  0  0  0  0  0  0  0  0  0  0
   -0.1097   -0.2028    1.8396 H   0  0  0  0  0  0  0  0  0  0  0  0
   -1.5212    3.6007   -0.0352 H   0  0  0  0  0  0  0  0  0  0  0  0
   -1.3318    2.2889   -1.3773 H   0  0  0  0  0  0  0  0  0  0  0  0
  1  2  1  0
  1  3  1  0
  1  4  1  0
  2  5  1  0
  2  6  1  0
  7  8  1  0
  7 11  1  0
  7 12  1  0
  8  9  1  0
  9 10  2  3
 10 13  1  0
 10 14  1  0
M  RAD  1   7   2
M  END
>  <reaction>  (7) 
rmg_rxn_15590

>  <mol_properties>  (7) 
{"0": {"label": "*0", "atom_type": "N3s"}, "1": {"label": "*1", "atom_type": "N3s"}, "4": {"label": "*2", "atom_type": "H0"}, "6": {"label": "*3", "atom_type": "Cs"}, "7": {"label": "*4", "atom_type": "O2s"}}

>  <type>  (7) 
unop_3

>  <geom_source>  (7) 
Heuristics

$$$$

     RDKit          3D

 14 12  0  0  0  0  0  0  0  0999 V2000
    0.2716   -1.8823   -2.6998 N   0  0  0  0  0  0  0  0  0  0  0  0
    0.2716   -1.8823   -1.2796 N   0  0  0  0  0  0  0  0  0  0  0  0
   -0.2095   -2.7116   -3.0152 H   0  0  0  0  0  0  0  0  0  0  0  0
    1.2067   -1.8845   -3.0887 H   0  0  0  0  0  0  0  0  0  0  0  0
    0.2716   -0.7317   -0.9012 H   0  0  0  0  0  0  0  0  0  0  0  0
    1.0816   -2.3495   -0.8908 H   0  0  0  0  0  0  0  0  0  0  0  0
    0.2716    0.5093   -0.4931 C   0  0  0  0  0  3  0  0  0  0  0  0
   -0.4090    0.5052    0.7464 O   0  0  0  0  0  0  0  0  0  0  0  0
    0.0179    1.5632    1.5127 N   0  0  0  0  0  0  0  0  0  0  0  0
   -0.5637    1.6019    2.6338 C   0  0  0  0  0  0  0  0  0  0  0  0
    0.0670    1.4276   -1.0481 H   0  0  0  0  0  0  0  0  0  0  0  0
    1.3490    0.4031   -0.3476 H   0  0  0  0  0  0  0  0  0  0  0  0
   -0.2826    2.4080    3.2983 H   0  0  0  0  0  0  0  0  0  0  0  0
   -1.3114    0.8700    2.9318 H   0  0  0  0  0  0  0  0  0  0  0  0
  1  2  1  0
  1  3  1  0
  1  4  1  0
  2  5  1  0
  2  6  1  0
  7  8  1  0
  7 11  1  0
  7 12  1  0
  8  9  1  0
  9 10  2  3
 10 13  1  0
 10 14  1  0
M  RAD  1   7   2
M  END
>  <reaction>  (8) 
rmg_rxn_15590

>  <mol_properties>  (8) 
{"0": {"label": "*0", "atom_type": "N3s"}, "1": {"label": "*1", "atom_type": "N3s"}, "4": {"label": "*2", "atom_type": "H0"}, "6": {"label": "*3", "atom_type": "Cs"}, "7": {"label": "*4", "atom_type": "O2s"}}

>  <type>  (8) 
unop_4

>  <geom_source>  (8) 
Heuristics

$$$$

     RDKit          3D

 14 12  0  0  0  0  0  0  0  0999 V2000
   -0.9040   -2.2139   -1.6274 N   0  0  0  0  0  0  0  0  0  0  0  0
   -0.9040   -2.2139   -0.2073 N   0  0  0  0  0  0  0  0  0  0  0  0
   -1.3851   -3.0433   -1.9428 H   0  0  0  0  0  0  0  0  0  0  0  0
    0.0311   -2.2162   -2.0163 H   0  0  0  0  0  0  0  0  0  0  0  0
   -0.9040   -1.0634    0.1712 H   0  0  0  0  0  0  0  0  0  0  0  0
   -0.0940   -2.6812    0.1816 H   0  0  0  0  0  0  0  0  0  0  0  0
   -0.9040    0.1776    0.5793 C   0  0  0  0  0  3  0  0  0  0  0  0
    0.2747    0.7544    0.0526 O   0  0  0  0  0  0  0  0  0  0  0  0
    0.7444    1.7167    0.9141 N   0  0  0  0  0  0  0  0  0  0  0  0
    1.8002    2.2626    0.4852 C   0  0  0  0  0  0  0  0  0  0  0  0
   -0.7083   -0.3019    1.5411 H   0  0  0  0  0  0  0  0  0  0  0  0
   -1.6872    0.9296    0.6991 H   0  0  0  0  0  0  0  0  0  0  0  0
    2.2347    3.0335    1.1075 H   0  0  0  0  0  0  0  0  0  0  0  0
    2.2620    1.9839   -0.4595 H   0  0  0  0  0  0  0  0  0  0  0  0
  1  2  1  0
  1  3  1  0
  1  4  1  0
  2  5  1  0
  2  6  1  0
  7  8  1  0
  7 11  1  0
  7 12  1  0
  8  9  1  0
  9 10  2  3
 10 13  1  0
 10 14  1  0
M  RAD  1   7   2
M  END
>  <reaction>  (9) 
rmg_rxn_15590

>  <mol_properties>  (9) 
{"0": {"label": "*0", "atom_type": "N3s"}, "1": {"label": "*1", "atom_type": "N3s"}, "4": {"label": "*2", "atom_type": "H0"}, "6": {"label": "*3", "atom_type": "Cs"}, "7": {"label": "*4", "atom_type": "O2s"}}

>  <type>  (9) 
unop_5

>  <geom_source>  (9) 
Heuristics

$$$$

     RDKit          3D

 14 12  0  0  0  0  0  0  0  0999 V2000
   -0.0141   -1.9168   -2.7272 N   0  0  0  0  0  0  0  0  0  0  0  0
   -0.0141   -1.9168   -1.3070 N   0  0  0  0  0  0  0  0  0  0  0  0
   -0.4952   -2.7462   -3.0425 H   0  0  0  0  0  0  0  0  0  0  0  0
    0.9210   -1.9191   -3.1160 H   0  0  0  0  0  0  0  0  0  0  0  0
   -0.0141   -0.7662   -0.9285 H   0  0  0  0  0  0  0  0  0  0  0  0
    0.7959   -2.3840   -0.9181 H   0  0  0  0  0  0  0  0  0  0  0  0
   -0.0141    0.4747   -0.5204 C   0  0  0  0  0  3  0  0  0  0  0  0
   -0.0141    0.4137    0.8923 O   0  0  0  0  0  0  0  0  0  0  0  0
   -0.0142    1.6864    1.4109 N   0  0  0  0  0  0  0  0  0  0  0  0
   -0.0141    1.6835    2.6745 C   0  0  0  0  0  0  0  0  0  0  0  0
   -0.9063    0.9857   -0.8894 H   0  0  0  0  0  0  0  0  0  0  0  0
    0.8780    0.9857   -0.8894 H   0  0  0  0  0  0  0  0  0  0  0  0
   -0.0142    2.6495    3.1615 H   0  0  0  0  0  0  0  0  0  0  0  0
   -0.0141    0.7658    3.2586 H   0  0  0  0  0  0  0  0  0  0  0  0
  1  2  1  0
  1  3  1  0
  1  4  1  0
  2  5  1  0
  2  6  1  0
  7  8  1  0
  7 11  1  0
  7 12  1  0
  8  9  1  0
  9 10  2  3
 10 13  1  0
 10 14  1  0
M  RAD  1   7   2
M  END
>  <reaction>  (10) 
rmg_rxn_15590

>  <mol_properties>  (10) 
{"0": {"label": "*0", "atom_type": "N3s"}, "1": {"label": "*1", "atom_type": "N3s"}, "4": {"label": "*2", "atom_type": "H0"}, "6": {"label": "*3", "atom_type": "Cs"}, "7": {"label": "*4", "atom_type": "O2s"}}

>  <type>  (10) 
unop_6

>  <geom_source>  (10) 
Heuristics

$$$$

     RDKit          3D

 14 12  0  0  0  0  0  0  0  0999 V2000
   -0.9205   -2.0260   -2.1122 N   0  0  0  0  0  0  0  0  0  0  0  0
   -0.9205   -2.0260   -0.6920 N   0  0  0  0  0  0  0  0  0  0  0  0
   -1.4015   -2.8554   -2.4275 H   0  0  0  0  0  0  0  0  0  0  0  0
    0.0147   -2.0282   -2.5010 H   0  0  0  0  0  0  0  0  0  0  0  0
   -0.9205   -0.8754   -0.3136 H   0  0  0  0  0  0  0  0  0  0  0  0
   -0.1104   -2.4932   -0.3031 H   0  0  0  0  0  0  0  0  0  0  0  0
   -0.9205    0.3655    0.0946 C   0  0  0  0  0  3  0  0  0  0  0  0
    0.4406    0.7297    0.2144 O   0  0  0  0  0  0  0  0  0  0  0  0
    0.6119    1.5234    1.3232 N   0  0  0  0  0  0  0  0  0  0  0  0
    1.8161    1.8755    1.4729 C   0  0  0  0  0  0  0  0  0  0  0  0
   -1.2509   -0.2032    0.9666 H   0  0  0  0  0  0  0  0  0  0  0  0
   -1.5520    1.2486   -0.0260 H   0  0  0  0  0  0  0  0  0  0  0  0
    2.0351    2.5040    2.3258 H   0  0  0  0  0  0  0  0  0  0  0  0
    2.6052    1.5713    0.7886 H   0  0  0  0  0  0  0  0  0  0  0  0
  1  2  1  0
  1  3  1  0
  1  4  1  0
  2  5  1  0
  2  6  1  0
  7  8  1  0
  7 11  1  0
  7 12  1  0
  8  9  1  0
  9 10  2  3
 10 13  1  0
 10 14  1  0
M  RAD  1   7   2
M  END
>  <reaction>  (11) 
rmg_rxn_15590

>  <mol_properties>  (11) 
{"0": {"label": "*0", "atom_type": "N3s"}, "1": {"label": "*1", "atom_type": "N3s"}, "4": {"label": "*2", "atom_type": "H0"}, "6": {"label": "*3", "atom_type": "Cs"}, "7": {"label": "*4", "atom_type": "O2s"}}

>  <type>  (11) 
unop_7

>  <geom_source>  (11) 
Heuristics

$$$$

     RDKit          3D

 14 12  0  0  0  0  0  0  0  0999 V2000
   -2.0541    1.0086    0.2608 N   0  0  0  0  0  0  0  0  0  0  0  0
   -2.0057   -0.1454   -0.4704 N   0  0  0  0  0  0  0  0  0  0  0  0
   -2.2997    0.8045    1.2224 H   0  0  0  0  0  0  0  0  0  0  0  0
   -1.2422    1.6229    0.1979 H   0  0  0  0  0  0  0  0  0  0  0  0
   -1.0917   -0.9416   -0.0806 H   0  0  0  0  0  0  0  0  0  0  0  0
   -1.7307    0.0896   -1.4238 H   0  0  0  0  0  0  0  0  0  0  0  0
   -0.0231   -1.5484    0.3148 C   0  0  0  0  0  3  0  0  0  0  0  0
    1.0994   -0.8672   -0.1806 O   0  0  0  0  0  0  0  0  0  0  0  0
    1.1087    0.4559    0.2149 N   0  0  0  0  0  0  0  0  0  0  0  0
    2.1129    1.1336   -0.1356 C   0  0  0  0  0  0  0  0  0  0  0  0
    0.0006   -2.5423   -0.1165 H   0  0  0  0  0  0  0  0  0  0  0  0
   -0.0531   -1.5629    1.4043 H   0  0  0  0  0  0  0  0  0  0  0  0
    2.1273    2.1663    0.1661 H   0  0  0  0  0  0  0  0  0  0  0  0
    2.9447    0.7409   -0.7121 H   0  0  0  0  0  0  0  0  0  0  0  0
  1  2  1  0
  1  3  1  0
  1  4  1  0
  2  5  1  0
  2  6  1  0
  7  8  1  0
  7 11  1  0
  7 12  1  0
  8  9  1  0
  9 10  2  3
 10 13  1  0
 10 14  1  0
M  RAD  1   7   2
M  END
>  <reaction>  (12) 
rmg_rxn_15590

>  <mol_properties>  (12) 
{"0": {"label": "*0", "atom_type": "N3s"}, "1": {"label": "*1", "atom_type": "N3s"}, "4": {"label": "*2", "atom_type": "H0"}, "6": {"label": "*3", "atom_type": "Cs"}, "7": {"label": "*4", "atom_type": "O2s"}}

>  <type>  (12) 
unop_8

>  <geom_source>  (12) 
Heuristics

$$$$

     RDKit          3D

 14 12  0  0  0  0  0  0  0  0999 V2000
   -0.6690   -1.9003   -2.5059 N   0  0  0  0  0  0  0  0  0  0  0  0
   -0.6690   -1.9003   -1.0857 N   0  0  0  0  0  0  0  0  0  0  0  0
   -1.1501   -2.7297   -2.8212 H   0  0  0  0  0  0  0  0  0  0  0  0
    0.2661   -1.9026   -2.8947 H   0  0  0  0  0  0  0  0  0  0  0  0
   -0.6690   -0.7498   -0.7072 H   0  0  0  0  0  0  0  0  0  0  0  0
    0.1410   -2.3676   -0.6968 H   0  0  0  0  0  0  0  0  0  0  0  0
   -0.6690    0.4912   -0.2991 C   0  0  0  0  0  3  0  0  0  0  0  0
    0.5097    0.6428    0.4672 O   0  0  0  0  0  0  0  0  0  0  0  0
    0.2600    1.4584    1.5447 N   0  0  0  0  0  0  0  0  0  0  0  0
    1.2870    1.6243    2.2619 C   0  0  0  0  0  0  0  0  0  0  0  0
   -1.4628    0.0295    0.2924 H   0  0  0  0  0  0  0  0  0  0  0  0
   -1.0126    1.4548   -0.6821 H   0  0  0  0  0  0  0  0  0  0  0  0
    1.1732    2.2558    3.1329 H   0  0  0  0  0  0  0  0  0  0  0  0
    2.2447    1.1633    2.0300 H   0  0  0  0  0  0  0  0  0  0  0  0
  1  2  1  0
  1  3  1  0
  1  4  1  0
  2  5  1  0
  2  6  1  0
  7  8  1  0
  7 11  1  0
  7 12  1  0
  8  9  1  0
  9 10  2  3
 10 13  1  0
 10 14  1  0
M  RAD  1   7   2
M  END
>  <reaction>  (13) 
rmg_rxn_15590

>  <mol_properties>  (13) 
{"0": {"label": "*0", "atom_type": "N3s"}, "1": {"label": "*1", "atom_type": "N3s"}, "4": {"label": "*2", "atom_type": "H0"}, "6": {"label": "*3", "atom_type": "Cs"}, "7": {"label": "*4", "atom_type": "O2s"}}

>  <type>  (13) 
unop_9

>  <geom_source>  (13) 
Heuristics

$$$$

     RDKit          3D

 14 12  0  0  0  0  0  0  0  0999 V2000
    0.8922   -2.0260   -2.1122 N   0  0  0  0  0  0  0  0  0  0  0  0
    0.8922   -2.0260   -0.6920 N   0  0  0  0  0  0  0  0  0  0  0  0
    0.4111   -2.8554   -2.4275 H   0  0  0  0  0  0  0  0  0  0  0  0
    1.8273   -2.0283   -2.5010 H   0  0  0  0  0  0  0  0  0  0  0  0
    0.8922   -0.8754   -0.3136 H   0  0  0  0  0  0  0  0  0  0  0  0
    1.7022   -2.4932   -0.3031 H   0  0  0  0  0  0  0  0  0  0  0  0
    0.8922    0.3655    0.0946 C   0  0  0  0  0  3  0  0  0  0  0  0
   -0.4689    0.7297    0.2144 O   0  0  0  0  0  0  0  0  0  0  0  0
   -0.6401    1.5234    1.3232 N   0  0  0  0  0  0  0  0  0  0  0  0
   -1.8444    1.8755    1.4729 C   0  0  0  0  0  0  0  0  0  0  0  0
    1.5237    1.2486   -0.0260 H   0  0  0  0  0  0  0  0  0  0  0  0
    1.2226   -0.2032    0.9667 H   0  0  0  0  0  0  0  0  0  0  0  0
   -2.0633    2.5040    2.3258 H   0  0  0  0  0  0  0  0  0  0  0  0
   -2.6335    1.5712    0.7886 H   0  0  0  0  0  0  0  0  0  0  0  0
  1  2  1  0
  1  3  1  0
  1  4  1  0
  2  5  1  0
  2  6  1  0
  7  8  1  0
  7 11  1  0
  7 12  1  0
  8  9  1  0
  9 10  2  3
 10 13  1  0
 10 14  1  0
M  RAD  1   7   2
M  END
>  <reaction>  (14) 
rmg_rxn_15590

>  <mol_properties>  (14) 
{"0": {"label": "*0", "atom_type": "N3s"}, "1": {"label": "*1", "atom_type": "N3s"}, "4": {"label": "*2", "atom_type": "H0"}, "6": {"label": "*3", "atom_type": "Cs"}, "7": {"label": "*4", "atom_type": "O2s"}}

>  <type>  (14) 
unop_10

>  <geom_source>  (14) 
Heuristics

$$$$

     RDKit          3D

 14 12  0  0  0  0  0  0  0  0999 V2000
    2.0356   -0.6919   -0.5320 N   0  0  0  0  0  0  0  0  0  0  0  0
    1.9039    0.1538    0.5328 N   0  0  0  0  0  0  0  0  0  0  0  0
    1.3245   -1.4138   -0.5076 H   0  0  0  0  0  0  0  0  0  0  0  0
    2.1236   -0.2720   -1.4568 H   0  0  0  0  0  0  0  0  0  0  0  0
    0.7983    0.7859    0.5455 H   0  0  0  0  0  0  0  0  0  0  0  0
    2.6128    0.8823    0.4595 H   0  0  0  0  0  0  0  0  0  0  0  0
   -0.3320    1.3861    0.3768 C   0  0  0  0  0  3  0  0  0  0  0  0
   -1.0623    0.7125   -0.6143 O   0  0  0  0  0  0  0  0  0  0  0  0
   -1.5486   -0.5259   -0.3907 N   0  0  0  0  0  0  0  0  0  0  0  0
   -1.3245   -1.1624    0.6761 C   0  0  0  0  0  0  0  0  0  0  0  0
   -0.1485    2.3813   -0.0145 H   0  0  0  0  0  0  0  0  0  0  0  0
   -0.8375    1.4121    1.3425 H   0  0  0  0  0  0  0  0  0  0  0  0
   -1.7729   -2.1391    0.7353 H   0  0  0  0  0  0  0  0  0  0  0  0
   -0.7234   -0.8281    1.5171 H   0  0  0  0  0  0  0  0  0  0  0  0
  1  2  1  0
  1  3  1  0
  1  4  1  0
  2  5  1  0
  2  6  1  0
  7  8  1  0
  7 11  1  0
  7 12  1  0
  8  9  1  0
  9 10  2  3
 10 13  1  0
 10 14  1  0
M  RAD  1   7   2
M  END
>  <reaction>  (15) 
rmg_rxn_15590

>  <mol_properties>  (15) 
{"0": {"label": "*0", "atom_type": "N3s"}, "1": {"label": "*1", "atom_type": "N3s"}, "4": {"label": "*2", "atom_type": "H0"}, "6": {"label": "*3", "atom_type": "Cs"}, "7": {"label": "*4", "atom_type": "O2s"}}

>  <type>  (15) 
unop_11

>  <geom_source>  (15) 
Heuristics

$$$$

     RDKit          3D

 14 12  0  0  0  0  0  0  0  0999 V2000
   -0.5741   -2.3913   -1.2171 N   0  0  0  0  0  0  0  0  0  0  0  0
   -0.5741   -2.3913    0.2031 N   0  0  0  0  0  0  0  0  0  0  0  0
   -1.0552   -3.2207   -1.5324 H   0  0  0  0  0  0  0  0  0  0  0  0
    0.3610   -2.3935   -1.6059 H   0  0  0  0  0  0  0  0  0  0  0  0
   -0.5741   -1.2407    0.5816 H   0  0  0  0  0  0  0  0  0  0  0  0
    0.2359   -2.8585    0.5920 H   0  0  0  0  0  0  0  0  0  0  0  0
   -0.5741    0.0003    0.9897 C   0  0  0  0  0  3  0  0  0  0  0  0
    0.1064    0.7327   -0.0103 O   0  0  0  0  0  0  0  0  0  0  0  0
    0.5190    1.9402    0.5001 N   0  0  0  0  0  0  0  0  0  0  0  0
    1.1342    2.6329   -0.3592 C   0  0  0  0  0  0  0  0  0  0  0  0
    0.0814   -0.2028    1.8396 H   0  0  0  0  0  0  0  0  0  0  0  0
   -1.4607    0.5383    1.3329 H   0  0  0  0  0  0  0  0  0  0  0  0
    1.4929    3.6007   -0.0352 H   0  0  0  0  0  0  0  0  0  0  0  0
    1.3034    2.2889   -1.3773 H   0  0  0  0  0  0  0  0  0  0  0  0
  1  2  1  0
  1  3  1  0
  1  4  1  0
  2  5  1  0
  2  6  1  0
  7  8  1  0
  7 11  1  0
  7 12  1  0
  8  9  1  0
  9 10  2  3
 10 13  1  0
 10 14  1  0
M  RAD  1   7   2
M  END
>  <reaction>  (16) 
rmg_rxn_15590

>  <mol_properties>  (16) 
{"0": {"label": "*0", "atom_type": "N3s"}, "1": {"label": "*1", "atom_type": "N3s"}, "4": {"label": "*2", "atom_type": "H0"}, "6": {"label": "*3", "atom_type": "Cs"}, "7": {"label": "*4", "atom_type": "O2s"}}

>  <type>  (16) 
unop_12

>  <geom_source>  (16) 
Heuristics

$$$$

     RDKit          3D

 14 12  0  0  0  0  0  0  0  0999 V2000
    0.8757   -2.2139   -1.6274 N   0  0  0  0  0  0  0  0  0  0  0  0
    0.8757   -2.2139   -0.2073 N   0  0  0  0  0  0  0  0  0  0  0  0
    0.3947   -3.0433   -1.9428 H   0  0  0  0  0  0  0  0  0  0  0  0
    1.8109   -2.2162   -2.0163 H   0  0  0  0  0  0  0  0  0  0  0  0
    0.8757   -1.0634    0.1712 H   0  0  0  0  0  0  0  0  0  0  0  0
    1.6858   -2.6812    0.1816 H   0  0  0  0  0  0  0  0  0  0  0  0
    0.8757    0.1776    0.5793 C   0  0  0  0  0  3  0  0  0  0  0  0
   -0.3030    0.7544    0.0526 O   0  0  0  0  0  0  0  0  0  0  0  0
   -0.7726    1.7167    0.9141 N   0  0  0  0  0  0  0  0  0  0  0  0
   -1.8285    2.2626    0.4852 C   0  0  0  0  0  0  0  0  0  0  0  0
    1.6589    0.9296    0.6991 H   0  0  0  0  0  0  0  0  0  0  0  0
    0.6800   -0.3019    1.5411 H   0  0  0  0  0  0  0  0  0  0  0  0
   -2.2629    3.0335    1.1075 H   0  0  0  0  0  0  0  0  0  0  0  0
   -2.2904    1.9839   -0.4595 H   0  0  0  0  0  0  0  0  0  0  0  0
  1  2  1  0
  1  3  1  0
  1  4  1  0
  2  5  1  0
  2  6  1  0
  7  8  1  0
  7 11  1  0
  7 12  1  0
  8  9  1  0
  9 10  2  3
 10 13  1  0
 10 14  1  0
M  RAD  1   7   2
M  END
>  <reaction>  (17) 
rmg_rxn_15590

>  <mol_properties>  (17) 
{"0": {"label": "*0", "atom_type": "N3s"}, "1": {"label": "*1", "atom_type": "N3s"}, "4": {"label": "*2", "atom_type": "H0"}, "6": {"label": "*3", "atom_type": "Cs"}, "7": {"label": "*4", "atom_type": "O2s"}}

>  <type>  (17) 
unop_13

>  <geom_source>  (17) 
Heuristics

$$$$

     RDKit          3D

 14 12  0  0  0  0  0  0  0  0999 V2000
   -0.2999   -1.8823   -2.6998 N   0  0  0  0  0  0  0  0  0  0  0  0
   -0.2999   -1.8823   -1.2796 N   0  0  0  0  0  0  0  0  0  0  0  0
   -0.7809   -2.7116   -3.0152 H   0  0  0  0  0  0  0  0  0  0  0  0
    0.6353   -1.8845   -3.0887 H   0  0  0  0  0  0  0  0  0  0  0  0
   -0.2999   -0.7317   -0.9012 H   0  0  0  0  0  0  0  0  0  0  0  0
    0.5102   -2.3495   -0.8908 H   0  0  0  0  0  0  0  0  0  0  0  0
   -0.2999    0.5093   -0.4931 C   0  0  0  0  0  3  0  0  0  0  0  0
    0.3807    0.5052    0.7464 O   0  0  0  0  0  0  0  0  0  0  0  0
   -0.0462    1.5632    1.5127 N   0  0  0  0  0  0  0  0  0  0  0  0
    0.5354    1.6019    2.6338 C   0  0  0  0  0  0  0  0  0  0  0  0
   -1.3773    0.4031   -0.3476 H   0  0  0  0  0  0  0  0  0  0  0  0
   -0.0953    1.4276   -1.0481 H   0  0  0  0  0  0  0  0  0  0  0  0
    0.2543    2.4080    3.2983 H   0  0  0  0  0  0  0  0  0  0  0  0
    1.2832    0.8701    2.9318 H   0  0  0  0  0  0  0  0  0  0  0  0
  1  2  1  0
  1  3  1  0
  1  4  1  0
  2  5  1  0
  2  6  1  0
  7  8  1  0
  7 11  1  0
  7 12  1  0
  8  9  1  0
  9 10  2  3
 10 13  1  0
 10 14  1  0
M  RAD  1   7   2
M  END
>  <reaction>  (18) 
rmg_rxn_15590

>  <mol_properties>  (18) 
{"0": {"label": "*0", "atom_type": "N3s"}, "1": {"label": "*1", "atom_type": "N3s"}, "4": {"label": "*2", "atom_type": "H0"}, "6": {"label": "*3", "atom_type": "Cs"}, "7": {"label": "*4", "atom_type": "O2s"}}

>  <type>  (18) 
unop_14

>  <geom_source>  (18) 
Heuristics

$$$$

     RDKit          3D

 14 12  0  0  0  0  0  0  0  0999 V2000
   -0.0142   -2.4676   -1.0526 N   0  0  0  0  0  0  0  0  0  0  0  0
   -0.0142   -2.4676    0.3676 N   0  0  0  0  0  0  0  0  0  0  0  0
   -0.4952   -3.2970   -1.3679 H   0  0  0  0  0  0  0  0  0  0  0  0
    0.9210   -2.4698   -1.4414 H   0  0  0  0  0  0  0  0  0  0  0  0
   -0.0142   -1.3170    0.7460 H   0  0  0  0  0  0  0  0  0  0  0  0
    0.7959   -2.9348    0.7565 H   0  0  0  0  0  0  0  0  0  0  0  0
   -0.0142   -0.0760    1.1542 C   0  0  0  0  0  3  0  0  0  0  0  0
   -0.0142    0.7134   -0.0190 O   0  0  0  0  0  0  0  0  0  0  0  0
   -0.0141    2.0455    0.3191 N   0  0  0  0  0  0  0  0  0  0  0  0
   -0.0141    2.7932   -0.6995 C   0  0  0  0  0  0  0  0  0  0  0  0
    0.8780    0.1162    1.7545 H   0  0  0  0  0  0  0  0  0  0  0  0
   -0.9063    0.1162    1.7545 H   0  0  0  0  0  0  0  0  0  0  0  0
   -0.0141    3.8597   -0.5180 H   0  0  0  0  0  0  0  0  0  0  0  0
   -0.0142    2.4013   -1.7143 H   0  0  0  0  0  0  0  0  0  0  0  0
  1  2  1  0
  1  3  1  0
  1  4  1  0
  2  5  1  0
  2  6  1  0
  7  8  1  0
  7 11  1  0
  7 12  1  0
  8  9  1  0
  9 10  2  3
 10 13  1  0
 10 14  1  0
M  RAD  1   7   2
M  END
>  <reaction>  (19) 
rmg_rxn_15590

>  <mol_properties>  (19) 
{"0": {"label": "*0", "atom_type": "N3s"}, "1": {"label": "*1", "atom_type": "N3s"}, "4": {"label": "*2", "atom_type": "H0"}, "6": {"label": "*3", "atom_type": "Cs"}, "7": {"label": "*4", "atom_type": "O2s"}}

>  <type>  (19) 
unop_15

>  <geom_source>  (19) 
Heuristics

$$$$

     RDKit          3D

 14 12  0  0  0  0  0  0  0  0999 V2000
    0.5458   -2.3913   -1.2170 N   0  0  0  0  0  0  0  0  0  0  0  0
    0.5458   -2.3913    0.2031 N   0  0  0  0  0  0  0  0  0  0  0  0
    0.0648   -3.2207   -1.5324 H   0  0  0  0  0  0  0  0  0  0  0  0
    1.4810   -2.3935   -1.6059 H   0  0  0  0  0  0  0  0  0  0  0  0
    0.5458   -1.2407    0.5816 H   0  0  0  0  0  0  0  0  0  0  0  0
    1.3559   -2.8585    0.5920 H   0  0  0  0  0  0  0  0  0  0  0  0
    0.5458    0.0003    0.9897 C   0  0  0  0  0  3  0  0  0  0  0  0
   -0.1347    0.7327   -0.0103 O   0  0  0  0  0  0  0  0  0  0  0  0
   -0.5473    1.9402    0.5001 N   0  0  0  0  0  0  0  0  0  0  0  0
   -1.1625    2.6329   -0.3592 C   0  0  0  0  0  0  0  0  0  0  0  0
    1.4324    0.5383    1.3329 H   0  0  0  0  0  0  0  0  0  0  0  0
   -0.1097   -0.2028    1.8396 H   0  0  0  0  0  0  0  0  0  0  0  0
   -1.5212    3.6007   -0.0352 H   0  0  0  0  0  0  0  0  0  0  0  0
   -1.3317    2.2889   -1.3773 H   0  0  0  0  0  0  0  0  0  0  0  0
  1  2  1  0
  1  3  1  0
  1  4  1  0
  2  5  1  0
  2  6  1  0
  7  8  1  0
  7 11  1  0
  7 12  1  0
  8  9  1  0
  9 10  2  3
 10 13  1  0
 10 14  1  0
M  RAD  1   7   2
M  END
>  <reaction>  (20) 
rmg_rxn_15590

>  <mol_properties>  (20) 
{"0": {"label": "*0", "atom_type": "N3s"}, "1": {"label": "*1", "atom_type": "N3s"}, "4": {"label": "*2", "atom_type": "H0"}, "6": {"label": "*3", "atom_type": "Cs"}, "7": {"label": "*4", "atom_type": "O2s"}}

>  <type>  (20) 
unop_16

>  <geom_source>  (20) 
gaussian_log

$$$$
