
     RDKit          3D

 14 13  0  0  0  0  0  0  0  0999 V2000
    2.6835   -0.4133    0.0000 C   0  0  0  0  0  0  0  0  0  0  0  0
    1.5970    0.5046    0.0000 O   0  0  0  0  0  0  0  0  0  0  0  0
    0.3396   -0.1741   -0.0000 C   0  0  0  0  0  0  0  0  0  0  0  0
   -0.7603    0.8710    0.0000 C   0  0  0  0  0  0  0  0  0  0  0  0
   -2.1280    0.2478    0.0000 C   0  0  0  0  0  0  0  0  0  0  0  0
   -2.3411   -0.9603    0.0000 O   0  0  0  0  0  0  0  0  0  0  0  0
    2.6563   -1.0389   -0.8974 H   0  0  0  0  0  0  0  0  0  0  0  0
    2.6563   -1.0389    0.8974 H   0  0  0  0  0  0  0  0  0  0  0  0
    3.6159    0.1574    0.0000 H   0  0  0  0  0  0  0  0  0  0  0  0
    0.2658   -0.8093   -0.8908 H   0  0  0  0  0  0  0  0  0  0  0  0
    0.2658   -0.8093    0.8908 H   0  0  0  0  0  0  0  0  0  0  0  0
   -0.6740    1.5163   -0.8809 H   0  0  0  0  0  0  0  0  0  0  0  0
   -0.6740    1.5163    0.8809 H   0  0  0  0  0  0  0  0  0  0  0  0
   -2.9678    0.9638   -0.0000 H   0  0  0  0  0  0  0  0  0  0  0  0
  1  2  1  0
  1  7  1  0
  1  8  1  0
  1  9  1  0
  2  3  1  0
  3  4  1  0
  3 10  1  0
  3 11  1  0
  4  5  1  0
  4 12  1  0
  4 13  1  0
  5  6  2  0
  5 14  1  0
M  END
>  <reaction>  (1) 
rmg_rxn_1344

>  <mol_properties>  (1) 
{"0": {"label": "donator", "atom_type": "Cs"}, "6": {"label": "d_hydrogen", "atom_type": "H0"}}

>  <type>  (1) 
r1h

$$$$

     RDKit          3D

  8  7  0  0  0  0  0  0  0  0999 V2000
   -1.2175   -0.3643    0.0005 C   0  0  0  0  0  3  0  0  0  0  0  0
   -0.2018    0.5132    0.0014 C   0  0  0  0  0  0  0  0  0  0  0  0
    1.1283   -0.1797    0.0010 C   0  0  0  0  0  0  0  0  0  0  0  0
   -2.5072   -0.2196   -0.0003 H   0  0  0  0  0  0  0  0  0  0  0  0
   -0.1961    1.5628    0.0026 H   0  0  0  0  0  0  0  0  0  0  0  0
    1.7141    0.0860   -0.8855 H   0  0  0  0  0  0  0  0  0  0  0  0
    1.0028   -1.2905   -0.0222 H   0  0  0  0  0  0  0  0  0  0  0  0
    1.7328    0.0460    0.8882 H   0  0  0  0  0  0  0  0  0  0  0  0
  1  2  2  3
  1  4  1  0
  2  3  1  0
  2  5  1  0
  3  6  1  0
  3  7  1  0
  3  8  1  0
M  RAD  1   1   2
M  END
>  <reaction>  (2) 
rmg_rxn_1344

>  <mol_properties>  (2) 
{"0": {"label": "acceptor", "atom_type": "Cd"}}

>  <type>  (2) 
r2

$$$$

     RDKit          3D

  9  8  0  0  0  0  0  0  0  0999 V2000
   -1.2749   -0.2244    0.0004 C   0  0  0  0  0  0  0  0  0  0  0  0
   -0.1272    0.4645    0.0017 C   0  0  0  0  0  0  0  0  0  0  0  0
    1.2277   -0.1636    0.0010 C   0  0  0  0  0  0  0  0  0  0  0  0
   -2.2311    0.2898    0.0010 H   0  0  0  0  0  0  0  0  0  0  0  0
   -1.2897   -1.3099   -0.0012 H   0  0  0  0  0  0  0  0  0  0  0  0
   -0.1618    1.5518    0.0033 H   0  0  0  0  0  0  0  0  0  0  0  0
    1.7852    0.1535   -0.8856 H   0  0  0  0  0  0  0  0  0  0  0  0
    1.1333   -1.2535   -0.0230 H   0  0  0  0  0  0  0  0  0  0  0  0
    1.8102    0.1094    0.8866 H   0  0  0  0  0  0  0  0  0  0  0  0
  1  2  2  3
  1  4  1  0
  1  5  1  0
  2  3  1  0
  2  6  1  0
  3  7  1  0
  3  8  1  0
  3  9  1  0
M  END
>  <reaction>  (3) 
rmg_rxn_1344

>  <mol_properties>  (3) 
{"0": {"label": "acceptor", "atom_type": "Cd"}, "8": {"label": "a_hydrogen", "atom_type": "H0"}}

>  <type>  (3) 
r2h

$$$$

     RDKit          3D

 22 20  0  0  0  0  0  0  0  0999 V2000
    2.5317    0.5982   -0.0196 C   0  0  0  0  0  0  0  0  0  0  0  0
    2.2941   -0.7020   -0.2310 C   0  0  0  0  0  0  0  0  0  0  0  0
    3.3249   -1.7748   -0.1003 C   0  0  0  0  0  0  0  0  0  0  0  0
    3.5142    0.9603    0.2671 H   0  0  0  0  0  0  0  0  0  0  0  0
    1.2933   -1.0182   -0.5169 H   0  0  0  0  0  0  0  0  0  0  0  0
    3.0138   -2.5003    0.6575 H   0  0  0  0  0  0  0  0  0  0  0  0
    4.2790   -1.3389    0.2113 H   0  0  0  0  0  0  0  0  0  0  0  0
    3.4851   -2.3108   -1.0412 H   0  0  0  0  0  0  0  0  0  0  0  0
    0.5613    2.2678    0.3965 C   0  0  0  0  0  3  0  0  0  0  0  0
   -0.6108    1.8335   -0.2822 O   0  0  0  0  0  0  0  0  0  0  0  0
   -1.0406    0.5532    0.1844 C   0  0  0  0  0  0  0  0  0  0  0  0
   -2.2889    0.1653   -0.5859 C   0  0  0  0  0  0  0  0  0  0  0  0
   -2.8177   -1.1760   -0.1612 C   0  0  0  0  0  0  0  0  0  0  0  0
   -2.3087   -1.8813    0.7040 O   0  0  0  0  0  0  0  0  0  0  0  0
    1.5503    1.4298    0.1876 H   0  0  0  0  0  0  0  0  0  0  0  0
    0.3688    2.3651    1.4693 H   0  0  0  0  0  0  0  0  0  0  0  0
    0.8441    3.2474    0.0020 H   0  0  0  0  0  0  0  0  0  0  0  0
   -0.2444   -0.1828    0.0211 H   0  0  0  0  0  0  0  0  0  0  0  0
   -1.2535    0.6070    1.2587 H   0  0  0  0  0  0  0  0  0  0  0  0
   -2.0791    0.1301   -1.6604 H   0  0  0  0  0  0  0  0  0  0  0  0
   -3.0771    0.9112   -0.4365 H   0  0  0  0  0  0  0  0  0  0  0  0
   -3.7271   -1.5087   -0.6904 H   0  0  0  0  0  0  0  0  0  0  0  0
  1  2  2  3
  1  4  1  0
  1 15  1  0
  2  3  1  0
  2  5  1  0
  3  6  1  0
  3  7  1  0
  3  8  1  0
  9 10  1  0
  9 16  1  0
  9 17  1  0
 10 11  1  0
 11 12  1  0
 11 18  1  0
 11 19  1  0
 12 13  1  0
 12 20  1  0
 12 21  1  0
 13 14  2  0
 13 22  1  0
M  RAD  1   9   2
M  END
>  <reaction>  (4) 
rmg_rxn_1344

>  <mol_properties>  (4) 
{"0": {"label": "*1", "atom_type": "Cd"}, "1": {"label": "*0", "atom_type": "Cd"}, "8": {"label": "*3", "atom_type": "Cs"}, "9": {"label": "*4", "atom_type": "O2s"}, "14": {"label": "*2", "atom_type": "H0"}}

>  <type>  (4) 
ts

$$$$

     RDKit          3D

 22 20  0  0  0  0  0  0  0  0999 V2000
   -1.2010    1.7076   -0.8635 C   0  0  0  0  0  0  0  0  0  0  0  0
   -2.0676    2.7120   -0.6848 C   0  0  0  0  0  0  0  0  0  0  0  0
   -2.6635    3.5128   -1.7956 C   0  0  0  0  0  0  0  0  0  0  0  0
   -0.8708    1.4071   -1.8530 H   0  0  0  0  0  0  0  0  0  0  0  0
   -2.3697    2.9777    0.3259 H   0  0  0  0  0  0  0  0  0  0  0  0
   -3.7538    3.4221   -1.7771 H   0  0  0  0  0  0  0  0  0  0  0  0
   -2.3031    3.1396   -2.7591 H   0  0  0  0  0  0  0  0  0  0  0  0
   -2.4077    4.5746   -1.7230 H   0  0  0  0  0  0  0  0  0  0  0  0
    0.9445    1.5118    0.6205 C   0  0  0  0  0  3  0  0  0  0  0  0
    0.9445    0.2823    1.3357 O   0  0  0  0  0  0  0  0  0  0  0  0
    0.9445   -0.8380    0.4489 C   0  0  0  0  0  0  0  0  0  0  0  0
    0.9445   -2.1028    1.2870 C   0  0  0  0  0  0  0  0  0  0  0  0
    0.9445   -3.3414    0.4357 C   0  0  0  0  0  0  0  0  0  0  0  0
    0.9445   -3.3414   -0.7911 O   0  0  0  0  0  0  0  0  0  0  0  0
   -0.1324    1.6100   -0.1244 H   0  0  0  0  0  0  0  0  0  0  0  0
    1.8419    1.5937   -0.0002 H   0  0  0  0  0  0  0  0  0  0  0  0
    0.9445    2.3309    1.3446 H   0  0  0  0  0  0  0  0  0  0  0  0
    0.0537   -0.8004   -0.1895 H   0  0  0  0  0  0  0  0  0  0  0  0
    1.8352   -0.8004   -0.1895 H   0  0  0  0  0  0  0  0  0  0  0  0
    0.0636   -2.1299    1.9375 H   0  0  0  0  0  0  0  0  0  0  0  0
    1.8254   -2.1299    1.9375 H   0  0  0  0  0  0  0  0  0  0  0  0
    0.9445   -4.2929    0.9949 H   0  0  0  0  0  0  0  0  0  0  0  0
  1  2  2  3
  1  4  1  0
  1 15  1  0
  2  3  1  0
  2  5  1  0
  3  6  1  0
  3  7  1  0
  3  8  1  0
  9 10  1  0
  9 16  1  0
  9 17  1  0
 10 11  1  0
 11 12  1  0
 11 18  1  0
 11 19  1  0
 12 13  1  0
 12 20  1  0
 12 21  1  0
 13 14  2  0
 13 22  1  0
M  RAD  1   9   2
M  END
>  <reaction>  (5) 
rmg_rxn_1344

>  <mol_properties>  (5) 
{"0": {"label": "*1", "atom_type": "Cd"}, "1": {"label": "*0", "atom_type": "Cd"}, "8": {"label": "*3", "atom_type": "Cs"}, "9": {"label": "*4", "atom_type": "O2s"}, "14": {"label": "*2", "atom_type": "H0"}}

>  <type>  (5) 
unop_1

>  <geom_source>  (5) 
Heuristics

$$$$

     RDKit          3D

 22 20  0  0  0  0  0  0  0  0999 V2000
   -1.0497    2.1074   -0.9732 C   0  0  0  0  0  0  0  0  0  0  0  0
   -2.1942    1.5205   -0.6026 C   0  0  0  0  0  0  0  0  0  0  0  0
   -3.5355    1.8746   -1.1558 C   0  0  0  0  0  0  0  0  0  0  0  0
   -1.0275    2.8970   -1.7178 H   0  0  0  0  0  0  0  0  0  0  0  0
   -2.1674    0.7333    0.1477 H   0  0  0  0  0  0  0  0  0  0  0  0
   -3.9873    0.9972   -1.6282 H   0  0  0  0  0  0  0  0  0  0  0  0
   -3.4315    2.6581   -1.9125 H   0  0  0  0  0  0  0  0  0  0  0  0
   -4.2195    2.2361   -0.3814 H   0  0  0  0  0  0  0  0  0  0  0  0
    1.0957    1.9116    0.5108 C   0  0  0  0  0  3  0  0  0  0  0  0
    1.0957    0.6822    1.2260 O   0  0  0  0  0  0  0  0  0  0  0  0
    1.0957   -0.4382    0.3392 C   0  0  0  0  0  0  0  0  0  0  0  0
    1.0957   -1.7030    1.1773 C   0  0  0  0  0  0  0  0  0  0  0  0
    1.0957   -2.9416    0.3260 C   0  0  0  0  0  0  0  0  0  0  0  0
    1.0957   -2.9416   -0.9008 O   0  0  0  0  0  0  0  0  0  0  0  0
    0.0188    2.0099   -0.2341 H   0  0  0  0  0  0  0  0  0  0  0  0
    1.9932    1.9935   -0.1099 H   0  0  0  0  0  0  0  0  0  0  0  0
    1.0957    2.7307    1.2349 H   0  0  0  0  0  0  0  0  0  0  0  0
    0.2050   -0.4005   -0.2992 H   0  0  0  0  0  0  0  0  0  0  0  0
    1.9865   -0.4005   -0.2992 H   0  0  0  0  0  0  0  0  0  0  0  0
    0.2148   -1.7301    1.8278 H   0  0  0  0  0  0  0  0  0  0  0  0
    1.9767   -1.7301    1.8278 H   0  0  0  0  0  0  0  0  0  0  0  0
    1.0957   -3.8931    0.8852 H   0  0  0  0  0  0  0  0  0  0  0  0
  1  2  2  3
  1  4  1  0
  1 15  1  0
  2  3  1  0
  2  5  1  0
  3  6  1  0
  3  7  1  0
  3  8  1  0
  9 10  1  0
  9 16  1  0
  9 17  1  0
 10 11  1  0
 11 12  1  0
 11 18  1  0
 11 19  1  0
 12 13  1  0
 12 20  1  0
 12 21  1  0
 13 14  2  0
 13 22  1  0
M  RAD  1   9   2
M  END
>  <reaction>  (6) 
rmg_rxn_1344

>  <mol_properties>  (6) 
{"0": {"label": "*1", "atom_type": "Cd"}, "1": {"label": "*0", "atom_type": "Cd"}, "8": {"label": "*3", "atom_type": "Cs"}, "9": {"label": "*4", "atom_type": "O2s"}, "14": {"label": "*2", "atom_type": "H0"}}

>  <type>  (6) 
unop_2

>  <geom_source>  (6) 
Heuristics

$$$$

     RDKit          3D

 22 20  0  0  0  0  0  0  0  0999 V2000
   -1.2692    1.7204   -0.7407 C   0  0  0  0  0  0  0  0  0  0  0  0
   -1.8033    2.9162   -1.0174 C   0  0  0  0  0  0  0  0  0  0  0  0
   -2.4307    3.2719   -2.3252 C   0  0  0  0  0  0  0  0  0  0  0  0
   -1.2599    0.9163   -1.4699 H   0  0  0  0  0  0  0  0  0  0  0  0
   -1.7898    3.6919   -0.2549 H   0  0  0  0  0  0  0  0  0  0  0  0
   -3.4759    3.5573   -2.1718 H   0  0  0  0  0  0  0  0  0  0  0  0
   -2.4043    2.4094   -2.9981 H   0  0  0  0  0  0  0  0  0  0  0  0
   -1.9177    4.1046   -2.8167 H   0  0  0  0  0  0  0  0  0  0  0  0
    0.8762    1.5246    0.7433 C   0  0  0  0  0  3  0  0  0  0  0  0
    0.8762    0.2952    1.4585 O   0  0  0  0  0  0  0  0  0  0  0  0
    0.8762   -0.8251    0.5717 C   0  0  0  0  0  0  0  0  0  0  0  0
    0.8762   -2.0899    1.4098 C   0  0  0  0  0  0  0  0  0  0  0  0
    0.8762   -3.3286    0.5585 C   0  0  0  0  0  0  0  0  0  0  0  0
    0.8762   -3.3286   -0.6683 O   0  0  0  0  0  0  0  0  0  0  0  0
   -0.2007    1.6229   -0.0016 H   0  0  0  0  0  0  0  0  0  0  0  0
    1.7736    1.6065    0.1226 H   0  0  0  0  0  0  0  0  0  0  0  0
    0.8762    2.3437    1.4674 H   0  0  0  0  0  0  0  0  0  0  0  0
   -0.0146   -0.7875   -0.0667 H   0  0  0  0  0  0  0  0  0  0  0  0
    1.7670   -0.7875   -0.0667 H   0  0  0  0  0  0  0  0  0  0  0  0
   -0.0047   -2.1170    2.0603 H   0  0  0  0  0  0  0  0  0  0  0  0
    1.7571   -2.1170    2.0603 H   0  0  0  0  0  0  0  0  0  0  0  0
    0.8762   -4.2800    1.1177 H   0  0  0  0  0  0  0  0  0  0  0  0
  1  2  2  3
  1  4  1  0
  1 15  1  0
  2  3  1  0
  2  5  1  0
  3  6  1  0
  3  7  1  0
  3  8  1  0
  9 10  1  0
  9 16  1  0
  9 17  1  0
 10 11  1  0
 11 12  1  0
 11 18  1  0
 11 19  1  0
 12 13  1  0
 12 20  1  0
 12 21  1  0
 13 14  2  0
 13 22  1  0
M  RAD  1   9   2
M  END
>  <reaction>  (7) 
rmg_rxn_1344

>  <mol_properties>  (7) 
{"0": {"label": "*1", "atom_type": "Cd"}, "1": {"label": "*0", "atom_type": "Cd"}, "8": {"label": "*3", "atom_type": "Cs"}, "9": {"label": "*4", "atom_type": "O2s"}, "14": {"label": "*2", "atom_type": "H0"}}

>  <type>  (7) 
unop_3

>  <geom_source>  (7) 
Heuristics

$$$$

     RDKit          3D

 22 20  0  0  0  0  0  0  0  0999 V2000
   -1.3203    2.1808   -0.5968 C   0  0  0  0  0  0  0  0  0  0  0  0
   -1.5765    1.2789   -1.5522 C   0  0  0  0  0  0  0  0  0  0  0  0
   -2.2820    1.5897   -2.8312 C   0  0  0  0  0  0  0  0  0  0  0  0
   -1.6181    3.2199   -0.6975 H   0  0  0  0  0  0  0  0  0  0  0  0
   -1.2589    0.2487   -1.4072 H   0  0  0  0  0  0  0  0  0  0  0  0
   -1.6337    1.3555   -3.6810 H   0  0  0  0  0  0  0  0  0  0  0  0
   -2.5303    2.6547   -2.8706 H   0  0  0  0  0  0  0  0  0  0  0  0
   -3.2093    1.0185   -2.9411 H   0  0  0  0  0  0  0  0  0  0  0  0
    0.8252    1.9850    0.8871 C   0  0  0  0  0  3  0  0  0  0  0  0
    0.8252    0.7556    1.6023 O   0  0  0  0  0  0  0  0  0  0  0  0
    0.8252   -0.3647    0.7156 C   0  0  0  0  0  0  0  0  0  0  0  0
    0.8252   -1.6295    1.5536 C   0  0  0  0  0  0  0  0  0  0  0  0
    0.8252   -2.8682    0.7023 C   0  0  0  0  0  0  0  0  0  0  0  0
    0.8252   -2.8682   -0.5244 O   0  0  0  0  0  0  0  0  0  0  0  0
   -0.2517    2.0833    0.1423 H   0  0  0  0  0  0  0  0  0  0  0  0
    1.7226    2.0669    0.2664 H   0  0  0  0  0  0  0  0  0  0  0  0
    0.8252    2.8042    1.6112 H   0  0  0  0  0  0  0  0  0  0  0  0
   -0.0656   -0.3271    0.0771 H   0  0  0  0  0  0  0  0  0  0  0  0
    1.7159   -0.3271    0.0771 H   0  0  0  0  0  0  0  0  0  0  0  0
   -0.0558   -1.6566    2.2041 H   0  0  0  0  0  0  0  0  0  0  0  0
    1.7061   -1.6566    2.2041 H   0  0  0  0  0  0  0  0  0  0  0  0
    0.8252   -3.8196    1.2616 H   0  0  0  0  0  0  0  0  0  0  0  0
  1  2  2  3
  1  4  1  0
  1 15  1  0
  2  3  1  0
  2  5  1  0
  3  6  1  0
  3  7  1  0
  3  8  1  0
  9 10  1  0
  9 16  1  0
  9 17  1  0
 10 11  1  0
 11 12  1  0
 11 18  1  0
 11 19  1  0
 12 13  1  0
 12 20  1  0
 12 21  1  0
 13 14  2  0
 13 22  1  0
M  RAD  1   9   2
M  END
>  <reaction>  (8) 
rmg_rxn_1344

>  <mol_properties>  (8) 
{"0": {"label": "*1", "atom_type": "Cd"}, "1": {"label": "*0", "atom_type": "Cd"}, "8": {"label": "*3", "atom_type": "Cs"}, "9": {"label": "*4", "atom_type": "O2s"}, "14": {"label": "*2", "atom_type": "H0"}}

>  <type>  (8) 
unop_4

>  <geom_source>  (8) 
Heuristics

$$$$

     RDKit          3D

 22 20  0  0  0  0  0  0  0  0999 V2000
   -1.2703    1.7655   -0.6885 C   0  0  0  0  0  0  0  0  0  0  0  0
   -1.4793    2.8460   -1.4505 C   0  0  0  0  0  0  0  0  0  0  0  0
   -2.6748    3.0367   -2.3249 C   0  0  0  0  0  0  0  0  0  0  0  0
   -1.9763    0.9413   -0.6599 H   0  0  0  0  0  0  0  0  0  0  0  0
   -0.7436    3.6473   -1.4469 H   0  0  0  0  0  0  0  0  0  0  0  0
   -3.2174    3.9378   -2.0232 H   0  0  0  0  0  0  0  0  0  0  0  0
   -3.3486    2.1801   -2.2272 H   0  0  0  0  0  0  0  0  0  0  0  0
   -2.4029    3.1389   -3.3803 H   0  0  0  0  0  0  0  0  0  0  0  0
    0.8751    1.5697    0.7955 C   0  0  0  0  0  3  0  0  0  0  0  0
    0.8751    0.3403    1.5107 O   0  0  0  0  0  0  0  0  0  0  0  0
    0.8751   -0.7801    0.6239 C   0  0  0  0  0  0  0  0  0  0  0  0
    0.8751   -2.0449    1.4620 C   0  0  0  0  0  0  0  0  0  0  0  0
    0.8751   -3.2835    0.6107 C   0  0  0  0  0  0  0  0  0  0  0  0
    0.8751   -3.2835   -0.6161 O   0  0  0  0  0  0  0  0  0  0  0  0
   -0.2018    1.6680    0.0506 H   0  0  0  0  0  0  0  0  0  0  0  0
    1.7725    1.6516    0.1748 H   0  0  0  0  0  0  0  0  0  0  0  0
    0.8751    2.3888    1.5195 H   0  0  0  0  0  0  0  0  0  0  0  0
   -0.0157   -0.7424   -0.0145 H   0  0  0  0  0  0  0  0  0  0  0  0
    1.7659   -0.7424   -0.0145 H   0  0  0  0  0  0  0  0  0  0  0  0
   -0.0058   -2.0720    2.1125 H   0  0  0  0  0  0  0  0  0  0  0  0
    1.7560   -2.0720    2.1125 H   0  0  0  0  0  0  0  0  0  0  0  0
    0.8751   -4.2350    1.1699 H   0  0  0  0  0  0  0  0  0  0  0  0
  1  2  2  3
  1  4  1  0
  1 15  1  0
  2  3  1  0
  2  5  1  0
  3  6  1  0
  3  7  1  0
  3  8  1  0
  9 10  1  0
  9 16  1  0
  9 17  1  0
 10 11  1  0
 11 12  1  0
 11 18  1  0
 11 19  1  0
 12 13  1  0
 12 20  1  0
 12 21  1  0
 13 14  2  0
 13 22  1  0
M  RAD  1   9   2
M  END
>  <reaction>  (9) 
rmg_rxn_1344

>  <mol_properties>  (9) 
{"0": {"label": "*1", "atom_type": "Cd"}, "1": {"label": "*0", "atom_type": "Cd"}, "8": {"label": "*3", "atom_type": "Cs"}, "9": {"label": "*4", "atom_type": "O2s"}, "14": {"label": "*2", "atom_type": "H0"}}

>  <type>  (9) 
unop_5

>  <geom_source>  (9) 
Heuristics

$$$$

     RDKit          3D

 22 20  0  0  0  0  0  0  0  0999 V2000
   -1.3841    2.0340   -0.5470 C   0  0  0  0  0  0  0  0  0  0  0  0
   -1.3896    1.5789   -1.8058 C   0  0  0  0  0  0  0  0  0  0  0  0
   -2.0182    2.2972   -2.9544 C   0  0  0  0  0  0  0  0  0  0  0  0
   -1.8487    2.9778   -0.2787 H   0  0  0  0  0  0  0  0  0  0  0  0
   -0.9112    0.6274   -2.0274 H   0  0  0  0  0  0  0  0  0  0  0  0
   -1.2637    2.5135   -3.7167 H   0  0  0  0  0  0  0  0  0  0  0  0
   -2.4444    3.2454   -2.6127 H   0  0  0  0  0  0  0  0  0  0  0  0
   -2.8170    1.7119   -3.4206 H   0  0  0  0  0  0  0  0  0  0  0  0
    0.7614    1.8382    0.9370 C   0  0  0  0  0  3  0  0  0  0  0  0
    0.7614    0.6088    1.6522 O   0  0  0  0  0  0  0  0  0  0  0  0
    0.7614   -0.5115    0.7654 C   0  0  0  0  0  0  0  0  0  0  0  0
    0.7614   -1.7763    1.6034 C   0  0  0  0  0  0  0  0  0  0  0  0
    0.7614   -3.0150    0.7522 C   0  0  0  0  0  0  0  0  0  0  0  0
    0.7614   -3.0150   -0.4746 O   0  0  0  0  0  0  0  0  0  0  0  0
   -0.3155    1.9365    0.1921 H   0  0  0  0  0  0  0  0  0  0  0  0
    1.6588    1.9201    0.3162 H   0  0  0  0  0  0  0  0  0  0  0  0
    0.7614    2.6573    1.6610 H   0  0  0  0  0  0  0  0  0  0  0  0
   -0.1294   -0.4739    0.1270 H   0  0  0  0  0  0  0  0  0  0  0  0
    1.6521   -0.4739    0.1270 H   0  0  0  0  0  0  0  0  0  0  0  0
   -0.1195   -1.8034    2.2539 H   0  0  0  0  0  0  0  0  0  0  0  0
    1.6423   -1.8034    2.2539 H   0  0  0  0  0  0  0  0  0  0  0  0
    0.7614   -3.9664    1.3114 H   0  0  0  0  0  0  0  0  0  0  0  0
  1  2  2  3
  1  4  1  0
  1 15  1  0
  2  3  1  0
  2  5  1  0
  3  6  1  0
  3  7  1  0
  3  8  1  0
  9 10  1  0
  9 16  1  0
  9 17  1  0
 10 11  1  0
 11 12  1  0
 11 18  1  0
 11 19  1  0
 12 13  1  0
 12 20  1  0
 12 21  1  0
 13 14  2  0
 13 22  1  0
M  RAD  1   9   2
M  END
>  <reaction>  (10) 
rmg_rxn_1344

>  <mol_properties>  (10) 
{"0": {"label": "*1", "atom_type": "Cd"}, "1": {"label": "*0", "atom_type": "Cd"}, "8": {"label": "*3", "atom_type": "Cs"}, "9": {"label": "*4", "atom_type": "O2s"}, "14": {"label": "*2", "atom_type": "H0"}}

>  <type>  (10) 
unop_6

>  <geom_source>  (10) 
Heuristics

$$$$

     RDKit          3D

 22 20  0  0  0  0  0  0  0  0999 V2000
   -1.3864    1.8760   -0.5735 C   0  0  0  0  0  0  0  0  0  0  0  0
   -1.2902    2.0033   -1.9025 C   0  0  0  0  0  0  0  0  0  0  0  0
   -2.0795    2.9803   -2.7105 C   0  0  0  0  0  0  0  0  0  0  0  0
   -2.0621    2.4918    0.0120 H   0  0  0  0  0  0  0  0  0  0  0  0
   -0.5990    1.3641   -2.4474 H   0  0  0  0  0  0  0  0  0  0  0  0
   -1.4034    3.6571   -3.2416 H   0  0  0  0  0  0  0  0  0  0  0  0
   -2.7185    3.5776   -2.0530 H   0  0  0  0  0  0  0  0  0  0  0  0
   -2.7176    2.4853   -3.4495 H   0  0  0  0  0  0  0  0  0  0  0  0
    0.7590    1.6802    0.9105 C   0  0  0  0  0  3  0  0  0  0  0  0
    0.7590    0.4508    1.6257 O   0  0  0  0  0  0  0  0  0  0  0  0
    0.7590   -0.6696    0.7389 C   0  0  0  0  0  0  0  0  0  0  0  0
    0.7590   -1.9343    1.5770 C   0  0  0  0  0  0  0  0  0  0  0  0
    0.7590   -3.1730    0.7257 C   0  0  0  0  0  0  0  0  0  0  0  0
    0.7590   -3.1730   -0.5011 O   0  0  0  0  0  0  0  0  0  0  0  0
   -0.3179    1.7785    0.1656 H   0  0  0  0  0  0  0  0  0  0  0  0
    1.6564    1.7621    0.2897 H   0  0  0  0  0  0  0  0  0  0  0  0
    0.7590    2.4993    1.6345 H   0  0  0  0  0  0  0  0  0  0  0  0
   -0.1318   -0.6319    0.1005 H   0  0  0  0  0  0  0  0  0  0  0  0
    1.6497   -0.6319    0.1005 H   0  0  0  0  0  0  0  0  0  0  0  0
   -0.1219   -1.9614    2.2275 H   0  0  0  0  0  0  0  0  0  0  0  0
    1.6399   -1.9614    2.2275 H   0  0  0  0  0  0  0  0  0  0  0  0
    0.7590   -4.1244    1.2849 H   0  0  0  0  0  0  0  0  0  0  0  0
  1  2  2  3
  1  4  1  0
  1 15  1  0
  2  3  1  0
  2  5  1  0
  3  6  1  0
  3  7  1  0
  3  8  1  0
  9 10  1  0
  9 16  1  0
  9 17  1  0
 10 11  1  0
 11 12  1  0
 11 18  1  0
 11 19  1  0
 12 13  1  0
 12 20  1  0
 12 21  1  0
 13 14  2  0
 13 22  1  0
M  RAD  1   9   2
M  END
>  <reaction>  (11) 
rmg_rxn_1344

>  <mol_properties>  (11) 
{"0": {"label": "*1", "atom_type": "Cd"}, "1": {"label": "*0", "atom_type": "Cd"}, "8": {"label": "*3", "atom_type": "Cs"}, "9": {"label": "*4", "atom_type": "O2s"}, "14": {"label": "*2", "atom_type": "H0"}}

>  <type>  (11) 
unop_7

>  <geom_source>  (11) 
Heuristics

$$$$

     RDKit          3D

 22 20  0  0  0  0  0  0  0  0999 V2000
   -1.1132    1.7878   -0.9707 C   0  0  0  0  0  0  0  0  0  0  0  0
   -2.2305    2.3454   -0.4886 C   0  0  0  0  0  0  0  0  0  0  0  0
   -3.0999    3.2831   -1.2601 C   0  0  0  0  0  0  0  0  0  0  0  0
   -0.7630    1.9892   -1.9784 H   0  0  0  0  0  0  0  0  0  0  0  0
   -2.5424    2.1139    0.5275 H   0  0  0  0  0  0  0  0  0  0  0  0
   -4.1097    2.8704   -1.3452 H   0  0  0  0  0  0  0  0  0  0  0  0
   -2.6976    3.4201   -2.2684 H   0  0  0  0  0  0  0  0  0  0  0  0
   -3.1716    4.2663   -0.7843 H   0  0  0  0  0  0  0  0  0  0  0  0
    1.0322    1.5920    0.5132 C   0  0  0  0  0  3  0  0  0  0  0  0
    1.0322    0.3625    1.2284 O   0  0  0  0  0  0  0  0  0  0  0  0
    1.0322   -0.7578    0.3417 C   0  0  0  0  0  0  0  0  0  0  0  0
    1.0322   -2.0226    1.1797 C   0  0  0  0  0  0  0  0  0  0  0  0
    1.0322   -3.2612    0.3284 C   0  0  0  0  0  0  0  0  0  0  0  0
    1.0322   -3.2612   -0.8983 O   0  0  0  0  0  0  0  0  0  0  0  0
   -0.0447    1.6902   -0.2317 H   0  0  0  0  0  0  0  0  0  0  0  0
    1.9297    1.6739   -0.1075 H   0  0  0  0  0  0  0  0  0  0  0  0
    1.0322    2.4111    1.2373 H   0  0  0  0  0  0  0  0  0  0  0  0
    0.1415   -0.7202   -0.2968 H   0  0  0  0  0  0  0  0  0  0  0  0
    1.9230   -0.7202   -0.2968 H   0  0  0  0  0  0  0  0  0  0  0  0
    0.1513   -2.0497    1.8302 H   0  0  0  0  0  0  0  0  0  0  0  0
    1.9131   -2.0497    1.8302 H   0  0  0  0  0  0  0  0  0  0  0  0
    1.0322   -4.2127    0.8877 H   0  0  0  0  0  0  0  0  0  0  0  0
  1  2  2  3
  1  4  1  0
  1 15  1  0
  2  3  1  0
  2  5  1  0
  3  6  1  0
  3  7  1  0
  3  8  1  0
  9 10  1  0
  9 16  1  0
  9 17  1  0
 10 11  1  0
 11 12  1  0
 11 18  1  0
 11 19  1  0
 12 13  1  0
 12 20  1  0
 12 21  1  0
 13 14  2  0
 13 22  1  0
M  RAD  1   9   2
M  END
>  <reaction>  (12) 
rmg_rxn_1344

>  <mol_properties>  (12) 
{"0": {"label": "*1", "atom_type": "Cd"}, "1": {"label": "*0", "atom_type": "Cd"}, "8": {"label": "*3", "atom_type": "Cs"}, "9": {"label": "*4", "atom_type": "O2s"}, "14": {"label": "*2", "atom_type": "H0"}}

>  <type>  (12) 
unop_8

>  <geom_source>  (12) 
Heuristics

$$$$

     RDKit          3D

 22 20  0  0  0  0  0  0  0  0999 V2000
   -1.2160    2.2586   -0.7130 C   0  0  0  0  0  0  0  0  0  0  0  0
   -1.8046    1.1653   -1.2129 C   0  0  0  0  0  0  0  0  0  0  0  0
   -2.7733    1.1801   -2.3495 C   0  0  0  0  0  0  0  0  0  0  0  0
   -1.4128    3.2478   -1.1147 H   0  0  0  0  0  0  0  0  0  0  0  0
   -1.5765    0.1948   -0.7779 H   0  0  0  0  0  0  0  0  0  0  0  0
   -2.3923    0.5671   -3.1720 H   0  0  0  0  0  0  0  0  0  0  0  0
   -2.9041    2.2033   -2.7145 H   0  0  0  0  0  0  0  0  0  0  0  0
   -3.7553    0.7922   -2.0606 H   0  0  0  0  0  0  0  0  0  0  0  0
    0.9295    2.0628    0.7710 C   0  0  0  0  0  3  0  0  0  0  0  0
    0.9295    0.8334    1.4862 O   0  0  0  0  0  0  0  0  0  0  0  0
    0.9295   -0.2870    0.5994 C   0  0  0  0  0  0  0  0  0  0  0  0
    0.9295   -1.5517    1.4374 C   0  0  0  0  0  0  0  0  0  0  0  0
    0.9295   -2.7904    0.5862 C   0  0  0  0  0  0  0  0  0  0  0  0
    0.9295   -2.7904   -0.6406 O   0  0  0  0  0  0  0  0  0  0  0  0
   -0.1474    2.1611    0.0261 H   0  0  0  0  0  0  0  0  0  0  0  0
    1.8269    2.1447    0.1502 H   0  0  0  0  0  0  0  0  0  0  0  0
    0.9295    2.8819    1.4950 H   0  0  0  0  0  0  0  0  0  0  0  0
    0.0387   -0.2493   -0.0390 H   0  0  0  0  0  0  0  0  0  0  0  0
    1.8202   -0.2493   -0.0390 H   0  0  0  0  0  0  0  0  0  0  0  0
    0.0486   -1.5788    2.0879 H   0  0  0  0  0  0  0  0  0  0  0  0
    1.8104   -1.5788    2.0879 H   0  0  0  0  0  0  0  0  0  0  0  0
    0.9295   -3.7418    1.1454 H   0  0  0  0  0  0  0  0  0  0  0  0
  1  2  2  3
  1  4  1  0
  1 15  1  0
  2  3  1  0
  2  5  1  0
  3  6  1  0
  3  7  1  0
  3  8  1  0
  9 10  1  0
  9 16  1  0
  9 17  1  0
 10 11  1  0
 11 12  1  0
 11 18  1  0
 11 19  1  0
 12 13  1  0
 12 20  1  0
 12 21  1  0
 13 14  2  0
 13 22  1  0
M  RAD  1   9   2
M  END
>  <reaction>  (13) 
rmg_rxn_1344

>  <mol_properties>  (13) 
{"0": {"label": "*1", "atom_type": "Cd"}, "1": {"label": "*0", "atom_type": "Cd"}, "8": {"label": "*3", "atom_type": "Cs"}, "9": {"label": "*4", "atom_type": "O2s"}, "14": {"label": "*2", "atom_type": "H0"}}

>  <type>  (13) 
unop_9

>  <geom_source>  (13) 
Heuristics

$$$$

     RDKit          3D

 22 20  0  0  0  0  0  0  0  0999 V2000
   -1.0533    1.9380   -1.0146 C   0  0  0  0  0  0  0  0  0  0  0  0
   -2.2723    1.9132   -0.4622 C   0  0  0  0  0  0  0  0  0  0  0  0
   -3.4515    2.6555   -0.9995 C   0  0  0  0  0  0  0  0  0  0  0  0
   -0.8434    2.5147   -1.9101 H   0  0  0  0  0  0  0  0  0  0  0  0
   -2.4353    1.3208    0.4355 H   0  0  0  0  0  0  0  0  0  0  0  0
   -4.2528    1.9529   -1.2477 H   0  0  0  0  0  0  0  0  0  0  0  0
   -3.1703    3.1930   -1.9102 H   0  0  0  0  0  0  0  0  0  0  0  0
   -3.8446    3.3822   -0.2815 H   0  0  0  0  0  0  0  0  0  0  0  0
    1.0922    1.7422    0.4694 C   0  0  0  0  0  3  0  0  0  0  0  0
    1.0922    0.5128    1.1846 O   0  0  0  0  0  0  0  0  0  0  0  0
    1.0921   -0.6076    0.2978 C   0  0  0  0  0  0  0  0  0  0  0  0
    1.0922   -1.8724    1.1359 C   0  0  0  0  0  0  0  0  0  0  0  0
    1.0922   -3.1110    0.2846 C   0  0  0  0  0  0  0  0  0  0  0  0
    1.0922   -3.1110   -0.9422 O   0  0  0  0  0  0  0  0  0  0  0  0
    0.0153    1.8405   -0.2755 H   0  0  0  0  0  0  0  0  0  0  0  0
    1.9896    1.8241   -0.1513 H   0  0  0  0  0  0  0  0  0  0  0  0
    1.0922    2.5613    1.1935 H   0  0  0  0  0  0  0  0  0  0  0  0
    0.2014   -0.5699   -0.3406 H   0  0  0  0  0  0  0  0  0  0  0  0
    1.9829   -0.5699   -0.3406 H   0  0  0  0  0  0  0  0  0  0  0  0
    0.2112   -1.8994    1.7864 H   0  0  0  0  0  0  0  0  0  0  0  0
    1.9731   -1.8994    1.7864 H   0  0  0  0  0  0  0  0  0  0  0  0
    1.0921   -4.0624    0.8438 H   0  0  0  0  0  0  0  0  0  0  0  0
  1  2  2  3
  1  4  1  0
  1 15  1  0
  2  3  1  0
  2  5  1  0
  3  6  1  0
  3  7  1  0
  3  8  1  0
  9 10  1  0
  9 16  1  0
  9 17  1  0
 10 11  1  0
 11 12  1  0
 11 18  1  0
 11 19  1  0
 12 13  1  0
 12 20  1  0
 12 21  1  0
 13 14  2  0
 13 22  1  0
M  RAD  1   9   2
M  END
>  <reaction>  (14) 
rmg_rxn_1344

>  <mol_properties>  (14) 
{"0": {"label": "*1", "atom_type": "Cd"}, "1": {"label": "*0", "atom_type": "Cd"}, "8": {"label": "*3", "atom_type": "Cs"}, "9": {"label": "*4", "atom_type": "O2s"}, "14": {"label": "*2", "atom_type": "H0"}}

>  <type>  (14) 
unop_10

>  <geom_source>  (14) 
Heuristics

$$$$

     RDKit          3D

 22 20  0  0  0  0  0  0  0  0999 V2000
   -1.3274    1.7730   -0.6500 C   0  0  0  0  0  0  0  0  0  0  0  0
   -1.3056    2.4624   -1.7972 C   0  0  0  0  0  0  0  0  0  0  0  0
   -2.4451    3.2847   -2.3029 C   0  0  0  0  0  0  0  0  0  0  0  0
   -2.1979    1.7704   -0.0014 H   0  0  0  0  0  0  0  0  0  0  0  0
   -0.4106    2.4352   -2.4149 H   0  0  0  0  0  0  0  0  0  0  0  0
   -2.1308    4.3265   -2.4180 H   0  0  0  0  0  0  0  0  0  0  0  0
   -3.2740    3.2518   -1.5894 H   0  0  0  0  0  0  0  0  0  0  0  0
   -2.8132    2.9299   -3.2708 H   0  0  0  0  0  0  0  0  0  0  0  0
    0.8180    1.5772    0.8340 C   0  0  0  0  0  3  0  0  0  0  0  0
    0.8180    0.3478    1.5492 O   0  0  0  0  0  0  0  0  0  0  0  0
    0.8180   -0.7726    0.6624 C   0  0  0  0  0  0  0  0  0  0  0  0
    0.8180   -2.0374    1.5005 C   0  0  0  0  0  0  0  0  0  0  0  0
    0.8180   -3.2760    0.6492 C   0  0  0  0  0  0  0  0  0  0  0  0
    0.8180   -3.2760   -0.5776 O   0  0  0  0  0  0  0  0  0  0  0  0
   -0.2589    1.6755    0.0891 H   0  0  0  0  0  0  0  0  0  0  0  0
    1.7155    1.6591    0.2133 H   0  0  0  0  0  0  0  0  0  0  0  0
    0.8180    2.3963    1.5581 H   0  0  0  0  0  0  0  0  0  0  0  0
   -0.0727   -0.7349    0.0240 H   0  0  0  0  0  0  0  0  0  0  0  0
    1.7088   -0.7349    0.0240 H   0  0  0  0  0  0  0  0  0  0  0  0
   -0.0629   -2.0644    2.1510 H   0  0  0  0  0  0  0  0  0  0  0  0
    1.6989   -2.0644    2.1510 H   0  0  0  0  0  0  0  0  0  0  0  0
    0.8180   -4.2274    1.2084 H   0  0  0  0  0  0  0  0  0  0  0  0
  1  2  2  3
  1  4  1  0
  1 15  1  0
  2  3  1  0
  2  5  1  0
  3  6  1  0
  3  7  1  0
  3  8  1  0
  9 10  1  0
  9 16  1  0
  9 17  1  0
 10 11  1  0
 11 12  1  0
 11 18  1  0
 11 19  1  0
 12 13  1  0
 12 20  1  0
 12 21  1  0
 13 14  2  0
 13 22  1  0
M  RAD  1   9   2
M  END
>  <reaction>  (15) 
rmg_rxn_1344

>  <mol_properties>  (15) 
{"0": {"label": "*1", "atom_type": "Cd"}, "1": {"label": "*0", "atom_type": "Cd"}, "8": {"label": "*3", "atom_type": "Cs"}, "9": {"label": "*4", "atom_type": "O2s"}, "14": {"label": "*2", "atom_type": "H0"}}

>  <type>  (15) 
unop_11

>  <geom_source>  (15) 
Heuristics

$$$$

     RDKit          3D

 22 20  0  0  0  0  0  0  0  0999 V2000
   -1.1110    2.2315   -0.8573 C   0  0  0  0  0  0  0  0  0  0  0  0
   -2.0248    1.2535   -0.8720 C   0  0  0  0  0  0  0  0  0  0  0  0
   -3.2746    1.2859   -1.6889 C   0  0  0  0  0  0  0  0  0  0  0  0
   -1.2269    3.1307   -1.4545 H   0  0  0  0  0  0  0  0  0  0  0  0
   -1.8659    0.3706   -0.2568 H   0  0  0  0  0  0  0  0  0  0  0  0
   -3.2917    0.4359   -2.3778 H   0  0  0  0  0  0  0  0  0  0  0  0
   -3.3110    2.2074   -2.2779 H   0  0  0  0  0  0  0  0  0  0  0  0
   -4.1752    1.2411   -1.0684 H   0  0  0  0  0  0  0  0  0  0  0  0
    1.0344    2.0357    0.6266 C   0  0  0  0  0  3  0  0  0  0  0  0
    1.0344    0.8063    1.3418 O   0  0  0  0  0  0  0  0  0  0  0  0
    1.0344   -0.3141    0.4551 C   0  0  0  0  0  0  0  0  0  0  0  0
    1.0344   -1.5788    1.2931 C   0  0  0  0  0  0  0  0  0  0  0  0
    1.0344   -2.8175    0.4418 C   0  0  0  0  0  0  0  0  0  0  0  0
    1.0344   -2.8175   -0.7849 O   0  0  0  0  0  0  0  0  0  0  0  0
   -0.0425    2.1340   -0.1183 H   0  0  0  0  0  0  0  0  0  0  0  0
    1.9319    2.1176    0.0059 H   0  0  0  0  0  0  0  0  0  0  0  0
    1.0344    2.8548    1.3507 H   0  0  0  0  0  0  0  0  0  0  0  0
    0.1437   -0.2764   -0.1834 H   0  0  0  0  0  0  0  0  0  0  0  0
    1.9252   -0.2764   -0.1834 H   0  0  0  0  0  0  0  0  0  0  0  0
    0.1535   -1.6059    1.9436 H   0  0  0  0  0  0  0  0  0  0  0  0
    1.9153   -1.6059    1.9436 H   0  0  0  0  0  0  0  0  0  0  0  0
    1.0344   -3.7689    1.0011 H   0  0  0  0  0  0  0  0  0  0  0  0
  1  2  2  3
  1  4  1  0
  1 15  1  0
  2  3  1  0
  2  5  1  0
  3  6  1  0
  3  7  1  0
  3  8  1  0
  9 10  1  0
  9 16  1  0
  9 17  1  0
 10 11  1  0
 11 12  1  0
 11 18  1  0
 11 19  1  0
 12 13  1  0
 12 20  1  0
 12 21  1  0
 13 14  2  0
 13 22  1  0
M  RAD  1   9   2
M  END
>  <reaction>  (16) 
rmg_rxn_1344

>  <mol_properties>  (16) 
{"0": {"label": "*1", "atom_type": "Cd"}, "1": {"label": "*0", "atom_type": "Cd"}, "8": {"label": "*3", "atom_type": "Cs"}, "9": {"label": "*4", "atom_type": "O2s"}, "14": {"label": "*2", "atom_type": "H0"}}

>  <type>  (16) 
unop_12

>  <geom_source>  (16) 
Heuristics

$$$$

     RDKit          3D

 22 20  0  0  0  0  0  0  0  0999 V2000
   -1.2708   -0.1037   -1.2212 O   0  0  0  0  0  0  0  0  0  0  0  0
   -4.5586   -0.2075    1.5377 O   0  0  0  0  0  0  0  0  0  0  0  0
   -2.9826    0.9033    0.1674 C   0  0  0  0  0  0  0  0  0  0  0  0
   -1.9800   -0.2437   -0.0097 C   0  0  0  0  0  0  0  0  0  0  0  0
    4.0529   -1.3436   -0.0099 C   0  0  0  0  0  0  0  0  0  0  0  0
    3.0379   -0.3560   -0.4958 C   0  0  0  0  0  0  0  0  0  0  0  0
   -3.7845    0.7294    1.4221 C   0  0  0  0  0  0  0  0  0  0  0  0
    1.9019   -0.1477    0.1725 C   0  0  0  0  0  0  0  0  0  0  0  0
   -0.1816    0.7531   -0.9992 C   0  0  0  0  0  3  0  0  0  0  0  0
   -2.4368    1.8693    0.2232 H   0  0  0  0  0  0  0  0  0  0  0  0
   -3.6699    0.9409   -0.7052 H   0  0  0  0  0  0  0  0  0  0  0  0
   -1.3062   -0.3228    0.8784 H   0  0  0  0  0  0  0  0  0  0  0  0
   -2.5425   -1.2007   -0.0605 H   0  0  0  0  0  0  0  0  0  0  0  0
    4.9178   -1.3641   -0.7054 H   0  0  0  0  0  0  0  0  0  0  0  0
    3.6037   -2.3583    0.0345 H   0  0  0  0  0  0  0  0  0  0  0  0
    4.4112   -1.0533    1.0003 H   0  0  0  0  0  0  0  0  0  0  0  0
    3.2286    0.2010   -1.4078 H   0  0  0  0  0  0  0  0  0  0  0  0
   -3.6896    1.4481    2.2296 H   0  0  0  0  0  0  0  0  0  0  0  0
    1.6845   -0.6905    1.0876 H   0  0  0  0  0  0  0  0  0  0  0  0
    1.0810    0.6726   -0.2496 H   0  0  0  0  0  0  0  0  0  0  0  0
    0.7622    0.2235   -1.2443 H   0  0  0  0  0  0  0  0  0  0  0  0
   -0.2786    1.6506   -1.6447 H   0  0  0  0  0  0  0  0  0  0  0  0
  1  9  1  0
  1  4  1  0
  2  7  2  0
  3  7  1  0
  3  4  1  0
  3 10  1  0
  3 11  1  0
  4 12  1  0
  4 13  1  0
  5  6  1  0
  5 14  1  0
  5 15  1  0
  5 16  1  0
  6  8  2  3
  6 17  1  0
  7 18  1  0
  8 19  1  0
  8 20  1  0
  9 21  1  0
  9 22  1  0
M  RAD  1   9   2
M  END
>  <reaction>  (17) 
rmg_rxn_1344

>  <mol_properties>  (17) 
{"0": {"label": "*1", "atom_type": "Cd"}, "1": {"label": "*0", "atom_type": "Cd"}, "8": {"label": "*3", "atom_type": "Cs"}, "9": {"label": "*4", "atom_type": "O2s"}, "14": {"label": "*2", "atom_type": "H0"}}

>  <type>  (17) 
unop_13

>  <geom_source>  (17) 
AutoTST

$$$$

     RDKit          3D

 22 20  0  0  0  0  0  0  0  0999 V2000
   -1.0497    2.1074   -0.9732 C   0  0  0  0  0  0  0  0  0  0  0  0
   -2.1942    1.5205   -0.6026 C   0  0  0  0  0  0  0  0  0  0  0  0
   -3.5355    1.8746   -1.1558 C   0  0  0  0  0  0  0  0  0  0  0  0
   -1.0275    2.8970   -1.7179 H   0  0  0  0  0  0  0  0  0  0  0  0
   -2.1674    0.7333    0.1477 H   0  0  0  0  0  0  0  0  0  0  0  0
   -3.9873    0.9972   -1.6282 H   0  0  0  0  0  0  0  0  0  0  0  0
   -3.4315    2.6581   -1.9125 H   0  0  0  0  0  0  0  0  0  0  0  0
   -4.2195    2.2361   -0.3814 H   0  0  0  0  0  0  0  0  0  0  0  0
    1.0957    1.9116    0.5108 C   0  0  0  0  0  3  0  0  0  0  0  0
    1.0957    0.6822    1.2260 O   0  0  0  0  0  0  0  0  0  0  0  0
    1.0957   -0.4382    0.3392 C   0  0  0  0  0  0  0  0  0  0  0  0
    1.0957   -1.7030    1.1773 C   0  0  0  0  0  0  0  0  0  0  0  0
    1.0957   -2.9416    0.3260 C   0  0  0  0  0  0  0  0  0  0  0  0
    1.0957   -2.9416   -0.9008 O   0  0  0  0  0  0  0  0  0  0  0  0
    0.0188    2.0099   -0.2341 H   0  0  0  0  0  0  0  0  0  0  0  0
    1.9932    1.9935   -0.1099 H   0  0  0  0  0  0  0  0  0  0  0  0
    1.0958    2.7307    1.2349 H   0  0  0  0  0  0  0  0  0  0  0  0
    0.2050   -0.4005   -0.2992 H   0  0  0  0  0  0  0  0  0  0  0  0
    1.9865   -0.4005   -0.2992 H   0  0  0  0  0  0  0  0  0  0  0  0
    0.2148   -1.7301    1.8278 H   0  0  0  0  0  0  0  0  0  0  0  0
    1.9767   -1.7301    1.8278 H   0  0  0  0  0  0  0  0  0  0  0  0
    1.0957   -3.8931    0.8852 H   0  0  0  0  0  0  0  0  0  0  0  0
  1  2  2  3
  1  4  1  0
  1 15  1  0
  2  3  1  0
  2  5  1  0
  3  6  1  0
  3  7  1  0
  3  8  1  0
  9 10  1  0
  9 16  1  0
  9 17  1  0
 10 11  1  0
 11 12  1  0
 11 18  1  0
 11 19  1  0
 12 13  1  0
 12 20  1  0
 12 21  1  0
 13 14  2  0
 13 22  1  0
M  RAD  1   9   2
M  END
>  <reaction>  (18) 
rmg_rxn_1344

>  <mol_properties>  (18) 
{"0": {"label": "*1", "atom_type": "Cd"}, "1": {"label": "*0", "atom_type": "Cd"}, "8": {"label": "*3", "atom_type": "Cs"}, "9": {"label": "*4", "atom_type": "O2s"}, "14": {"label": "*2", "atom_type": "H0"}}

>  <type>  (18) 
unop_14

>  <geom_source>  (18) 
gaussian_log

$$$$
