
     RDKit          3D

 14 14  0  0  0  0  0  0  0  0999 V2000
   -1.1778    0.2241    0.1818 C   0  0  0  0  0  0  0  0  0  0  0  0
   -0.5633   -1.1636    0.0678 C   0  0  0  0  0  0  0  0  0  0  0  0
    0.6943   -1.1996    0.7146 O   0  0  0  0  0  0  0  0  0  0  0  0
    1.5547   -0.2288    0.2011 C   0  0  0  0  0  0  0  0  0  0  0  0
    1.0729    1.0696    0.3698 O   0  0  0  0  0  0  0  0  0  0  0  0
   -0.1607    1.2493   -0.2989 C   0  0  0  0  0  0  0  0  0  0  0  0
   -2.0927    0.2866   -0.4117 H   0  0  0  0  0  0  0  0  0  0  0  0
   -1.4303    0.4248    1.2248 H   0  0  0  0  0  0  0  0  0  0  0  0
   -1.1822   -1.9235    0.5431 H   0  0  0  0  0  0  0  0  0  0  0  0
   -0.4389   -1.4347   -0.9919 H   0  0  0  0  0  0  0  0  0  0  0  0
    1.7250   -0.4207   -0.8742 H   0  0  0  0  0  0  0  0  0  0  0  0
    2.4896   -0.3010    0.7524 H   0  0  0  0  0  0  0  0  0  0  0  0
   -0.0080    1.1481   -1.3844 H   0  0  0  0  0  0  0  0  0  0  0  0
   -0.4826    2.2695   -0.0942 H   0  0  0  0  0  0  0  0  0  0  0  0
  1  2  1  0
  1  6  1  0
  1  7  1  0
  1  8  1  0
  2  3  1  0
  2  9  1  0
  2 10  1  0
  3  4  1  0
  4  5  1  0
  4 11  1  0
  4 12  1  0
  5  6  1  0
  6 13  1  0
  6 14  1  0
M  END
>  <reaction>  (1) 
rmg_rxn_43

>  <mol_properties>  (1) 
{"3": {"label": "donator", "atom_type": "Cs"}, "10": {"label": "d_hydrogen", "atom_type": "H0"}}

>  <type>  (1) 
r1h

$$$$

     RDKit          3D

 13 12  0  0  0  0  0  0  0  0999 V2000
    1.9060    0.2628    0.3980 C   0  0  0  0  0  0  0  0  0  0  0  0
    0.6330   -0.4250    0.0685 C   0  0  0  0  0  3  0  0  0  0  0  0
   -0.2610   -0.9325    1.1416 C   0  0  0  0  0  0  0  0  0  0  0  0
   -1.4364   -1.7546    0.6268 C   0  0  0  0  0  0  0  0  0  0  0  0
    2.4899   -0.3070    1.1292 H   0  0  0  0  0  0  0  0  0  0  0  0
    1.7297    1.2496    0.8515 H   0  0  0  0  0  0  0  0  0  0  0  0
    2.5269    0.4197   -0.4845 H   0  0  0  0  0  0  0  0  0  0  0  0
    0.2597   -0.3936   -0.9489 H   0  0  0  0  0  0  0  0  0  0  0  0
   -0.6439   -0.0868    1.7356 H   0  0  0  0  0  0  0  0  0  0  0  0
    0.3260   -1.5277    1.8536 H   0  0  0  0  0  0  0  0  0  0  0  0
   -1.0872   -2.6320    0.0792 H   0  0  0  0  0  0  0  0  0  0  0  0
   -2.0701   -2.0976    1.4459 H   0  0  0  0  0  0  0  0  0  0  0  0
   -2.0561   -1.1637   -0.0512 H   0  0  0  0  0  0  0  0  0  0  0  0
  1  2  1  0
  1  5  1  0
  1  6  1  0
  1  7  1  0
  2  3  1  0
  2  8  1  0
  3  4  1  0
  3  9  1  0
  3 10  1  0
  4 11  1  0
  4 12  1  0
  4 13  1  0
M  RAD  1   2   2
M  END
>  <reaction>  (2) 
rmg_rxn_43

>  <mol_properties>  (2) 
{"1": {"label": "acceptor", "atom_type": "Cs"}}

>  <type>  (2) 
r2

$$$$

     RDKit          3D

 14 13  0  0  0  0  0  0  0  0999 V2000
    1.8106   -0.5953    0.5577 C   0  0  0  0  0  0  0  0  0  0  0  0
    0.5197    0.2064    0.6554 C   0  0  0  0  0  0  0  0  0  0  0  0
   -0.5206   -0.2080   -0.3788 C   0  0  0  0  0  0  0  0  0  0  0  0
   -1.8114    0.5937   -0.2812 C   0  0  0  0  0  0  0  0  0  0  0  0
    2.2725   -0.4752   -0.4251 H   0  0  0  0  0  0  0  0  0  0  0  0
    1.6214   -1.6612    0.7052 H   0  0  0  0  0  0  0  0  0  0  0  0
    2.5364   -0.2784    1.3084 H   0  0  0  0  0  0  0  0  0  0  0  0
    0.0930    0.0950    1.6574 H   0  0  0  0  0  0  0  0  0  0  0  0
    0.7393    1.2723    0.5354 H   0  0  0  0  0  0  0  0  0  0  0  0
   -0.7402   -1.2739   -0.2588 H   0  0  0  0  0  0  0  0  0  0  0  0
   -0.0938   -0.0965   -1.3808 H   0  0  0  0  0  0  0  0  0  0  0  0
   -1.6222    1.6596   -0.4287 H   0  0  0  0  0  0  0  0  0  0  0  0
   -2.2734    0.4736    0.7017 H   0  0  0  0  0  0  0  0  0  0  0  0
   -2.5373    0.2768   -1.0318 H   0  0  0  0  0  0  0  0  0  0  0  0
  1  2  1  0
  1  5  1  0
  1  6  1  0
  1  7  1  0
  2  3  1  0
  2  8  1  0
  2  9  1  0
  3  4  1  0
  3 10  1  0
  3 11  1  0
  4 12  1  0
  4 13  1  0
  4 14  1  0
M  END
>  <reaction>  (3) 
rmg_rxn_43

>  <mol_properties>  (3) 
{"0": {"label": "a_hydrogen", "atom_type": "H0"}, "2": {"label": "acceptor", "atom_type": "Cs"}}

>  <type>  (3) 
r2h

$$$$

     RDKit          3D

 27 26  0  0  0  0  0  0  0  0999 V2000
   -0.6090   -2.4243   -0.6214 C   0  0  0  0  0  0  0  0  0  0  0  0
   -0.9306   -1.5752    0.5983 C   0  0  0  0  0  0  0  0  0  0  0  0
   -1.6251   -0.4007    0.2110 O   0  0  0  0  0  0  0  0  0  0  0  0
   -0.9425    0.3199   -0.7509 C   0  0  0  0  0  0  0  0  0  0  0  0
   -0.6543   -0.3818   -1.9056 O   0  0  0  0  0  0  0  0  0  0  0  0
    0.0993   -1.5551   -1.6487 C   0  0  0  0  0  0  0  0  0  0  0  0
    0.0218   -3.2701   -0.3397 H   0  0  0  0  0  0  0  0  0  0  0  0
   -1.5348   -2.8142   -1.0493 H   0  0  0  0  0  0  0  0  0  0  0  0
   -1.5779   -2.0986    1.3003 H   0  0  0  0  0  0  0  0  0  0  0  0
   -0.0073   -1.2928    1.1216 H   0  0  0  0  0  0  0  0  0  0  0  0
    0.2254    0.7308   -0.2292 H   0  0  0  0  0  0  0  0  0  0  0  0
   -1.5213    1.2039   -1.0081 H   0  0  0  0  0  0  0  0  0  0  0  0
    1.0965   -1.2735   -1.2847 H   0  0  0  0  0  0  0  0  0  0  0  0
    0.2125   -2.0645   -2.6044 H   0  0  0  0  0  0  0  0  0  0  0  0
    2.0634    1.8164   -1.0226 C   0  0  0  0  0  0  0  0  0  0  0  0
    1.4375    1.2291    0.2142 C   0  0  0  0  0  3  0  0  0  0  0  0
    1.0710    2.1979    1.3091 C   0  0  0  0  0  0  0  0  0  0  0  0
    0.4019    1.5271    2.5027 C   0  0  0  0  0  0  0  0  0  0  0  0
    3.0343    2.2760   -0.8044 H   0  0  0  0  0  0  0  0  0  0  0  0
    1.4253    2.5940   -1.4509 H   0  0  0  0  0  0  0  0  0  0  0  0
    2.2207    1.0580   -1.7919 H   0  0  0  0  0  0  0  0  0  0  0  0
    1.9678    0.3509    0.5902 H   0  0  0  0  0  0  0  0  0  0  0  0
    0.4071    2.9669    0.8986 H   0  0  0  0  0  0  0  0  0  0  0  0
    1.9711    2.7311    1.6440 H   0  0  0  0  0  0  0  0  0  0  0  0
    1.0575    0.7689    2.9388 H   0  0  0  0  0  0  0  0  0  0  0  0
    0.1640    2.2498    3.2846 H   0  0  0  0  0  0  0  0  0  0  0  0
   -0.5259    1.0358    2.2028 H   0  0  0  0  0  0  0  0  0  0  0  0
  1  2  1  0
  1  6  1  0
  1  7  1  0
  1  8  1  0
  2  3  1  0
  2  9  1  0
  2 10  1  0
  3  4  1  0
  4  5  1  0
  4 11  1  0
  4 12  1  0
  5  6  1  0
  6 13  1  0
  6 14  1  0
 15 16  1  0
 15 19  1  0
 15 20  1  0
 15 21  1  0
 16 17  1  0
 16 22  1  0
 17 18  1  0
 17 23  1  0
 17 24  1  0
 18 25  1  0
 18 26  1  0
 18 27  1  0
M  RAD  1  16   2
M  END
>  <reaction>  (4) 
rmg_rxn_43

>  <mol_properties>  (4) 
{"2": {"label": "*0", "atom_type": "O2s"}, "3": {"label": "*1", "atom_type": "Cs"}, "10": {"label": "*2", "atom_type": "H0"}, "15": {"label": "*3", "atom_type": "Cs"}, "16": {"label": "*4", "atom_type": "Cs"}}

>  <type>  (4) 
ts

$$$$

     RDKit          3D

 27 26  0  0  0  0  0  0  0  0999 V2000
   -0.2354   -2.2139   -1.2743 C   0  0  0  0  0  0  0  0  0  0  0  0
   -0.2354   -2.2139    0.2477 C   0  0  0  0  0  0  0  0  0  0  0  0
   -1.2837   -1.4013    0.7398 O   0  0  0  0  0  0  0  0  0  0  0  0
   -1.1928   -0.1018    0.2405 C   0  0  0  0  0  3  0  0  0  0  0  0
   -1.2837   -0.0456   -1.1505 O   0  0  0  0  0  0  0  0  0  0  0  0
   -0.2354   -0.7723   -1.7624 C   0  0  0  0  0  0  0  0  0  0  0  0
    0.6386   -2.7464   -1.6562 H   0  0  0  0  0  0  0  0  0  0  0  0
   -1.1320   -2.7201   -1.6373 H   0  0  0  0  0  0  0  0  0  0  0  0
   -0.3943   -3.2115    0.6551 H   0  0  0  0  0  0  0  0  0  0  0  0
    0.7282   -1.8380    0.6245 H   0  0  0  0  0  0  0  0  0  0  0  0
   -0.0464    0.4407    0.6296 H   0  0  0  0  0  0  0  0  0  0  0  0
   -2.0338    0.4587    0.6425 H   0  0  0  0  0  0  0  0  0  0  0  0
    0.7282   -0.2949   -1.5271 H   0  0  0  0  0  0  0  0  0  0  0  0
   -0.3943   -0.7064   -2.8379 H   0  0  0  0  0  0  0  0  0  0  0  0
    2.2477    0.0923    0.5772 C   0  0  0  0  0  0  0  0  0  0  0  0
    1.0889    0.9779    1.0149 C   0  0  0  0  0  0  0  0  0  0  0  0
    1.1810    2.3969    0.4658 C   0  0  0  0  0  0  0  0  0  0  0  0
    0.0223    3.2825    0.9035 C   0  0  0  0  0  0  0  0  0  0  0  0
    3.2028    0.5030    0.9133 H   0  0  0  0  0  0  0  0  0  0  0  0
    2.2885    0.0109   -0.5116 H   0  0  0  0  0  0  0  0  0  0  0  0
    2.1567   -0.9162    0.9838 H   0  0  0  0  0  0  0  0  0  0  0  0
    1.0504    1.0186    2.1082 H   0  0  0  0  0  0  0  0  0  0  0  0
    1.2196    2.3562   -0.6276 H   0  0  0  0  0  0  0  0  0  0  0  0
    2.1271    2.8446    0.7869 H   0  0  0  0  0  0  0  0  0  0  0  0
   -0.0186    3.3639    1.9923 H   0  0  0  0  0  0  0  0  0  0  0  0
    0.1133    4.2910    0.4968 H   0  0  0  0  0  0  0  0  0  0  0  0
   -0.9328    2.8719    0.5673 H   0  0  0  0  0  0  0  0  0  0  0  0
  1  2  1  0
  1  6  1  0
  1  7  1  0
  1  8  1  0
  2  3  1  0
  2  9  1  0
  2 10  1  0
  3  4  1  0
  4  5  1  0
  4 12  1  0
  5  6  1  0
  6 13  1  0
  6 14  1  0
 11 16  1  0
 15 16  1  0
 15 19  1  0
 15 20  1  0
 15 21  1  0
 16 17  1  0
 16 22  1  0
 17 18  1  0
 17 23  1  0
 17 24  1  0
 18 25  1  0
 18 26  1  0
 18 27  1  0
M  RAD  1   4   2
M  END
>  <reaction>  (5) 
rmg_rxn_43

>  <mol_properties>  (5) 
{"2": {"label": "*0", "atom_type": "O2s"}, "3": {"label": "*1", "atom_type": "Cs"}, "10": {"label": "*2", "atom_type": "H0"}, "15": {"label": "*3", "atom_type": "Cs"}, "16": {"label": "*4", "atom_type": "Cs"}}

>  <type>  (5) 
unop_1

>  <geom_source>  (5) 
Heuristics

$$$$

     RDKit          3D

 27 26  0  0  0  0  0  0  0  0999 V2000
   -0.4475   -1.7638   -1.2735 C   0  0  0  0  0  0  0  0  0  0  0  0
   -0.4475   -1.7638    0.2486 C   0  0  0  0  0  0  0  0  0  0  0  0
   -1.4958   -0.9512    0.7407 O   0  0  0  0  0  0  0  0  0  0  0  0
   -1.4049    0.3484    0.2414 C   0  0  0  0  0  3  0  0  0  0  0  0
   -1.4958    0.4046   -1.1497 O   0  0  0  0  0  0  0  0  0  0  0  0
   -0.4475   -0.3221   -1.7616 C   0  0  0  0  0  0  0  0  0  0  0  0
    0.4265   -2.2962   -1.6553 H   0  0  0  0  0  0  0  0  0  0  0  0
   -1.3441   -2.2699   -1.6365 H   0  0  0  0  0  0  0  0  0  0  0  0
   -0.6065   -2.7613    0.6559 H   0  0  0  0  0  0  0  0  0  0  0  0
    0.5161   -1.3878    0.6253 H   0  0  0  0  0  0  0  0  0  0  0  0
   -0.2585    0.8909    0.6304 H   0  0  0  0  0  0  0  0  0  0  0  0
   -2.2460    0.9089    0.6434 H   0  0  0  0  0  0  0  0  0  0  0  0
    0.5161    0.1553   -1.5263 H   0  0  0  0  0  0  0  0  0  0  0  0
   -0.6065   -0.2562   -2.8370 H   0  0  0  0  0  0  0  0  0  0  0  0
    1.2332    2.1968    2.2809 C   0  0  0  0  0  0  0  0  0  0  0  0
    0.8768    1.4281    1.0157 C   0  0  0  0  0  0  0  0  0  0  0  0
    2.0322    0.5902    0.4803 C   0  0  0  0  0  0  0  0  0  0  0  0
    1.6758   -0.1785   -0.7848 C   0  0  0  0  0  0  0  0  0  0  0  0
    2.0666    2.8803    2.1019 H   0  0  0  0  0  0  0  0  0  0  0  0
    1.5312    1.5158    3.0817 H   0  0  0  0  0  0  0  0  0  0  0  0
    0.3894    2.7871    2.6418 H   0  0  0  0  0  0  0  0  0  0  0  0
    0.5524    2.1286    0.2394 H   0  0  0  0  0  0  0  0  0  0  0  0
    2.3566   -0.1103    1.2567 H   0  0  0  0  0  0  0  0  0  0  0  0
    2.8881    1.2441    0.2841 H   0  0  0  0  0  0  0  0  0  0  0  0
    1.3778    0.5025   -1.5856 H   0  0  0  0  0  0  0  0  0  0  0  0
    2.5196   -0.7687   -1.1457 H   0  0  0  0  0  0  0  0  0  0  0  0
    0.8424   -0.8619   -0.6058 H   0  0  0  0  0  0  0  0  0  0  0  0
  1  2  1  0
  1  6  1  0
  1  7  1  0
  1  8  1  0
  2  3  1  0
  2  9  1  0
  2 10  1  0
  3  4  1  0
  4  5  1  0
  4 12  1  0
  5  6  1  0
  6 13  1  0
  6 14  1  0
 11 16  1  0
 15 16  1  0
 15 19  1  0
 15 20  1  0
 15 21  1  0
 16 17  1  0
 16 22  1  0
 17 18  1  0
 17 23  1  0
 17 24  1  0
 18 25  1  0
 18 26  1  0
 18 27  1  0
M  RAD  1   4   2
M  END
>  <reaction>  (6) 
rmg_rxn_43

>  <mol_properties>  (6) 
{"2": {"label": "*0", "atom_type": "O2s"}, "3": {"label": "*1", "atom_type": "Cs"}, "10": {"label": "*2", "atom_type": "H0"}, "15": {"label": "*3", "atom_type": "Cs"}, "16": {"label": "*4", "atom_type": "Cs"}}

>  <type>  (6) 
unop_2

>  <geom_source>  (6) 
Heuristics

$$$$

     RDKit          3D

 27 26  0  0  0  0  0  0  0  0999 V2000
   -0.1805   -2.2319   -1.4085 C   0  0  0  0  0  0  0  0  0  0  0  0
   -0.1805   -2.2319    0.1136 C   0  0  0  0  0  0  0  0  0  0  0  0
   -1.2288   -1.4193    0.6057 O   0  0  0  0  0  0  0  0  0  0  0  0
   -1.1379   -0.1197    0.1064 C   0  0  0  0  0  3  0  0  0  0  0  0
   -1.2288   -0.0635   -1.2847 O   0  0  0  0  0  0  0  0  0  0  0  0
   -0.1805   -0.7902   -1.8966 C   0  0  0  0  0  0  0  0  0  0  0  0
    0.6935   -2.7643   -1.7903 H   0  0  0  0  0  0  0  0  0  0  0  0
   -1.0771   -2.7380   -1.7715 H   0  0  0  0  0  0  0  0  0  0  0  0
   -0.3394   -3.2294    0.5209 H   0  0  0  0  0  0  0  0  0  0  0  0
    0.7831   -1.8559    0.4903 H   0  0  0  0  0  0  0  0  0  0  0  0
    0.0085    0.4228    0.4954 H   0  0  0  0  0  0  0  0  0  0  0  0
   -1.9789    0.4408    0.5083 H   0  0  0  0  0  0  0  0  0  0  0  0
    0.7831   -0.3128   -1.6613 H   0  0  0  0  0  0  0  0  0  0  0  0
   -0.3394   -0.7243   -2.9720 H   0  0  0  0  0  0  0  0  0  0  0  0
    1.6982    0.5483   -0.4764 C   0  0  0  0  0  0  0  0  0  0  0  0
    1.1438    0.9600    0.8807 C   0  0  0  0  0  0  0  0  0  0  0  0
    0.9610    2.4670    1.0191 C   0  0  0  0  0  0  0  0  0  0  0  0
    0.4067    2.8787    2.3762 C   0  0  0  0  0  0  0  0  0  0  0  0
    2.6741    1.0057   -0.6557 H   0  0  0  0  0  0  0  0  0  0  0  0
    1.0326    0.8642   -1.2833 H   0  0  0  0  0  0  0  0  0  0  0  0
    1.8189   -0.5339   -0.5480 H   0  0  0  0  0  0  0  0  0  0  0  0
    1.8113    0.6058    1.6729 H   0  0  0  0  0  0  0  0  0  0  0  0
    0.2935    2.8211    0.2269 H   0  0  0  0  0  0  0  0  0  0  0  0
    1.9229    2.9616    0.8498 H   0  0  0  0  0  0  0  0  0  0  0  0
    1.0722    2.5628    3.1830 H   0  0  0  0  0  0  0  0  0  0  0  0
    0.2860    3.9608    2.4478 H   0  0  0  0  0  0  0  0  0  0  0  0
   -0.5693    2.4213    2.5555 H   0  0  0  0  0  0  0  0  0  0  0  0
  1  2  1  0
  1  6  1  0
  1  7  1  0
  1  8  1  0
  2  3  1  0
  2  9  1  0
  2 10  1  0
  3  4  1  0
  4  5  1  0
  4 12  1  0
  5  6  1  0
  6 13  1  0
  6 14  1  0
 11 16  1  0
 15 16  1  0
 15 19  1  0
 15 20  1  0
 15 21  1  0
 16 17  1  0
 16 22  1  0
 17 18  1  0
 17 23  1  0
 17 24  1  0
 18 25  1  0
 18 26  1  0
 18 27  1  0
M  RAD  1   4   2
M  END
>  <reaction>  (7) 
rmg_rxn_43

>  <mol_properties>  (7) 
{"2": {"label": "*0", "atom_type": "O2s"}, "3": {"label": "*1", "atom_type": "Cs"}, "10": {"label": "*2", "atom_type": "H0"}, "15": {"label": "*3", "atom_type": "Cs"}, "16": {"label": "*4", "atom_type": "Cs"}}

>  <type>  (7) 
unop_3

>  <geom_source>  (7) 
Heuristics

$$$$

     RDKit          3D

 27 26  0  0  0  0  0  0  0  0999 V2000
   -0.1568   -2.1816   -1.5459 C   0  0  0  0  0  0  0  0  0  0  0  0
   -0.1568   -2.1816   -0.0239 C   0  0  0  0  0  0  0  0  0  0  0  0
   -1.2051   -1.3689    0.4682 O   0  0  0  0  0  0  0  0  0  0  0  0
   -1.1142   -0.0694   -0.0311 C   0  0  0  0  0  3  0  0  0  0  0  0
   -1.2051   -0.0132   -1.4221 O   0  0  0  0  0  0  0  0  0  0  0  0
   -0.1568   -0.7399   -2.0340 C   0  0  0  0  0  0  0  0  0  0  0  0
    0.7172   -2.7140   -1.9278 H   0  0  0  0  0  0  0  0  0  0  0  0
   -1.0534   -2.6877   -1.9089 H   0  0  0  0  0  0  0  0  0  0  0  0
   -0.3158   -3.1791    0.3835 H   0  0  0  0  0  0  0  0  0  0  0  0
    0.8068   -1.8056    0.3528 H   0  0  0  0  0  0  0  0  0  0  0  0
    0.0322    0.4731    0.3580 H   0  0  0  0  0  0  0  0  0  0  0  0
   -1.9553    0.4911    0.3709 H   0  0  0  0  0  0  0  0  0  0  0  0
    0.8068   -0.2625   -1.7987 H   0  0  0  0  0  0  0  0  0  0  0  0
   -0.3158   -0.6740   -3.1095 H   0  0  0  0  0  0  0  0  0  0  0  0
    1.1516    1.2731   -0.7565 C   0  0  0  0  0  0  0  0  0  0  0  0
    1.1675    1.0103    0.7433 C   0  0  0  0  0  0  0  0  0  0  0  0
    0.8743    2.2561    1.5712 C   0  0  0  0  0  0  0  0  0  0  0  0
    0.8902    1.9933    3.0710 C   0  0  0  0  0  0  0  0  0  0  0  0
    1.8990    2.0215   -1.0307 H   0  0  0  0  0  0  0  0  0  0  0  0
    0.1767    1.6475   -1.0779 H   0  0  0  0  0  0  0  0  0  0  0  0
    1.3642    0.3658   -1.3243 H   0  0  0  0  0  0  0  0  0  0  0  0
    2.1427    0.6075    1.0352 H   0  0  0  0  0  0  0  0  0  0  0  0
   -0.1010    2.6590    1.2792 H   0  0  0  0  0  0  0  0  0  0  0  0
    1.6086    3.0302    1.3261 H   0  0  0  0  0  0  0  0  0  0  0  0
    1.8651    1.6190    3.3923 H   0  0  0  0  0  0  0  0  0  0  0  0
    0.6776    2.9006    3.6387 H   0  0  0  0  0  0  0  0  0  0  0  0
    0.1428    1.2449    3.3451 H   0  0  0  0  0  0  0  0  0  0  0  0
  1  2  1  0
  1  6  1  0
  1  7  1  0
  1  8  1  0
  2  3  1  0
  2  9  1  0
  2 10  1  0
  3  4  1  0
  4  5  1  0
  4 12  1  0
  5  6  1  0
  6 13  1  0
  6 14  1  0
 11 16  1  0
 15 16  1  0
 15 19  1  0
 15 20  1  0
 15 21  1  0
 16 17  1  0
 16 22  1  0
 17 18  1  0
 17 23  1  0
 17 24  1  0
 18 25  1  0
 18 26  1  0
 18 27  1  0
M  RAD  1   4   2
M  END
>  <reaction>  (8) 
rmg_rxn_43

>  <mol_properties>  (8) 
{"2": {"label": "*0", "atom_type": "O2s"}, "3": {"label": "*1", "atom_type": "Cs"}, "10": {"label": "*2", "atom_type": "H0"}, "15": {"label": "*3", "atom_type": "Cs"}, "16": {"label": "*4", "atom_type": "Cs"}}

>  <type>  (8) 
unop_4

>  <geom_source>  (8) 
Heuristics

$$$$

     RDKit          3D

 27 26  0  0  0  0  0  0  0  0999 V2000
   -0.2964   -1.8119   -1.6539 C   0  0  0  0  0  0  0  0  0  0  0  0
   -0.2964   -1.8119   -0.1319 C   0  0  0  0  0  0  0  0  0  0  0  0
   -1.3447   -0.9992    0.3602 O   0  0  0  0  0  0  0  0  0  0  0  0
   -1.2538    0.3003   -0.1391 C   0  0  0  0  0  3  0  0  0  0  0  0
   -1.3447    0.3565   -1.5302 O   0  0  0  0  0  0  0  0  0  0  0  0
   -0.2964   -0.3702   -2.1420 C   0  0  0  0  0  0  0  0  0  0  0  0
    0.5775   -2.3443   -2.0358 H   0  0  0  0  0  0  0  0  0  0  0  0
   -1.1930   -2.3180   -2.0169 H   0  0  0  0  0  0  0  0  0  0  0  0
   -0.4554   -2.8094    0.2754 H   0  0  0  0  0  0  0  0  0  0  0  0
    0.6672   -1.4359    0.2448 H   0  0  0  0  0  0  0  0  0  0  0  0
   -0.1074    0.8428    0.2500 H   0  0  0  0  0  0  0  0  0  0  0  0
   -2.0949    0.8608    0.2629 H   0  0  0  0  0  0  0  0  0  0  0  0
    0.6672    0.1072   -1.9067 H   0  0  0  0  0  0  0  0  0  0  0  0
   -0.4554   -0.3043   -3.2175 H   0  0  0  0  0  0  0  0  0  0  0  0
    0.4668    2.7905    0.7544 C   0  0  0  0  0  0  0  0  0  0  0  0
    1.0279    1.3800    0.6352 C   0  0  0  0  0  0  0  0  0  0  0  0
    1.4322    0.7825    1.9780 C   0  0  0  0  0  0  0  0  0  0  0  0
    1.9933   -0.6280    1.8589 C   0  0  0  0  0  0  0  0  0  0  0  0
    1.2012    3.4678    1.1967 H   0  0  0  0  0  0  0  0  0  0  0  0
   -0.4213    2.8060    1.3907 H   0  0  0  0  0  0  0  0  0  0  0  0
    0.1859    3.1934   -0.2201 H   0  0  0  0  0  0  0  0  0  0  0  0
    1.8969    1.3854   -0.0307 H   0  0  0  0  0  0  0  0  0  0  0  0
    0.5632    0.7771    2.6439 H   0  0  0  0  0  0  0  0  0  0  0  0
    2.1738    1.4341    2.4514 H   0  0  0  0  0  0  0  0  0  0  0  0
    2.8814   -0.6435    1.2226 H   0  0  0  0  0  0  0  0  0  0  0  0
    2.2741   -1.0308    2.8333 H   0  0  0  0  0  0  0  0  0  0  0  0
    1.2588   -1.3053    1.4166 H   0  0  0  0  0  0  0  0  0  0  0  0
  1  2  1  0
  1  6  1  0
  1  7  1  0
  1  8  1  0
  2  3  1  0
  2  9  1  0
  2 10  1  0
  3  4  1  0
  4  5  1  0
  4 12  1  0
  5  6  1  0
  6 13  1  0
  6 14  1  0
 11 16  1  0
 15 16  1  0
 15 19  1  0
 15 20  1  0
 15 21  1  0
 16 17  1  0
 16 22  1  0
 17 18  1  0
 17 23  1  0
 17 24  1  0
 18 25  1  0
 18 26  1  0
 18 27  1  0
M  RAD  1   4   2
M  END
>  <reaction>  (9) 
rmg_rxn_43

>  <mol_properties>  (9) 
{"2": {"label": "*0", "atom_type": "O2s"}, "3": {"label": "*1", "atom_type": "Cs"}, "10": {"label": "*2", "atom_type": "H0"}, "15": {"label": "*3", "atom_type": "Cs"}, "16": {"label": "*4", "atom_type": "Cs"}}

>  <type>  (9) 
unop_5

>  <geom_source>  (9) 
Heuristics

$$$$

     RDKit          3D

 27 26  0  0  0  0  0  0  0  0999 V2000
   -0.2235   -1.9391   -1.6890 C   0  0  0  0  0  0  0  0  0  0  0  0
   -0.2235   -1.9391   -0.1670 C   0  0  0  0  0  0  0  0  0  0  0  0
   -1.2718   -1.1265    0.3251 O   0  0  0  0  0  0  0  0  0  0  0  0
   -1.1809    0.1730   -0.1742 C   0  0  0  0  0  3  0  0  0  0  0  0
   -1.2718    0.2292   -1.5652 O   0  0  0  0  0  0  0  0  0  0  0  0
   -0.2235   -0.4975   -2.1771 C   0  0  0  0  0  0  0  0  0  0  0  0
    0.6505   -2.4716   -2.0709 H   0  0  0  0  0  0  0  0  0  0  0  0
   -1.1201   -2.4453   -2.0520 H   0  0  0  0  0  0  0  0  0  0  0  0
   -0.3825   -2.9366    0.2404 H   0  0  0  0  0  0  0  0  0  0  0  0
    0.7401   -1.5632    0.2098 H   0  0  0  0  0  0  0  0  0  0  0  0
   -0.0345    0.7155    0.2149 H   0  0  0  0  0  0  0  0  0  0  0  0
   -2.0220    0.7336    0.2278 H   0  0  0  0  0  0  0  0  0  0  0  0
    0.7401   -0.0201   -1.9418 H   0  0  0  0  0  0  0  0  0  0  0  0
   -0.3825   -0.4315   -3.2526 H   0  0  0  0  0  0  0  0  0  0  0  0
    0.4989    2.5140   -0.0044 C   0  0  0  0  0  0  0  0  0  0  0  0
    1.1008    1.2527    0.6002 C   0  0  0  0  0  0  0  0  0  0  0  0
    1.1465    1.2835    2.1235 C   0  0  0  0  0  0  0  0  0  0  0  0
    1.7484    0.0222    2.7280 C   0  0  0  0  0  0  0  0  0  0  0  0
    1.0754    3.3977    0.2796 H   0  0  0  0  0  0  0  0  0  0  0  0
   -0.5263    2.6635    0.3425 H   0  0  0  0  0  0  0  0  0  0  0  0
    0.4785    2.4652   -1.0943 H   0  0  0  0  0  0  0  0  0  0  0  0
    2.1150    1.1083    0.2141 H   0  0  0  0  0  0  0  0  0  0  0  0
    0.1322    1.4280    2.5095 H   0  0  0  0  0  0  0  0  0  0  0  0
    1.7221    2.1568    2.4471 H   0  0  0  0  0  0  0  0  0  0  0  0
    2.7736   -0.1273    2.3812 H   0  0  0  0  0  0  0  0  0  0  0  0
    1.7688    0.0711    3.8180 H   0  0  0  0  0  0  0  0  0  0  0  0
    1.1719   -0.8614    2.4441 H   0  0  0  0  0  0  0  0  0  0  0  0
  1  2  1  0
  1  6  1  0
  1  7  1  0
  1  8  1  0
  2  3  1  0
  2  9  1  0
  2 10  1  0
  3  4  1  0
  4  5  1  0
  4 12  1  0
  5  6  1  0
  6 13  1  0
  6 14  1  0
 11 16  1  0
 15 16  1  0
 15 19  1  0
 15 20  1  0
 15 21  1  0
 16 17  1  0
 16 22  1  0
 17 18  1  0
 17 23  1  0
 17 24  1  0
 18 25  1  0
 18 26  1  0
 18 27  1  0
M  RAD  1   4   2
M  END
>  <reaction>  (10) 
rmg_rxn_43

>  <mol_properties>  (10) 
{"2": {"label": "*0", "atom_type": "O2s"}, "3": {"label": "*1", "atom_type": "Cs"}, "10": {"label": "*2", "atom_type": "H0"}, "15": {"label": "*3", "atom_type": "Cs"}, "16": {"label": "*4", "atom_type": "Cs"}}

>  <type>  (10) 
unop_6

>  <geom_source>  (10) 
Heuristics

$$$$

     RDKit          3D

 27 26  0  0  0  0  0  0  0  0999 V2000
   -0.3063   -2.1334   -1.1752 C   0  0  0  0  0  0  0  0  0  0  0  0
   -0.3063   -2.1334    0.3469 C   0  0  0  0  0  0  0  0  0  0  0  0
   -1.3546   -1.3208    0.8390 O   0  0  0  0  0  0  0  0  0  0  0  0
   -1.2636   -0.0213    0.3397 C   0  0  0  0  0  3  0  0  0  0  0  0
   -1.3545    0.0349   -1.0514 O   0  0  0  0  0  0  0  0  0  0  0  0
   -0.3063   -0.6918   -1.6633 C   0  0  0  0  0  0  0  0  0  0  0  0
    0.5677   -2.6659   -1.5570 H   0  0  0  0  0  0  0  0  0  0  0  0
   -1.2028   -2.6396   -1.5382 H   0  0  0  0  0  0  0  0  0  0  0  0
   -0.4652   -3.1310    0.7542 H   0  0  0  0  0  0  0  0  0  0  0  0
    0.6574   -1.7575    0.7236 H   0  0  0  0  0  0  0  0  0  0  0  0
   -0.1172    0.5212    0.7287 H   0  0  0  0  0  0  0  0  0  0  0  0
   -2.1047    0.5392    0.7417 H   0  0  0  0  0  0  0  0  0  0  0  0
    0.6574   -0.2144   -1.4280 H   0  0  0  0  0  0  0  0  0  0  0  0
   -0.4652   -0.6259   -2.7387 H   0  0  0  0  0  0  0  0  0  0  0  0
    2.1745    0.4025    1.8563 C   0  0  0  0  0  0  0  0  0  0  0  0
    1.0181    1.0584    1.1140 C   0  0  0  0  0  0  0  0  0  0  0  0
    1.4759    2.0639    0.0638 C   0  0  0  0  0  0  0  0  0  0  0  0
    0.3195    2.7199   -0.6785 C   0  0  0  0  0  0  0  0  0  0  0  0
    2.7817    1.1494    2.3732 H   0  0  0  0  0  0  0  0  0  0  0  0
    2.8291   -0.1339    1.1653 H   0  0  0  0  0  0  0  0  0  0  0  0
    1.8188   -0.3115    2.6009 H   0  0  0  0  0  0  0  0  0  0  0  0
    0.3608    1.5624    1.8299 H   0  0  0  0  0  0  0  0  0  0  0  0
    2.1333    1.5599   -0.6521 H   0  0  0  0  0  0  0  0  0  0  0  0
    2.0862    2.8338    0.5470 H   0  0  0  0  0  0  0  0  0  0  0  0
   -0.3351    3.2563    0.0126 H   0  0  0  0  0  0  0  0  0  0  0  0
    0.6753    3.4339   -1.4230 H   0  0  0  0  0  0  0  0  0  0  0  0
   -0.2877    1.9729   -1.1954 H   0  0  0  0  0  0  0  0  0  0  0  0
  1  2  1  0
  1  6  1  0
  1  7  1  0
  1  8  1  0
  2  3  1  0
  2  9  1  0
  2 10  1  0
  3  4  1  0
  4  5  1  0
  4 12  1  0
  5  6  1  0
  6 13  1  0
  6 14  1  0
 11 16  1  0
 15 16  1  0
 15 19  1  0
 15 20  1  0
 15 21  1  0
 16 17  1  0
 16 22  1  0
 17 18  1  0
 17 23  1  0
 17 24  1  0
 18 25  1  0
 18 26  1  0
 18 27  1  0
M  RAD  1   4   2
M  END
>  <reaction>  (11) 
rmg_rxn_43

>  <mol_properties>  (11) 
{"2": {"label": "*0", "atom_type": "O2s"}, "3": {"label": "*1", "atom_type": "Cs"}, "10": {"label": "*2", "atom_type": "H0"}, "15": {"label": "*3", "atom_type": "Cs"}, "16": {"label": "*4", "atom_type": "Cs"}}

>  <type>  (11) 
unop_7

>  <geom_source>  (11) 
Heuristics

$$$$

     RDKit          3D

 27 25  0  0  0  0  0  0  0  0999 V2000
   -0.3773   -2.0090   -1.1369 C   0  0  0  0  0  3  0  0  0  0  0  0
   -0.3773   -2.0090    0.3851 C   0  0  0  0  0  0  0  0  0  0  0  0
   -1.4256   -1.1964    0.8772 O   0  0  0  0  0  0  0  0  0  0  0  0
   -1.3347    0.1032    0.3779 C   0  0  0  0  0  3  0  0  0  0  0  0
   -1.4256    0.1594   -1.0132 O   0  0  0  0  0  3  0  0  0  0  0  0
   -0.3773   -0.5674   -1.6250 C   0  0  0  0  0  0  0  0  0  0  0  0
    0.4967   -2.5415   -1.5188 H   0  0  0  0  0  0  0  0  0  0  0  0
   -1.2738   -2.5152   -1.5000 H   0  0  0  0  0  0  0  0  0  0  0  0
   -0.5362   -3.0065    0.7924 H   0  0  0  0  0  0  0  0  0  0  0  0
    0.5864   -1.6330    0.7618 H   0  0  0  0  0  0  0  0  0  0  0  0
   -0.1882    0.6456    0.7669 H   0  0  0  0  0  0  0  0  0  0  0  0
   -2.1757    0.6637    0.7799 H   0  0  0  0  0  0  0  0  0  0  0  0
    0.5864   -0.0900   -1.3898 H   0  0  0  0  0  0  0  0  0  0  0  0
   -0.5362   -0.5014   -2.7005 H   0  0  0  0  0  0  0  0  0  0  0  0
    1.7874    1.0828    2.4181 C   0  0  0  0  0  0  0  0  0  0  0  0
    0.9471    1.1829    1.1522 C   0  0  0  0  0  0  0  0  0  0  0  0
    1.7635    1.5600   -0.0785 C   0  0  0  0  0  0  0  0  0  0  0  0
    0.9232    1.6601   -1.3444 C   0  0  0  0  0  0  0  0  0  0  0  0
    2.2767    2.0344    2.6393 H   0  0  0  0  0  0  0  0  0  0  0  0
    2.5692    0.3272    2.3102 H   0  0  0  0  0  0  0  0  0  0  0  0
    1.1787    0.8119    3.2823 H   0  0  0  0  0  0  0  0  0  0  0  0
    0.1530    1.9228    1.2960 H   0  0  0  0  0  0  0  0  0  0  0  0
    2.5575    0.8201   -0.2223 H   0  0  0  0  0  0  0  0  0  0  0  0
    2.2671    2.5148    0.1044 H   0  0  0  0  0  0  0  0  0  0  0  0
    0.1414    2.4157   -1.2365 H   0  0  0  0  0  0  0  0  0  0  0  0
    1.5318    1.9310   -2.2086 H   0  0  0  0  0  0  0  0  0  0  0  0
    0.4339    0.7085   -1.5656 H   0  0  0  0  0  0  0  0  0  0  0  0
  1  2  1  0
  1  7  1  0
  1  8  1  0
  2  3  1  0
  2  9  1  0
  2 10  1  0
  3  4  1  0
  4  5  1  0
  4 12  1  0
  5  6  2  3
  6 13  1  0
  6 14  1  0
 11 16  1  0
 15 16  1  0
 15 19  1  0
 15 20  1  0
 15 21  1  0
 16 17  1  0
 16 22  1  0
 17 18  1  0
 17 23  1  0
 17 24  1  0
 18 25  1  0
 18 26  1  0
 18 27  1  0
M  CHG  2   1  -1   5   1
M  RAD  1   4   2
M  END
>  <reaction>  (12) 
rmg_rxn_43

>  <mol_properties>  (12) 
{"2": {"label": "*0", "atom_type": "O2s"}, "3": {"label": "*1", "atom_type": "Cs"}, "10": {"label": "*2", "atom_type": "H0"}, "15": {"label": "*3", "atom_type": "Cs"}, "16": {"label": "*4", "atom_type": "Cs"}}

>  <type>  (12) 
unop_8

>  <geom_source>  (12) 
Heuristics

$$$$

     RDKit          3D

 27 26  0  0  0  0  0  0  0  0999 V2000
   -0.1724   -2.0745   -1.6491 C   0  0  0  0  0  0  0  0  0  0  0  0
   -0.1724   -2.0745   -0.1271 C   0  0  0  0  0  0  0  0  0  0  0  0
   -1.2207   -1.2619    0.3650 O   0  0  0  0  0  0  0  0  0  0  0  0
   -1.1298    0.0376   -0.1343 C   0  0  0  0  0  3  0  0  0  0  0  0
   -1.2207    0.0938   -1.5253 O   0  0  0  0  0  0  0  0  0  0  0  0
   -0.1724   -0.6329   -2.1372 C   0  0  0  0  0  0  0  0  0  0  0  0
    0.7016   -2.6070   -2.0310 H   0  0  0  0  0  0  0  0  0  0  0  0
   -1.0690   -2.5807   -2.0121 H   0  0  0  0  0  0  0  0  0  0  0  0
   -0.3314   -3.0721    0.2803 H   0  0  0  0  0  0  0  0  0  0  0  0
    0.7912   -1.6986    0.2497 H   0  0  0  0  0  0  0  0  0  0  0  0
    0.0166    0.5801    0.2548 H   0  0  0  0  0  0  0  0  0  0  0  0
   -1.9709    0.5981    0.2677 H   0  0  0  0  0  0  0  0  0  0  0  0
    0.7912   -0.1555   -1.9019 H   0  0  0  0  0  0  0  0  0  0  0  0
   -0.3314   -0.5670   -3.2127 H   0  0  0  0  0  0  0  0  0  0  0  0
    0.7512    1.9710   -0.5555 C   0  0  0  0  0  0  0  0  0  0  0  0
    1.1519    1.1173    0.6401 C   0  0  0  0  0  0  0  0  0  0  0  0
    0.9423    1.8228    1.9749 C   0  0  0  0  0  0  0  0  0  0  0  0
    1.3429    0.9691    3.1705 C   0  0  0  0  0  0  0  0  0  0  0  0
    1.3326    2.8955   -0.5886 H   0  0  0  0  0  0  0  0  0  0  0  0
   -0.3046    2.2471   -0.5030 H   0  0  0  0  0  0  0  0  0  0  0  0
    0.9114    1.4424   -1.4965 H   0  0  0  0  0  0  0  0  0  0  0  0
    2.2039    0.8283    0.5489 H   0  0  0  0  0  0  0  0  0  0  0  0
   -0.1097    2.1119    2.0661 H   0  0  0  0  0  0  0  0  0  0  0  0
    1.5154    2.7556    1.9811 H   0  0  0  0  0  0  0  0  0  0  0  0
    2.3988    0.6931    3.1180 H   0  0  0  0  0  0  0  0  0  0  0  0
    1.1828    1.4977    4.1115 H   0  0  0  0  0  0  0  0  0  0  0  0
    0.7616    0.0446    3.2036 H   0  0  0  0  0  0  0  0  0  0  0  0
  1  2  1  0
  1  6  1  0
  1  7  1  0
  1  8  1  0
  2  3  1  0
  2  9  1  0
  2 10  1  0
  3  4  1  0
  4  5  1  0
  4 12  1  0
  5  6  1  0
  6 13  1  0
  6 14  1  0
 11 16  1  0
 15 16  1  0
 15 19  1  0
 15 20  1  0
 15 21  1  0
 16 17  1  0
 16 22  1  0
 17 18  1  0
 17 23  1  0
 17 24  1  0
 18 25  1  0
 18 26  1  0
 18 27  1  0
M  RAD  1   4   2
M  END
>  <reaction>  (13) 
rmg_rxn_43

>  <mol_properties>  (13) 
{"2": {"label": "*0", "atom_type": "O2s"}, "3": {"label": "*1", "atom_type": "Cs"}, "10": {"label": "*2", "atom_type": "H0"}, "15": {"label": "*3", "atom_type": "Cs"}, "16": {"label": "*4", "atom_type": "Cs"}}

>  <type>  (13) 
unop_9

>  <geom_source>  (13) 
Heuristics

$$$$

     RDKit          3D

 27 25  0  0  0  0  0  0  0  0999 V2000
   -0.4264   -1.7101   -1.4128 C   0  0  0  0  0  3  0  0  0  0  0  0
   -0.4264   -1.7101    0.1092 C   0  0  0  0  0  0  0  0  0  0  0  0
   -1.4747   -0.8975    0.6013 O   0  0  0  0  0  3  0  0  0  0  0  0
   -1.3838    0.4020    0.1020 C   0  0  0  0  0  3  0  0  0  0  0  0
   -1.4747    0.4582   -1.2890 O   0  0  0  0  0  0  0  0  0  0  0  0
   -0.4264   -0.2685   -1.9009 C   0  0  0  0  0  0  0  0  0  0  0  0
    0.4476   -2.2426   -1.7947 H   0  0  0  0  0  0  0  0  0  0  0  0
   -1.3230   -2.2163   -1.7758 H   0  0  0  0  0  0  0  0  0  0  0  0
   -0.5854   -2.7076    0.5166 H   0  0  0  0  0  0  0  0  0  0  0  0
    0.5372   -1.3342    0.4860 H   0  0  0  0  0  0  0  0  0  0  0  0
   -0.2374    0.9445    0.4911 H   0  0  0  0  0  0  0  0  0  0  0  0
   -2.2249    0.9626    0.5040 H   0  0  0  0  0  0  0  0  0  0  0  0
    0.5372    0.2089   -1.6656 H   0  0  0  0  0  0  0  0  0  0  0  0
   -0.5854   -0.2025   -2.9764 H   0  0  0  0  0  0  0  0  0  0  0  0
    0.9807    2.5412    1.9670 C   0  0  0  0  0  0  0  0  0  0  0  0
    0.8979    1.4817    0.8764 C   0  0  0  0  0  0  0  0  0  0  0  0
    1.9429    0.3827    1.0306 C   0  0  0  0  0  0  0  0  0  0  0  0
    1.8601   -0.6767   -0.0600 C   0  0  0  0  0  0  0  0  0  0  0  0
    1.9586    3.0285    1.9658 H   0  0  0  0  0  0  0  0  0  0  0  0
    0.8341    2.0981    2.9549 H   0  0  0  0  0  0  0  0  0  0  0  0
    0.2226    3.3144    1.8324 H   0  0  0  0  0  0  0  0  0  0  0  0
    1.0166    1.9540   -0.1042 H   0  0  0  0  0  0  0  0  0  0  0  0
    1.8241   -0.0895    2.0111 H   0  0  0  0  0  0  0  0  0  0  0  0
    2.9403    0.8340    1.0293 H   0  0  0  0  0  0  0  0  0  0  0  0
    2.0066   -0.2336   -1.0480 H   0  0  0  0  0  0  0  0  0  0  0  0
    2.6182   -1.4499    0.0745 H   0  0  0  0  0  0  0  0  0  0  0  0
    0.8822   -1.1640   -0.0589 H   0  0  0  0  0  0  0  0  0  0  0  0
  1  6  1  0
  1  7  1  0
  1  8  1  0
  2  3  2  3
  2  9  1  0
  2 10  1  0
  3  4  1  0
  4  5  1  0
  4 12  1  0
  5  6  1  0
  6 13  1  0
  6 14  1  0
 11 16  1  0
 15 16  1  0
 15 19  1  0
 15 20  1  0
 15 21  1  0
 16 17  1  0
 16 22  1  0
 17 18  1  0
 17 23  1  0
 17 24  1  0
 18 25  1  0
 18 26  1  0
 18 27  1  0
M  CHG  2   1  -1   3   1
M  RAD  1   4   2
M  END
>  <reaction>  (14) 
rmg_rxn_43

>  <mol_properties>  (14) 
{"2": {"label": "*0", "atom_type": "O2s"}, "3": {"label": "*1", "atom_type": "Cs"}, "10": {"label": "*2", "atom_type": "H0"}, "15": {"label": "*3", "atom_type": "Cs"}, "16": {"label": "*4", "atom_type": "Cs"}}

>  <type>  (14) 
unop_10

>  <geom_source>  (14) 
Heuristics

$$$$

     RDKit          3D

 27 26  0  0  0  0  0  0  0  0999 V2000
    1.6226   -0.9047   -0.0907 O   0  0  0  0  0  0  0  0  0  0  0  0
    0.6949    1.1847    0.3886 O   0  0  0  0  0  0  0  0  0  0  0  0
   -1.7762   -1.0138   -0.4481 C   0  0  0  0  0  0  0  0  0  0  0  0
   -2.4256   -0.2714    0.7236 C   0  0  0  0  0  0  0  0  0  0  0  0
    3.1060    0.9590    0.3479 C   0  0  0  0  0  0  0  0  0  0  0  0
    2.8854   -0.3540   -0.4044 C   0  0  0  0  0  0  0  0  0  0  0  0
    1.8995    1.8666    0.1051 C   0  0  0  0  0  0  0  0  0  0  0  0
   -2.0594   -2.5106   -0.3779 C   0  0  0  0  0  0  0  0  0  0  0  0
   -2.1307    1.2235    0.6551 C   0  0  0  0  0  0  0  0  0  0  0  0
    0.6150    0.0302   -0.4248 C   0  0  0  0  0  3  0  0  0  0  0  0
   -2.1696   -0.6168   -1.4094 H   0  0  0  0  0  0  0  0  0  0  0  0
   -0.4965   -0.8313   -0.4199 H   0  0  0  0  0  0  0  0  0  0  0  0
   -2.0325   -0.6716    1.6834 H   0  0  0  0  0  0  0  0  0  0  0  0
   -3.5268   -0.4237    0.7011 H   0  0  0  0  0  0  0  0  0  0  0  0
    4.0358    1.4532   -0.0070 H   0  0  0  0  0  0  0  0  0  0  0  0
    3.2004    0.7512    1.4361 H   0  0  0  0  0  0  0  0  0  0  0  0
    2.9825   -0.1960   -1.5030 H   0  0  0  0  0  0  0  0  0  0  0  0
    3.6736   -1.0763   -0.1044 H   0  0  0  0  0  0  0  0  0  0  0  0
    1.9747    2.7501    0.7734 H   0  0  0  0  0  0  0  0  0  0  0  0
    1.8992    2.2440   -0.9433 H   0  0  0  0  0  0  0  0  0  0  0  0
   -1.5742   -3.0190   -1.2373 H   0  0  0  0  0  0  0  0  0  0  0  0
   -3.1531   -2.6998   -0.4224 H   0  0  0  0  0  0  0  0  0  0  0  0
   -1.6497   -2.9354    0.5630 H   0  0  0  0  0  0  0  0  0  0  0  0
   -2.6114    1.7368    1.5145 H   0  0  0  0  0  0  0  0  0  0  0  0
   -2.5342    1.6539   -0.2862 H   0  0  0  0  0  0  0  0  0  0  0  0
   -1.0355    1.4037    0.7015 H   0  0  0  0  0  0  0  0  0  0  0  0
    0.5859    0.2673   -1.5146 H   0  0  0  0  0  0  0  0  0  0  0  0
  1  6  1  0
  1 10  1  0
  2  7  1  0
  2 10  1  0
  3  8  1  0
  3  4  1  0
  3 11  1  0
  3 12  1  0
  4  9  1  0
  4 13  1  0
  4 14  1  0
  5  6  1  0
  5  7  1  0
  5 15  1  0
  5 16  1  0
  6 17  1  0
  6 18  1  0
  7 19  1  0
  7 20  1  0
  8 21  1  0
  8 22  1  0
  8 23  1  0
  9 24  1  0
  9 25  1  0
  9 26  1  0
 10 27  1  0
M  RAD  1  10   2
M  END
>  <reaction>  (15) 
rmg_rxn_43

>  <mol_properties>  (15) 
{"2": {"label": "*0", "atom_type": "O2s"}, "3": {"label": "*1", "atom_type": "Cs"}, "10": {"label": "*2", "atom_type": "H0"}, "15": {"label": "*3", "atom_type": "Cs"}, "16": {"label": "*4", "atom_type": "Cs"}}

>  <type>  (15) 
unop_11

>  <geom_source>  (15) 
AutoTST

$$$$

     RDKit          3D

 27 26  0  0  0  0  0  0  0  0999 V2000
   -0.4475   -1.7638   -1.2734 C   0  0  0  0  0  0  0  0  0  0  0  0
   -0.4475   -1.7638    0.2486 C   0  0  0  0  0  0  0  0  0  0  0  0
   -1.4958   -0.9512    0.7407 O   0  0  0  0  0  0  0  0  0  0  0  0
   -1.4049    0.3484    0.2414 C   0  0  0  0  0  3  0  0  0  0  0  0
   -1.4958    0.4046   -1.1497 O   0  0  0  0  0  0  0  0  0  0  0  0
   -0.4475   -0.3221   -1.7616 C   0  0  0  0  0  0  0  0  0  0  0  0
    0.4265   -2.2962   -1.6553 H   0  0  0  0  0  0  0  0  0  0  0  0
   -1.3441   -2.2700   -1.6365 H   0  0  0  0  0  0  0  0  0  0  0  0
   -0.6065   -2.7613    0.6559 H   0  0  0  0  0  0  0  0  0  0  0  0
    0.5161   -1.3878    0.6253 H   0  0  0  0  0  0  0  0  0  0  0  0
   -0.2585    0.8909    0.6304 H   0  0  0  0  0  0  0  0  0  0  0  0
   -2.2460    0.9089    0.6433 H   0  0  0  0  0  0  0  0  0  0  0  0
    0.5161    0.1553   -1.5263 H   0  0  0  0  0  0  0  0  0  0  0  0
   -0.6065   -0.2562   -2.8370 H   0  0  0  0  0  0  0  0  0  0  0  0
    1.2332    2.1968    2.2809 C   0  0  0  0  0  0  0  0  0  0  0  0
    0.8768    1.4281    1.0157 C   0  0  0  0  0  0  0  0  0  0  0  0
    2.0322    0.5902    0.4803 C   0  0  0  0  0  0  0  0  0  0  0  0
    1.6758   -0.1784   -0.7848 C   0  0  0  0  0  0  0  0  0  0  0  0
    2.0666    2.8803    2.1019 H   0  0  0  0  0  0  0  0  0  0  0  0
    1.5312    1.5158    3.0817 H   0  0  0  0  0  0  0  0  0  0  0  0
    0.3894    2.7871    2.6418 H   0  0  0  0  0  0  0  0  0  0  0  0
    0.5524    2.1286    0.2394 H   0  0  0  0  0  0  0  0  0  0  0  0
    2.3566   -0.1103    1.2567 H   0  0  0  0  0  0  0  0  0  0  0  0
    2.8881    1.2441    0.2841 H   0  0  0  0  0  0  0  0  0  0  0  0
    1.3778    0.5025   -1.5857 H   0  0  0  0  0  0  0  0  0  0  0  0
    2.5196   -0.7688   -1.1458 H   0  0  0  0  0  0  0  0  0  0  0  0
    0.8424   -0.8619   -0.6058 H   0  0  0  0  0  0  0  0  0  0  0  0
  1  2  1  0
  1  6  1  0
  1  7  1  0
  1  8  1  0
  2  3  1  0
  2  9  1  0
  2 10  1  0
  3  4  1  0
  4  5  1  0
  4 12  1  0
  5  6  1  0
  6 13  1  0
  6 14  1  0
 11 16  1  0
 15 16  1  0
 15 19  1  0
 15 20  1  0
 15 21  1  0
 16 17  1  0
 16 22  1  0
 17 18  1  0
 17 23  1  0
 17 24  1  0
 18 25  1  0
 18 26  1  0
 18 27  1  0
M  RAD  1   4   2
M  END
>  <reaction>  (16) 
rmg_rxn_43

>  <mol_properties>  (16) 
{"2": {"label": "*0", "atom_type": "O2s"}, "3": {"label": "*1", "atom_type": "Cs"}, "10": {"label": "*2", "atom_type": "H0"}, "15": {"label": "*3", "atom_type": "Cs"}, "16": {"label": "*4", "atom_type": "Cs"}}

>  <type>  (16) 
unop_12

>  <geom_source>  (16) 
gaussian_log

$$$$
