
     RDKit          3D

 14 13  0  0  0  0  0  0  0  0999 V2000
    2.1277    0.0527   -0.0768 C   0  0  0  0  0  0  0  0  0  0  0  0
    0.8550    0.0849    0.7591 C   0  0  0  0  0  0  0  0  0  0  0  0
    0.7150    1.3361    1.5963 C   0  0  0  0  0  0  0  0  0  0  0  0
    0.5975    2.4604    0.7083 O   0  0  0  0  0  0  0  0  0  0  0  0
    0.5113    3.6572    1.2782 C   0  0  0  0  0  0  0  0  0  0  0  0
    0.5224    3.8788    2.4534 O   0  0  0  0  0  0  0  0  0  0  0  0
    3.0138    0.1211    0.5584 H   0  0  0  0  0  0  0  0  0  0  0  0
    2.1544    0.8845   -0.7813 H   0  0  0  0  0  0  0  0  0  0  0  0
    2.1955   -0.8742   -0.6473 H   0  0  0  0  0  0  0  0  0  0  0  0
    0.8361   -0.7663    1.4449 H   0  0  0  0  0  0  0  0  0  0  0  0
   -0.0232   -0.0114    0.1158 H   0  0  0  0  0  0  0  0  0  0  0  0
   -0.1715    1.3001    2.2317 H   0  0  0  0  0  0  0  0  0  0  0  0
    1.5840    1.4884    2.2407 H   0  0  0  0  0  0  0  0  0  0  0  0
    0.4263    4.4265    0.4986 H   0  0  0  0  0  0  0  0  0  0  0  0
  1  2  1  0
  1  7  1  0
  1  8  1  0
  1  9  1  0
  2  3  1  0
  2 10  1  0
  2 11  1  0
  3  4  1  0
  3 12  1  0
  3 13  1  0
  4  5  1  0
  5  6  2  0
  5 14  1  0
M  END
>  <reaction>  (1) 
rmg_rxn_1454

>  <mol_properties>  (1) 
{"0": {"label": "donator", "atom_type": "Cs"}, "6": {"label": "d_hydrogen", "atom_type": "H0"}}

>  <type>  (1) 
r1h

$$$$

     RDKit          3D

 10  9  0  0  0  0  0  0  0  0999 V2000
    1.4352    0.2660   -0.1351 C   0  0  0  0  0  3  0  0  0  0  0  0
    0.2236   -0.3243    0.4850 C   0  0  0  0  0  0  0  0  0  0  0  0
   -0.8893    0.6872    0.7364 C   0  0  0  0  0  0  0  0  0  0  0  0
    2.3577   -0.2958   -0.1940 H   0  0  0  0  0  0  0  0  0  0  0  0
    1.3935    1.2286   -0.6287 H   0  0  0  0  0  0  0  0  0  0  0  0
   -0.1633   -1.1318   -0.1556 H   0  0  0  0  0  0  0  0  0  0  0  0
    0.4945   -0.8215    1.4240 H   0  0  0  0  0  0  0  0  0  0  0  0
   -1.1991    1.1627   -0.1967 H   0  0  0  0  0  0  0  0  0  0  0  0
   -1.7660    0.2103    1.1768 H   0  0  0  0  0  0  0  0  0  0  0  0
   -0.5545    1.4732    1.4159 H   0  0  0  0  0  0  0  0  0  0  0  0
  1  2  1  0
  1  4  1  0
  1  5  1  0
  2  3  1  0
  2  6  1  0
  2  7  1  0
  3  8  1  0
  3  9  1  0
  3 10  1  0
M  RAD  1   1   2
M  END
>  <reaction>  (2) 
rmg_rxn_1454

>  <mol_properties>  (2) 
{"0": {"label": "acceptor", "atom_type": "Cs"}}

>  <type>  (2) 
r2

$$$$

     RDKit          3D

 11 10  0  0  0  0  0  0  0  0999 V2000
   -1.2710    0.1907   -0.2084 C   0  0  0  0  0  0  0  0  0  0  0  0
    0.0202   -0.6130   -0.2928 C   0  0  0  0  0  0  0  0  0  0  0  0
    0.1086   -1.6953    0.7756 C   0  0  0  0  0  0  0  0  0  0  0  0
   -1.3607    0.6851    0.7620 H   0  0  0  0  0  0  0  0  0  0  0  0
   -2.1429   -0.4567   -0.3299 H   0  0  0  0  0  0  0  0  0  0  0  0
   -1.3158    0.9602   -0.9809 H   0  0  0  0  0  0  0  0  0  0  0  0
    0.8757    0.0616   -0.1992 H   0  0  0  0  0  0  0  0  0  0  0  0
    0.0997   -1.0712   -1.2825 H   0  0  0  0  0  0  0  0  0  0  0  0
   -0.7198   -2.4022    0.6850 H   0  0  0  0  0  0  0  0  0  0  0  0
    1.0395   -2.2596    0.6989 H   0  0  0  0  0  0  0  0  0  0  0  0
    0.0624   -1.2603    1.7770 H   0  0  0  0  0  0  0  0  0  0  0  0
  1  2  1  0
  1  4  1  0
  1  5  1  0
  1  6  1  0
  2  3  1  0
  2  7  1  0
  2  8  1  0
  3  9  1  0
  3 10  1  0
  3 11  1  0
M  END
>  <reaction>  (3) 
rmg_rxn_1454

>  <mol_properties>  (3) 
{"0": {"label": "acceptor", "atom_type": "Cs"}, "10": {"label": "a_hydrogen", "atom_type": "H0"}}

>  <type>  (3) 
r2h

$$$$

     RDKit          3D

 24 22  0  0  0  0  0  0  0  0999 V2000
    2.2574   -0.3866   -1.1330 C   0  0  0  0  0  0  0  0  0  0  0  0
    2.1653    0.9203   -0.3873 C   0  0  0  0  0  0  0  0  0  0  0  0
    2.7686    0.8490    1.0104 C   0  0  0  0  0  0  0  0  0  0  0  0
    1.8013   -0.3848   -2.1223 H   0  0  0  0  0  0  0  0  0  0  0  0
    3.2534   -0.8299   -1.1554 H   0  0  0  0  0  0  0  0  0  0  0  0
    2.6777    1.7022   -0.9606 H   0  0  0  0  0  0  0  0  0  0  0  0
    1.1206    1.2372   -0.3208 H   0  0  0  0  0  0  0  0  0  0  0  0
    3.8249    0.5723    0.9686 H   0  0  0  0  0  0  0  0  0  0  0  0
    2.6914    1.8084    1.5235 H   0  0  0  0  0  0  0  0  0  0  0  0
    2.2567    0.1017    1.6211 H   0  0  0  0  0  0  0  0  0  0  0  0
    0.7479   -2.0903    0.3034 C   0  0  0  0  0  3  0  0  0  0  0  0
   -0.4589   -1.2813    0.7041 C   0  0  0  0  0  0  0  0  0  0  0  0
   -1.2638   -0.8528   -0.5086 C   0  0  0  0  0  0  0  0  0  0  0  0
   -2.4705   -0.1701   -0.1311 O   0  0  0  0  0  0  0  0  0  0  0  0
   -2.3782    1.1303    0.1204 C   0  0  0  0  0  0  0  0  0  0  0  0
   -1.3873    1.7988    0.0560 O   0  0  0  0  0  0  0  0  0  0  0  0
    1.5365   -1.2813   -0.4476 H   0  0  0  0  0  0  0  0  0  0  0  0
    0.5353   -2.9369   -0.3492 H   0  0  0  0  0  0  0  0  0  0  0  0
    1.3910   -2.3769    1.1321 H   0  0  0  0  0  0  0  0  0  0  0  0
   -0.1477   -0.3919    1.2575 H   0  0  0  0  0  0  0  0  0  0  0  0
   -1.1109   -1.8595    1.3688 H   0  0  0  0  0  0  0  0  0  0  0  0
   -0.6740   -0.2067   -1.1596 H   0  0  0  0  0  0  0  0  0  0  0  0
   -1.6027   -1.7190   -1.0761 H   0  0  0  0  0  0  0  0  0  0  0  0
   -3.3682    1.5162    0.3982 H   0  0  0  0  0  0  0  0  0  0  0  0
  1  2  1  0
  1  4  1  0
  1  5  1  0
  1 17  1  0
  2  3  1  0
  2  6  1  0
  2  7  1  0
  3  8  1  0
  3  9  1  0
  3 10  1  0
 11 12  1  0
 11 18  1  0
 11 19  1  0
 12 13  1  0
 12 20  1  0
 12 21  1  0
 13 14  1  0
 13 22  1  0
 13 23  1  0
 14 15  1  0
 15 16  2  0
 15 24  1  0
M  RAD  1  11   2
M  END
>  <reaction>  (4) 
rmg_rxn_1454

>  <mol_properties>  (4) 
{"0": {"label": "*1", "atom_type": "Cs"}, "1": {"label": "*0", "atom_type": "Cs"}, "10": {"label": "*3", "atom_type": "Cs"}, "11": {"label": "*4", "atom_type": "Cs"}, "16": {"label": "*2", "atom_type": "H0"}}

>  <type>  (4) 
ts

$$$$

     RDKit          3D

 24 22  0  0  0  0  0  0  0  0999 V2000
    2.2374    0.3239    1.0994 C   0  0  0  0  0  3  0  0  0  0  0  0
    2.1592   -1.0118    0.4088 C   0  0  0  0  0  0  0  0  0  0  0  0
    2.8159   -0.9860   -0.9669 C   0  0  0  0  0  0  0  0  0  0  0  0
    1.7921    0.3256    2.0886 H   0  0  0  0  0  0  0  0  0  0  0  0
    3.2398    0.7389    1.1198 H   0  0  0  0  0  0  0  0  0  0  0  0
    2.6621   -1.7675    1.0256 H   0  0  0  0  0  0  0  0  0  0  0  0
    1.1173   -1.3254    0.3124 H   0  0  0  0  0  0  0  0  0  0  0  0
    2.3239   -0.2622   -1.6121 H   0  0  0  0  0  0  0  0  0  0  0  0
    3.8657   -0.7106   -0.8847 H   0  0  0  0  0  0  0  0  0  0  0  0
    2.7525   -1.9640   -1.4376 H   0  0  0  0  0  0  0  0  0  0  0  0
    0.8123    2.0467   -0.2774 C   0  0  0  0  0  0  0  0  0  0  0  0
   -0.4471    1.3471   -0.7195 C   0  0  0  0  0  0  0  0  0  0  0  0
   -1.3067    0.9485    0.4782 C   0  0  0  0  0  0  0  0  0  0  0  0
   -2.4790    0.2337    0.0659 O   0  0  0  0  0  0  0  0  0  0  0  0
   -2.3535   -1.0650   -0.1153 C   0  0  0  0  0  0  0  0  0  0  0  0
   -1.3682   -1.7249    0.0430 O   0  0  0  0  0  0  0  0  0  0  0  0
    1.5342    1.1913    0.4088 H   0  0  0  0  0  0  0  0  0  0  0  0
    0.6261    2.8773    0.3945 H   0  0  0  0  0  0  0  0  0  0  0  0
    1.4366    2.3491   -1.1099 H   0  0  0  0  0  0  0  0  0  0  0  0
   -0.1928    0.4468   -1.2841 H   0  0  0  0  0  0  0  0  0  0  0  0
   -1.0416    1.9925   -1.3778 H   0  0  0  0  0  0  0  0  0  0  0  0
   -0.7291    0.3169    1.1597 H   0  0  0  0  0  0  0  0  0  0  0  0
   -1.6739    1.8294    1.0081 H   0  0  0  0  0  0  0  0  0  0  0  0
   -3.3273   -1.4737   -0.4362 H   0  0  0  0  0  0  0  0  0  0  0  0
  1  2  1  0
  1  4  1  0
  1  5  1  0
  2  3  1  0
  2  6  1  0
  2  7  1  0
  3  8  1  0
  3  9  1  0
  3 10  1  0
 11 12  1  0
 11 17  1  0
 11 18  1  0
 11 19  1  0
 12 13  1  0
 12 20  1  0
 12 21  1  0
 13 14  1  0
 13 22  1  0
 13 23  1  0
 14 15  1  0
 15 16  2  0
 15 24  1  0
M  RAD  1   1   2
M  END
>  <reaction>  (5) 
rmg_rxn_1454

>  <mol_properties>  (5) 
{"0": {"label": "*1", "atom_type": "Cs"}, "1": {"label": "*0", "atom_type": "Cs"}, "10": {"label": "*3", "atom_type": "Cs"}, "11": {"label": "*4", "atom_type": "Cs"}, "16": {"label": "*2", "atom_type": "H0"}}

>  <type>  (5) 
unop_1

>  <geom_source>  (5) 
crest_best.xyz

$$$$

     RDKit          3D

 24 22  0  0  0  0  0  0  0  0999 V2000
    1.9995    1.0316   -0.2684 C   0  0  0  0  0  3  0  0  0  0  0  0
    2.7839    2.2796    0.1158 C   0  0  0  0  0  0  0  0  0  0  0  0
    2.4831    2.7483    1.5337 C   0  0  0  0  0  0  0  0  0  0  0  0
    2.2282    0.7115   -1.2864 H   0  0  0  0  0  0  0  0  0  0  0  0
    2.2319    0.2018    0.4035 H   0  0  0  0  0  0  0  0  0  0  0  0
    3.8548    2.0810    0.0176 H   0  0  0  0  0  0  0  0  0  0  0  0
    2.5567    3.0838   -0.5894 H   0  0  0  0  0  0  0  0  0  0  0  0
    2.7307    1.9726    2.2624 H   0  0  0  0  0  0  0  0  0  0  0  0
    3.0538    3.6424    1.7902 H   0  0  0  0  0  0  0  0  0  0  0  0
    1.4224    2.9834    1.6505 H   0  0  0  0  0  0  0  0  0  0  0  0
   -0.0947    0.7269    1.2801 C   0  0  0  0  0  0  0  0  0  0  0  0
   -1.3808    0.7383    0.4645 C   0  0  0  0  0  0  0  0  0  0  0  0
   -1.4365   -0.3451   -0.5887 C   0  0  0  0  0  0  0  0  0  0  0  0
   -1.4370   -1.6193    0.0767 O   0  0  0  0  0  0  0  0  0  0  0  0
   -1.4370   -2.6938   -0.7042 C   0  0  0  0  0  0  0  0  0  0  0  0
   -1.4370   -2.6938   -1.9002 O   0  0  0  0  0  0  0  0  0  0  0  0
    0.9523    0.8792    0.5059 H   0  0  0  0  0  0  0  0  0  0  0  0
    0.0195   -0.2146    1.8180 H   0  0  0  0  0  0  0  0  0  0  0  0
   -0.0903    1.5356    2.0117 H   0  0  0  0  0  0  0  0  0  0  0  0
   -1.4883    1.6961   -0.0514 H   0  0  0  0  0  0  0  0  0  0  0  0
   -2.2475    0.6379    1.1226 H   0  0  0  0  0  0  0  0  0  0  0  0
   -2.3388   -0.2702   -1.1981 H   0  0  0  0  0  0  0  0  0  0  0  0
   -0.5744   -0.3001   -1.2582 H   0  0  0  0  0  0  0  0  0  0  0  0
   -1.4375   -3.5978   -0.0800 H   0  0  0  0  0  0  0  0  0  0  0  0
  1  2  1  0
  1  4  1  0
  1  5  1  0
  2  3  1  0
  2  6  1  0
  2  7  1  0
  3  8  1  0
  3  9  1  0
  3 10  1  0
 11 12  1  0
 11 17  1  0
 11 18  1  0
 11 19  1  0
 12 13  1  0
 12 20  1  0
 12 21  1  0
 13 14  1  0
 13 22  1  0
 13 23  1  0
 14 15  1  0
 15 16  2  0
 15 24  1  0
M  RAD  1   1   2
M  END
>  <reaction>  (6) 
rmg_rxn_1454

>  <mol_properties>  (6) 
{"0": {"label": "*1", "atom_type": "Cs"}, "1": {"label": "*0", "atom_type": "Cs"}, "10": {"label": "*3", "atom_type": "Cs"}, "11": {"label": "*4", "atom_type": "Cs"}, "16": {"label": "*2", "atom_type": "H0"}}

>  <type>  (6) 
unop_2

>  <geom_source>  (6) 
Heuristics

$$$$

     RDKit          3D

 24 22  0  0  0  0  0  0  0  0999 V2000
    2.2379   -0.3247    1.0990 C   0  0  0  0  0  3  0  0  0  0  0  0
    2.1593    1.0115    0.4094 C   0  0  0  0  0  0  0  0  0  0  0  0
    2.8155    0.9869   -0.9666 C   0  0  0  0  0  0  0  0  0  0  0  0
    3.2402   -0.7398    1.1185 H   0  0  0  0  0  0  0  0  0  0  0  0
    1.7931   -0.3273    2.0884 H   0  0  0  0  0  0  0  0  0  0  0  0
    1.1174    1.3252    0.3134 H   0  0  0  0  0  0  0  0  0  0  0  0
    2.6623    1.7669    1.0265 H   0  0  0  0  0  0  0  0  0  0  0  0
    3.8654    0.7118   -0.8849 H   0  0  0  0  0  0  0  0  0  0  0  0
    2.3234    0.2635   -1.6122 H   0  0  0  0  0  0  0  0  0  0  0  0
    2.7518    1.9653   -1.4366 H   0  0  0  0  0  0  0  0  0  0  0  0
    0.8122   -2.0467   -0.2782 C   0  0  0  0  0  0  0  0  0  0  0  0
   -0.4473   -1.3469   -0.7197 C   0  0  0  0  0  0  0  0  0  0  0  0
   -1.3064   -0.9484    0.4784 C   0  0  0  0  0  0  0  0  0  0  0  0
   -2.4790   -0.2337    0.0666 O   0  0  0  0  0  0  0  0  0  0  0  0
   -2.3536    1.0649   -0.1151 C   0  0  0  0  0  0  0  0  0  0  0  0
   -1.3683    1.7249    0.0425 O   0  0  0  0  0  0  0  0  0  0  0  0
    1.5346   -1.1915    0.4076 H   0  0  0  0  0  0  0  0  0  0  0  0
    1.4363   -2.3488   -1.1109 H   0  0  0  0  0  0  0  0  0  0  0  0
    0.6263   -2.8776    0.3935 H   0  0  0  0  0  0  0  0  0  0  0  0
   -1.0422   -1.9922   -1.3778 H   0  0  0  0  0  0  0  0  0  0  0  0
   -0.1933   -0.4465   -1.2843 H   0  0  0  0  0  0  0  0  0  0  0  0
   -1.6732   -1.8293    1.0085 H   0  0  0  0  0  0  0  0  0  0  0  0
   -0.7285   -0.3167    1.1596 H   0  0  0  0  0  0  0  0  0  0  0  0
   -3.3278    1.4736   -0.4350 H   0  0  0  0  0  0  0  0  0  0  0  0
  1  2  1  0
  1  4  1  0
  1  5  1  0
  2  3  1  0
  2  6  1  0
  2  7  1  0
  3  8  1  0
  3  9  1  0
  3 10  1  0
 11 12  1  0
 11 17  1  0
 11 18  1  0
 11 19  1  0
 12 13  1  0
 12 20  1  0
 12 21  1  0
 13 14  1  0
 13 22  1  0
 13 23  1  0
 14 15  1  0
 15 16  2  0
 15 24  1  0
M  RAD  1   1   2
M  END
>  <reaction>  (7) 
rmg_rxn_1454

>  <mol_properties>  (7) 
{"0": {"label": "*1", "atom_type": "Cs"}, "1": {"label": "*0", "atom_type": "Cs"}, "10": {"label": "*3", "atom_type": "Cs"}, "11": {"label": "*4", "atom_type": "Cs"}, "16": {"label": "*2", "atom_type": "H0"}}

>  <type>  (7) 
unop_3

>  <geom_source>  (7) 
Heuristics

$$$$

     RDKit          3D

 24 22  0  0  0  0  0  0  0  0999 V2000
    2.2373   -0.3237   -1.0995 C   0  0  0  0  0  3  0  0  0  0  0  0
    2.1591    1.0119   -0.4086 C   0  0  0  0  0  0  0  0  0  0  0  0
    2.8159    0.9857    0.9671 C   0  0  0  0  0  0  0  0  0  0  0  0
    1.7919   -0.3252   -2.0887 H   0  0  0  0  0  0  0  0  0  0  0  0
    3.2397   -0.7388   -1.1201 H   0  0  0  0  0  0  0  0  0  0  0  0
    2.6621    1.7678   -1.0252 H   0  0  0  0  0  0  0  0  0  0  0  0
    1.1173    1.3255   -0.3120 H   0  0  0  0  0  0  0  0  0  0  0  0
    3.8656    0.7105    0.8847 H   0  0  0  0  0  0  0  0  0  0  0  0
    2.7525    1.9636    1.4381 H   0  0  0  0  0  0  0  0  0  0  0  0
    2.3239    0.2618    1.6122 H   0  0  0  0  0  0  0  0  0  0  0  0
    0.8123   -2.0468    0.2771 C   0  0  0  0  0  0  0  0  0  0  0  0
   -0.4470   -1.3472    0.7194 C   0  0  0  0  0  0  0  0  0  0  0  0
   -1.3068   -0.9486   -0.4781 C   0  0  0  0  0  0  0  0  0  0  0  0
   -2.4790   -0.2336   -0.0656 O   0  0  0  0  0  0  0  0  0  0  0  0
   -2.3533    1.0651    0.1154 C   0  0  0  0  0  0  0  0  0  0  0  0
   -1.3681    1.7249   -0.0433 O   0  0  0  0  0  0  0  0  0  0  0  0
    1.5342   -1.1913   -0.4091 H   0  0  0  0  0  0  0  0  0  0  0  0
    0.6262   -2.8774   -0.3948 H   0  0  0  0  0  0  0  0  0  0  0  0
    1.4368   -2.3491    1.1095 H   0  0  0  0  0  0  0  0  0  0  0  0
   -0.1928   -0.4468    1.2840 H   0  0  0  0  0  0  0  0  0  0  0  0
   -1.0415   -1.9926    1.3778 H   0  0  0  0  0  0  0  0  0  0  0  0
   -0.7293   -0.3170   -1.1598 H   0  0  0  0  0  0  0  0  0  0  0  0
   -1.6741   -1.8295   -1.0079 H   0  0  0  0  0  0  0  0  0  0  0  0
   -3.3272    1.4740    0.4361 H   0  0  0  0  0  0  0  0  0  0  0  0
  1  2  1  0
  1  4  1  0
  1  5  1  0
  2  3  1  0
  2  6  1  0
  2  7  1  0
  3  8  1  0
  3  9  1  0
  3 10  1  0
 11 12  1  0
 11 17  1  0
 11 18  1  0
 11 19  1  0
 12 13  1  0
 12 20  1  0
 12 21  1  0
 13 14  1  0
 13 22  1  0
 13 23  1  0
 14 15  1  0
 15 16  2  0
 15 24  1  0
M  RAD  1   1   2
M  END
>  <reaction>  (8) 
rmg_rxn_1454

>  <mol_properties>  (8) 
{"0": {"label": "*1", "atom_type": "Cs"}, "1": {"label": "*0", "atom_type": "Cs"}, "10": {"label": "*3", "atom_type": "Cs"}, "11": {"label": "*4", "atom_type": "Cs"}, "16": {"label": "*2", "atom_type": "H0"}}

>  <type>  (8) 
unop_4

>  <geom_source>  (8) 
Heuristics

$$$$

     RDKit          3D

 24 22  0  0  0  0  0  0  0  0999 V2000
    2.3191    1.0364    0.2161 C   0  0  0  0  0  3  0  0  0  0  0  0
    1.9724    1.8697   -1.0110 C   0  0  0  0  0  0  0  0  0  0  0  0
    1.0794    3.0586   -0.6797 C   0  0  0  0  0  0  0  0  0  0  0  0
    2.9587    0.1904   -0.0412 H   0  0  0  0  0  0  0  0  0  0  0  0
    2.8444    1.6384    0.9615 H   0  0  0  0  0  0  0  0  0  0  0  0
    2.8932    2.2260   -1.4811 H   0  0  0  0  0  0  0  0  0  0  0  0
    1.4762    1.2372   -1.7523 H   0  0  0  0  0  0  0  0  0  0  0  0
    1.5656    3.7244    0.0375 H   0  0  0  0  0  0  0  0  0  0  0  0
    0.8423    3.6427   -1.5704 H   0  0  0  0  0  0  0  0  0  0  0  0
    0.1373    2.7277   -0.2358 H   0  0  0  0  0  0  0  0  0  0  0  0
    0.2250    0.7317    1.7646 C   0  0  0  0  0  0  0  0  0  0  0  0
   -1.0611    0.7431    0.9490 C   0  0  0  0  0  0  0  0  0  0  0  0
   -1.1169   -0.3403   -0.1042 C   0  0  0  0  0  0  0  0  0  0  0  0
   -1.1173   -1.6145    0.5612 O   0  0  0  0  0  0  0  0  0  0  0  0
   -1.1173   -2.6891   -0.2197 C   0  0  0  0  0  0  0  0  0  0  0  0
   -1.1173   -2.6891   -1.4157 O   0  0  0  0  0  0  0  0  0  0  0  0
    1.2720    0.8840    0.9904 H   0  0  0  0  0  0  0  0  0  0  0  0
    0.3392   -0.2098    2.3025 H   0  0  0  0  0  0  0  0  0  0  0  0
    0.2294    1.5403    2.4962 H   0  0  0  0  0  0  0  0  0  0  0  0
   -1.1687    1.7009    0.4331 H   0  0  0  0  0  0  0  0  0  0  0  0
   -1.9278    0.6427    1.6072 H   0  0  0  0  0  0  0  0  0  0  0  0
   -2.0191   -0.2654   -0.7136 H   0  0  0  0  0  0  0  0  0  0  0  0
   -0.2547   -0.2953   -0.7736 H   0  0  0  0  0  0  0  0  0  0  0  0
   -1.1178   -3.5930    0.4045 H   0  0  0  0  0  0  0  0  0  0  0  0
  1  2  1  0
  1  4  1  0
  1  5  1  0
  2  3  1  0
  2  6  1  0
  2  7  1  0
  3  8  1  0
  3  9  1  0
  3 10  1  0
 11 12  1  0
 11 17  1  0
 11 18  1  0
 11 19  1  0
 12 13  1  0
 12 20  1  0
 12 21  1  0
 13 14  1  0
 13 22  1  0
 13 23  1  0
 14 15  1  0
 15 16  2  0
 15 24  1  0
M  RAD  1   1   2
M  END
>  <reaction>  (9) 
rmg_rxn_1454

>  <mol_properties>  (9) 
{"0": {"label": "*1", "atom_type": "Cs"}, "1": {"label": "*0", "atom_type": "Cs"}, "10": {"label": "*3", "atom_type": "Cs"}, "11": {"label": "*4", "atom_type": "Cs"}, "16": {"label": "*2", "atom_type": "H0"}}

>  <type>  (9) 
unop_5

>  <geom_source>  (9) 
Heuristics

$$$$

     RDKit          3D

 24 22  0  0  0  0  0  0  0  0999 V2000
    2.1547    0.2948   -1.1069 C   0  0  0  0  0  0  0  0  0  0  0  0
    2.1901   -1.0315   -0.4178 C   0  0  0  0  0  0  0  0  0  0  0  0
    2.7968   -0.9440    0.9773 C   0  0  0  0  0  0  0  0  0  0  0  0
    2.9263    1.0151   -0.8644 H   0  0  0  0  0  0  0  0  0  0  0  0
    1.8262    0.3059   -2.1334 H   0  0  0  0  0  0  0  0  0  0  0  0
    1.1797   -1.4460   -0.3527 H   0  0  0  0  0  0  0  0  0  0  0  0
    2.7794   -1.7359   -1.0194 H   0  0  0  0  0  0  0  0  0  0  0  0
    2.8143   -1.9243    1.4469 H   0  0  0  0  0  0  0  0  0  0  0  0
    3.8169   -0.5674    0.9279 H   0  0  0  0  0  0  0  0  0  0  0  0
    2.2151   -0.2744    1.6063 H   0  0  0  0  0  0  0  0  0  0  0  0
    0.7833    2.0888    0.2503 C   0  0  0  0  0  3  0  0  0  0  0  0
   -0.4727    1.3906    0.7071 C   0  0  0  0  0  0  0  0  0  0  0  0
   -1.3120    0.9356   -0.4844 C   0  0  0  0  0  0  0  0  0  0  0  0
   -2.4633    0.1934   -0.0607 O   0  0  0  0  0  0  0  0  0  0  0  0
   -2.3041   -1.0998    0.1305 C   0  0  0  0  0  0  0  0  0  0  0  0
   -1.3047   -1.7379   -0.0285 O   0  0  0  0  0  0  0  0  0  0  0  0
    1.5248    1.2148   -0.4290 H   0  0  0  0  0  0  0  0  0  0  0  0
    1.4025    2.4124    1.0794 H   0  0  0  0  0  0  0  0  0  0  0  0
    0.5876    2.9077   -0.4337 H   0  0  0  0  0  0  0  0  0  0  0  0
   -1.0834    2.0495    1.3361 H   0  0  0  0  0  0  0  0  0  0  0  0
   -0.2122    0.5136    1.3046 H   0  0  0  0  0  0  0  0  0  0  0  0
   -1.7031    1.7907   -1.0387 H   0  0  0  0  0  0  0  0  0  0  0  0
   -0.7082    0.3061   -1.1447 H   0  0  0  0  0  0  0  0  0  0  0  0
   -3.2658   -1.5292    0.4620 H   0  0  0  0  0  0  0  0  0  0  0  0
  1  2  1  0
  1  4  1  0
  1  5  1  0
  1 17  1  0
  2  3  1  0
  2  6  1  0
  2  7  1  0
  3  8  1  0
  3  9  1  0
  3 10  1  0
 11 12  1  0
 11 18  1  0
 11 19  1  0
 12 13  1  0
 12 20  1  0
 12 21  1  0
 13 14  1  0
 13 22  1  0
 13 23  1  0
 14 15  1  0
 15 16  2  0
 15 24  1  0
M  RAD  1  11   2
M  END
>  <reaction>  (10) 
rmg_rxn_1454

>  <mol_properties>  (10) 
{"0": {"label": "*1", "atom_type": "Cs"}, "1": {"label": "*0", "atom_type": "Cs"}, "10": {"label": "*3", "atom_type": "Cs"}, "11": {"label": "*4", "atom_type": "Cs"}, "16": {"label": "*2", "atom_type": "H0"}}

>  <type>  (10) 
unop_6

>  <geom_source>  (10) 
Heuristics

$$$$

     RDKit          3D

 24 22  0  0  0  0  0  0  0  0999 V2000
    1.8893    1.2419   -0.3536 C   0  0  0  0  0  3  0  0  0  0  0  0
    3.0177    1.9462    0.3888 C   0  0  0  0  0  0  0  0  0  0  0  0
    3.0204    1.6382    1.8807 C   0  0  0  0  0  0  0  0  0  0  0  0
    1.9039    1.4746   -1.4198 H   0  0  0  0  0  0  0  0  0  0  0  0
    1.9684    0.1574   -0.2467 H   0  0  0  0  0  0  0  0  0  0  0  0
    3.9777    1.6529   -0.0452 H   0  0  0  0  0  0  0  0  0  0  0  0
    2.9328    3.0262    0.2402 H   0  0  0  0  0  0  0  0  0  0  0  0
    3.1352    0.5661    2.0580 H   0  0  0  0  0  0  0  0  0  0  0  0
    3.8350    2.1511    2.3947 H   0  0  0  0  0  0  0  0  0  0  0  0
    2.0821    1.9503    2.3457 H   0  0  0  0  0  0  0  0  0  0  0  0
   -0.2048    0.9373    1.1949 C   0  0  0  0  0  0  0  0  0  0  0  0
   -1.4910    0.9486    0.3793 C   0  0  0  0  0  0  0  0  0  0  0  0
   -1.5467   -0.1347   -0.6739 C   0  0  0  0  0  0  0  0  0  0  0  0
   -1.5472   -1.4089   -0.0085 O   0  0  0  0  0  0  0  0  0  0  0  0
   -1.5472   -2.4835   -0.7895 C   0  0  0  0  0  0  0  0  0  0  0  0
   -1.5472   -2.4835   -1.9855 O   0  0  0  0  0  0  0  0  0  0  0  0
    0.8421    1.0896    0.4207 H   0  0  0  0  0  0  0  0  0  0  0  0
   -0.0907   -0.0042    1.7328 H   0  0  0  0  0  0  0  0  0  0  0  0
   -0.2005    1.7459    1.9265 H   0  0  0  0  0  0  0  0  0  0  0  0
   -1.5985    1.9065   -0.1366 H   0  0  0  0  0  0  0  0  0  0  0  0
   -2.3577    0.8483    1.0374 H   0  0  0  0  0  0  0  0  0  0  0  0
   -2.4489   -0.0598   -1.2833 H   0  0  0  0  0  0  0  0  0  0  0  0
   -0.6846   -0.0897   -1.3434 H   0  0  0  0  0  0  0  0  0  0  0  0
   -1.5477   -3.3874   -0.1652 H   0  0  0  0  0  0  0  0  0  0  0  0
  1  2  1  0
  1  4  1  0
  1  5  1  0
  2  3  1  0
  2  6  1  0
  2  7  1  0
  3  8  1  0
  3  9  1  0
  3 10  1  0
 11 12  1  0
 11 17  1  0
 11 18  1  0
 11 19  1  0
 12 13  1  0
 12 20  1  0
 12 21  1  0
 13 14  1  0
 13 22  1  0
 13 23  1  0
 14 15  1  0
 15 16  2  0
 15 24  1  0
M  RAD  1   1   2
M  END
>  <reaction>  (11) 
rmg_rxn_1454

>  <mol_properties>  (11) 
{"0": {"label": "*1", "atom_type": "Cs"}, "1": {"label": "*0", "atom_type": "Cs"}, "10": {"label": "*3", "atom_type": "Cs"}, "11": {"label": "*4", "atom_type": "Cs"}, "16": {"label": "*2", "atom_type": "H0"}}

>  <type>  (11) 
unop_7

>  <geom_source>  (11) 
Heuristics

$$$$

     RDKit          3D

 24 22  0  0  0  0  0  0  0  0999 V2000
    2.2015    1.5709    0.3576 C   0  0  0  0  0  3  0  0  0  0  0  0
    2.2868    0.4495   -0.6698 C   0  0  0  0  0  0  0  0  0  0  0  0
    1.5765    0.7924   -1.9730 C   0  0  0  0  0  0  0  0  0  0  0  0
    2.7155    1.3068    1.2834 H   0  0  0  0  0  0  0  0  0  0  0  0
    2.6544    2.4881   -0.0267 H   0  0  0  0  0  0  0  0  0  0  0  0
    3.3367    0.2237   -0.8759 H   0  0  0  0  0  0  0  0  0  0  0  0
    1.8552   -0.4631   -0.2493 H   0  0  0  0  0  0  0  0  0  0  0  0
    2.0097    1.6850   -2.4308 H   0  0  0  0  0  0  0  0  0  0  0  0
    1.6486   -0.0223   -2.6956 H   0  0  0  0  0  0  0  0  0  0  0  0
    0.5165    0.9928   -1.7992 H   0  0  0  0  0  0  0  0  0  0  0  0
    0.1074    1.2663    1.9061 C   0  0  0  0  0  0  0  0  0  0  0  0
   -1.1788    1.2776    1.0905 C   0  0  0  0  0  0  0  0  0  0  0  0
   -1.2345    0.1943    0.0373 C   0  0  0  0  0  0  0  0  0  0  0  0
   -1.2350   -1.0800    0.7028 O   0  0  0  0  0  0  0  0  0  0  0  0
   -1.2350   -2.1545   -0.0782 C   0  0  0  0  0  0  0  0  0  0  0  0
   -1.2350   -2.1545   -1.2742 O   0  0  0  0  0  0  0  0  0  0  0  0
    1.1543    1.4186    1.1320 H   0  0  0  0  0  0  0  0  0  0  0  0
    0.2215    0.3247    2.4440 H   0  0  0  0  0  0  0  0  0  0  0  0
    0.1117    2.0749    2.6378 H   0  0  0  0  0  0  0  0  0  0  0  0
   -1.2863    2.2355    0.5746 H   0  0  0  0  0  0  0  0  0  0  0  0
   -2.0455    1.1773    1.7487 H   0  0  0  0  0  0  0  0  0  0  0  0
   -2.1367    0.2692   -0.5721 H   0  0  0  0  0  0  0  0  0  0  0  0
   -0.3724    0.2392   -0.6321 H   0  0  0  0  0  0  0  0  0  0  0  0
   -1.2355   -3.0585    0.5460 H   0  0  0  0  0  0  0  0  0  0  0  0
  1  2  1  0
  1  4  1  0
  1  5  1  0
  2  3  1  0
  2  6  1  0
  2  7  1  0
  3  8  1  0
  3  9  1  0
  3 10  1  0
 11 12  1  0
 11 17  1  0
 11 18  1  0
 11 19  1  0
 12 13  1  0
 12 20  1  0
 12 21  1  0
 13 14  1  0
 13 22  1  0
 13 23  1  0
 14 15  1  0
 15 16  2  0
 15 24  1  0
M  RAD  1   1   2
M  END
>  <reaction>  (12) 
rmg_rxn_1454

>  <mol_properties>  (12) 
{"0": {"label": "*1", "atom_type": "Cs"}, "1": {"label": "*0", "atom_type": "Cs"}, "10": {"label": "*3", "atom_type": "Cs"}, "11": {"label": "*4", "atom_type": "Cs"}, "16": {"label": "*2", "atom_type": "H0"}}

>  <type>  (12) 
unop_8

>  <geom_source>  (12) 
Heuristics

$$$$

     RDKit          3D

 24 22  0  0  0  0  0  0  0  0999 V2000
    2.1524   -0.2936   -1.1073 C   0  0  0  0  0  0  0  0  0  0  0  0
    2.1894    1.0321   -0.4175 C   0  0  0  0  0  0  0  0  0  0  0  0
    2.7966    0.9432    0.9773 C   0  0  0  0  0  0  0  0  0  0  0  0
    1.8244   -0.3049   -2.1338 H   0  0  0  0  0  0  0  0  0  0  0  0
    2.9201   -1.0184   -0.8615 H   0  0  0  0  0  0  0  0  0  0  0  0
    2.7789    1.7363   -1.0190 H   0  0  0  0  0  0  0  0  0  0  0  0
    1.1793    1.4476   -0.3518 H   0  0  0  0  0  0  0  0  0  0  0  0
    2.8148    1.9233    1.4475 H   0  0  0  0  0  0  0  0  0  0  0  0
    2.2146    0.2737    1.6062 H   0  0  0  0  0  0  0  0  0  0  0  0
    3.8164    0.5661    0.9273 H   0  0  0  0  0  0  0  0  0  0  0  0
    0.7843   -2.0885    0.2491 C   0  0  0  0  0  3  0  0  0  0  0  0
   -0.4719   -1.3910    0.7067 C   0  0  0  0  0  0  0  0  0  0  0  0
   -1.3120   -0.9358   -0.4842 C   0  0  0  0  0  0  0  0  0  0  0  0
   -2.4629   -0.1935   -0.0597 O   0  0  0  0  0  0  0  0  0  0  0  0
   -2.3036    1.0996    0.1312 C   0  0  0  0  0  0  0  0  0  0  0  0
   -1.3042    1.7378   -0.0290 O   0  0  0  0  0  0  0  0  0  0  0  0
    1.5254   -1.2156   -0.4289 H   0  0  0  0  0  0  0  0  0  0  0  0
    0.5881   -2.9074   -0.4348 H   0  0  0  0  0  0  0  0  0  0  0  0
    1.4030   -2.4130    1.0783 H   0  0  0  0  0  0  0  0  0  0  0  0
   -0.2113   -0.5140    1.3043 H   0  0  0  0  0  0  0  0  0  0  0  0
   -1.0820   -2.0502    1.3360 H   0  0  0  0  0  0  0  0  0  0  0  0
   -0.7085   -0.3064   -1.1449 H   0  0  0  0  0  0  0  0  0  0  0  0
   -1.7037   -1.7908   -1.0383 H   0  0  0  0  0  0  0  0  0  0  0  0
   -3.2649    1.5296    0.4625 H   0  0  0  0  0  0  0  0  0  0  0  0
  1  2  1  0
  1  4  1  0
  1  5  1  0
  1 17  1  0
  2  3  1  0
  2  6  1  0
  2  7  1  0
  3  8  1  0
  3  9  1  0
  3 10  1  0
 11 12  1  0
 11 18  1  0
 11 19  1  0
 12 13  1  0
 12 20  1  0
 12 21  1  0
 13 14  1  0
 13 22  1  0
 13 23  1  0
 14 15  1  0
 15 16  2  0
 15 24  1  0
M  RAD  1  11   2
M  END
>  <reaction>  (13) 
rmg_rxn_1454

>  <mol_properties>  (13) 
{"0": {"label": "*1", "atom_type": "Cs"}, "1": {"label": "*0", "atom_type": "Cs"}, "10": {"label": "*3", "atom_type": "Cs"}, "11": {"label": "*4", "atom_type": "Cs"}, "16": {"label": "*2", "atom_type": "H0"}}

>  <type>  (13) 
unop_9

>  <geom_source>  (13) 
Heuristics

$$$$

     RDKit          3D

 24 22  0  0  0  0  0  0  0  0999 V2000
    1.8331    1.5107   -0.2853 C   0  0  0  0  0  3  0  0  0  0  0  0
    3.1197    1.4994    0.5302 C   0  0  0  0  0  0  0  0  0  0  0  0
    3.3136    0.2006    1.3021 C   0  0  0  0  0  0  0  0  0  0  0  0
    1.7120    2.4482   -0.8306 H   0  0  0  0  0  0  0  0  0  0  0  0
    1.8252    0.6964   -1.0139 H   0  0  0  0  0  0  0  0  0  0  0  0
    3.9733    1.6588   -0.1344 H   0  0  0  0  0  0  0  0  0  0  0  0
    3.1153    2.3408    1.2286 H   0  0  0  0  0  0  0  0  0  0  0  0
    3.3524   -0.6551    0.6236 H   0  0  0  0  0  0  0  0  0  0  0  0
    4.2396    0.2115    1.8795 H   0  0  0  0  0  0  0  0  0  0  0  0
    2.4877    0.0323    1.9975 H   0  0  0  0  0  0  0  0  0  0  0  0
   -0.2610    1.2061    1.2632 C   0  0  0  0  0  0  0  0  0  0  0  0
   -1.5471    1.2174    0.4476 C   0  0  0  0  0  0  0  0  0  0  0  0
   -1.6029    0.1341   -0.6056 C   0  0  0  0  0  0  0  0  0  0  0  0
   -1.6033   -1.1402    0.0598 O   0  0  0  0  0  0  0  0  0  0  0  0
   -1.6033   -2.2147   -0.7211 C   0  0  0  0  0  0  0  0  0  0  0  0
   -1.6033   -2.2147   -1.9172 O   0  0  0  0  0  0  0  0  0  0  0  0
    0.7859    1.3584    0.4890 H   0  0  0  0  0  0  0  0  0  0  0  0
   -0.1469    0.2645    1.8011 H   0  0  0  0  0  0  0  0  0  0  0  0
   -0.2567    2.0147    1.9948 H   0  0  0  0  0  0  0  0  0  0  0  0
   -1.6547    2.1753   -0.0683 H   0  0  0  0  0  0  0  0  0  0  0  0
   -2.4138    1.1171    1.1057 H   0  0  0  0  0  0  0  0  0  0  0  0
   -2.5051    0.2090   -1.2150 H   0  0  0  0  0  0  0  0  0  0  0  0
   -0.7407    0.1790   -1.2751 H   0  0  0  0  0  0  0  0  0  0  0  0
   -1.6038   -3.1187   -0.0969 H   0  0  0  0  0  0  0  0  0  0  0  0
  1  2  1  0
  1  4  1  0
  1  5  1  0
  2  3  1  0
  2  6  1  0
  2  7  1  0
  3  8  1  0
  3  9  1  0
  3 10  1  0
 11 12  1  0
 11 17  1  0
 11 18  1  0
 11 19  1  0
 12 13  1  0
 12 20  1  0
 12 21  1  0
 13 14  1  0
 13 22  1  0
 13 23  1  0
 14 15  1  0
 15 16  2  0
 15 24  1  0
M  RAD  1   1   2
M  END
>  <reaction>  (14) 
rmg_rxn_1454

>  <mol_properties>  (14) 
{"0": {"label": "*1", "atom_type": "Cs"}, "1": {"label": "*0", "atom_type": "Cs"}, "10": {"label": "*3", "atom_type": "Cs"}, "11": {"label": "*4", "atom_type": "Cs"}, "16": {"label": "*2", "atom_type": "H0"}}

>  <type>  (14) 
unop_10

>  <geom_source>  (14) 
Heuristics

$$$$

     RDKit          3D

 24 22  0  0  0  0  0  0  0  0999 V2000
    2.1531   -0.2930   -1.1078 C   0  0  0  0  0  0  0  0  0  0  0  0
    2.1901    1.0323   -0.4169 C   0  0  0  0  0  0  0  0  0  0  0  0
    2.7967    0.9421    0.9781 C   0  0  0  0  0  0  0  0  0  0  0  0
    1.8238   -0.3028   -2.1339 H   0  0  0  0  0  0  0  0  0  0  0  0
    2.9243   -1.0154   -0.8659 H   0  0  0  0  0  0  0  0  0  0  0  0
    2.7802    1.7367   -1.0176 H   0  0  0  0  0  0  0  0  0  0  0  0
    1.1801    1.4478   -0.3514 H   0  0  0  0  0  0  0  0  0  0  0  0
    3.8164    0.5646    0.9284 H   0  0  0  0  0  0  0  0  0  0  0  0
    2.8150    1.9217    1.4491 H   0  0  0  0  0  0  0  0  0  0  0  0
    2.2143    0.2722    1.6063 H   0  0  0  0  0  0  0  0  0  0  0  0
    0.7838   -2.0887    0.2486 C   0  0  0  0  0  3  0  0  0  0  0  0
   -0.4721   -1.3912    0.7065 C   0  0  0  0  0  0  0  0  0  0  0  0
   -1.3126   -0.9358   -0.4841 C   0  0  0  0  0  0  0  0  0  0  0  0
   -2.4632   -0.1932   -0.0593 O   0  0  0  0  0  0  0  0  0  0  0  0
   -2.3036    1.0999    0.1312 C   0  0  0  0  0  0  0  0  0  0  0  0
   -1.3042    1.7379   -0.0296 O   0  0  0  0  0  0  0  0  0  0  0  0
    1.5249   -1.2144   -0.4301 H   0  0  0  0  0  0  0  0  0  0  0  0
    0.5877   -2.9072   -0.4359 H   0  0  0  0  0  0  0  0  0  0  0  0
    1.4032   -2.4131    1.0772 H   0  0  0  0  0  0  0  0  0  0  0  0
   -0.2113   -0.5144    1.3042 H   0  0  0  0  0  0  0  0  0  0  0  0
   -1.0822   -2.0504    1.3359 H   0  0  0  0  0  0  0  0  0  0  0  0
   -0.7092   -0.3066   -1.1450 H   0  0  0  0  0  0  0  0  0  0  0  0
   -1.7047   -1.7906   -1.0382 H   0  0  0  0  0  0  0  0  0  0  0  0
   -3.2648    1.5301    0.4627 H   0  0  0  0  0  0  0  0  0  0  0  0
  1  2  1  0
  1  4  1  0
  1  5  1  0
  1 17  1  0
  2  3  1  0
  2  6  1  0
  2  7  1  0
  3  8  1  0
  3  9  1  0
  3 10  1  0
 11 12  1  0
 11 18  1  0
 11 19  1  0
 12 13  1  0
 12 20  1  0
 12 21  1  0
 13 14  1  0
 13 22  1  0
 13 23  1  0
 14 15  1  0
 15 16  2  0
 15 24  1  0
M  RAD  1  11   2
M  END
>  <reaction>  (15) 
rmg_rxn_1454

>  <mol_properties>  (15) 
{"0": {"label": "*1", "atom_type": "Cs"}, "1": {"label": "*0", "atom_type": "Cs"}, "10": {"label": "*3", "atom_type": "Cs"}, "11": {"label": "*4", "atom_type": "Cs"}, "16": {"label": "*2", "atom_type": "H0"}}

>  <type>  (15) 
unop_11

>  <geom_source>  (15) 
Heuristics

$$$$

     RDKit          3D

 24 22  0  0  0  0  0  0  0  0999 V2000
    2.0768    1.6983    0.2465 C   0  0  0  0  0  3  0  0  0  0  0  0
    2.5997    0.3505   -0.2336 C   0  0  0  0  0  0  0  0  0  0  0  0
    2.1285    0.0057   -1.6406 C   0  0  0  0  0  0  0  0  0  0  0  0
    2.4246    1.9274    1.2552 H   0  0  0  0  0  0  0  0  0  0  0  0
    2.4090    2.5036   -0.4130 H   0  0  0  0  0  0  0  0  0  0  0  0
    3.6929    0.3535   -0.2063 H   0  0  0  0  0  0  0  0  0  0  0  0
    2.2793   -0.4322    0.4596 H   0  0  0  0  0  0  0  0  0  0  0  0
    2.4624    0.7577   -2.3596 H   0  0  0  0  0  0  0  0  0  0  0  0
    2.5130   -0.9622   -1.9665 H   0  0  0  0  0  0  0  0  0  0  0  0
    1.0376   -0.0342   -1.6884 H   0  0  0  0  0  0  0  0  0  0  0  0
   -0.0174    1.3936    1.7950 C   0  0  0  0  0  0  0  0  0  0  0  0
   -1.3035    1.4050    0.9795 C   0  0  0  0  0  0  0  0  0  0  0  0
   -1.3592    0.3216   -0.0738 C   0  0  0  0  0  0  0  0  0  0  0  0
   -1.3597   -0.9526    0.5917 O   0  0  0  0  0  0  0  0  0  0  0  0
   -1.3597   -2.0271   -0.1893 C   0  0  0  0  0  0  0  0  0  0  0  0
   -1.3597   -2.0271   -1.3853 O   0  0  0  0  0  0  0  0  0  0  0  0
    1.0296    1.5459    1.0209 H   0  0  0  0  0  0  0  0  0  0  0  0
    0.0968    0.4521    2.3329 H   0  0  0  0  0  0  0  0  0  0  0  0
   -0.0130    2.2023    2.5267 H   0  0  0  0  0  0  0  0  0  0  0  0
   -1.4110    2.3628    0.4635 H   0  0  0  0  0  0  0  0  0  0  0  0
   -2.1702    1.3046    1.6376 H   0  0  0  0  0  0  0  0  0  0  0  0
   -2.2615    0.3966   -0.6832 H   0  0  0  0  0  0  0  0  0  0  0  0
   -0.4971    0.3666   -0.7432 H   0  0  0  0  0  0  0  0  0  0  0  0
   -1.3602   -2.9311    0.4350 H   0  0  0  0  0  0  0  0  0  0  0  0
  1  2  1  0
  1  4  1  0
  1  5  1  0
  2  3  1  0
  2  6  1  0
  2  7  1  0
  3  8  1  0
  3  9  1  0
  3 10  1  0
 11 12  1  0
 11 17  1  0
 11 18  1  0
 11 19  1  0
 12 13  1  0
 12 20  1  0
 12 21  1  0
 13 14  1  0
 13 22  1  0
 13 23  1  0
 14 15  1  0
 15 16  2  0
 15 24  1  0
M  RAD  1   1   2
M  END
>  <reaction>  (16) 
rmg_rxn_1454

>  <mol_properties>  (16) 
{"0": {"label": "*1", "atom_type": "Cs"}, "1": {"label": "*0", "atom_type": "Cs"}, "10": {"label": "*3", "atom_type": "Cs"}, "11": {"label": "*4", "atom_type": "Cs"}, "16": {"label": "*2", "atom_type": "H0"}}

>  <type>  (16) 
unop_12

>  <geom_source>  (16) 
Heuristics

$$$$

     RDKit          3D

 24 22  0  0  0  0  0  0  0  0999 V2000
    2.2378   -0.3236   -1.0992 C   0  0  0  0  0  3  0  0  0  0  0  0
    2.1589    1.0120   -0.4086 C   0  0  0  0  0  0  0  0  0  0  0  0
    2.8145    0.9861    0.9676 C   0  0  0  0  0  0  0  0  0  0  0  0
    1.7930   -0.3254   -2.0887 H   0  0  0  0  0  0  0  0  0  0  0  0
    3.2402   -0.7386   -1.1191 H   0  0  0  0  0  0  0  0  0  0  0  0
    2.6624    1.7679   -1.0248 H   0  0  0  0  0  0  0  0  0  0  0  0
    1.1170    1.3256   -0.3129 H   0  0  0  0  0  0  0  0  0  0  0  0
    2.7505    1.9640    1.4385 H   0  0  0  0  0  0  0  0  0  0  0  0
    2.3221    0.2621    1.6123 H   0  0  0  0  0  0  0  0  0  0  0  0
    3.8644    0.7112    0.8863 H   0  0  0  0  0  0  0  0  0  0  0  0
    0.8124   -2.0471    0.2765 C   0  0  0  0  0  0  0  0  0  0  0  0
   -0.4469   -1.3477    0.7193 C   0  0  0  0  0  0  0  0  0  0  0  0
   -1.3069   -0.9487   -0.4780 C   0  0  0  0  0  0  0  0  0  0  0  0
   -2.4788   -0.2335   -0.0651 O   0  0  0  0  0  0  0  0  0  0  0  0
   -2.3529    1.0653    0.1154 C   0  0  0  0  0  0  0  0  0  0  0  0
   -1.3677    1.7250   -0.0441 O   0  0  0  0  0  0  0  0  0  0  0  0
    1.5344   -1.1913   -0.4091 H   0  0  0  0  0  0  0  0  0  0  0  0
    0.6261   -2.8772   -0.3960 H   0  0  0  0  0  0  0  0  0  0  0  0
    1.4368   -2.3501    1.1087 H   0  0  0  0  0  0  0  0  0  0  0  0
   -0.1927   -0.4475    1.2842 H   0  0  0  0  0  0  0  0  0  0  0  0
   -1.0412   -1.9934    1.3774 H   0  0  0  0  0  0  0  0  0  0  0  0
   -0.7294   -0.3172   -1.1597 H   0  0  0  0  0  0  0  0  0  0  0  0
   -1.6746   -1.8295   -1.0078 H   0  0  0  0  0  0  0  0  0  0  0  0
   -3.3265    1.4743    0.4367 H   0  0  0  0  0  0  0  0  0  0  0  0
  1  2  1  0
  1  4  1  0
  1  5  1  0
  2  3  1  0
  2  6  1  0
  2  7  1  0
  3  8  1  0
  3  9  1  0
  3 10  1  0
 11 12  1  0
 11 17  1  0
 11 18  1  0
 11 19  1  0
 12 13  1  0
 12 20  1  0
 12 21  1  0
 13 14  1  0
 13 22  1  0
 13 23  1  0
 14 15  1  0
 15 16  2  0
 15 24  1  0
M  RAD  1   1   2
M  END
>  <reaction>  (17) 
rmg_rxn_1454

>  <mol_properties>  (17) 
{"0": {"label": "*1", "atom_type": "Cs"}, "1": {"label": "*0", "atom_type": "Cs"}, "10": {"label": "*3", "atom_type": "Cs"}, "11": {"label": "*4", "atom_type": "Cs"}, "16": {"label": "*2", "atom_type": "H0"}}

>  <type>  (17) 
unop_13

>  <geom_source>  (17) 
Heuristics

$$$$

     RDKit          3D

 24 22  0  0  0  0  0  0  0  0999 V2000
    1.9513    1.7359    0.0860 C   0  0  0  0  0  3  0  0  0  0  0  0
    2.8883    0.5399    0.1957 C   0  0  0  0  0  0  0  0  0  0  0  0
    2.7148   -0.4485   -0.9504 C   0  0  0  0  0  0  0  0  0  0  0  0
    2.0904    2.4318    0.9150 H   0  0  0  0  0  0  0  0  0  0  0  0
    2.1244    2.2838   -0.8435 H   0  0  0  0  0  0  0  0  0  0  0  0
    3.9240    0.8900    0.2208 H   0  0  0  0  0  0  0  0  0  0  0  0
    2.7159    0.0284    1.1467 H   0  0  0  0  0  0  0  0  0  0  0  0
    2.9119    0.0305   -1.9126 H   0  0  0  0  0  0  0  0  0  0  0  0
    3.3938   -1.2974   -0.8544 H   0  0  0  0  0  0  0  0  0  0  0  0
    1.6942   -0.8378   -0.9793 H   0  0  0  0  0  0  0  0  0  0  0  0
   -0.1428    1.4313    1.6345 C   0  0  0  0  0  0  0  0  0  0  0  0
   -1.4289    1.4426    0.8189 C   0  0  0  0  0  0  0  0  0  0  0  0
   -1.4847    0.3593   -0.2343 C   0  0  0  0  0  0  0  0  0  0  0  0
   -1.4851   -0.9150    0.4311 O   0  0  0  0  0  0  0  0  0  0  0  0
   -1.4851   -1.9895   -0.3498 C   0  0  0  0  0  0  0  0  0  0  0  0
   -1.4851   -1.9895   -1.5458 O   0  0  0  0  0  0  0  0  0  0  0  0
    0.9041    1.5836    0.8603 H   0  0  0  0  0  0  0  0  0  0  0  0
   -0.0286    0.4897    2.1724 H   0  0  0  0  0  0  0  0  0  0  0  0
   -0.1385    2.2399    2.3661 H   0  0  0  0  0  0  0  0  0  0  0  0
   -1.5365    2.4004    0.3030 H   0  0  0  0  0  0  0  0  0  0  0  0
   -2.2956    1.3423    1.4770 H   0  0  0  0  0  0  0  0  0  0  0  0
   -2.3869    0.4342   -0.8437 H   0  0  0  0  0  0  0  0  0  0  0  0
   -0.6225    0.4042   -0.9038 H   0  0  0  0  0  0  0  0  0  0  0  0
   -1.4856   -2.8935    0.2744 H   0  0  0  0  0  0  0  0  0  0  0  0
  1  2  1  0
  1  4  1  0
  1  5  1  0
  2  3  1  0
  2  6  1  0
  2  7  1  0
  3  8  1  0
  3  9  1  0
  3 10  1  0
 11 12  1  0
 11 17  1  0
 11 18  1  0
 11 19  1  0
 12 13  1  0
 12 20  1  0
 12 21  1  0
 13 14  1  0
 13 22  1  0
 13 23  1  0
 14 15  1  0
 15 16  2  0
 15 24  1  0
M  RAD  1   1   2
M  END
>  <reaction>  (18) 
rmg_rxn_1454

>  <mol_properties>  (18) 
{"0": {"label": "*1", "atom_type": "Cs"}, "1": {"label": "*0", "atom_type": "Cs"}, "10": {"label": "*3", "atom_type": "Cs"}, "11": {"label": "*4", "atom_type": "Cs"}, "16": {"label": "*2", "atom_type": "H0"}}

>  <type>  (18) 
unop_14

>  <geom_source>  (18) 
Heuristics

$$$$

     RDKit          3D

 24 22  0  0  0  0  0  0  0  0999 V2000
    2.1558    0.2938   -1.1071 C   0  0  0  0  0  0  0  0  0  0  0  0
    2.1900   -1.0320   -0.4165 C   0  0  0  0  0  0  0  0  0  0  0  0
    2.7947   -0.9430    0.9794 C   0  0  0  0  0  0  0  0  0  0  0  0
    2.9310    1.0114   -0.8681 H   0  0  0  0  0  0  0  0  0  0  0  0
    1.8268    0.3030   -2.1335 H   0  0  0  0  0  0  0  0  0  0  0  0
    1.1794   -1.4461   -0.3525 H   0  0  0  0  0  0  0  0  0  0  0  0
    2.7801   -1.7369   -1.0165 H   0  0  0  0  0  0  0  0  0  0  0  0
    3.8152   -0.5676    0.9311 H   0  0  0  0  0  0  0  0  0  0  0  0
    2.2127   -0.2720    1.6066 H   0  0  0  0  0  0  0  0  0  0  0  0
    2.8104   -1.9227    1.4504 H   0  0  0  0  0  0  0  0  0  0  0  0
    0.7827    2.0899    0.2480 C   0  0  0  0  0  3  0  0  0  0  0  0
   -0.4727    1.3920    0.7064 C   0  0  0  0  0  0  0  0  0  0  0  0
   -1.3133    0.9360   -0.4839 C   0  0  0  0  0  0  0  0  0  0  0  0
   -2.4631    0.1926   -0.0585 O   0  0  0  0  0  0  0  0  0  0  0  0
   -2.3029   -1.1006    0.1309 C   0  0  0  0  0  0  0  0  0  0  0  0
   -1.3034   -1.7381   -0.0314 O   0  0  0  0  0  0  0  0  0  0  0  0
    1.5247    1.2137   -0.4309 H   0  0  0  0  0  0  0  0  0  0  0  0
    1.4027    2.4146    1.0761 H   0  0  0  0  0  0  0  0  0  0  0  0
    0.5869    2.9074   -0.4376 H   0  0  0  0  0  0  0  0  0  0  0  0
   -1.0828    2.0512    1.3357 H   0  0  0  0  0  0  0  0  0  0  0  0
   -0.2115    0.5154    1.3042 H   0  0  0  0  0  0  0  0  0  0  0  0
   -1.7061    1.7905   -1.0379 H   0  0  0  0  0  0  0  0  0  0  0  0
   -0.7097    0.3071   -1.1450 H   0  0  0  0  0  0  0  0  0  0  0  0
   -3.2636   -1.5313    0.4631 H   0  0  0  0  0  0  0  0  0  0  0  0
  1  2  1  0
  1  4  1  0
  1  5  1  0
  1 17  1  0
  2  3  1  0
  2  6  1  0
  2  7  1  0
  3  8  1  0
  3  9  1  0
  3 10  1  0
 11 12  1  0
 11 18  1  0
 11 19  1  0
 12 13  1  0
 12 20  1  0
 12 21  1  0
 13 14  1  0
 13 22  1  0
 13 23  1  0
 14 15  1  0
 15 16  2  0
 15 24  1  0
M  RAD  1  11   2
M  END
>  <reaction>  (19) 
rmg_rxn_1454

>  <mol_properties>  (19) 
{"0": {"label": "*1", "atom_type": "Cs"}, "1": {"label": "*0", "atom_type": "Cs"}, "10": {"label": "*3", "atom_type": "Cs"}, "11": {"label": "*4", "atom_type": "Cs"}, "16": {"label": "*2", "atom_type": "H0"}}

>  <type>  (19) 
unop_15

>  <geom_source>  (19) 
Heuristics

$$$$

     RDKit          3D

 24 22  0  0  0  0  0  0  0  0999 V2000
    2.1286    0.9333   -0.1124 C   0  0  0  0  0  3  0  0  0  0  0  0
    2.4755    2.4077   -0.2755 C   0  0  0  0  0  0  0  0  0  0  0  0
    1.8926    3.2737    0.8339 C   0  0  0  0  0  0  0  0  0  0  0  0
    2.5545    0.3298   -0.9157 H   0  0  0  0  0  0  0  0  0  0  0  0
    2.5090    0.5451    0.8356 H   0  0  0  0  0  0  0  0  0  0  0  0
    3.5624    2.5258   -0.2965 H   0  0  0  0  0  0  0  0  0  0  0  0
    2.1111    2.7624   -1.2436 H   0  0  0  0  0  0  0  0  0  0  0  0
    2.2656    2.9593    1.8117 H   0  0  0  0  0  0  0  0  0  0  0  0
    2.1516    4.3254    0.6999 H   0  0  0  0  0  0  0  0  0  0  0  0
    0.8028    3.1978    0.8571 H   0  0  0  0  0  0  0  0  0  0  0  0
    0.0345    0.6287    1.4361 C   0  0  0  0  0  0  0  0  0  0  0  0
   -1.2516    0.6400    0.6205 C   0  0  0  0  0  0  0  0  0  0  0  0
   -1.3074   -0.4433   -0.4327 C   0  0  0  0  0  0  0  0  0  0  0  0
   -1.3078   -1.7175    0.2328 O   0  0  0  0  0  0  0  0  0  0  0  0
   -1.3078   -2.7921   -0.5482 C   0  0  0  0  0  0  0  0  0  0  0  0
   -1.3078   -2.7921   -1.7442 O   0  0  0  0  0  0  0  0  0  0  0  0
    1.0815    0.7810    0.6620 H   0  0  0  0  0  0  0  0  0  0  0  0
    0.1487   -0.3128    1.9740 H   0  0  0  0  0  0  0  0  0  0  0  0
    0.0389    1.4373    2.1678 H   0  0  0  0  0  0  0  0  0  0  0  0
   -1.3592    1.5979    0.1046 H   0  0  0  0  0  0  0  0  0  0  0  0
   -2.1183    0.5397    1.2787 H   0  0  0  0  0  0  0  0  0  0  0  0
   -2.2096   -0.3684   -1.0421 H   0  0  0  0  0  0  0  0  0  0  0  0
   -0.4452   -0.3983   -1.1021 H   0  0  0  0  0  0  0  0  0  0  0  0
   -1.3083   -3.6960    0.0760 H   0  0  0  0  0  0  0  0  0  0  0  0
  1  2  1  0
  1  4  1  0
  1  5  1  0
  2  3  1  0
  2  6  1  0
  2  7  1  0
  3  8  1  0
  3  9  1  0
  3 10  1  0
 11 12  1  0
 11 17  1  0
 11 18  1  0
 11 19  1  0
 12 13  1  0
 12 20  1  0
 12 21  1  0
 13 14  1  0
 13 22  1  0
 13 23  1  0
 14 15  1  0
 15 16  2  0
 15 24  1  0
M  RAD  1   1   2
M  END
>  <reaction>  (20) 
rmg_rxn_1454

>  <mol_properties>  (20) 
{"0": {"label": "*1", "atom_type": "Cs"}, "1": {"label": "*0", "atom_type": "Cs"}, "10": {"label": "*3", "atom_type": "Cs"}, "11": {"label": "*4", "atom_type": "Cs"}, "16": {"label": "*2", "atom_type": "H0"}}

>  <type>  (20) 
unop_16

>  <geom_source>  (20) 
Heuristics

$$$$

     RDKit          3D

 24 22  0  0  0  0  0  0  0  0999 V2000
    2.2374    0.3239    1.0994 C   0  0  0  0  0  3  0  0  0  0  0  0
    2.1592   -1.0118    0.4088 C   0  0  0  0  0  0  0  0  0  0  0  0
    2.8159   -0.9860   -0.9669 C   0  0  0  0  0  0  0  0  0  0  0  0
    1.7921    0.3256    2.0886 H   0  0  0  0  0  0  0  0  0  0  0  0
    3.2398    0.7389    1.1198 H   0  0  0  0  0  0  0  0  0  0  0  0
    2.6621   -1.7675    1.0256 H   0  0  0  0  0  0  0  0  0  0  0  0
    1.1173   -1.3254    0.3124 H   0  0  0  0  0  0  0  0  0  0  0  0
    2.3239   -0.2622   -1.6121 H   0  0  0  0  0  0  0  0  0  0  0  0
    3.8657   -0.7106   -0.8847 H   0  0  0  0  0  0  0  0  0  0  0  0
    2.7525   -1.9640   -1.4376 H   0  0  0  0  0  0  0  0  0  0  0  0
    0.8123    2.0467   -0.2774 C   0  0  0  0  0  0  0  0  0  0  0  0
   -0.4471    1.3471   -0.7195 C   0  0  0  0  0  0  0  0  0  0  0  0
   -1.3067    0.9485    0.4782 C   0  0  0  0  0  0  0  0  0  0  0  0
   -2.4790    0.2337    0.0659 O   0  0  0  0  0  0  0  0  0  0  0  0
   -2.3535   -1.0650   -0.1153 C   0  0  0  0  0  0  0  0  0  0  0  0
   -1.3682   -1.7249    0.0430 O   0  0  0  0  0  0  0  0  0  0  0  0
    1.5342    1.1913    0.4088 H   0  0  0  0  0  0  0  0  0  0  0  0
    0.6261    2.8773    0.3945 H   0  0  0  0  0  0  0  0  0  0  0  0
    1.4366    2.3491   -1.1099 H   0  0  0  0  0  0  0  0  0  0  0  0
   -0.1928    0.4468   -1.2841 H   0  0  0  0  0  0  0  0  0  0  0  0
   -1.0416    1.9925   -1.3778 H   0  0  0  0  0  0  0  0  0  0  0  0
   -0.7291    0.3169    1.1597 H   0  0  0  0  0  0  0  0  0  0  0  0
   -1.6739    1.8294    1.0081 H   0  0  0  0  0  0  0  0  0  0  0  0
   -3.3273   -1.4737   -0.4362 H   0  0  0  0  0  0  0  0  0  0  0  0
  1  2  1  0
  1  4  1  0
  1  5  1  0
  2  3  1  0
  2  6  1  0
  2  7  1  0
  3  8  1  0
  3  9  1  0
  3 10  1  0
 11 12  1  0
 11 17  1  0
 11 18  1  0
 11 19  1  0
 12 13  1  0
 12 20  1  0
 12 21  1  0
 13 14  1  0
 13 22  1  0
 13 23  1  0
 14 15  1  0
 15 16  2  0
 15 24  1  0
M  RAD  1   1   2
M  END
>  <reaction>  (21) 
rmg_rxn_1454

>  <mol_properties>  (21) 
{"0": {"label": "*1", "atom_type": "Cs"}, "1": {"label": "*0", "atom_type": "Cs"}, "10": {"label": "*3", "atom_type": "Cs"}, "11": {"label": "*4", "atom_type": "Cs"}, "16": {"label": "*2", "atom_type": "H0"}}

>  <type>  (21) 
unop_17

>  <geom_source>  (21) 
Heuristics

$$$$

     RDKit          3D

 24 22  0  0  0  0  0  0  0  0999 V2000
    2.2954    1.3846    0.3890 C   0  0  0  0  0  3  0  0  0  0  0  0
    2.0367    0.8069   -0.9967 C   0  0  0  0  0  0  0  0  0  0  0  0
    1.1786    1.7205   -1.8624 C   0  0  0  0  0  0  0  0  0  0  0  0
    2.9111    0.7166    0.9936 H   0  0  0  0  0  0  0  0  0  0  0  0
    2.8111    2.3456    0.3215 H   0  0  0  0  0  0  0  0  0  0  0  0
    2.9909    0.6215   -1.4976 H   0  0  0  0  0  0  0  0  0  0  0  0
    1.5485   -0.1667   -0.8998 H   0  0  0  0  0  0  0  0  0  0  0  0
    1.6591    2.6921   -2.0008 H   0  0  0  0  0  0  0  0  0  0  0  0
    1.0045    1.2901   -2.8500 H   0  0  0  0  0  0  0  0  0  0  0  0
    0.2053    1.8976   -1.3982 H   0  0  0  0  0  0  0  0  0  0  0  0
    0.2013    1.0800    1.9375 C   0  0  0  0  0  0  0  0  0  0  0  0
   -1.0849    1.0913    1.1219 C   0  0  0  0  0  0  0  0  0  0  0  0
   -1.1406    0.0080    0.0687 C   0  0  0  0  0  0  0  0  0  0  0  0
   -1.1411   -1.2663    0.7341 O   0  0  0  0  0  0  0  0  0  0  0  0
   -1.1411   -2.3408   -0.0469 C   0  0  0  0  0  0  0  0  0  0  0  0
   -1.1411   -2.3408   -1.2429 O   0  0  0  0  0  0  0  0  0  0  0  0
    1.2482    1.2323    1.1633 H   0  0  0  0  0  0  0  0  0  0  0  0
    0.3154    0.1385    2.4754 H   0  0  0  0  0  0  0  0  0  0  0  0
    0.2056    1.8886    2.6691 H   0  0  0  0  0  0  0  0  0  0  0  0
   -1.1924    2.0492    0.6060 H   0  0  0  0  0  0  0  0  0  0  0  0
   -1.9516    0.9910    1.7800 H   0  0  0  0  0  0  0  0  0  0  0  0
   -2.0428    0.0829   -0.5407 H   0  0  0  0  0  0  0  0  0  0  0  0
   -0.2785    0.0529   -0.6008 H   0  0  0  0  0  0  0  0  0  0  0  0
   -1.1416   -3.2447    0.5774 H   0  0  0  0  0  0  0  0  0  0  0  0
  1  2  1  0
  1  4  1  0
  1  5  1  0
  2  3  1  0
  2  6  1  0
  2  7  1  0
  3  8  1  0
  3  9  1  0
  3 10  1  0
 11 12  1  0
 11 17  1  0
 11 18  1  0
 11 19  1  0
 12 13  1  0
 12 20  1  0
 12 21  1  0
 13 14  1  0
 13 22  1  0
 13 23  1  0
 14 15  1  0
 15 16  2  0
 15 24  1  0
M  RAD  1   1   2
M  END
>  <reaction>  (22) 
rmg_rxn_1454

>  <mol_properties>  (22) 
{"0": {"label": "*1", "atom_type": "Cs"}, "1": {"label": "*0", "atom_type": "Cs"}, "10": {"label": "*3", "atom_type": "Cs"}, "11": {"label": "*4", "atom_type": "Cs"}, "16": {"label": "*2", "atom_type": "H0"}}

>  <type>  (22) 
unop_18

>  <geom_source>  (22) 
Heuristics

$$$$

     RDKit          3D

 24 22  0  0  0  0  0  0  0  0999 V2000
    2.2441    0.9422    0.0603 C   0  0  0  0  0  3  0  0  0  0  0  0
    2.1769    2.2647   -0.6926 C   0  0  0  0  0  0  0  0  0  0  0  0
    1.3916    3.3300    0.0618 C   0  0  0  0  0  0  0  0  0  0  0  0
    2.8101    0.1926   -0.4953 H   0  0  0  0  0  0  0  0  0  0  0  0
    2.7243    1.0706    1.0334 H   0  0  0  0  0  0  0  0  0  0  0  0
    3.1909    2.6269   -0.8834 H   0  0  0  0  0  0  0  0  0  0  0  0
    1.7210    2.1026   -1.6732 H   0  0  0  0  0  0  0  0  0  0  0  0
    1.8450    3.5337    1.0349 H   0  0  0  0  0  0  0  0  0  0  0  0
    1.3547    4.2692   -0.4928 H   0  0  0  0  0  0  0  0  0  0  0  0
    0.3635    3.0053    0.2389 H   0  0  0  0  0  0  0  0  0  0  0  0
    0.1500    0.6375    1.6088 C   0  0  0  0  0  0  0  0  0  0  0  0
   -1.1361    0.6489    0.7933 C   0  0  0  0  0  0  0  0  0  0  0  0
   -1.1918   -0.4345   -0.2600 C   0  0  0  0  0  0  0  0  0  0  0  0
   -1.1923   -1.7087    0.4055 O   0  0  0  0  0  0  0  0  0  0  0  0
   -1.1923   -2.7832   -0.3755 C   0  0  0  0  0  0  0  0  0  0  0  0
   -1.1923   -2.7832   -1.5715 O   0  0  0  0  0  0  0  0  0  0  0  0
    1.1970    0.7898    0.8347 H   0  0  0  0  0  0  0  0  0  0  0  0
    0.2642   -0.3040    2.1467 H   0  0  0  0  0  0  0  0  0  0  0  0
    0.1544    1.4462    2.3405 H   0  0  0  0  0  0  0  0  0  0  0  0
   -1.2436    1.6067    0.2773 H   0  0  0  0  0  0  0  0  0  0  0  0
   -2.0028    0.5485    1.4514 H   0  0  0  0  0  0  0  0  0  0  0  0
   -2.0941   -0.3595   -0.8694 H   0  0  0  0  0  0  0  0  0  0  0  0
   -0.3297   -0.3895   -0.9294 H   0  0  0  0  0  0  0  0  0  0  0  0
   -1.1928   -3.6872    0.2488 H   0  0  0  0  0  0  0  0  0  0  0  0
  1  2  1  0
  1  4  1  0
  1  5  1  0
  2  3  1  0
  2  6  1  0
  2  7  1  0
  3  8  1  0
  3  9  1  0
  3 10  1  0
 11 12  1  0
 11 17  1  0
 11 18  1  0
 11 19  1  0
 12 13  1  0
 12 20  1  0
 12 21  1  0
 13 14  1  0
 13 22  1  0
 13 23  1  0
 14 15  1  0
 15 16  2  0
 15 24  1  0
M  RAD  1   1   2
M  END
>  <reaction>  (23) 
rmg_rxn_1454

>  <mol_properties>  (23) 
{"0": {"label": "*1", "atom_type": "Cs"}, "1": {"label": "*0", "atom_type": "Cs"}, "10": {"label": "*3", "atom_type": "Cs"}, "11": {"label": "*4", "atom_type": "Cs"}, "16": {"label": "*2", "atom_type": "H0"}}

>  <type>  (23) 
unop_19

>  <geom_source>  (23) 
Heuristics

$$$$

     RDKit          3D

 24 22  0  0  0  0  0  0  0  0999 V2000
    1.8588    1.6797   -0.0975 C   0  0  0  0  0  3  0  0  0  0  0  0
    3.0753    0.9729    0.4864 C   0  0  0  0  0  0  0  0  0  0  0  0
    3.1769   -0.4815    0.0448 C   0  0  0  0  0  0  0  0  0  0  0  0
    1.8034    2.7193    0.2299 H   0  0  0  0  0  0  0  0  0  0  0  0
    1.8906    1.6740   -1.1897 H   0  0  0  0  0  0  0  0  0  0  0  0
    3.9829    1.5070    0.1918 H   0  0  0  0  0  0  0  0  0  0  0  0
    3.0344    1.0198    1.5782 H   0  0  0  0  0  0  0  0  0  0  0  0
    3.2503   -0.5553   -1.0429 H   0  0  0  0  0  0  0  0  0  0  0  0
    4.0537   -0.9704    0.4729 H   0  0  0  0  0  0  0  0  0  0  0  0
    2.2942   -1.0463    0.3545 H   0  0  0  0  0  0  0  0  0  0  0  0
   -0.2353    1.3751    1.4510 C   0  0  0  0  0  0  0  0  0  0  0  0
   -1.5214    1.3864    0.6354 C   0  0  0  0  0  0  0  0  0  0  0  0
   -1.5772    0.3031   -0.4178 C   0  0  0  0  0  0  0  0  0  0  0  0
   -1.5776   -0.9712    0.2476 O   0  0  0  0  0  0  0  0  0  0  0  0
   -1.5776   -2.0457   -0.5333 C   0  0  0  0  0  0  0  0  0  0  0  0
   -1.5776   -2.0457   -1.7293 O   0  0  0  0  0  0  0  0  0  0  0  0
    0.8116    1.5274    0.6768 H   0  0  0  0  0  0  0  0  0  0  0  0
   -0.1212    0.4335    1.9889 H   0  0  0  0  0  0  0  0  0  0  0  0
   -0.2310    2.1837    2.1826 H   0  0  0  0  0  0  0  0  0  0  0  0
   -1.6290    2.3442    0.1195 H   0  0  0  0  0  0  0  0  0  0  0  0
   -2.3881    1.2861    1.2936 H   0  0  0  0  0  0  0  0  0  0  0  0
   -2.4794    0.3780   -1.0272 H   0  0  0  0  0  0  0  0  0  0  0  0
   -0.7150    0.3480   -1.0872 H   0  0  0  0  0  0  0  0  0  0  0  0
   -1.5781   -2.9497    0.0909 H   0  0  0  0  0  0  0  0  0  0  0  0
  1  2  1  0
  1  4  1  0
  1  5  1  0
  2  3  1  0
  2  6  1  0
  2  7  1  0
  3  8  1  0
  3  9  1  0
  3 10  1  0
 11 12  1  0
 11 17  1  0
 11 18  1  0
 11 19  1  0
 12 13  1  0
 12 20  1  0
 12 21  1  0
 13 14  1  0
 13 22  1  0
 13 23  1  0
 14 15  1  0
 15 16  2  0
 15 24  1  0
M  RAD  1   1   2
M  END
>  <reaction>  (24) 
rmg_rxn_1454

>  <mol_properties>  (24) 
{"0": {"label": "*1", "atom_type": "Cs"}, "1": {"label": "*0", "atom_type": "Cs"}, "10": {"label": "*3", "atom_type": "Cs"}, "11": {"label": "*4", "atom_type": "Cs"}, "16": {"label": "*2", "atom_type": "H0"}}

>  <type>  (24) 
unop_20

>  <geom_source>  (24) 
Heuristics

$$$$

     RDKit          3D

 24 22  0  0  0  0  0  0  0  0999 V2000
    2.3375    1.1918    0.3340 C   0  0  0  0  0  3  0  0  0  0  0  0
    1.9207    1.3297   -1.1247 C   0  0  0  0  0  0  0  0  0  0  0  0
    1.0050    2.5235   -1.3629 C   0  0  0  0  0  0  0  0  0  0  0  0
    2.9924    0.3320    0.4846 H   0  0  0  0  0  0  0  0  0  0  0  0
    2.8714    2.0827    0.6736 H   0  0  0  0  0  0  0  0  0  0  0  0
    2.8123    1.4242   -1.7507 H   0  0  0  0  0  0  0  0  0  0  0  0
    1.4168    0.4143   -1.4473 H   0  0  0  0  0  0  0  0  0  0  0  0
    1.4969    3.4564   -1.0769 H   0  0  0  0  0  0  0  0  0  0  0  0
    0.7176    2.6055   -2.4125 H   0  0  0  0  0  0  0  0  0  0  0  0
    0.0904    2.4385   -0.7711 H   0  0  0  0  0  0  0  0  0  0  0  0
    0.2434    0.8872    1.8825 C   0  0  0  0  0  0  0  0  0  0  0  0
   -1.0428    0.8985    1.0670 C   0  0  0  0  0  0  0  0  0  0  0  0
   -1.0985   -0.1848    0.0137 C   0  0  0  0  0  0  0  0  0  0  0  0
   -1.0989   -1.4591    0.6792 O   0  0  0  0  0  0  0  0  0  0  0  0
   -1.0989   -2.5336   -0.1018 C   0  0  0  0  0  0  0  0  0  0  0  0
   -1.0989   -2.5336   -1.2978 O   0  0  0  0  0  0  0  0  0  0  0  0
    1.2903    1.0395    1.1084 H   0  0  0  0  0  0  0  0  0  0  0  0
    0.3575   -0.0544    2.4204 H   0  0  0  0  0  0  0  0  0  0  0  0
    0.2477    1.6958    2.6142 H   0  0  0  0  0  0  0  0  0  0  0  0
   -1.1503    1.8564    0.5510 H   0  0  0  0  0  0  0  0  0  0  0  0
   -1.9094    0.7982    1.7251 H   0  0  0  0  0  0  0  0  0  0  0  0
   -2.0007   -0.1099   -0.5957 H   0  0  0  0  0  0  0  0  0  0  0  0
   -0.2364   -0.1399   -0.6557 H   0  0  0  0  0  0  0  0  0  0  0  0
   -1.0995   -3.4376    0.5225 H   0  0  0  0  0  0  0  0  0  0  0  0
  1  2  1  0
  1  4  1  0
  1  5  1  0
  2  3  1  0
  2  6  1  0
  2  7  1  0
  3  8  1  0
  3  9  1  0
  3 10  1  0
 11 12  1  0
 11 17  1  0
 11 18  1  0
 11 19  1  0
 12 13  1  0
 12 20  1  0
 12 21  1  0
 13 14  1  0
 13 22  1  0
 13 23  1  0
 14 15  1  0
 15 16  2  0
 15 24  1  0
M  RAD  1   1   2
M  END
>  <reaction>  (25) 
rmg_rxn_1454

>  <mol_properties>  (25) 
{"0": {"label": "*1", "atom_type": "Cs"}, "1": {"label": "*0", "atom_type": "Cs"}, "10": {"label": "*3", "atom_type": "Cs"}, "11": {"label": "*4", "atom_type": "Cs"}, "16": {"label": "*2", "atom_type": "H0"}}

>  <type>  (25) 
unop_21

>  <geom_source>  (25) 
Heuristics

$$$$

     RDKit          3D

 24 22  0  0  0  0  0  0  0  0999 V2000
    2.2375   -0.3243    1.0993 C   0  0  0  0  0  3  0  0  0  0  0  0
    2.1593    1.0116    0.4090 C   0  0  0  0  0  0  0  0  0  0  0  0
    2.8162    0.9863   -0.9666 C   0  0  0  0  0  0  0  0  0  0  0  0
    3.2398   -0.7395    1.1195 H   0  0  0  0  0  0  0  0  0  0  0  0
    1.7921   -0.3264    2.0885 H   0  0  0  0  0  0  0  0  0  0  0  0
    1.1174    1.3254    0.3124 H   0  0  0  0  0  0  0  0  0  0  0  0
    2.6622    1.7673    1.0260 H   0  0  0  0  0  0  0  0  0  0  0  0
    2.7527    1.9644   -1.4370 H   0  0  0  0  0  0  0  0  0  0  0  0
    3.8659    0.7110   -0.8843 H   0  0  0  0  0  0  0  0  0  0  0  0
    2.3242    0.2627   -1.6121 H   0  0  0  0  0  0  0  0  0  0  0  0
    0.8122   -2.0467   -0.2779 C   0  0  0  0  0  0  0  0  0  0  0  0
   -0.4473   -1.3470   -0.7197 C   0  0  0  0  0  0  0  0  0  0  0  0
   -1.3066   -0.9484    0.4783 C   0  0  0  0  0  0  0  0  0  0  0  0
   -2.4791   -0.2337    0.0664 O   0  0  0  0  0  0  0  0  0  0  0  0
   -2.3536    1.0650   -0.1152 C   0  0  0  0  0  0  0  0  0  0  0  0
   -1.3682    1.7249    0.0426 O   0  0  0  0  0  0  0  0  0  0  0  0
    1.5342   -1.1915    0.4084 H   0  0  0  0  0  0  0  0  0  0  0  0
    1.4364   -2.3488   -1.1105 H   0  0  0  0  0  0  0  0  0  0  0  0
    0.6262   -2.8775    0.3939 H   0  0  0  0  0  0  0  0  0  0  0  0
   -1.0421   -1.9923   -1.3777 H   0  0  0  0  0  0  0  0  0  0  0  0
   -0.1933   -0.4466   -1.2842 H   0  0  0  0  0  0  0  0  0  0  0  0
   -1.6735   -1.8293    1.0083 H   0  0  0  0  0  0  0  0  0  0  0  0
   -0.7287   -0.3167    1.1596 H   0  0  0  0  0  0  0  0  0  0  0  0
   -3.3276    1.4737   -0.4356 H   0  0  0  0  0  0  0  0  0  0  0  0
  1  2  1  0
  1  4  1  0
  1  5  1  0
  2  3  1  0
  2  6  1  0
  2  7  1  0
  3  8  1  0
  3  9  1  0
  3 10  1  0
 11 12  1  0
 11 17  1  0
 11 18  1  0
 11 19  1  0
 12 13  1  0
 12 20  1  0
 12 21  1  0
 13 14  1  0
 13 22  1  0
 13 23  1  0
 14 15  1  0
 15 16  2  0
 15 24  1  0
M  RAD  1   1   2
M  END
>  <reaction>  (26) 
rmg_rxn_1454

>  <mol_properties>  (26) 
{"0": {"label": "*1", "atom_type": "Cs"}, "1": {"label": "*0", "atom_type": "Cs"}, "10": {"label": "*3", "atom_type": "Cs"}, "11": {"label": "*4", "atom_type": "Cs"}, "16": {"label": "*2", "atom_type": "H0"}}

>  <type>  (26) 
unop_22

>  <geom_source>  (26) 
Heuristics

$$$$

     RDKit          3D

 24 22  0  0  0  0  0  0  0  0999 V2000
    3.4591    0.6092   -0.7953 O   0  0  0  0  0  0  0  0  0  0  0  0
    2.9309    2.2391    0.7647 O   0  0  0  0  0  0  0  0  0  0  0  0
   -2.4156    0.0983    0.6516 C   0  0  0  0  0  0  0  0  0  0  0  0
    1.2940   -0.3843   -0.3081 C   0  0  0  0  0  0  0  0  0  0  0  0
    2.8101   -0.4591   -0.1080 C   0  0  0  0  0  0  0  0  0  0  0  0
   -3.5980    0.8739    0.0791 C   0  0  0  0  0  0  0  0  0  0  0  0
   -1.7413   -0.7544   -0.4173 C   0  0  0  0  0  0  0  0  0  0  0  0
    0.5886   -1.5488    0.3757 C   0  0  0  0  0  3  0  0  0  0  0  0
    3.4705    1.9282   -0.3308 C   0  0  0  0  0  0  0  0  0  0  0  0
   -1.6743    0.8127    1.0694 H   0  0  0  0  0  0  0  0  0  0  0  0
   -2.7703   -0.5602    1.4732 H   0  0  0  0  0  0  0  0  0  0  0  0
    1.0611   -0.4097   -1.3941 H   0  0  0  0  0  0  0  0  0  0  0  0
    0.9015    0.5655    0.1120 H   0  0  0  0  0  0  0  0  0  0  0  0
    3.1858   -1.4185   -0.5235 H   0  0  0  0  0  0  0  0  0  0  0  0
    3.0656   -0.4289    0.9742 H   0  0  0  0  0  0  0  0  0  0  0  0
   -4.0657    1.4832    0.8810 H   0  0  0  0  0  0  0  0  0  0  0  0
   -3.2577    1.5537   -0.7310 H   0  0  0  0  0  0  0  0  0  0  0  0
   -4.3597    0.1734   -0.3250 H   0  0  0  0  0  0  0  0  0  0  0  0
   -1.3575   -0.1124   -1.2387 H   0  0  0  0  0  0  0  0  0  0  0  0
   -2.4598   -1.4931   -0.8326 H   0  0  0  0  0  0  0  0  0  0  0  0
   -0.7205   -1.4102    0.1239 H   0  0  0  0  0  0  0  0  0  0  0  0
    0.9226   -2.5182   -0.0517 H   0  0  0  0  0  0  0  0  0  0  0  0
    0.7732   -1.5324    1.4710 H   0  0  0  0  0  0  0  0  0  0  0  0
    3.9575    2.6931   -0.9197 H   0  0  0  0  0  0  0  0  0  0  0  0
  1  5  1  0
  1  9  1  0
  2  9  2  0
  3  6  1  0
  3  7  1  0
  3 10  1  0
  3 11  1  0
  4  8  1  0
  4  5  1  0
  4 12  1  0
  4 13  1  0
  5 14  1  0
  5 15  1  0
  6 16  1  0
  6 17  1  0
  6 18  1  0
  7 19  1  0
  7 20  1  0
  7 21  1  0
  8 22  1  0
  8 23  1  0
  9 24  1  0
M  RAD  1   8   2
M  END
>  <reaction>  (27) 
rmg_rxn_1454

>  <mol_properties>  (27) 
{"0": {"label": "*1", "atom_type": "Cs"}, "1": {"label": "*0", "atom_type": "Cs"}, "10": {"label": "*3", "atom_type": "Cs"}, "11": {"label": "*4", "atom_type": "Cs"}, "16": {"label": "*2", "atom_type": "H0"}}

>  <type>  (27) 
unop_23

>  <geom_source>  (27) 
AutoTST

$$$$

     RDKit          3D

 24 22  0  0  0  0  0  0  0  0999 V2000
    2.3191    1.0364    0.2161 C   0  0  0  0  0  3  0  0  0  0  0  0
    1.9724    1.8697   -1.0110 C   0  0  0  0  0  0  0  0  0  0  0  0
    1.0794    3.0586   -0.6797 C   0  0  0  0  0  0  0  0  0  0  0  0
    2.9587    0.1903   -0.0412 H   0  0  0  0  0  0  0  0  0  0  0  0
    2.8443    1.6384    0.9615 H   0  0  0  0  0  0  0  0  0  0  0  0
    2.8932    2.2260   -1.4811 H   0  0  0  0  0  0  0  0  0  0  0  0
    1.4762    1.2372   -1.7523 H   0  0  0  0  0  0  0  0  0  0  0  0
    1.5656    3.7244    0.0375 H   0  0  0  0  0  0  0  0  0  0  0  0
    0.8423    3.6427   -1.5704 H   0  0  0  0  0  0  0  0  0  0  0  0
    0.1373    2.7277   -0.2358 H   0  0  0  0  0  0  0  0  0  0  0  0
    0.2250    0.7317    1.7646 C   0  0  0  0  0  0  0  0  0  0  0  0
   -1.0611    0.7430    0.9490 C   0  0  0  0  0  0  0  0  0  0  0  0
   -1.1169   -0.3403   -0.1042 C   0  0  0  0  0  0  0  0  0  0  0  0
   -1.1173   -1.6145    0.5613 O   0  0  0  0  0  0  0  0  0  0  0  0
   -1.1173   -2.6890   -0.2197 C   0  0  0  0  0  0  0  0  0  0  0  0
   -1.1173   -2.6890   -1.4157 O   0  0  0  0  0  0  0  0  0  0  0  0
    1.2719    0.8840    0.9904 H   0  0  0  0  0  0  0  0  0  0  0  0
    0.3392   -0.2098    2.3025 H   0  0  0  0  0  0  0  0  0  0  0  0
    0.2294    1.5403    2.4962 H   0  0  0  0  0  0  0  0  0  0  0  0
   -1.1687    1.7009    0.4331 H   0  0  0  0  0  0  0  0  0  0  0  0
   -1.9278    0.6427    1.6072 H   0  0  0  0  0  0  0  0  0  0  0  0
   -2.0191   -0.2654   -0.7136 H   0  0  0  0  0  0  0  0  0  0  0  0
   -0.2547   -0.2953   -0.7736 H   0  0  0  0  0  0  0  0  0  0  0  0
   -1.1178   -3.5930    0.4045 H   0  0  0  0  0  0  0  0  0  0  0  0
  1  2  1  0
  1  4  1  0
  1  5  1  0
  2  3  1  0
  2  6  1  0
  2  7  1  0
  3  8  1  0
  3  9  1  0
  3 10  1  0
 11 12  1  0
 11 17  1  0
 11 18  1  0
 11 19  1  0
 12 13  1  0
 12 20  1  0
 12 21  1  0
 13 14  1  0
 13 22  1  0
 13 23  1  0
 14 15  1  0
 15 16  2  0
 15 24  1  0
M  RAD  1   1   2
M  END
>  <reaction>  (28) 
rmg_rxn_1454

>  <mol_properties>  (28) 
{"0": {"label": "*1", "atom_type": "Cs"}, "1": {"label": "*0", "atom_type": "Cs"}, "10": {"label": "*3", "atom_type": "Cs"}, "11": {"label": "*4", "atom_type": "Cs"}, "16": {"label": "*2", "atom_type": "H0"}}

>  <type>  (28) 
unop_24

>  <geom_source>  (28) 
gaussian_log

$$$$
