
     RDKit          3D

  6  5  0  0  0  0  0  0  0  0999 V2000
   -0.4547   -0.0097   -0.0070 C   0  0  0  0  0  0  0  0  0  0  0  0
    0.8695   -0.1987   -0.6218 N   0  0  0  0  0  0  0  0  0  0  0  0
    1.0322   -1.2809   -1.0969 O   0  0  0  0  0  0  0  0  0  0  0  0
   -0.2820    0.2687    1.0347 H   0  0  0  0  0  0  0  0  0  0  0  0
   -1.0716   -0.9051   -0.0916 H   0  0  0  0  0  0  0  0  0  0  0  0
   -0.9130    0.8487   -0.5026 H   0  0  0  0  0  0  0  0  0  0  0  0
  1  2  1  0
  1  4  1  0
  1  5  1  0
  1  6  1  0
  2  3  2  0
M  END
>  <reaction>  (1) 
rmg_rxn_591

>  <mol_properties>  (1) 
{"0": {"label": "donator", "atom_type": "Cs"}, "3": {"label": "d_hydrogen", "atom_type": "H0"}}

>  <type>  (1) 
r1h

$$$$

     RDKit          3D

 17 16  0  0  0  0  0  0  0  0999 V2000
    2.3128   -0.1525    1.1777 C   0  0  0  0  0  3  0  0  0  0  0  0
    1.7469    0.7266    0.1254 C   0  0  0  0  0  0  0  0  0  0  0  0
    1.6374    2.1830    0.5408 C   0  0  0  0  0  0  0  0  0  0  0  0
    2.9245    2.6874    0.7877 O   0  0  0  0  0  0  0  0  0  0  0  0
    2.9227    4.0197    1.2361 C   0  0  0  0  0  0  0  0  0  0  0  0
    4.3491    4.4603    1.4693 C   0  0  0  0  0  0  0  0  0  0  0  0
    2.1393   -1.2196    1.1557 H   0  0  0  0  0  0  0  0  0  0  0  0
    3.0313    0.2400    1.8838 H   0  0  0  0  0  0  0  0  0  0  0  0
    0.7555    0.3746   -0.1764 H   0  0  0  0  0  0  0  0  0  0  0  0
    2.3678    0.6841   -0.7826 H   0  0  0  0  0  0  0  0  0  0  0  0
    1.0170    2.2718    1.4449 H   0  0  0  0  0  0  0  0  0  0  0  0
    1.1499    2.7653   -0.2546 H   0  0  0  0  0  0  0  0  0  0  0  0
    2.4379    4.6655    0.4891 H   0  0  0  0  0  0  0  0  0  0  0  0
    2.3377    4.1015    2.1638 H   0  0  0  0  0  0  0  0  0  0  0  0
    4.9261    4.3920    0.5465 H   0  0  0  0  0  0  0  0  0  0  0  0
    4.3728    5.4939    1.8180 H   0  0  0  0  0  0  0  0  0  0  0  0
    4.8260    3.8299    2.2206 H   0  0  0  0  0  0  0  0  0  0  0  0
  1  2  1  0
  1  7  1  0
  1  8  1  0
  2  3  1  0
  2  9  1  0
  2 10  1  0
  3  4  1  0
  3 11  1  0
  3 12  1  0
  4  5  1  0
  5  6  1  0
  5 13  1  0
  5 14  1  0
  6 15  1  0
  6 16  1  0
  6 17  1  0
M  RAD  1   1   2
M  END
>  <reaction>  (2) 
rmg_rxn_591

>  <mol_properties>  (2) 
{"0": {"label": "acceptor", "atom_type": "Cs"}}

>  <type>  (2) 
r2

$$$$

     RDKit          3D

 18 17  0  0  0  0  0  0  0  0999 V2000
    2.2026   -0.7213   -0.2612 C   0  0  0  0  0  0  0  0  0  0  0  0
    1.5384    0.2638    0.6915 C   0  0  0  0  0  0  0  0  0  0  0  0
    2.2584    1.5946    0.7694 C   0  0  0  0  0  0  0  0  0  0  0  0
    2.2212    2.2185   -0.4893 O   0  0  0  0  0  0  0  0  0  0  0  0
    2.8988    3.4488   -0.5204 C   0  0  0  0  0  0  0  0  0  0  0  0
    2.7981    4.0296   -1.9118 C   0  0  0  0  0  0  0  0  0  0  0  0
    3.2294   -0.9309    0.0486 H   0  0  0  0  0  0  0  0  0  0  0  0
    2.2338   -0.3181   -1.2734 H   0  0  0  0  0  0  0  0  0  0  0  0
    1.6610   -1.6680   -0.2875 H   0  0  0  0  0  0  0  0  0  0  0  0
    1.4990   -0.1566    1.7002 H   0  0  0  0  0  0  0  0  0  0  0  0
    0.5055    0.4455    0.3835 H   0  0  0  0  0  0  0  0  0  0  0  0
    3.3038    1.4410    1.0808 H   0  0  0  0  0  0  0  0  0  0  0  0
    1.7844    2.2410    1.5226 H   0  0  0  0  0  0  0  0  0  0  0  0
    2.4596    4.1376    0.2164 H   0  0  0  0  0  0  0  0  0  0  0  0
    3.9524    3.3035   -0.2397 H   0  0  0  0  0  0  0  0  0  0  0  0
    1.7543    4.1869   -2.1856 H   0  0  0  0  0  0  0  0  0  0  0  0
    3.2472    3.3545   -2.6411 H   0  0  0  0  0  0  0  0  0  0  0  0
    3.3178    4.9878   -1.9600 H   0  0  0  0  0  0  0  0  0  0  0  0
  1  2  1  0
  1  7  1  0
  1  8  1  0
  1  9  1  0
  2  3  1  0
  2 10  1  0
  2 11  1  0
  3  4  1  0
  3 12  1  0
  3 13  1  0
  4  5  1  0
  5  6  1  0
  5 14  1  0
  5 15  1  0
  6 16  1  0
  6 17  1  0
  6 18  1  0
M  END
>  <reaction>  (3) 
rmg_rxn_591

>  <mol_properties>  (3) 
{"0": {"label": "a_hydrogen", "atom_type": "H0"}, "1": {"label": "acceptor", "atom_type": "Cs"}}

>  <type>  (3) 
r2h

$$$$

     RDKit          3D

 23 21  0  0  0  0  0  0  0  0999 V2000
    2.9611    0.4058   -1.2733 C   0  0  0  0  0  0  0  0  0  0  0  0
    3.9352   -0.3745   -0.5963 N   0  0  0  0  0  0  0  0  0  0  0  0
    3.6616   -1.5507   -0.5015 O   0  0  0  0  0  0  0  0  0  0  0  0
    2.0497    0.5756   -0.4387 H   0  0  0  0  0  0  0  0  0  0  0  0
    2.4586   -0.1226   -2.0853 H   0  0  0  0  0  0  0  0  0  0  0  0
    3.3382    1.3924   -1.5270 H   0  0  0  0  0  0  0  0  0  0  0  0
    0.8894    0.5890    0.4536 C   0  0  0  0  0  3  0  0  0  0  0  0
    0.0388   -0.5648    0.0173 C   0  0  0  0  0  0  0  0  0  0  0  0
   -1.1908   -0.7436    0.8970 C   0  0  0  0  0  0  0  0  0  0  0  0
   -1.9939    0.4029    0.7985 O   0  0  0  0  0  0  0  0  0  0  0  0
   -3.1556    0.3376    1.5900 C   0  0  0  0  0  0  0  0  0  0  0  0
   -3.9427    1.6146    1.4108 C   0  0  0  0  0  0  0  0  0  0  0  0
    0.4886    1.5835    0.2852 H   0  0  0  0  0  0  0  0  0  0  0  0
    1.4106    0.4772    1.4015 H   0  0  0  0  0  0  0  0  0  0  0  0
    0.6186   -1.4902    0.0468 H   0  0  0  0  0  0  0  0  0  0  0  0
   -0.2947   -0.4199   -1.0130 H   0  0  0  0  0  0  0  0  0  0  0  0
   -0.8884   -0.9085    1.9420 H   0  0  0  0  0  0  0  0  0  0  0  0
   -1.7512   -1.6320    0.5718 H   0  0  0  0  0  0  0  0  0  0  0  0
   -3.7599   -0.5323    1.2946 H   0  0  0  0  0  0  0  0  0  0  0  0
   -2.8806    0.1992    2.6455 H   0  0  0  0  0  0  0  0  0  0  0  0
   -4.2270    1.7454    0.3662 H   0  0  0  0  0  0  0  0  0  0  0  0
   -4.8499    1.5863    2.0161 H   0  0  0  0  0  0  0  0  0  0  0  0
   -3.3488    2.4764    1.7173 H   0  0  0  0  0  0  0  0  0  0  0  0
  1  2  1  0
  1  4  1  0
  1  5  1  0
  1  6  1  0
  2  3  2  0
  7  8  1  0
  7 13  1  0
  7 14  1  0
  8  9  1  0
  8 15  1  0
  8 16  1  0
  9 10  1  0
  9 17  1  0
  9 18  1  0
 10 11  1  0
 11 12  1  0
 11 19  1  0
 11 20  1  0
 12 21  1  0
 12 22  1  0
 12 23  1  0
M  RAD  1   7   2
M  END
>  <reaction>  (4) 
rmg_rxn_591

>  <mol_properties>  (4) 
{"0": {"label": "*1", "atom_type": "Cs"}, "1": {"label": "*0", "atom_type": "N3d"}, "3": {"label": "*2", "atom_type": "H0"}, "6": {"label": "*3", "atom_type": "Cs"}, "7": {"label": "*4", "atom_type": "Cs"}}

>  <type>  (4) 
ts

$$$$

     RDKit          3D

 23 21  0  0  0  0  0  0  0  0999 V2000
    2.3906   -0.3209   -2.0183 C   0  0  0  0  0  0  0  0  0  0  0  0
    2.3906   -1.6667   -2.6151 N   0  0  0  0  0  0  0  0  0  0  0  0
    2.3906   -1.6667   -3.8082 O   0  0  0  0  0  1  0  0  0  0  0  0
    1.3346   -0.2495   -1.2457 H   0  0  0  0  0  0  0  0  0  0  0  0
    2.3906    0.4595   -2.7801 H   0  0  0  0  0  0  0  0  0  0  0  0
    3.2707   -0.2614   -1.3745 H   0  0  0  0  0  0  0  0  0  0  0  0
    0.2796   -0.1782   -0.4738 C   0  0  0  0  0  0  0  0  0  0  0  0
    0.6749    0.0984    0.9706 C   0  0  0  0  0  0  0  0  0  0  0  0
   -0.2516    1.0756    1.6649 C   0  0  0  0  0  0  0  0  0  0  0  0
   -1.5419    0.5235    1.7362 O   0  0  0  0  0  0  0  0  0  0  0  0
   -2.4806    1.3793    2.3362 C   0  0  0  0  0  0  0  0  0  0  0  0
   -3.8262    0.6920    2.3608 C   0  0  0  0  0  0  0  0  0  0  0  0
   -0.7235   -0.6014   -0.5253 H   0  0  0  0  0  0  0  0  0  0  0  0
    0.2863    0.7424   -1.0628 H   0  0  0  0  0  0  0  0  0  0  0  0
    1.6878    0.5085    1.0116 H   0  0  0  0  0  0  0  0  0  0  0  0
    0.6872   -0.8337    1.5414 H   0  0  0  0  0  0  0  0  0  0  0  0
   -0.2812    2.0272    1.1108 H   0  0  0  0  0  0  0  0  0  0  0  0
    0.1178    1.2979    2.6768 H   0  0  0  0  0  0  0  0  0  0  0  0
   -2.1592    1.6317    3.3576 H   0  0  0  0  0  0  0  0  0  0  0  0
   -2.5409    2.3227    1.7736 H   0  0  0  0  0  0  0  0  0  0  0  0
   -3.7707   -0.2365    2.9300 H   0  0  0  0  0  0  0  0  0  0  0  0
   -4.5728    1.3390    2.8240 H   0  0  0  0  0  0  0  0  0  0  0  0
   -4.1530    0.4554    1.3476 H   0  0  0  0  0  0  0  0  0  0  0  0
  1  2  2  3
  1  5  1  0
  1  6  1  0
  2  3  1  0
  4  7  1  0
  7  8  1  0
  7 13  1  0
  7 14  1  0
  8  9  1  0
  8 15  1  0
  8 16  1  0
  9 10  1  0
  9 17  1  0
  9 18  1  0
 10 11  1  0
 11 12  1  0
 11 19  1  0
 11 20  1  0
 12 21  1  0
 12 22  1  0
 12 23  1  0
M  RAD  1   3   2
M  END
>  <reaction>  (5) 
rmg_rxn_591

>  <mol_properties>  (5) 
{"0": {"label": "*1", "atom_type": "Cs"}, "1": {"label": "*0", "atom_type": "N3d"}, "3": {"label": "*2", "atom_type": "H0"}, "6": {"label": "*3", "atom_type": "Cs"}, "7": {"label": "*4", "atom_type": "Cs"}}

>  <type>  (5) 
unop_1

>  <geom_source>  (5) 
Heuristics

$$$$

     RDKit          3D

 23 21  0  0  0  0  0  0  0  0999 V2000
    2.7572    0.6288   -1.6686 C   0  0  0  0  0  0  0  0  0  0  0  0
    2.7572   -0.7169   -2.2654 N   0  0  0  0  0  0  0  0  0  0  0  0
    2.7572   -0.7169   -3.4585 O   0  0  0  0  0  1  0  0  0  0  0  0
    1.7012    0.7002   -0.8960 H   0  0  0  0  0  0  0  0  0  0  0  0
    2.7572    1.4093   -2.4303 H   0  0  0  0  0  0  0  0  0  0  0  0
    3.6372    0.6883   -1.0247 H   0  0  0  0  0  0  0  0  0  0  0  0
    0.6461    0.7716   -0.1241 C   0  0  0  0  0  0  0  0  0  0  0  0
    0.2888   -0.5957    0.4435 C   0  0  0  0  0  0  0  0  0  0  0  0
   -0.6146   -0.5190    1.6573 C   0  0  0  0  0  0  0  0  0  0  0  0
   -1.8418    0.0582    1.2888 O   0  0  0  0  0  0  0  0  0  0  0  0
   -2.7339    0.2023    2.3644 C   0  0  0  0  0  0  0  0  0  0  0  0
   -4.0130    0.8296    1.8606 C   0  0  0  0  0  0  0  0  0  0  0  0
   -0.2513    1.3090   -0.4304 H   0  0  0  0  0  0  0  0  0  0  0  0
    1.1637    1.3800    0.6218 H   0  0  0  0  0  0  0  0  0  0  0  0
    1.1968   -1.1317    0.7335 H   0  0  0  0  0  0  0  0  0  0  0  0
   -0.2063   -1.2013   -0.3200 H   0  0  0  0  0  0  0  0  0  0  0  0
   -0.1380    0.0851    2.4456 H   0  0  0  0  0  0  0  0  0  0  0  0
   -0.7821   -1.5239    2.0720 H   0  0  0  0  0  0  0  0  0  0  0  0
   -2.9391   -0.7798    2.8157 H   0  0  0  0  0  0  0  0  0  0  0  0
   -2.2801    0.8291    3.1461 H   0  0  0  0  0  0  0  0  0  0  0  0
   -4.4708    0.2019    1.0952 H   0  0  0  0  0  0  0  0  0  0  0  0
   -4.7230    0.9510    2.6802 H   0  0  0  0  0  0  0  0  0  0  0  0
   -3.8129    1.8100    1.4270 H   0  0  0  0  0  0  0  0  0  0  0  0
  1  2  2  3
  1  5  1  0
  1  6  1  0
  2  3  1  0
  4  7  1  0
  7  8  1  0
  7 13  1  0
  7 14  1  0
  8  9  1  0
  8 15  1  0
  8 16  1  0
  9 10  1  0
  9 17  1  0
  9 18  1  0
 10 11  1  0
 11 12  1  0
 11 19  1  0
 11 20  1  0
 12 21  1  0
 12 22  1  0
 12 23  1  0
M  RAD  1   3   2
M  END
>  <reaction>  (6) 
rmg_rxn_591

>  <mol_properties>  (6) 
{"0": {"label": "*1", "atom_type": "Cs"}, "1": {"label": "*0", "atom_type": "N3d"}, "3": {"label": "*2", "atom_type": "H0"}, "6": {"label": "*3", "atom_type": "Cs"}, "7": {"label": "*4", "atom_type": "Cs"}}

>  <type>  (6) 
unop_2

>  <geom_source>  (6) 
Heuristics

$$$$

     RDKit          3D

 23 21  0  0  0  0  0  0  0  0999 V2000
    2.5017   -0.2808   -1.9401 C   0  0  0  0  0  0  0  0  0  0  0  0
    2.5017   -1.6265   -2.5369 N   0  0  0  0  0  0  0  0  0  0  0  0
    2.5017   -1.6265   -3.7300 O   0  0  0  0  0  1  0  0  0  0  0  0
    1.4457   -0.2094   -1.1675 H   0  0  0  0  0  0  0  0  0  0  0  0
    2.5017    0.4997   -2.7018 H   0  0  0  0  0  0  0  0  0  0  0  0
    3.3817   -0.2213   -1.2963 H   0  0  0  0  0  0  0  0  0  0  0  0
    0.3907   -0.1380   -0.3956 C   0  0  0  0  0  0  0  0  0  0  0  0
    0.6316    0.8041    0.7764 C   0  0  0  0  0  0  0  0  0  0  0  0
   -0.6342    1.4712    1.2742 C   0  0  0  0  0  0  0  0  0  0  0  0
   -1.5147    0.4919    1.7648 O   0  0  0  0  0  0  0  0  0  0  0  0
   -2.7359    1.0186    2.2174 C   0  0  0  0  0  0  0  0  0  0  0  0
   -3.6026   -0.1129    2.7194 C   0  0  0  0  0  0  0  0  0  0  0  0
   -0.2982   -0.9348   -0.1152 H   0  0  0  0  0  0  0  0  0  0  0  0
   -0.0431    0.3979   -1.2436 H   0  0  0  0  0  0  0  0  0  0  0  0
    1.3352    1.5903    0.4887 H   0  0  0  0  0  0  0  0  0  0  0  0
    1.0873    0.2600    1.6077 H   0  0  0  0  0  0  0  0  0  0  0  0
   -1.1140    2.0302    0.4552 H   0  0  0  0  0  0  0  0  0  0  0  0
   -0.3971    2.1942    2.0684 H   0  0  0  0  0  0  0  0  0  0  0  0
   -2.5551    1.7494    3.0196 H   0  0  0  0  0  0  0  0  0  0  0  0
   -3.2391    1.5545    1.3990 H   0  0  0  0  0  0  0  0  0  0  0  0
   -3.1105   -0.6361    3.5399 H   0  0  0  0  0  0  0  0  0  0  0  0
   -4.5584    0.2730    3.0774 H   0  0  0  0  0  0  0  0  0  0  0  0
   -3.7955   -0.8299    1.9205 H   0  0  0  0  0  0  0  0  0  0  0  0
  1  2  2  3
  1  5  1  0
  1  6  1  0
  2  3  1  0
  4  7  1  0
  7  8  1  0
  7 13  1  0
  7 14  1  0
  8  9  1  0
  8 15  1  0
  8 16  1  0
  9 10  1  0
  9 17  1  0
  9 18  1  0
 10 11  1  0
 11 12  1  0
 11 19  1  0
 11 20  1  0
 12 21  1  0
 12 22  1  0
 12 23  1  0
M  RAD  1   3   2
M  END
>  <reaction>  (7) 
rmg_rxn_591

>  <mol_properties>  (7) 
{"0": {"label": "*1", "atom_type": "Cs"}, "1": {"label": "*0", "atom_type": "N3d"}, "3": {"label": "*2", "atom_type": "H0"}, "6": {"label": "*3", "atom_type": "Cs"}, "7": {"label": "*4", "atom_type": "Cs"}}

>  <type>  (7) 
unop_3

>  <geom_source>  (7) 
Heuristics

$$$$

     RDKit          3D

 23 21  0  0  0  0  0  0  0  0999 V2000
    2.7421   -0.8271   -0.6286 C   0  0  0  0  0  0  0  0  0  0  0  0
    2.7421   -2.1728   -1.2254 N   0  0  0  0  0  0  0  0  0  0  0  0
    2.7421   -2.1728   -2.4185 O   0  0  0  0  0  1  0  0  0  0  0  0
    1.6861   -0.7557    0.1440 H   0  0  0  0  0  0  0  0  0  0  0  0
    2.7421   -0.0466   -1.3904 H   0  0  0  0  0  0  0  0  0  0  0  0
    3.6221   -0.7676    0.0152 H   0  0  0  0  0  0  0  0  0  0  0  0
    0.6311   -0.6843    0.9158 C   0  0  0  0  0  0  0  0  0  0  0  0
   -0.6477   -0.9012    0.1177 C   0  0  0  0  0  0  0  0  0  0  0  0
   -1.8327   -0.1375    0.6724 C   0  0  0  0  0  0  0  0  0  0  0  0
   -1.5775    1.2420    0.5901 O   0  0  0  0  0  0  0  0  0  0  0  0
   -2.6130    2.0316    1.1171 C   0  0  0  0  0  0  0  0  0  0  0  0
   -2.2377    3.4889    0.9799 C   0  0  0  0  0  0  0  0  0  0  0  0
    0.9082    0.3698    0.9220 H   0  0  0  0  0  0  0  0  0  0  0  0
    0.5019   -1.0037    1.9530 H   0  0  0  0  0  0  0  0  0  0  0  0
   -0.9080   -1.9632    0.1055 H   0  0  0  0  0  0  0  0  0  0  0  0
   -0.4966   -0.6002   -0.9222 H   0  0  0  0  0  0  0  0  0  0  0  0
   -2.0095   -0.4239    1.7213 H   0  0  0  0  0  0  0  0  0  0  0  0
   -2.7437   -0.3848    0.1079 H   0  0  0  0  0  0  0  0  0  0  0  0
   -3.5520    1.8245    0.5825 H   0  0  0  0  0  0  0  0  0  0  0  0
   -2.7791    1.7752    2.1738 H   0  0  0  0  0  0  0  0  0  0  0  0
   -2.0864    3.7475   -0.0687 H   0  0  0  0  0  0  0  0  0  0  0  0
   -3.0291    4.1228    1.3829 H   0  0  0  0  0  0  0  0  0  0  0  0
   -1.3152    3.6987    1.5225 H   0  0  0  0  0  0  0  0  0  0  0  0
  1  2  2  3
  1  5  1  0
  1  6  1  0
  2  3  1  0
  4  7  1  0
  7  8  1  0
  7 13  1  0
  7 14  1  0
  8  9  1  0
  8 15  1  0
  8 16  1  0
  9 10  1  0
  9 17  1  0
  9 18  1  0
 10 11  1  0
 11 12  1  0
 11 19  1  0
 11 20  1  0
 12 21  1  0
 12 22  1  0
 12 23  1  0
M  RAD  1   3   2
M  END
>  <reaction>  (8) 
rmg_rxn_591

>  <mol_properties>  (8) 
{"0": {"label": "*1", "atom_type": "Cs"}, "1": {"label": "*0", "atom_type": "N3d"}, "3": {"label": "*2", "atom_type": "H0"}, "6": {"label": "*3", "atom_type": "Cs"}, "7": {"label": "*4", "atom_type": "Cs"}}

>  <type>  (8) 
unop_4

>  <geom_source>  (8) 
Heuristics

$$$$

     RDKit          3D

 23 21  0  0  0  0  0  0  0  0999 V2000
    2.1871   -0.1917   -2.1956 C   0  0  0  0  0  0  0  0  0  0  0  0
    2.1871   -1.5375   -2.7924 N   0  0  0  0  0  0  0  0  0  0  0  0
    2.1871   -1.5375   -3.9856 O   0  0  0  0  0  1  0  0  0  0  0  0
    1.1311   -0.1203   -1.4231 H   0  0  0  0  0  0  0  0  0  0  0  0
    2.1871    0.5888   -2.9574 H   0  0  0  0  0  0  0  0  0  0  0  0
    3.0672   -0.1322   -1.5518 H   0  0  0  0  0  0  0  0  0  0  0  0
    0.0761   -0.0490   -0.6512 C   0  0  0  0  0  0  0  0  0  0  0  0
   -0.0202    1.3142    0.0209 C   0  0  0  0  0  0  0  0  0  0  0  0
   -1.2312    1.4501    0.9211 C   0  0  0  0  0  0  0  0  0  0  0  0
   -1.1335    0.5264    1.9757 O   0  0  0  0  0  0  0  0  0  0  0  0
   -2.2362    0.5569    2.8456 C   0  0  0  0  0  0  0  0  0  0  0  0
   -2.0303   -0.4695    3.9353 C   0  0  0  0  0  0  0  0  0  0  0  0
    0.1438   -0.8424    0.0930 H   0  0  0  0  0  0  0  0  0  0  0  0
   -0.8047   -0.2420   -1.2687 H   0  0  0  0  0  0  0  0  0  0  0  0
   -0.0725    2.1033   -0.7344 H   0  0  0  0  0  0  0  0  0  0  0  0
    0.8773    1.5038    0.6154 H   0  0  0  0  0  0  0  0  0  0  0  0
   -2.1523    1.2661    0.3458 H   0  0  0  0  0  0  0  0  0  0  0  0
   -1.2951    2.4722    1.3224 H   0  0  0  0  0  0  0  0  0  0  0  0
   -2.3441    1.5620    3.2796 H   0  0  0  0  0  0  0  0  0  0  0  0
   -3.1599    0.3448    2.2872 H   0  0  0  0  0  0  0  0  0  0  0  0
   -1.1220   -0.2521    4.4984 H   0  0  0  0  0  0  0  0  0  0  0  0
   -2.8759   -0.4636    4.6249 H   0  0  0  0  0  0  0  0  0  0  0  0
   -1.9389   -1.4684    3.5072 H   0  0  0  0  0  0  0  0  0  0  0  0
  1  2  2  3
  1  5  1  0
  1  6  1  0
  2  3  1  0
  4  7  1  0
  7  8  1  0
  7 13  1  0
  7 14  1  0
  8  9  1  0
  8 15  1  0
  8 16  1  0
  9 10  1  0
  9 17  1  0
  9 18  1  0
 10 11  1  0
 11 12  1  0
 11 19  1  0
 11 20  1  0
 12 21  1  0
 12 22  1  0
 12 23  1  0
M  RAD  1   3   2
M  END
>  <reaction>  (9) 
rmg_rxn_591

>  <mol_properties>  (9) 
{"0": {"label": "*1", "atom_type": "Cs"}, "1": {"label": "*0", "atom_type": "N3d"}, "3": {"label": "*2", "atom_type": "H0"}, "6": {"label": "*3", "atom_type": "Cs"}, "7": {"label": "*4", "atom_type": "Cs"}}

>  <type>  (9) 
unop_5

>  <geom_source>  (9) 
Heuristics

$$$$

     RDKit          3D

 23 21  0  0  0  0  0  0  0  0999 V2000
    2.2629   -1.2354   -1.0026 C   0  0  0  0  0  0  0  0  0  0  0  0
    2.2629   -2.5812   -1.5994 N   0  0  0  0  0  0  0  0  0  0  0  0
    2.2629   -2.5812   -2.7925 O   0  0  0  0  0  1  0  0  0  0  0  0
    1.2069   -1.1640   -0.2300 H   0  0  0  0  0  0  0  0  0  0  0  0
    2.2629   -0.4550   -1.7644 H   0  0  0  0  0  0  0  0  0  0  0  0
    3.1429   -1.1759   -0.3588 H   0  0  0  0  0  0  0  0  0  0  0  0
    0.1518   -1.0927    0.5418 C   0  0  0  0  0  0  0  0  0  0  0  0
   -1.0570   -0.5780   -0.2283 C   0  0  0  0  0  0  0  0  0  0  0  0
   -1.9202    0.3680    0.5812 C   0  0  0  0  0  0  0  0  0  0  0  0
   -1.1758    1.5149    0.9062 O   0  0  0  0  0  0  0  0  0  0  0  0
   -1.8888    2.4368    1.6906 C   0  0  0  0  0  0  0  0  0  0  0  0
   -1.0006    3.6242    1.9816 C   0  0  0  0  0  0  0  0  0  0  0  0
    0.7919   -0.2670    0.8525 H   0  0  0  0  0  0  0  0  0  0  0  0
   -0.1592   -1.6327    1.4397 H   0  0  0  0  0  0  0  0  0  0  0  0
   -1.6839   -1.4151   -0.5478 H   0  0  0  0  0  0  0  0  0  0  0  0
   -0.7321   -0.0615   -1.1352 H   0  0  0  0  0  0  0  0  0  0  0  0
   -2.2644   -0.1288    1.5021 H   0  0  0  0  0  0  0  0  0  0  0  0
   -2.8154    0.6517    0.0086 H   0  0  0  0  0  0  0  0  0  0  0  0
   -2.7975    2.7574    1.1597 H   0  0  0  0  0  0  0  0  0  0  0  0
   -2.2127    1.9601    2.6276 H   0  0  0  0  0  0  0  0  0  0  0  0
   -0.6902    4.1057    1.0536 H   0  0  0  0  0  0  0  0  0  0  0  0
   -1.5345    4.3555    2.5904 H   0  0  0  0  0  0  0  0  0  0  0  0
   -0.1068    3.3097    2.5216 H   0  0  0  0  0  0  0  0  0  0  0  0
  1  2  2  3
  1  5  1  0
  1  6  1  0
  2  3  1  0
  4  7  1  0
  7  8  1  0
  7 13  1  0
  7 14  1  0
  8  9  1  0
  8 15  1  0
  8 16  1  0
  9 10  1  0
  9 17  1  0
  9 18  1  0
 10 11  1  0
 11 12  1  0
 11 19  1  0
 11 20  1  0
 12 21  1  0
 12 22  1  0
 12 23  1  0
M  RAD  1   3   2
M  END
>  <reaction>  (10) 
rmg_rxn_591

>  <mol_properties>  (10) 
{"0": {"label": "*1", "atom_type": "Cs"}, "1": {"label": "*0", "atom_type": "N3d"}, "3": {"label": "*2", "atom_type": "H0"}, "6": {"label": "*3", "atom_type": "Cs"}, "7": {"label": "*4", "atom_type": "Cs"}}

>  <type>  (10) 
unop_6

>  <geom_source>  (10) 
Heuristics

$$$$

     RDKit          3D

 23 21  0  0  0  0  0  0  0  0999 V2000
    1.8216   -1.2062   -1.5938 C   0  0  0  0  0  0  0  0  0  0  0  0
    1.8216   -2.5519   -2.1907 N   0  0  0  0  0  0  0  0  0  0  0  0
    1.8216   -2.5519   -3.3838 O   0  0  0  0  0  1  0  0  0  0  0  0
    0.7656   -1.1348   -0.8213 H   0  0  0  0  0  0  0  0  0  0  0  0
    1.8216   -0.4257   -2.3556 H   0  0  0  0  0  0  0  0  0  0  0  0
    2.7016   -1.1467   -0.9500 H   0  0  0  0  0  0  0  0  0  0  0  0
   -0.2894   -1.0634   -0.0494 C   0  0  0  0  0  0  0  0  0  0  0  0
   -1.2227    0.0530   -0.4986 C   0  0  0  0  0  0  0  0  0  0  0  0
   -1.8375    0.8163    0.6567 C   0  0  0  0  0  0  0  0  0  0  0  0
   -0.8208    1.4577    1.3846 O   0  0  0  0  0  0  0  0  0  0  0  0
   -1.2974    2.1645    2.5012 C   0  0  0  0  0  0  0  0  0  0  0  0
   -0.1288    2.8110    3.2084 C   0  0  0  0  0  0  0  0  0  0  0  0
    0.5351   -0.6634    0.5406 H   0  0  0  0  0  0  0  0  0  0  0  0
   -0.8217   -1.7916    0.5678 H   0  0  0  0  0  0  0  0  0  0  0  0
   -2.0373   -0.3574   -1.1018 H   0  0  0  0  0  0  0  0  0  0  0  0
   -0.6833    0.7602   -1.1340 H   0  0  0  0  0  0  0  0  0  0  0  0
   -2.3907    0.1265    1.3137 H   0  0  0  0  0  0  0  0  0  0  0  0
   -2.5571    1.5594    0.2828 H   0  0  0  0  0  0  0  0  0  0  0  0
   -2.0226    2.9272    2.1809 H   0  0  0  0  0  0  0  0  0  0  0  0
   -1.8267    1.4797    3.1802 H   0  0  0  0  0  0  0  0  0  0  0  0
    0.3882    3.5005    2.5403 H   0  0  0  0  0  0  0  0  0  0  0  0
   -0.4756    3.3673    4.0807 H   0  0  0  0  0  0  0  0  0  0  0  0
    0.5831    2.0544    3.5402 H   0  0  0  0  0  0  0  0  0  0  0  0
  1  2  2  3
  1  5  1  0
  1  6  1  0
  2  3  1  0
  4  7  1  0
  7  8  1  0
  7 13  1  0
  7 14  1  0
  8  9  1  0
  8 15  1  0
  8 16  1  0
  9 10  1  0
  9 17  1  0
  9 18  1  0
 10 11  1  0
 11 12  1  0
 11 19  1  0
 11 20  1  0
 12 21  1  0
 12 22  1  0
 12 23  1  0
M  RAD  1   3   2
M  END
>  <reaction>  (11) 
rmg_rxn_591

>  <mol_properties>  (11) 
{"0": {"label": "*1", "atom_type": "Cs"}, "1": {"label": "*0", "atom_type": "N3d"}, "3": {"label": "*2", "atom_type": "H0"}, "6": {"label": "*3", "atom_type": "Cs"}, "7": {"label": "*4", "atom_type": "Cs"}}

>  <type>  (11) 
unop_7

>  <geom_source>  (11) 
Heuristics

$$$$

     RDKit          3D

 23 21  0  0  0  0  0  0  0  0999 V2000
    2.3128   -0.0336   -2.1555 C   0  0  0  0  0  0  0  0  0  0  0  0
    2.3128   -1.3793   -2.7523 N   0  0  0  0  0  0  0  0  0  0  0  0
    2.3128   -1.3793   -3.9454 O   0  0  0  0  0  1  0  0  0  0  0  0
    1.2568    0.0378   -1.3829 H   0  0  0  0  0  0  0  0  0  0  0  0
    2.3128    0.7469   -2.9172 H   0  0  0  0  0  0  0  0  0  0  0  0
    3.1928    0.0259   -1.5116 H   0  0  0  0  0  0  0  0  0  0  0  0
    0.2018    0.1091   -0.6110 C   0  0  0  0  0  0  0  0  0  0  0  0
    0.5271   -0.3458    0.8055 C   0  0  0  0  0  0  0  0  0  0  0  0
   -0.1450    0.4961    1.8706 C   0  0  0  0  0  0  0  0  0  0  0  0
   -1.5397    0.3676    1.7544 O   0  0  0  0  0  0  0  0  0  0  0  0
   -2.2492    1.1457    2.6843 C   0  0  0  0  0  0  0  0  0  0  0  0
   -3.7305    0.9348    2.4722 C   0  0  0  0  0  0  0  0  0  0  0  0
   -0.8711    0.0573   -0.7963 H   0  0  0  0  0  0  0  0  0  0  0  0
    0.5207    1.1421   -0.7714 H   0  0  0  0  0  0  0  0  0  0  0  0
    1.6066   -0.3041    0.9755 H   0  0  0  0  0  0  0  0  0  0  0  0
    0.2248   -1.3871    0.9439 H   0  0  0  0  0  0  0  0  0  0  0  0
    0.1448    1.5527    1.7559 H   0  0  0  0  0  0  0  0  0  0  0  0
    0.1792    0.1750    2.8714 H   0  0  0  0  0  0  0  0  0  0  0  0
   -1.9631    0.8608    3.7077 H   0  0  0  0  0  0  0  0  0  0  0  0
   -1.9902    2.2074    2.5596 H   0  0  0  0  0  0  0  0  0  0  0  0
   -3.9904   -0.1154    2.6092 H   0  0  0  0  0  0  0  0  0  0  0  0
   -4.3031    1.5300    3.1852 H   0  0  0  0  0  0  0  0  0  0  0  0
   -4.0180    1.2316    1.4629 H   0  0  0  0  0  0  0  0  0  0  0  0
  1  2  2  3
  1  5  1  0
  1  6  1  0
  2  3  1  0
  4  7  1  0
  7  8  1  0
  7 13  1  0
  7 14  1  0
  8  9  1  0
  8 15  1  0
  8 16  1  0
  9 10  1  0
  9 17  1  0
  9 18  1  0
 10 11  1  0
 11 12  1  0
 11 19  1  0
 11 20  1  0
 12 21  1  0
 12 22  1  0
 12 23  1  0
M  RAD  1   3   2
M  END
>  <reaction>  (12) 
rmg_rxn_591

>  <mol_properties>  (12) 
{"0": {"label": "*1", "atom_type": "Cs"}, "1": {"label": "*0", "atom_type": "N3d"}, "3": {"label": "*2", "atom_type": "H0"}, "6": {"label": "*3", "atom_type": "Cs"}, "7": {"label": "*4", "atom_type": "Cs"}}

>  <type>  (12) 
unop_8

>  <geom_source>  (12) 
Heuristics

$$$$

     RDKit          3D

 23 21  0  0  0  0  0  0  0  0999 V2000
    3.0526   -0.1616   -0.6483 C   0  0  0  0  0  0  0  0  0  0  0  0
    3.0526   -1.5074   -1.2451 N   0  0  0  0  0  0  0  0  0  0  0  0
    3.0526   -1.5074   -2.4383 O   0  0  0  0  0  1  0  0  0  0  0  0
    1.9966   -0.0902    0.1242 H   0  0  0  0  0  0  0  0  0  0  0  0
    3.0526    0.6189   -1.4101 H   0  0  0  0  0  0  0  0  0  0  0  0
    3.9326   -0.1021   -0.0045 H   0  0  0  0  0  0  0  0  0  0  0  0
    0.9416   -0.0189    0.8961 C   0  0  0  0  0  0  0  0  0  0  0  0
   -0.1828   -0.9013    0.3704 C   0  0  0  0  0  0  0  0  0  0  0  0
   -1.5376   -0.5474    0.9490 C   0  0  0  0  0  0  0  0  0  0  0  0
   -1.8830    0.7583    0.5610 O   0  0  0  0  0  0  0  0  0  0  0  0
   -3.1147    1.1864    1.0838 C   0  0  0  0  0  0  0  0  0  0  0  0
   -3.3870    2.5947    0.6084 C   0  0  0  0  0  0  0  0  0  0  0  0
    0.7568    1.0275    0.6533 H   0  0  0  0  0  0  0  0  0  0  0  0
    1.0264   -0.1017    1.9825 H   0  0  0  0  0  0  0  0  0  0  0  0
    0.0200   -1.9496    0.6062 H   0  0  0  0  0  0  0  0  0  0  0  0
   -0.2403   -0.8270   -0.7186 H   0  0  0  0  0  0  0  0  0  0  0  0
   -1.5089   -0.6166    2.0480 H   0  0  0  0  0  0  0  0  0  0  0  0
   -2.2999   -1.2576    0.5965 H   0  0  0  0  0  0  0  0  0  0  0  0
   -3.9170    0.5084    0.7569 H   0  0  0  0  0  0  0  0  0  0  0  0
   -3.0881    1.1500    2.1829 H   0  0  0  0  0  0  0  0  0  0  0  0
   -3.4272    2.6292   -0.4809 H   0  0  0  0  0  0  0  0  0  0  0  0
   -4.3409    2.9490    1.0023 H   0  0  0  0  0  0  0  0  0  0  0  0
   -2.6002    3.2706    0.9452 H   0  0  0  0  0  0  0  0  0  0  0  0
  1  2  2  3
  1  5  1  0
  1  6  1  0
  2  3  1  0
  4  7  1  0
  7  8  1  0
  7 13  1  0
  7 14  1  0
  8  9  1  0
  8 15  1  0
  8 16  1  0
  9 10  1  0
  9 17  1  0
  9 18  1  0
 10 11  1  0
 11 12  1  0
 11 19  1  0
 11 20  1  0
 12 21  1  0
 12 22  1  0
 12 23  1  0
M  RAD  1   3   2
M  END
>  <reaction>  (13) 
rmg_rxn_591

>  <mol_properties>  (13) 
{"0": {"label": "*1", "atom_type": "Cs"}, "1": {"label": "*0", "atom_type": "N3d"}, "3": {"label": "*2", "atom_type": "H0"}, "6": {"label": "*3", "atom_type": "Cs"}, "7": {"label": "*4", "atom_type": "Cs"}}

>  <type>  (13) 
unop_9

>  <geom_source>  (13) 
Heuristics

$$$$

     RDKit          3D

 23 21  0  0  0  0  0  0  0  0999 V2000
    2.4432    0.3854   -2.0705 C   0  0  0  0  0  0  0  0  0  0  0  0
    2.4432   -0.9603   -2.6673 N   0  0  0  0  0  0  0  0  0  0  0  0
    2.4432   -0.9603   -3.8604 O   0  0  0  0  0  1  0  0  0  0  0  0
    1.3872    0.4568   -1.2979 H   0  0  0  0  0  0  0  0  0  0  0  0
    2.4432    1.1659   -2.8322 H   0  0  0  0  0  0  0  0  0  0  0  0
    3.3232    0.4449   -1.4266 H   0  0  0  0  0  0  0  0  0  0  0  0
    0.3322    0.5282   -0.5260 C   0  0  0  0  0  0  0  0  0  0  0  0
    0.3820   -0.5285    0.5695 C   0  0  0  0  0  0  0  0  0  0  0  0
   -0.2786   -0.0823    1.8578 C   0  0  0  0  0  0  0  0  0  0  0  0
   -1.6463    0.1427    1.6261 O   0  0  0  0  0  0  0  0  0  0  0  0
   -2.3358    0.5959    2.7631 C   0  0  0  0  0  0  0  0  0  0  0  0
   -3.7888    0.8057    2.4050 C   0  0  0  0  0  0  0  0  0  0  0  0
   -0.6992    0.7826   -0.7703 H   0  0  0  0  0  0  0  0  0  0  0  0
    0.8375    1.4435   -0.2078 H   0  0  0  0  0  0  0  0  0  0  0  0
    1.4202   -0.7869    0.7961 H   0  0  0  0  0  0  0  0  0  0  0  0
   -0.1055   -1.4456    0.2289 H   0  0  0  0  0  0  0  0  0  0  0  0
    0.1960    0.8411    2.2259 H   0  0  0  0  0  0  0  0  0  0  0  0
   -0.1512   -0.8483    2.6368 H   0  0  0  0  0  0  0  0  0  0  0  0
   -2.2426   -0.1393    3.5762 H   0  0  0  0  0  0  0  0  0  0  0  0
   -1.8891    1.5345    3.1229 H   0  0  0  0  0  0  0  0  0  0  0  0
   -4.2363   -0.1276    2.0613 H   0  0  0  0  0  0  0  0  0  0  0  0
   -4.3456    1.1579    3.2747 H   0  0  0  0  0  0  0  0  0  0  0  0
   -3.8833    1.5459    1.6096 H   0  0  0  0  0  0  0  0  0  0  0  0
  1  2  2  3
  1  5  1  0
  1  6  1  0
  2  3  1  0
  4  7  1  0
  7  8  1  0
  7 13  1  0
  7 14  1  0
  8  9  1  0
  8 15  1  0
  8 16  1  0
  9 10  1  0
  9 17  1  0
  9 18  1  0
 10 11  1  0
 11 12  1  0
 11 19  1  0
 11 20  1  0
 12 21  1  0
 12 22  1  0
 12 23  1  0
M  RAD  1   3   2
M  END
>  <reaction>  (14) 
rmg_rxn_591

>  <mol_properties>  (14) 
{"0": {"label": "*1", "atom_type": "Cs"}, "1": {"label": "*0", "atom_type": "N3d"}, "3": {"label": "*2", "atom_type": "H0"}, "6": {"label": "*3", "atom_type": "Cs"}, "7": {"label": "*4", "atom_type": "Cs"}}

>  <type>  (14) 
unop_10

>  <geom_source>  (14) 
Heuristics

$$$$

     RDKit          3D

 23 21  0  0  0  0  0  0  0  0999 V2000
    1.7097   -0.7180   -2.1382 C   0  0  0  0  0  0  0  0  0  0  0  0
    1.7097   -2.0638   -2.7350 N   0  0  0  0  0  0  0  0  0  0  0  0
    1.7097   -2.0638   -3.9281 O   0  0  0  0  0  1  0  0  0  0  0  0
    0.6537   -0.6466   -1.3656 H   0  0  0  0  0  0  0  0  0  0  0  0
    1.7097    0.0625   -2.8999 H   0  0  0  0  0  0  0  0  0  0  0  0
    2.5897   -0.6585   -1.4944 H   0  0  0  0  0  0  0  0  0  0  0  0
   -0.4013   -0.5753   -0.5937 C   0  0  0  0  0  0  0  0  0  0  0  0
   -0.9274    0.8517   -0.5150 C   0  0  0  0  0  0  0  0  0  0  0  0
   -1.6362    1.1540    0.7894 C   0  0  0  0  0  0  0  0  0  0  0  0
   -0.7241    1.0394    1.8524 O   0  0  0  0  0  0  0  0  0  0  0  0
   -1.3050    1.2690    3.1108 C   0  0  0  0  0  0  0  0  0  0  0  0
   -0.2434    1.1206    4.1759 C   0  0  0  0  0  0  0  0  0  0  0  0
    0.3126   -0.7682    0.2070 H   0  0  0  0  0  0  0  0  0  0  0  0
   -1.2165   -1.2969   -0.4980 H   0  0  0  0  0  0  0  0  0  0  0  0
   -1.6309    1.0389   -1.3311 H   0  0  0  0  0  0  0  0  0  0  0  0
   -0.1054    1.5620   -0.6362 H   0  0  0  0  0  0  0  0  0  0  0  0
   -2.4729    0.4528    0.9362 H   0  0  0  0  0  0  0  0  0  0  0  0
   -2.0601    2.1687    0.7667 H   0  0  0  0  0  0  0  0  0  0  0  0
   -1.7436    2.2774    3.1431 H   0  0  0  0  0  0  0  0  0  0  0  0
   -2.1237    0.5545    3.2816 H   0  0  0  0  0  0  0  0  0  0  0  0
    0.5621    1.8380    4.0153 H   0  0  0  0  0  0  0  0  0  0  0  0
   -0.6721    1.2955    5.1639 H   0  0  0  0  0  0  0  0  0  0  0  0
    0.1812    0.1162    4.1549 H   0  0  0  0  0  0  0  0  0  0  0  0
  1  2  2  3
  1  5  1  0
  1  6  1  0
  2  3  1  0
  4  7  1  0
  7  8  1  0
  7 13  1  0
  7 14  1  0
  8  9  1  0
  8 15  1  0
  8 16  1  0
  9 10  1  0
  9 17  1  0
  9 18  1  0
 10 11  1  0
 11 12  1  0
 11 19  1  0
 11 20  1  0
 12 21  1  0
 12 22  1  0
 12 23  1  0
M  RAD  1   3   2
M  END
>  <reaction>  (15) 
rmg_rxn_591

>  <mol_properties>  (15) 
{"0": {"label": "*1", "atom_type": "Cs"}, "1": {"label": "*0", "atom_type": "N3d"}, "3": {"label": "*2", "atom_type": "H0"}, "6": {"label": "*3", "atom_type": "Cs"}, "7": {"label": "*4", "atom_type": "Cs"}}

>  <type>  (15) 
unop_11

>  <geom_source>  (15) 
Heuristics

$$$$

     RDKit          3D

 23 21  0  0  0  0  0  0  0  0999 V2000
    3.0454    0.4354   -1.0805 C   0  0  0  0  0  0  0  0  0  0  0  0
    3.0454   -0.9104   -1.6773 N   0  0  0  0  0  0  0  0  0  0  0  0
    3.0454   -0.9104   -2.8705 O   0  0  0  0  0  1  0  0  0  0  0  0
    1.9893    0.5068   -0.3080 H   0  0  0  0  0  0  0  0  0  0  0  0
    3.0454    1.2159   -1.8423 H   0  0  0  0  0  0  0  0  0  0  0  0
    3.9254    0.4949   -0.4367 H   0  0  0  0  0  0  0  0  0  0  0  0
    0.9343    0.5781    0.4639 C   0  0  0  0  0  0  0  0  0  0  0  0
    0.1472   -0.7253    0.4381 C   0  0  0  0  0  0  0  0  0  0  0  0
   -1.0821   -0.6963    1.3232 C   0  0  0  0  0  0  0  0  0  0  0  0
   -1.9739    0.2812    0.8497 O   0  0  0  0  0  0  0  0  0  0  0  0
   -3.1327    0.4036    1.6343 C   0  0  0  0  0  0  0  0  0  0  0  0
   -4.0166    1.4758    1.0406 C   0  0  0  0  0  0  0  0  0  0  0  0
    0.3170    1.4088    0.1218 H   0  0  0  0  0  0  0  0  0  0  0  0
    1.2749    0.8077    1.4767 H   0  0  0  0  0  0  0  0  0  0  0  0
    0.7800   -1.5536    0.7687 H   0  0  0  0  0  0  0  0  0  0  0  0
   -0.1661   -0.9544   -0.5837 H   0  0  0  0  0  0  0  0  0  0  0  0
   -0.7945   -0.4694    2.3621 H   0  0  0  0  0  0  0  0  0  0  0  0
   -1.5723   -1.6809    1.3273 H   0  0  0  0  0  0  0  0  0  0  0  0
   -3.6656   -0.5582    1.6691 H   0  0  0  0  0  0  0  0  0  0  0  0
   -2.8595    0.6597    2.6686 H   0  0  0  0  0  0  0  0  0  0  0  0
   -4.2993    1.2161    0.0198 H   0  0  0  0  0  0  0  0  0  0  0  0
   -4.9251    1.5886    1.6343 H   0  0  0  0  0  0  0  0  0  0  0  0
   -3.4947    2.4332    1.0200 H   0  0  0  0  0  0  0  0  0  0  0  0
  1  2  2  3
  1  5  1  0
  1  6  1  0
  2  3  1  0
  4  7  1  0
  7  8  1  0
  7 13  1  0
  7 14  1  0
  8  9  1  0
  8 15  1  0
  8 16  1  0
  9 10  1  0
  9 17  1  0
  9 18  1  0
 10 11  1  0
 11 12  1  0
 11 19  1  0
 11 20  1  0
 12 21  1  0
 12 22  1  0
 12 23  1  0
M  RAD  1   3   2
M  END
>  <reaction>  (16) 
rmg_rxn_591

>  <mol_properties>  (16) 
{"0": {"label": "*1", "atom_type": "Cs"}, "1": {"label": "*0", "atom_type": "N3d"}, "3": {"label": "*2", "atom_type": "H0"}, "6": {"label": "*3", "atom_type": "Cs"}, "7": {"label": "*4", "atom_type": "Cs"}}

>  <type>  (16) 
unop_12

>  <geom_source>  (16) 
Heuristics

$$$$

     RDKit          3D

 23 20  0  0  0  0  0  0  0  0999 V2000
   -1.8653    0.6618   -0.2100 O   0  0  0  0  0  0  0  0  0  0  0  0
    4.4793   -0.5504   -0.3691 O   0  0  0  0  0  0  0  0  0  0  0  0
    3.9052   -0.8178   -1.3806 N   0  0  0  0  0  2  0  0  0  0  0  0
   -0.3487   -1.1936   -0.5363 C   0  0  0  0  0  0  0  0  0  0  0  0
   -0.4996    0.2887   -0.1824 C   0  0  0  0  0  0  0  0  0  0  0  0
   -2.4580    0.5498    1.0709 C   0  0  0  0  0  0  0  0  0  0  0  0
    1.1196   -1.6023   -0.5816 C   0  0  0  0  0  0  0  0  0  0  0  0
   -2.3928    1.8851    1.8044 C   0  0  0  0  0  0  0  0  0  0  0  0
    2.7795   -0.0306   -1.8081 C   0  0  0  0  0  2  0  0  0  0  0  0
   -0.8744   -1.8178    0.2175 H   0  0  0  0  0  0  0  0  0  0  0  0
   -0.8077   -1.3837   -1.5305 H   0  0  0  0  0  0  0  0  0  0  0  0
   -0.0022    0.5136    0.7908 H   0  0  0  0  0  0  0  0  0  0  0  0
    0.0295    0.8919   -0.9508 H   0  0  0  0  0  0  0  0  0  0  0  0
   -2.0119   -0.2564    1.6992 H   0  0  0  0  0  0  0  0  0  0  0  0
   -3.5270    0.2837    0.9317 H   0  0  0  0  0  0  0  0  0  0  0  0
    1.1988   -2.6771   -0.8489 H   0  0  0  0  0  0  0  0  0  0  0  0
    1.5946   -1.4461    0.4104 H   0  0  0  0  0  0  0  0  0  0  0  0
    1.7540   -0.8987   -1.4810 H   0  0  0  0  0  0  0  0  0  0  0  0
   -2.9197    1.8028    2.7784 H   0  0  0  0  0  0  0  0  0  0  0  0
   -2.8816    2.6761    1.1970 H   0  0  0  0  0  0  0  0  0  0  0  0
   -1.3373    2.1719    1.9930 H   0  0  0  0  0  0  0  0  0  0  0  0
    1.9740   -0.0739   -1.0448 H   0  0  0  0  0  0  0  0  0  0  0  0
    3.0918    1.0228   -1.9692 H   0  0  0  0  0  0  0  0  0  0  0  0
  1  6  1  0
  1  5  1  0
  2  3  2  0
  4  7  1  0
  4  5  1  0
  4 10  1  0
  4 11  1  0
  5 12  1  0
  5 13  1  0
  6  8  1  0
  6 14  1  0
  6 15  1  0
  7 16  1  0
  7 17  1  0
  7 18  1  0
  8 19  1  0
  8 20  1  0
  8 21  1  0
  9 22  1  0
  9 23  1  0
M  RAD  2   3   2   9   3
M  END
>  <reaction>  (17) 
rmg_rxn_591

>  <mol_properties>  (17) 
{"0": {"label": "*1", "atom_type": "Cs"}, "1": {"label": "*0", "atom_type": "N3d"}, "3": {"label": "*2", "atom_type": "H0"}, "6": {"label": "*3", "atom_type": "Cs"}, "7": {"label": "*4", "atom_type": "Cs"}}

>  <type>  (17) 
unop_13

>  <geom_source>  (17) 
AutoTST

$$$$

     RDKit          3D

 23 21  0  0  0  0  0  0  0  0999 V2000
    2.7572    0.6288   -1.6686 C   0  0  0  0  0  0  0  0  0  0  0  0
    2.7572   -0.7169   -2.2654 N   0  0  0  0  0  0  0  0  0  0  0  0
    2.7572   -0.7169   -3.4585 O   0  0  0  0  0  1  0  0  0  0  0  0
    1.7012    0.7002   -0.8960 H   0  0  0  0  0  0  0  0  0  0  0  0
    2.7572    1.4093   -2.4303 H   0  0  0  0  0  0  0  0  0  0  0  0
    3.6372    0.6883   -1.0247 H   0  0  0  0  0  0  0  0  0  0  0  0
    0.6461    0.7716   -0.1241 C   0  0  0  0  0  0  0  0  0  0  0  0
    0.2888   -0.5957    0.4435 C   0  0  0  0  0  0  0  0  0  0  0  0
   -0.6146   -0.5190    1.6573 C   0  0  0  0  0  0  0  0  0  0  0  0
   -1.8417    0.0582    1.2888 O   0  0  0  0  0  0  0  0  0  0  0  0
   -2.7339    0.2023    2.3644 C   0  0  0  0  0  0  0  0  0  0  0  0
   -4.0130    0.8296    1.8606 C   0  0  0  0  0  0  0  0  0  0  0  0
   -0.2513    1.3090   -0.4304 H   0  0  0  0  0  0  0  0  0  0  0  0
    1.1637    1.3800    0.6218 H   0  0  0  0  0  0  0  0  0  0  0  0
    1.1968   -1.1317    0.7335 H   0  0  0  0  0  0  0  0  0  0  0  0
   -0.2063   -1.2013   -0.3200 H   0  0  0  0  0  0  0  0  0  0  0  0
   -0.1380    0.0852    2.4456 H   0  0  0  0  0  0  0  0  0  0  0  0
   -0.7821   -1.5239    2.0720 H   0  0  0  0  0  0  0  0  0  0  0  0
   -2.9391   -0.7798    2.8157 H   0  0  0  0  0  0  0  0  0  0  0  0
   -2.2801    0.8291    3.1461 H   0  0  0  0  0  0  0  0  0  0  0  0
   -4.4708    0.2019    1.0952 H   0  0  0  0  0  0  0  0  0  0  0  0
   -4.7229    0.9510    2.6802 H   0  0  0  0  0  0  0  0  0  0  0  0
   -3.8129    1.8100    1.4270 H   0  0  0  0  0  0  0  0  0  0  0  0
  1  2  2  3
  1  5  1  0
  1  6  1  0
  2  3  1  0
  4  7  1  0
  7  8  1  0
  7 13  1  0
  7 14  1  0
  8  9  1  0
  8 15  1  0
  8 16  1  0
  9 10  1  0
  9 17  1  0
  9 18  1  0
 10 11  1  0
 11 12  1  0
 11 19  1  0
 11 20  1  0
 12 21  1  0
 12 22  1  0
 12 23  1  0
M  RAD  1   3   2
M  END
>  <reaction>  (18) 
rmg_rxn_591

>  <mol_properties>  (18) 
{"0": {"label": "*1", "atom_type": "Cs"}, "1": {"label": "*0", "atom_type": "N3d"}, "3": {"label": "*2", "atom_type": "H0"}, "6": {"label": "*3", "atom_type": "Cs"}, "7": {"label": "*4", "atom_type": "Cs"}}

>  <type>  (18) 
unop_14

>  <geom_source>  (18) 
gaussian_log

$$$$
