
     RDKit          3D

  8  7  0  0  0  0  0  0  0  0999 V2000
    0.9548    0.1194   -0.0790 C   0  0  0  0  0  0  0  0  0  0  0  0
   -0.4838   -0.2649    0.0193 C   0  0  0  0  0  0  0  0  0  0  0  0
   -0.8933   -1.1081    0.8664 N   0  0  0  0  0  0  0  0  0  0  0  0
    1.3360   -0.0983   -1.0800 H   0  0  0  0  0  0  0  0  0  0  0  0
    1.0698    1.1948    0.0786 H   0  0  0  0  0  0  0  0  0  0  0  0
    1.5426   -0.4219    0.6602 H   0  0  0  0  0  0  0  0  0  0  0  0
   -1.1575    0.2324   -0.6905 H   0  0  0  0  0  0  0  0  0  0  0  0
   -1.8989   -1.2455    0.7886 H   0  0  0  0  0  0  0  0  0  0  0  0
  1  2  1  0
  1  4  1  0
  1  5  1  0
  1  6  1  0
  2  3  2  3
  2  7  1  0
  3  8  1  0
M  END
>  <reaction>  (1) 
rmg_rxn_16504

>  <mol_properties>  (1) 
{"2": {"label": "donator", "atom_type": "N3d"}, "7": {"label": "d_hydrogen", "atom_type": "H0"}}

>  <type>  (1) 
r1h

$$$$

     RDKit          3D

 11 10  0  0  0  0  0  0  0  0999 V2000
   -1.3338    0.1639    0.5181 C   0  0  0  0  0  0  0  0  0  0  0  0
   -0.3239    0.1101   -0.5684 C   0  0  0  0  0  3  0  0  0  0  0  0
    0.9657   -0.6072   -0.3852 C   0  0  0  0  0  0  0  0  0  0  0  0
    1.6686   -0.2149    0.7868 O   0  0  0  0  0  0  0  0  0  0  0  0
   -0.8577    0.1686    1.5000 H   0  0  0  0  0  0  0  0  0  0  0  0
   -1.9752    1.0431    0.4339 H   0  0  0  0  0  0  0  0  0  0  0  0
   -1.9957   -0.7141    0.4872 H   0  0  0  0  0  0  0  0  0  0  0  0
   -0.6101    0.4054   -1.5710 H   0  0  0  0  0  0  0  0  0  0  0  0
    0.7976   -1.6846   -0.2560 H   0  0  0  0  0  0  0  0  0  0  0  0
    1.5948   -0.4872   -1.2750 H   0  0  0  0  0  0  0  0  0  0  0  0
    1.7856    0.7366    0.7517 H   0  0  0  0  0  0  0  0  0  0  0  0
  1  2  1  0
  1  5  1  0
  1  6  1  0
  1  7  1  0
  2  3  1  0
  2  8  1  0
  3  4  1  0
  3  9  1  0
  3 10  1  0
  4 11  1  0
M  RAD  1   2   2
M  END
>  <reaction>  (2) 
rmg_rxn_16504

>  <mol_properties>  (2) 
{"1": {"label": "acceptor", "atom_type": "Cs"}}

>  <type>  (2) 
r2

$$$$

     RDKit          3D

 12 11  0  0  0  0  0  0  0  0999 V2000
   -1.4643   -0.2505   -0.5284 C   0  0  0  0  0  0  0  0  0  0  0  0
   -0.3946    0.4302    0.3143 C   0  0  0  0  0  0  0  0  0  0  0  0
   -0.5959    0.2382    1.8102 C   0  0  0  0  0  0  0  0  0  0  0  0
   -0.5633   -1.1190    2.2092 O   0  0  0  0  0  0  0  0  0  0  0  0
   -2.4511    0.1644   -0.3109 H   0  0  0  0  0  0  0  0  0  0  0  0
   -1.5019   -1.3198   -0.3181 H   0  0  0  0  0  0  0  0  0  0  0  0
   -1.2720   -0.1182   -1.5941 H   0  0  0  0  0  0  0  0  0  0  0  0
    0.5965    0.0515    0.0385 H   0  0  0  0  0  0  0  0  0  0  0  0
   -0.3776    1.5047    0.1078 H   0  0  0  0  0  0  0  0  0  0  0  0
   -1.5821    0.6048    2.1034 H   0  0  0  0  0  0  0  0  0  0  0  0
    0.1495    0.8220    2.3649 H   0  0  0  0  0  0  0  0  0  0  0  0
    0.3017   -1.4750    1.9997 H   0  0  0  0  0  0  0  0  0  0  0  0
  1  2  1  0
  1  5  1  0
  1  6  1  0
  1  7  1  0
  2  3  1  0
  2  8  1  0
  2  9  1  0
  3  4  1  0
  3 10  1  0
  3 11  1  0
  4 12  1  0
M  END
>  <reaction>  (3) 
rmg_rxn_16504

>  <mol_properties>  (3) 
{"0": {"label": "a_hydrogen", "atom_type": "H0"}, "2": {"label": "acceptor", "atom_type": "Cs"}}

>  <type>  (3) 
r2h

$$$$

     RDKit          3D

 19 17  0  0  0  0  0  0  0  0999 V2000
   -3.3919    0.2431    0.1916 C   0  0  0  0  0  0  0  0  0  0  0  0
   -1.9799   -0.1846   -0.0697 C   0  0  0  0  0  0  0  0  0  0  0  0
   -1.0333    0.6345   -0.1714 N   0  0  0  0  0  0  0  0  0  0  0  0
   -3.4562    1.3260    0.2788 H   0  0  0  0  0  0  0  0  0  0  0  0
   -4.0389   -0.0963   -0.6206 H   0  0  0  0  0  0  0  0  0  0  0  0
   -3.7563   -0.2198    1.1117 H   0  0  0  0  0  0  0  0  0  0  0  0
   -1.8175   -1.2668   -0.1689 H   0  0  0  0  0  0  0  0  0  0  0  0
    0.0106   -0.0142   -0.3769 H   0  0  0  0  0  0  0  0  0  0  0  0
    1.0362   -2.0346    0.1072 C   0  0  0  0  0  0  0  0  0  0  0  0
    1.1998   -0.6467   -0.4429 C   0  0  0  0  0  3  0  0  0  0  0  0
    2.0325    0.3099    0.3706 C   0  0  0  0  0  0  0  0  0  0  0  0
    1.9830    1.6279   -0.1235 O   0  0  0  0  0  0  0  0  0  0  0  0
    0.6380   -2.0133    1.1248 H   0  0  0  0  0  0  0  0  0  0  0  0
    0.3667   -2.6359   -0.5101 H   0  0  0  0  0  0  0  0  0  0  0  0
    1.9972   -2.5607    0.1465 H   0  0  0  0  0  0  0  0  0  0  0  0
    1.4249   -0.5987   -1.5087 H   0  0  0  0  0  0  0  0  0  0  0  0
    1.7124    0.2673    1.4219 H   0  0  0  0  0  0  0  0  0  0  0  0
    3.0866    0.0117    0.3458 H   0  0  0  0  0  0  0  0  0  0  0  0
    1.0617    1.9038   -0.1283 H   0  0  0  0  0  0  0  0  0  0  0  0
  1  2  1  0
  1  4  1  0
  1  5  1  0
  1  6  1  0
  2  3  2  3
  2  7  1  0
  3  8  1  0
  9 10  1  0
  9 13  1  0
  9 14  1  0
  9 15  1  0
 10 11  1  0
 10 16  1  0
 11 12  1  0
 11 17  1  0
 11 18  1  0
 12 19  1  0
M  RAD  1  10   2
M  END
>  <reaction>  (4) 
rmg_rxn_16504

>  <mol_properties>  (4) 
{"1": {"label": "*0", "atom_type": "Cd"}, "2": {"label": "*1", "atom_type": "N3d"}, "7": {"label": "*2", "atom_type": "H0"}, "9": {"label": "*3", "atom_type": "Cs"}, "10": {"label": "*4", "atom_type": "Cs"}}

>  <type>  (4) 
ts

$$$$

     RDKit          3D

 19 17  0  0  0  0  0  0  0  0999 V2000
   -3.4476    0.3009    0.1480 C   0  0  0  0  0  0  0  0  0  0  0  0
   -2.0611   -0.2284   -0.0569 C   0  0  0  0  0  0  0  0  0  0  0  0
   -1.0674    0.5102   -0.1258 N   0  0  0  0  0  0  0  0  0  0  0  0
   -3.4321    1.3846    0.2234 H   0  0  0  0  0  0  0  0  0  0  0  0
   -4.0751   -0.0005   -0.6894 H   0  0  0  0  0  0  0  0  0  0  0  0
   -3.8656   -0.1262    1.0584 H   0  0  0  0  0  0  0  0  0  0  0  0
   -2.0150   -1.3251   -0.1385 H   0  0  0  0  0  0  0  0  0  0  0  0
    0.0179   -0.0837   -0.2943 H   0  0  0  0  0  0  0  0  0  0  0  0
    1.1161   -2.0418    0.1139 C   0  0  0  0  0  0  0  0  0  0  0  0
    1.1902   -0.6360   -0.4174 C   0  0  0  0  0  3  0  0  0  0  0  0
    2.0767    0.3094    0.3622 C   0  0  0  0  0  0  0  0  0  0  0  0
    1.9483    1.6425   -0.0665 O   0  0  0  0  0  0  0  0  0  0  0  0
    0.8304   -2.0441    1.1646 H   0  0  0  0  0  0  0  0  0  0  0  0
    0.3931   -2.6303   -0.4479 H   0  0  0  0  0  0  0  0  0  0  0  0
    2.0854   -2.5386    0.0303 H   0  0  0  0  0  0  0  0  0  0  0  0
    1.3869   -0.5902   -1.4869 H   0  0  0  0  0  0  0  0  0  0  0  0
    1.8504    0.2272    1.4377 H   0  0  0  0  0  0  0  0  0  0  0  0
    3.1357    0.0566    0.2216 H   0  0  0  0  0  0  0  0  0  0  0  0
    1.0082    1.8661   -0.0584 H   0  0  0  0  0  0  0  0  0  0  0  0
  1  2  1  0
  1  4  1  0
  1  5  1  0
  1  6  1  0
  2  3  2  3
  2  7  1  0
  3  8  1  0
  9 10  1  0
  9 13  1  0
  9 14  1  0
  9 15  1  0
 10 11  1  0
 10 16  1  0
 11 12  1  0
 11 17  1  0
 11 18  1  0
 12 19  1  0
M  RAD  1  10   2
M  END
>  <reaction>  (5) 
rmg_rxn_16504

>  <mol_properties>  (5) 
{"1": {"label": "*0", "atom_type": "Cd"}, "2": {"label": "*1", "atom_type": "N3d"}, "7": {"label": "*2", "atom_type": "H0"}, "9": {"label": "*3", "atom_type": "Cs"}, "10": {"label": "*4", "atom_type": "Cs"}}

>  <type>  (5) 
unop_1

>  <geom_source>  (5) 
crest_best.xyz

$$$$

     RDKit          3D

 19 17  0  0  0  0  0  0  0  0999 V2000
    0.0943   -0.3294   -3.7619 C   0  0  0  0  0  0  0  0  0  0  0  0
    0.0943   -0.3294   -2.2696 C   0  0  0  0  0  0  0  0  0  0  0  0
    0.0943    0.7432   -1.6019 N   0  0  0  0  0  0  0  0  0  0  0  0
    0.9725   -0.8594   -4.1393 H   0  0  0  0  0  0  0  0  0  0  0  0
   -0.7840   -0.8594   -4.1393 H   0  0  0  0  0  0  0  0  0  0  0  0
    0.0943    0.6912   -4.1405 H   0  0  0  0  0  0  0  0  0  0  0  0
    0.0943   -1.3191   -1.7949 H   0  0  0  0  0  0  0  0  0  0  0  0
    0.0943    0.5131   -0.4023 H   0  0  0  0  0  0  0  0  0  0  0  0
    1.3316    0.8681    1.5384 C   0  0  0  0  0  0  0  0  0  0  0  0
    0.0943    0.2656    0.8873 C   0  0  0  0  0  3  0  0  0  0  0  0
   -0.5557   -0.8245    1.7265 C   0  0  0  0  0  0  0  0  0  0  0  0
   -0.9965   -0.3686    2.9914 O   0  0  0  0  0  0  0  0  0  0  0  0
    1.7531    1.6654    0.9246 H   0  0  0  0  0  0  0  0  0  0  0  0
    1.0922    1.2815    2.5185 H   0  0  0  0  0  0  0  0  0  0  0  0
    2.1040    0.1085    1.6794 H   0  0  0  0  0  0  0  0  0  0  0  0
   -0.6454    1.0505    0.6914 H   0  0  0  0  0  0  0  0  0  0  0  0
   -1.3842   -1.2799    1.1696 H   0  0  0  0  0  0  0  0  0  0  0  0
    0.1690   -1.6141    1.9375 H   0  0  0  0  0  0  0  0  0  0  0  0
   -1.6624    0.3071    2.8539 H   0  0  0  0  0  0  0  0  0  0  0  0
  1  2  1  0
  1  4  1  0
  1  5  1  0
  1  6  1  0
  2  3  2  3
  2  7  1  0
  3  8  1  0
  9 10  1  0
  9 13  1  0
  9 14  1  0
  9 15  1  0
 10 11  1  0
 10 16  1  0
 11 12  1  0
 11 17  1  0
 11 18  1  0
 12 19  1  0
M  RAD  1  10   2
M  END
>  <reaction>  (6) 
rmg_rxn_16504

>  <mol_properties>  (6) 
{"1": {"label": "*0", "atom_type": "Cd"}, "2": {"label": "*1", "atom_type": "N3d"}, "7": {"label": "*2", "atom_type": "H0"}, "9": {"label": "*3", "atom_type": "Cs"}, "10": {"label": "*4", "atom_type": "Cs"}}

>  <type>  (6) 
unop_2

>  <geom_source>  (6) 
Heuristics

$$$$

     RDKit          3D

 19 17  0  0  0  0  0  0  0  0999 V2000
    0.2271   -0.3651   -3.7320 C   0  0  0  0  0  0  0  0  0  0  0  0
    0.2271   -0.3651   -2.2397 C   0  0  0  0  0  0  0  0  0  0  0  0
    0.2271    0.7076   -1.5720 N   0  0  0  0  0  0  0  0  0  0  0  0
    1.1054   -0.8951   -4.1094 H   0  0  0  0  0  0  0  0  0  0  0  0
   -0.6512   -0.8951   -4.1094 H   0  0  0  0  0  0  0  0  0  0  0  0
    0.2271    0.6555   -4.1106 H   0  0  0  0  0  0  0  0  0  0  0  0
    0.2271   -1.3548   -1.7650 H   0  0  0  0  0  0  0  0  0  0  0  0
    0.2271    0.4774   -0.3724 H   0  0  0  0  0  0  0  0  0  0  0  0
    0.9415   -1.0843    1.2005 C   0  0  0  0  0  0  0  0  0  0  0  0
    0.2271    0.2300    0.9171 C   0  0  0  0  0  3  0  0  0  0  0  0
   -1.0263    0.4257    1.7574 C   0  0  0  0  0  0  0  0  0  0  0  0
   -0.7695    0.4446    3.1487 O   0  0  0  0  0  0  0  0  0  0  0  0
    1.8500   -1.1773    0.6038 H   0  0  0  0  0  0  0  0  0  0  0  0
    1.2149   -1.1583    2.2534 H   0  0  0  0  0  0  0  0  0  0  0  0
    0.2967   -1.9343    0.9655 H   0  0  0  0  0  0  0  0  0  0  0  0
    0.9072    1.0714    1.0937 H   0  0  0  0  0  0  0  0  0  0  0  0
   -1.5437    1.3424    1.4474 H   0  0  0  0  0  0  0  0  0  0  0  0
   -1.7147   -0.4074    1.5991 H   0  0  0  0  0  0  0  0  0  0  0  0
   -0.1915    1.1852    3.3395 H   0  0  0  0  0  0  0  0  0  0  0  0
  1  2  1  0
  1  4  1  0
  1  5  1  0
  1  6  1  0
  2  3  2  3
  2  7  1  0
  3  8  1  0
  9 10  1  0
  9 13  1  0
  9 14  1  0
  9 15  1  0
 10 11  1  0
 10 16  1  0
 11 12  1  0
 11 17  1  0
 11 18  1  0
 12 19  1  0
M  RAD  1  10   2
M  END
>  <reaction>  (7) 
rmg_rxn_16504

>  <mol_properties>  (7) 
{"1": {"label": "*0", "atom_type": "Cd"}, "2": {"label": "*1", "atom_type": "N3d"}, "7": {"label": "*2", "atom_type": "H0"}, "9": {"label": "*3", "atom_type": "Cs"}, "10": {"label": "*4", "atom_type": "Cs"}}

>  <type>  (7) 
unop_3

>  <geom_source>  (7) 
Heuristics

$$$$

     RDKit          3D

 19 17  0  0  0  0  0  0  0  0999 V2000
   -0.0427   -0.2399   -3.7348 C   0  0  0  0  0  0  0  0  0  0  0  0
   -0.0427   -0.2399   -2.2425 C   0  0  0  0  0  0  0  0  0  0  0  0
   -0.0427    0.8327   -1.5748 N   0  0  0  0  0  0  0  0  0  0  0  0
    0.8355   -0.7699   -4.1122 H   0  0  0  0  0  0  0  0  0  0  0  0
   -0.9210   -0.7699   -4.1122 H   0  0  0  0  0  0  0  0  0  0  0  0
   -0.0427    0.7807   -4.1134 H   0  0  0  0  0  0  0  0  0  0  0  0
   -0.0427   -1.2296   -1.7678 H   0  0  0  0  0  0  0  0  0  0  0  0
   -0.0427    0.6025   -0.3752 H   0  0  0  0  0  0  0  0  0  0  0  0
    0.6716    1.4712    1.6640 C   0  0  0  0  0  0  0  0  0  0  0  0
   -0.0427    0.3551    0.9143 C   0  0  0  0  0  3  0  0  0  0  0  0
    0.0821   -1.0006    1.5937 C   0  0  0  0  0  0  0  0  0  0  0  0
   -0.4703   -1.0265    2.8962 O   0  0  0  0  0  0  0  0  0  0  0  0
    0.5359    2.4322    1.1659 H   0  0  0  0  0  0  0  0  0  0  0  0
    0.2938    1.5580    2.6831 H   0  0  0  0  0  0  0  0  0  0  0  0
    1.7441    1.2726    1.7246 H   0  0  0  0  0  0  0  0  0  0  0  0
   -1.1056    0.5993    0.8033 H   0  0  0  0  0  0  0  0  0  0  0  0
   -0.3735   -1.7762    0.9653 H   0  0  0  0  0  0  0  0  0  0  0  0
    1.1360   -1.2589    1.7188 H   0  0  0  0  0  0  0  0  0  0  0  0
   -1.4076   -0.8364    2.8308 H   0  0  0  0  0  0  0  0  0  0  0  0
  1  2  1  0
  1  4  1  0
  1  5  1  0
  1  6  1  0
  2  3  2  3
  2  7  1  0
  3  8  1  0
  9 10  1  0
  9 13  1  0
  9 14  1  0
  9 15  1  0
 10 11  1  0
 10 16  1  0
 11 12  1  0
 11 17  1  0
 11 18  1  0
 12 19  1  0
M  RAD  1  10   2
M  END
>  <reaction>  (8) 
rmg_rxn_16504

>  <mol_properties>  (8) 
{"1": {"label": "*0", "atom_type": "Cd"}, "2": {"label": "*1", "atom_type": "N3d"}, "7": {"label": "*2", "atom_type": "H0"}, "9": {"label": "*3", "atom_type": "Cs"}, "10": {"label": "*4", "atom_type": "Cs"}}

>  <type>  (8) 
unop_4

>  <geom_source>  (8) 
Heuristics

$$$$

     RDKit          3D

 19 17  0  0  0  0  0  0  0  0999 V2000
    0.2976   -0.9023   -3.5001 C   0  0  0  0  0  0  0  0  0  0  0  0
    0.2976   -0.9023   -2.0078 C   0  0  0  0  0  0  0  0  0  0  0  0
    0.2976    0.1703   -1.3401 N   0  0  0  0  0  0  0  0  0  0  0  0
    1.1758   -1.4323   -3.8775 H   0  0  0  0  0  0  0  0  0  0  0  0
   -0.5807   -1.4323   -3.8775 H   0  0  0  0  0  0  0  0  0  0  0  0
    0.2976    0.1183   -3.8787 H   0  0  0  0  0  0  0  0  0  0  0  0
    0.2976   -1.8920   -1.5331 H   0  0  0  0  0  0  0  0  0  0  0  0
    0.2976   -0.0599   -0.1405 H   0  0  0  0  0  0  0  0  0  0  0  0
   -0.9398   -1.1080    1.5309 C   0  0  0  0  0  0  0  0  0  0  0  0
    0.2976   -0.3073    1.1490 C   0  0  0  0  0  3  0  0  0  0  0  0
    0.0842    1.1976    1.2183 C   0  0  0  0  0  0  0  0  0  0  0  0
   -0.2590    1.6548    2.5126 O   0  0  0  0  0  0  0  0  0  0  0  0
   -0.7422   -2.1804    1.4996 H   0  0  0  0  0  0  0  0  0  0  0  0
   -1.2732   -0.8510    2.5368 H   0  0  0  0  0  0  0  0  0  0  0  0
   -1.7640   -0.8980    0.8454 H   0  0  0  0  0  0  0  0  0  0  0  0
    1.1347   -0.5771    1.8033 H   0  0  0  0  0  0  0  0  0  0  0  0
    0.9766    1.7183    0.8485 H   0  0  0  0  0  0  0  0  0  0  0  0
   -0.7513    1.4853    0.5763 H   0  0  0  0  0  0  0  0  0  0  0  0
    0.4652    1.4517    3.1069 H   0  0  0  0  0  0  0  0  0  0  0  0
  1  2  1  0
  1  4  1  0
  1  5  1  0
  1  6  1  0
  2  3  2  3
  2  7  1  0
  3  8  1  0
  9 10  1  0
  9 13  1  0
  9 14  1  0
  9 15  1  0
 10 11  1  0
 10 16  1  0
 11 12  1  0
 11 17  1  0
 11 18  1  0
 12 19  1  0
M  RAD  1  10   2
M  END
>  <reaction>  (9) 
rmg_rxn_16504

>  <mol_properties>  (9) 
{"1": {"label": "*0", "atom_type": "Cd"}, "2": {"label": "*1", "atom_type": "N3d"}, "7": {"label": "*2", "atom_type": "H0"}, "9": {"label": "*3", "atom_type": "Cs"}, "10": {"label": "*4", "atom_type": "Cs"}}

>  <type>  (9) 
unop_5

>  <geom_source>  (9) 
Heuristics

$$$$

     RDKit          3D

 19 17  0  0  0  0  0  0  0  0999 V2000
   -0.3661   -0.3415   -3.6403 C   0  0  0  0  0  0  0  0  0  0  0  0
   -0.3661   -0.3415   -2.1479 C   0  0  0  0  0  0  0  0  0  0  0  0
   -0.3661    0.7311   -1.4802 N   0  0  0  0  0  0  0  0  0  0  0  0
    0.5122   -0.8715   -4.0177 H   0  0  0  0  0  0  0  0  0  0  0  0
   -1.2443   -0.8715   -4.0177 H   0  0  0  0  0  0  0  0  0  0  0  0
   -0.3661    0.6791   -4.0188 H   0  0  0  0  0  0  0  0  0  0  0  0
   -0.3661   -1.3312   -1.6733 H   0  0  0  0  0  0  0  0  0  0  0  0
   -0.3661    0.5009   -0.2806 H   0  0  0  0  0  0  0  0  0  0  0  0
   -0.3661    1.5575    1.7946 C   0  0  0  0  0  0  0  0  0  0  0  0
   -0.3661    0.2535    1.0089 C   0  0  0  0  0  3  0  0  0  0  0  0
    0.8285   -0.6358    1.3209 C   0  0  0  0  0  0  0  0  0  0  0  0
    0.8929   -1.0298    2.6784 O   0  0  0  0  0  0  0  0  0  0  0  0
   -1.2504    2.1552    1.5691 H   0  0  0  0  0  0  0  0  0  0  0  0
   -0.3487    1.3642    2.8676 H   0  0  0  0  0  0  0  0  0  0  0  0
    0.5150    2.1561    1.5519 H   0  0  0  0  0  0  0  0  0  0  0  0
   -1.2868   -0.3057    1.2116 H   0  0  0  0  0  0  0  0  0  0  0  0
    0.8213   -1.5144    0.6635 H   0  0  0  0  0  0  0  0  0  0  0  0
    1.7569   -0.0929    1.1305 H   0  0  0  0  0  0  0  0  0  0  0  0
    0.1081   -1.5411    2.8824 H   0  0  0  0  0  0  0  0  0  0  0  0
  1  2  1  0
  1  4  1  0
  1  5  1  0
  1  6  1  0
  2  3  2  3
  2  7  1  0
  3  8  1  0
  9 10  1  0
  9 13  1  0
  9 14  1  0
  9 15  1  0
 10 11  1  0
 10 16  1  0
 11 12  1  0
 11 17  1  0
 11 18  1  0
 12 19  1  0
M  RAD  1  10   2
M  END
>  <reaction>  (10) 
rmg_rxn_16504

>  <mol_properties>  (10) 
{"1": {"label": "*0", "atom_type": "Cd"}, "2": {"label": "*1", "atom_type": "N3d"}, "7": {"label": "*2", "atom_type": "H0"}, "9": {"label": "*3", "atom_type": "Cs"}, "10": {"label": "*4", "atom_type": "Cs"}}

>  <type>  (10) 
unop_6

>  <geom_source>  (10) 
Heuristics

$$$$

     RDKit          3D

 19 17  0  0  0  0  0  0  0  0999 V2000
    0.0519   -1.0204   -3.4536 C   0  0  0  0  0  0  0  0  0  0  0  0
    0.0519   -1.0204   -1.9613 C   0  0  0  0  0  0  0  0  0  0  0  0
    0.0519    0.0522   -1.2936 N   0  0  0  0  0  0  0  0  0  0  0  0
    0.9301   -1.5504   -3.8310 H   0  0  0  0  0  0  0  0  0  0  0  0
   -0.8264   -1.5504   -3.8310 H   0  0  0  0  0  0  0  0  0  0  0  0
    0.0519    0.0002   -3.8322 H   0  0  0  0  0  0  0  0  0  0  0  0
    0.0519   -2.0101   -1.4867 H   0  0  0  0  0  0  0  0  0  0  0  0
    0.0519   -0.1779   -0.0940 H   0  0  0  0  0  0  0  0  0  0  0  0
   -1.3769   -0.5244    1.7120 C   0  0  0  0  0  0  0  0  0  0  0  0
    0.0519   -0.4253    1.1955 C   0  0  0  0  0  3  0  0  0  0  0  0
    0.5504    1.0075    1.0787 C   0  0  0  0  0  0  0  0  0  0  0  0
    0.5620    1.6980    2.3137 O   0  0  0  0  0  0  0  0  0  0  0  0
   -1.6902   -1.5646    1.8119 H   0  0  0  0  0  0  0  0  0  0  0  0
   -1.4717   -0.0439    2.6862 H   0  0  0  0  0  0  0  0  0  0  0  0
   -2.0709   -0.0285    1.0295 H   0  0  0  0  0  0  0  0  0  0  0  0
    0.7276   -0.9831    1.8542 H   0  0  0  0  0  0  0  0  0  0  0  0
    1.5471    1.0194    0.6199 H   0  0  0  0  0  0  0  0  0  0  0  0
   -0.1148    1.5816    0.4299 H   0  0  0  0  0  0  0  0  0  0  0  0
    1.1626    1.2450    2.9078 H   0  0  0  0  0  0  0  0  0  0  0  0
  1  2  1  0
  1  4  1  0
  1  5  1  0
  1  6  1  0
  2  3  2  3
  2  7  1  0
  3  8  1  0
  9 10  1  0
  9 13  1  0
  9 14  1  0
  9 15  1  0
 10 11  1  0
 10 16  1  0
 11 12  1  0
 11 17  1  0
 11 18  1  0
 12 19  1  0
M  RAD  1  10   2
M  END
>  <reaction>  (11) 
rmg_rxn_16504

>  <mol_properties>  (11) 
{"1": {"label": "*0", "atom_type": "Cd"}, "2": {"label": "*1", "atom_type": "N3d"}, "7": {"label": "*2", "atom_type": "H0"}, "9": {"label": "*3", "atom_type": "Cs"}, "10": {"label": "*4", "atom_type": "Cs"}}

>  <type>  (11) 
unop_7

>  <geom_source>  (11) 
Heuristics

$$$$

     RDKit          3D

 19 17  0  0  0  0  0  0  0  0999 V2000
   -0.2391   -0.9720   -3.4425 C   0  0  0  0  0  0  0  0  0  0  0  0
   -0.2391   -0.9720   -1.9501 C   0  0  0  0  0  0  0  0  0  0  0  0
   -0.2391    0.1006   -1.2824 N   0  0  0  0  0  0  0  0  0  0  0  0
    0.6392   -1.5020   -3.8199 H   0  0  0  0  0  0  0  0  0  0  0  0
   -1.1174   -1.5020   -3.8199 H   0  0  0  0  0  0  0  0  0  0  0  0
   -0.2391    0.0486   -3.8210 H   0  0  0  0  0  0  0  0  0  0  0  0
   -0.2391   -1.9617   -1.4755 H   0  0  0  0  0  0  0  0  0  0  0  0
   -0.2391   -0.1296   -0.0828 H   0  0  0  0  0  0  0  0  0  0  0  0
   -1.4764    0.2255    1.8578 C   0  0  0  0  0  0  0  0  0  0  0  0
   -0.2391   -0.3770    1.2067 C   0  0  0  0  0  3  0  0  0  0  0  0
    0.8834    0.6299    1.0035 C   0  0  0  0  0  0  0  0  0  0  0  0
    1.3497    1.1990    2.2122 O   0  0  0  0  0  0  0  0  0  0  0  0
   -2.2478   -0.5297    2.0157 H   0  0  0  0  0  0  0  0  0  0  0  0
   -1.2301    0.6694    2.8228 H   0  0  0  0  0  0  0  0  0  0  0  0
   -1.9003    1.0126    1.2300 H   0  0  0  0  0  0  0  0  0  0  0  0
    0.1364   -1.2086    1.8143 H   0  0  0  0  0  0  0  0  0  0  0  0
    1.7091    0.1619    0.4529 H   0  0  0  0  0  0  0  0  0  0  0  0
    0.5260    1.4703    0.4043 H   0  0  0  0  0  0  0  0  0  0  0  0
    1.7052    0.4969    2.7596 H   0  0  0  0  0  0  0  0  0  0  0  0
  1  2  1  0
  1  4  1  0
  1  5  1  0
  1  6  1  0
  2  3  2  3
  2  7  1  0
  3  8  1  0
  9 10  1  0
  9 13  1  0
  9 14  1  0
  9 15  1  0
 10 11  1  0
 10 16  1  0
 11 12  1  0
 11 17  1  0
 11 18  1  0
 12 19  1  0
M  RAD  1  10   2
M  END
>  <reaction>  (12) 
rmg_rxn_16504

>  <mol_properties>  (12) 
{"1": {"label": "*0", "atom_type": "Cd"}, "2": {"label": "*1", "atom_type": "N3d"}, "7": {"label": "*2", "atom_type": "H0"}, "9": {"label": "*3", "atom_type": "Cs"}, "10": {"label": "*4", "atom_type": "Cs"}}

>  <type>  (12) 
unop_8

>  <geom_source>  (12) 
Heuristics

$$$$

     RDKit          3D

 19 17  0  0  0  0  0  0  0  0999 V2000
    0.1075   -0.3805   -3.7717 C   0  0  0  0  0  0  0  0  0  0  0  0
    0.1075   -0.3805   -2.2794 C   0  0  0  0  0  0  0  0  0  0  0  0
    0.1075    0.6921   -1.6117 N   0  0  0  0  0  0  0  0  0  0  0  0
    0.9858   -0.9105   -4.1491 H   0  0  0  0  0  0  0  0  0  0  0  0
   -0.7708   -0.9105   -4.1491 H   0  0  0  0  0  0  0  0  0  0  0  0
    0.1075    0.6401   -4.1503 H   0  0  0  0  0  0  0  0  0  0  0  0
    0.1075   -1.3702   -1.8047 H   0  0  0  0  0  0  0  0  0  0  0  0
    0.1075    0.4620   -0.4121 H   0  0  0  0  0  0  0  0  0  0  0  0
    1.5362    0.1154    1.3939 C   0  0  0  0  0  0  0  0  0  0  0  0
    0.1075    0.2145    0.8775 C   0  0  0  0  0  3  0  0  0  0  0  0
   -0.9110   -0.4407    1.7986 C   0  0  0  0  0  0  0  0  0  0  0  0
   -0.9507    0.1372    3.0896 O   0  0  0  0  0  0  0  0  0  0  0  0
    2.2345    0.6210    0.7254 H   0  0  0  0  0  0  0  0  0  0  0  0
    1.6235    0.5656    2.3833 H   0  0  0  0  0  0  0  0  0  0  0  0
    1.8467   -0.9287    1.4770 H   0  0  0  0  0  0  0  0  0  0  0  0
   -0.1674    1.2662    0.7361 H   0  0  0  0  0  0  0  0  0  0  0  0
   -1.9046   -0.4162    1.3335 H   0  0  0  0  0  0  0  0  0  0  0  0
   -0.6501   -1.4895    1.9564 H   0  0  0  0  0  0  0  0  0  0  0  0
   -1.2097    1.0559    3.0017 H   0  0  0  0  0  0  0  0  0  0  0  0
  1  2  1  0
  1  4  1  0
  1  5  1  0
  1  6  1  0
  2  3  2  3
  2  7  1  0
  3  8  1  0
  9 10  1  0
  9 13  1  0
  9 14  1  0
  9 15  1  0
 10 11  1  0
 10 16  1  0
 11 12  1  0
 11 17  1  0
 11 18  1  0
 12 19  1  0
M  RAD  1  10   2
M  END
>  <reaction>  (13) 
rmg_rxn_16504

>  <mol_properties>  (13) 
{"1": {"label": "*0", "atom_type": "Cd"}, "2": {"label": "*1", "atom_type": "N3d"}, "7": {"label": "*2", "atom_type": "H0"}, "9": {"label": "*3", "atom_type": "Cs"}, "10": {"label": "*4", "atom_type": "Cs"}}

>  <type>  (13) 
unop_9

>  <geom_source>  (13) 
Heuristics

$$$$

     RDKit          3D

 19 17  0  0  0  0  0  0  0  0999 V2000
   -3.4476    0.3009    0.1480 C   0  0  0  0  0  0  0  0  0  0  0  0
   -2.0611   -0.2284   -0.0569 C   0  0  0  0  0  0  0  0  0  0  0  0
   -1.0674    0.5102   -0.1258 N   0  0  0  0  0  0  0  0  0  0  0  0
   -3.4321    1.3846    0.2234 H   0  0  0  0  0  0  0  0  0  0  0  0
   -4.0751   -0.0005   -0.6894 H   0  0  0  0  0  0  0  0  0  0  0  0
   -3.8656   -0.1262    1.0584 H   0  0  0  0  0  0  0  0  0  0  0  0
   -2.0150   -1.3251   -0.1385 H   0  0  0  0  0  0  0  0  0  0  0  0
    0.0179   -0.0837   -0.2943 H   0  0  0  0  0  0  0  0  0  0  0  0
    1.1161   -2.0418    0.1139 C   0  0  0  0  0  0  0  0  0  0  0  0
    1.1902   -0.6360   -0.4174 C   0  0  0  0  0  3  0  0  0  0  0  0
    2.0767    0.3094    0.3622 C   0  0  0  0  0  0  0  0  0  0  0  0
    1.9483    1.6425   -0.0665 O   0  0  0  0  0  0  0  0  0  0  0  0
    0.8304   -2.0441    1.1646 H   0  0  0  0  0  0  0  0  0  0  0  0
    0.3931   -2.6303   -0.4479 H   0  0  0  0  0  0  0  0  0  0  0  0
    2.0854   -2.5386    0.0303 H   0  0  0  0  0  0  0  0  0  0  0  0
    1.3869   -0.5902   -1.4869 H   0  0  0  0  0  0  0  0  0  0  0  0
    1.8504    0.2272    1.4377 H   0  0  0  0  0  0  0  0  0  0  0  0
    3.1357    0.0566    0.2216 H   0  0  0  0  0  0  0  0  0  0  0  0
    1.0082    1.8661   -0.0584 H   0  0  0  0  0  0  0  0  0  0  0  0
  1  2  1  0
  1  4  1  0
  1  5  1  0
  1  6  1  0
  2  3  2  3
  2  7  1  0
  3  8  1  0
  9 10  1  0
  9 13  1  0
  9 14  1  0
  9 15  1  0
 10 11  1  0
 10 16  1  0
 11 12  1  0
 11 17  1  0
 11 18  1  0
 12 19  1  0
M  RAD  1  10   2
M  END
>  <reaction>  (14) 
rmg_rxn_16504

>  <mol_properties>  (14) 
{"1": {"label": "*0", "atom_type": "Cd"}, "2": {"label": "*1", "atom_type": "N3d"}, "7": {"label": "*2", "atom_type": "H0"}, "9": {"label": "*3", "atom_type": "Cs"}, "10": {"label": "*4", "atom_type": "Cs"}}

>  <type>  (14) 
unop_10

>  <geom_source>  (14) 
Heuristics

$$$$

     RDKit          3D

 19 17  0  0  0  0  0  0  0  0999 V2000
    0.4149   -0.6802   -3.5754 C   0  0  0  0  0  0  0  0  0  0  0  0
    0.4149   -0.6802   -2.0830 C   0  0  0  0  0  0  0  0  0  0  0  0
    0.4149    0.3924   -1.4153 N   0  0  0  0  0  0  0  0  0  0  0  0
    1.2931   -1.2102   -3.9528 H   0  0  0  0  0  0  0  0  0  0  0  0
   -0.4634   -1.2102   -3.9528 H   0  0  0  0  0  0  0  0  0  0  0  0
    0.4149    0.3404   -3.9540 H   0  0  0  0  0  0  0  0  0  0  0  0
    0.4149   -1.6699   -1.6084 H   0  0  0  0  0  0  0  0  0  0  0  0
    0.4149    0.1622   -0.2158 H   0  0  0  0  0  0  0  0  0  0  0  0
   -0.2995   -1.3995    1.3571 C   0  0  0  0  0  0  0  0  0  0  0  0
    0.4149   -0.0852    1.0738 C   0  0  0  0  0  3  0  0  0  0  0  0
   -0.4267    1.1390    1.4028 C   0  0  0  0  0  0  0  0  0  0  0  0
   -0.7965    1.2134    2.7666 O   0  0  0  0  0  0  0  0  0  0  0  0
    0.3428   -2.2539    1.1389 H   0  0  0  0  0  0  0  0  0  0  0  0
   -0.6035   -1.4585    2.4026 H   0  0  0  0  0  0  0  0  0  0  0  0
   -1.1998   -1.4909    0.7451 H   0  0  0  0  0  0  0  0  0  0  0  0
    1.3496   -0.0366    1.6444 H   0  0  0  0  0  0  0  0  0  0  0  0
    0.1034    2.0495    1.0959 H   0  0  0  0  0  0  0  0  0  0  0  0
   -1.3665    1.1053    0.8472 H   0  0  0  0  0  0  0  0  0  0  0  0
    0.0019    1.2783    3.2932 H   0  0  0  0  0  0  0  0  0  0  0  0
  1  2  1  0
  1  4  1  0
  1  5  1  0
  1  6  1  0
  2  3  2  3
  2  7  1  0
  3  8  1  0
  9 10  1  0
  9 13  1  0
  9 14  1  0
  9 15  1  0
 10 11  1  0
 10 16  1  0
 11 12  1  0
 11 17  1  0
 11 18  1  0
 12 19  1  0
M  RAD  1  10   2
M  END
>  <reaction>  (15) 
rmg_rxn_16504

>  <mol_properties>  (15) 
{"1": {"label": "*0", "atom_type": "Cd"}, "2": {"label": "*1", "atom_type": "N3d"}, "7": {"label": "*2", "atom_type": "H0"}, "9": {"label": "*3", "atom_type": "Cs"}, "10": {"label": "*4", "atom_type": "Cs"}}

>  <type>  (15) 
unop_11

>  <geom_source>  (15) 
Heuristics

$$$$

     RDKit          3D

 19 17  0  0  0  0  0  0  0  0999 V2000
    0.1290   -0.3695   -3.7650 C   0  0  0  0  0  0  0  0  0  0  0  0
    0.1290   -0.3695   -2.2727 C   0  0  0  0  0  0  0  0  0  0  0  0
    0.1290    0.7031   -1.6050 N   0  0  0  0  0  0  0  0  0  0  0  0
    1.0072   -0.8995   -4.1424 H   0  0  0  0  0  0  0  0  0  0  0  0
   -0.7493   -0.8995   -4.1424 H   0  0  0  0  0  0  0  0  0  0  0  0
    0.1290    0.6511   -4.1436 H   0  0  0  0  0  0  0  0  0  0  0  0
    0.1290   -1.3592   -1.7980 H   0  0  0  0  0  0  0  0  0  0  0  0
    0.1290    0.4729   -0.4054 H   0  0  0  0  0  0  0  0  0  0  0  0
    1.3663   -0.5752    1.2660 C   0  0  0  0  0  0  0  0  0  0  0  0
    0.1290    0.2255    0.8842 C   0  0  0  0  0  3  0  0  0  0  0  0
   -1.0496   -0.0083    1.8177 C   0  0  0  0  0  0  0  0  0  0  0  0
   -0.7815    0.3551    3.1587 O   0  0  0  0  0  0  0  0  0  0  0  0
    2.1992   -0.3604    0.5950 H   0  0  0  0  0  0  0  0  0  0  0  0
    1.6795   -0.3435    2.2845 H   0  0  0  0  0  0  0  0  0  0  0  0
    1.1639   -1.6476    1.2180 H   0  0  0  0  0  0  0  0  0  0  0  0
    0.3647    1.2960    0.8722 H   0  0  0  0  0  0  0  0  0  0  0  0
   -1.9335    0.5228    1.4427 H   0  0  0  0  0  0  0  0  0  0  0  0
   -1.2959   -1.0720    1.8475 H   0  0  0  0  0  0  0  0  0  0  0  0
   -0.5912    1.2943    3.1852 H   0  0  0  0  0  0  0  0  0  0  0  0
  1  2  1  0
  1  4  1  0
  1  5  1  0
  1  6  1  0
  2  3  2  3
  2  7  1  0
  3  8  1  0
  9 10  1  0
  9 13  1  0
  9 14  1  0
  9 15  1  0
 10 11  1  0
 10 16  1  0
 11 12  1  0
 11 17  1  0
 11 18  1  0
 12 19  1  0
M  RAD  1  10   2
M  END
>  <reaction>  (16) 
rmg_rxn_16504

>  <mol_properties>  (16) 
{"1": {"label": "*0", "atom_type": "Cd"}, "2": {"label": "*1", "atom_type": "N3d"}, "7": {"label": "*2", "atom_type": "H0"}, "9": {"label": "*3", "atom_type": "Cs"}, "10": {"label": "*4", "atom_type": "Cs"}}

>  <type>  (16) 
unop_12

>  <geom_source>  (16) 
Heuristics

$$$$

     RDKit          3D

 19 17  0  0  0  0  0  0  0  0999 V2000
   -0.4564   -0.7195   -3.4964 C   0  0  0  0  0  0  0  0  0  0  0  0
   -0.4564   -0.7195   -2.0041 C   0  0  0  0  0  0  0  0  0  0  0  0
   -0.4564    0.3531   -1.3364 N   0  0  0  0  0  0  0  0  0  0  0  0
    0.4219   -1.2495   -3.8738 H   0  0  0  0  0  0  0  0  0  0  0  0
   -1.3346   -1.2495   -3.8738 H   0  0  0  0  0  0  0  0  0  0  0  0
   -0.4564    0.3011   -3.8750 H   0  0  0  0  0  0  0  0  0  0  0  0
   -0.4564   -1.7092   -1.5294 H   0  0  0  0  0  0  0  0  0  0  0  0
   -0.4564    0.1229   -0.1368 H   0  0  0  0  0  0  0  0  0  0  0  0
   -1.1708    0.9915    1.9024 C   0  0  0  0  0  0  0  0  0  0  0  0
   -0.4564   -0.1245    1.1527 C   0  0  0  0  0  3  0  0  0  0  0  0
    1.0475    0.0848    1.0542 C   0  0  0  0  0  0  0  0  0  0  0  0
    1.6878    0.1434    2.3146 O   0  0  0  0  0  0  0  0  0  0  0  0
   -2.2408    0.7940    1.9803 H   0  0  0  0  0  0  0  0  0  0  0  0
   -0.7692    1.1012    2.9102 H   0  0  0  0  0  0  0  0  0  0  0  0
   -1.0420    1.9473    1.3892 H   0  0  0  0  0  0  0  0  0  0  0  0
   -0.6490   -1.0867    1.6414 H   0  0  0  0  0  0  0  0  0  0  0  0
    1.4933   -0.7001    0.4304 H   0  0  0  0  0  0  0  0  0  0  0  0
    1.2595    1.0430    0.5746 H   0  0  0  0  0  0  0  0  0  0  0  0
    1.5550   -0.6948    2.7604 H   0  0  0  0  0  0  0  0  0  0  0  0
  1  2  1  0
  1  4  1  0
  1  5  1  0
  1  6  1  0
  2  3  2  3
  2  7  1  0
  3  8  1  0
  9 10  1  0
  9 13  1  0
  9 14  1  0
  9 15  1  0
 10 11  1  0
 10 16  1  0
 11 12  1  0
 11 17  1  0
 11 18  1  0
 12 19  1  0
M  RAD  1  10   2
M  END
>  <reaction>  (17) 
rmg_rxn_16504

>  <mol_properties>  (17) 
{"1": {"label": "*0", "atom_type": "Cd"}, "2": {"label": "*1", "atom_type": "N3d"}, "7": {"label": "*2", "atom_type": "H0"}, "9": {"label": "*3", "atom_type": "Cs"}, "10": {"label": "*4", "atom_type": "Cs"}}

>  <type>  (17) 
unop_13

>  <geom_source>  (17) 
Heuristics

$$$$

     RDKit          3D

 19 17  0  0  0  0  0  0  0  0999 V2000
    0.3661   -0.4647   -3.6639 C   0  0  0  0  0  0  0  0  0  0  0  0
    0.3661   -0.4647   -2.1716 C   0  0  0  0  0  0  0  0  0  0  0  0
    0.3661    0.6079   -1.5039 N   0  0  0  0  0  0  0  0  0  0  0  0
    1.2443   -0.9947   -4.0413 H   0  0  0  0  0  0  0  0  0  0  0  0
   -0.5122   -0.9947   -4.0413 H   0  0  0  0  0  0  0  0  0  0  0  0
    0.3661    0.5559   -4.0425 H   0  0  0  0  0  0  0  0  0  0  0  0
    0.3661   -1.4544   -1.6969 H   0  0  0  0  0  0  0  0  0  0  0  0
    0.3661    0.3778   -0.3043 H   0  0  0  0  0  0  0  0  0  0  0  0
    0.3661   -1.3719    1.2325 C   0  0  0  0  0  0  0  0  0  0  0  0
    0.3661    0.1303    0.9853 C   0  0  0  0  0  3  0  0  0  0  0  0
   -0.8285    0.8410    1.6043 C   0  0  0  0  0  0  0  0  0  0  0  0
   -0.8929    0.7046    3.0112 O   0  0  0  0  0  0  0  0  0  0  0  0
    1.2504   -1.8437    0.8018 H   0  0  0  0  0  0  0  0  0  0  0  0
    0.3487   -1.5895    2.3009 H   0  0  0  0  0  0  0  0  0  0  0  0
   -0.5150   -1.8382    0.7855 H   0  0  0  0  0  0  0  0  0  0  0  0
    1.2868    0.5748    1.3806 H   0  0  0  0  0  0  0  0  0  0  0  0
   -0.8213    1.9005    1.3187 H   0  0  0  0  0  0  0  0  0  0  0  0
   -1.7569    0.4072    1.2264 H   0  0  0  0  0  0  0  0  0  0  0  0
   -0.1081    1.1040    3.3900 H   0  0  0  0  0  0  0  0  0  0  0  0
  1  2  1  0
  1  4  1  0
  1  5  1  0
  1  6  1  0
  2  3  2  3
  2  7  1  0
  3  8  1  0
  9 10  1  0
  9 13  1  0
  9 14  1  0
  9 15  1  0
 10 11  1  0
 10 16  1  0
 11 12  1  0
 11 17  1  0
 11 18  1  0
 12 19  1  0
M  RAD  1  10   2
M  END
>  <reaction>  (18) 
rmg_rxn_16504

>  <mol_properties>  (18) 
{"1": {"label": "*0", "atom_type": "Cd"}, "2": {"label": "*1", "atom_type": "N3d"}, "7": {"label": "*2", "atom_type": "H0"}, "9": {"label": "*3", "atom_type": "Cs"}, "10": {"label": "*4", "atom_type": "Cs"}}

>  <type>  (18) 
unop_14

>  <geom_source>  (18) 
Heuristics

$$$$

     RDKit          3D

 19 17  0  0  0  0  0  0  0  0999 V2000
    0.2271   -0.3651   -3.7320 C   0  0  0  0  0  0  0  0  0  0  0  0
    0.2271   -0.3651   -2.2397 C   0  0  0  0  0  0  0  0  0  0  0  0
    0.2271    0.7076   -1.5720 N   0  0  0  0  0  0  0  0  0  0  0  0
    1.1054   -0.8951   -4.1094 H   0  0  0  0  0  0  0  0  0  0  0  0
   -0.6512   -0.8951   -4.1094 H   0  0  0  0  0  0  0  0  0  0  0  0
    0.2271    0.6555   -4.1106 H   0  0  0  0  0  0  0  0  0  0  0  0
    0.2271   -1.3548   -1.7651 H   0  0  0  0  0  0  0  0  0  0  0  0
    0.2271    0.4774   -0.3724 H   0  0  0  0  0  0  0  0  0  0  0  0
    0.9415   -1.0843    1.2005 C   0  0  0  0  0  0  0  0  0  0  0  0
    0.2271    0.2300    0.9171 C   0  0  0  0  0  3  0  0  0  0  0  0
   -1.0263    0.4257    1.7574 C   0  0  0  0  0  0  0  0  0  0  0  0
   -0.7695    0.4446    3.1487 O   0  0  0  0  0  0  0  0  0  0  0  0
    1.8500   -1.1773    0.6038 H   0  0  0  0  0  0  0  0  0  0  0  0
    1.2149   -1.1583    2.2534 H   0  0  0  0  0  0  0  0  0  0  0  0
    0.2967   -1.9343    0.9655 H   0  0  0  0  0  0  0  0  0  0  0  0
    0.9072    1.0714    1.0937 H   0  0  0  0  0  0  0  0  0  0  0  0
   -1.5437    1.3424    1.4474 H   0  0  0  0  0  0  0  0  0  0  0  0
   -1.7147   -0.4074    1.5991 H   0  0  0  0  0  0  0  0  0  0  0  0
   -0.1915    1.1852    3.3395 H   0  0  0  0  0  0  0  0  0  0  0  0
  1  2  1  0
  1  4  1  0
  1  5  1  0
  1  6  1  0
  2  3  2  3
  2  7  1  0
  3  8  1  0
  9 10  1  0
  9 13  1  0
  9 14  1  0
  9 15  1  0
 10 11  1  0
 10 16  1  0
 11 12  1  0
 11 17  1  0
 11 18  1  0
 12 19  1  0
M  RAD  1  10   2
M  END
>  <reaction>  (19) 
rmg_rxn_16504

>  <mol_properties>  (19) 
{"1": {"label": "*0", "atom_type": "Cd"}, "2": {"label": "*1", "atom_type": "N3d"}, "7": {"label": "*2", "atom_type": "H0"}, "9": {"label": "*3", "atom_type": "Cs"}, "10": {"label": "*4", "atom_type": "Cs"}}

>  <type>  (19) 
unop_15

>  <geom_source>  (19) 
gaussian_log

$$$$
