
     RDKit          3D

 21 21  0  0  0  0  0  0  0  0999 V2000
   -3.3063    0.8372   -0.4191 C   0  0  0  0  0  0  0  0  0  0  0  0
   -2.1868   -0.0031    0.1062 C   0  0  0  0  0  0  0  0  0  0  0  0
   -1.2468   -0.5708   -0.6355 C   0  0  0  0  0  0  0  0  0  0  0  0
   -0.1288   -1.4267   -0.0992 C   0  0  1  0  0  0  0  0  0  0  0  0
   -0.2669   -2.8181   -0.6749 C   0  0  0  0  0  0  0  0  0  0  0  0
    0.3720   -3.1660   -1.7912 C   0  0  0  0  0  0  0  0  0  0  0  0
    1.2734   -2.2287   -2.4612 C   0  0  0  0  0  0  0  0  0  0  0  0
    1.6831   -1.1252   -1.8379 C   0  0  0  0  0  0  0  0  0  0  0  0
    1.2566   -0.8455   -0.4251 C   0  0  0  0  0  0  0  0  0  0  0  0
   -3.2551    0.9336   -1.5043 H   0  0  0  0  0  0  0  0  0  0  0  0
   -4.2759    0.4036   -0.1600 H   0  0  0  0  0  0  0  0  0  0  0  0
   -3.2812    1.8399    0.0155 H   0  0  0  0  0  0  0  0  0  0  0  0
   -2.1595   -0.1491    1.1845 H   0  0  0  0  0  0  0  0  0  0  0  0
   -1.2614   -0.4401   -1.7158 H   0  0  0  0  0  0  0  0  0  0  0  0
   -0.2339   -1.4738    0.9871 H   0  0  0  0  0  0  0  0  0  0  0  0
   -0.9690   -3.4944   -0.2017 H   0  0  0  0  0  0  0  0  0  0  0  0
    0.2170   -4.1439   -2.2308 H   0  0  0  0  0  0  0  0  0  0  0  0
    1.6128   -2.4570   -3.4641 H   0  0  0  0  0  0  0  0  0  0  0  0
    2.3713   -0.4410   -2.3198 H   0  0  0  0  0  0  0  0  0  0  0  0
    1.2580    0.2272   -0.2225 H   0  0  0  0  0  0  0  0  0  0  0  0
    1.9994   -1.2911    0.2497 H   0  0  0  0  0  0  0  0  0  0  0  0
  1  2  1  0
  1 10  1  0
  1 11  1  0
  1 12  1  0
  2  3  2  3
  2 13  1  0
  3  4  1  0
  3 14  1  0
  4  5  1  0
  4  9  1  0
  4 15  1  1
  5  6  2  0
  5 16  1  0
  6  7  1  0
  6 17  1  0
  7  8  2  0
  7 18  1  0
  8  9  1  0
  8 19  1  0
  9 20  1  0
  9 21  1  0
M  END
>  <reaction>  (1) 
rmg_rxn_15723

>  <mol_properties>  (1) 
{"8": {"label": "donator", "atom_type": "Cs"}, "19": {"label": "d_hydrogen", "atom_type": "H0"}}

>  <type>  (1) 
r1h

$$$$

     RDKit          3D

  8  7  0  0  0  0  0  0  0  0999 V2000
    1.7077   -0.1964   -0.0607 C   0  0  0  0  0  3  0  0  0  0  0  0
    0.4209   -0.4565    0.2808 O   0  0  0  0  0  0  0  0  0  0  0  0
   -0.4607    0.4385   -0.2968 N   0  0  0  0  0  0  0  0  0  0  0  0
   -1.6584    0.1416   -0.0244 C   0  0  0  0  0  0  0  0  0  0  0  0
    2.4163   -0.7685    0.5170 H   0  0  0  0  0  0  0  0  0  0  0  0
    1.9214    0.7645   -0.5045 H   0  0  0  0  0  0  0  0  0  0  0  0
   -2.4185    0.7953   -0.4307 H   0  0  0  0  0  0  0  0  0  0  0  0
   -1.9286   -0.7185    0.5831 H   0  0  0  0  0  0  0  0  0  0  0  0
  1  2  1  0
  1  5  1  0
  1  6  1  0
  2  3  1  0
  3  4  2  3
  4  7  1  0
  4  8  1  0
M  RAD  1   1   2
M  END
>  <reaction>  (2) 
rmg_rxn_15723

>  <mol_properties>  (2) 
{"0": {"label": "acceptor", "atom_type": "Cs"}}

>  <type>  (2) 
r2

$$$$

     RDKit          3D

  9  8  0  0  0  0  0  0  0  0999 V2000
   -1.5470   -0.0755   -0.1976 C   0  0  0  0  0  0  0  0  0  0  0  0
   -0.2885    0.4507    0.1749 O   0  0  0  0  0  0  0  0  0  0  0  0
   -0.1502    1.7216   -0.3294 N   0  0  0  0  0  0  0  0  0  0  0  0
    0.9626    2.2353   -0.0219 C   0  0  0  0  0  0  0  0  0  0  0  0
   -1.6392   -0.1356   -1.2844 H   0  0  0  0  0  0  0  0  0  0  0  0
   -2.3597    0.5337    0.2044 H   0  0  0  0  0  0  0  0  0  0  0  0
   -1.5879   -1.0750    0.2318 H   0  0  0  0  0  0  0  0  0  0  0  0
    1.1497    3.2381   -0.3820 H   0  0  0  0  0  0  0  0  0  0  0  0
    1.7060    1.7101    0.5739 H   0  0  0  0  0  0  0  0  0  0  0  0
  1  2  1  0
  1  5  1  0
  1  6  1  0
  1  7  1  0
  2  3  1  0
  3  4  2  3
  4  8  1  0
  4  9  1  0
M  END
>  <reaction>  (3) 
rmg_rxn_15723

>  <mol_properties>  (3) 
{"0": {"label": "acceptor", "atom_type": "Cs"}, "8": {"label": "a_hydrogen", "atom_type": "H0"}}

>  <type>  (3) 
r2h

$$$$

     RDKit          3D

 29 28  0  0  0  0  0  0  0  0999 V2000
   -2.0386   -0.8561    0.5161 C   0  0  0  0  0  3  0  0  0  0  0  0
   -2.3933    0.4601    0.3108 O   0  0  0  0  0  0  0  0  0  0  0  0
   -2.0635    0.8724   -0.9617 N   0  0  0  0  0  0  0  0  0  0  0  0
   -2.2057    2.1203   -1.0982 C   0  0  0  0  0  0  0  0  0  0  0  0
   -2.5361   -1.2212    1.4098 H   0  0  0  0  0  0  0  0  0  0  0  0
   -2.1264   -1.4807   -0.3702 H   0  0  0  0  0  0  0  0  0  0  0  0
   -1.9830    2.5264   -2.0757 H   0  0  0  0  0  0  0  0  0  0  0  0
   -2.5304    2.7656   -0.2860 H   0  0  0  0  0  0  0  0  0  0  0  0
    1.4727   -2.2666   -3.2354 C   0  0  0  0  0  0  0  0  0  0  0  0
    1.8336   -1.6367   -1.9282 C   0  0  0  0  0  0  0  0  0  0  0  0
    1.0292   -0.8697   -1.2070 C   0  0  0  0  0  0  0  0  0  0  0  0
    1.3954   -0.2445    0.1098 C   0  0  1  0  0  0  0  0  0  0  0  0
    1.2550    1.2590    0.0852 C   0  0  0  0  0  0  0  0  0  0  0  0
    0.9849    1.9535    1.1920 C   0  0  0  0  0  0  0  0  0  0  0  0
    0.7593    1.2818    2.4622 C   0  0  0  0  0  0  0  0  0  0  0  0
    0.6026   -0.0524    2.4980 C   0  0  0  0  0  0  0  0  0  0  0  0
    0.5996   -0.8401    1.2674 C   0  0  0  0  0  0  0  0  0  0  0  0
    0.4532   -2.0135   -3.5292 H   0  0  0  0  0  0  0  0  0  0  0  0
    2.1492   -1.9383   -4.0290 H   0  0  0  0  0  0  0  0  0  0  0  0
    1.5533   -3.3555   -3.1815 H   0  0  0  0  0  0  0  0  0  0  0  0
    2.8380   -1.8350   -1.5582 H   0  0  0  0  0  0  0  0  0  0  0  0
    0.0251   -0.6554   -1.5667 H   0  0  0  0  0  0  0  0  0  0  0  0
    2.4614   -0.4615    0.2903 H   0  0  0  0  0  0  0  0  0  0  0  0
    1.4438    1.7638   -0.8552 H   0  0  0  0  0  0  0  0  0  0  0  0
    0.9409    3.0358    1.1590 H   0  0  0  0  0  0  0  0  0  0  0  0
    0.6969    1.8713    3.3680 H   0  0  0  0  0  0  0  0  0  0  0  0
    0.3848   -0.5509    3.4356 H   0  0  0  0  0  0  0  0  0  0  0  0
   -0.6316   -0.8796    0.8949 H   0  0  0  0  0  0  0  0  0  0  0  0
    0.8121   -1.8991    1.4085 H   0  0  0  0  0  0  0  0  0  0  0  0
  1  2  1  0
  1  5  1  0
  1  6  1  0
  2  3  1  0
  3  4  2  3
  4  7  1  0
  4  8  1  0
  9 10  1  0
  9 18  1  0
  9 19  1  0
  9 20  1  0
 10 11  2  3
 10 21  1  0
 11 12  1  0
 11 22  1  0
 12 13  1  0
 12 17  1  0
 12 23  1  1
 13 14  2  0
 13 24  1  0
 14 15  1  0
 14 25  1  0
 15 16  2  0
 15 26  1  0
 16 17  1  0
 16 27  1  0
 17 28  1  0
 17 29  1  0
M  RAD  1   1   2
M  END
>  <reaction>  (4) 
rmg_rxn_15723

>  <mol_properties>  (4) 
{"0": {"label": "*3", "atom_type": "Cs"}, "1": {"label": "*4", "atom_type": "O2s"}, "11": {"label": "*0", "atom_type": "Cs"}, "16": {"label": "*1", "atom_type": "Cs"}, "27": {"label": "*2", "atom_type": "H0"}}

>  <type>  (4) 
ts

$$$$

     RDKit          3D

 29 28  0  0  0  0  0  0  0  0999 V2000
    0.4121    1.5974    1.3472 C   0  0  0  0  0  0  0  0  0  0  0  0
    0.4167    2.2126    0.0881 O   0  0  0  0  0  0  0  0  0  0  0  0
    1.4745    2.1116   -0.7407 N   0  0  0  0  0  0  0  0  0  0  0  0
    2.4961    1.4255   -0.4691 C   0  0  0  0  0  0  0  0  0  0  0  0
    1.3252    1.7807    1.9171 H   0  0  0  0  0  0  0  0  0  0  0  0
   -0.4615    1.9875    1.8611 H   0  0  0  0  0  0  0  0  0  0  0  0
    3.2750    1.4382   -1.2111 H   0  0  0  0  0  0  0  0  0  0  0  0
    2.6619    0.8296    0.4243 H   0  0  0  0  0  0  0  0  0  0  0  0
   -4.1899    0.5873   -0.2110 C   0  0  0  0  0  0  0  0  0  0  0  0
   -3.1039   -0.4261   -0.0724 C   0  0  0  0  0  0  0  0  0  0  0  0
   -1.8182   -0.1708   -0.2442 C   0  0  0  0  0  0  0  0  0  0  0  0
   -0.7237   -1.1929   -0.0934 C   0  0  0  0  0  0  0  0  0  0  0  0
    0.2102   -1.1848   -1.2678 C   0  0  0  0  0  3  0  0  0  0  0  0
    1.5113   -1.5036   -1.1386 C   0  0  0  0  0  0  0  0  0  0  0  0
    2.0747   -1.8039    0.1335 C   0  0  0  0  0  0  0  0  0  0  0  0
    1.3350   -1.5937    1.2712 C   0  0  0  0  0  0  0  0  0  0  0  0
    0.0464   -1.0263    1.2042 C   0  0  0  0  0  0  0  0  0  0  0  0
   -3.7809    1.5609   -0.4682 H   0  0  0  0  0  0  0  0  0  0  0  0
   -4.8923    0.2832   -0.9868 H   0  0  0  0  0  0  0  0  0  0  0  0
   -4.7476    0.6729    0.7216 H   0  0  0  0  0  0  0  0  0  0  0  0
   -3.4310   -1.4262    0.1883 H   0  0  0  0  0  0  0  0  0  0  0  0
   -1.4927    0.8246   -0.5108 H   0  0  0  0  0  0  0  0  0  0  0  0
   -1.2105   -2.1872   -0.0574 H   0  0  0  0  0  0  0  0  0  0  0  0
   -0.2220   -0.9632   -2.2312 H   0  0  0  0  0  0  0  0  0  0  0  0
    2.1523   -1.5390   -2.0076 H   0  0  0  0  0  0  0  0  0  0  0  0
    3.0863   -2.1731    0.1927 H   0  0  0  0  0  0  0  0  0  0  0  0
    1.7863   -1.7407    2.2434 H   0  0  0  0  0  0  0  0  0  0  0  0
    0.2688    0.3379    1.2481 H   0  0  0  0  0  0  0  0  0  0  0  0
   -0.5717   -1.0886    2.0952 H   0  0  0  0  0  0  0  0  0  0  0  0
  1  2  1  0
  1  5  1  0
  1  6  1  0
  1 28  1  0
  2  3  1  0
  3  4  2  3
  4  7  1  0
  4  8  1  0
  9 10  1  0
  9 18  1  0
  9 19  1  0
  9 20  1  0
 10 11  2  3
 10 21  1  0
 11 12  1  0
 11 22  1  0
 12 13  1  0
 12 17  1  0
 12 23  1  0
 13 14  1  0
 13 24  1  0
 14 15  2  0
 14 25  1  0
 15 16  1  0
 15 26  1  0
 16 17  2  0
 16 27  1  0
 17 29  1  0
M  RAD  1  13   2
M  END
>  <reaction>  (5) 
rmg_rxn_15723

>  <mol_properties>  (5) 
{"0": {"label": "*3", "atom_type": "Cs"}, "1": {"label": "*4", "atom_type": "O2s"}, "11": {"label": "*0", "atom_type": "Cs"}, "16": {"label": "*1", "atom_type": "Cs"}, "27": {"label": "*2", "atom_type": "H0"}}

>  <type>  (5) 
unop_1

>  <geom_source>  (5) 
crest_best.xyz

$$$$

     RDKit          3D

 29 28  0  0  0  0  0  0  0  0999 V2000
   -1.8120   -0.3580   -0.3564 C   0  0  0  0  0  0  0  0  0  0  0  0
   -2.6397   -0.9567    0.6213 O   0  0  0  0  0  0  0  0  0  0  0  0
   -3.9546   -0.6485    0.3668 N   0  0  0  0  0  0  0  0  0  0  0  0
   -4.7353   -1.1629    1.2168 C   0  0  0  0  0  0  0  0  0  0  0  0
   -2.0550   -0.7293   -1.3546 H   0  0  0  0  0  0  0  0  0  0  0  0
   -1.9096    0.7298   -0.3380 H   0  0  0  0  0  0  0  0  0  0  0  0
   -5.7912   -0.9669    1.0864 H   0  0  0  0  0  0  0  0  0  0  0  0
   -4.3807   -1.7744    2.0438 H   0  0  0  0  0  0  0  0  0  0  0  0
    1.5557   -1.3522   -3.4450 C   0  0  0  0  0  0  0  0  0  0  0  0
    1.5557   -1.3522   -1.9499 C   0  0  0  0  0  0  0  0  0  0  0  0
    1.5557   -0.2682   -1.1875 C   0  0  0  0  0  0  0  0  0  0  0  0
    1.5683   -0.2769    0.3190 C   0  0  0  0  0  0  0  0  0  0  0  0
    2.8386    0.3910    0.7953 C   0  0  0  0  0  3  0  0  0  0  0  0
    2.8658    1.6930    1.0770 C   0  0  0  0  0  0  0  0  0  0  0  0
    1.6511    2.5036    0.9898 C   0  0  0  0  0  0  0  0  0  0  0  0
    0.4572    1.9208    0.8954 C   0  0  0  0  0  0  0  0  0  0  0  0
    0.3367    0.4237    0.9153 C   0  0  0  0  0  0  0  0  0  0  0  0
    1.5510   -0.3364   -3.8422 H   0  0  0  0  0  0  0  0  0  0  0  0
    2.4366   -1.8680   -3.8363 H   0  0  0  0  0  0  0  0  0  0  0  0
    0.6807   -1.8774   -3.8370 H   0  0  0  0  0  0  0  0  0  0  0  0
    1.5569   -2.3284   -1.4685 H   0  0  0  0  0  0  0  0  0  0  0  0
    1.5601    0.7162   -1.6515 H   0  0  0  0  0  0  0  0  0  0  0  0
    1.5632   -1.3185    0.6485 H   0  0  0  0  0  0  0  0  0  0  0  0
    3.7453   -0.2019    0.8159 H   0  0  0  0  0  0  0  0  0  0  0  0
    3.7948    2.1754    1.3560 H   0  0  0  0  0  0  0  0  0  0  0  0
    1.7402    3.5827    1.0199 H   0  0  0  0  0  0  0  0  0  0  0  0
   -0.4473    2.5160    0.8569 H   0  0  0  0  0  0  0  0  0  0  0  0
   -0.7391    0.0323    0.2785 H   0  0  0  0  0  0  0  0  0  0  0  0
    0.2143    0.1055    1.9590 H   0  0  0  0  0  0  0  0  0  0  0  0
  1  2  1  0
  1  5  1  0
  1  6  1  0
  1 28  1  0
  2  3  1  0
  3  4  2  3
  4  7  1  0
  4  8  1  0
  9 10  1  0
  9 18  1  0
  9 19  1  0
  9 20  1  0
 10 11  2  3
 10 21  1  0
 11 12  1  0
 11 22  1  0
 12 13  1  0
 12 17  1  0
 12 23  1  0
 13 14  1  0
 13 24  1  0
 14 15  2  0
 14 25  1  0
 15 16  1  0
 15 26  1  0
 16 17  2  0
 16 27  1  0
 17 29  1  0
M  RAD  1  13   2
M  END
>  <reaction>  (6) 
rmg_rxn_15723

>  <mol_properties>  (6) 
{"0": {"label": "*3", "atom_type": "Cs"}, "1": {"label": "*4", "atom_type": "O2s"}, "11": {"label": "*0", "atom_type": "Cs"}, "16": {"label": "*1", "atom_type": "Cs"}, "27": {"label": "*2", "atom_type": "H0"}}

>  <type>  (6) 
unop_2

>  <geom_source>  (6) 
Heuristics

$$$$

     RDKit          3D

 29 28  0  0  0  0  0  0  0  0999 V2000
    0.6551   -2.7033   -0.8513 C   0  0  0  0  0  0  0  0  0  0  0  0
   -0.6111   -2.5067   -0.2784 O   0  0  0  0  0  0  0  0  0  0  0  0
   -0.5186   -1.7583    0.8817 N   0  0  0  0  0  0  0  0  0  0  0  0
   -1.6073   -1.4745    1.4445 C   0  0  0  0  0  0  0  0  0  0  0  0
    1.4105   -3.0071   -0.1540 H   0  0  0  0  0  0  0  0  0  0  0  0
    0.5340   -3.3900   -1.6787 H   0  0  0  0  0  0  0  0  0  0  0  0
   -1.5449   -0.8967    2.3495 H   0  0  0  0  0  0  0  0  0  0  0  0
   -2.5824   -1.7843    1.0822 H   0  0  0  0  0  0  0  0  0  0  0  0
    3.8150    0.0315    0.5285 C   0  0  0  0  0  0  0  0  0  0  0  0
    2.7607    0.9197   -0.0461 C   0  0  0  0  0  0  0  0  0  0  0  0
    1.4666    0.7788    0.1817 C   0  0  0  0  0  0  0  0  0  0  0  0
    0.3821    1.6539   -0.4248 C   0  0  0  0  0  0  0  0  0  0  0  0
   -0.3624    0.8500   -1.4418 C   0  0  0  0  0  3  0  0  0  0  0  0
   -1.6676    0.5155   -1.2943 C   0  0  0  0  0  0  0  0  0  0  0  0
   -2.4133    0.9549   -0.1897 C   0  0  0  0  0  0  0  0  0  0  0  0
   -1.8117    1.7966    0.7596 C   0  0  0  0  0  0  0  0  0  0  0  0
   -0.5105    2.1625    0.6583 C   0  0  0  0  0  0  0  0  0  0  0  0
    4.3777   -0.4519   -0.2705 H   0  0  0  0  0  0  0  0  0  0  0  0
    4.5196    0.6158    1.1198 H   0  0  0  0  0  0  0  0  0  0  0  0
    3.3733   -0.7334    1.1622 H   0  0  0  0  0  0  0  0  0  0  0  0
    3.1220    1.7171   -0.6849 H   0  0  0  0  0  0  0  0  0  0  0  0
    1.0915   -0.0162    0.8121 H   0  0  0  0  0  0  0  0  0  0  0  0
    0.8891    2.4977   -0.9208 H   0  0  0  0  0  0  0  0  0  0  0  0
    0.2053    0.5130   -2.2968 H   0  0  0  0  0  0  0  0  0  0  0  0
   -2.1518   -0.0966   -2.0425 H   0  0  0  0  0  0  0  0  0  0  0  0
   -3.4511    0.6801   -0.0906 H   0  0  0  0  0  0  0  0  0  0  0  0
   -2.4106    2.1683    1.5803 H   0  0  0  0  0  0  0  0  0  0  0  0
    1.1586   -1.7730   -1.1399 H   0  0  0  0  0  0  0  0  0  0  0  0
   -0.0553    2.8123    1.3910 H   0  0  0  0  0  0  0  0  0  0  0  0
  1  2  1  0
  1  5  1  0
  1  6  1  0
  1 28  1  0
  2  3  1  0
  3  4  2  3
  4  7  1  0
  4  8  1  0
  9 10  1  0
  9 18  1  0
  9 19  1  0
  9 20  1  0
 10 11  2  3
 10 21  1  0
 11 12  1  0
 11 22  1  0
 12 13  1  0
 12 17  1  0
 12 23  1  0
 13 14  1  0
 13 24  1  0
 14 15  2  0
 14 25  1  0
 15 16  1  0
 15 26  1  0
 16 17  2  0
 16 27  1  0
 17 29  1  0
M  RAD  1  13   2
M  END
>  <reaction>  (7) 
rmg_rxn_15723

>  <mol_properties>  (7) 
{"0": {"label": "*3", "atom_type": "Cs"}, "1": {"label": "*4", "atom_type": "O2s"}, "11": {"label": "*0", "atom_type": "Cs"}, "16": {"label": "*1", "atom_type": "Cs"}, "27": {"label": "*2", "atom_type": "H0"}}

>  <type>  (7) 
unop_3

>  <geom_source>  (7) 
Heuristics

$$$$

     RDKit          3D

 29 28  0  0  0  0  0  0  0  0999 V2000
    0.5941   -2.7197   -0.8625 C   0  0  0  0  0  0  0  0  0  0  0  0
   -0.6594   -2.4985   -0.2705 O   0  0  0  0  0  0  0  0  0  0  0  0
   -0.5353   -1.7464    0.8843 N   0  0  0  0  0  0  0  0  0  0  0  0
   -1.6096   -1.4437    1.4647 C   0  0  0  0  0  0  0  0  0  0  0  0
    0.4368   -3.3607   -1.7201 H   0  0  0  0  0  0  0  0  0  0  0  0
    1.1320   -1.8211   -1.0954 H   0  0  0  0  0  0  0  0  0  0  0  0
   -1.5227   -0.8623    2.3655 H   0  0  0  0  0  0  0  0  0  0  0  0
   -2.5953   -1.7414    1.1216 H   0  0  0  0  0  0  0  0  0  0  0  0
    3.8183   -0.0132    0.5310 C   0  0  0  0  0  0  0  0  0  0  0  0
    2.7756    0.8839   -0.0511 C   0  0  0  0  0  0  0  0  0  0  0  0
    1.4796    0.7590    0.1747 C   0  0  0  0  0  0  0  0  0  0  0  0
    0.4061    1.6434   -0.4377 C   0  0  0  0  0  0  0  0  0  0  0  0
   -0.3552    0.8396   -1.4422 C   0  0  0  0  0  3  0  0  0  0  0  0
   -1.6646    0.5266   -1.2850 C   0  0  0  0  0  0  0  0  0  0  0  0
   -2.3983    0.9892   -0.1818 C   0  0  0  0  0  0  0  0  0  0  0  0
   -1.7797    1.8323    0.7552 C   0  0  0  0  0  0  0  0  0  0  0  0
   -0.4738    2.1778    0.6435 C   0  0  0  0  0  0  0  0  0  0  0  0
    4.3784   -0.5061   -0.2639 H   0  0  0  0  0  0  0  0  0  0  0  0
    4.5272    0.5661    1.1221 H   0  0  0  0  0  0  0  0  0  0  0  0
    3.3661   -0.7703    1.1665 H   0  0  0  0  0  0  0  0  0  0  0  0
    3.1475    1.6735   -0.6935 H   0  0  0  0  0  0  0  0  0  0  0  0
    1.0946   -0.0281    0.8089 H   0  0  0  0  0  0  0  0  0  0  0  0
    0.9238    2.4737   -0.9452 H   0  0  0  0  0  0  0  0  0  0  0  0
    0.2034    0.4841   -2.2957 H   0  0  0  0  0  0  0  0  0  0  0  0
   -2.1617   -0.0864   -2.0240 H   0  0  0  0  0  0  0  0  0  0  0  0
   -3.4395    0.7305   -0.0745 H   0  0  0  0  0  0  0  0  0  0  0  0
   -2.3691    2.2222    1.5744 H   0  0  0  0  0  0  0  0  0  0  0  0
    1.3460   -3.1183   -0.1707 H   0  0  0  0  0  0  0  0  0  0  0  0
   -0.0055    2.8293    1.3665 H   0  0  0  0  0  0  0  0  0  0  0  0
  1  2  1  0
  1  5  1  0
  1  6  1  0
  1 28  1  0
  2  3  1  0
  3  4  2  3
  4  7  1  0
  4  8  1  0
  9 10  1  0
  9 18  1  0
  9 19  1  0
  9 20  1  0
 10 11  2  3
 10 21  1  0
 11 12  1  0
 11 22  1  0
 12 13  1  0
 12 17  1  0
 12 23  1  0
 13 14  1  0
 13 24  1  0
 14 15  2  0
 14 25  1  0
 15 16  1  0
 15 26  1  0
 16 17  2  0
 16 27  1  0
 17 29  1  0
M  RAD  1  13   2
M  END
>  <reaction>  (8) 
rmg_rxn_15723

>  <mol_properties>  (8) 
{"0": {"label": "*3", "atom_type": "Cs"}, "1": {"label": "*4", "atom_type": "O2s"}, "11": {"label": "*0", "atom_type": "Cs"}, "16": {"label": "*1", "atom_type": "Cs"}, "27": {"label": "*2", "atom_type": "H0"}}

>  <type>  (8) 
unop_4

>  <geom_source>  (8) 
Heuristics

$$$$

     RDKit          3D

 29 28  0  0  0  0  0  0  0  0999 V2000
    0.4180   -1.1720   -1.7912 C   0  0  0  0  0  0  0  0  0  0  0  0
    1.2638   -1.8088   -0.8768 O   0  0  0  0  0  0  0  0  0  0  0  0
    0.6149   -2.0987    0.3050 N   0  0  0  0  0  0  0  0  0  0  0  0
    1.3237   -2.5986    1.2195 C   0  0  0  0  0  0  0  0  0  0  0  0
    0.9391   -1.1702   -2.7442 H   0  0  0  0  0  0  0  0  0  0  0  0
   -0.5612   -1.6442   -1.8560 H   0  0  0  0  0  0  0  0  0  0  0  0
    0.8217   -2.8374    2.1403 H   0  0  0  0  0  0  0  0  0  0  0  0
    2.3868   -2.7995    1.1295 H   0  0  0  0  0  0  0  0  0  0  0  0
   -4.0964   -0.4386    0.0572 C   0  0  0  0  0  0  0  0  0  0  0  0
   -2.9847    0.5560    0.1085 C   0  0  0  0  0  0  0  0  0  0  0  0
   -1.7103    0.2435    0.2682 C   0  0  0  0  0  0  0  0  0  0  0  0
   -0.5858    1.2440    0.3035 C   0  0  0  0  0  0  0  0  0  0  0  0
    0.3830    0.9320    1.4058 C   0  0  0  0  0  3  0  0  0  0  0  0
    1.6975    1.1923    1.2930 C   0  0  0  0  0  0  0  0  0  0  0  0
    2.2448    1.7218    0.0918 C   0  0  0  0  0  0  0  0  0  0  0  0
    1.4559    1.8286   -1.0256 C   0  0  0  0  0  0  0  0  0  0  0  0
    0.1294    1.3519   -1.0316 C   0  0  0  0  0  0  0  0  0  0  0  0
   -4.8194   -0.2386    0.8479 H   0  0  0  0  0  0  0  0  0  0  0  0
   -4.6230   -0.3678   -0.8946 H   0  0  0  0  0  0  0  0  0  0  0  0
   -3.7172   -1.4504    0.1755 H   0  0  0  0  0  0  0  0  0  0  0  0
   -3.2840    1.5924    0.0016 H   0  0  0  0  0  0  0  0  0  0  0  0
   -1.4041   -0.7871    0.3834 H   0  0  0  0  0  0  0  0  0  0  0  0
   -1.0352    2.2340    0.5135 H   0  0  0  0  0  0  0  0  0  0  0  0
   -0.0365    0.5378    2.3189 H   0  0  0  0  0  0  0  0  0  0  0  0
    2.3644    0.9975    2.1211 H   0  0  0  0  0  0  0  0  0  0  0  0
    3.2809    2.0192    0.0660 H   0  0  0  0  0  0  0  0  0  0  0  0
    1.8880    2.1620   -1.9592 H   0  0  0  0  0  0  0  0  0  0  0  0
    0.2591    0.0350   -1.4314 H   0  0  0  0  0  0  0  0  0  0  0  0
   -0.5119    1.6692   -1.8492 H   0  0  0  0  0  0  0  0  0  0  0  0
  1  2  1  0
  1  5  1  0
  1  6  1  0
  1 28  1  0
  2  3  1  0
  3  4  2  3
  4  7  1  0
  4  8  1  0
  9 10  1  0
  9 18  1  0
  9 19  1  0
  9 20  1  0
 10 11  2  3
 10 21  1  0
 11 12  1  0
 11 22  1  0
 12 13  1  0
 12 17  1  0
 12 23  1  0
 13 14  1  0
 13 24  1  0
 14 15  2  0
 14 25  1  0
 15 16  1  0
 15 26  1  0
 16 17  2  0
 16 27  1  0
 17 29  1  0
M  RAD  1  13   2
M  END
>  <reaction>  (9) 
rmg_rxn_15723

>  <mol_properties>  (9) 
{"0": {"label": "*3", "atom_type": "Cs"}, "1": {"label": "*4", "atom_type": "O2s"}, "11": {"label": "*0", "atom_type": "Cs"}, "16": {"label": "*1", "atom_type": "Cs"}, "27": {"label": "*2", "atom_type": "H0"}}

>  <type>  (9) 
unop_5

>  <geom_source>  (9) 
Heuristics

$$$$

     RDKit          3D

 29 28  0  0  0  0  0  0  0  0999 V2000
   -2.1806    0.0259    0.0967 C   0  0  0  0  0  0  0  0  0  0  0  0
   -1.9123   -1.2939   -0.3341 O   0  0  0  0  0  0  0  0  0  0  0  0
   -3.0917   -1.9307   -0.6379 N   0  0  0  0  0  0  0  0  0  0  0  0
   -2.9028   -3.1173   -1.0291 C   0  0  0  0  0  0  0  0  0  0  0  0
   -2.6774    0.5999   -0.6888 H   0  0  0  0  0  0  0  0  0  0  0  0
   -2.8009    0.0249    0.9958 H   0  0  0  0  0  0  0  0  0  0  0  0
   -3.7841   -3.6884   -1.2886 H   0  0  0  0  0  0  0  0  0  0  0  0
   -1.9112   -3.5580   -1.1068 H   0  0  0  0  0  0  0  0  0  0  0  0
    1.1871   -0.9683   -2.9919 C   0  0  0  0  0  0  0  0  0  0  0  0
    1.1871   -0.9683   -1.4968 C   0  0  0  0  0  0  0  0  0  0  0  0
    1.1871    0.1157   -0.7344 C   0  0  0  0  0  0  0  0  0  0  0  0
    1.1997    0.1070    0.7722 C   0  0  0  0  0  0  0  0  0  0  0  0
    2.4699    0.7749    1.2484 C   0  0  0  0  0  3  0  0  0  0  0  0
    2.4972    2.0769    1.5301 C   0  0  0  0  0  0  0  0  0  0  0  0
    1.2825    2.8875    1.4429 C   0  0  0  0  0  0  0  0  0  0  0  0
    0.0886    2.3047    1.3486 C   0  0  0  0  0  0  0  0  0  0  0  0
   -0.0320    0.8076    1.3684 C   0  0  0  0  0  0  0  0  0  0  0  0
    1.1824    0.0475   -3.3890 H   0  0  0  0  0  0  0  0  0  0  0  0
    2.0679   -1.4841   -3.3832 H   0  0  0  0  0  0  0  0  0  0  0  0
    0.3121   -1.4935   -3.3838 H   0  0  0  0  0  0  0  0  0  0  0  0
    1.1882   -1.9445   -1.0154 H   0  0  0  0  0  0  0  0  0  0  0  0
    1.1914    1.1001   -1.1984 H   0  0  0  0  0  0  0  0  0  0  0  0
    1.1946   -0.9346    1.1017 H   0  0  0  0  0  0  0  0  0  0  0  0
    3.3767    0.1820    1.2691 H   0  0  0  0  0  0  0  0  0  0  0  0
    3.4262    2.5593    1.8092 H   0  0  0  0  0  0  0  0  0  0  0  0
    1.3715    3.9666    1.4730 H   0  0  0  0  0  0  0  0  0  0  0  0
   -0.8160    2.9000    1.3101 H   0  0  0  0  0  0  0  0  0  0  0  0
   -1.1078    0.4163    0.7317 H   0  0  0  0  0  0  0  0  0  0  0  0
   -0.1543    0.4894    2.4122 H   0  0  0  0  0  0  0  0  0  0  0  0
  1  2  1  0
  1  5  1  0
  1  6  1  0
  1 28  1  0
  2  3  1  0
  3  4  2  3
  4  7  1  0
  4  8  1  0
  9 10  1  0
  9 18  1  0
  9 19  1  0
  9 20  1  0
 10 11  2  3
 10 21  1  0
 11 12  1  0
 11 22  1  0
 12 13  1  0
 12 17  1  0
 12 23  1  0
 13 14  1  0
 13 24  1  0
 14 15  2  0
 14 25  1  0
 15 16  1  0
 15 26  1  0
 16 17  2  0
 16 27  1  0
 17 29  1  0
M  RAD  1  13   2
M  END
>  <reaction>  (10) 
rmg_rxn_15723

>  <mol_properties>  (10) 
{"0": {"label": "*3", "atom_type": "Cs"}, "1": {"label": "*4", "atom_type": "O2s"}, "11": {"label": "*0", "atom_type": "Cs"}, "16": {"label": "*1", "atom_type": "Cs"}, "27": {"label": "*2", "atom_type": "H0"}}

>  <type>  (10) 
unop_6

>  <geom_source>  (10) 
Heuristics

$$$$

     RDKit          3D

 29 28  0  0  0  0  0  0  0  0999 V2000
   -0.4080   -1.1751    1.7886 C   0  0  0  0  0  0  0  0  0  0  0  0
   -1.2594   -1.8104    0.8784 O   0  0  0  0  0  0  0  0  0  0  0  0
   -0.6185   -2.0960   -0.3088 N   0  0  0  0  0  0  0  0  0  0  0  0
   -1.3331   -2.5944   -1.2195 C   0  0  0  0  0  0  0  0  0  0  0  0
   -0.9225   -1.1761    2.7452 H   0  0  0  0  0  0  0  0  0  0  0  0
    0.5721   -1.6465    1.8455 H   0  0  0  0  0  0  0  0  0  0  0  0
   -0.8376   -2.8296   -2.1447 H   0  0  0  0  0  0  0  0  0  0  0  0
   -2.3952   -2.7974   -1.1224 H   0  0  0  0  0  0  0  0  0  0  0  0
    4.0944   -0.4418   -0.0609 C   0  0  0  0  0  0  0  0  0  0  0  0
    2.9839    0.5544   -0.1077 C   0  0  0  0  0  0  0  0  0  0  0  0
    1.7097    0.2443   -0.2737 C   0  0  0  0  0  0  0  0  0  0  0  0
    0.5859    1.2460   -0.3044 C   0  0  0  0  0  0  0  0  0  0  0  0
   -0.3846    0.9376   -1.4060 C   0  0  0  0  0  3  0  0  0  0  0  0
   -1.6994    1.1952   -1.2897 C   0  0  0  0  0  0  0  0  0  0  0  0
   -2.2452    1.7194   -0.0856 C   0  0  0  0  0  0  0  0  0  0  0  0
   -1.4541    1.8246    1.0303 C   0  0  0  0  0  0  0  0  0  0  0  0
   -0.1266    1.3506    1.0323 C   0  0  0  0  0  0  0  0  0  0  0  0
    4.6185   -0.3787    0.8929 H   0  0  0  0  0  0  0  0  0  0  0  0
    3.7144   -1.4523   -0.1878 H   0  0  0  0  0  0  0  0  0  0  0  0
    4.8198   -0.2367   -0.8481 H   0  0  0  0  0  0  0  0  0  0  0  0
    3.2839    1.5895    0.0080 H   0  0  0  0  0  0  0  0  0  0  0  0
    1.4028   -0.7851   -0.3973 H   0  0  0  0  0  0  0  0  0  0  0  0
    1.0359    2.2363   -0.5124 H   0  0  0  0  0  0  0  0  0  0  0  0
    0.0337    0.5476   -2.3215 H   0  0  0  0  0  0  0  0  0  0  0  0
   -2.3675    1.0024   -2.1173 H   0  0  0  0  0  0  0  0  0  0  0  0
   -3.2818    2.0146   -0.0566 H   0  0  0  0  0  0  0  0  0  0  0  0
   -1.8847    2.1548    1.9658 H   0  0  0  0  0  0  0  0  0  0  0  0
   -0.2526    0.0328    1.4303 H   0  0  0  0  0  0  0  0  0  0  0  0
    0.5160    1.6676    1.8491 H   0  0  0  0  0  0  0  0  0  0  0  0
  1  2  1  0
  1  5  1  0
  1  6  1  0
  1 28  1  0
  2  3  1  0
  3  4  2  3
  4  7  1  0
  4  8  1  0
  9 10  1  0
  9 18  1  0
  9 19  1  0
  9 20  1  0
 10 11  2  3
 10 21  1  0
 11 12  1  0
 11 22  1  0
 12 13  1  0
 12 17  1  0
 12 23  1  0
 13 14  1  0
 13 24  1  0
 14 15  2  0
 14 25  1  0
 15 16  1  0
 15 26  1  0
 16 17  2  0
 16 27  1  0
 17 29  1  0
M  RAD  1  13   2
M  END
>  <reaction>  (11) 
rmg_rxn_15723

>  <mol_properties>  (11) 
{"0": {"label": "*3", "atom_type": "Cs"}, "1": {"label": "*4", "atom_type": "O2s"}, "11": {"label": "*0", "atom_type": "Cs"}, "16": {"label": "*1", "atom_type": "Cs"}, "27": {"label": "*2", "atom_type": "H0"}}

>  <type>  (11) 
unop_7

>  <geom_source>  (11) 
Heuristics

$$$$

     RDKit          3D

 29 28  0  0  0  0  0  0  0  0999 V2000
   -1.7611   -0.5481   -0.2803 C   0  0  0  0  0  0  0  0  0  0  0  0
   -2.8117   -0.4794    0.6637 O   0  0  0  0  0  0  0  0  0  0  0  0
   -4.0082   -0.2967    0.0127 N   0  0  0  0  0  0  0  0  0  0  0  0
   -4.9802   -0.2289    0.8172 C   0  0  0  0  0  0  0  0  0  0  0  0
   -1.9026   -1.3901   -0.9617 H   0  0  0  0  0  0  0  0  0  0  0  0
   -1.6908    0.3784   -0.8546 H   0  0  0  0  0  0  0  0  0  0  0  0
   -5.9603   -0.0852    0.3823 H   0  0  0  0  0  0  0  0  0  0  0  0
   -4.8558   -0.3089    1.8950 H   0  0  0  0  0  0  0  0  0  0  0  0
    1.6065   -1.5423   -3.3688 C   0  0  0  0  0  0  0  0  0  0  0  0
    1.6065   -1.5423   -1.8737 C   0  0  0  0  0  0  0  0  0  0  0  0
    1.6065   -0.4584   -1.1114 C   0  0  0  0  0  0  0  0  0  0  0  0
    1.6192   -0.4671    0.3952 C   0  0  0  0  0  0  0  0  0  0  0  0
    2.8894    0.2008    0.8715 C   0  0  0  0  0  3  0  0  0  0  0  0
    2.9166    1.5028    1.1531 C   0  0  0  0  0  0  0  0  0  0  0  0
    1.7020    2.3135    1.0660 C   0  0  0  0  0  0  0  0  0  0  0  0
    0.5081    1.7306    0.9716 C   0  0  0  0  0  0  0  0  0  0  0  0
    0.3875    0.2336    0.9915 C   0  0  0  0  0  0  0  0  0  0  0  0
    1.6019   -0.5266   -3.7660 H   0  0  0  0  0  0  0  0  0  0  0  0
    2.4874   -2.0582   -3.7602 H   0  0  0  0  0  0  0  0  0  0  0  0
    0.7316   -2.0675   -3.7608 H   0  0  0  0  0  0  0  0  0  0  0  0
    1.6077   -2.5185   -1.3924 H   0  0  0  0  0  0  0  0  0  0  0  0
    1.6109    0.5260   -1.5754 H   0  0  0  0  0  0  0  0  0  0  0  0
    1.6140   -1.5086    0.7247 H   0  0  0  0  0  0  0  0  0  0  0  0
    3.7962   -0.3921    0.8921 H   0  0  0  0  0  0  0  0  0  0  0  0
    3.8457    1.9853    1.4322 H   0  0  0  0  0  0  0  0  0  0  0  0
    1.7910    3.3926    1.0960 H   0  0  0  0  0  0  0  0  0  0  0  0
   -0.3965    2.3259    0.9331 H   0  0  0  0  0  0  0  0  0  0  0  0
   -0.6883   -0.1578    0.3547 H   0  0  0  0  0  0  0  0  0  0  0  0
    0.2651   -0.0847    2.0352 H   0  0  0  0  0  0  0  0  0  0  0  0
  1  2  1  0
  1  5  1  0
  1  6  1  0
  1 28  1  0
  2  3  1  0
  3  4  2  3
  4  7  1  0
  4  8  1  0
  9 10  1  0
  9 18  1  0
  9 19  1  0
  9 20  1  0
 10 11  2  3
 10 21  1  0
 11 12  1  0
 11 22  1  0
 12 13  1  0
 12 17  1  0
 12 23  1  0
 13 14  1  0
 13 24  1  0
 14 15  2  0
 14 25  1  0
 15 16  1  0
 15 26  1  0
 16 17  2  0
 16 27  1  0
 17 29  1  0
M  RAD  1  13   2
M  END
>  <reaction>  (12) 
rmg_rxn_15723

>  <mol_properties>  (12) 
{"0": {"label": "*3", "atom_type": "Cs"}, "1": {"label": "*4", "atom_type": "O2s"}, "11": {"label": "*0", "atom_type": "Cs"}, "16": {"label": "*1", "atom_type": "Cs"}, "27": {"label": "*2", "atom_type": "H0"}}

>  <type>  (12) 
unop_8

>  <geom_source>  (12) 
Heuristics

$$$$

     RDKit          3D

 29 28  0  0  0  0  0  0  0  0999 V2000
   -2.1535   -0.6632    0.4327 C   0  0  0  0  0  0  0  0  0  0  0  0
   -1.9556   -0.2935   -0.9178 O   0  0  0  0  0  0  0  0  0  0  0  0
   -3.1643    0.0105   -1.4967 N   0  0  0  0  0  0  0  0  0  0  0  0
   -3.0385    0.3479   -2.7079 C   0  0  0  0  0  0  0  0  0  0  0  0
   -2.5992    0.1564    1.0008 H   0  0  0  0  0  0  0  0  0  0  0  0
   -2.7909   -1.5473    0.5063 H   0  0  0  0  0  0  0  0  0  0  0  0
   -3.9469    0.6037   -3.2369 H   0  0  0  0  0  0  0  0  0  0  0  0
   -2.0736    0.3847   -3.2089 H   0  0  0  0  0  0  0  0  0  0  0  0
    1.2141   -1.6575   -2.6559 C   0  0  0  0  0  0  0  0  0  0  0  0
    1.2141   -1.6575   -1.1608 C   0  0  0  0  0  0  0  0  0  0  0  0
    1.2141   -0.5735   -0.3984 C   0  0  0  0  0  0  0  0  0  0  0  0
    1.2268   -0.5822    1.1081 C   0  0  0  0  0  0  0  0  0  0  0  0
    2.4970    0.0857    1.5844 C   0  0  0  0  0  3  0  0  0  0  0  0
    2.5242    1.3877    1.8661 C   0  0  0  0  0  0  0  0  0  0  0  0
    1.3096    2.1983    1.7789 C   0  0  0  0  0  0  0  0  0  0  0  0
    0.1157    1.6155    1.6845 C   0  0  0  0  0  0  0  0  0  0  0  0
   -0.0049    0.1185    1.7044 C   0  0  0  0  0  0  0  0  0  0  0  0
    1.2095   -0.6417   -3.0531 H   0  0  0  0  0  0  0  0  0  0  0  0
    2.0950   -2.1733   -3.0472 H   0  0  0  0  0  0  0  0  0  0  0  0
    0.3392   -2.1826   -3.0479 H   0  0  0  0  0  0  0  0  0  0  0  0
    1.2153   -2.6337   -0.6794 H   0  0  0  0  0  0  0  0  0  0  0  0
    1.2185    0.4109   -0.8624 H   0  0  0  0  0  0  0  0  0  0  0  0
    1.2216   -1.6237    1.4376 H   0  0  0  0  0  0  0  0  0  0  0  0
    3.4038   -0.5072    1.6050 H   0  0  0  0  0  0  0  0  0  0  0  0
    3.4533    1.8701    2.1451 H   0  0  0  0  0  0  0  0  0  0  0  0
    1.3986    3.2774    1.8090 H   0  0  0  0  0  0  0  0  0  0  0  0
   -0.7889    2.2108    1.6460 H   0  0  0  0  0  0  0  0  0  0  0  0
   -1.0807   -0.2729    1.0677 H   0  0  0  0  0  0  0  0  0  0  0  0
   -0.1273   -0.1998    2.7481 H   0  0  0  0  0  0  0  0  0  0  0  0
  1  2  1  0
  1  5  1  0
  1  6  1  0
  1 28  1  0
  2  3  1  0
  3  4  2  3
  4  7  1  0
  4  8  1  0
  9 10  1  0
  9 18  1  0
  9 19  1  0
  9 20  1  0
 10 11  2  3
 10 21  1  0
 11 12  1  0
 11 22  1  0
 12 13  1  0
 12 17  1  0
 12 23  1  0
 13 14  1  0
 13 24  1  0
 14 15  2  0
 14 25  1  0
 15 16  1  0
 15 26  1  0
 16 17  2  0
 16 27  1  0
 17 29  1  0
M  RAD  1  13   2
M  END
>  <reaction>  (13) 
rmg_rxn_15723

>  <mol_properties>  (13) 
{"0": {"label": "*3", "atom_type": "Cs"}, "1": {"label": "*4", "atom_type": "O2s"}, "11": {"label": "*0", "atom_type": "Cs"}, "16": {"label": "*1", "atom_type": "Cs"}, "27": {"label": "*2", "atom_type": "H0"}}

>  <type>  (13) 
unop_9

>  <geom_source>  (13) 
Heuristics

$$$$

     RDKit          3D

 29 28  0  0  0  0  0  0  0  0999 V2000
    0.6263   -2.7035    0.8636 C   0  0  0  0  0  0  0  0  0  0  0  0
   -0.6327   -2.5003    0.2772 O   0  0  0  0  0  0  0  0  0  0  0  0
   -0.5233   -1.7550   -0.8833 N   0  0  0  0  0  0  0  0  0  0  0  0
   -1.6043   -1.4642   -1.4575 C   0  0  0  0  0  0  0  0  0  0  0  0
    0.4922   -3.3873    1.6915 H   0  0  0  0  0  0  0  0  0  0  0  0
    1.3870   -3.0138    0.1749 H   0  0  0  0  0  0  0  0  0  0  0  0
   -1.5285   -0.8887   -2.3630 H   0  0  0  0  0  0  0  0  0  0  0  0
   -2.5851   -1.7659   -1.1043 H   0  0  0  0  0  0  0  0  0  0  0  0
    3.8143    0.0075   -0.5283 C   0  0  0  0  0  0  0  0  0  0  0  0
    2.7662    0.9032    0.0461 C   0  0  0  0  0  0  0  0  0  0  0  0
    1.4713    0.7704   -0.1813 C   0  0  0  0  0  0  0  0  0  0  0  0
    0.3922    1.6528    0.4245 C   0  0  0  0  0  0  0  0  0  0  0  0
   -0.4984    2.1638   -0.6591 C   0  0  0  0  0  3  0  0  0  0  0  0
   -1.8010    1.8027   -0.7601 C   0  0  0  0  0  0  0  0  0  0  0  0
   -2.4060    0.9650    0.1905 C   0  0  0  0  0  0  0  0  0  0  0  0
   -1.6623    0.5248    1.2961 C   0  0  0  0  0  0  0  0  0  0  0  0
   -0.3559    0.8548    1.4434 C   0  0  0  0  0  0  0  0  0  0  0  0
    4.3736   -0.4797    0.2706 H   0  0  0  0  0  0  0  0  0  0  0  0
    3.3673   -0.7542   -1.1620 H   0  0  0  0  0  0  0  0  0  0  0  0
    4.5230    0.5869   -1.1197 H   0  0  0  0  0  0  0  0  0  0  0  0
    3.1330    1.6986    0.6842 H   0  0  0  0  0  0  0  0  0  0  0  0
    1.0912   -0.0230   -0.8107 H   0  0  0  0  0  0  0  0  0  0  0  0
    0.9042    2.4947    0.9184 H   0  0  0  0  0  0  0  0  0  0  0  0
   -0.0407    2.8109   -1.3927 H   0  0  0  0  0  0  0  0  0  0  0  0
   -2.3985    2.1757   -1.5813 H   0  0  0  0  0  0  0  0  0  0  0  0
   -3.4448    0.6936    0.0915 H   0  0  0  0  0  0  0  0  0  0  0  0
   -2.1492   -0.0836    2.0455 H   0  0  0  0  0  0  0  0  0  0  0  0
    1.1327   -1.7756    1.1550 H   0  0  0  0  0  0  0  0  0  0  0  0
    0.2101    0.5178    2.2995 H   0  0  0  0  0  0  0  0  0  0  0  0
  1  2  1  0
  1  5  1  0
  1  6  1  0
  1 28  1  0
  2  3  1  0
  3  4  2  3
  4  7  1  0
  4  8  1  0
  9 10  1  0
  9 18  1  0
  9 19  1  0
  9 20  1  0
 10 11  2  3
 10 21  1  0
 11 12  1  0
 11 22  1  0
 12 13  1  0
 12 17  1  0
 12 23  1  0
 13 14  1  0
 13 24  1  0
 14 15  2  0
 14 25  1  0
 15 16  1  0
 15 26  1  0
 16 17  2  0
 16 27  1  0
 17 29  1  0
M  RAD  1  13   2
M  END
>  <reaction>  (14) 
rmg_rxn_15723

>  <mol_properties>  (14) 
{"0": {"label": "*3", "atom_type": "Cs"}, "1": {"label": "*4", "atom_type": "O2s"}, "11": {"label": "*0", "atom_type": "Cs"}, "16": {"label": "*1", "atom_type": "Cs"}, "27": {"label": "*2", "atom_type": "H0"}}

>  <type>  (14) 
unop_10

>  <geom_source>  (14) 
Heuristics

$$$$

     RDKit          3D

 29 28  0  0  0  0  0  0  0  0999 V2000
   -1.7559   -0.6549   -0.1806 C   0  0  0  0  0  0  0  0  0  0  0  0
   -2.8322    0.0323    0.4269 O   0  0  0  0  0  0  0  0  0  0  0  0
   -4.0113   -0.3214   -0.1842 N   0  0  0  0  0  0  0  0  0  0  0  0
   -5.0053    0.2690    0.3258 C   0  0  0  0  0  0  0  0  0  0  0  0
   -1.8744   -1.7358   -0.0773 H   0  0  0  0  0  0  0  0  0  0  0  0
   -1.6745   -0.3961   -1.2387 H   0  0  0  0  0  0  0  0  0  0  0  0
   -5.9739    0.0441   -0.1004 H   0  0  0  0  0  0  0  0  0  0  0  0
   -4.9100    0.9707    1.1516 H   0  0  0  0  0  0  0  0  0  0  0  0
    1.6118   -1.6491   -3.2691 C   0  0  0  0  0  0  0  0  0  0  0  0
    1.6118   -1.6491   -1.7740 C   0  0  0  0  0  0  0  0  0  0  0  0
    1.6118   -0.5651   -1.0117 C   0  0  0  0  0  0  0  0  0  0  0  0
    1.6244   -0.5738    0.4949 C   0  0  0  0  0  0  0  0  0  0  0  0
    2.8947    0.0941    0.9712 C   0  0  0  0  0  3  0  0  0  0  0  0
    2.9219    1.3961    1.2529 C   0  0  0  0  0  0  0  0  0  0  0  0
    1.7073    2.2067    1.1657 C   0  0  0  0  0  0  0  0  0  0  0  0
    0.5133    1.6239    1.0713 C   0  0  0  0  0  0  0  0  0  0  0  0
    0.3928    0.1268    1.0912 C   0  0  0  0  0  0  0  0  0  0  0  0
    1.6071   -0.6333   -3.6663 H   0  0  0  0  0  0  0  0  0  0  0  0
    2.4927   -2.1649   -3.6604 H   0  0  0  0  0  0  0  0  0  0  0  0
    0.7369   -2.1743   -3.6611 H   0  0  0  0  0  0  0  0  0  0  0  0
    1.6130   -2.6253   -1.2926 H   0  0  0  0  0  0  0  0  0  0  0  0
    1.6162    0.4193   -1.4756 H   0  0  0  0  0  0  0  0  0  0  0  0
    1.6193   -1.6154    0.8244 H   0  0  0  0  0  0  0  0  0  0  0  0
    3.8015   -0.4988    0.9918 H   0  0  0  0  0  0  0  0  0  0  0  0
    3.8510    1.8785    1.5319 H   0  0  0  0  0  0  0  0  0  0  0  0
    1.7963    3.2858    1.1958 H   0  0  0  0  0  0  0  0  0  0  0  0
   -0.3912    2.2191    1.0328 H   0  0  0  0  0  0  0  0  0  0  0  0
   -0.6830   -0.2646    0.4544 H   0  0  0  0  0  0  0  0  0  0  0  0
    0.2704   -0.1914    2.1349 H   0  0  0  0  0  0  0  0  0  0  0  0
  1  2  1  0
  1  5  1  0
  1  6  1  0
  1 28  1  0
  2  3  1  0
  3  4  2  3
  4  7  1  0
  4  8  1  0
  9 10  1  0
  9 18  1  0
  9 19  1  0
  9 20  1  0
 10 11  2  3
 10 21  1  0
 11 12  1  0
 11 22  1  0
 12 13  1  0
 12 17  1  0
 12 23  1  0
 13 14  1  0
 13 24  1  0
 14 15  2  0
 14 25  1  0
 15 16  1  0
 15 26  1  0
 16 17  2  0
 16 27  1  0
 17 29  1  0
M  RAD  1  13   2
M  END
>  <reaction>  (15) 
rmg_rxn_15723

>  <mol_properties>  (15) 
{"0": {"label": "*3", "atom_type": "Cs"}, "1": {"label": "*4", "atom_type": "O2s"}, "11": {"label": "*0", "atom_type": "Cs"}, "16": {"label": "*1", "atom_type": "Cs"}, "27": {"label": "*2", "atom_type": "H0"}}

>  <type>  (15) 
unop_11

>  <geom_source>  (15) 
Heuristics

$$$$

     RDKit          3D

 29 28  0  0  0  0  0  0  0  0999 V2000
   -0.3992   -1.6011    1.3282 C   0  0  0  0  0  0  0  0  0  0  0  0
   -0.4409   -2.1991    0.0616 O   0  0  0  0  0  0  0  0  0  0  0  0
   -1.5221   -2.0860   -0.7346 N   0  0  0  0  0  0  0  0  0  0  0  0
   -2.5340   -1.4017   -0.4246 C   0  0  0  0  0  0  0  0  0  0  0  0
   -1.2961   -1.7905    1.9214 H   0  0  0  0  0  0  0  0  0  0  0  0
    0.4879   -1.9994    1.8120 H   0  0  0  0  0  0  0  0  0  0  0  0
   -3.3347   -1.4041   -1.1431 H   0  0  0  0  0  0  0  0  0  0  0  0
   -2.6723   -0.8169    0.4808 H   0  0  0  0  0  0  0  0  0  0  0  0
    4.1947   -0.6096   -0.2041 C   0  0  0  0  0  0  0  0  0  0  0  0
    3.1118    0.4073   -0.0666 C   0  0  0  0  0  0  0  0  0  0  0  0
    1.8269    0.1604   -0.2555 C   0  0  0  0  0  0  0  0  0  0  0  0
    0.7358    1.1859   -0.1019 C   0  0  0  0  0  0  0  0  0  0  0  0
   -0.2042    1.1791   -1.2713 C   0  0  0  0  0  3  0  0  0  0  0  0
   -1.5033    1.5035   -1.1355 C   0  0  0  0  0  0  0  0  0  0  0  0
   -2.0583    1.8088    0.1390 C   0  0  0  0  0  0  0  0  0  0  0  0
   -1.3138    1.5963    1.2731 C   0  0  0  0  0  0  0  0  0  0  0  0
   -0.0284    1.0226    1.1996 C   0  0  0  0  0  0  0  0  0  0  0  0
    3.7845   -1.5782   -0.4777 H   0  0  0  0  0  0  0  0  0  0  0  0
    4.9080   -0.2998   -0.9676 H   0  0  0  0  0  0  0  0  0  0  0  0
    4.7405   -0.7088    0.7342 H   0  0  0  0  0  0  0  0  0  0  0  0
    3.4407    1.4028    0.2090 H   0  0  0  0  0  0  0  0  0  0  0  0
    1.4986   -0.8303   -0.5365 H   0  0  0  0  0  0  0  0  0  0  0  0
    1.2254    2.1789   -0.0690 H   0  0  0  0  0  0  0  0  0  0  0  0
    0.2217    0.9534   -2.2366 H   0  0  0  0  0  0  0  0  0  0  0  0
   -2.1489    1.5395   -2.0010 H   0  0  0  0  0  0  0  0  0  0  0  0
   -3.0678    2.1829    0.2029 H   0  0  0  0  0  0  0  0  0  0  0  0
   -1.7593    1.7462    2.2475 H   0  0  0  0  0  0  0  0  0  0  0  0
   -0.2558   -0.3408    1.2407 H   0  0  0  0  0  0  0  0  0  0  0  0
    0.5944    1.0810    2.0876 H   0  0  0  0  0  0  0  0  0  0  0  0
  1  2  1  0
  1  5  1  0
  1  6  1  0
  1 28  1  0
  2  3  1  0
  3  4  2  3
  4  7  1  0
  4  8  1  0
  9 10  1  0
  9 18  1  0
  9 19  1  0
  9 20  1  0
 10 11  2  3
 10 21  1  0
 11 12  1  0
 11 22  1  0
 12 13  1  0
 12 17  1  0
 12 23  1  0
 13 14  1  0
 13 24  1  0
 14 15  2  0
 14 25  1  0
 15 16  1  0
 15 26  1  0
 16 17  2  0
 16 27  1  0
 17 29  1  0
M  RAD  1  13   2
M  END
>  <reaction>  (16) 
rmg_rxn_15723

>  <mol_properties>  (16) 
{"0": {"label": "*3", "atom_type": "Cs"}, "1": {"label": "*4", "atom_type": "O2s"}, "11": {"label": "*0", "atom_type": "Cs"}, "16": {"label": "*1", "atom_type": "Cs"}, "27": {"label": "*2", "atom_type": "H0"}}

>  <type>  (16) 
unop_12

>  <geom_source>  (16) 
Heuristics

$$$$

     RDKit          3D

 29 28  0  0  0  0  0  0  0  0999 V2000
    0.4119   -1.5968   -1.3481 C   0  0  0  0  0  0  0  0  0  0  0  0
    0.4155   -2.2125   -0.0894 O   0  0  0  0  0  0  0  0  0  0  0  0
    1.4727   -2.1123    0.7402 N   0  0  0  0  0  0  0  0  0  0  0  0
    2.4948   -1.4266    0.4695 C   0  0  0  0  0  0  0  0  0  0  0  0
    1.3252   -1.7804   -1.9178 H   0  0  0  0  0  0  0  0  0  0  0  0
   -0.4618   -1.9861   -1.8627 H   0  0  0  0  0  0  0  0  0  0  0  0
    3.2731   -1.4398    1.2121 H   0  0  0  0  0  0  0  0  0  0  0  0
    2.6615   -0.8305   -0.4237 H   0  0  0  0  0  0  0  0  0  0  0  0
   -4.1900   -0.5857    0.2109 C   0  0  0  0  0  0  0  0  0  0  0  0
   -3.1035    0.4272    0.0727 C   0  0  0  0  0  0  0  0  0  0  0  0
   -1.8180    0.1711    0.2444 C   0  0  0  0  0  0  0  0  0  0  0  0
   -0.7228    1.1927    0.0941 C   0  0  0  0  0  0  0  0  0  0  0  0
    0.2116    1.1827    1.2682 C   0  0  0  0  0  3  0  0  0  0  0  0
    1.5125    1.5019    1.1387 C   0  0  0  0  0  0  0  0  0  0  0  0
    2.0752    1.8041   -0.1332 C   0  0  0  0  0  0  0  0  0  0  0  0
    1.3353    1.5947   -1.2708 C   0  0  0  0  0  0  0  0  0  0  0  0
    0.0468    1.0269   -1.2038 C   0  0  0  0  0  0  0  0  0  0  0  0
   -4.7469   -0.6718   -0.7221 H   0  0  0  0  0  0  0  0  0  0  0  0
   -3.7817   -1.5593    0.4693 H   0  0  0  0  0  0  0  0  0  0  0  0
   -4.8931   -0.2808    0.9859 H   0  0  0  0  0  0  0  0  0  0  0  0
   -3.4301    1.4276   -0.1875 H   0  0  0  0  0  0  0  0  0  0  0  0
   -1.4930   -0.8246    0.5105 H   0  0  0  0  0  0  0  0  0  0  0  0
   -1.2089    2.1874    0.0593 H   0  0  0  0  0  0  0  0  0  0  0  0
   -0.2202    0.9594    2.2314 H   0  0  0  0  0  0  0  0  0  0  0  0
    2.1540    1.5363    2.0074 H   0  0  0  0  0  0  0  0  0  0  0  0
    3.0867    2.1739   -0.1924 H   0  0  0  0  0  0  0  0  0  0  0  0
    1.7862    1.7427   -2.2430 H   0  0  0  0  0  0  0  0  0  0  0  0
    0.2693   -0.3372   -1.2486 H   0  0  0  0  0  0  0  0  0  0  0  0
   -0.5716    1.0898   -2.0946 H   0  0  0  0  0  0  0  0  0  0  0  0
  1  2  1  0
  1  5  1  0
  1  6  1  0
  1 28  1  0
  2  3  1  0
  3  4  2  3
  4  7  1  0
  4  8  1  0
  9 10  1  0
  9 18  1  0
  9 19  1  0
  9 20  1  0
 10 11  2  3
 10 21  1  0
 11 12  1  0
 11 22  1  0
 12 13  1  0
 12 17  1  0
 12 23  1  0
 13 14  1  0
 13 24  1  0
 14 15  2  0
 14 25  1  0
 15 16  1  0
 15 26  1  0
 16 17  2  0
 16 27  1  0
 17 29  1  0
M  RAD  1  13   2
M  END
>  <reaction>  (17) 
rmg_rxn_15723

>  <mol_properties>  (17) 
{"0": {"label": "*3", "atom_type": "Cs"}, "1": {"label": "*4", "atom_type": "O2s"}, "11": {"label": "*0", "atom_type": "Cs"}, "16": {"label": "*1", "atom_type": "Cs"}, "27": {"label": "*2", "atom_type": "H0"}}

>  <type>  (17) 
unop_13

>  <geom_source>  (17) 
Heuristics

$$$$

     RDKit          3D

 29 28  0  0  0  0  0  0  0  0999 V2000
   -2.0189   -0.8282    0.2783 C   0  0  0  0  0  0  0  0  0  0  0  0
   -2.1812    0.0793   -0.7939 O   0  0  0  0  0  0  0  0  0  0  0  0
   -3.5162    0.3535   -0.9705 N   0  0  0  0  0  0  0  0  0  0  0  0
   -3.7124    1.1628   -1.9209 C   0  0  0  0  0  0  0  0  0  0  0  0
   -2.3988   -0.4037    1.2103 H   0  0  0  0  0  0  0  0  0  0  0  0
   -2.5292   -1.7717    0.0723 H   0  0  0  0  0  0  0  0  0  0  0  0
   -4.7404    1.4307   -2.1252 H   0  0  0  0  0  0  0  0  0  0  0  0
   -2.9006    1.5786   -2.5138 H   0  0  0  0  0  0  0  0  0  0  0  0
    1.3488   -1.8224   -2.8102 C   0  0  0  0  0  0  0  0  0  0  0  0
    1.3488   -1.8224   -1.3151 C   0  0  0  0  0  0  0  0  0  0  0  0
    1.3488   -0.7385   -0.5528 C   0  0  0  0  0  0  0  0  0  0  0  0
    1.3614   -0.7471    0.9538 C   0  0  0  0  0  0  0  0  0  0  0  0
    2.6317   -0.0792    1.4301 C   0  0  0  0  0  3  0  0  0  0  0  0
    2.6589    1.2228    1.7117 C   0  0  0  0  0  0  0  0  0  0  0  0
    1.4443    2.0334    1.6246 C   0  0  0  0  0  0  0  0  0  0  0  0
    0.2503    1.4505    1.5302 C   0  0  0  0  0  0  0  0  0  0  0  0
    0.1298   -0.0465    1.5501 C   0  0  0  0  0  0  0  0  0  0  0  0
    1.3442   -0.8066   -3.2074 H   0  0  0  0  0  0  0  0  0  0  0  0
    2.2297   -2.3382   -3.2016 H   0  0  0  0  0  0  0  0  0  0  0  0
    0.4739   -2.3476   -3.2022 H   0  0  0  0  0  0  0  0  0  0  0  0
    1.3500   -2.7986   -0.8338 H   0  0  0  0  0  0  0  0  0  0  0  0
    1.3532    0.2459   -1.0168 H   0  0  0  0  0  0  0  0  0  0  0  0
    1.3563   -1.7887    1.2833 H   0  0  0  0  0  0  0  0  0  0  0  0
    3.5385   -0.6721    1.4507 H   0  0  0  0  0  0  0  0  0  0  0  0
    3.5880    1.7052    1.9908 H   0  0  0  0  0  0  0  0  0  0  0  0
    1.5333    3.1125    1.6546 H   0  0  0  0  0  0  0  0  0  0  0  0
   -0.6542    2.0458    1.4917 H   0  0  0  0  0  0  0  0  0  0  0  0
   -0.9460   -0.4379    0.9133 H   0  0  0  0  0  0  0  0  0  0  0  0
    0.0074   -0.3647    2.5938 H   0  0  0  0  0  0  0  0  0  0  0  0
  1  2  1  0
  1  5  1  0
  1  6  1  0
  1 28  1  0
  2  3  1  0
  3  4  2  3
  4  7  1  0
  4  8  1  0
  9 10  1  0
  9 18  1  0
  9 19  1  0
  9 20  1  0
 10 11  2  3
 10 21  1  0
 11 12  1  0
 11 22  1  0
 12 13  1  0
 12 17  1  0
 12 23  1  0
 13 14  1  0
 13 24  1  0
 14 15  2  0
 14 25  1  0
 15 16  1  0
 15 26  1  0
 16 17  2  0
 16 27  1  0
 17 29  1  0
M  RAD  1  13   2
M  END
>  <reaction>  (18) 
rmg_rxn_15723

>  <mol_properties>  (18) 
{"0": {"label": "*3", "atom_type": "Cs"}, "1": {"label": "*4", "atom_type": "O2s"}, "11": {"label": "*0", "atom_type": "Cs"}, "16": {"label": "*1", "atom_type": "Cs"}, "27": {"label": "*2", "atom_type": "H0"}}

>  <type>  (18) 
unop_14

>  <geom_source>  (18) 
Heuristics

$$$$

     RDKit          3D

 29 28  0  0  0  0  0  0  0  0999 V2000
   -0.4031   -1.5982    1.3457 C   0  0  0  0  0  0  0  0  0  0  0  0
   -0.4084   -2.2133    0.0866 O   0  0  0  0  0  0  0  0  0  0  0  0
   -1.4682   -2.1154   -0.7400 N   0  0  0  0  0  0  0  0  0  0  0  0
   -2.4913   -1.4325   -0.4661 C   0  0  0  0  0  0  0  0  0  0  0  0
   -1.3139   -1.7854    1.9180 H   0  0  0  0  0  0  0  0  0  0  0  0
    0.4736   -1.9848    1.8572 H   0  0  0  0  0  0  0  0  0  0  0  0
   -3.2719   -1.4475   -1.2063 H   0  0  0  0  0  0  0  0  0  0  0  0
   -2.6569   -0.8371    0.4277 H   0  0  0  0  0  0  0  0  0  0  0  0
    4.1873   -0.5820   -0.2103 C   0  0  0  0  0  0  0  0  0  0  0  0
    3.1008    0.4306   -0.0704 C   0  0  0  0  0  0  0  0  0  0  0  0
    1.8159    0.1760   -0.2492 C   0  0  0  0  0  0  0  0  0  0  0  0
    0.7201    1.1965   -0.0958 C   0  0  0  0  0  0  0  0  0  0  0  0
   -0.2156    1.1880   -1.2687 C   0  0  0  0  0  3  0  0  0  0  0  0
   -1.5174    1.5027   -1.1370 C   0  0  0  0  0  0  0  0  0  0  0  0
   -2.0799    1.7993    0.1363 C   0  0  0  0  0  0  0  0  0  0  0  0
   -1.3377    1.5901    1.2726 C   0  0  0  0  0  0  0  0  0  0  0  0
   -0.0474    1.0269    1.2029 C   0  0  0  0  0  0  0  0  0  0  0  0
    4.7399   -0.6743    0.7247 H   0  0  0  0  0  0  0  0  0  0  0  0
    3.7795   -1.5538   -0.4763 H   0  0  0  0  0  0  0  0  0  0  0  0
    4.8940   -0.2728   -0.9802 H   0  0  0  0  0  0  0  0  0  0  0  0
    3.4267    1.4291    0.1979 H   0  0  0  0  0  0  0  0  0  0  0  0
    1.4918   -0.8182   -0.5224 H   0  0  0  0  0  0  0  0  0  0  0  0
    1.2055    2.1915   -0.0593 H   0  0  0  0  0  0  0  0  0  0  0  0
    0.2158    0.9694   -2.2332 H   0  0  0  0  0  0  0  0  0  0  0  0
   -2.1598    1.5377   -2.0050 H   0  0  0  0  0  0  0  0  0  0  0  0
   -3.0926    2.1652    0.1976 H   0  0  0  0  0  0  0  0  0  0  0  0
   -1.7878    1.7345    2.2457 H   0  0  0  0  0  0  0  0  0  0  0  0
   -0.2652   -0.3381    1.2466 H   0  0  0  0  0  0  0  0  0  0  0  0
    0.5719    1.0906    2.0930 H   0  0  0  0  0  0  0  0  0  0  0  0
  1  2  1  0
  1  5  1  0
  1  6  1  0
  1 28  1  0
  2  3  1  0
  3  4  2  3
  4  7  1  0
  4  8  1  0
  9 10  1  0
  9 18  1  0
  9 19  1  0
  9 20  1  0
 10 11  2  3
 10 21  1  0
 11 12  1  0
 11 22  1  0
 12 13  1  0
 12 17  1  0
 12 23  1  0
 13 14  1  0
 13 24  1  0
 14 15  2  0
 14 25  1  0
 15 16  1  0
 15 26  1  0
 16 17  2  0
 16 27  1  0
 17 29  1  0
M  RAD  1  13   2
M  END
>  <reaction>  (19) 
rmg_rxn_15723

>  <mol_properties>  (19) 
{"0": {"label": "*3", "atom_type": "Cs"}, "1": {"label": "*4", "atom_type": "O2s"}, "11": {"label": "*0", "atom_type": "Cs"}, "16": {"label": "*1", "atom_type": "Cs"}, "27": {"label": "*2", "atom_type": "H0"}}

>  <type>  (19) 
unop_15

>  <geom_source>  (19) 
Heuristics

$$$$

     RDKit          3D

 29 28  0  0  0  0  0  0  0  0999 V2000
   -1.8862   -0.8552    0.0746 C   0  0  0  0  0  0  0  0  0  0  0  0
   -2.4497    0.3162   -0.4821 O   0  0  0  0  0  0  0  0  0  0  0  0
   -3.8206    0.2494   -0.4114 N   0  0  0  0  0  0  0  0  0  0  0  0
   -4.3711    1.2772   -0.8984 C   0  0  0  0  0  0  0  0  0  0  0  0
   -2.1618   -0.9596    1.1264 H   0  0  0  0  0  0  0  0  0  0  0  0
   -2.2062   -1.7426   -0.4762 H   0  0  0  0  0  0  0  0  0  0  0  0
   -5.4525    1.3024   -0.8807 H   0  0  0  0  0  0  0  0  0  0  0  0
   -3.8019    2.1039   -1.3181 H   0  0  0  0  0  0  0  0  0  0  0  0
    1.4815   -1.8495   -3.0139 C   0  0  0  0  0  0  0  0  0  0  0  0
    1.4815   -1.8495   -1.5188 C   0  0  0  0  0  0  0  0  0  0  0  0
    1.4815   -0.7655   -0.7565 C   0  0  0  0  0  0  0  0  0  0  0  0
    1.4941   -0.7742    0.7501 C   0  0  0  0  0  0  0  0  0  0  0  0
    2.7644   -0.1063    1.2264 C   0  0  0  0  0  3  0  0  0  0  0  0
    2.7916    1.1957    1.5080 C   0  0  0  0  0  0  0  0  0  0  0  0
    1.5769    2.0063    1.4209 C   0  0  0  0  0  0  0  0  0  0  0  0
    0.3830    1.4235    1.3265 C   0  0  0  0  0  0  0  0  0  0  0  0
    0.2625   -0.0735    1.3463 C   0  0  0  0  0  0  0  0  0  0  0  0
    1.4768   -0.8337   -3.4111 H   0  0  0  0  0  0  0  0  0  0  0  0
    2.3623   -2.3653   -3.4053 H   0  0  0  0  0  0  0  0  0  0  0  0
    0.6065   -2.3746   -3.4059 H   0  0  0  0  0  0  0  0  0  0  0  0
    1.4827   -2.8257   -1.0375 H   0  0  0  0  0  0  0  0  0  0  0  0
    1.4858    0.2189   -1.2205 H   0  0  0  0  0  0  0  0  0  0  0  0
    1.4890   -1.8157    1.0796 H   0  0  0  0  0  0  0  0  0  0  0  0
    3.6711   -0.6992    1.2470 H   0  0  0  0  0  0  0  0  0  0  0  0
    3.7206    1.6781    1.7871 H   0  0  0  0  0  0  0  0  0  0  0  0
    1.6659    3.0854    1.4509 H   0  0  0  0  0  0  0  0  0  0  0  0
   -0.5215    2.0188    1.2880 H   0  0  0  0  0  0  0  0  0  0  0  0
   -0.8134   -0.4649    0.7096 H   0  0  0  0  0  0  0  0  0  0  0  0
    0.1401   -0.3918    2.3901 H   0  0  0  0  0  0  0  0  0  0  0  0
  1  2  1  0
  1  5  1  0
  1  6  1  0
  1 28  1  0
  2  3  1  0
  3  4  2  3
  4  7  1  0
  4  8  1  0
  9 10  1  0
  9 18  1  0
  9 19  1  0
  9 20  1  0
 10 11  2  3
 10 21  1  0
 11 12  1  0
 11 22  1  0
 12 13  1  0
 12 17  1  0
 12 23  1  0
 13 14  1  0
 13 24  1  0
 14 15  2  0
 14 25  1  0
 15 16  1  0
 15 26  1  0
 16 17  2  0
 16 27  1  0
 17 29  1  0
M  RAD  1  13   2
M  END
>  <reaction>  (20) 
rmg_rxn_15723

>  <mol_properties>  (20) 
{"0": {"label": "*3", "atom_type": "Cs"}, "1": {"label": "*4", "atom_type": "O2s"}, "11": {"label": "*0", "atom_type": "Cs"}, "16": {"label": "*1", "atom_type": "Cs"}, "27": {"label": "*2", "atom_type": "H0"}}

>  <type>  (20) 
unop_16

>  <geom_source>  (20) 
Heuristics

$$$$

     RDKit          3D

 29 28  0  0  0  0  0  0  0  0999 V2000
    0.4062    1.5981    1.3446 C   0  0  0  0  0  0  0  0  0  0  0  0
    0.4156    2.2109    0.0845 O   0  0  0  0  0  0  0  0  0  0  0  0
    1.4769    2.1093   -0.7396 N   0  0  0  0  0  0  0  0  0  0  0  0
    2.4981    1.4250   -0.4621 C   0  0  0  0  0  0  0  0  0  0  0  0
    1.3162    1.7842    1.9186 H   0  0  0  0  0  0  0  0  0  0  0  0
   -0.4707    1.9875    1.8537 H   0  0  0  0  0  0  0  0  0  0  0  0
    3.2803    1.4369   -1.2006 H   0  0  0  0  0  0  0  0  0  0  0  0
    2.6607    0.8314    0.4335 H   0  0  0  0  0  0  0  0  0  0  0  0
   -4.1897    0.5866   -0.2095 C   0  0  0  0  0  0  0  0  0  0  0  0
   -3.1035   -0.4266   -0.0716 C   0  0  0  0  0  0  0  0  0  0  0  0
   -1.8182   -0.1717   -0.2475 C   0  0  0  0  0  0  0  0  0  0  0  0
   -0.7231   -1.1932   -0.0959 C   0  0  0  0  0  0  0  0  0  0  0  0
    0.2127   -1.1837   -1.2688 C   0  0  0  0  0  3  0  0  0  0  0  0
    1.5138   -1.5015   -1.1375 C   0  0  0  0  0  0  0  0  0  0  0  0
    2.0753   -1.8020    0.1354 C   0  0  0  0  0  0  0  0  0  0  0  0
    1.3337   -1.5926    1.2719 C   0  0  0  0  0  0  0  0  0  0  0  0
    0.0447   -1.0262    1.2029 C   0  0  0  0  0  0  0  0  0  0  0  0
   -4.7468    0.6722    0.7234 H   0  0  0  0  0  0  0  0  0  0  0  0
   -3.7812    1.5603   -0.4672 H   0  0  0  0  0  0  0  0  0  0  0  0
   -4.8925    0.2823   -0.9849 H   0  0  0  0  0  0  0  0  0  0  0  0
   -3.4299   -1.4260    0.1923 H   0  0  0  0  0  0  0  0  0  0  0  0
   -1.4933    0.8231   -0.5172 H   0  0  0  0  0  0  0  0  0  0  0  0
   -1.2092   -2.1879   -0.0610 H   0  0  0  0  0  0  0  0  0  0  0  0
   -0.2181   -0.9620   -2.2328 H   0  0  0  0  0  0  0  0  0  0  0  0
    2.1563   -1.5360   -2.0054 H   0  0  0  0  0  0  0  0  0  0  0  0
    3.0871   -2.1704    0.1961 H   0  0  0  0  0  0  0  0  0  0  0  0
    1.7835   -1.7395    2.2448 H   0  0  0  0  0  0  0  0  0  0  0  0
    0.2656    0.3382    1.2471 H   0  0  0  0  0  0  0  0  0  0  0  0
   -0.5747   -1.0893    2.0929 H   0  0  0  0  0  0  0  0  0  0  0  0
  1  2  1  0
  1  5  1  0
  1  6  1  0
  1 28  1  0
  2  3  1  0
  3  4  2  3
  4  7  1  0
  4  8  1  0
  9 10  1  0
  9 18  1  0
  9 19  1  0
  9 20  1  0
 10 11  2  3
 10 21  1  0
 11 12  1  0
 11 22  1  0
 12 13  1  0
 12 17  1  0
 12 23  1  0
 13 14  1  0
 13 24  1  0
 14 15  2  0
 14 25  1  0
 15 16  1  0
 15 26  1  0
 16 17  2  0
 16 27  1  0
 17 29  1  0
M  RAD  1  13   2
M  END
>  <reaction>  (21) 
rmg_rxn_15723

>  <mol_properties>  (21) 
{"0": {"label": "*3", "atom_type": "Cs"}, "1": {"label": "*4", "atom_type": "O2s"}, "11": {"label": "*0", "atom_type": "Cs"}, "16": {"label": "*1", "atom_type": "Cs"}, "27": {"label": "*2", "atom_type": "H0"}}

>  <type>  (21) 
unop_17

>  <geom_source>  (21) 
Heuristics

$$$$

     RDKit          3D

 29 28  0  0  0  0  0  0  0  0999 V2000
   -1.9162   -0.1400   -0.3182 C   0  0  0  0  0  0  0  0  0  0  0  0
   -2.3835   -1.2765    0.3813 O   0  0  0  0  0  0  0  0  0  0  0  0
   -3.7570   -1.2595    0.4276 N   0  0  0  0  0  0  0  0  0  0  0  0
   -4.2231   -2.2587    1.0449 C   0  0  0  0  0  0  0  0  0  0  0  0
   -2.2849   -0.1351   -1.3464 H   0  0  0  0  0  0  0  0  0  0  0  0
   -2.2220    0.7808    0.1836 H   0  0  0  0  0  0  0  0  0  0  0  0
   -5.3001   -2.3195    1.1256 H   0  0  0  0  0  0  0  0  0  0  0  0
   -3.5880   -3.0278    1.4792 H   0  0  0  0  0  0  0  0  0  0  0  0
    1.4515   -1.1342   -3.4068 C   0  0  0  0  0  0  0  0  0  0  0  0
    1.4515   -1.1342   -1.9117 C   0  0  0  0  0  0  0  0  0  0  0  0
    1.4515   -0.0503   -1.1493 C   0  0  0  0  0  0  0  0  0  0  0  0
    1.4642   -0.0589    0.3572 C   0  0  0  0  0  0  0  0  0  0  0  0
    2.7344    0.6090    0.8335 C   0  0  0  0  0  3  0  0  0  0  0  0
    2.7616    1.9110    1.1152 C   0  0  0  0  0  0  0  0  0  0  0  0
    1.5470    2.7216    1.0280 C   0  0  0  0  0  0  0  0  0  0  0  0
    0.3531    2.1388    0.9336 C   0  0  0  0  0  0  0  0  0  0  0  0
    0.2325    0.6417    0.9535 C   0  0  0  0  0  0  0  0  0  0  0  0
    1.4469   -0.1184   -3.8040 H   0  0  0  0  0  0  0  0  0  0  0  0
    2.3324   -1.6500   -3.7981 H   0  0  0  0  0  0  0  0  0  0  0  0
    0.5766   -1.6594   -3.7988 H   0  0  0  0  0  0  0  0  0  0  0  0
    1.4527   -2.1104   -1.4303 H   0  0  0  0  0  0  0  0  0  0  0  0
    1.4559    0.9342   -1.6133 H   0  0  0  0  0  0  0  0  0  0  0  0
    1.4590   -1.1005    0.6867 H   0  0  0  0  0  0  0  0  0  0  0  0
    3.6412    0.0161    0.8541 H   0  0  0  0  0  0  0  0  0  0  0  0
    3.6907    2.3934    1.3942 H   0  0  0  0  0  0  0  0  0  0  0  0
    1.6360    3.8007    1.0581 H   0  0  0  0  0  0  0  0  0  0  0  0
   -0.5515    2.7340    0.8951 H   0  0  0  0  0  0  0  0  0  0  0  0
   -0.8433    0.2503    0.3168 H   0  0  0  0  0  0  0  0  0  0  0  0
    0.1101    0.3235    1.9972 H   0  0  0  0  0  0  0  0  0  0  0  0
  1  2  1  0
  1  5  1  0
  1  6  1  0
  1 28  1  0
  2  3  1  0
  3  4  2  3
  4  7  1  0
  4  8  1  0
  9 10  1  0
  9 18  1  0
  9 19  1  0
  9 20  1  0
 10 11  2  3
 10 21  1  0
 11 12  1  0
 11 22  1  0
 12 13  1  0
 12 17  1  0
 12 23  1  0
 13 14  1  0
 13 24  1  0
 14 15  2  0
 14 25  1  0
 15 16  1  0
 15 26  1  0
 16 17  2  0
 16 27  1  0
 17 29  1  0
M  RAD  1  13   2
M  END
>  <reaction>  (22) 
rmg_rxn_15723

>  <mol_properties>  (22) 
{"0": {"label": "*3", "atom_type": "Cs"}, "1": {"label": "*4", "atom_type": "O2s"}, "11": {"label": "*0", "atom_type": "Cs"}, "16": {"label": "*1", "atom_type": "Cs"}, "27": {"label": "*2", "atom_type": "H0"}}

>  <type>  (22) 
unop_18

>  <geom_source>  (22) 
Heuristics

$$$$

     RDKit          3D

 29 28  0  0  0  0  0  0  0  0999 V2000
    0.4121    1.5974    1.3472 C   0  0  0  0  0  0  0  0  0  0  0  0
    0.4167    2.2126    0.0881 O   0  0  0  0  0  0  0  0  0  0  0  0
    1.4745    2.1116   -0.7407 N   0  0  0  0  0  0  0  0  0  0  0  0
    2.4961    1.4255   -0.4691 C   0  0  0  0  0  0  0  0  0  0  0  0
    1.3252    1.7807    1.9171 H   0  0  0  0  0  0  0  0  0  0  0  0
   -0.4615    1.9875    1.8611 H   0  0  0  0  0  0  0  0  0  0  0  0
    3.2750    1.4382   -1.2111 H   0  0  0  0  0  0  0  0  0  0  0  0
    2.6619    0.8296    0.4243 H   0  0  0  0  0  0  0  0  0  0  0  0
   -4.1899    0.5873   -0.2110 C   0  0  0  0  0  0  0  0  0  0  0  0
   -3.1039   -0.4261   -0.0724 C   0  0  0  0  0  0  0  0  0  0  0  0
   -1.8182   -0.1708   -0.2442 C   0  0  0  0  0  0  0  0  0  0  0  0
   -0.7237   -1.1929   -0.0934 C   0  0  0  0  0  0  0  0  0  0  0  0
    0.2102   -1.1848   -1.2678 C   0  0  0  0  0  3  0  0  0  0  0  0
    1.5113   -1.5036   -1.1386 C   0  0  0  0  0  0  0  0  0  0  0  0
    2.0747   -1.8039    0.1335 C   0  0  0  0  0  0  0  0  0  0  0  0
    1.3350   -1.5937    1.2712 C   0  0  0  0  0  0  0  0  0  0  0  0
    0.0464   -1.0263    1.2042 C   0  0  0  0  0  0  0  0  0  0  0  0
   -3.7809    1.5609   -0.4682 H   0  0  0  0  0  0  0  0  0  0  0  0
   -4.8923    0.2832   -0.9868 H   0  0  0  0  0  0  0  0  0  0  0  0
   -4.7476    0.6729    0.7216 H   0  0  0  0  0  0  0  0  0  0  0  0
   -3.4310   -1.4262    0.1883 H   0  0  0  0  0  0  0  0  0  0  0  0
   -1.4927    0.8246   -0.5108 H   0  0  0  0  0  0  0  0  0  0  0  0
   -1.2105   -2.1872   -0.0574 H   0  0  0  0  0  0  0  0  0  0  0  0
   -0.2220   -0.9632   -2.2312 H   0  0  0  0  0  0  0  0  0  0  0  0
    2.1523   -1.5390   -2.0076 H   0  0  0  0  0  0  0  0  0  0  0  0
    3.0863   -2.1731    0.1927 H   0  0  0  0  0  0  0  0  0  0  0  0
    1.7863   -1.7407    2.2434 H   0  0  0  0  0  0  0  0  0  0  0  0
    0.2688    0.3379    1.2481 H   0  0  0  0  0  0  0  0  0  0  0  0
   -0.5717   -1.0886    2.0952 H   0  0  0  0  0  0  0  0  0  0  0  0
  1  2  1  0
  1  5  1  0
  1  6  1  0
  1 28  1  0
  2  3  1  0
  3  4  2  3
  4  7  1  0
  4  8  1  0
  9 10  1  0
  9 18  1  0
  9 19  1  0
  9 20  1  0
 10 11  2  3
 10 21  1  0
 11 12  1  0
 11 22  1  0
 12 13  1  0
 12 17  1  0
 12 23  1  0
 13 14  1  0
 13 24  1  0
 14 15  2  0
 14 25  1  0
 15 16  1  0
 15 26  1  0
 16 17  2  0
 16 27  1  0
 17 29  1  0
M  RAD  1  13   2
M  END
>  <reaction>  (23) 
rmg_rxn_15723

>  <mol_properties>  (23) 
{"0": {"label": "*3", "atom_type": "Cs"}, "1": {"label": "*4", "atom_type": "O2s"}, "11": {"label": "*0", "atom_type": "Cs"}, "16": {"label": "*1", "atom_type": "Cs"}, "27": {"label": "*2", "atom_type": "H0"}}

>  <type>  (23) 
unop_19

>  <geom_source>  (23) 
Heuristics

$$$$

     RDKit          3D

 29 28  0  0  0  0  0  0  0  0999 V2000
   -2.2441   -0.3993    0.4653 C   0  0  0  0  0  0  0  0  0  0  0  0
   -1.8232   -0.6971   -0.8514 O   0  0  0  0  0  0  0  0  0  0  0  0
   -2.9101   -0.7143   -1.6923 N   0  0  0  0  0  0  0  0  0  0  0  0
   -2.5833   -0.9770   -2.8844 C   0  0  0  0  0  0  0  0  0  0  0  0
   -2.7174    0.5841    0.5111 H   0  0  0  0  0  0  0  0  0  0  0  0
   -2.9396   -1.1567    0.8339 H   0  0  0  0  0  0  0  0  0  0  0  0
   -3.3843   -1.0094   -3.6107 H   0  0  0  0  0  0  0  0  0  0  0  0
   -1.5538   -1.1637   -3.1823 H   0  0  0  0  0  0  0  0  0  0  0  0
    1.1236   -1.3935   -2.6233 C   0  0  0  0  0  0  0  0  0  0  0  0
    1.1236   -1.3935   -1.1282 C   0  0  0  0  0  0  0  0  0  0  0  0
    1.1236   -0.3096   -0.3658 C   0  0  0  0  0  0  0  0  0  0  0  0
    1.1362   -0.3182    1.1408 C   0  0  0  0  0  0  0  0  0  0  0  0
    2.4065    0.3497    1.6170 C   0  0  0  0  0  3  0  0  0  0  0  0
    2.4337    1.6517    1.8987 C   0  0  0  0  0  0  0  0  0  0  0  0
    1.2190    2.4623    1.8115 C   0  0  0  0  0  0  0  0  0  0  0  0
    0.0251    1.8794    1.7172 C   0  0  0  0  0  0  0  0  0  0  0  0
   -0.0954    0.3824    1.7370 C   0  0  0  0  0  0  0  0  0  0  0  0
    1.1189   -0.3777   -3.0205 H   0  0  0  0  0  0  0  0  0  0  0  0
    2.0045   -1.9093   -3.0146 H   0  0  0  0  0  0  0  0  0  0  0  0
    0.2486   -1.9187   -3.0153 H   0  0  0  0  0  0  0  0  0  0  0  0
    1.1248   -2.3697   -0.6468 H   0  0  0  0  0  0  0  0  0  0  0  0
    1.1280    0.6749   -0.8298 H   0  0  0  0  0  0  0  0  0  0  0  0
    1.1311   -1.3598    1.4703 H   0  0  0  0  0  0  0  0  0  0  0  0
    3.3132   -0.2432    1.6377 H   0  0  0  0  0  0  0  0  0  0  0  0
    3.3627    2.1341    2.1778 H   0  0  0  0  0  0  0  0  0  0  0  0
    1.3081    3.5414    1.8416 H   0  0  0  0  0  0  0  0  0  0  0  0
   -0.8794    2.4747    1.6787 H   0  0  0  0  0  0  0  0  0  0  0  0
   -1.1712   -0.0090    1.1003 H   0  0  0  0  0  0  0  0  0  0  0  0
   -0.2178    0.0642    2.7807 H   0  0  0  0  0  0  0  0  0  0  0  0
  1  2  1  0
  1  5  1  0
  1  6  1  0
  1 28  1  0
  2  3  1  0
  3  4  2  3
  4  7  1  0
  4  8  1  0
  9 10  1  0
  9 18  1  0
  9 19  1  0
  9 20  1  0
 10 11  2  3
 10 21  1  0
 11 12  1  0
 11 22  1  0
 12 13  1  0
 12 17  1  0
 12 23  1  0
 13 14  1  0
 13 24  1  0
 14 15  2  0
 14 25  1  0
 15 16  1  0
 15 26  1  0
 16 17  2  0
 16 27  1  0
 17 29  1  0
M  RAD  1  13   2
M  END
>  <reaction>  (24) 
rmg_rxn_15723

>  <mol_properties>  (24) 
{"0": {"label": "*3", "atom_type": "Cs"}, "1": {"label": "*4", "atom_type": "O2s"}, "11": {"label": "*0", "atom_type": "Cs"}, "16": {"label": "*1", "atom_type": "Cs"}, "27": {"label": "*2", "atom_type": "H0"}}

>  <type>  (24) 
unop_20

>  <geom_source>  (24) 
Heuristics

$$$$

     RDKit          3D

 29 28  0  0  0  0  0  0  0  0999 V2000
   -2.0527    0.0125   -0.1531 C   0  0  0  0  0  0  0  0  0  0  0  0
   -2.1189   -1.3880    0.0309 O   0  0  0  0  0  0  0  0  0  0  0  0
   -3.4329   -1.7892    0.0633 N   0  0  0  0  0  0  0  0  0  0  0  0
   -3.5437   -3.0374    0.2265 C   0  0  0  0  0  0  0  0  0  0  0  0
   -2.5145    0.3046   -1.0989 H   0  0  0  0  0  0  0  0  0  0  0  0
   -2.5422    0.5382    0.6698 H   0  0  0  0  0  0  0  0  0  0  0  0
   -4.5495   -3.4341    0.2631 H   0  0  0  0  0  0  0  0  0  0  0  0
   -2.6823   -3.6941    0.3268 H   0  0  0  0  0  0  0  0  0  0  0  0
    1.3150   -0.9817   -3.2416 C   0  0  0  0  0  0  0  0  0  0  0  0
    1.3150   -0.9817   -1.7465 C   0  0  0  0  0  0  0  0  0  0  0  0
    1.3150    0.1022   -0.9842 C   0  0  0  0  0  0  0  0  0  0  0  0
    1.3276    0.0935    0.5224 C   0  0  0  0  0  0  0  0  0  0  0  0
    2.5979    0.7615    0.9987 C   0  0  0  0  0  3  0  0  0  0  0  0
    2.6251    2.0635    1.2803 C   0  0  0  0  0  0  0  0  0  0  0  0
    1.4104    2.8741    1.1932 C   0  0  0  0  0  0  0  0  0  0  0  0
    0.2165    2.2912    1.0988 C   0  0  0  0  0  0  0  0  0  0  0  0
    0.0960    0.7942    1.1187 C   0  0  0  0  0  0  0  0  0  0  0  0
    1.3103    0.0341   -3.6388 H   0  0  0  0  0  0  0  0  0  0  0  0
    2.1959   -1.4975   -3.6330 H   0  0  0  0  0  0  0  0  0  0  0  0
    0.4400   -1.5069   -3.6336 H   0  0  0  0  0  0  0  0  0  0  0  0
    1.3162   -1.9579   -1.2651 H   0  0  0  0  0  0  0  0  0  0  0  0
    1.3194    1.0866   -1.4482 H   0  0  0  0  0  0  0  0  0  0  0  0
    1.3225   -0.9480    0.8519 H   0  0  0  0  0  0  0  0  0  0  0  0
    3.5046    0.1685    1.0193 H   0  0  0  0  0  0  0  0  0  0  0  0
    3.5541    2.5459    1.5594 H   0  0  0  0  0  0  0  0  0  0  0  0
    1.4995    3.9532    1.2232 H   0  0  0  0  0  0  0  0  0  0  0  0
   -0.6880    2.8865    1.0603 H   0  0  0  0  0  0  0  0  0  0  0  0
   -0.9798    0.4028    0.4819 H   0  0  0  0  0  0  0  0  0  0  0  0
   -0.0264    0.4759    2.1624 H   0  0  0  0  0  0  0  0  0  0  0  0
  1  2  1  0
  1  5  1  0
  1  6  1  0
  1 28  1  0
  2  3  1  0
  3  4  2  3
  4  7  1  0
  4  8  1  0
  9 10  1  0
  9 18  1  0
  9 19  1  0
  9 20  1  0
 10 11  2  3
 10 21  1  0
 11 12  1  0
 11 22  1  0
 12 13  1  0
 12 17  1  0
 12 23  1  0
 13 14  1  0
 13 24  1  0
 14 15  2  0
 14 25  1  0
 15 16  1  0
 15 26  1  0
 16 17  2  0
 16 27  1  0
 17 29  1  0
M  RAD  1  13   2
M  END
>  <reaction>  (25) 
rmg_rxn_15723

>  <mol_properties>  (25) 
{"0": {"label": "*3", "atom_type": "Cs"}, "1": {"label": "*4", "atom_type": "O2s"}, "11": {"label": "*0", "atom_type": "Cs"}, "16": {"label": "*1", "atom_type": "Cs"}, "27": {"label": "*2", "atom_type": "H0"}}

>  <type>  (25) 
unop_21

>  <geom_source>  (25) 
Heuristics

$$$$

     RDKit          3D

 29 28  0  0  0  0  0  0  0  0999 V2000
   -1.7935   -0.7651   -0.0922 C   0  0  0  0  0  0  0  0  0  0  0  0
   -2.6916    0.3257   -0.0341 O   0  0  0  0  0  0  0  0  0  0  0  0
   -3.9837   -0.1327   -0.1294 N   0  0  0  0  0  0  0  0  0  0  0  0
   -4.8254    0.8086   -0.0821 C   0  0  0  0  0  0  0  0  0  0  0  0
   -1.9646   -1.4566    0.7359 H   0  0  0  0  0  0  0  0  0  0  0  0
   -1.8892   -1.2998   -1.0399 H   0  0  0  0  0  0  0  0  0  0  0  0
   -5.8685    0.5302   -0.1510 H   0  0  0  0  0  0  0  0  0  0  0  0
   -4.5334    1.8514    0.0223 H   0  0  0  0  0  0  0  0  0  0  0  0
    1.5742   -1.7593   -3.1808 C   0  0  0  0  0  0  0  0  0  0  0  0
    1.5742   -1.7593   -1.6857 C   0  0  0  0  0  0  0  0  0  0  0  0
    1.5742   -0.6754   -0.9233 C   0  0  0  0  0  0  0  0  0  0  0  0
    1.5868   -0.6840    0.5833 C   0  0  0  0  0  0  0  0  0  0  0  0
    2.8570   -0.0161    1.0595 C   0  0  0  0  0  3  0  0  0  0  0  0
    2.8843    1.2859    1.3412 C   0  0  0  0  0  0  0  0  0  0  0  0
    1.6696    2.0965    1.2541 C   0  0  0  0  0  0  0  0  0  0  0  0
    0.4757    1.5136    1.1597 C   0  0  0  0  0  0  0  0  0  0  0  0
    0.3551    0.0166    1.1795 C   0  0  0  0  0  0  0  0  0  0  0  0
    1.5695   -0.7435   -3.5779 H   0  0  0  0  0  0  0  0  0  0  0  0
    2.4550   -2.2751   -3.5721 H   0  0  0  0  0  0  0  0  0  0  0  0
    0.6992   -2.2845   -3.5727 H   0  0  0  0  0  0  0  0  0  0  0  0
    1.5753   -2.7355   -1.2043 H   0  0  0  0  0  0  0  0  0  0  0  0
    1.5785    0.3091   -1.3873 H   0  0  0  0  0  0  0  0  0  0  0  0
    1.5817   -1.7256    0.9128 H   0  0  0  0  0  0  0  0  0  0  0  0
    3.7638   -0.6090    1.0802 H   0  0  0  0  0  0  0  0  0  0  0  0
    3.8133    1.7683    1.6203 H   0  0  0  0  0  0  0  0  0  0  0  0
    1.7586    3.1756    1.2841 H   0  0  0  0  0  0  0  0  0  0  0  0
   -0.4289    2.1089    1.1212 H   0  0  0  0  0  0  0  0  0  0  0  0
   -0.7207   -0.3748    0.5428 H   0  0  0  0  0  0  0  0  0  0  0  0
    0.2328   -0.3016    2.2233 H   0  0  0  0  0  0  0  0  0  0  0  0
  1  2  1  0
  1  5  1  0
  1  6  1  0
  1 28  1  0
  2  3  1  0
  3  4  2  3
  4  7  1  0
  4  8  1  0
  9 10  1  0
  9 18  1  0
  9 19  1  0
  9 20  1  0
 10 11  2  3
 10 21  1  0
 11 12  1  0
 11 22  1  0
 12 13  1  0
 12 17  1  0
 12 23  1  0
 13 14  1  0
 13 24  1  0
 14 15  2  0
 14 25  1  0
 15 16  1  0
 15 26  1  0
 16 17  2  0
 16 27  1  0
 17 29  1  0
M  RAD  1  13   2
M  END
>  <reaction>  (26) 
rmg_rxn_15723

>  <mol_properties>  (26) 
{"0": {"label": "*3", "atom_type": "Cs"}, "1": {"label": "*4", "atom_type": "O2s"}, "11": {"label": "*0", "atom_type": "Cs"}, "16": {"label": "*1", "atom_type": "Cs"}, "27": {"label": "*2", "atom_type": "H0"}}

>  <type>  (26) 
unop_22

>  <geom_source>  (26) 
Heuristics

$$$$

     RDKit          3D

 29 28  0  0  0  0  0  0  0  0999 V2000
   -2.2546   -0.1299    0.3393 C   0  0  0  0  0  0  0  0  0  0  0  0
   -1.8079   -1.0461   -0.6408 O   0  0  0  0  0  0  0  0  0  0  0  0
   -2.8808   -1.5117   -1.3627 N   0  0  0  0  0  0  0  0  0  0  0  0
   -2.5307   -2.3364   -2.2538 C   0  0  0  0  0  0  0  0  0  0  0  0
   -2.7440    0.7299   -0.1238 H   0  0  0  0  0  0  0  0  0  0  0  0
   -2.9439   -0.6098    1.0375 H   0  0  0  0  0  0  0  0  0  0  0  0
   -3.3193   -2.7507   -2.8676 H   0  0  0  0  0  0  0  0  0  0  0  0
   -1.4938   -2.6261   -2.4095 H   0  0  0  0  0  0  0  0  0  0  0  0
    1.1131   -1.1241   -2.7493 C   0  0  0  0  0  0  0  0  0  0  0  0
    1.1131   -1.1241   -1.2542 C   0  0  0  0  0  0  0  0  0  0  0  0
    1.1131   -0.0401   -0.4918 C   0  0  0  0  0  0  0  0  0  0  0  0
    1.1258   -0.0488    1.0148 C   0  0  0  0  0  0  0  0  0  0  0  0
    2.3960    0.6191    1.4910 C   0  0  0  0  0  3  0  0  0  0  0  0
    2.4232    1.9211    1.7727 C   0  0  0  0  0  0  0  0  0  0  0  0
    1.2086    2.7317    1.6855 C   0  0  0  0  0  0  0  0  0  0  0  0
    0.0147    2.1489    1.5912 C   0  0  0  0  0  0  0  0  0  0  0  0
   -0.1059    0.6518    1.6110 C   0  0  0  0  0  0  0  0  0  0  0  0
    1.1085   -0.1083   -3.1465 H   0  0  0  0  0  0  0  0  0  0  0  0
    1.9940   -1.6399   -3.1406 H   0  0  0  0  0  0  0  0  0  0  0  0
    0.2382   -1.6492   -3.1413 H   0  0  0  0  0  0  0  0  0  0  0  0
    1.1143   -2.1003   -0.7728 H   0  0  0  0  0  0  0  0  0  0  0  0
    1.1175    0.9443   -0.9558 H   0  0  0  0  0  0  0  0  0  0  0  0
    1.1206   -1.0904    1.3442 H   0  0  0  0  0  0  0  0  0  0  0  0
    3.3028    0.0262    1.5117 H   0  0  0  0  0  0  0  0  0  0  0  0
    3.3523    2.4035    2.0518 H   0  0  0  0  0  0  0  0  0  0  0  0
    1.2976    3.8108    1.7156 H   0  0  0  0  0  0  0  0  0  0  0  0
   -0.8899    2.7442    1.5527 H   0  0  0  0  0  0  0  0  0  0  0  0
   -1.1817    0.2605    0.9743 H   0  0  0  0  0  0  0  0  0  0  0  0
   -0.2283    0.3336    2.6547 H   0  0  0  0  0  0  0  0  0  0  0  0
  1  2  1  0
  1  5  1  0
  1  6  1  0
  1 28  1  0
  2  3  1  0
  3  4  2  3
  4  7  1  0
  4  8  1  0
  9 10  1  0
  9 18  1  0
  9 19  1  0
  9 20  1  0
 10 11  2  3
 10 21  1  0
 11 12  1  0
 11 22  1  0
 12 13  1  0
 12 17  1  0
 12 23  1  0
 13 14  1  0
 13 24  1  0
 14 15  2  0
 14 25  1  0
 15 16  1  0
 15 26  1  0
 16 17  2  0
 16 27  1  0
 17 29  1  0
M  RAD  1  13   2
M  END
>  <reaction>  (27) 
rmg_rxn_15723

>  <mol_properties>  (27) 
{"0": {"label": "*3", "atom_type": "Cs"}, "1": {"label": "*4", "atom_type": "O2s"}, "11": {"label": "*0", "atom_type": "Cs"}, "16": {"label": "*1", "atom_type": "Cs"}, "27": {"label": "*2", "atom_type": "H0"}}

>  <type>  (27) 
unop_23

>  <geom_source>  (27) 
Heuristics

$$$$

     RDKit          3D

 29 28  0  0  0  0  0  0  0  0999 V2000
    0.6540   -2.7034   -0.8606 C   0  0  0  0  0  0  0  0  0  0  0  0
   -0.6070   -2.5067   -0.2758 O   0  0  0  0  0  0  0  0  0  0  0  0
   -0.5033   -1.7597    0.8842 N   0  0  0  0  0  0  0  0  0  0  0  0
   -1.5864   -1.4759    1.4577 C   0  0  0  0  0  0  0  0  0  0  0  0
    1.4113   -3.0235   -0.1717 H   0  0  0  0  0  0  0  0  0  0  0  0
    0.5214   -3.3802   -1.6946 H   0  0  0  0  0  0  0  0  0  0  0  0
   -1.5151   -0.8987    2.3625 H   0  0  0  0  0  0  0  0  0  0  0  0
   -2.5650   -1.7848    1.1044 H   0  0  0  0  0  0  0  0  0  0  0  0
    3.8124    0.0434    0.5304 C   0  0  0  0  0  0  0  0  0  0  0  0
    2.7568    0.9270   -0.0490 C   0  0  0  0  0  0  0  0  0  0  0  0
    1.4628    0.7816    0.1760 C   0  0  0  0  0  0  0  0  0  0  0  0
    0.3759    1.6524   -0.4325 C   0  0  0  0  0  0  0  0  0  0  0  0
   -0.3713    0.8430   -1.4431 C   0  0  0  0  0  3  0  0  0  0  0  0
   -1.6752    0.5065   -1.2886 C   0  0  0  0  0  0  0  0  0  0  0  0
   -2.4172    0.9493   -0.1829 C   0  0  0  0  0  0  0  0  0  0  0  0
   -1.8136    1.7968    0.7599 C   0  0  0  0  0  0  0  0  0  0  0  0
   -0.5136    2.1651    0.6513 C   0  0  0  0  0  0  0  0  0  0  0  0
    3.3711   -0.7234    1.1620 H   0  0  0  0  0  0  0  0  0  0  0  0
    4.3811   -0.4374   -0.2659 H   0  0  0  0  0  0  0  0  0  0  0  0
    4.5115    0.6309    1.1251 H   0  0  0  0  0  0  0  0  0  0  0  0
    3.1171    1.7246   -0.6880 H   0  0  0  0  0  0  0  0  0  0  0  0
    1.0896   -0.0140    0.8066 H   0  0  0  0  0  0  0  0  0  0  0  0
    0.8806    2.4942   -0.9340 H   0  0  0  0  0  0  0  0  0  0  0  0
    0.1933    0.5036   -2.2992 H   0  0  0  0  0  0  0  0  0  0  0  0
   -2.1614   -0.1096   -2.0322 H   0  0  0  0  0  0  0  0  0  0  0  0
   -3.4540    0.6724   -0.0780 H   0  0  0  0  0  0  0  0  0  0  0  0
   -2.4099    2.1713    1.5812 H   0  0  0  0  0  0  0  0  0  0  0  0
    1.1570   -1.7710   -1.1464 H   0  0  0  0  0  0  0  0  0  0  0  0
   -0.0568    2.8196    1.3789 H   0  0  0  0  0  0  0  0  0  0  0  0
  1  2  1  0
  1  5  1  0
  1  6  1  0
  1 28  1  0
  2  3  1  0
  3  4  2  3
  4  7  1  0
  4  8  1  0
  9 10  1  0
  9 18  1  0
  9 19  1  0
  9 20  1  0
 10 11  2  3
 10 21  1  0
 11 12  1  0
 11 22  1  0
 12 13  1  0
 12 17  1  0
 12 23  1  0
 13 14  1  0
 13 24  1  0
 14 15  2  0
 14 25  1  0
 15 16  1  0
 15 26  1  0
 16 17  2  0
 16 27  1  0
 17 29  1  0
M  RAD  1  13   2
M  END
>  <reaction>  (28) 
rmg_rxn_15723

>  <mol_properties>  (28) 
{"0": {"label": "*3", "atom_type": "Cs"}, "1": {"label": "*4", "atom_type": "O2s"}, "11": {"label": "*0", "atom_type": "Cs"}, "16": {"label": "*1", "atom_type": "Cs"}, "27": {"label": "*2", "atom_type": "H0"}}

>  <type>  (28) 
unop_24

>  <geom_source>  (28) 
Heuristics

$$$$

     RDKit          3D

 29 28  0  0  0  0  0  0  0  0999 V2000
    3.0616    0.6027   -0.4679 O   0  0  0  0  0  0  0  0  0  0  0  0
    4.3280    0.8340   -0.9546 N   0  0  0  0  0  0  0  0  0  0  0  0
   -1.4641   -0.6204   -0.0256 C   0  0  0  0  0  0  0  0  0  0  0  0
   -2.4725    3.1017   -0.3899 C   0  0  0  0  0  0  0  0  0  0  0  0
    2.2564   -0.4231   -1.0241 C   0  0  0  0  0  0  0  0  0  0  0  0
   -1.4210    0.8874   -0.0748 C   0  0  0  0  0  0  0  0  0  0  0  0
   -0.0388   -1.2076   -0.0824 C   0  0  0  0  0  3  0  0  0  0  0  0
   -2.1864   -1.1009    1.2153 C   0  0  0  0  0  0  0  0  0  0  0  0
   -2.5217    1.6062   -0.3389 C   0  0  0  0  0  0  0  0  0  0  0  0
   -0.0476   -2.6819    0.2210 C   0  0  0  0  0  0  0  0  0  0  0  0
   -1.9589   -2.3278    1.6988 C   0  0  0  0  0  0  0  0  0  0  0  0
   -0.9158   -3.1857    1.1045 C   0  0  0  0  0  0  0  0  0  0  0  0
    5.0643    1.7680   -0.4500 C   0  0  0  0  0  0  0  0  0  0  0  0
   -2.0138   -0.9934   -0.9179 H   0  0  0  0  0  0  0  0  0  0  0  0
   -1.7659    3.4307   -1.1810 H   0  0  0  0  0  0  0  0  0  0  0  0
   -3.4817    3.5021   -0.6207 H   0  0  0  0  0  0  0  0  0  0  0  0
   -2.1424    3.5035    0.5913 H   0  0  0  0  0  0  0  0  0  0  0  0
    2.7611   -1.4046   -0.9032 H   0  0  0  0  0  0  0  0  0  0  0  0
    2.0844   -0.2232   -2.1025 H   0  0  0  0  0  0  0  0  0  0  0  0
    1.1120   -0.4530   -0.4078 H   0  0  0  0  0  0  0  0  0  0  0  0
    0.6214   -0.7036    0.6574 H   0  0  0  0  0  0  0  0  0  0  0  0
   -2.9657   -0.4943    1.6614 H   0  0  0  0  0  0  0  0  0  0  0  0
   -0.4792    1.4036    0.0977 H   0  0  0  0  0  0  0  0  0  0  0  0
   -3.4693    1.1057   -0.5192 H   0  0  0  0  0  0  0  0  0  0  0  0
   -0.8609   -4.2306    1.3814 H   0  0  0  0  0  0  0  0  0  0  0  0
    0.7074   -3.3195   -0.2199 H   0  0  0  0  0  0  0  0  0  0  0  0
   -2.5446   -2.6981    2.5303 H   0  0  0  0  0  0  0  0  0  0  0  0
    6.0576    1.9401   -0.8410 H   0  0  0  0  0  0  0  0  0  0  0  0
    4.6961    2.3820    0.3624 H   0  0  0  0  0  0  0  0  0  0  0  0
  1  5  1  0
  1  2  1  0
  2 13  2  3
  3  6  1  0
  3  7  1  0
  3  8  1  0
  3 14  1  0
  4  9  1  0
  4 15  1  0
  4 16  1  0
  4 17  1  0
  5 18  1  0
  5 19  1  0
  5 20  1  0
  6  9  2  3
  6 23  1  0
  7 10  1  0
  7 21  1  0
  8 11  2  0
  8 22  1  0
  9 24  1  0
 10 12  2  0
 10 26  1  0
 11 12  1  0
 11 27  1  0
 12 25  1  0
 13 28  1  0
 13 29  1  0
M  RAD  1   7   2
M  END
>  <reaction>  (29) 
rmg_rxn_15723

>  <mol_properties>  (29) 
{"0": {"label": "*3", "atom_type": "Cs"}, "1": {"label": "*4", "atom_type": "O2s"}, "11": {"label": "*0", "atom_type": "Cs"}, "16": {"label": "*1", "atom_type": "Cs"}, "27": {"label": "*2", "atom_type": "H0"}}

>  <type>  (29) 
unop_25

>  <geom_source>  (29) 
AutoTST

$$$$

     RDKit          3D

 29 28  0  0  0  0  0  0  0  0999 V2000
   -2.1806    0.0259    0.0967 C   0  0  0  0  0  0  0  0  0  0  0  0
   -1.9123   -1.2939   -0.3341 O   0  0  0  0  0  0  0  0  0  0  0  0
   -3.0917   -1.9307   -0.6379 N   0  0  0  0  0  0  0  0  0  0  0  0
   -2.9028   -3.1173   -1.0291 C   0  0  0  0  0  0  0  0  0  0  0  0
   -2.6774    0.5999   -0.6888 H   0  0  0  0  0  0  0  0  0  0  0  0
   -2.8009    0.0249    0.9958 H   0  0  0  0  0  0  0  0  0  0  0  0
   -3.7841   -3.6884   -1.2886 H   0  0  0  0  0  0  0  0  0  0  0  0
   -1.9112   -3.5580   -1.1068 H   0  0  0  0  0  0  0  0  0  0  0  0
    1.1871   -0.9683   -2.9918 C   0  0  0  0  0  0  0  0  0  0  0  0
    1.1871   -0.9683   -1.4968 C   0  0  0  0  0  0  0  0  0  0  0  0
    1.1871    0.1157   -0.7344 C   0  0  0  0  0  0  0  0  0  0  0  0
    1.1997    0.1070    0.7722 C   0  0  0  0  0  0  0  0  0  0  0  0
    2.4699    0.7749    1.2484 C   0  0  0  0  0  3  0  0  0  0  0  0
    2.4972    2.0769    1.5301 C   0  0  0  0  0  0  0  0  0  0  0  0
    1.2825    2.8875    1.4429 C   0  0  0  0  0  0  0  0  0  0  0  0
    0.0886    2.3047    1.3486 C   0  0  0  0  0  0  0  0  0  0  0  0
   -0.0319    0.8076    1.3684 C   0  0  0  0  0  0  0  0  0  0  0  0
    1.1824    0.0475   -3.3891 H   0  0  0  0  0  0  0  0  0  0  0  0
    2.0679   -1.4841   -3.3832 H   0  0  0  0  0  0  0  0  0  0  0  0
    0.3121   -1.4935   -3.3838 H   0  0  0  0  0  0  0  0  0  0  0  0
    1.1882   -1.9445   -1.0154 H   0  0  0  0  0  0  0  0  0  0  0  0
    1.1914    1.1001   -1.1984 H   0  0  0  0  0  0  0  0  0  0  0  0
    1.1946   -0.9346    1.1017 H   0  0  0  0  0  0  0  0  0  0  0  0
    3.3767    0.1820    1.2691 H   0  0  0  0  0  0  0  0  0  0  0  0
    3.4262    2.5593    1.8092 H   0  0  0  0  0  0  0  0  0  0  0  0
    1.3715    3.9666    1.4730 H   0  0  0  0  0  0  0  0  0  0  0  0
   -0.8159    2.9000    1.3101 H   0  0  0  0  0  0  0  0  0  0  0  0
   -1.1078    0.4163    0.7317 H   0  0  0  0  0  0  0  0  0  0  0  0
   -0.1543    0.4894    2.4122 H   0  0  0  0  0  0  0  0  0  0  0  0
  1  2  1  0
  1  5  1  0
  1  6  1  0
  1 28  1  0
  2  3  1  0
  3  4  2  3
  4  7  1  0
  4  8  1  0
  9 10  1  0
  9 18  1  0
  9 19  1  0
  9 20  1  0
 10 11  2  3
 10 21  1  0
 11 12  1  0
 11 22  1  0
 12 13  1  0
 12 17  1  0
 12 23  1  0
 13 14  1  0
 13 24  1  0
 14 15  2  0
 14 25  1  0
 15 16  1  0
 15 26  1  0
 16 17  2  0
 16 27  1  0
 17 29  1  0
M  RAD  1  13   2
M  END
>  <reaction>  (30) 
rmg_rxn_15723

>  <mol_properties>  (30) 
{"0": {"label": "*3", "atom_type": "Cs"}, "1": {"label": "*4", "atom_type": "O2s"}, "11": {"label": "*0", "atom_type": "Cs"}, "16": {"label": "*1", "atom_type": "Cs"}, "27": {"label": "*2", "atom_type": "H0"}}

>  <type>  (30) 
unop_26

>  <geom_source>  (30) 
gaussian_log

$$$$
