
     RDKit          3D

  5  4  0  0  0  0  0  0  0  0999 V2000
    0.7361   -0.2872    0.4035 N   0  0  0  0  0  2  0  0  0  0  0  0
   -0.3891   -0.1505   -0.3131 N   0  0  0  0  0  0  0  0  0  0  0  0
    1.4909    0.0686   -0.1831 H   0  0  0  0  0  0  0  0  0  0  0  0
   -1.1819   -0.6340    0.0744 H   0  0  0  0  0  0  0  0  0  0  0  0
   -0.3592   -0.1189   -1.3223 H   0  0  0  0  0  0  0  0  0  0  0  0
  1  2  1  0
  1  3  1  0
  2  4  1  0
  2  5  1  0
M  RAD  1   1   2
M  END
>  <reaction>  (1) 
rmg_rxn_208

>  <mol_properties>  (1) 
{"0": {"label": "donator", "atom_type": "N3s"}, "2": {"label": "d_hydrogen", "atom_type": "H0"}}

>  <type>  (1) 
r1h

$$$$

     RDKit          3D

 17 16  0  0  0  0  0  0  0  0999 V2000
    2.3993   -0.7259   -0.8796 C   0  0  0  0  0  0  0  0  0  0  0  0
    1.8173   -0.7170    0.4851 C   0  0  0  0  0  3  0  0  0  0  0  0
    2.6779   -0.5182    1.6852 C   0  0  0  0  0  0  0  0  0  0  0  0
    3.8710   -1.2723    1.6674 O   0  0  0  0  0  0  0  0  0  0  0  0
    3.6589   -2.6587    1.8015 C   0  0  0  0  0  0  0  0  0  0  0  0
    4.9969   -3.3586    1.7556 C   0  0  0  0  0  0  0  0  0  0  0  0
    3.3755   -1.2152   -0.8894 H   0  0  0  0  0  0  0  0  0  0  0  0
    1.7457   -1.2284   -1.5943 H   0  0  0  0  0  0  0  0  0  0  0  0
    2.5578    0.2962   -1.2545 H   0  0  0  0  0  0  0  0  0  0  0  0
    0.7445   -0.6275    0.6059 H   0  0  0  0  0  0  0  0  0  0  0  0
    2.1057   -0.7316    2.5992 H   0  0  0  0  0  0  0  0  0  0  0  0
    3.0103    0.5272    1.7516 H   0  0  0  0  0  0  0  0  0  0  0  0
    3.0050   -3.0235    0.9977 H   0  0  0  0  0  0  0  0  0  0  0  0
    3.1469   -2.8645    2.7531 H   0  0  0  0  0  0  0  0  0  0  0  0
    5.6430   -3.0039    2.5594 H   0  0  0  0  0  0  0  0  0  0  0  0
    4.8641   -4.4360    1.8660 H   0  0  0  0  0  0  0  0  0  0  0  0
    5.4957   -3.1672    0.8046 H   0  0  0  0  0  0  0  0  0  0  0  0
  1  2  1  0
  1  7  1  0
  1  8  1  0
  1  9  1  0
  2  3  1  0
  2 10  1  0
  3  4  1  0
  3 11  1  0
  3 12  1  0
  4  5  1  0
  5  6  1  0
  5 13  1  0
  5 14  1  0
  6 15  1  0
  6 16  1  0
  6 17  1  0
M  RAD  1   2   2
M  END
>  <reaction>  (2) 
rmg_rxn_208

>  <mol_properties>  (2) 
{"1": {"label": "acceptor", "atom_type": "Cs"}}

>  <type>  (2) 
r2

$$$$

     RDKit          3D

 18 17  0  0  0  0  0  0  0  0999 V2000
    2.2026   -0.7213   -0.2612 C   0  0  0  0  0  0  0  0  0  0  0  0
    1.5384    0.2638    0.6915 C   0  0  0  0  0  0  0  0  0  0  0  0
    2.2584    1.5946    0.7694 C   0  0  0  0  0  0  0  0  0  0  0  0
    2.2212    2.2185   -0.4893 O   0  0  0  0  0  0  0  0  0  0  0  0
    2.8988    3.4488   -0.5204 C   0  0  0  0  0  0  0  0  0  0  0  0
    2.7981    4.0296   -1.9118 C   0  0  0  0  0  0  0  0  0  0  0  0
    3.2294   -0.9309    0.0486 H   0  0  0  0  0  0  0  0  0  0  0  0
    2.2338   -0.3181   -1.2734 H   0  0  0  0  0  0  0  0  0  0  0  0
    1.6610   -1.6680   -0.2875 H   0  0  0  0  0  0  0  0  0  0  0  0
    1.4990   -0.1566    1.7002 H   0  0  0  0  0  0  0  0  0  0  0  0
    0.5055    0.4455    0.3835 H   0  0  0  0  0  0  0  0  0  0  0  0
    3.3038    1.4410    1.0808 H   0  0  0  0  0  0  0  0  0  0  0  0
    1.7844    2.2410    1.5226 H   0  0  0  0  0  0  0  0  0  0  0  0
    2.4596    4.1376    0.2164 H   0  0  0  0  0  0  0  0  0  0  0  0
    3.9524    3.3035   -0.2397 H   0  0  0  0  0  0  0  0  0  0  0  0
    1.7543    4.1869   -2.1856 H   0  0  0  0  0  0  0  0  0  0  0  0
    3.2472    3.3545   -2.6411 H   0  0  0  0  0  0  0  0  0  0  0  0
    3.3178    4.9878   -1.9600 H   0  0  0  0  0  0  0  0  0  0  0  0
  1  2  1  0
  1  7  1  0
  1  8  1  0
  1  9  1  0
  2  3  1  0
  2 10  1  0
  2 11  1  0
  3  4  1  0
  3 12  1  0
  3 13  1  0
  4  5  1  0
  5  6  1  0
  5 14  1  0
  5 15  1  0
  6 16  1  0
  6 17  1  0
  6 18  1  0
M  END
>  <reaction>  (3) 
rmg_rxn_208

>  <mol_properties>  (3) 
{"0": {"label": "a_hydrogen", "atom_type": "H0"}, "2": {"label": "acceptor", "atom_type": "Cs"}}

>  <type>  (3) 
r2h

$$$$

     RDKit          3D

 22 20  0  0  0  0  0  0  0  0999 V2000
   -0.6383   -2.7909   -1.0765 N   0  0  0  0  0  2  0  0  0  0  0  0
   -0.8591   -2.7246   -2.3962 N   0  0  0  0  0  0  0  0  0  0  0  0
   -0.7829   -1.6624   -0.6906 H   0  0  0  0  0  0  0  0  0  0  0  0
   -0.5335   -3.5326   -2.9060 H   0  0  0  0  0  0  0  0  0  0  0  0
   -0.7064   -1.8430   -2.8709 H   0  0  0  0  0  0  0  0  0  0  0  0
   -0.8688    0.4913   -1.6554 C   0  0  0  0  0  0  0  0  0  0  0  0
   -0.8836   -0.2950   -0.3764 C   0  0  0  0  0  3  0  0  0  0  0  0
    0.2956   -0.1132    0.5317 C   0  0  0  0  0  0  0  0  0  0  0  0
    0.3170    1.2153    1.0100 O   0  0  0  0  0  0  0  0  0  0  0  0
    1.3965    1.4707    1.8752 C   0  0  0  0  0  0  0  0  0  0  0  0
    1.3331    2.9120    2.3246 C   0  0  0  0  0  0  0  0  0  0  0  0
    0.0573    0.3230   -2.2145 H   0  0  0  0  0  0  0  0  0  0  0  0
   -1.7190    0.2416   -2.2938 H   0  0  0  0  0  0  0  0  0  0  0  0
   -0.9204    1.5648   -1.4476 H   0  0  0  0  0  0  0  0  0  0  0  0
   -1.8387   -0.2777    0.1467 H   0  0  0  0  0  0  0  0  0  0  0  0
    1.2277   -0.3274   -0.0139 H   0  0  0  0  0  0  0  0  0  0  0  0
    0.2400   -0.8164    1.3737 H   0  0  0  0  0  0  0  0  0  0  0  0
    2.3462    1.2700    1.3580 H   0  0  0  0  0  0  0  0  0  0  0  0
    1.3501    0.7948    2.7414 H   0  0  0  0  0  0  0  0  0  0  0  0
    0.3970    3.1080    2.8485 H   0  0  0  0  0  0  0  0  0  0  0  0
    2.1614    3.1340    2.9992 H   0  0  0  0  0  0  0  0  0  0  0  0
    1.3950    3.5832    1.4672 H   0  0  0  0  0  0  0  0  0  0  0  0
  1  2  1  0
  1  3  1  0
  2  4  1  0
  2  5  1  0
  6  7  1  0
  6 12  1  0
  6 13  1  0
  6 14  1  0
  7  8  1  0
  7 15  1  0
  8  9  1  0
  8 16  1  0
  8 17  1  0
  9 10  1  0
 10 11  1  0
 10 18  1  0
 10 19  1  0
 11 20  1  0
 11 21  1  0
 11 22  1  0
M  RAD  2   1   2   7   2
M  END
>  <reaction>  (4) 
rmg_rxn_208

>  <mol_properties>  (4) 
{"0": {"label": "*1", "atom_type": "N3s"}, "1": {"label": "*0", "atom_type": "N3s"}, "2": {"label": "*2", "atom_type": "H0"}, "6": {"label": "*3", "atom_type": "Cs"}, "7": {"label": "*4", "atom_type": "Cs"}}

>  <type>  (4) 
ts

$$$$

     RDKit          3D

 22 20  0  0  0  0  0  0  0  0999 V2000
   -0.5391   -3.1883   -0.5715 N   0  0  0  0  0  2  0  0  0  0  0  0
   -0.5391   -3.1883   -1.9125 N   0  0  0  0  0  0  0  0  0  0  0  0
   -0.5391   -2.0125   -0.2313 H   0  0  0  0  0  0  0  0  0  0  0  0
   -0.3512   -4.0882   -2.3214 H   0  0  0  0  0  0  0  0  0  0  0  0
   -0.1772   -2.3998   -2.4300 H   0  0  0  0  0  0  0  0  0  0  0  0
   -1.7775   -0.4473    0.9659 C   0  0  0  0  0  0  0  0  0  0  0  0
   -0.5391   -0.7519    0.1335 C   0  0  0  0  0  3  0  0  0  0  0  0
    0.0983    0.4871   -0.4613 C   0  0  0  0  0  0  0  0  0  0  0  0
    0.5485    1.3224    0.5753 O   0  0  0  0  0  0  0  0  0  0  0  0
    1.1249    2.5182    0.1154 C   0  0  0  0  0  0  0  0  0  0  0  0
    1.5712    3.3372    1.3043 C   0  0  0  0  0  0  0  0  0  0  0  0
   -2.5419    0.0465    0.3608 H   0  0  0  0  0  0  0  0  0  0  0  0
   -2.2118   -1.3617    1.3728 H   0  0  0  0  0  0  0  0  0  0  0  0
   -1.5308    0.2125    1.7977 H   0  0  0  0  0  0  0  0  0  0  0  0
    0.2066   -1.2667    0.7447 H   0  0  0  0  0  0  0  0  0  0  0  0
   -0.6323    1.0253   -1.0857 H   0  0  0  0  0  0  0  0  0  0  0  0
    0.9408    0.2081   -1.1109 H   0  0  0  0  0  0  0  0  0  0  0  0
    0.3942    3.0794   -0.4856 H   0  0  0  0  0  0  0  0  0  0  0  0
    1.9797    2.2948   -0.5402 H   0  0  0  0  0  0  0  0  0  0  0  0
    2.3060    2.7870    1.8932 H   0  0  0  0  0  0  0  0  0  0  0  0
    2.0236    4.2724    0.9709 H   0  0  0  0  0  0  0  0  0  0  0  0
    0.7219    3.5724    1.9468 H   0  0  0  0  0  0  0  0  0  0  0  0
  1  2  1  0
  1  3  1  0
  2  4  1  0
  2  5  1  0
  6  7  1  0
  6 12  1  0
  6 13  1  0
  6 14  1  0
  7  8  1  0
  7 15  1  0
  8  9  1  0
  8 16  1  0
  8 17  1  0
  9 10  1  0
 10 11  1  0
 10 18  1  0
 10 19  1  0
 11 20  1  0
 11 21  1  0
 11 22  1  0
M  RAD  2   1   2   7   2
M  END
>  <reaction>  (5) 
rmg_rxn_208

>  <mol_properties>  (5) 
{"0": {"label": "*1", "atom_type": "N3s"}, "1": {"label": "*0", "atom_type": "N3s"}, "2": {"label": "*2", "atom_type": "H0"}, "6": {"label": "*3", "atom_type": "Cs"}, "7": {"label": "*4", "atom_type": "Cs"}}

>  <type>  (5) 
unop_1

>  <geom_source>  (5) 
Heuristics

$$$$

     RDKit          3D

 22 20  0  0  0  0  0  0  0  0999 V2000
   -0.6259   -3.0295   -0.9416 N   0  0  0  0  0  2  0  0  0  0  0  0
   -0.6259   -3.0295   -2.2826 N   0  0  0  0  0  0  0  0  0  0  0  0
   -0.6259   -1.8538   -0.6014 H   0  0  0  0  0  0  0  0  0  0  0  0
   -0.4379   -3.9295   -2.6914 H   0  0  0  0  0  0  0  0  0  0  0  0
   -0.2639   -2.2411   -2.8001 H   0  0  0  0  0  0  0  0  0  0  0  0
   -1.3408    0.2544   -1.2805 C   0  0  0  0  0  0  0  0  0  0  0  0
   -0.6259   -0.5932   -0.2366 C   0  0  0  0  0  3  0  0  0  0  0  0
    0.6268    0.0629    0.3070 C   0  0  0  0  0  0  0  0  0  0  0  0
    0.2790    1.2504    0.9732 O   0  0  0  0  0  0  0  0  0  0  0  0
    1.3873    1.9478    1.4819 C   0  0  0  0  0  0  0  0  0  0  0  0
    0.9034    3.2013    2.1734 C   0  0  0  0  0  0  0  0  0  0  0  0
   -0.6881    0.4537   -2.1341 H   0  0  0  0  0  0  0  0  0  0  0  0
   -2.2332   -0.2511   -1.6525 H   0  0  0  0  0  0  0  0  0  0  0  0
   -1.6427    1.2130   -0.8586 H   0  0  0  0  0  0  0  0  0  0  0  0
   -1.2977   -0.8047    0.5993 H   0  0  0  0  0  0  0  0  0  0  0  0
    1.3245    0.2854   -0.5160 H   0  0  0  0  0  0  0  0  0  0  0  0
    1.1441   -0.6177    0.9991 H   0  0  0  0  0  0  0  0  0  0  0  0
    2.0777    2.2020    0.6641 H   0  0  0  0  0  0  0  0  0  0  0  0
    1.9411    1.3096    2.1863 H   0  0  0  0  0  0  0  0  0  0  0  0
    0.2296    2.9496    2.9932 H   0  0  0  0  0  0  0  0  0  0  0  0
    1.7486    3.7603    2.5780 H   0  0  0  0  0  0  0  0  0  0  0  0
    0.3676    3.8420    1.4721 H   0  0  0  0  0  0  0  0  0  0  0  0
  1  2  1  0
  1  3  1  0
  2  4  1  0
  2  5  1  0
  6  7  1  0
  6 12  1  0
  6 13  1  0
  6 14  1  0
  7  8  1  0
  7 15  1  0
  8  9  1  0
  8 16  1  0
  8 17  1  0
  9 10  1  0
 10 11  1  0
 10 18  1  0
 10 19  1  0
 11 20  1  0
 11 21  1  0
 11 22  1  0
M  RAD  2   1   2   7   2
M  END
>  <reaction>  (6) 
rmg_rxn_208

>  <mol_properties>  (6) 
{"0": {"label": "*1", "atom_type": "N3s"}, "1": {"label": "*0", "atom_type": "N3s"}, "2": {"label": "*2", "atom_type": "H0"}, "6": {"label": "*3", "atom_type": "Cs"}, "7": {"label": "*4", "atom_type": "Cs"}}

>  <type>  (6) 
unop_2

>  <geom_source>  (6) 
Heuristics

$$$$

     RDKit          3D

 22 20  0  0  0  0  0  0  0  0999 V2000
   -0.1383   -3.2947   -0.1955 N   0  0  0  0  0  2  0  0  0  0  0  0
   -0.1383   -3.2947   -1.5365 N   0  0  0  0  0  0  0  0  0  0  0  0
   -0.1383   -2.1190    0.1447 H   0  0  0  0  0  0  0  0  0  0  0  0
    0.0497   -4.1947   -1.9454 H   0  0  0  0  0  0  0  0  0  0  0  0
    0.2237   -2.5063   -2.0540 H   0  0  0  0  0  0  0  0  0  0  0  0
   -0.8533   -0.6993    1.8447 C   0  0  0  0  0  0  0  0  0  0  0  0
   -0.1383   -0.8584    0.5095 C   0  0  0  0  0  3  0  0  0  0  0  0
   -0.2745    0.3550   -0.3874 C   0  0  0  0  0  0  0  0  0  0  0  0
    0.3379    1.4601    0.2281 O   0  0  0  0  0  0  0  0  0  0  0  0
    0.2290    2.6442   -0.5199 C   0  0  0  0  0  0  0  0  0  0  0  0
    0.9159    3.7627    0.2288 C   0  0  0  0  0  0  0  0  0  0  0  0
   -1.9227   -0.5298    1.6962 H   0  0  0  0  0  0  0  0  0  0  0  0
   -0.7383   -1.5924    2.4605 H   0  0  0  0  0  0  0  0  0  0  0  0
   -0.4531    0.1503    2.3980 H   0  0  0  0  0  0  0  0  0  0  0  0
    0.9250   -1.0510    0.6738 H   0  0  0  0  0  0  0  0  0  0  0  0
   -1.3388    0.5710   -0.5720 H   0  0  0  0  0  0  0  0  0  0  0  0
    0.1940    0.1621   -1.3636 H   0  0  0  0  0  0  0  0  0  0  0  0
   -0.8312    2.8867   -0.6854 H   0  0  0  0  0  0  0  0  0  0  0  0
    0.6877    2.5060   -1.5102 H   0  0  0  0  0  0  0  0  0  0  0  0
    1.9702    3.5294    0.3813 H   0  0  0  0  0  0  0  0  0  0  0  0
    0.8446    4.6944   -0.3345 H   0  0  0  0  0  0  0  0  0  0  0  0
    0.4517    3.9110    1.2045 H   0  0  0  0  0  0  0  0  0  0  0  0
  1  2  1  0
  1  3  1  0
  2  4  1  0
  2  5  1  0
  6  7  1  0
  6 12  1  0
  6 13  1  0
  6 14  1  0
  7  8  1  0
  7 15  1  0
  8  9  1  0
  8 16  1  0
  8 17  1  0
  9 10  1  0
 10 11  1  0
 10 18  1  0
 10 19  1  0
 11 20  1  0
 11 21  1  0
 11 22  1  0
M  RAD  2   1   2   7   2
M  END
>  <reaction>  (7) 
rmg_rxn_208

>  <mol_properties>  (7) 
{"0": {"label": "*1", "atom_type": "N3s"}, "1": {"label": "*0", "atom_type": "N3s"}, "2": {"label": "*2", "atom_type": "H0"}, "6": {"label": "*3", "atom_type": "Cs"}, "7": {"label": "*4", "atom_type": "Cs"}}

>  <type>  (7) 
unop_3

>  <geom_source>  (7) 
Heuristics

$$$$

     RDKit          3D

 22 20  0  0  0  0  0  0  0  0999 V2000
   -0.4841   -1.9878   -1.7442 N   0  0  0  0  0  2  0  0  0  0  0  0
   -0.4841   -1.9878   -3.0852 N   0  0  0  0  0  0  0  0  0  0  0  0
   -0.4841   -0.8121   -1.4040 H   0  0  0  0  0  0  0  0  0  0  0  0
   -0.2962   -2.8878   -3.4941 H   0  0  0  0  0  0  0  0  0  0  0  0
   -0.1221   -1.1994   -3.6027 H   0  0  0  0  0  0  0  0  0  0  0  0
    0.7542    1.1506   -1.5804 C   0  0  0  0  0  0  0  0  0  0  0  0
   -0.4841    0.4485   -1.0393 C   0  0  0  0  0  3  0  0  0  0  0  0
   -0.2660   -0.1784    0.3226 C   0  0  0  0  0  0  0  0  0  0  0  0
    0.0235    0.8295    1.2582 O   0  0  0  0  0  0  0  0  0  0  0  0
    0.2765    0.3347    2.5484 C   0  0  0  0  0  0  0  0  0  0  0  0
    0.5755    1.4949    3.4693 C   0  0  0  0  0  0  0  0  0  0  0  0
    1.5869    0.4499   -1.6805 H   0  0  0  0  0  0  0  0  0  0  0  0
    0.5619    1.5843   -2.5628 H   0  0  0  0  0  0  0  0  0  0  0  0
    1.0684    1.9505   -0.9100 H   0  0  0  0  0  0  0  0  0  0  0  0
   -1.3148    1.1552   -0.9671 H   0  0  0  0  0  0  0  0  0  0  0  0
    0.5662   -0.8987    0.2782 H   0  0  0  0  0  0  0  0  0  0  0  0
   -1.1626   -0.7337    0.6348 H   0  0  0  0  0  0  0  0  0  0  0  0
    1.1257   -0.3640    2.5219 H   0  0  0  0  0  0  0  0  0  0  0  0
   -0.5954   -0.2295    2.9115 H   0  0  0  0  0  0  0  0  0  0  0  0
   -0.2714    2.1809    3.5070 H   0  0  0  0  0  0  0  0  0  0  0  0
    0.7750    1.1340    4.4796 H   0  0  0  0  0  0  0  0  0  0  0  0
    1.4491    2.0456    3.1189 H   0  0  0  0  0  0  0  0  0  0  0  0
  1  2  1  0
  1  3  1  0
  2  4  1  0
  2  5  1  0
  6  7  1  0
  6 12  1  0
  6 13  1  0
  6 14  1  0
  7  8  1  0
  7 15  1  0
  8  9  1  0
  8 16  1  0
  8 17  1  0
  9 10  1  0
 10 11  1  0
 10 18  1  0
 10 19  1  0
 11 20  1  0
 11 21  1  0
 11 22  1  0
M  RAD  2   1   2   7   2
M  END
>  <reaction>  (8) 
rmg_rxn_208

>  <mol_properties>  (8) 
{"0": {"label": "*1", "atom_type": "N3s"}, "1": {"label": "*0", "atom_type": "N3s"}, "2": {"label": "*2", "atom_type": "H0"}, "6": {"label": "*3", "atom_type": "Cs"}, "7": {"label": "*4", "atom_type": "Cs"}}

>  <type>  (8) 
unop_4

>  <geom_source>  (8) 
Heuristics

$$$$

     RDKit          3D

 22 20  0  0  0  0  0  0  0  0999 V2000
    0.8386   -3.0426   -0.2191 N   0  0  0  0  0  2  0  0  0  0  0  0
    0.8386   -3.0426   -1.5601 N   0  0  0  0  0  0  0  0  0  0  0  0
    0.8386   -1.8669    0.1212 H   0  0  0  0  0  0  0  0  0  0  0  0
    1.0266   -3.9426   -1.9689 H   0  0  0  0  0  0  0  0  0  0  0  0
    1.2006   -2.2542   -2.0775 H   0  0  0  0  0  0  0  0  0  0  0  0
    0.8386   -0.5004    2.0051 C   0  0  0  0  0  0  0  0  0  0  0  0
    0.8386   -0.6063    0.4859 C   0  0  0  0  0  3  0  0  0  0  0  0
   -0.3574    0.0648   -0.1578 C   0  0  0  0  0  0  0  0  0  0  0  0
   -0.3205    1.4430    0.1146 O   0  0  0  0  0  0  0  0  0  0  0  0
   -1.4159    2.1443   -0.4164 C   0  0  0  0  0  0  0  0  0  0  0  0
   -1.2780    3.6079   -0.0665 C   0  0  0  0  0  0  0  0  0  0  0  0
   -0.0552   -0.9657    2.4281 H   0  0  0  0  0  0  0  0  0  0  0  0
    1.7097   -0.9984    2.4335 H   0  0  0  0  0  0  0  0  0  0  0  0
    0.8536    0.5432    2.3194 H   0  0  0  0  0  0  0  0  0  0  0  0
    1.7488   -0.1587    0.0785 H   0  0  0  0  0  0  0  0  0  0  0  0
   -1.2908   -0.3698    0.2337 H   0  0  0  0  0  0  0  0  0  0  0  0
   -0.3494   -0.1030   -1.2448 H   0  0  0  0  0  0  0  0  0  0  0  0
   -2.3537    1.7383   -0.0093 H   0  0  0  0  0  0  0  0  0  0  0  0
   -1.4528    2.0118   -1.5079 H   0  0  0  0  0  0  0  0  0  0  0  0
   -0.3552    4.0147   -0.4815 H   0  0  0  0  0  0  0  0  0  0  0  0
   -2.1191    4.1739   -0.4699 H   0  0  0  0  0  0  0  0  0  0  0  0
   -1.2570    3.7418    1.0156 H   0  0  0  0  0  0  0  0  0  0  0  0
  1  2  1  0
  1  3  1  0
  2  4  1  0
  2  5  1  0
  6  7  1  0
  6 12  1  0
  6 13  1  0
  6 14  1  0
  7  8  1  0
  7 15  1  0
  8  9  1  0
  8 16  1  0
  8 17  1  0
  9 10  1  0
 10 11  1  0
 10 18  1  0
 10 19  1  0
 11 20  1  0
 11 21  1  0
 11 22  1  0
M  RAD  2   1   2   7   2
M  END
>  <reaction>  (9) 
rmg_rxn_208

>  <mol_properties>  (9) 
{"0": {"label": "*1", "atom_type": "N3s"}, "1": {"label": "*0", "atom_type": "N3s"}, "2": {"label": "*2", "atom_type": "H0"}, "6": {"label": "*3", "atom_type": "Cs"}, "7": {"label": "*4", "atom_type": "Cs"}}

>  <type>  (9) 
unop_5

>  <geom_source>  (9) 
Heuristics

$$$$

     RDKit          3D

 22 20  0  0  0  0  0  0  0  0999 V2000
    0.1702   -1.7873   -1.8243 N   0  0  0  0  0  2  0  0  0  0  0  0
    0.1702   -1.7873   -3.1652 N   0  0  0  0  0  0  0  0  0  0  0  0
    0.1702   -0.6115   -1.4840 H   0  0  0  0  0  0  0  0  0  0  0  0
    0.3581   -2.6872   -3.5741 H   0  0  0  0  0  0  0  0  0  0  0  0
    0.5321   -0.9989   -3.6827 H   0  0  0  0  0  0  0  0  0  0  0  0
    1.6001    1.1524   -0.9736 C   0  0  0  0  0  0  0  0  0  0  0  0
    0.1702    0.6490   -1.1193 C   0  0  0  0  0  3  0  0  0  0  0  0
   -0.3205   -0.1106    0.0962 C   0  0  0  0  0  0  0  0  0  0  0  0
   -0.3456    0.7518    1.2055 O   0  0  0  0  0  0  0  0  0  0  0  0
   -0.7564    0.1207    2.3915 C   0  0  0  0  0  0  0  0  0  0  0  0
   -0.7466    1.1318    3.5145 C   0  0  0  0  0  0  0  0  0  0  0  0
    2.2916    0.3211   -0.8155 H   0  0  0  0  0  0  0  0  0  0  0  0
    1.9206    1.6888   -1.8680 H   0  0  0  0  0  0  0  0  0  0  0  0
    1.6870    1.8270   -0.1219 H   0  0  0  0  0  0  0  0  0  0  0  0
   -0.5064    1.4882   -1.3007 H   0  0  0  0  0  0  0  0  0  0  0  0
    0.3434   -0.9654    0.3011 H   0  0  0  0  0  0  0  0  0  0  0  0
   -1.3268   -0.5149   -0.0874 H   0  0  0  0  0  0  0  0  0  0  0  0
   -0.0825   -0.7174    2.6227 H   0  0  0  0  0  0  0  0  0  0  0  0
   -1.7644   -0.3008    2.2625 H   0  0  0  0  0  0  0  0  0  0  0  0
   -1.4249    1.9563    3.2923 H   0  0  0  0  0  0  0  0  0  0  0  0
   -1.0634    0.6635    4.4477 H   0  0  0  0  0  0  0  0  0  0  0  0
    0.2556    1.5388    3.6535 H   0  0  0  0  0  0  0  0  0  0  0  0
  1  2  1  0
  1  3  1  0
  2  4  1  0
  2  5  1  0
  6  7  1  0
  6 12  1  0
  6 13  1  0
  6 14  1  0
  7  8  1  0
  7 15  1  0
  8  9  1  0
  8 16  1  0
  8 17  1  0
  9 10  1  0
 10 11  1  0
 10 18  1  0
 10 19  1  0
 11 20  1  0
 11 21  1  0
 11 22  1  0
M  RAD  2   1   2   7   2
M  END
>  <reaction>  (10) 
rmg_rxn_208

>  <mol_properties>  (10) 
{"0": {"label": "*1", "atom_type": "N3s"}, "1": {"label": "*0", "atom_type": "N3s"}, "2": {"label": "*2", "atom_type": "H0"}, "6": {"label": "*3", "atom_type": "Cs"}, "7": {"label": "*4", "atom_type": "Cs"}}

>  <type>  (10) 
unop_6

>  <geom_source>  (10) 
Heuristics

$$$$

     RDKit          3D

 22 20  0  0  0  0  0  0  0  0999 V2000
    0.8648   -1.8604   -1.5560 N   0  0  0  0  0  2  0  0  0  0  0  0
    0.8648   -1.8604   -2.8970 N   0  0  0  0  0  0  0  0  0  0  0  0
    0.8648   -0.6846   -1.2157 H   0  0  0  0  0  0  0  0  0  0  0  0
    1.0528   -2.7604   -3.3058 H   0  0  0  0  0  0  0  0  0  0  0  0
    1.2268   -1.0720   -3.4144 H   0  0  0  0  0  0  0  0  0  0  0  0
    2.1032    0.8806   -0.0185 C   0  0  0  0  0  0  0  0  0  0  0  0
    0.8648    0.5759   -0.8510 C   0  0  0  0  0  3  0  0  0  0  0  0
   -0.2478   -0.0682   -0.0495 C   0  0  0  0  0  0  0  0  0  0  0  0
   -0.6834    0.8251    0.9440 O   0  0  0  0  0  0  0  0  0  0  0  0
   -1.6950    0.2961    1.7628 C   0  0  0  0  0  0  0  0  0  0  0  0
   -2.0865    1.3322    2.7908 C   0  0  0  0  0  0  0  0  0  0  0  0
    2.5125   -0.0331    0.4198 H   0  0  0  0  0  0  0  0  0  0  0  0
    2.8837    1.3378   -0.6285 H   0  0  0  0  0  0  0  0  0  0  0  0
    1.8625    1.5640    0.7957 H   0  0  0  0  0  0  0  0  0  0  0  0
    0.4807    1.4944   -1.3023 H   0  0  0  0  0  0  0  0  0  0  0  0
    0.1119   -0.9997    0.4156 H   0  0  0  0  0  0  0  0  0  0  0  0
   -1.0872   -0.3348   -0.7084 H   0  0  0  0  0  0  0  0  0  0  0  0
   -1.3370   -0.6194    2.2565 H   0  0  0  0  0  0  0  0  0  0  0  0
   -2.5645    0.0145    1.1503 H   0  0  0  0  0  0  0  0  0  0  0  0
   -2.4546    2.2351    2.3023 H   0  0  0  0  0  0  0  0  0  0  0  0
   -2.8731    0.9430    3.4392 H   0  0  0  0  0  0  0  0  0  0  0  0
   -1.2289    1.6005    3.4087 H   0  0  0  0  0  0  0  0  0  0  0  0
  1  2  1  0
  1  3  1  0
  2  4  1  0
  2  5  1  0
  6  7  1  0
  6 12  1  0
  6 13  1  0
  6 14  1  0
  7  8  1  0
  7 15  1  0
  8  9  1  0
  8 16  1  0
  8 17  1  0
  9 10  1  0
 10 11  1  0
 10 18  1  0
 10 19  1  0
 11 20  1  0
 11 21  1  0
 11 22  1  0
M  RAD  2   1   2   7   2
M  END
>  <reaction>  (11) 
rmg_rxn_208

>  <mol_properties>  (11) 
{"0": {"label": "*1", "atom_type": "N3s"}, "1": {"label": "*0", "atom_type": "N3s"}, "2": {"label": "*2", "atom_type": "H0"}, "6": {"label": "*3", "atom_type": "Cs"}, "7": {"label": "*4", "atom_type": "Cs"}}

>  <type>  (11) 
unop_7

>  <geom_source>  (11) 
Heuristics

$$$$

     RDKit          3D

 22 20  0  0  0  0  0  0  0  0999 V2000
   -0.5453   -3.1099   -0.8437 N   0  0  0  0  0  2  0  0  0  0  0  0
   -0.5453   -3.1099   -2.1847 N   0  0  0  0  0  0  0  0  0  0  0  0
   -0.5453   -1.9341   -0.5035 H   0  0  0  0  0  0  0  0  0  0  0  0
   -0.3573   -4.0099   -2.5935 H   0  0  0  0  0  0  0  0  0  0  0  0
   -0.1833   -2.3215   -2.7022 H   0  0  0  0  0  0  0  0  0  0  0  0
   -1.9752   -0.1702    0.0070 C   0  0  0  0  0  0  0  0  0  0  0  0
   -0.5453   -0.6736   -0.1387 C   0  0  0  0  0  3  0  0  0  0  0  0
    0.4641    0.4426   -0.3139 C   0  0  0  0  0  0  0  0  0  0  0  0
    0.4732    1.2472    0.8383 O   0  0  0  0  0  0  0  0  0  0  0  0
    1.3590    2.3340    0.7506 C   0  0  0  0  0  0  0  0  0  0  0  0
    1.2894    3.1289    2.0339 C   0  0  0  0  0  0  0  0  0  0  0  0
   -2.2791    0.4003   -0.8743 H   0  0  0  0  0  0  0  0  0  0  0  0
   -2.6734   -1.0001    0.1255 H   0  0  0  0  0  0  0  0  0  0  0  0
   -2.0686    0.4808    0.8761 H   0  0  0  0  0  0  0  0  0  0  0  0
   -0.2634   -1.2620    0.7383 H   0  0  0  0  0  0  0  0  0  0  0  0
    0.2050    1.0517   -1.1944 H   0  0  0  0  0  0  0  0  0  0  0  0
    1.4669    0.0258   -0.4883 H   0  0  0  0  0  0  0  0  0  0  0  0
    1.0918    2.9668   -0.1086 H   0  0  0  0  0  0  0  0  0  0  0  0
    2.3830    1.9705    0.5786 H   0  0  0  0  0  0  0  0  0  0  0  0
    1.5676    2.5060    2.8847 H   0  0  0  0  0  0  0  0  0  0  0  0
    1.9710    3.9797    1.9891 H   0  0  0  0  0  0  0  0  0  0  0  0
    0.2781    3.5029    2.1973 H   0  0  0  0  0  0  0  0  0  0  0  0
  1  2  1  0
  1  3  1  0
  2  4  1  0
  2  5  1  0
  6  7  1  0
  6 12  1  0
  6 13  1  0
  6 14  1  0
  7  8  1  0
  7 15  1  0
  8  9  1  0
  8 16  1  0
  8 17  1  0
  9 10  1  0
 10 11  1  0
 10 18  1  0
 10 19  1  0
 11 20  1  0
 11 21  1  0
 11 22  1  0
M  RAD  2   1   2   7   2
M  END
>  <reaction>  (12) 
rmg_rxn_208

>  <mol_properties>  (12) 
{"0": {"label": "*1", "atom_type": "N3s"}, "1": {"label": "*0", "atom_type": "N3s"}, "2": {"label": "*2", "atom_type": "H0"}, "6": {"label": "*3", "atom_type": "Cs"}, "7": {"label": "*4", "atom_type": "Cs"}}

>  <type>  (12) 
unop_8

>  <geom_source>  (12) 
Heuristics

$$$$

     RDKit          3D

 22 20  0  0  0  0  0  0  0  0999 V2000
   -0.8620   -2.3776   -1.4249 N   0  0  0  0  0  2  0  0  0  0  0  0
   -0.8620   -2.3776   -2.7659 N   0  0  0  0  0  0  0  0  0  0  0  0
   -0.8620   -1.2018   -1.0847 H   0  0  0  0  0  0  0  0  0  0  0  0
   -0.6741   -3.2776   -3.1748 H   0  0  0  0  0  0  0  0  0  0  0  0
   -0.5001   -1.5892   -3.2834 H   0  0  0  0  0  0  0  0  0  0  0  0
   -0.1471    0.9063   -1.7638 C   0  0  0  0  0  0  0  0  0  0  0  0
   -0.8620    0.0587   -0.7199 C   0  0  0  0  0  3  0  0  0  0  0  0
   -0.0178   -0.2097    0.5091 C   0  0  0  0  0  0  0  0  0  0  0  0
    0.2654    1.0063    1.1542 O   0  0  0  0  0  0  0  0  0  0  0  0
    1.0776    0.8569    2.2907 C   0  0  0  0  0  0  0  0  0  0  0  0
    1.3197    2.2169    2.9032 C   0  0  0  0  0  0  0  0  0  0  0  0
    0.7673    0.4146   -2.1051 H   0  0  0  0  0  0  0  0  0  0  0  0
   -0.7819    1.0742   -2.6350 H   0  0  0  0  0  0  0  0  0  0  0  0
    0.1285    1.8765   -1.3505 H   0  0  0  0  0  0  0  0  0  0  0  0
   -1.7861    0.5509   -0.4057 H   0  0  0  0  0  0  0  0  0  0  0  0
    0.9210   -0.7088    0.2211 H   0  0  0  0  0  0  0  0  0  0  0  0
   -0.5491   -0.8842    1.1967 H   0  0  0  0  0  0  0  0  0  0  0  0
    2.0314    0.3861    2.0104 H   0  0  0  0  0  0  0  0  0  0  0  0
    0.5885    0.1901    3.0163 H   0  0  0  0  0  0  0  0  0  0  0  0
    0.3755    2.6787    3.1941 H   0  0  0  0  0  0  0  0  0  0  0  0
    1.9491    2.1257    3.7898 H   0  0  0  0  0  0  0  0  0  0  0  0
    1.8186    2.8739    2.1898 H   0  0  0  0  0  0  0  0  0  0  0  0
  1  2  1  0
  1  3  1  0
  2  4  1  0
  2  5  1  0
  6  7  1  0
  6 12  1  0
  6 13  1  0
  6 14  1  0
  7  8  1  0
  7 15  1  0
  8  9  1  0
  8 16  1  0
  8 17  1  0
  9 10  1  0
 10 11  1  0
 10 18  1  0
 10 19  1  0
 11 20  1  0
 11 21  1  0
 11 22  1  0
M  RAD  2   1   2   7   2
M  END
>  <reaction>  (13) 
rmg_rxn_208

>  <mol_properties>  (13) 
{"0": {"label": "*1", "atom_type": "N3s"}, "1": {"label": "*0", "atom_type": "N3s"}, "2": {"label": "*2", "atom_type": "H0"}, "6": {"label": "*3", "atom_type": "Cs"}, "7": {"label": "*4", "atom_type": "Cs"}}

>  <type>  (13) 
unop_9

>  <geom_source>  (13) 
Heuristics

$$$$

     RDKit          3D

 22 20  0  0  0  0  0  0  0  0999 V2000
   -0.5069   -3.0896   -0.9274 N   0  0  0  0  0  2  0  0  0  0  0  0
   -0.5069   -3.0896   -2.2684 N   0  0  0  0  0  0  0  0  0  0  0  0
   -0.5069   -1.9138   -0.5872 H   0  0  0  0  0  0  0  0  0  0  0  0
   -0.3189   -3.9896   -2.6773 H   0  0  0  0  0  0  0  0  0  0  0  0
   -0.1449   -2.3012   -2.7859 H   0  0  0  0  0  0  0  0  0  0  0  0
   -1.7452    0.0488   -0.7636 C   0  0  0  0  0  0  0  0  0  0  0  0
   -0.5069   -0.6533   -0.2224 C   0  0  0  0  0  3  0  0  0  0  0  0
    0.6671    0.2824   -0.0190 C   0  0  0  0  0  0  0  0  0  0  0  0
    0.3348    1.2422    0.9523 O   0  0  0  0  0  0  0  0  0  0  0  0
    1.3568    2.1784    1.1815 C   0  0  0  0  0  0  0  0  0  0  0  0
    0.8973    3.1585    2.2360 C   0  0  0  0  0  0  0  0  0  0  0  0
   -1.5375    0.5159   -1.7295 H   0  0  0  0  0  0  0  0  0  0  0  0
   -2.5668   -0.6555   -0.9022 H   0  0  0  0  0  0  0  0  0  0  0  0
   -2.0769    0.8291   -0.0786 H   0  0  0  0  0  0  0  0  0  0  0  0
   -0.7357   -1.1357    0.7314 H   0  0  0  0  0  0  0  0  0  0  0  0
    0.9214    0.7816   -0.9675 H   0  0  0  0  0  0  0  0  0  0  0  0
    1.5545   -0.2832    0.3009 H   0  0  0  0  0  0  0  0  0  0  0  0
    1.5992    2.7050    0.2467 H   0  0  0  0  0  0  0  0  0  0  0  0
    2.2717    1.6625    1.5088 H   0  0  0  0  0  0  0  0  0  0  0  0
    0.6700    2.6389    3.1675 H   0  0  0  0  0  0  0  0  0  0  0  0
    1.6768    3.8965    2.4315 H   0  0  0  0  0  0  0  0  0  0  0  0
   -0.0008    3.6817    1.9059 H   0  0  0  0  0  0  0  0  0  0  0  0
  1  2  1  0
  1  3  1  0
  2  4  1  0
  2  5  1  0
  6  7  1  0
  6 12  1  0
  6 13  1  0
  6 14  1  0
  7  8  1  0
  7 15  1  0
  8  9  1  0
  8 16  1  0
  8 17  1  0
  9 10  1  0
 10 11  1  0
 10 18  1  0
 10 19  1  0
 11 20  1  0
 11 21  1  0
 11 22  1  0
M  RAD  2   1   2   7   2
M  END
>  <reaction>  (14) 
rmg_rxn_208

>  <mol_properties>  (14) 
{"0": {"label": "*1", "atom_type": "N3s"}, "1": {"label": "*0", "atom_type": "N3s"}, "2": {"label": "*2", "atom_type": "H0"}, "6": {"label": "*3", "atom_type": "Cs"}, "7": {"label": "*4", "atom_type": "Cs"}}

>  <type>  (14) 
unop_10

>  <geom_source>  (14) 
Heuristics

$$$$

     RDKit          3D

 22 20  0  0  0  0  0  0  0  0999 V2000
    1.2797   -2.3043   -0.9298 N   0  0  0  0  0  2  0  0  0  0  0  0
    1.2797   -2.3043   -2.2708 N   0  0  0  0  0  0  0  0  0  0  0  0
    1.2797   -1.1285   -0.5896 H   0  0  0  0  0  0  0  0  0  0  0  0
    1.4677   -3.2042   -2.6797 H   0  0  0  0  0  0  0  0  0  0  0  0
    1.6417   -1.5159   -2.7883 H   0  0  0  0  0  0  0  0  0  0  0  0
    1.9947    0.2912    1.1104 C   0  0  0  0  0  0  0  0  0  0  0  0
    1.2797    0.1320   -0.2248 C   0  0  0  0  0  3  0  0  0  0  0  0
   -0.2162   -0.0592   -0.0803 C   0  0  0  0  0  0  0  0  0  0  0  0
   -0.7783    1.0891    0.5031 O   0  0  0  0  0  0  0  0  0  0  0  0
   -2.1642    0.9868    0.7089 C   0  0  0  0  0  0  0  0  0  0  0  0
   -2.6630    2.2672    1.3376 C   0  0  0  0  0  0  0  0  0  0  0  0
    1.8443   -0.5891    1.7402 H   0  0  0  0  0  0  0  0  0  0  0  0
    3.0685    0.4211    0.9678 H   0  0  0  0  0  0  0  0  0  0  0  0
    1.6151    1.1584    1.6506 H   0  0  0  0  0  0  0  0  0  0  0  0
    1.4585    1.0085   -0.8531 H   0  0  0  0  0  0  0  0  0  0  0  0
   -0.4256   -0.9396    0.5479 H   0  0  0  0  0  0  0  0  0  0  0  0
   -0.6738   -0.2429   -1.0634 H   0  0  0  0  0  0  0  0  0  0  0  0
   -2.3839    0.1277    1.3600 H   0  0  0  0  0  0  0  0  0  0  0  0
   -2.6734    0.8051   -0.2492 H   0  0  0  0  0  0  0  0  0  0  0  0
   -2.4580    3.1177    0.6865 H   0  0  0  0  0  0  0  0  0  0  0  0
   -3.7395    2.2110    1.5066 H   0  0  0  0  0  0  0  0  0  0  0  0
   -2.1701    2.4401    2.2950 H   0  0  0  0  0  0  0  0  0  0  0  0
  1  2  1  0
  1  3  1  0
  2  4  1  0
  2  5  1  0
  6  7  1  0
  6 12  1  0
  6 13  1  0
  6 14  1  0
  7  8  1  0
  7 15  1  0
  8  9  1  0
  8 16  1  0
  8 17  1  0
  9 10  1  0
 10 11  1  0
 10 18  1  0
 10 19  1  0
 11 20  1  0
 11 21  1  0
 11 22  1  0
M  RAD  2   1   2   7   2
M  END
>  <reaction>  (15) 
rmg_rxn_208

>  <mol_properties>  (15) 
{"0": {"label": "*1", "atom_type": "N3s"}, "1": {"label": "*0", "atom_type": "N3s"}, "2": {"label": "*2", "atom_type": "H0"}, "6": {"label": "*3", "atom_type": "Cs"}, "7": {"label": "*4", "atom_type": "Cs"}}

>  <type>  (15) 
unop_11

>  <geom_source>  (15) 
Heuristics

$$$$

     RDKit          3D

 22 20  0  0  0  0  0  0  0  0999 V2000
   -0.8480   -2.7907   -1.0899 N   0  0  0  0  0  2  0  0  0  0  0  0
   -0.8480   -2.7907   -2.4309 N   0  0  0  0  0  0  0  0  0  0  0  0
   -0.8480   -1.6149   -0.7496 H   0  0  0  0  0  0  0  0  0  0  0  0
   -0.6600   -3.6906   -2.8397 H   0  0  0  0  0  0  0  0  0  0  0  0
   -0.4860   -2.0022   -2.9484 H   0  0  0  0  0  0  0  0  0  0  0  0
   -0.8480    0.5465   -1.6128 C   0  0  0  0  0  0  0  0  0  0  0  0
   -0.8480   -0.3543   -0.3849 C   0  0  0  0  0  3  0  0  0  0  0  0
    0.3480   -0.1307    0.5178 C   0  0  0  0  0  0  0  0  0  0  0  0
    0.3112    1.1800    1.0234 O   0  0  0  0  0  0  0  0  0  0  0  0
    1.4065    1.4894    1.8469 C   0  0  0  0  0  0  0  0  0  0  0  0
    1.2686    2.9137    2.3326 C   0  0  0  0  0  0  0  0  0  0  0  0
    0.0459    0.3790   -2.2189 H   0  0  0  0  0  0  0  0  0  0  0  0
   -1.7191    0.3542   -2.2409 H   0  0  0  0  0  0  0  0  0  0  0  0
   -0.8630    1.5966   -1.3212 H   0  0  0  0  0  0  0  0  0  0  0  0
   -1.7582   -0.1935    0.1986 H   0  0  0  0  0  0  0  0  0  0  0  0
    1.2814   -0.2890   -0.0454 H   0  0  0  0  0  0  0  0  0  0  0  0
    0.3401   -0.8531    1.3472 H   0  0  0  0  0  0  0  0  0  0  0  0
    2.3443    1.3636    1.2859 H   0  0  0  0  0  0  0  0  0  0  0  0
    1.4435    0.7945    2.6989 H   0  0  0  0  0  0  0  0  0  0  0  0
    0.3458    3.0360    2.9007 H   0  0  0  0  0  0  0  0  0  0  0  0
    2.1097    3.1768    2.9760 H   0  0  0  0  0  0  0  0  0  0  0  0
    1.2476    3.6047    1.4892 H   0  0  0  0  0  0  0  0  0  0  0  0
  1  2  1  0
  1  3  1  0
  2  4  1  0
  2  5  1  0
  6  7  1  0
  6 12  1  0
  6 13  1  0
  6 14  1  0
  7  8  1  0
  7 15  1  0
  8  9  1  0
  8 16  1  0
  8 17  1  0
  9 10  1  0
 10 11  1  0
 10 18  1  0
 10 19  1  0
 11 20  1  0
 11 21  1  0
 11 22  1  0
M  RAD  2   1   2   7   2
M  END
>  <reaction>  (16) 
rmg_rxn_208

>  <mol_properties>  (16) 
{"0": {"label": "*1", "atom_type": "N3s"}, "1": {"label": "*0", "atom_type": "N3s"}, "2": {"label": "*2", "atom_type": "H0"}, "6": {"label": "*3", "atom_type": "Cs"}, "7": {"label": "*4", "atom_type": "Cs"}}

>  <type>  (16) 
unop_12

>  <geom_source>  (16) 
Heuristics

$$$$

     RDKit          3D

 22 20  0  0  0  0  0  0  0  0999 V2000
   -0.6259   -3.0295   -0.9416 N   0  0  0  0  0  2  0  0  0  0  0  0
   -0.6259   -3.0295   -2.2826 N   0  0  0  0  0  0  0  0  0  0  0  0
   -0.6259   -1.8538   -0.6014 H   0  0  0  0  0  0  0  0  0  0  0  0
   -0.4379   -3.9295   -2.6915 H   0  0  0  0  0  0  0  0  0  0  0  0
   -0.2639   -2.2411   -2.8001 H   0  0  0  0  0  0  0  0  0  0  0  0
   -1.3408    0.2544   -1.2805 C   0  0  0  0  0  0  0  0  0  0  0  0
   -0.6259   -0.5932   -0.2366 C   0  0  0  0  0  3  0  0  0  0  0  0
    0.6268    0.0629    0.3070 C   0  0  0  0  0  0  0  0  0  0  0  0
    0.2790    1.2504    0.9732 O   0  0  0  0  0  0  0  0  0  0  0  0
    1.3873    1.9478    1.4819 C   0  0  0  0  0  0  0  0  0  0  0  0
    0.9033    3.2013    2.1734 C   0  0  0  0  0  0  0  0  0  0  0  0
   -0.6881    0.4537   -2.1341 H   0  0  0  0  0  0  0  0  0  0  0  0
   -2.2332   -0.2511   -1.6525 H   0  0  0  0  0  0  0  0  0  0  0  0
   -1.6427    1.2130   -0.8586 H   0  0  0  0  0  0  0  0  0  0  0  0
   -1.2977   -0.8047    0.5993 H   0  0  0  0  0  0  0  0  0  0  0  0
    1.3245    0.2854   -0.5160 H   0  0  0  0  0  0  0  0  0  0  0  0
    1.1441   -0.6177    0.9991 H   0  0  0  0  0  0  0  0  0  0  0  0
    2.0777    2.2020    0.6641 H   0  0  0  0  0  0  0  0  0  0  0  0
    1.9411    1.3096    2.1863 H   0  0  0  0  0  0  0  0  0  0  0  0
    0.2296    2.9496    2.9932 H   0  0  0  0  0  0  0  0  0  0  0  0
    1.7486    3.7603    2.5780 H   0  0  0  0  0  0  0  0  0  0  0  0
    0.3676    3.8420    1.4721 H   0  0  0  0  0  0  0  0  0  0  0  0
  1  2  1  0
  1  3  1  0
  2  4  1  0
  2  5  1  0
  6  7  1  0
  6 12  1  0
  6 13  1  0
  6 14  1  0
  7  8  1  0
  7 15  1  0
  8  9  1  0
  8 16  1  0
  8 17  1  0
  9 10  1  0
 10 11  1  0
 10 18  1  0
 10 19  1  0
 11 20  1  0
 11 21  1  0
 11 22  1  0
M  RAD  2   1   2   7   2
M  END
>  <reaction>  (17) 
rmg_rxn_208

>  <mol_properties>  (17) 
{"0": {"label": "*1", "atom_type": "N3s"}, "1": {"label": "*0", "atom_type": "N3s"}, "2": {"label": "*2", "atom_type": "H0"}, "6": {"label": "*3", "atom_type": "Cs"}, "7": {"label": "*4", "atom_type": "Cs"}}

>  <type>  (17) 
unop_13

>  <geom_source>  (17) 
gaussian_log

$$$$
