
     RDKit          3D

 13 12  0  0  0  0  0  0  0  0999 V2000
   -1.8029   -0.2987    1.0940 C   0  0  0  0  0  0  0  0  0  0  0  0
   -0.9419    0.5805    0.2019 C   0  0  0  0  0  0  0  0  0  0  0  0
    0.3779   -0.0155   -0.1765 C   0  0  0  0  0  0  0  0  0  0  0  0
    0.7319   -1.1672    0.2072 N   0  0  0  0  0  0  0  0  0  0  0  0
    1.9284   -1.6649   -0.2437 N   0  0  0  0  0  0  0  0  0  0  0  0
   -1.2933   -0.5224    2.0314 H   0  0  0  0  0  0  0  0  0  0  0  0
   -2.0225   -1.2499    0.6092 H   0  0  0  0  0  0  0  0  0  0  0  0
   -2.7454    0.2007    1.3226 H   0  0  0  0  0  0  0  0  0  0  0  0
   -1.4810    0.8240   -0.7207 H   0  0  0  0  0  0  0  0  0  0  0  0
   -0.7543    1.5445    0.6880 H   0  0  0  0  0  0  0  0  0  0  0  0
    1.0313    0.5912   -0.8170 H   0  0  0  0  0  0  0  0  0  0  0  0
    2.2863   -2.3390    0.4129 H   0  0  0  0  0  0  0  0  0  0  0  0
    2.6214   -0.9567   -0.4648 H   0  0  0  0  0  0  0  0  0  0  0  0
  1  2  1  0
  1  6  1  0
  1  7  1  0
  1  8  1  0
  2  3  1  0
  2  9  1  0
  2 10  1  0
  3  4  2  3
  3 11  1  0
  4  5  1  0
  5 12  1  0
  5 13  1  0
M  END
>  <reaction>  (1) 
rmg_rxn_15509

>  <mol_properties>  (1) 
{"1": {"label": "donator", "atom_type": "Cs"}, "8": {"label": "d_hydrogen", "atom_type": "H0"}}

>  <type>  (1) 
r1h

$$$$

     RDKit          3D

  5  4  0  0  0  0  0  0  0  0999 V2000
    0.8934    0.3742    0.4948 O   0  0  0  0  0  0  0  0  0  0  0  0
    0.1582   -0.1610   -0.5904 N   0  0  0  0  0  0  0  0  0  0  0  0
   -1.0297   -0.3739   -0.4689 C   0  0  0  0  0  3  0  0  0  0  0  0
    1.7804    0.4382    0.1306 H   0  0  0  0  0  0  0  0  0  0  0  0
   -1.8023   -0.2775    0.2859 H   0  0  0  0  0  0  0  0  0  0  0  0
  1  2  1  0
  1  4  1  0
  2  3  2  3
  3  5  1  0
M  RAD  1   3   2
M  END
>  <reaction>  (2) 
rmg_rxn_15509

>  <mol_properties>  (2) 
{"2": {"label": "acceptor", "atom_type": "Cd"}}

>  <type>  (2) 
r2

$$$$

     RDKit          3D

  6  5  0  0  0  0  0  0  0  0999 V2000
    1.2314    0.0428    0.5088 O   0  0  0  0  0  0  0  0  0  0  0  0
    0.2987    0.2341   -0.4915 N   0  0  0  0  0  0  0  0  0  0  0  0
   -0.8599   -0.1122   -0.1290 C   0  0  0  0  0  0  0  0  0  0  0  0
    2.0507    0.3401    0.1082 H   0  0  0  0  0  0  0  0  0  0  0  0
   -1.0700   -0.5112    0.8610 H   0  0  0  0  0  0  0  0  0  0  0  0
   -1.6509    0.0064   -0.8574 H   0  0  0  0  0  0  0  0  0  0  0  0
  1  2  1  0
  1  4  1  0
  2  3  2  3
  3  5  1  0
  3  6  1  0
M  END
>  <reaction>  (3) 
rmg_rxn_15509

>  <mol_properties>  (3) 
{"2": {"label": "acceptor", "atom_type": "Cd"}, "5": {"label": "a_hydrogen", "atom_type": "H0"}}

>  <type>  (3) 
r2h

$$$$

     RDKit          3D

 18 16  0  0  0  0  0  0  0  0999 V2000
   -2.5409   -3.0878    0.6678 O   0  0  0  0  0  0  0  0  0  0  0  0
   -1.3102   -2.4650    0.3972 N   0  0  0  0  0  0  0  0  0  0  0  0
   -1.3523   -1.2288    0.3534 C   0  0  0  0  0  3  0  0  0  0  0  0
   -2.3100   -4.0197    0.6592 H   0  0  0  0  0  0  0  0  0  0  0  0
   -2.1947   -0.5517    0.4896 H   0  0  0  0  0  0  0  0  0  0  0  0
    0.9859    0.0099   -1.8111 C   0  0  0  0  0  0  0  0  0  0  0  0
    1.0765   -0.1475   -0.3112 C   0  0  0  0  0  0  0  0  0  0  0  0
    1.3099    1.0721    0.4791 C   0  0  0  0  0  0  0  0  0  0  0  0
    1.1738    2.2331   -0.0227 N   0  0  0  0  0  0  0  0  0  0  0  0
    1.3050    3.3117    0.8023 N   0  0  0  0  0  0  0  0  0  0  0  0
    1.9378    0.3503   -2.2244 H   0  0  0  0  0  0  0  0  0  0  0  0
    0.2314    0.7485   -2.0804 H   0  0  0  0  0  0  0  0  0  0  0  0
    0.7273   -0.9419   -2.2760 H   0  0  0  0  0  0  0  0  0  0  0  0
    0.0007   -0.5912    0.0513 H   0  0  0  0  0  0  0  0  0  0  0  0
    1.7465   -0.9531   -0.0045 H   0  0  0  0  0  0  0  0  0  0  0  0
    1.5628    0.9443    1.5386 H   0  0  0  0  0  0  0  0  0  0  0  0
    1.5813    4.1252    0.2781 H   0  0  0  0  0  0  0  0  0  0  0  0
    1.8895    3.1631    1.6186 H   0  0  0  0  0  0  0  0  0  0  0  0
  1  2  1  0
  1  4  1  0
  2  3  2  3
  3  5  1  0
  6  7  1  0
  6 11  1  0
  6 12  1  0
  6 13  1  0
  7  8  1  0
  7 14  1  0
  7 15  1  0
  8  9  2  3
  8 16  1  0
  9 10  1  0
 10 17  1  0
 10 18  1  0
M  RAD  1   3   2
M  END
>  <reaction>  (4) 
rmg_rxn_15509

>  <mol_properties>  (4) 
{"1": {"label": "*4", "atom_type": "N3d"}, "2": {"label": "*3", "atom_type": "Cd"}, "6": {"label": "*1", "atom_type": "Cs"}, "7": {"label": "*0", "atom_type": "Cd"}, "13": {"label": "*2", "atom_type": "H0"}}

>  <type>  (4) 
ts

$$$$

     RDKit          3D

 18 16  0  0  0  0  0  0  0  0999 V2000
   -3.7304   -0.8165    0.1331 O   0  0  0  0  0  0  0  0  0  0  0  0
   -2.5332   -0.0885   -0.0068 N   0  0  0  0  0  0  0  0  0  0  0  0
   -1.4695   -0.7183   -0.1484 C   0  0  0  0  0  0  0  0  0  0  0  0
   -4.4145   -0.1396    0.2252 H   0  0  0  0  0  0  0  0  0  0  0  0
   -1.3360   -1.7939   -0.1798 H   0  0  0  0  0  0  0  0  0  0  0  0
   -0.0576    2.1409    0.1858 C   0  0  0  0  0  0  0  0  0  0  0  0
    0.5756    0.9170   -0.4142 C   0  0  0  0  0  3  0  0  0  0  0  0
    1.6855    0.3272    0.2275 C   0  0  0  0  0  0  0  0  0  0  0  0
    2.4813   -0.4763   -0.4071 N   0  0  0  0  0  0  0  0  0  0  0  0
    3.4339   -1.1239    0.2813 N   0  0  0  0  0  0  0  0  0  0  0  0
   -1.0882    2.2392   -0.1484 H   0  0  0  0  0  0  0  0  0  0  0  0
    0.4862    3.0374   -0.1166 H   0  0  0  0  0  0  0  0  0  0  0  0
   -0.0496    2.0862    1.2723 H   0  0  0  0  0  0  0  0  0  0  0  0
   -0.4548    0.0043   -0.2632 H   0  0  0  0  0  0  0  0  0  0  0  0
    0.6197    0.9008   -1.4987 H   0  0  0  0  0  0  0  0  0  0  0  0
    1.8197    0.5074    1.3027 H   0  0  0  0  0  0  0  0  0  0  0  0
    4.2096   -1.4132   -0.2950 H   0  0  0  0  0  0  0  0  0  0  0  0
    3.6758   -0.7781    1.2104 H   0  0  0  0  0  0  0  0  0  0  0  0
  1  2  1  0
  1  4  1  0
  2  3  2  3
  3  5  1  0
  3 14  1  0
  6  7  1  0
  6 11  1  0
  6 12  1  0
  6 13  1  0
  7  8  1  0
  7 15  1  0
  8  9  2  3
  8 16  1  0
  9 10  1  0
 10 17  1  0
 10 18  1  0
M  RAD  1   7   2
M  END
>  <reaction>  (5) 
rmg_rxn_15509

>  <mol_properties>  (5) 
{"1": {"label": "*4", "atom_type": "N3d"}, "2": {"label": "*3", "atom_type": "Cd"}, "6": {"label": "*1", "atom_type": "Cs"}, "7": {"label": "*0", "atom_type": "Cd"}, "13": {"label": "*2", "atom_type": "H0"}}

>  <type>  (5) 
unop_1

>  <geom_source>  (5) 
crest_best.xyz

$$$$

     RDKit          3D

 18 16  0  0  0  0  0  0  0  0999 V2000
   -1.8240   -2.5335    2.0609 O   0  0  0  0  0  0  0  0  0  0  0  0
   -0.9840   -2.4786    0.9661 N   0  0  0  0  0  0  0  0  0  0  0  0
   -1.2179   -1.4716    0.2418 C   0  0  0  0  0  0  0  0  0  0  0  0
   -1.5438   -3.3300    2.5160 H   0  0  0  0  0  0  0  0  0  0  0  0
   -1.9959   -0.7482    0.4764 H   0  0  0  0  0  0  0  0  0  0  0  0
    0.8616   -0.1687   -2.1769 C   0  0  0  0  0  0  0  0  0  0  0  0
    0.8616   -0.1687   -0.6570 C   0  0  0  0  0  3  0  0  0  0  0  0
    0.8616    1.1913   -0.0320 C   0  0  0  0  0  0  0  0  0  0  0  0
    0.8457    2.2503   -0.7229 N   0  0  0  0  0  0  0  0  0  0  0  0
    0.7760    3.4542   -0.0683 N   0  0  0  0  0  0  0  0  0  0  0  0
    1.7414    0.3428   -2.5678 H   0  0  0  0  0  0  0  0  0  0  0  0
   -0.0146    0.3492   -2.5670 H   0  0  0  0  0  0  0  0  0  0  0  0
    0.8582   -1.1915   -2.5561 H   0  0  0  0  0  0  0  0  0  0  0  0
   -0.1849   -0.8244   -0.2047 H   0  0  0  0  0  0  0  0  0  0  0  0
    1.7307   -0.7183   -0.2784 H   0  0  0  0  0  0  0  0  0  0  0  0
    0.8661    1.2336    1.0650 H   0  0  0  0  0  0  0  0  0  0  0  0
    1.1795    4.1774   -0.6409 H   0  0  0  0  0  0  0  0  0  0  0  0
    1.1785    3.4496    0.8637 H   0  0  0  0  0  0  0  0  0  0  0  0
  1  2  1  0
  1  4  1  0
  2  3  2  3
  3  5  1  0
  3 14  1  0
  6  7  1  0
  6 11  1  0
  6 12  1  0
  6 13  1  0
  7  8  1  0
  7 15  1  0
  8  9  2  3
  8 16  1  0
  9 10  1  0
 10 17  1  0
 10 18  1  0
M  RAD  1   7   2
M  END
>  <reaction>  (6) 
rmg_rxn_15509

>  <mol_properties>  (6) 
{"1": {"label": "*4", "atom_type": "N3d"}, "2": {"label": "*3", "atom_type": "Cd"}, "6": {"label": "*1", "atom_type": "Cs"}, "7": {"label": "*0", "atom_type": "Cd"}, "13": {"label": "*2", "atom_type": "H0"}}

>  <type>  (6) 
unop_2

>  <geom_source>  (6) 
Heuristics

$$$$

     RDKit          3D

 18 16  0  0  0  0  0  0  0  0999 V2000
   -3.7323   -0.8135    0.1329 O   0  0  0  0  0  0  0  0  0  0  0  0
   -2.5334   -0.0887   -0.0090 N   0  0  0  0  0  0  0  0  0  0  0  0
   -1.4705   -0.7213   -0.1448 C   0  0  0  0  0  0  0  0  0  0  0  0
   -4.4152   -0.1347    0.2192 H   0  0  0  0  0  0  0  0  0  0  0  0
   -1.3387   -1.7972   -0.1697 H   0  0  0  0  0  0  0  0  0  0  0  0
   -0.0611    2.1365    0.1857 C   0  0  0  0  0  0  0  0  0  0  0  0
    0.5743    0.9136   -0.4140 C   0  0  0  0  0  3  0  0  0  0  0  0
    1.6858    0.3266    0.2274 C   0  0  0  0  0  0  0  0  0  0  0  0
    2.4840   -0.4743   -0.4074 N   0  0  0  0  0  0  0  0  0  0  0  0
    3.4389   -1.1188    0.2808 N   0  0  0  0  0  0  0  0  0  0  0  0
    0.4803    3.0340   -0.1180 H   0  0  0  0  0  0  0  0  0  0  0  0
   -0.0519    2.0827    1.2722 H   0  0  0  0  0  0  0  0  0  0  0  0
   -1.0922    2.2321   -0.1476 H   0  0  0  0  0  0  0  0  0  0  0  0
   -0.4548   -0.0003   -0.2616 H   0  0  0  0  0  0  0  0  0  0  0  0
    0.6179    0.8969   -1.4985 H   0  0  0  0  0  0  0  0  0  0  0  0
    1.8198    0.5073    1.3026 H   0  0  0  0  0  0  0  0  0  0  0  0
    4.2155   -1.4053   -0.2957 H   0  0  0  0  0  0  0  0  0  0  0  0
    3.6798   -0.7722    1.2099 H   0  0  0  0  0  0  0  0  0  0  0  0
  1  2  1  0
  1  4  1  0
  2  3  2  3
  3  5  1  0
  3 14  1  0
  6  7  1  0
  6 11  1  0
  6 12  1  0
  6 13  1  0
  7  8  1  0
  7 15  1  0
  8  9  2  3
  8 16  1  0
  9 10  1  0
 10 17  1  0
 10 18  1  0
M  RAD  1   7   2
M  END
>  <reaction>  (7) 
rmg_rxn_15509

>  <mol_properties>  (7) 
{"1": {"label": "*4", "atom_type": "N3d"}, "2": {"label": "*3", "atom_type": "Cd"}, "6": {"label": "*1", "atom_type": "Cs"}, "7": {"label": "*0", "atom_type": "Cd"}, "13": {"label": "*2", "atom_type": "H0"}}

>  <type>  (7) 
unop_3

>  <geom_source>  (7) 
Heuristics

$$$$

     RDKit          3D

 18 16  0  0  0  0  0  0  0  0999 V2000
   -3.7784   -0.6504    0.2513 O   0  0  0  0  0  0  0  0  0  0  0  0
   -2.5665    0.0275    0.0226 N   0  0  0  0  0  0  0  0  0  0  0  0
   -1.5641   -0.6403   -0.2892 C   0  0  0  0  0  0  0  0  0  0  0  0
   -4.4052    0.0489    0.4814 H   0  0  0  0  0  0  0  0  0  0  0  0
   -1.4994   -1.7164   -0.4099 H   0  0  0  0  0  0  0  0  0  0  0  0
    0.3499    1.8321    0.4980 C   0  0  0  0  0  0  0  0  0  0  0  0
    0.5446    0.8929   -0.6592 C   0  0  0  0  0  3  0  0  0  0  0  0
    1.6795    0.0511   -0.6813 C   0  0  0  0  0  0  0  0  0  0  0  0
    2.3614   -0.2087    0.3901 N   0  0  0  0  0  0  0  0  0  0  0  0
    3.3393   -1.1242    0.3311 N   0  0  0  0  0  0  0  0  0  0  0  0
    0.6794    1.3546    1.4157 H   0  0  0  0  0  0  0  0  0  0  0  0
   -0.6965    2.1152    0.5877 H   0  0  0  0  0  0  0  0  0  0  0  0
    0.9398    2.7376    0.3513 H   0  0  0  0  0  0  0  0  0  0  0  0
   -0.5283    0.0371   -0.4710 H   0  0  0  0  0  0  0  0  0  0  0  0
    0.2402    1.2840   -1.6258 H   0  0  0  0  0  0  0  0  0  0  0  0
    1.9310   -0.4460   -1.6288 H   0  0  0  0  0  0  0  0  0  0  0  0
    4.0377   -1.0037    1.0489 H   0  0  0  0  0  0  0  0  0  0  0  0
    3.6897   -1.3968   -0.5879 H   0  0  0  0  0  0  0  0  0  0  0  0
  1  2  1  0
  1  4  1  0
  2  3  2  3
  3  5  1  0
  3 14  1  0
  6  7  1  0
  6 11  1  0
  6 12  1  0
  6 13  1  0
  7  8  1  0
  7 15  1  0
  8  9  2  3
  8 16  1  0
  9 10  1  0
 10 17  1  0
 10 18  1  0
M  RAD  1   7   2
M  END
>  <reaction>  (8) 
rmg_rxn_15509

>  <mol_properties>  (8) 
{"1": {"label": "*4", "atom_type": "N3d"}, "2": {"label": "*3", "atom_type": "Cd"}, "6": {"label": "*1", "atom_type": "Cs"}, "7": {"label": "*0", "atom_type": "Cd"}, "13": {"label": "*2", "atom_type": "H0"}}

>  <type>  (8) 
unop_4

>  <geom_source>  (8) 
Heuristics

$$$$

     RDKit          3D

 18 16  0  0  0  0  0  0  0  0999 V2000
   -2.2919   -3.1685    0.6716 O   0  0  0  0  0  0  0  0  0  0  0  0
   -1.4779   -2.3059   -0.0357 N   0  0  0  0  0  0  0  0  0  0  0  0
   -1.0430   -1.3674    0.6879 C   0  0  0  0  0  0  0  0  0  0  0  0
   -2.5476   -3.8202    0.0159 H   0  0  0  0  0  0  0  0  0  0  0  0
   -1.2959   -1.2737    1.7418 H   0  0  0  0  0  0  0  0  0  0  0  0
    1.0365   -0.0645   -1.7309 C   0  0  0  0  0  0  0  0  0  0  0  0
    1.0365   -0.0645   -0.2109 C   0  0  0  0  0  3  0  0  0  0  0  0
    1.0365    1.2956    0.4140 C   0  0  0  0  0  0  0  0  0  0  0  0
    1.0206    2.3546   -0.2769 N   0  0  0  0  0  0  0  0  0  0  0  0
    0.9509    3.5584    0.3777 N   0  0  0  0  0  0  0  0  0  0  0  0
    1.9164    0.4470   -2.1218 H   0  0  0  0  0  0  0  0  0  0  0  0
    0.1603    0.4535   -2.1209 H   0  0  0  0  0  0  0  0  0  0  0  0
    1.0332   -1.0872   -2.1101 H   0  0  0  0  0  0  0  0  0  0  0  0
   -0.0100   -0.7201    0.2414 H   0  0  0  0  0  0  0  0  0  0  0  0
    1.9056   -0.6141    0.1676 H   0  0  0  0  0  0  0  0  0  0  0  0
    1.0410    1.3378    1.5110 H   0  0  0  0  0  0  0  0  0  0  0  0
    1.3544    4.2816   -0.1948 H   0  0  0  0  0  0  0  0  0  0  0  0
    1.3534    3.5539    1.3097 H   0  0  0  0  0  0  0  0  0  0  0  0
  1  2  1  0
  1  4  1  0
  2  3  2  3
  3  5  1  0
  3 14  1  0
  6  7  1  0
  6 11  1  0
  6 12  1  0
  6 13  1  0
  7  8  1  0
  7 15  1  0
  8  9  2  3
  8 16  1  0
  9 10  1  0
 10 17  1  0
 10 18  1  0
M  RAD  1   7   2
M  END
>  <reaction>  (9) 
rmg_rxn_15509

>  <mol_properties>  (9) 
{"1": {"label": "*4", "atom_type": "N3d"}, "2": {"label": "*3", "atom_type": "Cd"}, "6": {"label": "*1", "atom_type": "Cs"}, "7": {"label": "*0", "atom_type": "Cd"}, "13": {"label": "*2", "atom_type": "H0"}}

>  <type>  (9) 
unop_5

>  <geom_source>  (9) 
Heuristics

$$$$

     RDKit          3D

 18 16  0  0  0  0  0  0  0  0999 V2000
   -3.7780   -0.6476    0.2532 O   0  0  0  0  0  0  0  0  0  0  0  0
   -2.5640    0.0264    0.0245 N   0  0  0  0  0  0  0  0  0  0  0  0
   -1.5652   -0.6435   -0.2944 C   0  0  0  0  0  0  0  0  0  0  0  0
   -4.4010    0.0530    0.4895 H   0  0  0  0  0  0  0  0  0  0  0  0
   -1.5052   -1.7191   -0.4220 H   0  0  0  0  0  0  0  0  0  0  0  0
    0.3439    1.8277    0.4970 C   0  0  0  0  0  0  0  0  0  0  0  0
    0.5436    0.8902   -0.6607 C   0  0  0  0  0  3  0  0  0  0  0  0
    1.6808    0.0515   -0.6814 C   0  0  0  0  0  0  0  0  0  0  0  0
    2.3616   -0.2069    0.3911 N   0  0  0  0  0  0  0  0  0  0  0  0
    3.3427   -1.1192    0.3332 N   0  0  0  0  0  0  0  0  0  0  0  0
    0.9291    2.7364    0.3510 H   0  0  0  0  0  0  0  0  0  0  0  0
    0.6754    1.3513    1.4144 H   0  0  0  0  0  0  0  0  0  0  0  0
   -0.7040    2.1053    0.5865 H   0  0  0  0  0  0  0  0  0  0  0  0
   -0.5279    0.0320   -0.4750 H   0  0  0  0  0  0  0  0  0  0  0  0
    0.2400    1.2812   -1.6276 H   0  0  0  0  0  0  0  0  0  0  0  0
    1.9356   -0.4441   -1.6288 H   0  0  0  0  0  0  0  0  0  0  0  0
    4.0393   -0.9969    1.0524 H   0  0  0  0  0  0  0  0  0  0  0  0
    3.6958   -1.3897   -0.5855 H   0  0  0  0  0  0  0  0  0  0  0  0
  1  2  1  0
  1  4  1  0
  2  3  2  3
  3  5  1  0
  3 14  1  0
  6  7  1  0
  6 11  1  0
  6 12  1  0
  6 13  1  0
  7  8  1  0
  7 15  1  0
  8  9  2  3
  8 16  1  0
  9 10  1  0
 10 17  1  0
 10 18  1  0
M  RAD  1   7   2
M  END
>  <reaction>  (10) 
rmg_rxn_15509

>  <mol_properties>  (10) 
{"1": {"label": "*4", "atom_type": "N3d"}, "2": {"label": "*3", "atom_type": "Cd"}, "6": {"label": "*1", "atom_type": "Cs"}, "7": {"label": "*0", "atom_type": "Cd"}, "13": {"label": "*2", "atom_type": "H0"}}

>  <type>  (10) 
unop_6

>  <geom_source>  (10) 
Heuristics

$$$$

     RDKit          3D

 18 16  0  0  0  0  0  0  0  0999 V2000
   -2.1831   -2.1884    2.0278 O   0  0  0  0  0  0  0  0  0  0  0  0
   -1.0053   -2.1728    1.3071 N   0  0  0  0  0  0  0  0  0  0  0  0
   -1.1402   -1.5914    0.1948 C   0  0  0  0  0  0  0  0  0  0  0  0
   -1.9441   -2.6501    2.8339 H   0  0  0  0  0  0  0  0  0  0  0  0
   -2.0850   -1.1621   -0.1320 H   0  0  0  0  0  0  0  0  0  0  0  0
    0.9393   -0.2885   -2.2240 C   0  0  0  0  0  0  0  0  0  0  0  0
    0.9393   -0.2885   -0.7040 C   0  0  0  0  0  3  0  0  0  0  0  0
    0.9393    1.0716   -0.0790 C   0  0  0  0  0  0  0  0  0  0  0  0
    0.9234    2.1306   -0.7699 N   0  0  0  0  0  0  0  0  0  0  0  0
    0.8537    3.3344   -0.1154 N   0  0  0  0  0  0  0  0  0  0  0  0
    1.8192    0.2230   -2.6149 H   0  0  0  0  0  0  0  0  0  0  0  0
    0.0631    0.2295   -2.6140 H   0  0  0  0  0  0  0  0  0  0  0  0
    0.9360   -1.3112   -2.6031 H   0  0  0  0  0  0  0  0  0  0  0  0
   -0.1072   -0.9441   -0.2517 H   0  0  0  0  0  0  0  0  0  0  0  0
    1.8084   -0.8381   -0.3254 H   0  0  0  0  0  0  0  0  0  0  0  0
    0.9439    1.1138    1.0180 H   0  0  0  0  0  0  0  0  0  0  0  0
    1.2572    4.0576   -0.6879 H   0  0  0  0  0  0  0  0  0  0  0  0
    1.2562    3.3299    0.8167 H   0  0  0  0  0  0  0  0  0  0  0  0
  1  2  1  0
  1  4  1  0
  2  3  2  3
  3  5  1  0
  3 14  1  0
  6  7  1  0
  6 11  1  0
  6 12  1  0
  6 13  1  0
  7  8  1  0
  7 15  1  0
  8  9  2  3
  8 16  1  0
  9 10  1  0
 10 17  1  0
 10 18  1  0
M  RAD  1   7   2
M  END
>  <reaction>  (11) 
rmg_rxn_15509

>  <mol_properties>  (11) 
{"1": {"label": "*4", "atom_type": "N3d"}, "2": {"label": "*3", "atom_type": "Cd"}, "6": {"label": "*1", "atom_type": "Cs"}, "7": {"label": "*0", "atom_type": "Cd"}, "13": {"label": "*2", "atom_type": "H0"}}

>  <type>  (11) 
unop_7

>  <geom_source>  (11) 
Heuristics

$$$$

     RDKit          3D

 18 16  0  0  0  0  0  0  0  0999 V2000
   -2.9194   -1.6107    1.1847 O   0  0  0  0  0  0  0  0  0  0  0  0
   -1.9687   -1.3909    0.2075 N   0  0  0  0  0  0  0  0  0  0  0  0
   -0.8355   -1.8345    0.5432 C   0  0  0  0  0  0  0  0  0  0  0  0
   -3.7164   -1.2326    0.8081 H   0  0  0  0  0  0  0  0  0  0  0  0
   -0.6574   -2.3278    1.4964 H   0  0  0  0  0  0  0  0  0  0  0  0
    1.2440   -0.5316   -1.8756 C   0  0  0  0  0  0  0  0  0  0  0  0
    1.2440   -0.5316   -0.3556 C   0  0  0  0  0  3  0  0  0  0  0  0
    1.2440    0.8284    0.2693 C   0  0  0  0  0  0  0  0  0  0  0  0
    1.2281    1.8874   -0.4216 N   0  0  0  0  0  0  0  0  0  0  0  0
    1.1584    3.0912    0.2330 N   0  0  0  0  0  0  0  0  0  0  0  0
    2.1239   -0.0202   -2.2665 H   0  0  0  0  0  0  0  0  0  0  0  0
    0.3678   -0.0137   -2.2656 H   0  0  0  0  0  0  0  0  0  0  0  0
    1.2407   -1.5544   -2.2548 H   0  0  0  0  0  0  0  0  0  0  0  0
    0.1975   -1.1873    0.0967 H   0  0  0  0  0  0  0  0  0  0  0  0
    2.1131   -1.0813    0.0229 H   0  0  0  0  0  0  0  0  0  0  0  0
    1.2485    0.8707    1.3663 H   0  0  0  0  0  0  0  0  0  0  0  0
    1.5619    3.8145   -0.3395 H   0  0  0  0  0  0  0  0  0  0  0  0
    1.5609    3.0867    1.1650 H   0  0  0  0  0  0  0  0  0  0  0  0
  1  2  1  0
  1  4  1  0
  2  3  2  3
  3  5  1  0
  3 14  1  0
  6  7  1  0
  6 11  1  0
  6 12  1  0
  6 13  1  0
  7  8  1  0
  7 15  1  0
  8  9  2  3
  8 16  1  0
  9 10  1  0
 10 17  1  0
 10 18  1  0
M  RAD  1   7   2
M  END
>  <reaction>  (12) 
rmg_rxn_15509

>  <mol_properties>  (12) 
{"1": {"label": "*4", "atom_type": "N3d"}, "2": {"label": "*3", "atom_type": "Cd"}, "6": {"label": "*1", "atom_type": "Cs"}, "7": {"label": "*0", "atom_type": "Cd"}, "13": {"label": "*2", "atom_type": "H0"}}

>  <type>  (12) 
unop_8

>  <geom_source>  (12) 
Heuristics

$$$$

     RDKit          3D

 18 16  0  0  0  0  0  0  0  0999 V2000
   -3.7321    0.8147   -0.1316 O   0  0  0  0  0  0  0  0  0  0  0  0
   -2.5340    0.0885    0.0097 N   0  0  0  0  0  0  0  0  0  0  0  0
   -1.4700    0.7201    0.1414 C   0  0  0  0  0  0  0  0  0  0  0  0
   -4.4162    0.1367   -0.2146 H   0  0  0  0  0  0  0  0  0  0  0  0
   -1.3369    1.7960    0.1633 H   0  0  0  0  0  0  0  0  0  0  0  0
   -0.0591   -2.1387   -0.1857 C   0  0  0  0  0  0  0  0  0  0  0  0
    0.5747   -0.9146    0.4134 C   0  0  0  0  0  3  0  0  0  0  0  0
    1.6862   -0.3270   -0.2273 C   0  0  0  0  0  0  0  0  0  0  0  0
    2.4826    0.4754    0.4078 N   0  0  0  0  0  0  0  0  0  0  0  0
    3.4373    1.1210   -0.2798 N   0  0  0  0  0  0  0  0  0  0  0  0
   -0.0485   -2.0862   -1.2723 H   0  0  0  0  0  0  0  0  0  0  0  0
   -1.0906   -2.2347    0.1465 H   0  0  0  0  0  0  0  0  0  0  0  0
    0.4826   -3.0355    0.1198 H   0  0  0  0  0  0  0  0  0  0  0  0
   -0.4549   -0.0015    0.2589 H   0  0  0  0  0  0  0  0  0  0  0  0
    0.6170   -0.8968    1.4980 H   0  0  0  0  0  0  0  0  0  0  0  0
    1.8214   -0.5082   -1.3023 H   0  0  0  0  0  0  0  0  0  0  0  0
    4.2130    1.4088    0.2972 H   0  0  0  0  0  0  0  0  0  0  0  0
    3.6794    0.7745   -1.2086 H   0  0  0  0  0  0  0  0  0  0  0  0
  1  2  1  0
  1  4  1  0
  2  3  2  3
  3  5  1  0
  3 14  1  0
  6  7  1  0
  6 11  1  0
  6 12  1  0
  6 13  1  0
  7  8  1  0
  7 15  1  0
  8  9  2  3
  8 16  1  0
  9 10  1  0
 10 17  1  0
 10 18  1  0
M  RAD  1   7   2
M  END
>  <reaction>  (13) 
rmg_rxn_15509

>  <mol_properties>  (13) 
{"1": {"label": "*4", "atom_type": "N3d"}, "2": {"label": "*3", "atom_type": "Cd"}, "6": {"label": "*1", "atom_type": "Cs"}, "7": {"label": "*0", "atom_type": "Cd"}, "13": {"label": "*2", "atom_type": "H0"}}

>  <type>  (13) 
unop_9

>  <geom_source>  (13) 
Heuristics

$$$$

     RDKit          3D

 18 16  0  0  0  0  0  0  0  0999 V2000
   -2.3279   -2.4040    1.8331 O   0  0  0  0  0  0  0  0  0  0  0  0
   -1.2001   -1.6974    1.4645 N   0  0  0  0  0  0  0  0  0  0  0  0
   -1.0794   -1.6218    0.2103 C   0  0  0  0  0  0  0  0  0  0  0  0
   -2.2981   -2.3854    2.7917 H   0  0  0  0  0  0  0  0  0  0  0  0
   -1.7948   -2.0700   -0.4760 H   0  0  0  0  0  0  0  0  0  0  0  0
    1.0001   -0.3189   -2.2085 C   0  0  0  0  0  0  0  0  0  0  0  0
    1.0001   -0.3189   -0.6885 C   0  0  0  0  0  3  0  0  0  0  0  0
    1.0001    1.0411   -0.0636 C   0  0  0  0  0  0  0  0  0  0  0  0
    0.9842    2.1001   -0.7545 N   0  0  0  0  0  0  0  0  0  0  0  0
    0.9145    3.3040   -0.0999 N   0  0  0  0  0  0  0  0  0  0  0  0
    1.8799    0.1925   -2.5994 H   0  0  0  0  0  0  0  0  0  0  0  0
    0.1239    0.1990   -2.5985 H   0  0  0  0  0  0  0  0  0  0  0  0
    0.9967   -1.3417   -2.5877 H   0  0  0  0  0  0  0  0  0  0  0  0
   -0.0464   -0.9746   -0.2362 H   0  0  0  0  0  0  0  0  0  0  0  0
    1.8691   -0.8686   -0.3100 H   0  0  0  0  0  0  0  0  0  0  0  0
    1.0046    1.0834    1.0334 H   0  0  0  0  0  0  0  0  0  0  0  0
    1.3180    4.0272   -0.6724 H   0  0  0  0  0  0  0  0  0  0  0  0
    1.3170    3.2994    0.8321 H   0  0  0  0  0  0  0  0  0  0  0  0
  1  2  1  0
  1  4  1  0
  2  3  2  3
  3  5  1  0
  3 14  1  0
  6  7  1  0
  6 11  1  0
  6 12  1  0
  6 13  1  0
  7  8  1  0
  7 15  1  0
  8  9  2  3
  8 16  1  0
  9 10  1  0
 10 17  1  0
 10 18  1  0
M  RAD  1   7   2
M  END
>  <reaction>  (14) 
rmg_rxn_15509

>  <mol_properties>  (14) 
{"1": {"label": "*4", "atom_type": "N3d"}, "2": {"label": "*3", "atom_type": "Cd"}, "6": {"label": "*1", "atom_type": "Cs"}, "7": {"label": "*0", "atom_type": "Cd"}, "13": {"label": "*2", "atom_type": "H0"}}

>  <type>  (14) 
unop_10

>  <geom_source>  (14) 
Heuristics

$$$$

     RDKit          3D

 18 16  0  0  0  0  0  0  0  0999 V2000
   -3.7819    0.6463   -0.2509 O   0  0  0  0  0  0  0  0  0  0  0  0
   -2.5686   -0.0275   -0.0180 N   0  0  0  0  0  0  0  0  0  0  0  0
   -1.5651    0.6450    0.2797 C   0  0  0  0  0  0  0  0  0  0  0  0
   -4.4093   -0.0567   -0.4678 H   0  0  0  0  0  0  0  0  0  0  0  0
   -1.5005    1.7227    0.3860 H   0  0  0  0  0  0  0  0  0  0  0  0
    0.3481   -1.8292   -0.4958 C   0  0  0  0  0  0  0  0  0  0  0  0
    0.5424   -0.8872    0.6592 C   0  0  0  0  0  3  0  0  0  0  0  0
    1.6796   -0.0485    0.6814 C   0  0  0  0  0  0  0  0  0  0  0  0
    2.3649    0.2056   -0.3891 N   0  0  0  0  0  0  0  0  0  0  0  0
    3.3462    1.1178   -0.3305 N   0  0  0  0  0  0  0  0  0  0  0  0
    0.9384   -2.7342   -0.3471 H   0  0  0  0  0  0  0  0  0  0  0  0
    0.6773   -1.3540   -1.4147 H   0  0  0  0  0  0  0  0  0  0  0  0
   -0.6982   -2.1130   -0.5846 H   0  0  0  0  0  0  0  0  0  0  0  0
   -0.5286   -0.0302    0.4659 H   0  0  0  0  0  0  0  0  0  0  0  0
    0.2350   -1.2749    1.6262 H   0  0  0  0  0  0  0  0  0  0  0  0
    1.9303    0.4508    1.6279 H   0  0  0  0  0  0  0  0  0  0  0  0
    4.0458    0.9925   -1.0463 H   0  0  0  0  0  0  0  0  0  0  0  0
    3.6954    1.3915    0.5886 H   0  0  0  0  0  0  0  0  0  0  0  0
  1  2  1  0
  1  4  1  0
  2  3  2  3
  3  5  1  0
  3 14  1  0
  6  7  1  0
  6 11  1  0
  6 12  1  0
  6 13  1  0
  7  8  1  0
  7 15  1  0
  8  9  2  3
  8 16  1  0
  9 10  1  0
 10 17  1  0
 10 18  1  0
M  RAD  1   7   2
M  END
>  <reaction>  (15) 
rmg_rxn_15509

>  <mol_properties>  (15) 
{"1": {"label": "*4", "atom_type": "N3d"}, "2": {"label": "*3", "atom_type": "Cd"}, "6": {"label": "*1", "atom_type": "Cs"}, "7": {"label": "*0", "atom_type": "Cd"}, "13": {"label": "*2", "atom_type": "H0"}}

>  <type>  (15) 
unop_11

>  <geom_source>  (15) 
Heuristics

$$$$

     RDKit          3D

 18 16  0  0  0  0  0  0  0  0999 V2000
   -2.5986   -1.5705    1.7304 O   0  0  0  0  0  0  0  0  0  0  0  0
   -1.9533   -1.1984    0.5676 N   0  0  0  0  0  0  0  0  0  0  0  0
   -0.9044   -1.8733    0.3732 C   0  0  0  0  0  0  0  0  0  0  0  0
   -3.3626   -0.9911    1.7555 H   0  0  0  0  0  0  0  0  0  0  0  0
   -0.5716   -2.6505    1.0579 H   0  0  0  0  0  0  0  0  0  0  0  0
    1.1751   -0.5704   -2.0455 C   0  0  0  0  0  0  0  0  0  0  0  0
    1.1751   -0.5704   -0.5256 C   0  0  0  0  0  3  0  0  0  0  0  0
    1.1751    0.7896    0.0994 C   0  0  0  0  0  0  0  0  0  0  0  0
    1.1592    1.8486   -0.5915 N   0  0  0  0  0  0  0  0  0  0  0  0
    1.0895    3.0525    0.0631 N   0  0  0  0  0  0  0  0  0  0  0  0
    2.0550   -0.0589   -2.4364 H   0  0  0  0  0  0  0  0  0  0  0  0
    0.2989   -0.0525   -2.4355 H   0  0  0  0  0  0  0  0  0  0  0  0
    1.1718   -1.5932   -2.4247 H   0  0  0  0  0  0  0  0  0  0  0  0
    0.1286   -1.2261   -0.0732 H   0  0  0  0  0  0  0  0  0  0  0  0
    2.0442   -1.1200   -0.1470 H   0  0  0  0  0  0  0  0  0  0  0  0
    1.1797    0.8319    1.1964 H   0  0  0  0  0  0  0  0  0  0  0  0
    1.4930    3.7757   -0.5095 H   0  0  0  0  0  0  0  0  0  0  0  0
    1.4920    3.0479    0.9951 H   0  0  0  0  0  0  0  0  0  0  0  0
  1  2  1  0
  1  4  1  0
  2  3  2  3
  3  5  1  0
  3 14  1  0
  6  7  1  0
  6 11  1  0
  6 12  1  0
  6 13  1  0
  7  8  1  0
  7 15  1  0
  8  9  2  3
  8 16  1  0
  9 10  1  0
 10 17  1  0
 10 18  1  0
M  RAD  1   7   2
M  END
>  <reaction>  (16) 
rmg_rxn_15509

>  <mol_properties>  (16) 
{"1": {"label": "*4", "atom_type": "N3d"}, "2": {"label": "*3", "atom_type": "Cd"}, "6": {"label": "*1", "atom_type": "Cs"}, "7": {"label": "*0", "atom_type": "Cd"}, "13": {"label": "*2", "atom_type": "H0"}}

>  <type>  (16) 
unop_12

>  <geom_source>  (16) 
Heuristics

$$$$

     RDKit          3D

 18 16  0  0  0  0  0  0  0  0999 V2000
   -3.7694    0.6488   -0.2598 O   0  0  0  0  0  0  0  0  0  0  0  0
   -2.5526   -0.0232   -0.0408 N   0  0  0  0  0  0  0  0  0  0  0  0
   -1.5678    0.6401    0.3312 C   0  0  0  0  0  0  0  0  0  0  0  0
   -4.3794   -0.0452   -0.5446 H   0  0  0  0  0  0  0  0  0  0  0  0
   -1.5228    1.7084    0.5140 H   0  0  0  0  0  0  0  0  0  0  0  0
    0.3321   -1.8211   -0.4986 C   0  0  0  0  0  0  0  0  0  0  0  0
    0.5457   -0.8942    0.6651 C   0  0  0  0  0  3  0  0  0  0  0  0
    1.6843   -0.0574    0.6812 C   0  0  0  0  0  0  0  0  0  0  0  0
    2.3545    0.2089   -0.3960 N   0  0  0  0  0  0  0  0  0  0  0  0
    3.3379    1.1189   -0.3404 N   0  0  0  0  0  0  0  0  0  0  0  0
    0.6606   -1.3392   -1.4142 H   0  0  0  0  0  0  0  0  0  0  0  0
   -0.7184   -2.0903   -0.5836 H   0  0  0  0  0  0  0  0  0  0  0  0
    0.9118   -2.7350   -0.3637 H   0  0  0  0  0  0  0  0  0  0  0  0
   -0.5272   -0.0338    0.4979 H   0  0  0  0  0  0  0  0  0  0  0  0
    0.2516   -1.2931    1.6317 H   0  0  0  0  0  0  0  0  0  0  0  0
    1.9496    0.4296    1.6301 H   0  0  0  0  0  0  0  0  0  0  0  0
    4.0268    1.0015   -1.0678 H   0  0  0  0  0  0  0  0  0  0  0  0
    3.7010    1.3809    0.5768 H   0  0  0  0  0  0  0  0  0  0  0  0
  1  2  1  0
  1  4  1  0
  2  3  2  3
  3  5  1  0
  3 14  1  0
  6  7  1  0
  6 11  1  0
  6 12  1  0
  6 13  1  0
  7  8  1  0
  7 15  1  0
  8  9  2  3
  8 16  1  0
  9 10  1  0
 10 17  1  0
 10 18  1  0
M  RAD  1   7   2
M  END
>  <reaction>  (17) 
rmg_rxn_15509

>  <mol_properties>  (17) 
{"1": {"label": "*4", "atom_type": "N3d"}, "2": {"label": "*3", "atom_type": "Cd"}, "6": {"label": "*1", "atom_type": "Cs"}, "7": {"label": "*0", "atom_type": "Cd"}, "13": {"label": "*2", "atom_type": "H0"}}

>  <type>  (17) 
unop_13

>  <geom_source>  (17) 
Heuristics

$$$$

     RDKit          3D

 18 16  0  0  0  0  0  0  0  0999 V2000
   -2.2246   -1.8941    2.0609 O   0  0  0  0  0  0  0  0  0  0  0  0
   -1.8088   -1.1622    0.9661 N   0  0  0  0  0  0  0  0  0  0  0  0
   -1.0047   -1.8120    0.2418 C   0  0  0  0  0  0  0  0  0  0  0  0
   -2.8191   -1.2945    2.5160 H   0  0  0  0  0  0  0  0  0  0  0  0
   -0.6931   -2.8276    0.4764 H   0  0  0  0  0  0  0  0  0  0  0  0
    1.0748   -0.5091   -2.1769 C   0  0  0  0  0  0  0  0  0  0  0  0
    1.0748   -0.5091   -0.6570 C   0  0  0  0  0  3  0  0  0  0  0  0
    1.0748    0.8509   -0.0320 C   0  0  0  0  0  0  0  0  0  0  0  0
    1.0590    1.9099   -0.7229 N   0  0  0  0  0  0  0  0  0  0  0  0
    0.9893    3.1138   -0.0683 N   0  0  0  0  0  0  0  0  0  0  0  0
    1.9547    0.0024   -2.5678 H   0  0  0  0  0  0  0  0  0  0  0  0
    0.1987    0.0088   -2.5670 H   0  0  0  0  0  0  0  0  0  0  0  0
    1.0715   -1.5319   -2.5561 H   0  0  0  0  0  0  0  0  0  0  0  0
    0.0283   -1.1648   -0.2047 H   0  0  0  0  0  0  0  0  0  0  0  0
    1.9439   -1.0587   -0.2784 H   0  0  0  0  0  0  0  0  0  0  0  0
    1.0794    0.8932    1.0650 H   0  0  0  0  0  0  0  0  0  0  0  0
    1.3927    3.8370   -0.6409 H   0  0  0  0  0  0  0  0  0  0  0  0
    1.3918    3.1092    0.8637 H   0  0  0  0  0  0  0  0  0  0  0  0
  1  2  1  0
  1  4  1  0
  2  3  2  3
  3  5  1  0
  3 14  1  0
  6  7  1  0
  6 11  1  0
  6 12  1  0
  6 13  1  0
  7  8  1  0
  7 15  1  0
  8  9  2  3
  8 16  1  0
  9 10  1  0
 10 17  1  0
 10 18  1  0
M  RAD  1   7   2
M  END
>  <reaction>  (18) 
rmg_rxn_15509

>  <mol_properties>  (18) 
{"1": {"label": "*4", "atom_type": "N3d"}, "2": {"label": "*3", "atom_type": "Cd"}, "6": {"label": "*1", "atom_type": "Cs"}, "7": {"label": "*0", "atom_type": "Cd"}, "13": {"label": "*2", "atom_type": "H0"}}

>  <type>  (18) 
unop_14

>  <geom_source>  (18) 
Heuristics

$$$$

     RDKit          3D

 18 16  0  0  0  0  0  0  0  0999 V2000
   -3.7781   -0.6494    0.2525 O   0  0  0  0  0  0  0  0  0  0  0  0
   -2.5651    0.0272    0.0255 N   0  0  0  0  0  0  0  0  0  0  0  0
   -1.5654   -0.6408   -0.2944 C   0  0  0  0  0  0  0  0  0  0  0  0
   -4.4025    0.0497    0.4900 H   0  0  0  0  0  0  0  0  0  0  0  0
   -1.5043   -1.7161   -0.4241 H   0  0  0  0  0  0  0  0  0  0  0  0
    0.3480    1.8302    0.4971 C   0  0  0  0  0  0  0  0  0  0  0  0
    0.5445    0.8917   -0.6604 C   0  0  0  0  0  3  0  0  0  0  0  0
    1.6800    0.0506   -0.6814 C   0  0  0  0  0  0  0  0  0  0  0  0
    2.3614   -0.2077    0.3906 N   0  0  0  0  0  0  0  0  0  0  0  0
    3.3403   -1.1225    0.3331 N   0  0  0  0  0  0  0  0  0  0  0  0
   -0.6992    2.1099    0.5881 H   0  0  0  0  0  0  0  0  0  0  0  0
    0.9348    2.7377    0.3498 H   0  0  0  0  0  0  0  0  0  0  0  0
    0.6801    1.3537    1.4143 H   0  0  0  0  0  0  0  0  0  0  0  0
   -0.5285    0.0355   -0.4741 H   0  0  0  0  0  0  0  0  0  0  0  0
    0.2410    1.2831   -1.6271 H   0  0  0  0  0  0  0  0  0  0  0  0
    1.9324   -0.4468   -1.6285 H   0  0  0  0  0  0  0  0  0  0  0  0
    4.0381   -1.0003    1.0511 H   0  0  0  0  0  0  0  0  0  0  0  0
    3.6918   -1.3952   -0.5856 H   0  0  0  0  0  0  0  0  0  0  0  0
  1  2  1  0
  1  4  1  0
  2  3  2  3
  3  5  1  0
  3 14  1  0
  6  7  1  0
  6 11  1  0
  6 12  1  0
  6 13  1  0
  7  8  1  0
  7 15  1  0
  8  9  2  3
  8 16  1  0
  9 10  1  0
 10 17  1  0
 10 18  1  0
M  RAD  1   7   2
M  END
>  <reaction>  (19) 
rmg_rxn_15509

>  <mol_properties>  (19) 
{"1": {"label": "*4", "atom_type": "N3d"}, "2": {"label": "*3", "atom_type": "Cd"}, "6": {"label": "*1", "atom_type": "Cs"}, "7": {"label": "*0", "atom_type": "Cd"}, "13": {"label": "*2", "atom_type": "H0"}}

>  <type>  (19) 
unop_15

>  <geom_source>  (19) 
Heuristics

$$$$

     RDKit          3D

 18 16  0  0  0  0  0  0  0  0999 V2000
   -1.6959   -3.0112    1.7304 O   0  0  0  0  0  0  0  0  0  0  0  0
   -1.0797   -2.5929    0.5676 N   0  0  0  0  0  0  0  0  0  0  0  0
   -1.2294   -1.3546    0.3732 C   0  0  0  0  0  0  0  0  0  0  0  0
   -1.5078   -3.9515    1.7555 H   0  0  0  0  0  0  0  0  0  0  0  0
   -1.7836   -0.7161    1.0579 H   0  0  0  0  0  0  0  0  0  0  0  0
    0.8501   -0.0517   -2.0455 C   0  0  0  0  0  0  0  0  0  0  0  0
    0.8501   -0.0517   -0.5256 C   0  0  0  0  0  3  0  0  0  0  0  0
    0.8501    1.3083    0.0994 C   0  0  0  0  0  0  0  0  0  0  0  0
    0.8343    2.3673   -0.5915 N   0  0  0  0  0  0  0  0  0  0  0  0
    0.7646    3.5712    0.0631 N   0  0  0  0  0  0  0  0  0  0  0  0
    1.7300    0.4598   -2.4364 H   0  0  0  0  0  0  0  0  0  0  0  0
   -0.0260    0.4662   -2.4355 H   0  0  0  0  0  0  0  0  0  0  0  0
    0.8468   -1.0745   -2.4247 H   0  0  0  0  0  0  0  0  0  0  0  0
   -0.1964   -0.7074   -0.0732 H   0  0  0  0  0  0  0  0  0  0  0  0
    1.7192   -0.6013   -0.1470 H   0  0  0  0  0  0  0  0  0  0  0  0
    0.8547    1.3506    1.1964 H   0  0  0  0  0  0  0  0  0  0  0  0
    1.1681    4.2944   -0.5095 H   0  0  0  0  0  0  0  0  0  0  0  0
    1.1671    3.5666    0.9951 H   0  0  0  0  0  0  0  0  0  0  0  0
  1  2  1  0
  1  4  1  0
  2  3  2  3
  3  5  1  0
  3 14  1  0
  6  7  1  0
  6 11  1  0
  6 12  1  0
  6 13  1  0
  7  8  1  0
  7 15  1  0
  8  9  2  3
  8 16  1  0
  9 10  1  0
 10 17  1  0
 10 18  1  0
M  RAD  1   7   2
M  END
>  <reaction>  (20) 
rmg_rxn_15509

>  <mol_properties>  (20) 
{"1": {"label": "*4", "atom_type": "N3d"}, "2": {"label": "*3", "atom_type": "Cd"}, "6": {"label": "*1", "atom_type": "Cs"}, "7": {"label": "*0", "atom_type": "Cd"}, "13": {"label": "*2", "atom_type": "H0"}}

>  <type>  (20) 
unop_16

>  <geom_source>  (20) 
Heuristics

$$$$

     RDKit          3D

 18 16  0  0  0  0  0  0  0  0999 V2000
   -3.7304   -0.8165    0.1331 O   0  0  0  0  0  0  0  0  0  0  0  0
   -2.5332   -0.0885   -0.0068 N   0  0  0  0  0  0  0  0  0  0  0  0
   -1.4695   -0.7183   -0.1484 C   0  0  0  0  0  0  0  0  0  0  0  0
   -4.4145   -0.1396    0.2252 H   0  0  0  0  0  0  0  0  0  0  0  0
   -1.3360   -1.7939   -0.1798 H   0  0  0  0  0  0  0  0  0  0  0  0
   -0.0576    2.1409    0.1858 C   0  0  0  0  0  0  0  0  0  0  0  0
    0.5756    0.9170   -0.4142 C   0  0  0  0  0  3  0  0  0  0  0  0
    1.6855    0.3272    0.2275 C   0  0  0  0  0  0  0  0  0  0  0  0
    2.4813   -0.4763   -0.4071 N   0  0  0  0  0  0  0  0  0  0  0  0
    3.4339   -1.1239    0.2813 N   0  0  0  0  0  0  0  0  0  0  0  0
   -1.0882    2.2392   -0.1484 H   0  0  0  0  0  0  0  0  0  0  0  0
    0.4862    3.0374   -0.1166 H   0  0  0  0  0  0  0  0  0  0  0  0
   -0.0496    2.0862    1.2723 H   0  0  0  0  0  0  0  0  0  0  0  0
   -0.4548    0.0043   -0.2632 H   0  0  0  0  0  0  0  0  0  0  0  0
    0.6197    0.9008   -1.4987 H   0  0  0  0  0  0  0  0  0  0  0  0
    1.8197    0.5074    1.3027 H   0  0  0  0  0  0  0  0  0  0  0  0
    4.2096   -1.4132   -0.2950 H   0  0  0  0  0  0  0  0  0  0  0  0
    3.6758   -0.7781    1.2104 H   0  0  0  0  0  0  0  0  0  0  0  0
  1  2  1  0
  1  4  1  0
  2  3  2  3
  3  5  1  0
  3 14  1  0
  6  7  1  0
  6 11  1  0
  6 12  1  0
  6 13  1  0
  7  8  1  0
  7 15  1  0
  8  9  2  3
  8 16  1  0
  9 10  1  0
 10 17  1  0
 10 18  1  0
M  RAD  1   7   2
M  END
>  <reaction>  (21) 
rmg_rxn_15509

>  <mol_properties>  (21) 
{"1": {"label": "*4", "atom_type": "N3d"}, "2": {"label": "*3", "atom_type": "Cd"}, "6": {"label": "*1", "atom_type": "Cs"}, "7": {"label": "*0", "atom_type": "Cd"}, "13": {"label": "*2", "atom_type": "H0"}}

>  <type>  (21) 
unop_17

>  <geom_source>  (21) 
Heuristics

$$$$

     RDKit          3D

 18 16  0  0  0  0  0  0  0  0999 V2000
   -3.0001   -2.0381    0.6716 O   0  0  0  0  0  0  0  0  0  0  0  0
   -1.8688   -1.6820   -0.0357 N   0  0  0  0  0  0  0  0  0  0  0  0
   -0.8346   -1.7000    0.6879 C   0  0  0  0  0  0  0  0  0  0  0  0
   -3.6981   -1.9840    0.0159 H   0  0  0  0  0  0  0  0  0  0  0  0
   -0.8606   -1.9685    1.7418 H   0  0  0  0  0  0  0  0  0  0  0  0
    1.2449   -0.3971   -1.7309 C   0  0  0  0  0  0  0  0  0  0  0  0
    1.2449   -0.3971   -0.2109 C   0  0  0  0  0  3  0  0  0  0  0  0
    1.2449    0.9629    0.4140 C   0  0  0  0  0  0  0  0  0  0  0  0
    1.2290    2.0219   -0.2769 N   0  0  0  0  0  0  0  0  0  0  0  0
    1.1593    3.2257    0.3777 N   0  0  0  0  0  0  0  0  0  0  0  0
    2.1248    0.1143   -2.1218 H   0  0  0  0  0  0  0  0  0  0  0  0
    0.3687    0.1208   -2.1209 H   0  0  0  0  0  0  0  0  0  0  0  0
    1.2416   -1.4199   -2.1101 H   0  0  0  0  0  0  0  0  0  0  0  0
    0.1984   -1.0528    0.2414 H   0  0  0  0  0  0  0  0  0  0  0  0
    2.1140   -0.9468    0.1676 H   0  0  0  0  0  0  0  0  0  0  0  0
    1.2495    1.0052    1.5110 H   0  0  0  0  0  0  0  0  0  0  0  0
    1.5628    3.9490   -0.1948 H   0  0  0  0  0  0  0  0  0  0  0  0
    1.5618    3.2212    1.3097 H   0  0  0  0  0  0  0  0  0  0  0  0
  1  2  1  0
  1  4  1  0
  2  3  2  3
  3  5  1  0
  3 14  1  0
  6  7  1  0
  6 11  1  0
  6 12  1  0
  6 13  1  0
  7  8  1  0
  7 15  1  0
  8  9  2  3
  8 16  1  0
  9 10  1  0
 10 17  1  0
 10 18  1  0
M  RAD  1   7   2
M  END
>  <reaction>  (22) 
rmg_rxn_15509

>  <mol_properties>  (22) 
{"1": {"label": "*4", "atom_type": "N3d"}, "2": {"label": "*3", "atom_type": "Cd"}, "6": {"label": "*1", "atom_type": "Cs"}, "7": {"label": "*0", "atom_type": "Cd"}, "13": {"label": "*2", "atom_type": "H0"}}

>  <type>  (22) 
unop_18

>  <geom_source>  (22) 
Heuristics

$$$$

     RDKit          3D

 18 16  0  0  0  0  0  0  0  0999 V2000
   -1.8721   -3.2823    1.1847 O   0  0  0  0  0  0  0  0  0  0  0  0
   -1.2595   -2.5227    0.2075 N   0  0  0  0  0  0  0  0  0  0  0  0
   -1.1645   -1.3095    0.5432 C   0  0  0  0  0  0  0  0  0  0  0  0
   -1.8795   -4.1644    0.8081 H   0  0  0  0  0  0  0  0  0  0  0  0
   -1.5306   -0.9341    1.4964 H   0  0  0  0  0  0  0  0  0  0  0  0
    0.9150   -0.0066   -1.8756 C   0  0  0  0  0  0  0  0  0  0  0  0
    0.9150   -0.0066   -0.3556 C   0  0  0  0  0  3  0  0  0  0  0  0
    0.9150    1.3534    0.2693 C   0  0  0  0  0  0  0  0  0  0  0  0
    0.8992    2.4124   -0.4216 N   0  0  0  0  0  0  0  0  0  0  0  0
    0.8295    3.6162    0.2330 N   0  0  0  0  0  0  0  0  0  0  0  0
    1.7949    0.5048   -2.2665 H   0  0  0  0  0  0  0  0  0  0  0  0
    0.0389    0.5113   -2.2656 H   0  0  0  0  0  0  0  0  0  0  0  0
    0.9117   -1.0294   -2.2548 H   0  0  0  0  0  0  0  0  0  0  0  0
   -0.1315   -0.6623    0.0967 H   0  0  0  0  0  0  0  0  0  0  0  0
    1.7841   -0.5563    0.0229 H   0  0  0  0  0  0  0  0  0  0  0  0
    0.9196    1.3957    1.3663 H   0  0  0  0  0  0  0  0  0  0  0  0
    1.2330    4.3395   -0.3395 H   0  0  0  0  0  0  0  0  0  0  0  0
    1.2320    3.6117    1.1650 H   0  0  0  0  0  0  0  0  0  0  0  0
  1  2  1  0
  1  4  1  0
  2  3  2  3
  3  5  1  0
  3 14  1  0
  6  7  1  0
  6 11  1  0
  6 12  1  0
  6 13  1  0
  7  8  1  0
  7 15  1  0
  8  9  2  3
  8 16  1  0
  9 10  1  0
 10 17  1  0
 10 18  1  0
M  RAD  1   7   2
M  END
>  <reaction>  (23) 
rmg_rxn_15509

>  <mol_properties>  (23) 
{"1": {"label": "*4", "atom_type": "N3d"}, "2": {"label": "*3", "atom_type": "Cd"}, "6": {"label": "*1", "atom_type": "Cs"}, "7": {"label": "*0", "atom_type": "Cd"}, "13": {"label": "*2", "atom_type": "H0"}}

>  <type>  (23) 
unop_19

>  <geom_source>  (23) 
Heuristics

$$$$

     RDKit          3D

 18 16  0  0  0  0  0  0  0  0999 V2000
   -2.0707   -2.3678    2.0278 O   0  0  0  0  0  0  0  0  0  0  0  0
   -1.5429   -1.3147    1.3071 N   0  0  0  0  0  0  0  0  0  0  0  0
   -1.0785   -1.6898    0.1948 C   0  0  0  0  0  0  0  0  0  0  0  0
   -2.3819   -1.9513    2.8339 H   0  0  0  0  0  0  0  0  0  0  0  0
   -1.1044   -2.7271   -0.1320 H   0  0  0  0  0  0  0  0  0  0  0  0
    1.0010   -0.3869   -2.2240 C   0  0  0  0  0  0  0  0  0  0  0  0
    1.0010   -0.3869   -0.7040 C   0  0  0  0  0  3  0  0  0  0  0  0
    1.0010    0.9731   -0.0790 C   0  0  0  0  0  0  0  0  0  0  0  0
    0.9851    2.0321   -0.7699 N   0  0  0  0  0  0  0  0  0  0  0  0
    0.9154    3.2360   -0.1154 N   0  0  0  0  0  0  0  0  0  0  0  0
    1.8808    0.1246   -2.6149 H   0  0  0  0  0  0  0  0  0  0  0  0
    0.1248    0.1310   -2.6140 H   0  0  0  0  0  0  0  0  0  0  0  0
    0.9976   -1.4097   -2.6031 H   0  0  0  0  0  0  0  0  0  0  0  0
   -0.0455   -1.0426   -0.2517 H   0  0  0  0  0  0  0  0  0  0  0  0
    1.8701   -0.9365   -0.3254 H   0  0  0  0  0  0  0  0  0  0  0  0
    1.0055    1.0154    1.0180 H   0  0  0  0  0  0  0  0  0  0  0  0
    1.3189    3.9592   -0.6879 H   0  0  0  0  0  0  0  0  0  0  0  0
    1.3179    3.2314    0.8167 H   0  0  0  0  0  0  0  0  0  0  0  0
  1  2  1  0
  1  4  1  0
  2  3  2  3
  3  5  1  0
  3 14  1  0
  6  7  1  0
  6 11  1  0
  6 12  1  0
  6 13  1  0
  7  8  1  0
  7 15  1  0
  8  9  2  3
  8 16  1  0
  9 10  1  0
 10 17  1  0
 10 18  1  0
M  RAD  1   7   2
M  END
>  <reaction>  (24) 
rmg_rxn_15509

>  <mol_properties>  (24) 
{"1": {"label": "*4", "atom_type": "N3d"}, "2": {"label": "*3", "atom_type": "Cd"}, "6": {"label": "*1", "atom_type": "Cs"}, "7": {"label": "*0", "atom_type": "Cd"}, "13": {"label": "*2", "atom_type": "H0"}}

>  <type>  (24) 
unop_20

>  <geom_source>  (24) 
Heuristics

$$$$

     RDKit          3D

 18 16  0  0  0  0  0  0  0  0999 V2000
   -2.7547   -2.6714    0.4580 O   0  0  0  0  0  0  0  0  0  0  0  0
   -1.6920   -2.0056   -0.1202 N   0  0  0  0  0  0  0  0  0  0  0  0
   -0.9133   -1.5177    0.7454 C   0  0  0  0  0  0  0  0  0  0  0  0
   -3.2566   -2.9859   -0.2964 H   0  0  0  0  0  0  0  0  0  0  0  0
   -1.0839   -1.6246    1.8146 H   0  0  0  0  0  0  0  0  0  0  0  0
    1.1662   -0.2148   -1.6734 C   0  0  0  0  0  0  0  0  0  0  0  0
    1.1662   -0.2148   -0.1534 C   0  0  0  0  0  3  0  0  0  0  0  0
    1.1662    1.1452    0.4716 C   0  0  0  0  0  0  0  0  0  0  0  0
    1.1503    2.2042   -0.2193 N   0  0  0  0  0  0  0  0  0  0  0  0
    1.0806    3.4080    0.4352 N   0  0  0  0  0  0  0  0  0  0  0  0
    2.0460    0.2966   -2.0643 H   0  0  0  0  0  0  0  0  0  0  0  0
    0.2900    0.3031   -2.0634 H   0  0  0  0  0  0  0  0  0  0  0  0
    1.1628   -1.2376   -2.0525 H   0  0  0  0  0  0  0  0  0  0  0  0
    0.1197   -0.8705    0.2989 H   0  0  0  0  0  0  0  0  0  0  0  0
    2.0352   -0.7645    0.2252 H   0  0  0  0  0  0  0  0  0  0  0  0
    1.1707    1.1875    1.5686 H   0  0  0  0  0  0  0  0  0  0  0  0
    1.4841    4.1313   -0.1373 H   0  0  0  0  0  0  0  0  0  0  0  0
    1.4831    3.4035    1.3673 H   0  0  0  0  0  0  0  0  0  0  0  0
  1  2  1  0
  1  4  1  0
  2  3  2  3
  3  5  1  0
  3 14  1  0
  6  7  1  0
  6 11  1  0
  6 12  1  0
  6 13  1  0
  7  8  1  0
  7 15  1  0
  8  9  2  3
  8 16  1  0
  9 10  1  0
 10 17  1  0
 10 18  1  0
M  RAD  1   7   2
M  END
>  <reaction>  (25) 
rmg_rxn_15509

>  <mol_properties>  (25) 
{"1": {"label": "*4", "atom_type": "N3d"}, "2": {"label": "*3", "atom_type": "Cd"}, "6": {"label": "*1", "atom_type": "Cs"}, "7": {"label": "*0", "atom_type": "Cd"}, "13": {"label": "*2", "atom_type": "H0"}}

>  <type>  (25) 
unop_21

>  <geom_source>  (25) 
Heuristics

$$$$

     RDKit          3D

 18 16  0  0  0  0  0  0  0  0999 V2000
   -3.7715   -0.6506    0.2566 O   0  0  0  0  0  0  0  0  0  0  0  0
   -2.5573    0.0248    0.0334 N   0  0  0  0  0  0  0  0  0  0  0  0
   -1.5653   -0.6396   -0.3165 C   0  0  0  0  0  0  0  0  0  0  0  0
   -4.3885    0.0453    0.5208 H   0  0  0  0  0  0  0  0  0  0  0  0
   -1.5114   -1.7114   -0.4752 H   0  0  0  0  0  0  0  0  0  0  0  0
    0.3385    1.8256    0.4999 C   0  0  0  0  0  0  0  0  0  0  0  0
    0.5457    0.8957   -0.6626 C   0  0  0  0  0  3  0  0  0  0  0  0
    1.6827    0.0568   -0.6814 C   0  0  0  0  0  0  0  0  0  0  0  0
    2.3556   -0.2100    0.3940 N   0  0  0  0  0  0  0  0  0  0  0  0
    3.3365   -1.1226    0.3364 N   0  0  0  0  0  0  0  0  0  0  0  0
    0.6669    1.3442    1.4159 H   0  0  0  0  0  0  0  0  0  0  0  0
   -0.7105    2.0999    0.5864 H   0  0  0  0  0  0  0  0  0  0  0  0
    0.9221    2.7366    0.3622 H   0  0  0  0  0  0  0  0  0  0  0  0
   -0.5271    0.0366   -0.4887 H   0  0  0  0  0  0  0  0  0  0  0  0
    0.2484    1.2930   -1.6288 H   0  0  0  0  0  0  0  0  0  0  0  0
    1.9438   -0.4321   -1.6305 H   0  0  0  0  0  0  0  0  0  0  0  0
    4.0277   -1.0066    1.0618 H   0  0  0  0  0  0  0  0  0  0  0  0
    3.6961   -1.3866   -0.5815 H   0  0  0  0  0  0  0  0  0  0  0  0
  1  2  1  0
  1  4  1  0
  2  3  2  3
  3  5  1  0
  3 14  1  0
  6  7  1  0
  6 11  1  0
  6 12  1  0
  6 13  1  0
  7  8  1  0
  7 15  1  0
  8  9  2  3
  8 16  1  0
  9 10  1  0
 10 17  1  0
 10 18  1  0
M  RAD  1   7   2
M  END
>  <reaction>  (26) 
rmg_rxn_15509

>  <mol_properties>  (26) 
{"1": {"label": "*4", "atom_type": "N3d"}, "2": {"label": "*3", "atom_type": "Cd"}, "6": {"label": "*1", "atom_type": "Cs"}, "7": {"label": "*0", "atom_type": "Cd"}, "13": {"label": "*2", "atom_type": "H0"}}

>  <type>  (26) 
unop_22

>  <geom_source>  (26) 
Heuristics

$$$$

     RDKit          3D

 18 16  0  0  0  0  0  0  0  0999 V2000
    3.8307   -0.8682   -1.2944 O   0  0  0  0  0  0  0  0  0  0  0  0
   -2.4983   -1.6142   -0.6436 N   0  0  0  0  0  0  0  0  0  0  0  0
   -1.4966   -0.6505   -0.4599 N   0  0  0  0  0  0  0  0  0  0  0  0
    3.0306   -0.0870   -0.4876 N   0  0  0  0  0  0  0  0  0  0  0  0
   -0.5097    2.1652    0.2313 C   0  0  0  0  0  0  0  0  0  0  0  0
   -0.1284    0.8360    0.8711 C   0  0  0  0  0  3  0  0  0  0  0  0
   -1.2171   -0.1754    0.7125 C   0  0  0  0  0  0  0  0  0  0  0  0
    1.8909   -0.5100   -0.0435 C   0  0  0  0  0  0  0  0  0  0  0  0
   -1.4321    2.5696    0.7004 H   0  0  0  0  0  0  0  0  0  0  0  0
    0.3158    2.8925    0.3773 H   0  0  0  0  0  0  0  0  0  0  0  0
   -0.6754    2.0337   -0.8590 H   0  0  0  0  0  0  0  0  0  0  0  0
    0.0829    0.9920    1.9507 H   0  0  0  0  0  0  0  0  0  0  0  0
   -1.7460   -0.5287    1.5902 H   0  0  0  0  0  0  0  0  0  0  0  0
    1.5292   -1.4990   -0.2950 H   0  0  0  0  0  0  0  0  0  0  0  0
    1.2206    0.2037    0.6596 H   0  0  0  0  0  0  0  0  0  0  0  0
   -3.0546   -1.9809    0.1616 H   0  0  0  0  0  0  0  0  0  0  0  0
   -2.6964   -1.9745   -1.6026 H   0  0  0  0  0  0  0  0  0  0  0  0
    3.5541   -1.8044   -1.5692 H   0  0  0  0  0  0  0  0  0  0  0  0
  1  4  1  0
  1 18  1  0
  2  3  1  0
  2 16  1  0
  2 17  1  0
  3  7  2  3
  4  8  2  3
  5  6  1  0
  5  9  1  0
  5 10  1  0
  5 11  1  0
  6  7  1  0
  6 12  1  0
  7 13  1  0
  8 14  1  0
  8 15  1  0
M  RAD  1   6   2
M  END
>  <reaction>  (27) 
rmg_rxn_15509

>  <mol_properties>  (27) 
{"1": {"label": "*4", "atom_type": "N3d"}, "2": {"label": "*3", "atom_type": "Cd"}, "6": {"label": "*1", "atom_type": "Cs"}, "7": {"label": "*0", "atom_type": "Cd"}, "13": {"label": "*2", "atom_type": "H0"}}

>  <type>  (27) 
unop_23

>  <geom_source>  (27) 
AutoTST

$$$$

     RDKit          3D

 18 16  0  0  0  0  0  0  0  0999 V2000
   -2.2919   -3.1685    0.6716 O   0  0  0  0  0  0  0  0  0  0  0  0
   -1.4779   -2.3059   -0.0357 N   0  0  0  0  0  0  0  0  0  0  0  0
   -1.0430   -1.3674    0.6878 C   0  0  0  0  0  0  0  0  0  0  0  0
   -2.5476   -3.8202    0.0159 H   0  0  0  0  0  0  0  0  0  0  0  0
   -1.2959   -1.2737    1.7418 H   0  0  0  0  0  0  0  0  0  0  0  0
    1.0365   -0.0645   -1.7309 C   0  0  0  0  0  0  0  0  0  0  0  0
    1.0365   -0.0645   -0.2109 C   0  0  0  0  0  3  0  0  0  0  0  0
    1.0365    1.2955    0.4140 C   0  0  0  0  0  0  0  0  0  0  0  0
    1.0206    2.3546   -0.2769 N   0  0  0  0  0  0  0  0  0  0  0  0
    0.9509    3.5584    0.3777 N   0  0  0  0  0  0  0  0  0  0  0  0
    1.9164    0.4470   -2.1218 H   0  0  0  0  0  0  0  0  0  0  0  0
    0.1603    0.4535   -2.1209 H   0  0  0  0  0  0  0  0  0  0  0  0
    1.0332   -1.0872   -2.1101 H   0  0  0  0  0  0  0  0  0  0  0  0
   -0.0100   -0.7201    0.2414 H   0  0  0  0  0  0  0  0  0  0  0  0
    1.9056   -0.6141    0.1676 H   0  0  0  0  0  0  0  0  0  0  0  0
    1.0410    1.3378    1.5110 H   0  0  0  0  0  0  0  0  0  0  0  0
    1.3544    4.2816   -0.1948 H   0  0  0  0  0  0  0  0  0  0  0  0
    1.3534    3.5539    1.3097 H   0  0  0  0  0  0  0  0  0  0  0  0
  1  2  1  0
  1  4  1  0
  2  3  2  3
  3  5  1  0
  3 14  1  0
  6  7  1  0
  6 11  1  0
  6 12  1  0
  6 13  1  0
  7  8  1  0
  7 15  1  0
  8  9  2  3
  8 16  1  0
  9 10  1  0
 10 17  1  0
 10 18  1  0
M  RAD  1   7   2
M  END
>  <reaction>  (28) 
rmg_rxn_15509

>  <mol_properties>  (28) 
{"1": {"label": "*4", "atom_type": "N3d"}, "2": {"label": "*3", "atom_type": "Cd"}, "6": {"label": "*1", "atom_type": "Cs"}, "7": {"label": "*0", "atom_type": "Cd"}, "13": {"label": "*2", "atom_type": "H0"}}

>  <type>  (28) 
unop_24

>  <geom_source>  (28) 
gaussian_log

$$$$
