
     RDKit          3D

  9  8  0  0  0  0  0  0  0  0999 V2000
   -1.2461    0.5037    0.0950 C   0  0  0  0  0  0  0  0  0  0  0  0
   -0.0155   -0.3334    0.0640 C   0  0  0  0  0  0  0  0  0  0  0  0
    1.0697    0.1457   -0.3733 N   0  0  0  0  0  0  0  0  0  0  0  0
    2.1001   -0.7834   -0.3224 O   0  0  0  0  0  0  0  0  0  0  0  0
   -2.0357    0.0440   -0.5039 H   0  0  0  0  0  0  0  0  0  0  0  0
   -1.6237    0.5897    1.1166 H   0  0  0  0  0  0  0  0  0  0  0  0
   -1.0397    1.4998   -0.2929 H   0  0  0  0  0  0  0  0  0  0  0  0
   -0.0537   -1.3634    0.4205 H   0  0  0  0  0  0  0  0  0  0  0  0
    2.8478   -0.2985   -0.6758 H   0  0  0  0  0  0  0  0  0  0  0  0
  1  2  1  0
  1  5  1  0
  1  6  1  0
  1  7  1  0
  2  3  2  3
  2  8  1  0
  3  4  1  0
  4  9  1  0
M  END
>  <reaction>  (1) 
rmg_rxn_15545

>  <mol_properties>  (1) 
{"0": {"label": "donator", "atom_type": "Cs"}, "4": {"label": "d_hydrogen", "atom_type": "H0"}}

>  <type>  (1) 
r1h

$$$$

     RDKit          3D

  5  4  0  0  0  0  0  0  0  0999 V2000
    0.8934    0.3742    0.4948 O   0  0  0  0  0  0  0  0  0  0  0  0
    0.1582   -0.1610   -0.5904 N   0  0  0  0  0  0  0  0  0  0  0  0
   -1.0297   -0.3739   -0.4689 C   0  0  0  0  0  3  0  0  0  0  0  0
    1.7804    0.4382    0.1306 H   0  0  0  0  0  0  0  0  0  0  0  0
   -1.8023   -0.2775    0.2859 H   0  0  0  0  0  0  0  0  0  0  0  0
  1  2  1  0
  1  4  1  0
  2  3  2  3
  3  5  1  0
M  RAD  1   3   2
M  END
>  <reaction>  (2) 
rmg_rxn_15545

>  <mol_properties>  (2) 
{"2": {"label": "acceptor", "atom_type": "Cd"}}

>  <type>  (2) 
r2

$$$$

     RDKit          3D

  6  5  0  0  0  0  0  0  0  0999 V2000
    1.2314    0.0428    0.5088 O   0  0  0  0  0  0  0  0  0  0  0  0
    0.2987    0.2341   -0.4915 N   0  0  0  0  0  0  0  0  0  0  0  0
   -0.8599   -0.1122   -0.1290 C   0  0  0  0  0  0  0  0  0  0  0  0
    2.0507    0.3401    0.1082 H   0  0  0  0  0  0  0  0  0  0  0  0
   -1.0700   -0.5112    0.8610 H   0  0  0  0  0  0  0  0  0  0  0  0
   -1.6509    0.0064   -0.8574 H   0  0  0  0  0  0  0  0  0  0  0  0
  1  2  1  0
  1  4  1  0
  2  3  2  3
  3  5  1  0
  3  6  1  0
M  END
>  <reaction>  (3) 
rmg_rxn_15545

>  <mol_properties>  (3) 
{"2": {"label": "acceptor", "atom_type": "Cd"}, "5": {"label": "a_hydrogen", "atom_type": "H0"}}

>  <type>  (3) 
r2h

$$$$

     RDKit          3D

 14 12  0  0  0  0  0  0  0  0999 V2000
    2.6201    1.9186    0.8628 O   0  0  0  0  0  0  0  0  0  0  0  0
    1.3793    1.3103    0.6482 N   0  0  0  0  0  0  0  0  0  0  0  0
    0.8350    0.8551    1.6633 C   0  0  0  0  0  3  0  0  0  0  0  0
    2.8797    2.1883   -0.0214 H   0  0  0  0  0  0  0  0  0  0  0  0
    1.1761    0.8552    2.6974 H   0  0  0  0  0  0  0  0  0  0  0  0
   -1.5027   -0.2952    0.9221 C   0  0  0  0  0  0  0  0  0  0  0  0
   -1.3684   -0.4994   -0.5185 C   0  0  0  0  0  0  0  0  0  0  0  0
   -1.1130   -1.6603   -0.9728 N   0  0  0  0  0  0  0  0  0  0  0  0
   -0.9785   -1.6494   -2.3491 O   0  0  0  0  0  0  0  0  0  0  0  0
   -0.4452    0.2225    1.3232 H   0  0  0  0  0  0  0  0  0  0  0  0
   -2.2553    0.4414    1.1968 H   0  0  0  0  0  0  0  0  0  0  0  0
   -1.5940   -1.2204    1.4860 H   0  0  0  0  0  0  0  0  0  0  0  0
   -1.4457    0.3490   -1.1971 H   0  0  0  0  0  0  0  0  0  0  0  0
   -0.8010   -2.5679   -2.5597 H   0  0  0  0  0  0  0  0  0  0  0  0
  1  2  1  0
  1  4  1  0
  2  3  2  3
  3  5  1  0
  6  7  1  0
  6 10  1  0
  6 11  1  0
  6 12  1  0
  7  8  2  3
  7 13  1  0
  8  9  1  0
  9 14  1  0
M  RAD  1   3   2
M  END
>  <reaction>  (4) 
rmg_rxn_15545

>  <mol_properties>  (4) 
{"1": {"label": "*4", "atom_type": "N3d"}, "2": {"label": "*3", "atom_type": "Cd"}, "5": {"label": "*1", "atom_type": "Cs"}, "6": {"label": "*0", "atom_type": "Cd"}, "9": {"label": "*2", "atom_type": "H0"}}

>  <type>  (4) 
ts

$$$$

     RDKit          3D

 14 12  0  0  0  0  0  0  0  0999 V2000
    3.7890   -0.5125    0.0822 O   0  0  0  0  0  0  0  0  0  0  0  0
    2.5855    0.1986    0.1059 N   0  0  0  0  0  0  0  0  0  0  0  0
    1.5375   -0.3410   -0.2781 C   0  0  0  0  0  0  0  0  0  0  0  0
    4.4479    0.1096    0.4221 H   0  0  0  0  0  0  0  0  0  0  0  0
    1.3749   -1.3426   -0.6559 H   0  0  0  0  0  0  0  0  0  0  0  0
   -0.5346    1.2623   -0.1368 C   0  0  0  0  0  3  0  0  0  0  0  0
   -1.6307    0.5280    0.3818 C   0  0  0  0  0  0  0  0  0  0  0  0
   -2.4391   -0.0816   -0.4163 N   0  0  0  0  0  0  0  0  0  0  0  0
   -3.4399   -0.8037    0.2230 O   0  0  0  0  0  0  0  0  0  0  0  0
    0.5183    0.4083   -0.2022 H   0  0  0  0  0  0  0  0  0  0  0  0
   -0.6118    1.5435   -1.1785 H   0  0  0  0  0  0  0  0  0  0  0  0
   -0.1100    2.0153    0.5111 H   0  0  0  0  0  0  0  0  0  0  0  0
   -1.7442    0.4353    1.4624 H   0  0  0  0  0  0  0  0  0  0  0  0
   -3.9695   -1.1741   -0.4967 H   0  0  0  0  0  0  0  0  0  0  0  0
  1  2  1  0
  1  4  1  0
  2  3  2  3
  3  5  1  0
  3 10  1  0
  6  7  1  0
  6 11  1  0
  6 12  1  0
  7  8  2  3
  7 13  1  0
  8  9  1  0
  9 14  1  0
M  RAD  1   6   2
M  END
>  <reaction>  (5) 
rmg_rxn_15545

>  <mol_properties>  (5) 
{"1": {"label": "*4", "atom_type": "N3d"}, "2": {"label": "*3", "atom_type": "Cd"}, "5": {"label": "*1", "atom_type": "Cs"}, "6": {"label": "*0", "atom_type": "Cd"}, "9": {"label": "*2", "atom_type": "H0"}}

>  <type>  (5) 
unop_1

>  <geom_source>  (5) 
crest_best.xyz

$$$$

     RDKit          3D

 14 12  0  0  0  0  0  0  0  0999 V2000
    1.7440    2.1644    2.7024 O   0  0  0  0  0  0  0  0  0  0  0  0
    0.9086    1.9701    1.6201 N   0  0  0  0  0  0  0  0  0  0  0  0
    1.1235    0.8642    1.0506 C   0  0  0  0  0  0  0  0  0  0  0  0
    1.4795    3.0242    3.0354 H   0  0  0  0  0  0  0  0  0  0  0  0
    1.8838    0.1657    1.3935 H   0  0  0  0  0  0  0  0  0  0  0  0
   -0.9768   -0.5076    0.3331 C   0  0  0  0  0  3  0  0  0  0  0  0
   -0.9768   -0.7271   -1.1393 C   0  0  0  0  0  0  0  0  0  0  0  0
   -0.9768   -1.9011   -1.6081 N   0  0  0  0  0  0  0  0  0  0  0  0
   -0.9768   -1.9011   -2.9965 O   0  0  0  0  0  0  0  0  0  0  0  0
    0.0785    0.1816    0.6936 H   0  0  0  0  0  0  0  0  0  0  0  0
   -1.8562    0.0668    0.6335 H   0  0  0  0  0  0  0  0  0  0  0  0
   -0.9768   -1.4599    0.8607 H   0  0  0  0  0  0  0  0  0  0  0  0
   -0.9768    0.1304   -1.8132 H   0  0  0  0  0  0  0  0  0  0  0  0
   -0.9768   -2.8348   -3.2140 H   0  0  0  0  0  0  0  0  0  0  0  0
  1  2  1  0
  1  4  1  0
  2  3  2  3
  3  5  1  0
  3 10  1  0
  6  7  1  0
  6 11  1  0
  6 12  1  0
  7  8  2  3
  7 13  1  0
  8  9  1  0
  9 14  1  0
M  RAD  1   6   2
M  END
>  <reaction>  (6) 
rmg_rxn_15545

>  <mol_properties>  (6) 
{"1": {"label": "*4", "atom_type": "N3d"}, "2": {"label": "*3", "atom_type": "Cd"}, "5": {"label": "*1", "atom_type": "Cs"}, "6": {"label": "*0", "atom_type": "Cd"}, "9": {"label": "*2", "atom_type": "H0"}}

>  <type>  (6) 
unop_2

>  <geom_source>  (6) 
Heuristics

$$$$

     RDKit          3D

 14 12  0  0  0  0  0  0  0  0999 V2000
    3.7787    0.5216   -0.0886 O   0  0  0  0  0  0  0  0  0  0  0  0
    2.5771   -0.1923   -0.1232 N   0  0  0  0  0  0  0  0  0  0  0  0
    1.5375    0.3198    0.3172 C   0  0  0  0  0  0  0  0  0  0  0  0
    4.4305   -0.0771   -0.4801 H   0  0  0  0  0  0  0  0  0  0  0  0
    1.3817    1.2974    0.7560 H   0  0  0  0  0  0  0  0  0  0  0  0
   -0.5387   -1.2742    0.1357 C   0  0  0  0  0  3  0  0  0  0  0  0
   -1.6252   -0.5268   -0.3847 C   0  0  0  0  0  0  0  0  0  0  0  0
   -2.4362    0.0801    0.4126 N   0  0  0  0  0  0  0  0  0  0  0  0
   -3.4258    0.8166   -0.2274 O   0  0  0  0  0  0  0  0  0  0  0  0
    0.5179   -0.4266    0.2221 H   0  0  0  0  0  0  0  0  0  0  0  0
   -0.6277   -1.5678    1.1730 H   0  0  0  0  0  0  0  0  0  0  0  0
   -0.1122   -2.0216   -0.5175 H   0  0  0  0  0  0  0  0  0  0  0  0
   -1.7275   -0.4213   -1.4652 H   0  0  0  0  0  0  0  0  0  0  0  0
   -3.9581    1.1846    0.4914 H   0  0  0  0  0  0  0  0  0  0  0  0
  1  2  1  0
  1  4  1  0
  2  3  2  3
  3  5  1  0
  3 10  1  0
  6  7  1  0
  6 11  1  0
  6 12  1  0
  7  8  2  3
  7 13  1  0
  8  9  1  0
  9 14  1  0
M  RAD  1   6   2
M  END
>  <reaction>  (7) 
rmg_rxn_15545

>  <mol_properties>  (7) 
{"1": {"label": "*4", "atom_type": "N3d"}, "2": {"label": "*3", "atom_type": "Cd"}, "5": {"label": "*1", "atom_type": "Cs"}, "6": {"label": "*0", "atom_type": "Cd"}, "9": {"label": "*2", "atom_type": "H0"}}

>  <type>  (7) 
unop_3

>  <geom_source>  (7) 
Heuristics

$$$$

     RDKit          3D

 14 12  0  0  0  0  0  0  0  0999 V2000
    2.2104    2.5775    1.2974 O   0  0  0  0  0  0  0  0  0  0  0  0
    1.3809    1.6394    0.7152 N   0  0  0  0  0  0  0  0  0  0  0  0
    0.9213    0.8249    1.5630 C   0  0  0  0  0  0  0  0  0  0  0  0
    2.4841    3.1220    0.5567 H   0  0  0  0  0  0  0  0  0  0  0  0
    1.1667    0.8790    2.6216 H   0  0  0  0  0  0  0  0  0  0  0  0
   -1.1790   -0.5469    0.8456 C   0  0  0  0  0  3  0  0  0  0  0  0
   -1.1790   -0.7664   -0.6268 C   0  0  0  0  0  0  0  0  0  0  0  0
   -1.1790   -1.9404   -1.0956 N   0  0  0  0  0  0  0  0  0  0  0  0
   -1.1790   -1.9404   -2.4840 O   0  0  0  0  0  0  0  0  0  0  0  0
   -0.1237    0.1423    1.2061 H   0  0  0  0  0  0  0  0  0  0  0  0
   -2.0584    0.0274    1.1460 H   0  0  0  0  0  0  0  0  0  0  0  0
   -1.1790   -1.4993    1.3732 H   0  0  0  0  0  0  0  0  0  0  0  0
   -1.1790    0.0911   -1.3007 H   0  0  0  0  0  0  0  0  0  0  0  0
   -1.1790   -2.8741   -2.7015 H   0  0  0  0  0  0  0  0  0  0  0  0
  1  2  1  0
  1  4  1  0
  2  3  2  3
  3  5  1  0
  3 10  1  0
  6  7  1  0
  6 11  1  0
  6 12  1  0
  7  8  2  3
  7 13  1  0
  8  9  1  0
  9 14  1  0
M  RAD  1   6   2
M  END
>  <reaction>  (8) 
rmg_rxn_15545

>  <mol_properties>  (8) 
{"1": {"label": "*4", "atom_type": "N3d"}, "2": {"label": "*3", "atom_type": "Cd"}, "5": {"label": "*1", "atom_type": "Cs"}, "6": {"label": "*0", "atom_type": "Cd"}, "9": {"label": "*2", "atom_type": "H0"}}

>  <type>  (8) 
unop_4

>  <geom_source>  (8) 
Heuristics

$$$$

     RDKit          3D

 14 12  0  0  0  0  0  0  0  0999 V2000
    3.7898   -0.5121   -0.0813 O   0  0  0  0  0  0  0  0  0  0  0  0
    2.5865    0.1995   -0.1035 N   0  0  0  0  0  0  0  0  0  0  0  0
    1.5371   -0.3429    0.2725 C   0  0  0  0  0  0  0  0  0  0  0  0
    4.4500    0.1127   -0.4138 H   0  0  0  0  0  0  0  0  0  0  0  0
    1.3729   -1.3474    0.6420 H   0  0  0  0  0  0  0  0  0  0  0  0
   -0.5344    1.2616    0.1368 C   0  0  0  0  0  3  0  0  0  0  0  0
   -1.6318    0.5290   -0.3815 C   0  0  0  0  0  0  0  0  0  0  0  0
   -2.4388   -0.0823    0.4167 N   0  0  0  0  0  0  0  0  0  0  0  0
   -3.4408   -0.8029   -0.2222 O   0  0  0  0  0  0  0  0  0  0  0  0
    0.5182    0.4071    0.1989 H   0  0  0  0  0  0  0  0  0  0  0  0
   -0.1105    2.0158   -0.5103 H   0  0  0  0  0  0  0  0  0  0  0  0
   -0.6097    1.5408    1.1792 H   0  0  0  0  0  0  0  0  0  0  0  0
   -1.7470    0.4384   -1.4620 H   0  0  0  0  0  0  0  0  0  0  0  0
   -3.9690   -1.1750    0.4977 H   0  0  0  0  0  0  0  0  0  0  0  0
  1  2  1  0
  1  4  1  0
  2  3  2  3
  3  5  1  0
  3 10  1  0
  6  7  1  0
  6 11  1  0
  6 12  1  0
  7  8  2  3
  7 13  1  0
  8  9  1  0
  9 14  1  0
M  RAD  1   6   2
M  END
>  <reaction>  (9) 
rmg_rxn_15545

>  <mol_properties>  (9) 
{"1": {"label": "*4", "atom_type": "N3d"}, "2": {"label": "*3", "atom_type": "Cd"}, "5": {"label": "*1", "atom_type": "Cs"}, "6": {"label": "*0", "atom_type": "Cd"}, "9": {"label": "*2", "atom_type": "H0"}}

>  <type>  (9) 
unop_5

>  <geom_source>  (9) 
Heuristics

$$$$

     RDKit          3D

 14 12  0  0  0  0  0  0  0  0999 V2000
    2.0860    1.8249    2.7143 O   0  0  0  0  0  0  0  0  0  0  0  0
    0.9118    1.7307    1.9936 N   0  0  0  0  0  0  0  0  0  0  0  0
    1.0393    0.9919    0.9780 C   0  0  0  0  0  0  0  0  0  0  0  0
    1.8533    2.4032    3.4433 H   0  0  0  0  0  0  0  0  0  0  0  0
    1.9758    0.4997    0.7244 H   0  0  0  0  0  0  0  0  0  0  0  0
   -1.0610   -0.3799    0.2605 C   0  0  0  0  0  3  0  0  0  0  0  0
   -1.0610   -0.5994   -1.2119 C   0  0  0  0  0  0  0  0  0  0  0  0
   -1.0610   -1.7734   -1.6807 N   0  0  0  0  0  0  0  0  0  0  0  0
   -1.0610   -1.7734   -3.0691 O   0  0  0  0  0  0  0  0  0  0  0  0
   -0.0057    0.3094    0.6210 H   0  0  0  0  0  0  0  0  0  0  0  0
   -1.9405    0.1945    0.5609 H   0  0  0  0  0  0  0  0  0  0  0  0
   -1.0610   -1.3322    0.7881 H   0  0  0  0  0  0  0  0  0  0  0  0
   -1.0610    0.2582   -1.8858 H   0  0  0  0  0  0  0  0  0  0  0  0
   -1.0610   -2.7071   -3.2866 H   0  0  0  0  0  0  0  0  0  0  0  0
  1  2  1  0
  1  4  1  0
  2  3  2  3
  3  5  1  0
  3 10  1  0
  6  7  1  0
  6 11  1  0
  6 12  1  0
  7  8  2  3
  7 13  1  0
  8  9  1  0
  9 14  1  0
M  RAD  1   6   2
M  END
>  <reaction>  (10) 
rmg_rxn_15545

>  <mol_properties>  (10) 
{"1": {"label": "*4", "atom_type": "N3d"}, "2": {"label": "*3", "atom_type": "Cd"}, "5": {"label": "*1", "atom_type": "Cs"}, "6": {"label": "*0", "atom_type": "Cd"}, "9": {"label": "*2", "atom_type": "H0"}}

>  <type>  (10) 
unop_6

>  <geom_source>  (10) 
Heuristics

$$$$

     RDKit          3D

 14 12  0  0  0  0  0  0  0  0999 V2000
    2.7753    1.1534    2.0083 O   0  0  0  0  0  0  0  0  0  0  0  0
    1.8249    0.8152    1.0652 N   0  0  0  0  0  0  0  0  0  0  0  0
    0.7003    1.3269    1.3239 C   0  0  0  0  0  0  0  0  0  0  0  0
    3.5655    0.7078    1.6968 H   0  0  0  0  0  0  0  0  0  0  0  0
    0.5285    1.9564    2.1945 H   0  0  0  0  0  0  0  0  0  0  0  0
   -1.4000   -0.0449    0.6064 C   0  0  0  0  0  3  0  0  0  0  0  0
   -1.4000   -0.2643   -0.8660 C   0  0  0  0  0  0  0  0  0  0  0  0
   -1.4000   -1.4384   -1.3348 N   0  0  0  0  0  0  0  0  0  0  0  0
   -1.4000   -1.4384   -2.7232 O   0  0  0  0  0  0  0  0  0  0  0  0
   -0.3447    0.6444    0.9669 H   0  0  0  0  0  0  0  0  0  0  0  0
   -2.2794    0.5295    0.9068 H   0  0  0  0  0  0  0  0  0  0  0  0
   -1.4000   -0.9972    1.1340 H   0  0  0  0  0  0  0  0  0  0  0  0
   -1.4000    0.5932   -1.5399 H   0  0  0  0  0  0  0  0  0  0  0  0
   -1.4000   -2.3720   -2.9407 H   0  0  0  0  0  0  0  0  0  0  0  0
  1  2  1  0
  1  4  1  0
  2  3  2  3
  3  5  1  0
  3 10  1  0
  6  7  1  0
  6 11  1  0
  6 12  1  0
  7  8  2  3
  7 13  1  0
  8  9  1  0
  9 14  1  0
M  RAD  1   6   2
M  END
>  <reaction>  (11) 
rmg_rxn_15545

>  <mol_properties>  (11) 
{"1": {"label": "*4", "atom_type": "N3d"}, "2": {"label": "*3", "atom_type": "Cd"}, "5": {"label": "*1", "atom_type": "Cs"}, "6": {"label": "*0", "atom_type": "Cd"}, "9": {"label": "*2", "atom_type": "H0"}}

>  <type>  (11) 
unop_7

>  <geom_source>  (11) 
Heuristics

$$$$

     RDKit          3D

 14 12  0  0  0  0  0  0  0  0999 V2000
    3.7835    0.5161    0.0882 O   0  0  0  0  0  0  0  0  0  0  0  0
    2.5790   -0.1930    0.1202 N   0  0  0  0  0  0  0  0  0  0  0  0
    1.5398    0.3278   -0.3109 C   0  0  0  0  0  0  0  0  0  0  0  0
    4.4342   -0.0891    0.4715 H   0  0  0  0  0  0  0  0  0  0  0  0
    1.3860    1.3105   -0.7389 H   0  0  0  0  0  0  0  0  0  0  0  0
   -0.5361   -1.2673   -0.1369 C   0  0  0  0  0  3  0  0  0  0  0  0
   -1.6261   -0.5252    0.3839 C   0  0  0  0  0  0  0  0  0  0  0  0
   -2.4395    0.0790   -0.4132 N   0  0  0  0  0  0  0  0  0  0  0  0
   -3.4329    0.8102    0.2273 O   0  0  0  0  0  0  0  0  0  0  0  0
    0.5185   -0.4169   -0.2194 H   0  0  0  0  0  0  0  0  0  0  0  0
   -0.1079   -2.0148    0.5150 H   0  0  0  0  0  0  0  0  0  0  0  0
   -0.6230   -1.5586   -1.1750 H   0  0  0  0  0  0  0  0  0  0  0  0
   -1.7298   -0.4215    1.4644 H   0  0  0  0  0  0  0  0  0  0  0  0
   -3.9673    1.1753   -0.4914 H   0  0  0  0  0  0  0  0  0  0  0  0
  1  2  1  0
  1  4  1  0
  2  3  2  3
  3  5  1  0
  3 10  1  0
  6  7  1  0
  6 11  1  0
  6 12  1  0
  7  8  2  3
  7 13  1  0
  8  9  1  0
  9 14  1  0
M  RAD  1   6   2
M  END
>  <reaction>  (12) 
rmg_rxn_15545

>  <mol_properties>  (12) 
{"1": {"label": "*4", "atom_type": "N3d"}, "2": {"label": "*3", "atom_type": "Cd"}, "5": {"label": "*1", "atom_type": "Cs"}, "6": {"label": "*0", "atom_type": "Cd"}, "9": {"label": "*2", "atom_type": "H0"}}

>  <type>  (12) 
unop_8

>  <geom_source>  (12) 
Heuristics

$$$$

     RDKit          3D

 14 12  0  0  0  0  0  0  0  0999 V2000
    2.2290    2.0112    2.4930 O   0  0  0  0  0  0  0  0  0  0  0  0
    1.0875    1.2832    2.2209 N   0  0  0  0  0  0  0  0  0  0  0  0
    0.9715    1.0298    0.9897 C   0  0  0  0  0  0  0  0  0  0  0  0
    2.1939    2.1318    3.4439 H   0  0  0  0  0  0  0  0  0  0  0  0
    1.7003    1.3587    0.2519 H   0  0  0  0  0  0  0  0  0  0  0  0
   -1.1288   -0.3420    0.2722 C   0  0  0  0  0  3  0  0  0  0  0  0
   -1.1288   -0.5614   -1.2001 C   0  0  0  0  0  0  0  0  0  0  0  0
   -1.1288   -1.7355   -1.6690 N   0  0  0  0  0  0  0  0  0  0  0  0
   -1.1288   -1.7355   -3.0574 O   0  0  0  0  0  0  0  0  0  0  0  0
   -0.0735    0.3473    0.6327 H   0  0  0  0  0  0  0  0  0  0  0  0
   -2.0082    0.2324    0.5726 H   0  0  0  0  0  0  0  0  0  0  0  0
   -1.1288   -1.2943    0.7998 H   0  0  0  0  0  0  0  0  0  0  0  0
   -1.1288    0.2961   -1.8741 H   0  0  0  0  0  0  0  0  0  0  0  0
   -1.1288   -2.6691   -3.2749 H   0  0  0  0  0  0  0  0  0  0  0  0
  1  2  1  0
  1  4  1  0
  2  3  2  3
  3  5  1  0
  3 10  1  0
  6  7  1  0
  6 11  1  0
  6 12  1  0
  7  8  2  3
  7 13  1  0
  8  9  1  0
  9 14  1  0
M  RAD  1   6   2
M  END
>  <reaction>  (13) 
rmg_rxn_15545

>  <mol_properties>  (13) 
{"1": {"label": "*4", "atom_type": "N3d"}, "2": {"label": "*3", "atom_type": "Cd"}, "5": {"label": "*1", "atom_type": "Cs"}, "6": {"label": "*0", "atom_type": "Cd"}, "9": {"label": "*2", "atom_type": "H0"}}

>  <type>  (13) 
unop_9

>  <geom_source>  (13) 
Heuristics

$$$$

     RDKit          3D

 14 12  0  0  0  0  0  0  0  0999 V2000
   -3.7860   -0.5149    0.0852 O   0  0  0  0  0  0  0  0  0  0  0  0
   -2.5825    0.1962    0.1125 N   0  0  0  0  0  0  0  0  0  0  0  0
   -1.5383   -0.3341   -0.2940 C   0  0  0  0  0  0  0  0  0  0  0  0
   -4.4415    0.0991    0.4458 H   0  0  0  0  0  0  0  0  0  0  0  0
   -1.3792   -1.3271   -0.6956 H   0  0  0  0  0  0  0  0  0  0  0  0
    0.5356    1.2653   -0.1367 C   0  0  0  0  0  3  0  0  0  0  0  0
    1.6284    0.5267    0.3829 C   0  0  0  0  0  0  0  0  0  0  0  0
    2.4392   -0.0803   -0.4148 N   0  0  0  0  0  0  0  0  0  0  0  0
    3.4359   -0.8075    0.2250 O   0  0  0  0  0  0  0  0  0  0  0  0
   -0.5184    0.4134   -0.2105 H   0  0  0  0  0  0  0  0  0  0  0  0
    0.1095    2.0158    0.5133 H   0  0  0  0  0  0  0  0  0  0  0  0
    0.6177    1.5516   -1.1766 H   0  0  0  0  0  0  0  0  0  0  0  0
    1.7369    0.4283    1.4635 H   0  0  0  0  0  0  0  0  0  0  0  0
    3.9678   -1.1752   -0.4943 H   0  0  0  0  0  0  0  0  0  0  0  0
  1  2  1  0
  1  4  1  0
  2  3  2  3
  3  5  1  0
  3 10  1  0
  6  7  1  0
  6 11  1  0
  6 12  1  0
  7  8  2  3
  7 13  1  0
  8  9  1  0
  9 14  1  0
M  RAD  1   6   2
M  END
>  <reaction>  (14) 
rmg_rxn_15545

>  <mol_properties>  (14) 
{"1": {"label": "*4", "atom_type": "N3d"}, "2": {"label": "*3", "atom_type": "Cd"}, "5": {"label": "*1", "atom_type": "Cs"}, "6": {"label": "*0", "atom_type": "Cd"}, "9": {"label": "*2", "atom_type": "H0"}}

>  <type>  (14) 
unop_10

>  <geom_source>  (14) 
Heuristics

$$$$

     RDKit          3D

 14 12  0  0  0  0  0  0  0  0999 V2000
    2.4599    1.2008    2.5295 O   0  0  0  0  0  0  0  0  0  0  0  0
    1.8123    0.6787    1.4272 N   0  0  0  0  0  0  0  0  0  0  0  0
    0.7798    1.3408    1.1289 C   0  0  0  0  0  0  0  0  0  0  0  0
    3.2105    0.6148    2.6443 H   0  0  0  0  0  0  0  0  0  0  0  0
    0.4611    2.2157    1.6914 H   0  0  0  0  0  0  0  0  0  0  0  0
   -1.3205   -0.0310    0.4114 C   0  0  0  0  0  3  0  0  0  0  0  0
   -1.3205   -0.2505   -1.0610 C   0  0  0  0  0  0  0  0  0  0  0  0
   -1.3205   -1.4245   -1.5298 N   0  0  0  0  0  0  0  0  0  0  0  0
   -1.3205   -1.4245   -2.9182 O   0  0  0  0  0  0  0  0  0  0  0  0
   -0.2652    0.6583    0.7719 H   0  0  0  0  0  0  0  0  0  0  0  0
   -2.1999    0.5434    0.7118 H   0  0  0  0  0  0  0  0  0  0  0  0
   -1.3205   -0.9833    0.9390 H   0  0  0  0  0  0  0  0  0  0  0  0
   -1.3205    0.6071   -1.7349 H   0  0  0  0  0  0  0  0  0  0  0  0
   -1.3205   -2.3582   -3.1357 H   0  0  0  0  0  0  0  0  0  0  0  0
  1  2  1  0
  1  4  1  0
  2  3  2  3
  3  5  1  0
  3 10  1  0
  6  7  1  0
  6 11  1  0
  6 12  1  0
  7  8  2  3
  7 13  1  0
  8  9  1  0
  9 14  1  0
M  RAD  1   6   2
M  END
>  <reaction>  (15) 
rmg_rxn_15545

>  <mol_properties>  (15) 
{"1": {"label": "*4", "atom_type": "N3d"}, "2": {"label": "*3", "atom_type": "Cd"}, "5": {"label": "*1", "atom_type": "Cs"}, "6": {"label": "*0", "atom_type": "Cd"}, "9": {"label": "*2", "atom_type": "H0"}}

>  <type>  (15) 
unop_11

>  <geom_source>  (15) 
Heuristics

$$$$

     RDKit          3D

 14 12  0  0  0  0  0  0  0  0999 V2000
   -3.7852   -0.5155   -0.0863 O   0  0  0  0  0  0  0  0  0  0  0  0
   -2.5815    0.1952   -0.1155 N   0  0  0  0  0  0  0  0  0  0  0  0
   -1.5391   -0.3315    0.3004 C   0  0  0  0  0  0  0  0  0  0  0  0
   -4.4392    0.0951   -0.4554 H   0  0  0  0  0  0  0  0  0  0  0  0
   -1.3819   -1.3210    0.7114 H   0  0  0  0  0  0  0  0  0  0  0  0
    0.5359    1.2658    0.1369 C   0  0  0  0  0  3  0  0  0  0  0  0
    1.6279    0.5263   -0.3831 C   0  0  0  0  0  0  0  0  0  0  0  0
    2.4393   -0.0802    0.4143 N   0  0  0  0  0  0  0  0  0  0  0  0
    3.4351   -0.8082   -0.2260 O   0  0  0  0  0  0  0  0  0  0  0  0
   -0.5186    0.4147    0.2133 H   0  0  0  0  0  0  0  0  0  0  0  0
    0.6194    1.5534    1.1763 H   0  0  0  0  0  0  0  0  0  0  0  0
    0.1092    2.0155   -0.5136 H   0  0  0  0  0  0  0  0  0  0  0  0
    1.7348    0.4262   -1.4638 H   0  0  0  0  0  0  0  0  0  0  0  0
    3.9672   -1.1762    0.4930 H   0  0  0  0  0  0  0  0  0  0  0  0
  1  2  1  0
  1  4  1  0
  2  3  2  3
  3  5  1  0
  3 10  1  0
  6  7  1  0
  6 11  1  0
  6 12  1  0
  7  8  2  3
  7 13  1  0
  8  9  1  0
  9 14  1  0
M  RAD  1   6   2
M  END
>  <reaction>  (16) 
rmg_rxn_15545

>  <mol_properties>  (16) 
{"1": {"label": "*4", "atom_type": "N3d"}, "2": {"label": "*3", "atom_type": "Cd"}, "5": {"label": "*1", "atom_type": "Cs"}, "6": {"label": "*0", "atom_type": "Cd"}, "9": {"label": "*2", "atom_type": "H0"}}

>  <type>  (16) 
unop_12

>  <geom_source>  (16) 
Heuristics

$$$$

     RDKit          3D

 14 12  0  0  0  0  0  0  0  0999 V2000
    2.1042    1.5664    2.7915 O   0  0  0  0  0  0  0  0  0  0  0  0
    1.6776    0.6932    1.8104 N   0  0  0  0  0  0  0  0  0  0  0  0
    0.8919    1.2487    0.9933 C   0  0  0  0  0  0  0  0  0  0  0  0
    2.6827    1.0262    3.3333 H   0  0  0  0  0  0  0  0  0  0  0  0
    0.6021    2.2940    1.0763 H   0  0  0  0  0  0  0  0  0  0  0  0
   -1.2084   -0.1231    0.2758 C   0  0  0  0  0  3  0  0  0  0  0  0
   -1.2084   -0.3426   -1.1966 C   0  0  0  0  0  0  0  0  0  0  0  0
   -1.2084   -1.5166   -1.6654 N   0  0  0  0  0  0  0  0  0  0  0  0
   -1.2084   -1.5166   -3.0538 O   0  0  0  0  0  0  0  0  0  0  0  0
   -0.1531    0.5662    0.6363 H   0  0  0  0  0  0  0  0  0  0  0  0
   -2.0878    0.4513    0.5762 H   0  0  0  0  0  0  0  0  0  0  0  0
   -1.2084   -1.0754    0.8034 H   0  0  0  0  0  0  0  0  0  0  0  0
   -1.2084    0.5149   -1.8705 H   0  0  0  0  0  0  0  0  0  0  0  0
   -1.2084   -2.4503   -3.2713 H   0  0  0  0  0  0  0  0  0  0  0  0
  1  2  1  0
  1  4  1  0
  2  3  2  3
  3  5  1  0
  3 10  1  0
  6  7  1  0
  6 11  1  0
  6 12  1  0
  7  8  2  3
  7 13  1  0
  8  9  1  0
  9 14  1  0
M  RAD  1   6   2
M  END
>  <reaction>  (17) 
rmg_rxn_15545

>  <mol_properties>  (17) 
{"1": {"label": "*4", "atom_type": "N3d"}, "2": {"label": "*3", "atom_type": "Cd"}, "5": {"label": "*1", "atom_type": "Cs"}, "6": {"label": "*0", "atom_type": "Cd"}, "9": {"label": "*2", "atom_type": "H0"}}

>  <type>  (17) 
unop_13

>  <geom_source>  (17) 
Heuristics

$$$$

     RDKit          3D

 14 12  0  0  0  0  0  0  0  0999 V2000
    1.6294    2.5798    2.3240 O   0  0  0  0  0  0  0  0  0  0  0  0
    1.0098    2.0112    1.2286 N   0  0  0  0  0  0  0  0  0  0  0  0
    1.1326    0.7549    1.2162 C   0  0  0  0  0  0  0  0  0  0  0  0
    1.4624    3.5176    2.2116 H   0  0  0  0  0  0  0  0  0  0  0  0
    1.6689    0.2102    1.9904 H   0  0  0  0  0  0  0  0  0  0  0  0
   -0.9677   -0.6169    0.4987 C   0  0  0  0  0  3  0  0  0  0  0  0
   -0.9677   -0.8363   -0.9737 C   0  0  0  0  0  0  0  0  0  0  0  0
   -0.9677   -2.0104   -1.4425 N   0  0  0  0  0  0  0  0  0  0  0  0
   -0.9677   -2.0104   -2.8309 O   0  0  0  0  0  0  0  0  0  0  0  0
    0.0876    0.0724    0.8592 H   0  0  0  0  0  0  0  0  0  0  0  0
   -1.8471   -0.0425    0.7991 H   0  0  0  0  0  0  0  0  0  0  0  0
   -0.9677   -1.5692    1.0263 H   0  0  0  0  0  0  0  0  0  0  0  0
   -0.9677    0.0212   -1.6476 H   0  0  0  0  0  0  0  0  0  0  0  0
   -0.9677   -2.9440   -3.0484 H   0  0  0  0  0  0  0  0  0  0  0  0
  1  2  1  0
  1  4  1  0
  2  3  2  3
  3  5  1  0
  3 10  1  0
  6  7  1  0
  6 11  1  0
  6 12  1  0
  7  8  2  3
  7 13  1  0
  8  9  1  0
  9 14  1  0
M  RAD  1   6   2
M  END
>  <reaction>  (18) 
rmg_rxn_15545

>  <mol_properties>  (18) 
{"1": {"label": "*4", "atom_type": "N3d"}, "2": {"label": "*3", "atom_type": "Cd"}, "5": {"label": "*1", "atom_type": "Cs"}, "6": {"label": "*0", "atom_type": "Cd"}, "9": {"label": "*2", "atom_type": "H0"}}

>  <type>  (18) 
unop_14

>  <geom_source>  (18) 
Heuristics

$$$$

     RDKit          3D

 14 12  0  0  0  0  0  0  0  0999 V2000
    3.7890   -0.5125    0.0822 O   0  0  0  0  0  0  0  0  0  0  0  0
    2.5855    0.1986    0.1059 N   0  0  0  0  0  0  0  0  0  0  0  0
    1.5375   -0.3410   -0.2781 C   0  0  0  0  0  0  0  0  0  0  0  0
    4.4479    0.1096    0.4221 H   0  0  0  0  0  0  0  0  0  0  0  0
    1.3749   -1.3426   -0.6559 H   0  0  0  0  0  0  0  0  0  0  0  0
   -0.5346    1.2623   -0.1368 C   0  0  0  0  0  3  0  0  0  0  0  0
   -1.6307    0.5280    0.3818 C   0  0  0  0  0  0  0  0  0  0  0  0
   -2.4391   -0.0816   -0.4163 N   0  0  0  0  0  0  0  0  0  0  0  0
   -3.4399   -0.8037    0.2230 O   0  0  0  0  0  0  0  0  0  0  0  0
    0.5183    0.4083   -0.2022 H   0  0  0  0  0  0  0  0  0  0  0  0
   -0.6118    1.5435   -1.1785 H   0  0  0  0  0  0  0  0  0  0  0  0
   -0.1100    2.0153    0.5111 H   0  0  0  0  0  0  0  0  0  0  0  0
   -1.7442    0.4353    1.4624 H   0  0  0  0  0  0  0  0  0  0  0  0
   -3.9695   -1.1741   -0.4967 H   0  0  0  0  0  0  0  0  0  0  0  0
  1  2  1  0
  1  4  1  0
  2  3  2  3
  3  5  1  0
  3 10  1  0
  6  7  1  0
  6 11  1  0
  6 12  1  0
  7  8  2  3
  7 13  1  0
  8  9  1  0
  9 14  1  0
M  RAD  1   6   2
M  END
>  <reaction>  (19) 
rmg_rxn_15545

>  <mol_properties>  (19) 
{"1": {"label": "*4", "atom_type": "N3d"}, "2": {"label": "*3", "atom_type": "Cd"}, "5": {"label": "*1", "atom_type": "Cs"}, "6": {"label": "*0", "atom_type": "Cd"}, "9": {"label": "*2", "atom_type": "H0"}}

>  <type>  (19) 
unop_15

>  <geom_source>  (19) 
Heuristics

$$$$

     RDKit          3D

 14 12  0  0  0  0  0  0  0  0999 V2000
    2.8677    1.4861    1.4601 O   0  0  0  0  0  0  0  0  0  0  0  0
    1.7322    1.0560    0.8022 N   0  0  0  0  0  0  0  0  0  0  0  0
    0.6950    1.2006    1.5070 C   0  0  0  0  0  0  0  0  0  0  0  0
    3.5676    1.3229    0.8249 H   0  0  0  0  0  0  0  0  0  0  0  0
    0.7217    1.6178    2.5114 H   0  0  0  0  0  0  0  0  0  0  0  0
   -1.4053   -0.1712    0.7896 C   0  0  0  0  0  3  0  0  0  0  0  0
   -1.4053   -0.3906   -0.6828 C   0  0  0  0  0  0  0  0  0  0  0  0
   -1.4053   -1.5647   -1.1516 N   0  0  0  0  0  0  0  0  0  0  0  0
   -1.4053   -1.5647   -2.5400 O   0  0  0  0  0  0  0  0  0  0  0  0
   -0.3500    0.5181    1.1501 H   0  0  0  0  0  0  0  0  0  0  0  0
   -2.2847    0.4032    1.0900 H   0  0  0  0  0  0  0  0  0  0  0  0
   -1.4053   -1.1235    1.3172 H   0  0  0  0  0  0  0  0  0  0  0  0
   -1.4053    0.4669   -1.3567 H   0  0  0  0  0  0  0  0  0  0  0  0
   -1.4053   -2.4983   -2.7575 H   0  0  0  0  0  0  0  0  0  0  0  0
  1  2  1  0
  1  4  1  0
  2  3  2  3
  3  5  1  0
  3 10  1  0
  6  7  1  0
  6 11  1  0
  6 12  1  0
  7  8  2  3
  7 13  1  0
  8  9  1  0
  9 14  1  0
M  RAD  1   6   2
M  END
>  <reaction>  (20) 
rmg_rxn_15545

>  <mol_properties>  (20) 
{"1": {"label": "*4", "atom_type": "N3d"}, "2": {"label": "*3", "atom_type": "Cd"}, "5": {"label": "*1", "atom_type": "Cs"}, "6": {"label": "*0", "atom_type": "Cd"}, "9": {"label": "*2", "atom_type": "H0"}}

>  <type>  (20) 
unop_16

>  <geom_source>  (20) 
Heuristics

$$$$

     RDKit          3D

 14 12  0  0  0  0  0  0  0  0999 V2000
    1.8060    2.7630    1.7683 O   0  0  0  0  0  0  0  0  0  0  0  0
    1.1815    1.8836    0.9059 N   0  0  0  0  0  0  0  0  0  0  0  0
    1.0574    0.7339    1.4123 C   0  0  0  0  0  0  0  0  0  0  0  0
    1.8351    3.5811    1.2685 H   0  0  0  0  0  0  0  0  0  0  0  0
    1.4102    0.4923    2.4127 H   0  0  0  0  0  0  0  0  0  0  0  0
   -1.0429   -0.6379    0.6948 C   0  0  0  0  0  3  0  0  0  0  0  0
   -1.0429   -0.8573   -0.7776 C   0  0  0  0  0  0  0  0  0  0  0  0
   -1.0429   -2.0314   -1.2464 N   0  0  0  0  0  0  0  0  0  0  0  0
   -1.0429   -2.0314   -2.6348 O   0  0  0  0  0  0  0  0  0  0  0  0
    0.0124    0.0514    1.0553 H   0  0  0  0  0  0  0  0  0  0  0  0
   -1.9223   -0.0635    0.9952 H   0  0  0  0  0  0  0  0  0  0  0  0
   -1.0429   -1.5902    1.2224 H   0  0  0  0  0  0  0  0  0  0  0  0
   -1.0429    0.0002   -1.4515 H   0  0  0  0  0  0  0  0  0  0  0  0
   -1.0429   -2.9650   -2.8523 H   0  0  0  0  0  0  0  0  0  0  0  0
  1  2  1  0
  1  4  1  0
  2  3  2  3
  3  5  1  0
  3 10  1  0
  6  7  1  0
  6 11  1  0
  6 12  1  0
  7  8  2  3
  7 13  1  0
  8  9  1  0
  9 14  1  0
M  RAD  1   6   2
M  END
>  <reaction>  (21) 
rmg_rxn_15545

>  <mol_properties>  (21) 
{"1": {"label": "*4", "atom_type": "N3d"}, "2": {"label": "*3", "atom_type": "Cd"}, "5": {"label": "*1", "atom_type": "Cs"}, "6": {"label": "*0", "atom_type": "Cd"}, "9": {"label": "*2", "atom_type": "H0"}}

>  <type>  (21) 
unop_17

>  <geom_source>  (21) 
Heuristics

$$$$

     RDKit          3D

 14 12  0  0  0  0  0  0  0  0999 V2000
    1.9702    2.0172    2.6856 O   0  0  0  0  0  0  0  0  0  0  0  0
    1.4225    0.8827    2.1200 N   0  0  0  0  0  0  0  0  0  0  0  0
    0.9723    1.1031    0.9614 C   0  0  0  0  0  0  0  0  0  0  0  0
    2.2678    1.7149    3.5459 H   0  0  0  0  0  0  0  0  0  0  0  0
    1.0232    2.0816    0.4886 H   0  0  0  0  0  0  0  0  0  0  0  0
   -1.1280   -0.2687    0.2440 C   0  0  0  0  0  3  0  0  0  0  0  0
   -1.1280   -0.4882   -1.2284 C   0  0  0  0  0  0  0  0  0  0  0  0
   -1.1280   -1.6622   -1.6973 N   0  0  0  0  0  0  0  0  0  0  0  0
   -1.1280   -1.6622   -3.0856 O   0  0  0  0  0  0  0  0  0  0  0  0
   -0.0727    0.4205    0.6045 H   0  0  0  0  0  0  0  0  0  0  0  0
   -2.0074    0.3057    0.5444 H   0  0  0  0  0  0  0  0  0  0  0  0
   -1.1280   -1.2210    0.7716 H   0  0  0  0  0  0  0  0  0  0  0  0
   -1.1280    0.3693   -1.9023 H   0  0  0  0  0  0  0  0  0  0  0  0
   -1.1280   -2.5959   -3.3032 H   0  0  0  0  0  0  0  0  0  0  0  0
  1  2  1  0
  1  4  1  0
  2  3  2  3
  3  5  1  0
  3 10  1  0
  6  7  1  0
  6 11  1  0
  6 12  1  0
  7  8  2  3
  7 13  1  0
  8  9  1  0
  9 14  1  0
M  RAD  1   6   2
M  END
>  <reaction>  (22) 
rmg_rxn_15545

>  <mol_properties>  (22) 
{"1": {"label": "*4", "atom_type": "N3d"}, "2": {"label": "*3", "atom_type": "Cd"}, "5": {"label": "*1", "atom_type": "Cs"}, "6": {"label": "*0", "atom_type": "Cd"}, "9": {"label": "*2", "atom_type": "H0"}}

>  <type>  (22) 
unop_18

>  <geom_source>  (22) 
Heuristics

$$$$

     RDKit          3D

 14 12  0  0  0  0  0  0  0  0999 V2000
    2.6470    2.0651    1.1660 O   0  0  0  0  0  0  0  0  0  0  0  0
    1.5725    1.3458    0.6811 N   0  0  0  0  0  0  0  0  0  0  0  0
    0.7788    1.0050    1.6016 C   0  0  0  0  0  0  0  0  0  0  0  0
    3.1597    2.2565    0.3782 H   0  0  0  0  0  0  0  0  0  0  0  0
    0.9462    1.2614    2.6455 H   0  0  0  0  0  0  0  0  0  0  0  0
   -1.3215   -0.3668    0.8841 C   0  0  0  0  0  3  0  0  0  0  0  0
   -1.3215   -0.5863   -0.5883 C   0  0  0  0  0  0  0  0  0  0  0  0
   -1.3215   -1.7603   -1.0571 N   0  0  0  0  0  0  0  0  0  0  0  0
   -1.3215   -1.7603   -2.4455 O   0  0  0  0  0  0  0  0  0  0  0  0
   -0.2662    0.3224    1.2446 H   0  0  0  0  0  0  0  0  0  0  0  0
   -2.2010    0.2075    1.1845 H   0  0  0  0  0  0  0  0  0  0  0  0
   -1.3215   -1.3192    1.4117 H   0  0  0  0  0  0  0  0  0  0  0  0
   -1.3215    0.2712   -1.2622 H   0  0  0  0  0  0  0  0  0  0  0  0
   -1.3215   -2.6940   -2.6630 H   0  0  0  0  0  0  0  0  0  0  0  0
  1  2  1  0
  1  4  1  0
  2  3  2  3
  3  5  1  0
  3 10  1  0
  6  7  1  0
  6 11  1  0
  6 12  1  0
  7  8  2  3
  7 13  1  0
  8  9  1  0
  9 14  1  0
M  RAD  1   6   2
M  END
>  <reaction>  (23) 
rmg_rxn_15545

>  <mol_properties>  (23) 
{"1": {"label": "*4", "atom_type": "N3d"}, "2": {"label": "*3", "atom_type": "Cd"}, "5": {"label": "*1", "atom_type": "Cs"}, "6": {"label": "*0", "atom_type": "Cd"}, "9": {"label": "*2", "atom_type": "H0"}}

>  <type>  (23) 
unop_19

>  <geom_source>  (23) 
Heuristics

$$$$

     RDKit          3D

 14 11  0  0  0  0  0  0  0  0999 V2000
    2.1587    1.5333    0.8731 O   0  0  0  0  0  0  0  0  0  0  0  0
   -2.7227    1.6997    0.1078 O   0  0  0  0  0  0  0  0  0  0  0  0
   -1.6055    1.0130   -0.3183 N   0  0  0  0  0  0  0  0  0  0  0  0
    2.7417    0.3000    0.6743 N   0  0  0  0  0  0  0  0  0  0  0  0
   -1.5374   -0.2789   -0.2651 C   0  0  0  0  0  3  0  0  0  0  0  0
   -0.3114   -0.9761   -0.7426 C   0  0  0  0  0  2  0  0  0  0  0  0
    2.1486   -0.6309   -0.0009 C   0  0  0  0  0  0  0  0  0  0  0  0
   -2.3695   -0.8586    0.1164 H   0  0  0  0  0  0  0  0  0  0  0  0
    0.5609   -0.6679   -0.1289 H   0  0  0  0  0  0  0  0  0  0  0  0
   -0.4445   -2.0754   -0.6638 H   0  0  0  0  0  0  0  0  0  0  0  0
    2.6341   -1.5873   -0.1381 H   0  0  0  0  0  0  0  0  0  0  0  0
    1.0367   -0.4420   -0.4901 H   0  0  0  0  0  0  0  0  0  0  0  0
    1.2434    1.7545    0.4968 H   0  0  0  0  0  0  0  0  0  0  0  0
   -3.5331    1.2164    0.4793 H   0  0  0  0  0  0  0  0  0  0  0  0
  1  4  1  0
  1 13  1  0
  2  3  1  0
  2 14  1  0
  3  5  2  3
  4  7  2  3
  5  8  1  0
  6  9  1  0
  6 10  1  0
  7 11  1  0
  7 12  1  0
M  RAD  2   5   2   6   3
M  END
>  <reaction>  (24) 
rmg_rxn_15545

>  <mol_properties>  (24) 
{"1": {"label": "*4", "atom_type": "N3d"}, "2": {"label": "*3", "atom_type": "Cd"}, "5": {"label": "*1", "atom_type": "Cs"}, "6": {"label": "*0", "atom_type": "Cd"}, "9": {"label": "*2", "atom_type": "H0"}}

>  <type>  (24) 
unop_20

>  <geom_source>  (24) 
AutoTST

$$$$

     RDKit          3D

 14 12  0  0  0  0  0  0  0  0999 V2000
    2.2104    2.5775    1.2974 O   0  0  0  0  0  0  0  0  0  0  0  0
    1.3809    1.6394    0.7153 N   0  0  0  0  0  0  0  0  0  0  0  0
    0.9213    0.8248    1.5631 C   0  0  0  0  0  0  0  0  0  0  0  0
    2.4841    3.1220    0.5567 H   0  0  0  0  0  0  0  0  0  0  0  0
    1.1667    0.8790    2.6216 H   0  0  0  0  0  0  0  0  0  0  0  0
   -1.1790   -0.5470    0.8456 C   0  0  0  0  0  3  0  0  0  0  0  0
   -1.1790   -0.7664   -0.6268 C   0  0  0  0  0  0  0  0  0  0  0  0
   -1.1790   -1.9405   -1.0956 N   0  0  0  0  0  0  0  0  0  0  0  0
   -1.1790   -1.9405   -2.4840 O   0  0  0  0  0  0  0  0  0  0  0  0
   -0.1237    0.1423    1.2061 H   0  0  0  0  0  0  0  0  0  0  0  0
   -2.0584    0.0274    1.1460 H   0  0  0  0  0  0  0  0  0  0  0  0
   -1.1790   -1.4993    1.3732 H   0  0  0  0  0  0  0  0  0  0  0  0
   -1.1790    0.0911   -1.3007 H   0  0  0  0  0  0  0  0  0  0  0  0
   -1.1790   -2.8741   -2.7015 H   0  0  0  0  0  0  0  0  0  0  0  0
  1  2  1  0
  1  4  1  0
  2  3  2  3
  3  5  1  0
  3 10  1  0
  6  7  1  0
  6 11  1  0
  6 12  1  0
  7  8  2  3
  7 13  1  0
  8  9  1  0
  9 14  1  0
M  RAD  1   6   2
M  END
>  <reaction>  (25) 
rmg_rxn_15545

>  <mol_properties>  (25) 
{"1": {"label": "*4", "atom_type": "N3d"}, "2": {"label": "*3", "atom_type": "Cd"}, "5": {"label": "*1", "atom_type": "Cs"}, "6": {"label": "*0", "atom_type": "Cd"}, "9": {"label": "*2", "atom_type": "H0"}}

>  <type>  (25) 
unop_21

>  <geom_source>  (25) 
gaussian_log

$$$$
