
     RDKit          3D

  8  7  0  0  0  0  0  0  0  0999 V2000
    0.9548    0.1194   -0.0790 C   0  0  0  0  0  0  0  0  0  0  0  0
   -0.4838   -0.2649    0.0193 C   0  0  0  0  0  0  0  0  0  0  0  0
   -0.8933   -1.1081    0.8664 N   0  0  0  0  0  0  0  0  0  0  0  0
    1.3360   -0.0983   -1.0800 H   0  0  0  0  0  0  0  0  0  0  0  0
    1.0698    1.1948    0.0786 H   0  0  0  0  0  0  0  0  0  0  0  0
    1.5426   -0.4219    0.6602 H   0  0  0  0  0  0  0  0  0  0  0  0
   -1.1575    0.2324   -0.6905 H   0  0  0  0  0  0  0  0  0  0  0  0
   -1.8989   -1.2455    0.7886 H   0  0  0  0  0  0  0  0  0  0  0  0
  1  2  1  0
  1  4  1  0
  1  5  1  0
  1  6  1  0
  2  3  2  3
  2  7  1  0
  3  8  1  0
M  END
>  <reaction>  (1) 
rmg_rxn_16532

>  <mol_properties>  (1) 
{"2": {"label": "donator", "atom_type": "N3d"}, "7": {"label": "d_hydrogen", "atom_type": "H0"}}

>  <type>  (1) 
r1h

$$$$

     RDKit          3D

 14 13  0  0  0  0  0  0  0  0999 V2000
   -2.1206   -0.4411   -0.0870 C   0  0  0  0  0  0  0  0  0  0  0  0
   -1.0997    0.6970   -0.0676 C   0  0  0  0  0  0  0  0  0  0  0  0
    0.2802    0.2544    0.2554 C   0  0  0  0  0  3  0  0  0  0  0  0
    0.4226   -0.3691    1.4498 O   0  0  0  0  0  0  0  0  0  0  0  0
    1.7390   -0.7527    1.7712 C   0  0  0  0  0  0  0  0  0  0  0  0
   -2.1607   -0.9402    0.8813 H   0  0  0  0  0  0  0  0  0  0  0  0
   -3.1178   -0.0616   -0.3157 H   0  0  0  0  0  0  0  0  0  0  0  0
   -1.8556   -1.1862   -0.8390 H   0  0  0  0  0  0  0  0  0  0  0  0
   -1.4302    1.4562    0.6577 H   0  0  0  0  0  0  0  0  0  0  0  0
   -1.0732    1.1931   -1.0403 H   0  0  0  0  0  0  0  0  0  0  0  0
    1.1485    0.8011   -0.1074 H   0  0  0  0  0  0  0  0  0  0  0  0
    2.4055    0.1169    1.7924 H   0  0  0  0  0  0  0  0  0  0  0  0
    2.1218   -1.4782    1.0472 H   0  0  0  0  0  0  0  0  0  0  0  0
    1.7107   -1.2066    2.7598 H   0  0  0  0  0  0  0  0  0  0  0  0
  1  2  1  0
  1  6  1  0
  1  7  1  0
  1  8  1  0
  2  3  1  0
  2  9  1  0
  2 10  1  0
  3  4  1  0
  3 11  1  0
  4  5  1  0
  5 12  1  0
  5 13  1  0
  5 14  1  0
M  RAD  1   3   2
M  END
>  <reaction>  (2) 
rmg_rxn_16532

>  <mol_properties>  (2) 
{"2": {"label": "acceptor", "atom_type": "Cs"}}

>  <type>  (2) 
r2

$$$$

     RDKit          3D

 15 14  0  0  0  0  0  0  0  0999 V2000
   -1.2811   -0.4129    1.0228 C   0  0  0  0  0  0  0  0  0  0  0  0
   -1.0023   -0.5809   -0.4650 C   0  0  0  0  0  0  0  0  0  0  0  0
   -2.0576    0.0568   -1.3449 C   0  0  0  0  0  0  0  0  0  0  0  0
   -2.0663    1.4464   -1.1307 O   0  0  0  0  0  0  0  0  0  0  0  0
   -3.0424    2.1072   -1.8849 C   0  0  0  0  0  0  0  0  0  0  0  0
   -2.2382   -0.8657    1.2935 H   0  0  0  0  0  0  0  0  0  0  0  0
   -1.3219    0.6426    1.2914 H   0  0  0  0  0  0  0  0  0  0  0  0
   -0.5042   -0.8881    1.6236 H   0  0  0  0  0  0  0  0  0  0  0  0
   -0.0316   -0.1460   -0.7167 H   0  0  0  0  0  0  0  0  0  0  0  0
   -0.9494   -1.6429   -0.7203 H   0  0  0  0  0  0  0  0  0  0  0  0
   -1.8518   -0.1570   -2.4041 H   0  0  0  0  0  0  0  0  0  0  0  0
   -3.0491   -0.3636   -1.1124 H   0  0  0  0  0  0  0  0  0  0  0  0
   -4.0521    1.7545   -1.6343 H   0  0  0  0  0  0  0  0  0  0  0  0
   -2.8850    1.9634   -2.9626 H   0  0  0  0  0  0  0  0  0  0  0  0
   -2.9730    3.1700   -1.6570 H   0  0  0  0  0  0  0  0  0  0  0  0
  1  2  1  0
  1  6  1  0
  1  7  1  0
  1  8  1  0
  2  3  1  0
  2  9  1  0
  2 10  1  0
  3  4  1  0
  3 11  1  0
  3 12  1  0
  4  5  1  0
  5 13  1  0
  5 14  1  0
  5 15  1  0
M  END
>  <reaction>  (3) 
rmg_rxn_16532

>  <mol_properties>  (3) 
{"0": {"label": "a_hydrogen", "atom_type": "H0"}, "3": {"label": "acceptor", "atom_type": "Cs"}}

>  <type>  (3) 
r2h

$$$$

     RDKit          3D

 22 20  0  0  0  0  0  0  0  0999 V2000
   -3.3445   -0.3568   -0.3618 C   0  0  0  0  0  0  0  0  0  0  0  0
   -1.8740   -0.1492   -0.1511 C   0  0  0  0  0  0  0  0  0  0  0  0
   -1.2728   -0.5392    0.8800 N   0  0  0  0  0  0  0  0  0  0  0  0
   -3.5115   -0.9378   -1.2720 H   0  0  0  0  0  0  0  0  0  0  0  0
   -3.7856   -0.8766    0.4866 H   0  0  0  0  0  0  0  0  0  0  0  0
   -3.8417    0.6067   -0.4978 H   0  0  0  0  0  0  0  0  0  0  0  0
   -1.3398    0.3743   -0.9591 H   0  0  0  0  0  0  0  0  0  0  0  0
   -0.0512   -0.2164    0.7199 H   0  0  0  0  0  0  0  0  0  0  0  0
    1.8055   -2.2427    0.2313 C   0  0  0  0  0  0  0  0  0  0  0  0
    1.6657   -0.9572   -0.5739 C   0  0  0  0  0  0  0  0  0  0  0  0
    1.1511    0.1764    0.2660 C   0  0  0  0  0  3  0  0  0  0  0  0
    0.9753    1.3252   -0.4747 O   0  0  0  0  0  0  0  0  0  0  0  0
    0.6397    2.4559    0.2954 C   0  0  0  0  0  0  0  0  0  0  0  0
    2.5062   -2.1139    1.0592 H   0  0  0  0  0  0  0  0  0  0  0  0
    0.8450   -2.5470    0.6502 H   0  0  0  0  0  0  0  0  0  0  0  0
    2.1762   -3.0546   -0.3948 H   0  0  0  0  0  0  0  0  0  0  0  0
    0.9788   -1.1093   -1.4113 H   0  0  0  0  0  0  0  0  0  0  0  0
    2.6298   -0.6732   -1.0104 H   0  0  0  0  0  0  0  0  0  0  0  0
    1.7148    0.3511    1.1924 H   0  0  0  0  0  0  0  0  0  0  0  0
   -0.2993    2.2986    0.8362 H   0  0  0  0  0  0  0  0  0  0  0  0
    0.5282    3.2936   -0.3905 H   0  0  0  0  0  0  0  0  0  0  0  0
    1.4299    2.6846    1.0197 H   0  0  0  0  0  0  0  0  0  0  0  0
  1  2  1  0
  1  4  1  0
  1  5  1  0
  1  6  1  0
  2  3  2  3
  2  7  1  0
  3  8  1  0
  9 10  1  0
  9 14  1  0
  9 15  1  0
  9 16  1  0
 10 11  1  0
 10 17  1  0
 10 18  1  0
 11 12  1  0
 11 19  1  0
 12 13  1  0
 13 20  1  0
 13 21  1  0
 13 22  1  0
M  RAD  1  11   2
M  END
>  <reaction>  (4) 
rmg_rxn_16532

>  <mol_properties>  (4) 
{"1": {"label": "*0", "atom_type": "Cd"}, "2": {"label": "*1", "atom_type": "N3d"}, "7": {"label": "*2", "atom_type": "H0"}, "10": {"label": "*3", "atom_type": "Cs"}, "11": {"label": "*4", "atom_type": "O2s"}}

>  <type>  (4) 
ts

$$$$

     RDKit          3D

 22 20  0  0  0  0  0  0  0  0999 V2000
   -3.4107   -0.4037   -0.2742 C   0  0  0  0  0  0  0  0  0  0  0  0
   -1.9334   -0.1625   -0.2180 C   0  0  0  0  0  0  0  0  0  0  0  0
   -1.2385   -0.4723    0.7635 N   0  0  0  0  0  0  0  0  0  0  0  0
   -3.6387   -1.0514   -1.1195 H   0  0  0  0  0  0  0  0  0  0  0  0
   -3.7529   -0.8687    0.6462 H   0  0  0  0  0  0  0  0  0  0  0  0
   -3.9282    0.5429   -0.4228 H   0  0  0  0  0  0  0  0  0  0  0  0
   -1.5253    0.3150   -1.1232 H   0  0  0  0  0  0  0  0  0  0  0  0
   -0.0415   -0.2020    0.6136 H   0  0  0  0  0  0  0  0  0  0  0  0
    1.7571   -2.2552    0.1978 C   0  0  0  0  0  0  0  0  0  0  0  0
    1.7881   -0.9278   -0.5494 C   0  0  0  0  0  0  0  0  0  0  0  0
    1.1843    0.1839    0.2754 C   0  0  0  0  0  3  0  0  0  0  0  0
    1.0443    1.3546   -0.4665 O   0  0  0  0  0  0  0  0  0  0  0  0
    0.6801    2.4799    0.2893 C   0  0  0  0  0  0  0  0  0  0  0  0
    2.3307   -2.1877    1.1193 H   0  0  0  0  0  0  0  0  0  0  0  0
    0.7339   -2.5209    0.4512 H   0  0  0  0  0  0  0  0  0  0  0  0
    2.1823   -3.0450   -0.4162 H   0  0  0  0  0  0  0  0  0  0  0  0
    1.2303   -1.0084   -1.4846 H   0  0  0  0  0  0  0  0  0  0  0  0
    2.8220   -0.6721   -0.8086 H   0  0  0  0  0  0  0  0  0  0  0  0
    1.6888    0.3489    1.2334 H   0  0  0  0  0  0  0  0  0  0  0  0
   -0.2832    2.3238    0.7891 H   0  0  0  0  0  0  0  0  0  0  0  0
    0.6008    3.3131   -0.4066 H   0  0  0  0  0  0  0  0  0  0  0  0
    1.4358    2.7082    1.0502 H   0  0  0  0  0  0  0  0  0  0  0  0
  1  2  1  0
  1  4  1  0
  1  5  1  0
  1  6  1  0
  2  3  2  3
  2  7  1  0
  3  8  1  0
  9 10  1  0
  9 14  1  0
  9 15  1  0
  9 16  1  0
 10 11  1  0
 10 17  1  0
 10 18  1  0
 11 12  1  0
 11 19  1  0
 12 13  1  0
 13 20  1  0
 13 21  1  0
 13 22  1  0
M  RAD  1  11   2
M  END
>  <reaction>  (5) 
rmg_rxn_16532

>  <mol_properties>  (5) 
{"1": {"label": "*0", "atom_type": "Cd"}, "2": {"label": "*1", "atom_type": "N3d"}, "7": {"label": "*2", "atom_type": "H0"}, "10": {"label": "*3", "atom_type": "Cs"}, "11": {"label": "*4", "atom_type": "O2s"}}

>  <type>  (5) 
unop_1

>  <geom_source>  (5) 
crest_best.xyz

$$$$

     RDKit          3D

 22 20  0  0  0  0  0  0  0  0999 V2000
    0.1444   -0.9157   -3.6174 C   0  0  0  0  0  0  0  0  0  0  0  0
    0.1444   -0.9157   -2.1251 C   0  0  0  0  0  0  0  0  0  0  0  0
    0.1444    0.1570   -1.4574 N   0  0  0  0  0  0  0  0  0  0  0  0
    1.0227   -1.4457   -3.9948 H   0  0  0  0  0  0  0  0  0  0  0  0
   -0.7338   -1.4457   -3.9948 H   0  0  0  0  0  0  0  0  0  0  0  0
    0.1444    0.1049   -3.9960 H   0  0  0  0  0  0  0  0  0  0  0  0
    0.1444   -1.9054   -1.6504 H   0  0  0  0  0  0  0  0  0  0  0  0
    0.1444   -0.0732   -0.2578 H   0  0  0  0  0  0  0  0  0  0  0  0
    1.1158    0.7951    3.0973 C   0  0  0  0  0  0  0  0  0  0  0  0
    1.3747    0.2765    1.6890 C   0  0  0  0  0  0  0  0  0  0  0  0
    0.1444   -0.3220    1.0386 C   0  0  0  0  0  3  0  0  0  0  0  0
   -0.8344    0.6758    0.8851 O   0  0  0  0  0  0  0  0  0  0  0  0
   -2.0200    0.1927    0.3204 C   0  0  0  0  0  0  0  0  0  0  0  0
    0.7688   -0.0090    3.7510 H   0  0  0  0  0  0  0  0  0  0  0  0
    2.0237    1.2133    3.5344 H   0  0  0  0  0  0  0  0  0  0  0  0
    0.3522    1.5728    3.0884 H   0  0  0  0  0  0  0  0  0  0  0  0
    2.1519   -0.4925    1.7081 H   0  0  0  0  0  0  0  0  0  0  0  0
    1.7447    1.0849    1.0531 H   0  0  0  0  0  0  0  0  0  0  0  0
   -0.2514   -1.1416    1.6594 H   0  0  0  0  0  0  0  0  0  0  0  0
   -2.4757   -0.5867    0.9461 H   0  0  0  0  0  0  0  0  0  0  0  0
   -1.8484   -0.2260   -0.6806 H   0  0  0  0  0  0  0  0  0  0  0  0
   -2.7124    1.0296    0.2388 H   0  0  0  0  0  0  0  0  0  0  0  0
  1  2  1  0
  1  4  1  0
  1  5  1  0
  1  6  1  0
  2  3  2  3
  2  7  1  0
  3  8  1  0
  9 10  1  0
  9 14  1  0
  9 15  1  0
  9 16  1  0
 10 11  1  0
 10 17  1  0
 10 18  1  0
 11 12  1  0
 11 19  1  0
 12 13  1  0
 13 20  1  0
 13 21  1  0
 13 22  1  0
M  RAD  1  11   2
M  END
>  <reaction>  (6) 
rmg_rxn_16532

>  <mol_properties>  (6) 
{"1": {"label": "*0", "atom_type": "Cd"}, "2": {"label": "*1", "atom_type": "N3d"}, "7": {"label": "*2", "atom_type": "H0"}, "10": {"label": "*3", "atom_type": "Cs"}, "11": {"label": "*4", "atom_type": "O2s"}}

>  <type>  (6) 
unop_2

>  <geom_source>  (6) 
Heuristics

$$$$

     RDKit          3D

 22 20  0  0  0  0  0  0  0  0999 V2000
   -0.3626   -0.5984   -3.7089 C   0  0  0  0  0  0  0  0  0  0  0  0
   -0.3626   -0.5984   -2.2166 C   0  0  0  0  0  0  0  0  0  0  0  0
   -0.3626    0.4742   -1.5489 N   0  0  0  0  0  0  0  0  0  0  0  0
    0.5157   -1.1284   -4.0863 H   0  0  0  0  0  0  0  0  0  0  0  0
   -1.2408   -1.1284   -4.0863 H   0  0  0  0  0  0  0  0  0  0  0  0
   -0.3626    0.4222   -4.0875 H   0  0  0  0  0  0  0  0  0  0  0  0
   -0.3626   -1.5881   -1.7419 H   0  0  0  0  0  0  0  0  0  0  0  0
   -0.3626    0.2440   -0.3493 H   0  0  0  0  0  0  0  0  0  0  0  0
    0.6804   -1.5048    2.7053 C   0  0  0  0  0  0  0  0  0  0  0  0
    0.3477   -1.3120    1.2318 C   0  0  0  0  0  0  0  0  0  0  0  0
   -0.3626   -0.0047    0.9471 C   0  0  0  0  0  3  0  0  0  0  0  0
    0.4864    1.0680    1.2721 O   0  0  0  0  0  0  0  0  0  0  0  0
   -0.1121    2.3165    1.0690 C   0  0  0  0  0  0  0  0  0  0  0  0
   -0.2271   -1.4958    3.3142 H   0  0  0  0  0  0  0  0  0  0  0  0
    1.1858   -2.4571    2.8721 H   0  0  0  0  0  0  0  0  0  0  0  0
    1.3312   -0.7065    3.0622 H   0  0  0  0  0  0  0  0  0  0  0  0
   -0.2934   -2.1256    0.8813 H   0  0  0  0  0  0  0  0  0  0  0  0
    1.2612   -1.3482    0.6326 H   0  0  0  0  0  0  0  0  0  0  0  0
   -1.2895    0.0594    1.5391 H   0  0  0  0  0  0  0  0  0  0  0  0
   -1.0089    2.4391    1.6913 H   0  0  0  0  0  0  0  0  0  0  0  0
   -0.3998    2.4596    0.0185 H   0  0  0  0  0  0  0  0  0  0  0  0
    0.6148    3.0801    1.3429 H   0  0  0  0  0  0  0  0  0  0  0  0
  1  2  1  0
  1  4  1  0
  1  5  1  0
  1  6  1  0
  2  3  2  3
  2  7  1  0
  3  8  1  0
  9 10  1  0
  9 14  1  0
  9 15  1  0
  9 16  1  0
 10 11  1  0
 10 17  1  0
 10 18  1  0
 11 12  1  0
 11 19  1  0
 12 13  1  0
 13 20  1  0
 13 21  1  0
 13 22  1  0
M  RAD  1  11   2
M  END
>  <reaction>  (7) 
rmg_rxn_16532

>  <mol_properties>  (7) 
{"1": {"label": "*0", "atom_type": "Cd"}, "2": {"label": "*1", "atom_type": "N3d"}, "7": {"label": "*2", "atom_type": "H0"}, "10": {"label": "*3", "atom_type": "Cs"}, "11": {"label": "*4", "atom_type": "O2s"}}

>  <type>  (7) 
unop_3

>  <geom_source>  (7) 
Heuristics

$$$$

     RDKit          3D

 22 20  0  0  0  0  0  0  0  0999 V2000
    0.3402   -0.7299   -3.6646 C   0  0  0  0  0  0  0  0  0  0  0  0
    0.3402   -0.7299   -2.1723 C   0  0  0  0  0  0  0  0  0  0  0  0
    0.3402    0.3427   -1.5046 N   0  0  0  0  0  0  0  0  0  0  0  0
    1.2185   -1.2599   -4.0420 H   0  0  0  0  0  0  0  0  0  0  0  0
   -0.5380   -1.2599   -4.0420 H   0  0  0  0  0  0  0  0  0  0  0  0
    0.3402    0.2907   -4.0432 H   0  0  0  0  0  0  0  0  0  0  0  0
    0.3402   -1.7196   -1.6976 H   0  0  0  0  0  0  0  0  0  0  0  0
    0.3402    0.1126   -0.3050 H   0  0  0  0  0  0  0  0  0  0  0  0
    0.6197    1.0846    3.1962 C   0  0  0  0  0  0  0  0  0  0  0  0
    1.0505    0.9729    1.7397 C   0  0  0  0  0  0  0  0  0  0  0  0
    0.3402   -0.1362    0.9914 C   0  0  0  0  0  3  0  0  0  0  0  0
   -1.0374    0.1411    0.9434 O   0  0  0  0  0  0  0  0  0  0  0  0
   -1.7715   -0.8586    0.2956 C   0  0  0  0  0  0  0  0  0  0  0  0
    0.8226    0.1557    3.7349 H   0  0  0  0  0  0  0  0  0  0  0  0
    1.1548    1.8891    3.7029 H   0  0  0  0  0  0  0  0  0  0  0  0
   -0.4488    1.2874    3.2686 H   0  0  0  0  0  0  0  0  0  0  0  0
    2.1258    0.7837    1.6789 H   0  0  0  0  0  0  0  0  0  0  0  0
    0.8651    1.9163    1.2198 H   0  0  0  0  0  0  0  0  0  0  0  0
    0.5100   -1.1015    1.4944 H   0  0  0  0  0  0  0  0  0  0  0  0
   -1.6736   -1.8257    0.8072 H   0  0  0  0  0  0  0  0  0  0  0  0
   -1.4472   -0.9859   -0.7462 H   0  0  0  0  0  0  0  0  0  0  0  0
   -2.8186   -0.5587    0.3050 H   0  0  0  0  0  0  0  0  0  0  0  0
  1  2  1  0
  1  4  1  0
  1  5  1  0
  1  6  1  0
  2  3  2  3
  2  7  1  0
  3  8  1  0
  9 10  1  0
  9 14  1  0
  9 15  1  0
  9 16  1  0
 10 11  1  0
 10 17  1  0
 10 18  1  0
 11 12  1  0
 11 19  1  0
 12 13  1  0
 13 20  1  0
 13 21  1  0
 13 22  1  0
M  RAD  1  11   2
M  END
>  <reaction>  (8) 
rmg_rxn_16532

>  <mol_properties>  (8) 
{"1": {"label": "*0", "atom_type": "Cd"}, "2": {"label": "*1", "atom_type": "N3d"}, "7": {"label": "*2", "atom_type": "H0"}, "10": {"label": "*3", "atom_type": "Cs"}, "11": {"label": "*4", "atom_type": "O2s"}}

>  <type>  (8) 
unop_4

>  <geom_source>  (8) 
Heuristics

$$$$

     RDKit          3D

 22 20  0  0  0  0  0  0  0  0999 V2000
   -0.0473   -0.3781   -3.8616 C   0  0  0  0  0  0  0  0  0  0  0  0
   -0.0473   -0.3781   -2.3693 C   0  0  0  0  0  0  0  0  0  0  0  0
   -0.0473    0.6946   -1.7016 N   0  0  0  0  0  0  0  0  0  0  0  0
    0.8310   -0.9081   -4.2391 H   0  0  0  0  0  0  0  0  0  0  0  0
   -0.9255   -0.9081   -4.2391 H   0  0  0  0  0  0  0  0  0  0  0  0
   -0.0473    0.6425   -4.2402 H   0  0  0  0  0  0  0  0  0  0  0  0
   -0.0473   -1.3678   -1.8947 H   0  0  0  0  0  0  0  0  0  0  0  0
   -0.0473    0.4644   -0.5020 H   0  0  0  0  0  0  0  0  0  0  0  0
   -1.8323   -0.2067    2.5450 C   0  0  0  0  0  0  0  0  0  0  0  0
   -1.2775   -0.5810    1.1770 C   0  0  0  0  0  0  0  0  0  0  0  0
   -0.0473    0.2156    0.7944 C   0  0  0  0  0  3  0  0  0  0  0  0
    0.9917   -0.0673    1.6985 O   0  0  0  0  0  0  0  0  0  0  0  0
    2.1576    0.6593    1.4324 C   0  0  0  0  0  0  0  0  0  0  0  0
   -2.1136    0.8489    2.5759 H   0  0  0  0  0  0  0  0  0  0  0  0
   -2.7187   -0.7963    2.7836 H   0  0  0  0  0  0  0  0  0  0  0  0
   -1.0890   -0.3783    3.3235 H   0  0  0  0  0  0  0  0  0  0  0  0
   -2.0359   -0.4184    0.4061 H   0  0  0  0  0  0  0  0  0  0  0  0
   -1.0240   -1.6440    1.1526 H   0  0  0  0  0  0  0  0  0  0  0  0
   -0.2739    1.2937    0.8107 H   0  0  0  0  0  0  0  0  0  0  0  0
    1.9819    1.7415    1.4999 H   0  0  0  0  0  0  0  0  0  0  0  0
    2.5520    0.4363    0.4316 H   0  0  0  0  0  0  0  0  0  0  0  0
    2.9012    0.3752    2.1759 H   0  0  0  0  0  0  0  0  0  0  0  0
  1  2  1  0
  1  4  1  0
  1  5  1  0
  1  6  1  0
  2  3  2  3
  2  7  1  0
  3  8  1  0
  9 10  1  0
  9 14  1  0
  9 15  1  0
  9 16  1  0
 10 11  1  0
 10 17  1  0
 10 18  1  0
 11 12  1  0
 11 19  1  0
 12 13  1  0
 13 20  1  0
 13 21  1  0
 13 22  1  0
M  RAD  1  11   2
M  END
>  <reaction>  (9) 
rmg_rxn_16532

>  <mol_properties>  (9) 
{"1": {"label": "*0", "atom_type": "Cd"}, "2": {"label": "*1", "atom_type": "N3d"}, "7": {"label": "*2", "atom_type": "H0"}, "10": {"label": "*3", "atom_type": "Cs"}, "11": {"label": "*4", "atom_type": "O2s"}}

>  <type>  (9) 
unop_5

>  <geom_source>  (9) 
Heuristics

$$$$

     RDKit          3D

 22 20  0  0  0  0  0  0  0  0999 V2000
    0.2902   -0.4326   -3.7804 C   0  0  0  0  0  0  0  0  0  0  0  0
    0.2902   -0.4326   -2.2880 C   0  0  0  0  0  0  0  0  0  0  0  0
    0.2902    0.6400   -1.6204 N   0  0  0  0  0  0  0  0  0  0  0  0
    1.1684   -0.9626   -4.1578 H   0  0  0  0  0  0  0  0  0  0  0  0
   -0.5881   -0.9626   -4.1578 H   0  0  0  0  0  0  0  0  0  0  0  0
    0.2902    0.5880   -4.1590 H   0  0  0  0  0  0  0  0  0  0  0  0
    0.2902   -1.4223   -1.8134 H   0  0  0  0  0  0  0  0  0  0  0  0
    0.2902    0.4099   -0.4208 H   0  0  0  0  0  0  0  0  0  0  0  0
    0.3944    1.2471    3.1646 C   0  0  0  0  0  0  0  0  0  0  0  0
    0.2902    1.4571    1.6598 C   0  0  0  0  0  0  0  0  0  0  0  0
    0.2902    0.1611    0.8757 C   0  0  0  0  0  3  0  0  0  0  0  0
   -0.8472   -0.5914    1.2180 O   0  0  0  0  0  0  0  0  0  0  0  0
   -0.9026   -1.8244    0.5586 C   0  0  0  0  0  0  0  0  0  0  0  0
    1.3161    0.7190    3.4214 H   0  0  0  0  0  0  0  0  0  0  0  0
    0.3964    2.2007    3.6946 H   0  0  0  0  0  0  0  0  0  0  0  0
   -0.4441    0.6551    3.5311 H   0  0  0  0  0  0  0  0  0  0  0  0
    1.1283    2.0638    1.3056 H   0  0  0  0  0  0  0  0  0  0  0  0
   -0.6230    2.0079    1.4198 H   0  0  0  0  0  0  0  0  0  0  0  0
    1.2016   -0.4164    1.0985 H   0  0  0  0  0  0  0  0  0  0  0  0
   -0.0363   -2.4528    0.8063 H   0  0  0  0  0  0  0  0  0  0  0  0
   -0.9351   -1.6972   -0.5321 H   0  0  0  0  0  0  0  0  0  0  0  0
   -1.8107   -2.3317    0.8818 H   0  0  0  0  0  0  0  0  0  0  0  0
  1  2  1  0
  1  4  1  0
  1  5  1  0
  1  6  1  0
  2  3  2  3
  2  7  1  0
  3  8  1  0
  9 10  1  0
  9 14  1  0
  9 15  1  0
  9 16  1  0
 10 11  1  0
 10 17  1  0
 10 18  1  0
 11 12  1  0
 11 19  1  0
 12 13  1  0
 13 20  1  0
 13 21  1  0
 13 22  1  0
M  RAD  1  11   2
M  END
>  <reaction>  (10) 
rmg_rxn_16532

>  <mol_properties>  (10) 
{"1": {"label": "*0", "atom_type": "Cd"}, "2": {"label": "*1", "atom_type": "N3d"}, "7": {"label": "*2", "atom_type": "H0"}, "10": {"label": "*3", "atom_type": "Cs"}, "11": {"label": "*4", "atom_type": "O2s"}}

>  <type>  (10) 
unop_6

>  <geom_source>  (10) 
Heuristics

$$$$

     RDKit          3D

 22 20  0  0  0  0  0  0  0  0999 V2000
   -0.0265   -0.4187   -3.8718 C   0  0  0  0  0  0  0  0  0  0  0  0
   -0.0265   -0.4187   -2.3795 C   0  0  0  0  0  0  0  0  0  0  0  0
   -0.0265    0.6539   -1.7118 N   0  0  0  0  0  0  0  0  0  0  0  0
    0.8517   -0.9487   -4.2492 H   0  0  0  0  0  0  0  0  0  0  0  0
   -0.9048   -0.9487   -4.2492 H   0  0  0  0  0  0  0  0  0  0  0  0
   -0.0265    0.6019   -4.2504 H   0  0  0  0  0  0  0  0  0  0  0  0
   -0.0265   -1.4084   -1.9049 H   0  0  0  0  0  0  0  0  0  0  0  0
   -0.0265    0.4238   -0.5122 H   0  0  0  0  0  0  0  0  0  0  0  0
   -1.6548    0.7976    2.6255 C   0  0  0  0  0  0  0  0  0  0  0  0
   -1.4471    0.0759    1.3007 C   0  0  0  0  0  0  0  0  0  0  0  0
   -0.0265    0.1750    0.7842 C   0  0  0  0  0  3  0  0  0  0  0  0
    0.8435   -0.4623    1.6863 O   0  0  0  0  0  0  0  0  0  0  0  0
    2.1850   -0.3839    1.2962 C   0  0  0  0  0  0  0  0  0  0  0  0
   -1.4236    1.8615    2.5302 H   0  0  0  0  0  0  0  0  0  0  0  0
   -2.6885    0.7087    2.9629 H   0  0  0  0  0  0  0  0  0  0  0  0
   -1.0073    0.3820    3.3976 H   0  0  0  0  0  0  0  0  0  0  0  0
   -2.1114    0.4913    0.5378 H   0  0  0  0  0  0  0  0  0  0  0  0
   -1.7057   -0.9811    1.4042 H   0  0  0  0  0  0  0  0  0  0  0  0
    0.2621    1.2321    0.6699 H   0  0  0  0  0  0  0  0  0  0  0  0
    2.5251    0.6586    1.2306 H   0  0  0  0  0  0  0  0  0  0  0  0
    2.3498   -0.8617    0.3207 H   0  0  0  0  0  0  0  0  0  0  0  0
    2.7789   -0.9024    2.0477 H   0  0  0  0  0  0  0  0  0  0  0  0
  1  2  1  0
  1  4  1  0
  1  5  1  0
  1  6  1  0
  2  3  2  3
  2  7  1  0
  3  8  1  0
  9 10  1  0
  9 14  1  0
  9 15  1  0
  9 16  1  0
 10 11  1  0
 10 17  1  0
 10 18  1  0
 11 12  1  0
 11 19  1  0
 12 13  1  0
 13 20  1  0
 13 21  1  0
 13 22  1  0
M  RAD  1  11   2
M  END
>  <reaction>  (11) 
rmg_rxn_16532

>  <mol_properties>  (11) 
{"1": {"label": "*0", "atom_type": "Cd"}, "2": {"label": "*1", "atom_type": "N3d"}, "7": {"label": "*2", "atom_type": "H0"}, "10": {"label": "*3", "atom_type": "Cs"}, "11": {"label": "*4", "atom_type": "O2s"}}

>  <type>  (11) 
unop_7

>  <geom_source>  (11) 
Heuristics

$$$$

     RDKit          3D

 22 20  0  0  0  0  0  0  0  0999 V2000
   -0.0295   -0.4056   -3.8693 C   0  0  0  0  0  0  0  0  0  0  0  0
   -0.0295   -0.4056   -2.3770 C   0  0  0  0  0  0  0  0  0  0  0  0
   -0.0295    0.6670   -1.7093 N   0  0  0  0  0  0  0  0  0  0  0  0
    0.8488   -0.9356   -4.2467 H   0  0  0  0  0  0  0  0  0  0  0  0
   -0.9077   -0.9356   -4.2467 H   0  0  0  0  0  0  0  0  0  0  0  0
   -0.0295    0.6150   -4.2479 H   0  0  0  0  0  0  0  0  0  0  0  0
   -0.0295   -1.3953   -1.9023 H   0  0  0  0  0  0  0  0  0  0  0  0
   -0.0295    0.4368   -0.5097 H   0  0  0  0  0  0  0  0  0  0  0  0
   -0.9595    1.4884    2.7549 C   0  0  0  0  0  0  0  0  0  0  0  0
   -1.2597    0.7865    1.4371 C   0  0  0  0  0  0  0  0  0  0  0  0
   -0.0295    0.1881    0.7867 C   0  0  0  0  0  3  0  0  0  0  0  0
    0.4987   -0.8133    1.6206 O   0  0  0  0  0  0  0  0  0  0  0  0
    1.6625   -1.3938    1.1040 C   0  0  0  0  0  0  0  0  0  0  0  0
   -0.2474    2.3043    2.6085 H   0  0  0  0  0  0  0  0  0  0  0  0
   -1.8666    1.9100    3.1903 H   0  0  0  0  0  0  0  0  0  0  0  0
   -0.5281    0.7921    3.4740 H   0  0  0  0  0  0  0  0  0  0  0  0
   -1.7049    1.4907    0.7287 H   0  0  0  0  0  0  0  0  0  0  0  0
   -1.9915   -0.0101    1.5939 H   0  0  0  0  0  0  0  0  0  0  0  0
    0.7274    0.9703    0.6163 H   0  0  0  0  0  0  0  0  0  0  0  0
    2.4613   -0.6505    0.9776 H   0  0  0  0  0  0  0  0  0  0  0  0
    1.4780   -1.8697    0.1311 H   0  0  0  0  0  0  0  0  0  0  0  0
    1.9951   -2.1530    1.8106 H   0  0  0  0  0  0  0  0  0  0  0  0
  1  2  1  0
  1  4  1  0
  1  5  1  0
  1  6  1  0
  2  3  2  3
  2  7  1  0
  3  8  1  0
  9 10  1  0
  9 14  1  0
  9 15  1  0
  9 16  1  0
 10 11  1  0
 10 17  1  0
 10 18  1  0
 11 12  1  0
 11 19  1  0
 12 13  1  0
 13 20  1  0
 13 21  1  0
 13 22  1  0
M  RAD  1  11   2
M  END
>  <reaction>  (12) 
rmg_rxn_16532

>  <mol_properties>  (12) 
{"1": {"label": "*0", "atom_type": "Cd"}, "2": {"label": "*1", "atom_type": "N3d"}, "7": {"label": "*2", "atom_type": "H0"}, "10": {"label": "*3", "atom_type": "Cs"}, "11": {"label": "*4", "atom_type": "O2s"}}

>  <type>  (12) 
unop_8

>  <geom_source>  (12) 
Heuristics

$$$$

     RDKit          3D

 22 20  0  0  0  0  0  0  0  0999 V2000
   -0.1001   -0.9265   -3.6210 C   0  0  0  0  0  0  0  0  0  0  0  0
   -0.1001   -0.9265   -2.1287 C   0  0  0  0  0  0  0  0  0  0  0  0
   -0.1001    0.1461   -1.4610 N   0  0  0  0  0  0  0  0  0  0  0  0
    0.7782   -1.4565   -3.9984 H   0  0  0  0  0  0  0  0  0  0  0  0
   -0.9783   -1.4565   -3.9984 H   0  0  0  0  0  0  0  0  0  0  0  0
   -0.1001    0.0941   -3.9996 H   0  0  0  0  0  0  0  0  0  0  0  0
   -0.1001   -1.9162   -1.6541 H   0  0  0  0  0  0  0  0  0  0  0  0
   -0.1001   -0.0841   -0.2614 H   0  0  0  0  0  0  0  0  0  0  0  0
    1.4827    0.1073    2.9665 C   0  0  0  0  0  0  0  0  0  0  0  0
    1.3205   -0.4319    1.5515 C   0  0  0  0  0  0  0  0  0  0  0  0
   -0.1001   -0.3328    1.0350 C   0  0  0  0  0  3  0  0  0  0  0  0
   -0.4739    1.0203    0.9541 O   0  0  0  0  0  0  0  0  0  0  0  0
   -1.7912    1.1957    0.5160 C   0  0  0  0  0  0  0  0  0  0  0  0
    0.8494   -0.4418    3.6677 H   0  0  0  0  0  0  0  0  0  0  0  0
    2.5155    0.0150    3.3055 H   0  0  0  0  0  0  0  0  0  0  0  0
    1.2011    1.1592    3.0137 H   0  0  0  0  0  0  0  0  0  0  0  0
    1.6191   -1.4832    1.5129 H   0  0  0  0  0  0  0  0  0  0  0  0
    1.9775    0.1092    0.8657 H   0  0  0  0  0  0  0  0  0  0  0  0
   -0.7863   -0.8707    1.7084 H   0  0  0  0  0  0  0  0  0  0  0  0
   -2.5092    0.7221    1.1992 H   0  0  0  0  0  0  0  0  0  0  0  0
   -1.9418    0.7748   -0.4875 H   0  0  0  0  0  0  0  0  0  0  0  0
   -1.9888    2.2663    0.4828 H   0  0  0  0  0  0  0  0  0  0  0  0
  1  2  1  0
  1  4  1  0
  1  5  1  0
  1  6  1  0
  2  3  2  3
  2  7  1  0
  3  8  1  0
  9 10  1  0
  9 14  1  0
  9 15  1  0
  9 16  1  0
 10 11  1  0
 10 17  1  0
 10 18  1  0
 11 12  1  0
 11 19  1  0
 12 13  1  0
 13 20  1  0
 13 21  1  0
 13 22  1  0
M  RAD  1  11   2
M  END
>  <reaction>  (13) 
rmg_rxn_16532

>  <mol_properties>  (13) 
{"1": {"label": "*0", "atom_type": "Cd"}, "2": {"label": "*1", "atom_type": "N3d"}, "7": {"label": "*2", "atom_type": "H0"}, "10": {"label": "*3", "atom_type": "Cs"}, "11": {"label": "*4", "atom_type": "O2s"}}

>  <type>  (13) 
unop_9

>  <geom_source>  (13) 
Heuristics

$$$$

     RDKit          3D

 22 20  0  0  0  0  0  0  0  0999 V2000
   -3.4107   -0.4037   -0.2742 C   0  0  0  0  0  0  0  0  0  0  0  0
   -1.9334   -0.1625   -0.2180 C   0  0  0  0  0  0  0  0  0  0  0  0
   -1.2385   -0.4723    0.7635 N   0  0  0  0  0  0  0  0  0  0  0  0
   -3.6387   -1.0514   -1.1195 H   0  0  0  0  0  0  0  0  0  0  0  0
   -3.7529   -0.8687    0.6462 H   0  0  0  0  0  0  0  0  0  0  0  0
   -3.9282    0.5429   -0.4228 H   0  0  0  0  0  0  0  0  0  0  0  0
   -1.5253    0.3150   -1.1232 H   0  0  0  0  0  0  0  0  0  0  0  0
   -0.0415   -0.2020    0.6136 H   0  0  0  0  0  0  0  0  0  0  0  0
    1.7571   -2.2552    0.1978 C   0  0  0  0  0  0  0  0  0  0  0  0
    1.7881   -0.9278   -0.5494 C   0  0  0  0  0  0  0  0  0  0  0  0
    1.1843    0.1839    0.2754 C   0  0  0  0  0  3  0  0  0  0  0  0
    1.0443    1.3546   -0.4665 O   0  0  0  0  0  0  0  0  0  0  0  0
    0.6801    2.4799    0.2893 C   0  0  0  0  0  0  0  0  0  0  0  0
    2.3307   -2.1877    1.1193 H   0  0  0  0  0  0  0  0  0  0  0  0
    0.7339   -2.5209    0.4512 H   0  0  0  0  0  0  0  0  0  0  0  0
    2.1823   -3.0450   -0.4162 H   0  0  0  0  0  0  0  0  0  0  0  0
    1.2303   -1.0084   -1.4846 H   0  0  0  0  0  0  0  0  0  0  0  0
    2.8220   -0.6721   -0.8086 H   0  0  0  0  0  0  0  0  0  0  0  0
    1.6888    0.3489    1.2334 H   0  0  0  0  0  0  0  0  0  0  0  0
   -0.2832    2.3238    0.7891 H   0  0  0  0  0  0  0  0  0  0  0  0
    0.6008    3.3131   -0.4066 H   0  0  0  0  0  0  0  0  0  0  0  0
    1.4358    2.7082    1.0502 H   0  0  0  0  0  0  0  0  0  0  0  0
  1  2  1  0
  1  4  1  0
  1  5  1  0
  1  6  1  0
  2  3  2  3
  2  7  1  0
  3  8  1  0
  9 10  1  0
  9 14  1  0
  9 15  1  0
  9 16  1  0
 10 11  1  0
 10 17  1  0
 10 18  1  0
 11 12  1  0
 11 19  1  0
 12 13  1  0
 13 20  1  0
 13 21  1  0
 13 22  1  0
M  RAD  1  11   2
M  END
>  <reaction>  (14) 
rmg_rxn_16532

>  <mol_properties>  (14) 
{"1": {"label": "*0", "atom_type": "Cd"}, "2": {"label": "*1", "atom_type": "N3d"}, "7": {"label": "*2", "atom_type": "H0"}, "10": {"label": "*3", "atom_type": "Cs"}, "11": {"label": "*4", "atom_type": "O2s"}}

>  <type>  (14) 
unop_10

>  <geom_source>  (14) 
Heuristics

$$$$

     RDKit          3D

 22 20  0  0  0  0  0  0  0  0999 V2000
   -0.1466   -0.3487   -3.8323 C   0  0  0  0  0  0  0  0  0  0  0  0
   -0.1466   -0.3487   -2.3399 C   0  0  0  0  0  0  0  0  0  0  0  0
   -0.1466    0.7239   -1.6723 N   0  0  0  0  0  0  0  0  0  0  0  0
    0.7317   -0.8787   -4.2097 H   0  0  0  0  0  0  0  0  0  0  0  0
   -1.0248   -0.8787   -4.2097 H   0  0  0  0  0  0  0  0  0  0  0  0
   -0.1466    0.6719   -4.2109 H   0  0  0  0  0  0  0  0  0  0  0  0
   -0.1466   -1.3384   -1.8653 H   0  0  0  0  0  0  0  0  0  0  0  0
   -0.1466    0.4938   -0.4727 H   0  0  0  0  0  0  0  0  0  0  0  0
   -1.3725   -1.1652    2.5377 C   0  0  0  0  0  0  0  0  0  0  0  0
   -0.8568   -1.0623    1.1084 C   0  0  0  0  0  0  0  0  0  0  0  0
   -0.1466    0.2450    0.8237 C   0  0  0  0  0  3  0  0  0  0  0  0
    1.0000    0.3388    1.6322 O   0  0  0  0  0  0  0  0  0  0  0  0
    1.6957    1.5396    1.4527 C   0  0  0  0  0  0  0  0  0  0  0  0
   -2.0821   -0.3630    2.7547 H   0  0  0  0  0  0  0  0  0  0  0  0
   -1.8813   -2.1159    2.7036 H   0  0  0  0  0  0  0  0  0  0  0  0
   -0.5519   -1.0888    3.2510 H   0  0  0  0  0  0  0  0  0  0  0  0
   -1.6862   -1.1545    0.4016 H   0  0  0  0  0  0  0  0  0  0  0  0
   -0.1681   -1.8844    0.8974 H   0  0  0  0  0  0  0  0  0  0  0  0
   -0.8187    1.0936    1.0283 H   0  0  0  0  0  0  0  0  0  0  0  0
    1.0726    2.4078    1.7067 H   0  0  0  0  0  0  0  0  0  0  0  0
    2.0405    1.6547    0.4160 H   0  0  0  0  0  0  0  0  0  0  0  0
    2.5621    1.5216    2.1126 H   0  0  0  0  0  0  0  0  0  0  0  0
  1  2  1  0
  1  4  1  0
  1  5  1  0
  1  6  1  0
  2  3  2  3
  2  7  1  0
  3  8  1  0
  9 10  1  0
  9 14  1  0
  9 15  1  0
  9 16  1  0
 10 11  1  0
 10 17  1  0
 10 18  1  0
 11 12  1  0
 11 19  1  0
 12 13  1  0
 13 20  1  0
 13 21  1  0
 13 22  1  0
M  RAD  1  11   2
M  END
>  <reaction>  (15) 
rmg_rxn_16532

>  <mol_properties>  (15) 
{"1": {"label": "*0", "atom_type": "Cd"}, "2": {"label": "*1", "atom_type": "N3d"}, "7": {"label": "*2", "atom_type": "H0"}, "10": {"label": "*3", "atom_type": "Cs"}, "11": {"label": "*4", "atom_type": "O2s"}}

>  <type>  (15) 
unop_11

>  <geom_source>  (15) 
Heuristics

$$$$

     RDKit          3D

 22 20  0  0  0  0  0  0  0  0999 V2000
   -0.2913   -0.8007   -3.6529 C   0  0  0  0  0  0  0  0  0  0  0  0
   -0.2913   -0.8007   -2.1606 C   0  0  0  0  0  0  0  0  0  0  0  0
   -0.2913    0.2719   -1.4929 N   0  0  0  0  0  0  0  0  0  0  0  0
    0.5869   -1.3307   -4.0303 H   0  0  0  0  0  0  0  0  0  0  0  0
   -1.1696   -1.3307   -4.0303 H   0  0  0  0  0  0  0  0  0  0  0  0
   -0.2913    0.2199   -4.0315 H   0  0  0  0  0  0  0  0  0  0  0  0
   -0.2913   -1.7904   -1.6859 H   0  0  0  0  0  0  0  0  0  0  0  0
   -0.2913    0.0418   -0.2933 H   0  0  0  0  0  0  0  0  0  0  0  0
    1.3720   -0.7812    2.8287 C   0  0  0  0  0  0  0  0  0  0  0  0
    0.9389   -1.0036    1.3858 C   0  0  0  0  0  0  0  0  0  0  0  0
   -0.2913   -0.2070    1.0031 C   0  0  0  0  0  3  0  0  0  0  0  0
   -0.0032    1.1666    1.0892 O   0  0  0  0  0  0  0  0  0  0  0  0
   -1.1044    1.9739    0.7832 C   0  0  0  0  0  0  0  0  0  0  0  0
    0.5779   -1.0679    3.5226 H   0  0  0  0  0  0  0  0  0  0  0  0
    2.2561   -1.3736    3.0687 H   0  0  0  0  0  0  0  0  0  0  0  0
    1.6073    0.2686    3.0041 H   0  0  0  0  0  0  0  0  0  0  0  0
    0.7193   -2.0616    1.2177 H   0  0  0  0  0  0  0  0  0  0  0  0
    1.7509   -0.7366    0.7044 H   0  0  0  0  0  0  0  0  0  0  0  0
   -1.1281   -0.4563    1.6750 H   0  0  0  0  0  0  0  0  0  0  0  0
   -1.9396    1.7944    1.4738 H   0  0  0  0  0  0  0  0  0  0  0  0
   -1.4609    1.7982   -0.2410 H   0  0  0  0  0  0  0  0  0  0  0  0
   -0.7885    3.0123    0.8735 H   0  0  0  0  0  0  0  0  0  0  0  0
  1  2  1  0
  1  4  1  0
  1  5  1  0
  1  6  1  0
  2  3  2  3
  2  7  1  0
  3  8  1  0
  9 10  1  0
  9 14  1  0
  9 15  1  0
  9 16  1  0
 10 11  1  0
 10 17  1  0
 10 18  1  0
 11 12  1  0
 11 19  1  0
 12 13  1  0
 13 20  1  0
 13 21  1  0
 13 22  1  0
M  RAD  1  11   2
M  END
>  <reaction>  (16) 
rmg_rxn_16532

>  <mol_properties>  (16) 
{"1": {"label": "*0", "atom_type": "Cd"}, "2": {"label": "*1", "atom_type": "N3d"}, "7": {"label": "*2", "atom_type": "H0"}, "10": {"label": "*3", "atom_type": "Cs"}, "11": {"label": "*4", "atom_type": "O2s"}}

>  <type>  (16) 
unop_12

>  <geom_source>  (16) 
Heuristics

$$$$

     RDKit          3D

 22 20  0  0  0  0  0  0  0  0999 V2000
    0.0558   -0.3495   -3.8525 C   0  0  0  0  0  0  0  0  0  0  0  0
    0.0558   -0.3495   -2.3601 C   0  0  0  0  0  0  0  0  0  0  0  0
    0.0558    0.7231   -1.6924 N   0  0  0  0  0  0  0  0  0  0  0  0
    0.9341   -0.8795   -4.2299 H   0  0  0  0  0  0  0  0  0  0  0  0
   -0.8224   -0.8795   -4.2299 H   0  0  0  0  0  0  0  0  0  0  0  0
    0.0558    0.6711   -4.2311 H   0  0  0  0  0  0  0  0  0  0  0  0
    0.0558   -1.3392   -1.8855 H   0  0  0  0  0  0  0  0  0  0  0  0
    0.0558    0.4929   -0.4929 H   0  0  0  0  0  0  0  0  0  0  0  0
   -0.0814    1.6017    2.9408 C   0  0  0  0  0  0  0  0  0  0  0  0
   -0.6545    1.3533    1.5519 C   0  0  0  0  0  0  0  0  0  0  0  0
    0.0558    0.2442    0.8036 C   0  0  0  0  0  3  0  0  0  0  0  0
   -0.1188   -0.9694    1.4919 O   0  0  0  0  0  0  0  0  0  0  0  0
    0.5397   -2.0418    0.8800 C   0  0  0  0  0  0  0  0  0  0  0  0
    0.9736    1.8809    2.8829 H   0  0  0  0  0  0  0  0  0  0  0  0
   -0.6138    2.4086    3.4463 H   0  0  0  0  0  0  0  0  0  0  0  0
   -0.1574    0.7052    3.5561 H   0  0  0  0  0  0  0  0  0  0  0  0
   -0.5860    2.2627    0.9484 H   0  0  0  0  0  0  0  0  0  0  0  0
   -1.7153    1.0997    1.6231 H   0  0  0  0  0  0  0  0  0  0  0  0
    1.1299    0.4735    0.7165 H   0  0  0  0  0  0  0  0  0  0  0  0
    1.6240   -1.8733    0.8307 H   0  0  0  0  0  0  0  0  0  0  0  0
    0.1710   -2.2117   -0.1409 H   0  0  0  0  0  0  0  0  0  0  0  0
    0.3474   -2.9321    1.4772 H   0  0  0  0  0  0  0  0  0  0  0  0
  1  2  1  0
  1  4  1  0
  1  5  1  0
  1  6  1  0
  2  3  2  3
  2  7  1  0
  3  8  1  0
  9 10  1  0
  9 14  1  0
  9 15  1  0
  9 16  1  0
 10 11  1  0
 10 17  1  0
 10 18  1  0
 11 12  1  0
 11 19  1  0
 12 13  1  0
 13 20  1  0
 13 21  1  0
 13 22  1  0
M  RAD  1  11   2
M  END
>  <reaction>  (17) 
rmg_rxn_16532

>  <mol_properties>  (17) 
{"1": {"label": "*0", "atom_type": "Cd"}, "2": {"label": "*1", "atom_type": "N3d"}, "7": {"label": "*2", "atom_type": "H0"}, "10": {"label": "*3", "atom_type": "Cs"}, "11": {"label": "*4", "atom_type": "O2s"}}

>  <type>  (17) 
unop_13

>  <geom_source>  (17) 
Heuristics

$$$$

     RDKit          3D

 22 20  0  0  0  0  0  0  0  0999 V2000
   -0.2902   -0.4175   -3.7775 C   0  0  0  0  0  0  0  0  0  0  0  0
   -0.2902   -0.4175   -2.2851 C   0  0  0  0  0  0  0  0  0  0  0  0
   -0.2902    0.6551   -1.6175 N   0  0  0  0  0  0  0  0  0  0  0  0
    0.5881   -0.9475   -4.1549 H   0  0  0  0  0  0  0  0  0  0  0  0
   -1.1684   -0.9475   -4.1549 H   0  0  0  0  0  0  0  0  0  0  0  0
   -0.2902    0.6031   -4.1561 H   0  0  0  0  0  0  0  0  0  0  0  0
   -0.2902   -1.4072   -1.8105 H   0  0  0  0  0  0  0  0  0  0  0  0
   -0.2902    0.4250   -0.4179 H   0  0  0  0  0  0  0  0  0  0  0  0
   -0.3944   -1.6798    2.6030 C   0  0  0  0  0  0  0  0  0  0  0  0
   -0.2902   -1.3180    1.1274 C   0  0  0  0  0  0  0  0  0  0  0  0
   -0.2902    0.1762    0.8785 C   0  0  0  0  0  3  0  0  0  0  0  0
    0.8472    0.7486    1.4751 O   0  0  0  0  0  0  0  0  0  0  0  0
    0.9026    2.1381    1.3189 C   0  0  0  0  0  0  0  0  0  0  0  0
   -1.3161   -1.2843    3.0370 H   0  0  0  0  0  0  0  0  0  0  0  0
   -0.3964   -2.7618    2.7424 H   0  0  0  0  0  0  0  0  0  0  0  0
    0.4441   -1.2655    3.1626 H   0  0  0  0  0  0  0  0  0  0  0  0
   -1.1283   -1.7504    0.5738 H   0  0  0  0  0  0  0  0  0  0  0  0
    0.6230   -1.7408    0.7006 H   0  0  0  0  0  0  0  0  0  0  0  0
   -1.2016    0.6302    1.2993 H   0  0  0  0  0  0  0  0  0  0  0  0
    0.0363    2.6302    1.7815 H   0  0  0  0  0  0  0  0  0  0  0  0
    0.9351    2.4236    0.2586 H   0  0  0  0  0  0  0  0  0  0  0  0
    1.8107    2.4897    1.8069 H   0  0  0  0  0  0  0  0  0  0  0  0
  1  2  1  0
  1  4  1  0
  1  5  1  0
  1  6  1  0
  2  3  2  3
  2  7  1  0
  3  8  1  0
  9 10  1  0
  9 14  1  0
  9 15  1  0
  9 16  1  0
 10 11  1  0
 10 17  1  0
 10 18  1  0
 11 12  1  0
 11 19  1  0
 12 13  1  0
 13 20  1  0
 13 21  1  0
 13 22  1  0
M  RAD  1  11   2
M  END
>  <reaction>  (18) 
rmg_rxn_16532

>  <mol_properties>  (18) 
{"1": {"label": "*0", "atom_type": "Cd"}, "2": {"label": "*1", "atom_type": "N3d"}, "7": {"label": "*2", "atom_type": "H0"}, "10": {"label": "*3", "atom_type": "Cs"}, "11": {"label": "*4", "atom_type": "O2s"}}

>  <type>  (18) 
unop_14

>  <geom_source>  (18) 
Heuristics

$$$$

     RDKit          3D

 22 20  0  0  0  0  0  0  0  0999 V2000
   -0.3626   -0.5984   -3.7089 C   0  0  0  0  0  0  0  0  0  0  0  0
   -0.3626   -0.5984   -2.2166 C   0  0  0  0  0  0  0  0  0  0  0  0
   -0.3626    0.4742   -1.5489 N   0  0  0  0  0  0  0  0  0  0  0  0
    0.5157   -1.1284   -4.0863 H   0  0  0  0  0  0  0  0  0  0  0  0
   -1.2408   -1.1284   -4.0863 H   0  0  0  0  0  0  0  0  0  0  0  0
   -0.3626    0.4222   -4.0875 H   0  0  0  0  0  0  0  0  0  0  0  0
   -0.3626   -1.5881   -1.7419 H   0  0  0  0  0  0  0  0  0  0  0  0
   -0.3626    0.2440   -0.3493 H   0  0  0  0  0  0  0  0  0  0  0  0
    0.6804   -1.5048    2.7053 C   0  0  0  0  0  0  0  0  0  0  0  0
    0.3477   -1.3120    1.2318 C   0  0  0  0  0  0  0  0  0  0  0  0
   -0.3626   -0.0047    0.9471 C   0  0  0  0  0  3  0  0  0  0  0  0
    0.4864    1.0680    1.2721 O   0  0  0  0  0  0  0  0  0  0  0  0
   -0.1121    2.3165    1.0690 C   0  0  0  0  0  0  0  0  0  0  0  0
   -0.2271   -1.4958    3.3142 H   0  0  0  0  0  0  0  0  0  0  0  0
    1.1858   -2.4571    2.8721 H   0  0  0  0  0  0  0  0  0  0  0  0
    1.3312   -0.7065    3.0621 H   0  0  0  0  0  0  0  0  0  0  0  0
   -0.2934   -2.1256    0.8813 H   0  0  0  0  0  0  0  0  0  0  0  0
    1.2612   -1.3482    0.6326 H   0  0  0  0  0  0  0  0  0  0  0  0
   -1.2895    0.0595    1.5391 H   0  0  0  0  0  0  0  0  0  0  0  0
   -1.0090    2.4391    1.6913 H   0  0  0  0  0  0  0  0  0  0  0  0
   -0.3998    2.4596    0.0185 H   0  0  0  0  0  0  0  0  0  0  0  0
    0.6148    3.0800    1.3429 H   0  0  0  0  0  0  0  0  0  0  0  0
  1  2  1  0
  1  4  1  0
  1  5  1  0
  1  6  1  0
  2  3  2  3
  2  7  1  0
  3  8  1  0
  9 10  1  0
  9 14  1  0
  9 15  1  0
  9 16  1  0
 10 11  1  0
 10 17  1  0
 10 18  1  0
 11 12  1  0
 11 19  1  0
 12 13  1  0
 13 20  1  0
 13 21  1  0
 13 22  1  0
M  RAD  1  11   2
M  END
>  <reaction>  (19) 
rmg_rxn_16532

>  <mol_properties>  (19) 
{"1": {"label": "*0", "atom_type": "Cd"}, "2": {"label": "*1", "atom_type": "N3d"}, "7": {"label": "*2", "atom_type": "H0"}, "10": {"label": "*3", "atom_type": "Cs"}, "11": {"label": "*4", "atom_type": "O2s"}}

>  <type>  (19) 
unop_15

>  <geom_source>  (19) 
gaussian_log

$$$$
