
     RDKit          3D

 14 14  0  0  0  0  0  0  0  0999 V2000
   -1.1778    0.2241    0.1818 C   0  0  0  0  0  0  0  0  0  0  0  0
   -0.5633   -1.1636    0.0678 C   0  0  0  0  0  0  0  0  0  0  0  0
    0.6943   -1.1996    0.7146 O   0  0  0  0  0  0  0  0  0  0  0  0
    1.5547   -0.2288    0.2011 C   0  0  0  0  0  0  0  0  0  0  0  0
    1.0729    1.0696    0.3698 O   0  0  0  0  0  0  0  0  0  0  0  0
   -0.1607    1.2493   -0.2989 C   0  0  0  0  0  0  0  0  0  0  0  0
   -2.0927    0.2866   -0.4117 H   0  0  0  0  0  0  0  0  0  0  0  0
   -1.4303    0.4248    1.2248 H   0  0  0  0  0  0  0  0  0  0  0  0
   -1.1822   -1.9235    0.5431 H   0  0  0  0  0  0  0  0  0  0  0  0
   -0.4389   -1.4347   -0.9919 H   0  0  0  0  0  0  0  0  0  0  0  0
    1.7250   -0.4207   -0.8742 H   0  0  0  0  0  0  0  0  0  0  0  0
    2.4896   -0.3010    0.7524 H   0  0  0  0  0  0  0  0  0  0  0  0
   -0.0080    1.1481   -1.3844 H   0  0  0  0  0  0  0  0  0  0  0  0
   -0.4826    2.2695   -0.0942 H   0  0  0  0  0  0  0  0  0  0  0  0
  1  2  1  0
  1  6  1  0
  1  7  1  0
  1  8  1  0
  2  3  1  0
  2  9  1  0
  2 10  1  0
  3  4  1  0
  4  5  1  0
  4 11  1  0
  4 12  1  0
  5  6  1  0
  6 13  1  0
  6 14  1  0
M  END
>  <reaction>  (1) 
rmg_rxn_205

>  <mol_properties>  (1) 
{"0": {"label": "donator", "atom_type": "Cs"}, "6": {"label": "d_hydrogen", "atom_type": "H0"}}

>  <type>  (1) 
r1h

$$$$

     RDKit          3D

 17 16  0  0  0  0  0  0  0  0999 V2000
    3.3619    0.3511   -1.0290 C   0  0  0  0  0  3  0  0  0  0  0  0
    2.1806    1.0643   -0.5073 C   0  0  0  0  0  0  0  0  0  0  0  0
    1.4028    0.1998    0.2757 O   0  0  0  0  0  0  0  0  0  0  0  0
    0.2433    0.8081    0.7885 C   0  0  0  0  0  0  0  0  0  0  0  0
   -0.5040   -0.1878    1.6510 C   0  0  0  0  0  0  0  0  0  0  0  0
    0.2852   -0.6298    2.8762 C   0  0  0  0  0  0  0  0  0  0  0  0
    4.1174    0.8902   -1.5820 H   0  0  0  0  0  0  0  0  0  0  0  0
    3.4399   -0.7198   -0.9141 H   0  0  0  0  0  0  0  0  0  0  0  0
    1.5724    1.4684   -1.3398 H   0  0  0  0  0  0  0  0  0  0  0  0
    2.4896    1.9442    0.0856 H   0  0  0  0  0  0  0  0  0  0  0  0
    0.5169    1.6937    1.3835 H   0  0  0  0  0  0  0  0  0  0  0  0
   -0.3954    1.1528   -0.0379 H   0  0  0  0  0  0  0  0  0  0  0  0
   -0.7611   -1.0545    1.0367 H   0  0  0  0  0  0  0  0  0  0  0  0
   -1.4466    0.2743    1.9571 H   0  0  0  0  0  0  0  0  0  0  0  0
    0.5263    0.2245    3.5136 H   0  0  0  0  0  0  0  0  0  0  0  0
    1.2220   -1.1033    2.5825 H   0  0  0  0  0  0  0  0  0  0  0  0
   -0.2849   -1.3427    3.4737 H   0  0  0  0  0  0  0  0  0  0  0  0
  1  2  1  0
  1  7  1  0
  1  8  1  0
  2  3  1  0
  2  9  1  0
  2 10  1  0
  3  4  1  0
  4  5  1  0
  4 11  1  0
  4 12  1  0
  5  6  1  0
  5 13  1  0
  5 14  1  0
  6 15  1  0
  6 16  1  0
  6 17  1  0
M  RAD  1   1   2
M  END
>  <reaction>  (2) 
rmg_rxn_205

>  <mol_properties>  (2) 
{"0": {"label": "acceptor", "atom_type": "Cs"}}

>  <type>  (2) 
r2

$$$$

     RDKit          3D

 18 17  0  0  0  0  0  0  0  0999 V2000
    2.2026   -0.7213   -0.2612 C   0  0  0  0  0  0  0  0  0  0  0  0
    1.5384    0.2638    0.6915 C   0  0  0  0  0  0  0  0  0  0  0  0
    2.2584    1.5946    0.7694 C   0  0  0  0  0  0  0  0  0  0  0  0
    2.2212    2.2185   -0.4893 O   0  0  0  0  0  0  0  0  0  0  0  0
    2.8988    3.4488   -0.5204 C   0  0  0  0  0  0  0  0  0  0  0  0
    2.7981    4.0296   -1.9118 C   0  0  0  0  0  0  0  0  0  0  0  0
    3.2294   -0.9309    0.0486 H   0  0  0  0  0  0  0  0  0  0  0  0
    2.2338   -0.3181   -1.2734 H   0  0  0  0  0  0  0  0  0  0  0  0
    1.6610   -1.6680   -0.2875 H   0  0  0  0  0  0  0  0  0  0  0  0
    1.4990   -0.1566    1.7002 H   0  0  0  0  0  0  0  0  0  0  0  0
    0.5055    0.4455    0.3835 H   0  0  0  0  0  0  0  0  0  0  0  0
    3.3038    1.4410    1.0808 H   0  0  0  0  0  0  0  0  0  0  0  0
    1.7844    2.2410    1.5226 H   0  0  0  0  0  0  0  0  0  0  0  0
    2.4596    4.1376    0.2164 H   0  0  0  0  0  0  0  0  0  0  0  0
    3.9524    3.3035   -0.2397 H   0  0  0  0  0  0  0  0  0  0  0  0
    1.7543    4.1869   -2.1856 H   0  0  0  0  0  0  0  0  0  0  0  0
    3.2472    3.3545   -2.6411 H   0  0  0  0  0  0  0  0  0  0  0  0
    3.3178    4.9878   -1.9600 H   0  0  0  0  0  0  0  0  0  0  0  0
  1  2  1  0
  1  7  1  0
  1  8  1  0
  1  9  1  0
  2  3  1  0
  2 10  1  0
  2 11  1  0
  3  4  1  0
  3 12  1  0
  3 13  1  0
  4  5  1  0
  5  6  1  0
  5 14  1  0
  5 15  1  0
  6 16  1  0
  6 17  1  0
  6 18  1  0
M  END
>  <reaction>  (3) 
rmg_rxn_205

>  <mol_properties>  (3) 
{"0": {"label": "a_hydrogen", "atom_type": "H0"}, "1": {"label": "acceptor", "atom_type": "Cs"}}

>  <type>  (3) 
r2h

$$$$

     RDKit          3D

 31 30  0  0  0  0  0  0  0  0999 V2000
    0.5494    2.0938    0.6305 C   0  0  0  0  0  0  0  0  0  0  0  0
    1.4842    2.3426   -0.5267 C   0  0  0  0  0  0  0  0  0  0  0  0
    1.1753    3.5821   -1.1486 O   0  0  0  0  0  0  0  0  0  0  0  0
   -0.1634    3.6273   -1.5400 C   0  0  0  0  0  0  0  0  0  0  0  0
   -1.0511    3.5051   -0.4698 O   0  0  0  0  0  0  0  0  0  0  0  0
   -0.8841    2.2581    0.1908 C   0  0  0  0  0  0  0  0  0  0  0  0
    0.7189    0.8185    0.9867 H   0  0  0  0  0  0  0  0  0  0  0  0
    0.7972    2.6725    1.5188 H   0  0  0  0  0  0  0  0  0  0  0  0
    2.5249    2.4003   -0.2124 H   0  0  0  0  0  0  0  0  0  0  0  0
    1.3909    1.5329   -1.2673 H   0  0  0  0  0  0  0  0  0  0  0  0
   -0.3590    2.8226   -2.2725 H   0  0  0  0  0  0  0  0  0  0  0  0
   -0.3348    4.6019   -1.9918 H   0  0  0  0  0  0  0  0  0  0  0  0
   -1.1649    1.4463   -0.4979 H   0  0  0  0  0  0  0  0  0  0  0  0
   -1.5784    2.2519    1.0294 H   0  0  0  0  0  0  0  0  0  0  0  0
    0.8824   -0.5028    1.2289 C   0  0  0  0  0  3  0  0  0  0  0  0
   -0.0712   -1.2055    0.3110 C   0  0  0  0  0  0  0  0  0  0  0  0
    0.0760   -2.5980    0.4539 O   0  0  0  0  0  0  0  0  0  0  0  0
   -0.7899   -3.3328   -0.3780 C   0  0  0  0  0  0  0  0  0  0  0  0
   -0.5901   -4.8130   -0.1260 C   0  0  0  0  0  0  0  0  0  0  0  0
   -0.9511   -5.2332    1.2925 C   0  0  0  0  0  0  0  0  0  0  0  0
    0.6589   -0.6149    2.2873 H   0  0  0  0  0  0  0  0  0  0  0  0
    1.9318   -0.6829    1.0053 H   0  0  0  0  0  0  0  0  0  0  0  0
    0.1221   -0.9156   -0.7336 H   0  0  0  0  0  0  0  0  0  0  0  0
   -1.1072   -0.9146    0.5401 H   0  0  0  0  0  0  0  0  0  0  0  0
   -1.8344   -3.0511   -0.1719 H   0  0  0  0  0  0  0  0  0  0  0  0
   -0.5875   -3.0938   -1.4322 H   0  0  0  0  0  0  0  0  0  0  0  0
    0.4522   -5.0640   -0.3385 H   0  0  0  0  0  0  0  0  0  0  0  0
   -1.2015   -5.3614   -0.8480 H   0  0  0  0  0  0  0  0  0  0  0  0
   -1.9981   -5.0087    1.5110 H   0  0  0  0  0  0  0  0  0  0  0  0
   -0.3359   -4.7047    2.0208 H   0  0  0  0  0  0  0  0  0  0  0  0
   -0.8023   -6.3046    1.4339 H   0  0  0  0  0  0  0  0  0  0  0  0
  1  2  1  0
  1  6  1  0
  1  7  1  0
  1  8  1  0
  2  3  1  0
  2  9  1  0
  2 10  1  0
  3  4  1  0
  4  5  1  0
  4 11  1  0
  4 12  1  0
  5  6  1  0
  6 13  1  0
  6 14  1  0
 15 16  1  0
 15 21  1  0
 15 22  1  0
 16 17  1  0
 16 23  1  0
 16 24  1  0
 17 18  1  0
 18 19  1  0
 18 25  1  0
 18 26  1  0
 19 20  1  0
 19 27  1  0
 19 28  1  0
 20 29  1  0
 20 30  1  0
 20 31  1  0
M  RAD  1  15   2
M  END
>  <reaction>  (4) 
rmg_rxn_205

>  <mol_properties>  (4) 
{"0": {"label": "*1", "atom_type": "Cs"}, "1": {"label": "*0", "atom_type": "Cs"}, "6": {"label": "*2", "atom_type": "H0"}, "14": {"label": "*3", "atom_type": "Cs"}, "15": {"label": "*4", "atom_type": "Cs"}}

>  <type>  (4) 
ts

$$$$

     RDKit          3D

 31 30  0  0  0  0  0  0  0  0999 V2000
   -0.0393    1.4229   -1.1480 C   0  0  0  0  0  3  0  0  0  0  0  0
   -0.0393    1.4229   -2.6701 C   0  0  0  0  0  0  0  0  0  0  0  0
   -0.0393    2.7492   -3.1622 O   0  0  0  0  0  0  0  0  0  0  0  0
   -1.1221    3.4735   -2.6629 C   0  0  0  0  0  0  0  0  0  0  0  0
   -1.1108    3.5798   -1.2718 O   0  0  0  0  0  0  0  0  0  0  0  0
   -1.1787    2.3061   -0.6599 C   0  0  0  0  0  0  0  0  0  0  0  0
   -0.1769    0.2025   -0.6898 H   0  0  0  0  0  0  0  0  0  0  0  0
    0.9100    1.8214   -0.7850 H   0  0  0  0  0  0  0  0  0  0  0  0
    0.8465    0.9373   -3.0774 H   0  0  0  0  0  0  0  0  0  0  0  0
   -0.9268    0.8916   -3.0468 H   0  0  0  0  0  0  0  0  0  0  0  0
   -2.0647    2.9955   -2.9871 H   0  0  0  0  0  0  0  0  0  0  0  0
   -1.0498    4.4817   -3.0648 H   0  0  0  0  0  0  0  0  0  0  0  0
   -2.1464    1.8370   -0.8952 H   0  0  0  0  0  0  0  0  0  0  0  0
   -1.1334    2.4721    0.4155 H   0  0  0  0  0  0  0  0  0  0  0  0
   -0.3143   -1.0165   -0.2321 C   0  0  0  0  0  0  0  0  0  0  0  0
    0.8784   -1.3953    0.6150 C   0  0  0  0  0  0  0  0  0  0  0  0
    0.4340   -2.1324    1.7253 O   0  0  0  0  0  0  0  0  0  0  0  0
    1.4753   -2.5345    2.5791 C   0  0  0  0  0  0  0  0  0  0  0  0
    0.9026   -3.3519    3.7189 C   0  0  0  0  0  0  0  0  0  0  0  0
    0.2446   -4.6451    3.2566 C   0  0  0  0  0  0  0  0  0  0  0  0
   -0.8351   -1.9094   -0.5796 H   0  0  0  0  0  0  0  0  0  0  0  0
   -1.0154   -0.4115    0.3439 H   0  0  0  0  0  0  0  0  0  0  0  0
    1.4122   -0.4944    0.9521 H   0  0  0  0  0  0  0  0  0  0  0  0
    1.5916   -1.9938    0.0292 H   0  0  0  0  0  0  0  0  0  0  0  0
    2.2106   -3.1323    2.0176 H   0  0  0  0  0  0  0  0  0  0  0  0
    2.0020   -1.6516    2.9701 H   0  0  0  0  0  0  0  0  0  0  0  0
    0.1797   -2.7353    4.2593 H   0  0  0  0  0  0  0  0  0  0  0  0
    1.7155   -3.5718    4.4165 H   0  0  0  0  0  0  0  0  0  0  0  0
    0.9627   -5.2829    2.7351 H   0  0  0  0  0  0  0  0  0  0  0  0
   -0.5774   -4.4367    2.5719 H   0  0  0  0  0  0  0  0  0  0  0  0
   -0.1507   -5.2089    4.1029 H   0  0  0  0  0  0  0  0  0  0  0  0
  1  2  1  0
  1  6  1  0
  1  8  1  0
  2  3  1  0
  2  9  1  0
  2 10  1  0
  3  4  1  0
  4  5  1  0
  4 11  1  0
  4 12  1  0
  5  6  1  0
  6 13  1  0
  6 14  1  0
  7 15  1  0
 15 16  1  0
 15 21  1  0
 15 22  1  0
 16 17  1  0
 16 23  1  0
 16 24  1  0
 17 18  1  0
 18 19  1  0
 18 25  1  0
 18 26  1  0
 19 20  1  0
 19 27  1  0
 19 28  1  0
 20 29  1  0
 20 30  1  0
 20 31  1  0
M  RAD  1   1   2
M  END
>  <reaction>  (5) 
rmg_rxn_205

>  <mol_properties>  (5) 
{"0": {"label": "*1", "atom_type": "Cs"}, "1": {"label": "*0", "atom_type": "Cs"}, "6": {"label": "*2", "atom_type": "H0"}, "14": {"label": "*3", "atom_type": "Cs"}, "15": {"label": "*4", "atom_type": "Cs"}}

>  <type>  (5) 
unop_1

>  <geom_source>  (5) 
Heuristics

$$$$

     RDKit          3D

 31 30  0  0  0  0  0  0  0  0999 V2000
    0.0400    2.0037    0.1521 C   0  0  0  0  0  3  0  0  0  0  0  0
    0.0400    2.0037   -1.3700 C   0  0  0  0  0  0  0  0  0  0  0  0
    0.0400    3.3300   -1.8621 O   0  0  0  0  0  0  0  0  0  0  0  0
   -1.0427    4.0544   -1.3627 C   0  0  0  0  0  0  0  0  0  0  0  0
   -1.0315    4.1606    0.0283 O   0  0  0  0  0  0  0  0  0  0  0  0
   -1.0994    2.8869    0.6402 C   0  0  0  0  0  0  0  0  0  0  0  0
   -0.0975    0.7833    0.6103 H   0  0  0  0  0  0  0  0  0  0  0  0
    0.9894    2.4022    0.5151 H   0  0  0  0  0  0  0  0  0  0  0  0
    0.9258    1.5181   -1.7773 H   0  0  0  0  0  0  0  0  0  0  0  0
   -0.8475    1.4724   -1.7467 H   0  0  0  0  0  0  0  0  0  0  0  0
   -1.9853    3.5763   -1.6870 H   0  0  0  0  0  0  0  0  0  0  0  0
   -0.9705    5.0625   -1.7647 H   0  0  0  0  0  0  0  0  0  0  0  0
   -2.0670    2.4178    0.4049 H   0  0  0  0  0  0  0  0  0  0  0  0
   -1.0541    3.0529    1.7156 H   0  0  0  0  0  0  0  0  0  0  0  0
   -0.2349   -0.4357    1.0681 C   0  0  0  0  0  0  0  0  0  0  0  0
    0.3664   -1.4291    0.1010 C   0  0  0  0  0  0  0  0  0  0  0  0
    0.5854   -2.6438    0.7718 O   0  0  0  0  0  0  0  0  0  0  0  0
    1.1451   -3.6388   -0.0478 C   0  0  0  0  0  0  0  0  0  0  0  0
    1.3059   -4.9158    0.7515 C   0  0  0  0  0  0  0  0  0  0  0  0
   -0.0194   -5.4931    1.2305 C   0  0  0  0  0  0  0  0  0  0  0  0
   -1.1839   -0.8070    1.4565 H   0  0  0  0  0  0  0  0  0  0  0  0
    0.4382   -0.2658    1.9091 H   0  0  0  0  0  0  0  0  0  0  0  0
    1.3158   -1.0466   -0.3022 H   0  0  0  0  0  0  0  0  0  0  0  0
   -0.3070   -1.5893   -0.7540 H   0  0  0  0  0  0  0  0  0  0  0  0
    0.4941   -3.8173   -0.9183 H   0  0  0  0  0  0  0  0  0  0  0  0
    2.1199   -3.3040   -0.4317 H   0  0  0  0  0  0  0  0  0  0  0  0
    1.9567   -4.7110    1.6056 H   0  0  0  0  0  0  0  0  0  0  0  0
    1.8277   -5.6425    0.1227 H   0  0  0  0  0  0  0  0  0  0  0  0
   -0.6716   -5.7252    0.3848 H   0  0  0  0  0  0  0  0  0  0  0  0
   -0.5414   -4.7821    1.8708 H   0  0  0  0  0  0  0  0  0  0  0  0
    0.1347   -6.4130    1.7966 H   0  0  0  0  0  0  0  0  0  0  0  0
  1  2  1  0
  1  6  1  0
  1  8  1  0
  2  3  1  0
  2  9  1  0
  2 10  1  0
  3  4  1  0
  4  5  1  0
  4 11  1  0
  4 12  1  0
  5  6  1  0
  6 13  1  0
  6 14  1  0
  7 15  1  0
 15 16  1  0
 15 21  1  0
 15 22  1  0
 16 17  1  0
 16 23  1  0
 16 24  1  0
 17 18  1  0
 18 19  1  0
 18 25  1  0
 18 26  1  0
 19 20  1  0
 19 27  1  0
 19 28  1  0
 20 29  1  0
 20 30  1  0
 20 31  1  0
M  RAD  1   1   2
M  END
>  <reaction>  (6) 
rmg_rxn_205

>  <mol_properties>  (6) 
{"0": {"label": "*1", "atom_type": "Cs"}, "1": {"label": "*0", "atom_type": "Cs"}, "6": {"label": "*2", "atom_type": "H0"}, "14": {"label": "*3", "atom_type": "Cs"}, "15": {"label": "*4", "atom_type": "Cs"}}

>  <type>  (6) 
unop_2

>  <geom_source>  (6) 
Heuristics

$$$$

     RDKit          3D

 31 30  0  0  0  0  0  0  0  0999 V2000
    0.3158    1.4133   -1.2417 C   0  0  0  0  0  3  0  0  0  0  0  0
    0.3158    1.4133   -2.7637 C   0  0  0  0  0  0  0  0  0  0  0  0
    0.3158    2.7397   -3.2558 O   0  0  0  0  0  0  0  0  0  0  0  0
   -0.7670    3.4640   -2.7565 C   0  0  0  0  0  0  0  0  0  0  0  0
   -0.7557    3.5703   -1.3654 O   0  0  0  0  0  0  0  0  0  0  0  0
   -0.8236    2.2965   -0.7536 C   0  0  0  0  0  0  0  0  0  0  0  0
    0.1783    0.1929   -0.7834 H   0  0  0  0  0  0  0  0  0  0  0  0
    1.2651    1.8118   -0.8787 H   0  0  0  0  0  0  0  0  0  0  0  0
    1.2016    0.9278   -3.1710 H   0  0  0  0  0  0  0  0  0  0  0  0
   -0.5717    0.8820   -3.1404 H   0  0  0  0  0  0  0  0  0  0  0  0
   -1.7096    2.9859   -3.0807 H   0  0  0  0  0  0  0  0  0  0  0  0
   -0.6947    4.4721   -3.1585 H   0  0  0  0  0  0  0  0  0  0  0  0
   -1.7913    1.8274   -0.9889 H   0  0  0  0  0  0  0  0  0  0  0  0
   -0.7783    2.4625    0.3219 H   0  0  0  0  0  0  0  0  0  0  0  0
    0.0408   -1.0261   -0.3257 C   0  0  0  0  0  0  0  0  0  0  0  0
    0.7383   -1.1665    1.0075 C   0  0  0  0  0  0  0  0  0  0  0  0
    0.0882   -2.1586    1.7604 O   0  0  0  0  0  0  0  0  0  0  0  0
    0.6662   -2.3659    3.0244 C   0  0  0  0  0  0  0  0  0  0  0  0
   -0.0766   -3.4754    3.7403 C   0  0  0  0  0  0  0  0  0  0  0  0
    0.0252   -4.8189    3.0305 C   0  0  0  0  0  0  0  0  0  0  0  0
    0.0702   -1.9687   -0.8734 H   0  0  0  0  0  0  0  0  0  0  0  0
   -1.0027   -0.7433   -0.1831 H   0  0  0  0  0  0  0  0  0  0  0  0
    0.7219   -0.2110    1.5525 H   0  0  0  0  0  0  0  0  0  0  0  0
    1.7943   -1.4381    0.8623 H   0  0  0  0  0  0  0  0  0  0  0  0
    1.7286   -2.6341    2.9113 H   0  0  0  0  0  0  0  0  0  0  0  0
    0.6243   -1.4376    3.6129 H   0  0  0  0  0  0  0  0  0  0  0  0
   -1.1249   -3.1826    3.8409 H   0  0  0  0  0  0  0  0  0  0  0  0
    0.3293   -3.5530    4.7527 H   0  0  0  0  0  0  0  0  0  0  0  0
    1.0676   -5.1359    2.9441 H   0  0  0  0  0  0  0  0  0  0  0  0
   -0.3904   -4.7568    2.0248 H   0  0  0  0  0  0  0  0  0  0  0  0
   -0.5158   -5.5933    3.5762 H   0  0  0  0  0  0  0  0  0  0  0  0
  1  2  1  0
  1  6  1  0
  1  8  1  0
  2  3  1  0
  2  9  1  0
  2 10  1  0
  3  4  1  0
  4  5  1  0
  4 11  1  0
  4 12  1  0
  5  6  1  0
  6 13  1  0
  6 14  1  0
  7 15  1  0
 15 16  1  0
 15 21  1  0
 15 22  1  0
 16 17  1  0
 16 23  1  0
 16 24  1  0
 17 18  1  0
 18 19  1  0
 18 25  1  0
 18 26  1  0
 19 20  1  0
 19 27  1  0
 19 28  1  0
 20 29  1  0
 20 30  1  0
 20 31  1  0
M  RAD  1   1   2
M  END
>  <reaction>  (7) 
rmg_rxn_205

>  <mol_properties>  (7) 
{"0": {"label": "*1", "atom_type": "Cs"}, "1": {"label": "*0", "atom_type": "Cs"}, "6": {"label": "*2", "atom_type": "H0"}, "14": {"label": "*3", "atom_type": "Cs"}, "15": {"label": "*4", "atom_type": "Cs"}}

>  <type>  (7) 
unop_3

>  <geom_source>  (7) 
Heuristics

$$$$

     RDKit          3D

 31 30  0  0  0  0  0  0  0  0999 V2000
    1.5297    1.4557   -0.3934 C   0  0  0  0  0  3  0  0  0  0  0  0
    1.5297    1.4557   -1.9154 C   0  0  0  0  0  0  0  0  0  0  0  0
    1.5297    2.7820   -2.4075 O   0  0  0  0  0  0  0  0  0  0  0  0
    0.4469    3.5064   -1.9082 C   0  0  0  0  0  0  0  0  0  0  0  0
    0.4582    3.6126   -0.5172 O   0  0  0  0  0  0  0  0  0  0  0  0
    0.3903    2.3389    0.0947 C   0  0  0  0  0  0  0  0  0  0  0  0
    1.3921    0.2353    0.0648 H   0  0  0  0  0  0  0  0  0  0  0  0
    2.4790    1.8542   -0.0304 H   0  0  0  0  0  0  0  0  0  0  0  0
    2.4155    0.9702   -2.3228 H   0  0  0  0  0  0  0  0  0  0  0  0
    0.6422    0.9244   -2.2922 H   0  0  0  0  0  0  0  0  0  0  0  0
   -0.4957    3.0283   -2.2324 H   0  0  0  0  0  0  0  0  0  0  0  0
    0.5192    4.5145   -2.3102 H   0  0  0  0  0  0  0  0  0  0  0  0
   -0.5774    1.8698   -0.1406 H   0  0  0  0  0  0  0  0  0  0  0  0
    0.4356    2.5049    1.1702 H   0  0  0  0  0  0  0  0  0  0  0  0
    1.2547   -0.9837    0.5226 C   0  0  0  0  0  0  0  0  0  0  0  0
   -0.0478   -1.5799    0.0416 C   0  0  0  0  0  0  0  0  0  0  0  0
   -0.5307   -2.4684    1.0168 O   0  0  0  0  0  0  0  0  0  0  0  0
   -1.7463   -3.0775    0.6614 C   0  0  0  0  0  0  0  0  0  0  0  0
   -2.2025   -3.9825    1.7875 C   0  0  0  0  0  0  0  0  0  0  0  0
   -2.4965   -3.2300    3.0784 C   0  0  0  0  0  0  0  0  0  0  0  0
    1.1052   -0.4429    1.4577 H   0  0  0  0  0  0  0  0  0  0  0  0
    1.9939   -1.7673    0.6927 H   0  0  0  0  0  0  0  0  0  0  0  0
    0.1010   -2.1119   -0.9098 H   0  0  0  0  0  0  0  0  0  0  0  0
   -0.7883   -0.7877   -0.1431 H   0  0  0  0  0  0  0  0  0  0  0  0
   -2.5080   -2.3068    0.4637 H   0  0  0  0  0  0  0  0  0  0  0  0
   -1.6189   -3.6564   -0.2652 H   0  0  0  0  0  0  0  0  0  0  0  0
   -1.4310   -4.7373    1.9605 H   0  0  0  0  0  0  0  0  0  0  0  0
   -3.0963   -4.5145    1.4501 H   0  0  0  0  0  0  0  0  0  0  0  0
   -3.2838   -2.4875    2.9259 H   0  0  0  0  0  0  0  0  0  0  0  0
   -1.6075   -2.7077    3.4319 H   0  0  0  0  0  0  0  0  0  0  0  0
   -2.8268   -3.9115    3.8637 H   0  0  0  0  0  0  0  0  0  0  0  0
  1  2  1  0
  1  6  1  0
  1  8  1  0
  2  3  1  0
  2  9  1  0
  2 10  1  0
  3  4  1  0
  4  5  1  0
  4 11  1  0
  4 12  1  0
  5  6  1  0
  6 13  1  0
  6 14  1  0
  7 15  1  0
 15 16  1  0
 15 21  1  0
 15 22  1  0
 16 17  1  0
 16 23  1  0
 16 24  1  0
 17 18  1  0
 18 19  1  0
 18 25  1  0
 18 26  1  0
 19 20  1  0
 19 27  1  0
 19 28  1  0
 20 29  1  0
 20 30  1  0
 20 31  1  0
M  RAD  1   1   2
M  END
>  <reaction>  (8) 
rmg_rxn_205

>  <mol_properties>  (8) 
{"0": {"label": "*1", "atom_type": "Cs"}, "1": {"label": "*0", "atom_type": "Cs"}, "6": {"label": "*2", "atom_type": "H0"}, "14": {"label": "*3", "atom_type": "Cs"}, "15": {"label": "*4", "atom_type": "Cs"}}

>  <type>  (8) 
unop_4

>  <geom_source>  (8) 
Heuristics

$$$$

     RDKit          3D

 31 30  0  0  0  0  0  0  0  0999 V2000
    0.3903    1.4513   -1.2211 C   0  0  0  0  0  3  0  0  0  0  0  0
    0.3903    1.4513   -2.7431 C   0  0  0  0  0  0  0  0  0  0  0  0
    0.3903    2.7777   -3.2352 O   0  0  0  0  0  0  0  0  0  0  0  0
   -0.6925    3.5020   -2.7359 C   0  0  0  0  0  0  0  0  0  0  0  0
   -0.6812    3.6083   -1.3448 O   0  0  0  0  0  0  0  0  0  0  0  0
   -0.7491    2.3346   -0.7330 C   0  0  0  0  0  0  0  0  0  0  0  0
    0.2528    0.2310   -0.7628 H   0  0  0  0  0  0  0  0  0  0  0  0
    1.3397    1.8498   -0.8581 H   0  0  0  0  0  0  0  0  0  0  0  0
    1.2761    0.9658   -3.1504 H   0  0  0  0  0  0  0  0  0  0  0  0
   -0.4972    0.9201   -3.1198 H   0  0  0  0  0  0  0  0  0  0  0  0
   -1.6351    3.0239   -3.0601 H   0  0  0  0  0  0  0  0  0  0  0  0
   -0.6202    4.5102   -3.1379 H   0  0  0  0  0  0  0  0  0  0  0  0
   -1.7168    1.8655   -0.9683 H   0  0  0  0  0  0  0  0  0  0  0  0
   -0.7038    2.5006    0.3425 H   0  0  0  0  0  0  0  0  0  0  0  0
    0.1154   -0.9881   -0.3051 C   0  0  0  0  0  0  0  0  0  0  0  0
    0.1159   -0.9831    1.2060 C   0  0  0  0  0  0  0  0  0  0  0  0
   -0.0335   -2.3018    1.6668 O   0  0  0  0  0  0  0  0  0  0  0  0
   -0.0441   -2.4036    3.0684 C   0  0  0  0  0  0  0  0  0  0  0  0
   -0.1693   -3.8604    3.4650 C   0  0  0  0  0  0  0  0  0  0  0  0
    1.0127   -4.7076    3.0130 C   0  0  0  0  0  0  0  0  0  0  0  0
    0.9369   -1.5960   -0.6855 H   0  0  0  0  0  0  0  0  0  0  0  0
   -0.8209   -1.3980   -0.6855 H   0  0  0  0  0  0  0  0  0  0  0  0
   -0.7036   -0.3569    1.5887 H   0  0  0  0  0  0  0  0  0  0  0  0
    1.0549   -0.5566    1.5888 H   0  0  0  0  0  0  0  0  0  0  0  0
    0.8837   -1.9777    3.4821 H   0  0  0  0  0  0  0  0  0  0  0  0
   -0.8825   -1.8229    3.4803 H   0  0  0  0  0  0  0  0  0  0  0  0
   -1.0973   -4.2561    3.0444 H   0  0  0  0  0  0  0  0  0  0  0  0
   -0.2701   -3.9051    4.5530 H   0  0  0  0  0  0  0  0  0  0  0  0
    1.9455   -4.3374    3.4457 H   0  0  0  0  0  0  0  0  0  0  0  0
    1.1135   -4.6821    1.9280 H   0  0  0  0  0  0  0  0  0  0  0  0
    0.8908   -5.7473    3.3202 H   0  0  0  0  0  0  0  0  0  0  0  0
  1  2  1  0
  1  6  1  0
  1  8  1  0
  2  3  1  0
  2  9  1  0
  2 10  1  0
  3  4  1  0
  4  5  1  0
  4 11  1  0
  4 12  1  0
  5  6  1  0
  6 13  1  0
  6 14  1  0
  7 15  1  0
 15 16  1  0
 15 21  1  0
 15 22  1  0
 16 17  1  0
 16 23  1  0
 16 24  1  0
 17 18  1  0
 18 19  1  0
 18 25  1  0
 18 26  1  0
 19 20  1  0
 19 27  1  0
 19 28  1  0
 20 29  1  0
 20 30  1  0
 20 31  1  0
M  RAD  1   1   2
M  END
>  <reaction>  (9) 
rmg_rxn_205

>  <mol_properties>  (9) 
{"0": {"label": "*1", "atom_type": "Cs"}, "1": {"label": "*0", "atom_type": "Cs"}, "6": {"label": "*2", "atom_type": "H0"}, "14": {"label": "*3", "atom_type": "Cs"}, "15": {"label": "*4", "atom_type": "Cs"}}

>  <type>  (9) 
unop_5

>  <geom_source>  (9) 
Heuristics

$$$$

     RDKit          3D

 31 30  0  0  0  0  0  0  0  0999 V2000
    1.3898    1.2042   -0.9156 C   0  0  0  0  0  3  0  0  0  0  0  0
    1.3898    1.2042   -2.4376 C   0  0  0  0  0  0  0  0  0  0  0  0
    1.3898    2.5305   -2.9297 O   0  0  0  0  0  0  0  0  0  0  0  0
    0.3070    3.2549   -2.4304 C   0  0  0  0  0  0  0  0  0  0  0  0
    0.3182    3.3611   -1.0393 O   0  0  0  0  0  0  0  0  0  0  0  0
    0.2504    2.0874   -0.4275 C   0  0  0  0  0  0  0  0  0  0  0  0
    1.2522   -0.0162   -0.4573 H   0  0  0  0  0  0  0  0  0  0  0  0
    2.3391    1.6027   -0.5525 H   0  0  0  0  0  0  0  0  0  0  0  0
    2.2755    0.7186   -2.8449 H   0  0  0  0  0  0  0  0  0  0  0  0
    0.5022    0.6729   -2.8143 H   0  0  0  0  0  0  0  0  0  0  0  0
   -0.6356    2.7768   -2.7546 H   0  0  0  0  0  0  0  0  0  0  0  0
    0.3792    4.2630   -2.8324 H   0  0  0  0  0  0  0  0  0  0  0  0
   -0.7173    1.6183   -0.6628 H   0  0  0  0  0  0  0  0  0  0  0  0
    0.2956    2.2534    0.6480 H   0  0  0  0  0  0  0  0  0  0  0  0
    1.1148   -1.2352    0.0004 C   0  0  0  0  0  0  0  0  0  0  0  0
   -0.3487   -1.5639    0.1835 C   0  0  0  0  0  0  0  0  0  0  0  0
   -0.5045   -2.3123    1.3622 O   0  0  0  0  0  0  0  0  0  0  0  0
   -1.8387   -2.6685    1.6228 C   0  0  0  0  0  0  0  0  0  0  0  0
   -1.9079   -3.4349    2.9278 C   0  0  0  0  0  0  0  0  0  0  0  0
   -1.4739   -2.6085    4.1311 C   0  0  0  0  0  0  0  0  0  0  0  0
    1.4845   -0.6537    0.8458 H   0  0  0  0  0  0  0  0  0  0  0  0
    1.7054   -2.1490   -0.0731 H   0  0  0  0  0  0  0  0  0  0  0  0
   -0.7246   -2.1370   -0.6771 H   0  0  0  0  0  0  0  0  0  0  0  0
   -0.9454   -0.6417    0.2436 H   0  0  0  0  0  0  0  0  0  0  0  0
   -2.4635   -1.7633    1.6826 H   0  0  0  0  0  0  0  0  0  0  0  0
   -2.2308   -3.2825    0.7988 H   0  0  0  0  0  0  0  0  0  0  0  0
   -1.2825   -4.3271    2.8400 H   0  0  0  0  0  0  0  0  0  0  0  0
   -2.9367   -3.7810    3.0603 H   0  0  0  0  0  0  0  0  0  0  0  0
   -2.1065   -1.7247    4.2454 H   0  0  0  0  0  0  0  0  0  0  0  0
   -0.4440   -2.2707    4.0163 H   0  0  0  0  0  0  0  0  0  0  0  0
   -1.5417   -3.1899    5.0518 H   0  0  0  0  0  0  0  0  0  0  0  0
  1  2  1  0
  1  6  1  0
  1  8  1  0
  2  3  1  0
  2  9  1  0
  2 10  1  0
  3  4  1  0
  4  5  1  0
  4 11  1  0
  4 12  1  0
  5  6  1  0
  6 13  1  0
  6 14  1  0
  7 15  1  0
 15 16  1  0
 15 21  1  0
 15 22  1  0
 16 17  1  0
 16 23  1  0
 16 24  1  0
 17 18  1  0
 18 19  1  0
 18 25  1  0
 18 26  1  0
 19 20  1  0
 19 27  1  0
 19 28  1  0
 20 29  1  0
 20 30  1  0
 20 31  1  0
M  RAD  1   1   2
M  END
>  <reaction>  (10) 
rmg_rxn_205

>  <mol_properties>  (10) 
{"0": {"label": "*1", "atom_type": "Cs"}, "1": {"label": "*0", "atom_type": "Cs"}, "6": {"label": "*2", "atom_type": "H0"}, "14": {"label": "*3", "atom_type": "Cs"}, "15": {"label": "*4", "atom_type": "Cs"}}

>  <type>  (10) 
unop_6

>  <geom_source>  (10) 
Heuristics

$$$$

     RDKit          3D

 31 30  0  0  0  0  0  0  0  0999 V2000
    0.9654    1.1172   -1.2683 C   0  0  0  0  0  3  0  0  0  0  0  0
    0.9654    1.1172   -2.7903 C   0  0  0  0  0  0  0  0  0  0  0  0
    0.9654    2.4435   -3.2824 O   0  0  0  0  0  0  0  0  0  0  0  0
   -0.1174    3.1679   -2.7831 C   0  0  0  0  0  0  0  0  0  0  0  0
   -0.1061    3.2742   -1.3921 O   0  0  0  0  0  0  0  0  0  0  0  0
   -0.1740    2.0004   -0.7802 C   0  0  0  0  0  0  0  0  0  0  0  0
    0.8279   -0.1032   -0.8101 H   0  0  0  0  0  0  0  0  0  0  0  0
    1.9148    1.5157   -0.9053 H   0  0  0  0  0  0  0  0  0  0  0  0
    1.8512    0.6317   -3.1977 H   0  0  0  0  0  0  0  0  0  0  0  0
    0.0779    0.5859   -3.1671 H   0  0  0  0  0  0  0  0  0  0  0  0
   -1.0600    2.6898   -3.1073 H   0  0  0  0  0  0  0  0  0  0  0  0
   -0.0451    4.1760   -3.1851 H   0  0  0  0  0  0  0  0  0  0  0  0
   -1.1416    1.5313   -1.0155 H   0  0  0  0  0  0  0  0  0  0  0  0
   -0.1287    2.1664    0.2953 H   0  0  0  0  0  0  0  0  0  0  0  0
    0.6905   -1.3222   -0.3523 C   0  0  0  0  0  0  0  0  0  0  0  0
   -0.5566   -1.4260    0.4948 C   0  0  0  0  0  0  0  0  0  0  0  0
   -0.2878   -2.2447    1.6043 O   0  0  0  0  0  0  0  0  0  0  0  0
   -1.3920   -2.4036    2.4590 C   0  0  0  0  0  0  0  0  0  0  0  0
   -0.9934   -3.2657    3.6393 C   0  0  0  0  0  0  0  0  0  0  0  0
    0.0910   -2.6345    4.5024 C   0  0  0  0  0  0  0  0  0  0  0  0
    1.5086   -0.8883    0.2236 H   0  0  0  0  0  0  0  0  0  0  0  0
    0.9996   -2.3086   -0.6998 H   0  0  0  0  0  0  0  0  0  0  0  0
   -1.3856   -1.8492   -0.0917 H   0  0  0  0  0  0  0  0  0  0  0  0
   -0.8756   -0.4291    0.8332 H   0  0  0  0  0  0  0  0  0  0  0  0
   -1.7388   -1.4188    2.8103 H   0  0  0  0  0  0  0  0  0  0  0  0
   -2.2259   -2.8678    1.9122 H   0  0  0  0  0  0  0  0  0  0  0  0
   -0.6566   -4.2351    3.2630 H   0  0  0  0  0  0  0  0  0  0  0  0
   -1.8896   -3.4519    4.2375 H   0  0  0  0  0  0  0  0  0  0  0  0
   -0.2414   -1.6745    4.9054 H   0  0  0  0  0  0  0  0  0  0  0  0
    0.9947   -2.4581    3.9192 H   0  0  0  0  0  0  0  0  0  0  0  0
    0.3482   -3.2796    5.3438 H   0  0  0  0  0  0  0  0  0  0  0  0
  1  2  1  0
  1  6  1  0
  1  8  1  0
  2  3  1  0
  2  9  1  0
  2 10  1  0
  3  4  1  0
  4  5  1  0
  4 11  1  0
  4 12  1  0
  5  6  1  0
  6 13  1  0
  6 14  1  0
  7 15  1  0
 15 16  1  0
 15 21  1  0
 15 22  1  0
 16 17  1  0
 16 23  1  0
 16 24  1  0
 17 18  1  0
 18 19  1  0
 18 25  1  0
 18 26  1  0
 19 20  1  0
 19 27  1  0
 19 28  1  0
 20 29  1  0
 20 30  1  0
 20 31  1  0
M  RAD  1   1   2
M  END
>  <reaction>  (11) 
rmg_rxn_205

>  <mol_properties>  (11) 
{"0": {"label": "*1", "atom_type": "Cs"}, "1": {"label": "*0", "atom_type": "Cs"}, "6": {"label": "*2", "atom_type": "H0"}, "14": {"label": "*3", "atom_type": "Cs"}, "15": {"label": "*4", "atom_type": "Cs"}}

>  <type>  (11) 
unop_7

>  <geom_source>  (11) 
Heuristics

$$$$

     RDKit          3D

 31 30  0  0  0  0  0  0  0  0999 V2000
   -0.3388    1.5905   -0.7959 C   0  0  0  0  0  3  0  0  0  0  0  0
   -0.3388    1.5905   -2.3179 C   0  0  0  0  0  0  0  0  0  0  0  0
   -0.3388    2.9168   -2.8100 O   0  0  0  0  0  0  0  0  0  0  0  0
   -1.4216    3.6412   -2.3107 C   0  0  0  0  0  0  0  0  0  0  0  0
   -1.4103    3.7474   -0.9197 O   0  0  0  0  0  0  0  0  0  0  0  0
   -1.4782    2.4737   -0.3078 C   0  0  0  0  0  0  0  0  0  0  0  0
   -0.4763    0.3701   -0.3376 H   0  0  0  0  0  0  0  0  0  0  0  0
    0.6106    1.9890   -0.4329 H   0  0  0  0  0  0  0  0  0  0  0  0
    0.5470    1.1050   -2.7253 H   0  0  0  0  0  0  0  0  0  0  0  0
   -1.2263    1.0592   -2.6947 H   0  0  0  0  0  0  0  0  0  0  0  0
   -2.3642    3.1631   -2.6349 H   0  0  0  0  0  0  0  0  0  0  0  0
   -1.3493    4.6493   -2.7127 H   0  0  0  0  0  0  0  0  0  0  0  0
   -2.4458    2.0046   -0.5431 H   0  0  0  0  0  0  0  0  0  0  0  0
   -1.4329    2.6397    0.7677 H   0  0  0  0  0  0  0  0  0  0  0  0
   -0.6137   -0.8489    0.1201 C   0  0  0  0  0  0  0  0  0  0  0  0
    0.7399   -1.4952    0.3031 C   0  0  0  0  0  0  0  0  0  0  0  0
    0.7256   -2.2582    1.4826 O   0  0  0  0  0  0  0  0  0  0  0  0
    1.9465   -2.9039    1.7424 C   0  0  0  0  0  0  0  0  0  0  0  0
    1.8193   -3.7282    3.0071 C   0  0  0  0  0  0  0  0  0  0  0  0
    0.7933   -4.8476    2.8915 C   0  0  0  0  0  0  0  0  0  0  0  0
   -1.3929   -1.6084    0.0464 H   0  0  0  0  0  0  0  0  0  0  0  0
   -0.8447   -0.1998    0.9655 H   0  0  0  0  0  0  0  0  0  0  0  0
    1.5271   -0.7288    0.3616 H   0  0  0  0  0  0  0  0  0  0  0  0
    0.9781   -2.1388   -0.5565 H   0  0  0  0  0  0  0  0  0  0  0  0
    2.2152   -3.5528    0.8938 H   0  0  0  0  0  0  0  0  0  0  0  0
    2.7488   -2.1594    1.8515 H   0  0  0  0  0  0  0  0  0  0  0  0
    1.5552   -3.0607    3.8314 H   0  0  0  0  0  0  0  0  0  0  0  0
    2.8044   -4.1430    3.2385 H   0  0  0  0  0  0  0  0  0  0  0  0
    1.0580   -5.5370    2.0858 H   0  0  0  0  0  0  0  0  0  0  0  0
   -0.1958   -4.4439    2.6755 H   0  0  0  0  0  0  0  0  0  0  0  0
    0.7329   -5.4221    3.8170 H   0  0  0  0  0  0  0  0  0  0  0  0
  1  2  1  0
  1  6  1  0
  1  8  1  0
  2  3  1  0
  2  9  1  0
  2 10  1  0
  3  4  1  0
  4  5  1  0
  4 11  1  0
  4 12  1  0
  5  6  1  0
  6 13  1  0
  6 14  1  0
  7 15  1  0
 15 16  1  0
 15 21  1  0
 15 22  1  0
 16 17  1  0
 16 23  1  0
 16 24  1  0
 17 18  1  0
 18 19  1  0
 18 25  1  0
 18 26  1  0
 19 20  1  0
 19 27  1  0
 19 28  1  0
 20 29  1  0
 20 30  1  0
 20 31  1  0
M  RAD  1   1   2
M  END
>  <reaction>  (12) 
rmg_rxn_205

>  <mol_properties>  (12) 
{"0": {"label": "*1", "atom_type": "Cs"}, "1": {"label": "*0", "atom_type": "Cs"}, "6": {"label": "*2", "atom_type": "H0"}, "14": {"label": "*3", "atom_type": "Cs"}, "15": {"label": "*4", "atom_type": "Cs"}}

>  <type>  (12) 
unop_8

>  <geom_source>  (12) 
Heuristics

$$$$

     RDKit          3D

 31 30  0  0  0  0  0  0  0  0999 V2000
    1.2739    1.7703    0.0931 C   0  0  0  0  0  3  0  0  0  0  0  0
    1.2739    1.7703   -1.4289 C   0  0  0  0  0  0  0  0  0  0  0  0
    1.2739    3.0967   -1.9210 O   0  0  0  0  0  0  0  0  0  0  0  0
    0.1911    3.8210   -1.4217 C   0  0  0  0  0  0  0  0  0  0  0  0
    0.2024    3.9273   -0.0306 O   0  0  0  0  0  0  0  0  0  0  0  0
    0.1345    2.6535    0.5812 C   0  0  0  0  0  0  0  0  0  0  0  0
    1.1363    0.5499    0.5514 H   0  0  0  0  0  0  0  0  0  0  0  0
    2.2232    2.1688    0.4561 H   0  0  0  0  0  0  0  0  0  0  0  0
    2.1597    1.2848   -1.8362 H   0  0  0  0  0  0  0  0  0  0  0  0
    0.3864    1.2390   -1.8056 H   0  0  0  0  0  0  0  0  0  0  0  0
   -0.7515    3.3429   -1.7459 H   0  0  0  0  0  0  0  0  0  0  0  0
    0.2634    4.8291   -1.8237 H   0  0  0  0  0  0  0  0  0  0  0  0
   -0.8332    2.1844    0.3459 H   0  0  0  0  0  0  0  0  0  0  0  0
    0.1798    2.8195    1.6567 H   0  0  0  0  0  0  0  0  0  0  0  0
    0.9989   -0.6691    1.0091 C   0  0  0  0  0  0  0  0  0  0  0  0
    0.1916   -1.5037    0.0420 C   0  0  0  0  0  0  0  0  0  0  0  0
   -0.2911   -2.6400    0.7124 O   0  0  0  0  0  0  0  0  0  0  0  0
   -1.0597   -3.4845   -0.1067 C   0  0  0  0  0  0  0  0  0  0  0  0
   -1.5647   -4.6547    0.7125 C   0  0  0  0  0  0  0  0  0  0  0  0
   -2.4981   -4.2369    1.8410 C   0  0  0  0  0  0  0  0  0  0  0  0
    0.3805   -0.3535    1.8501 H   0  0  0  0  0  0  0  0  0  0  0  0
    1.8414   -1.2423    1.3976 H   0  0  0  0  0  0  0  0  0  0  0  0
    0.8122   -1.8083   -0.8138 H   0  0  0  0  0  0  0  0  0  0  0  0
   -0.6498   -0.9202   -0.3599 H   0  0  0  0  0  0  0  0  0  0  0  0
   -1.9089   -2.9249   -0.5298 H   0  0  0  0  0  0  0  0  0  0  0  0
   -0.4520   -3.8437   -0.9502 H   0  0  0  0  0  0  0  0  0  0  0  0
   -0.7035   -5.1924    1.1174 H   0  0  0  0  0  0  0  0  0  0  0  0
   -2.0780   -5.3427    0.0349 H   0  0  0  0  0  0  0  0  0  0  0  0
   -3.3765   -3.7185    1.4484 H   0  0  0  0  0  0  0  0  0  0  0  0
   -1.9916   -3.5621    2.5311 H   0  0  0  0  0  0  0  0  0  0  0  0
   -2.8453   -5.1040    2.4047 H   0  0  0  0  0  0  0  0  0  0  0  0
  1  2  1  0
  1  6  1  0
  1  8  1  0
  2  3  1  0
  2  9  1  0
  2 10  1  0
  3  4  1  0
  4  5  1  0
  4 11  1  0
  4 12  1  0
  5  6  1  0
  6 13  1  0
  6 14  1  0
  7 15  1  0
 15 16  1  0
 15 21  1  0
 15 22  1  0
 16 17  1  0
 16 23  1  0
 16 24  1  0
 17 18  1  0
 18 19  1  0
 18 25  1  0
 18 26  1  0
 19 20  1  0
 19 27  1  0
 19 28  1  0
 20 29  1  0
 20 30  1  0
 20 31  1  0
M  RAD  1   1   2
M  END
>  <reaction>  (13) 
rmg_rxn_205

>  <mol_properties>  (13) 
{"0": {"label": "*1", "atom_type": "Cs"}, "1": {"label": "*0", "atom_type": "Cs"}, "6": {"label": "*2", "atom_type": "H0"}, "14": {"label": "*3", "atom_type": "Cs"}, "15": {"label": "*4", "atom_type": "Cs"}}

>  <type>  (13) 
unop_9

>  <geom_source>  (13) 
Heuristics

$$$$

     RDKit          3D

 31 30  0  0  0  0  0  0  0  0999 V2000
   -0.3394    1.8258   -0.2938 C   0  0  0  0  0  3  0  0  0  0  0  0
   -0.3394    1.8258   -1.8158 C   0  0  0  0  0  0  0  0  0  0  0  0
   -0.3394    3.1521   -2.3079 O   0  0  0  0  0  0  0  0  0  0  0  0
   -1.4222    3.8765   -1.8086 C   0  0  0  0  0  0  0  0  0  0  0  0
   -1.4109    3.9827   -0.4175 O   0  0  0  0  0  0  0  0  0  0  0  0
   -1.4788    2.7090    0.1943 C   0  0  0  0  0  0  0  0  0  0  0  0
   -0.4769    0.6054    0.1645 H   0  0  0  0  0  0  0  0  0  0  0  0
    0.6100    2.2243    0.0692 H   0  0  0  0  0  0  0  0  0  0  0  0
    0.5464    1.3402   -2.2231 H   0  0  0  0  0  0  0  0  0  0  0  0
   -1.2269    1.2945   -2.1925 H   0  0  0  0  0  0  0  0  0  0  0  0
   -2.3648    3.3984   -2.1328 H   0  0  0  0  0  0  0  0  0  0  0  0
   -1.3499    4.8846   -2.2106 H   0  0  0  0  0  0  0  0  0  0  0  0
   -2.4465    2.2399   -0.0410 H   0  0  0  0  0  0  0  0  0  0  0  0
   -1.4335    2.8750    1.2698 H   0  0  0  0  0  0  0  0  0  0  0  0
   -0.6144   -0.6136    0.6222 C   0  0  0  0  0  0  0  0  0  0  0  0
    0.5228   -1.4848    0.1412 C   0  0  0  0  0  0  0  0  0  0  0  0
    0.7968   -2.4575    1.1171 O   0  0  0  0  0  0  0  0  0  0  0  0
    1.8451   -3.3231    0.7609 C   0  0  0  0  0  0  0  0  0  0  0  0
    2.0375   -4.3548    1.8535 C   0  0  0  0  0  0  0  0  0  0  0  0
    0.8250   -5.2558    2.0463 C   0  0  0  0  0  0  0  0  0  0  0  0
   -1.5094   -1.2130    0.7922 H   0  0  0  0  0  0  0  0  0  0  0  0
   -0.3482   -0.1198    1.5574 H   0  0  0  0  0  0  0  0  0  0  0  0
    1.4206   -0.8769   -0.0450 H   0  0  0  0  0  0  0  0  0  0  0  0
    0.2588   -1.9716   -0.8092 H   0  0  0  0  0  0  0  0  0  0  0  0
    1.6115   -3.8220   -0.1930 H   0  0  0  0  0  0  0  0  0  0  0  0
    2.7713   -2.7489    0.6113 H   0  0  0  0  0  0  0  0  0  0  0  0
    2.2700   -3.8338    2.7859 H   0  0  0  0  0  0  0  0  0  0  0  0
    2.9155   -4.9548    1.5985 H   0  0  0  0  0  0  0  0  0  0  0  0
    0.5954   -5.8018    1.1279 H   0  0  0  0  0  0  0  0  0  0  0  0
   -0.0531   -4.6690    2.3156 H   0  0  0  0  0  0  0  0  0  0  0  0
    1.0015   -5.9881    2.8356 H   0  0  0  0  0  0  0  0  0  0  0  0
  1  2  1  0
  1  6  1  0
  1  8  1  0
  2  3  1  0
  2  9  1  0
  2 10  1  0
  3  4  1  0
  4  5  1  0
  4 11  1  0
  4 12  1  0
  5  6  1  0
  6 13  1  0
  6 14  1  0
  7 15  1  0
 15 16  1  0
 15 21  1  0
 15 22  1  0
 16 17  1  0
 16 23  1  0
 16 24  1  0
 17 18  1  0
 18 19  1  0
 18 25  1  0
 18 26  1  0
 19 20  1  0
 19 27  1  0
 19 28  1  0
 20 29  1  0
 20 30  1  0
 20 31  1  0
M  RAD  1   1   2
M  END
>  <reaction>  (14) 
rmg_rxn_205

>  <mol_properties>  (14) 
{"0": {"label": "*1", "atom_type": "Cs"}, "1": {"label": "*0", "atom_type": "Cs"}, "6": {"label": "*2", "atom_type": "H0"}, "14": {"label": "*3", "atom_type": "Cs"}, "15": {"label": "*4", "atom_type": "Cs"}}

>  <type>  (14) 
unop_10

>  <geom_source>  (14) 
Heuristics

$$$$

     RDKit          3D

 31 30  0  0  0  0  0  0  0  0999 V2000
    0.5117    1.2474   -1.3316 C   0  0  0  0  0  3  0  0  0  0  0  0
    0.5117    1.2474   -2.8536 C   0  0  0  0  0  0  0  0  0  0  0  0
    0.5117    2.5737   -3.3457 O   0  0  0  0  0  0  0  0  0  0  0  0
   -0.5711    3.2981   -2.8464 C   0  0  0  0  0  0  0  0  0  0  0  0
   -0.5598    3.4044   -1.4553 O   0  0  0  0  0  0  0  0  0  0  0  0
   -0.6277    2.1306   -0.8435 C   0  0  0  0  0  0  0  0  0  0  0  0
    0.3741    0.0270   -0.8733 H   0  0  0  0  0  0  0  0  0  0  0  0
    1.4610    1.6459   -0.9686 H   0  0  0  0  0  0  0  0  0  0  0  0
    1.3974    0.7619   -3.2609 H   0  0  0  0  0  0  0  0  0  0  0  0
   -0.3758    0.7161   -3.2303 H   0  0  0  0  0  0  0  0  0  0  0  0
   -1.5137    2.8200   -3.1706 H   0  0  0  0  0  0  0  0  0  0  0  0
   -0.4988    4.3062   -3.2484 H   0  0  0  0  0  0  0  0  0  0  0  0
   -1.5954    1.6615   -1.0788 H   0  0  0  0  0  0  0  0  0  0  0  0
   -0.5825    2.2966    0.2320 H   0  0  0  0  0  0  0  0  0  0  0  0
    0.2367   -1.1920   -0.4156 C   0  0  0  0  0  0  0  0  0  0  0  0
   -0.4745   -1.1737    0.9176 C   0  0  0  0  0  0  0  0  0  0  0  0
   -0.0627   -2.2864    1.6699 O   0  0  0  0  0  0  0  0  0  0  0  0
   -0.6711   -2.3588    2.9346 C   0  0  0  0  0  0  0  0  0  0  0  0
   -0.1361   -3.5640    3.6807 C   0  0  0  0  0  0  0  0  0  0  0  0
    1.3583   -3.4792    3.9617 C   0  0  0  0  0  0  0  0  0  0  0  0
    1.3171   -1.1485   -0.2730 H   0  0  0  0  0  0  0  0  0  0  0  0
   -0.0016   -2.1045   -0.9633 H   0  0  0  0  0  0  0  0  0  0  0  0
   -1.5646   -1.2017    0.7722 H   0  0  0  0  0  0  0  0  0  0  0  0
   -0.2446   -0.2466    1.4633 H   0  0  0  0  0  0  0  0  0  0  0  0
   -0.4630   -1.4390    3.5038 H   0  0  0  0  0  0  0  0  0  0  0  0
   -1.7626   -2.4338    2.8221 H   0  0  0  0  0  0  0  0  0  0  0  0
   -0.3578   -4.4607    3.0962 H   0  0  0  0  0  0  0  0  0  0  0  0
   -0.6910   -3.6521    4.6189 H   0  0  0  0  0  0  0  0  0  0  0  0
    1.5917   -2.5993    4.5664 H   0  0  0  0  0  0  0  0  0  0  0  0
    1.9224   -3.4060    3.0320 H   0  0  0  0  0  0  0  0  0  0  0  0
    1.7064   -4.3597    4.5038 H   0  0  0  0  0  0  0  0  0  0  0  0
  1  2  1  0
  1  6  1  0
  1  8  1  0
  2  3  1  0
  2  9  1  0
  2 10  1  0
  3  4  1  0
  4  5  1  0
  4 11  1  0
  4 12  1  0
  5  6  1  0
  6 13  1  0
  6 14  1  0
  7 15  1  0
 15 16  1  0
 15 21  1  0
 15 22  1  0
 16 17  1  0
 16 23  1  0
 16 24  1  0
 17 18  1  0
 18 19  1  0
 18 25  1  0
 18 26  1  0
 19 20  1  0
 19 27  1  0
 19 28  1  0
 20 29  1  0
 20 30  1  0
 20 31  1  0
M  RAD  1   1   2
M  END
>  <reaction>  (15) 
rmg_rxn_205

>  <mol_properties>  (15) 
{"0": {"label": "*1", "atom_type": "Cs"}, "1": {"label": "*0", "atom_type": "Cs"}, "6": {"label": "*2", "atom_type": "H0"}, "14": {"label": "*3", "atom_type": "Cs"}, "15": {"label": "*4", "atom_type": "Cs"}}

>  <type>  (15) 
unop_11

>  <geom_source>  (15) 
Heuristics

$$$$

     RDKit          3D

 31 30  0  0  0  0  0  0  0  0999 V2000
    0.6834    1.9952    0.3153 C   0  0  0  0  0  3  0  0  0  0  0  0
    0.6834    1.9952   -1.2067 C   0  0  0  0  0  0  0  0  0  0  0  0
    0.6834    3.3216   -1.6988 O   0  0  0  0  0  0  0  0  0  0  0  0
   -0.3994    4.0459   -1.1995 C   0  0  0  0  0  0  0  0  0  0  0  0
   -0.3881    4.1522    0.1916 O   0  0  0  0  0  0  0  0  0  0  0  0
   -0.4560    2.8784    0.8034 C   0  0  0  0  0  0  0  0  0  0  0  0
    0.5459    0.7748    0.7736 H   0  0  0  0  0  0  0  0  0  0  0  0
    1.6328    2.3937    0.6784 H   0  0  0  0  0  0  0  0  0  0  0  0
    1.5692    1.5097   -1.6140 H   0  0  0  0  0  0  0  0  0  0  0  0
   -0.2041    1.4640   -1.5834 H   0  0  0  0  0  0  0  0  0  0  0  0
   -1.3419    3.5678   -1.5237 H   0  0  0  0  0  0  0  0  0  0  0  0
   -0.3271    5.0540   -1.6015 H   0  0  0  0  0  0  0  0  0  0  0  0
   -1.4236    2.4093    0.5681 H   0  0  0  0  0  0  0  0  0  0  0  0
   -0.4107    3.0445    1.8789 H   0  0  0  0  0  0  0  0  0  0  0  0
    0.4085   -0.4442    1.2313 C   0  0  0  0  0  0  0  0  0  0  0  0
    0.2980   -1.4241    0.0863 C   0  0  0  0  0  0  0  0  0  0  0  0
    0.1527   -2.7205    0.6075 O   0  0  0  0  0  0  0  0  0  0  0  0
    0.0403   -3.7096   -0.3845 C   0  0  0  0  0  0  0  0  0  0  0  0
   -0.1510   -5.0609    0.2733 C   0  0  0  0  0  0  0  0  0  0  0  0
   -1.4394   -5.1572    1.0796 C   0  0  0  0  0  0  0  0  0  0  0  0
   -0.4859   -0.4820    1.8542 H   0  0  0  0  0  0  0  0  0  0  0  0
    1.2719   -0.6802    1.8543 H   0  0  0  0  0  0  0  0  0  0  0  0
    1.1938   -1.3740   -0.5504 H   0  0  0  0  0  0  0  0  0  0  0  0
   -0.5650   -1.1769   -0.5494 H   0  0  0  0  0  0  0  0  0  0  0  0
   -0.8142   -3.4852   -1.0424 H   0  0  0  0  0  0  0  0  0  0  0  0
    0.9434   -3.7156   -1.0122 H   0  0  0  0  0  0  0  0  0  0  0  0
    0.7101   -5.2588    0.9168 H   0  0  0  0  0  0  0  0  0  0  0  0
   -0.1410   -5.8216   -0.5122 H   0  0  0  0  0  0  0  0  0  0  0  0
   -2.3110   -4.9850    0.4433 H   0  0  0  0  0  0  0  0  0  0  0  0
   -1.4533   -4.4125    1.8754 H   0  0  0  0  0  0  0  0  0  0  0  0
   -1.5459   -6.1436    1.5333 H   0  0  0  0  0  0  0  0  0  0  0  0
  1  2  1  0
  1  6  1  0
  1  8  1  0
  2  3  1  0
  2  9  1  0
  2 10  1  0
  3  4  1  0
  4  5  1  0
  4 11  1  0
  4 12  1  0
  5  6  1  0
  6 13  1  0
  6 14  1  0
  7 15  1  0
 15 16  1  0
 15 21  1  0
 15 22  1  0
 16 17  1  0
 16 23  1  0
 16 24  1  0
 17 18  1  0
 18 19  1  0
 18 25  1  0
 18 26  1  0
 19 20  1  0
 19 27  1  0
 19 28  1  0
 20 29  1  0
 20 30  1  0
 20 31  1  0
M  RAD  1   1   2
M  END
>  <reaction>  (16) 
rmg_rxn_205

>  <mol_properties>  (16) 
{"0": {"label": "*1", "atom_type": "Cs"}, "1": {"label": "*0", "atom_type": "Cs"}, "6": {"label": "*2", "atom_type": "H0"}, "14": {"label": "*3", "atom_type": "Cs"}, "15": {"label": "*4", "atom_type": "Cs"}}

>  <type>  (16) 
unop_12

>  <geom_source>  (16) 
Heuristics

$$$$

     RDKit          3D

 31 30  0  0  0  0  0  0  0  0999 V2000
    1.6468   -0.5162   -0.5341 O   0  0  0  0  0  0  0  0  0  0  0  0
   -3.7940    1.0494   -0.0611 O   0  0  0  0  0  0  0  0  0  0  0  0
   -4.2825   -1.2412    0.4562 O   0  0  0  0  0  0  0  0  0  0  0  0
    4.0220   -0.1138   -0.3151 C   0  0  0  0  0  0  0  0  0  0  0  0
    2.6975   -0.3839    0.4058 C   0  0  0  0  0  0  0  0  0  0  0  0
    0.9914    0.7191   -0.7540 C   0  0  0  0  0  0  0  0  0  0  0  0
   -3.0563    0.4619   -1.1101 C   0  0  0  0  0  0  0  0  0  0  0  0
   -2.8840   -1.3063    0.6304 C   0  0  0  0  0  0  0  0  0  0  0  0
    5.1838   -0.0354    0.6710 C   0  0  0  0  0  0  0  0  0  0  0  0
   -0.2188    0.8457    0.1633 C   0  0  0  0  0  0  0  0  0  0  0  0
   -4.7239    0.1134    0.4767 C   0  0  0  0  0  0  0  0  0  0  0  0
   -2.1804   -0.6615   -0.5613 C   0  0  0  0  0  3  0  0  0  0  0  0
    4.2184   -0.9299   -1.0439 H   0  0  0  0  0  0  0  0  0  0  0  0
    3.9584    0.8445   -0.8735 H   0  0  0  0  0  0  0  0  0  0  0  0
    1.6583    1.6052   -0.6374 H   0  0  0  0  0  0  0  0  0  0  0  0
    0.6297    0.7327   -1.8035 H   0  0  0  0  0  0  0  0  0  0  0  0
    2.5021    0.3991    1.1764 H   0  0  0  0  0  0  0  0  0  0  0  0
    2.7826   -1.3470    0.9531 H   0  0  0  0  0  0  0  0  0  0  0  0
    0.1014    0.8708    1.2258 H   0  0  0  0  0  0  0  0  0  0  0  0
   -0.7675    1.7831   -0.0673 H   0  0  0  0  0  0  0  0  0  0  0  0
   -1.0151   -0.1656   -0.0187 H   0  0  0  0  0  0  0  0  0  0  0  0
    6.1273    0.1594    0.1190 H   0  0  0  0  0  0  0  0  0  0  0  0
    5.0192    0.7904    1.3957 H   0  0  0  0  0  0  0  0  0  0  0  0
    5.2869   -0.9937    1.2234 H   0  0  0  0  0  0  0  0  0  0  0  0
   -3.7380    0.0798   -1.9048 H   0  0  0  0  0  0  0  0  0  0  0  0
   -2.4013    1.2315   -1.5679 H   0  0  0  0  0  0  0  0  0  0  0  0
   -2.5760   -2.3700    0.7104 H   0  0  0  0  0  0  0  0  0  0  0  0
   -2.5788   -0.7977    1.5729 H   0  0  0  0  0  0  0  0  0  0  0  0
   -5.6748    0.1847   -0.0928 H   0  0  0  0  0  0  0  0  0  0  0  0
   -4.9496    0.4013    1.5253 H   0  0  0  0  0  0  0  0  0  0  0  0
   -1.9848   -1.4097   -1.3599 H   0  0  0  0  0  0  0  0  0  0  0  0
  1  6  1  0
  1  5  1  0
  2  7  1  0
  2 11  1  0
  3  8  1  0
  3 11  1  0
  4  9  1  0
  4  5  1  0
  4 13  1  0
  4 14  1  0
  5 17  1  0
  5 18  1  0
  6 10  1  0
  6 15  1  0
  6 16  1  0
  7 12  1  0
  7 25  1  0
  7 26  1  0
  8 12  1  0
  8 27  1  0
  8 28  1  0
  9 22  1  0
  9 23  1  0
  9 24  1  0
 10 19  1  0
 10 20  1  0
 10 21  1  0
 11 29  1  0
 11 30  1  0
 12 31  1  0
M  RAD  1  12   2
M  END
>  <reaction>  (17) 
rmg_rxn_205

>  <mol_properties>  (17) 
{"0": {"label": "*1", "atom_type": "Cs"}, "1": {"label": "*0", "atom_type": "Cs"}, "6": {"label": "*2", "atom_type": "H0"}, "14": {"label": "*3", "atom_type": "Cs"}, "15": {"label": "*4", "atom_type": "Cs"}}

>  <type>  (17) 
unop_13

>  <geom_source>  (17) 
AutoTST

$$$$

     RDKit          3D

 31 30  0  0  0  0  0  0  0  0999 V2000
    0.0401    2.0037    0.1521 C   0  0  0  0  0  3  0  0  0  0  0  0
    0.0401    2.0037   -1.3700 C   0  0  0  0  0  0  0  0  0  0  0  0
    0.0401    3.3300   -1.8621 O   0  0  0  0  0  0  0  0  0  0  0  0
   -1.0428    4.0544   -1.3627 C   0  0  0  0  0  0  0  0  0  0  0  0
   -1.0315    4.1606    0.0283 O   0  0  0  0  0  0  0  0  0  0  0  0
   -1.0994    2.8869    0.6402 C   0  0  0  0  0  0  0  0  0  0  0  0
   -0.0975    0.7833    0.6103 H   0  0  0  0  0  0  0  0  0  0  0  0
    0.9894    2.4022    0.5151 H   0  0  0  0  0  0  0  0  0  0  0  0
    0.9258    1.5182   -1.7773 H   0  0  0  0  0  0  0  0  0  0  0  0
   -0.8475    1.4724   -1.7467 H   0  0  0  0  0  0  0  0  0  0  0  0
   -1.9853    3.5763   -1.6870 H   0  0  0  0  0  0  0  0  0  0  0  0
   -0.9705    5.0625   -1.7647 H   0  0  0  0  0  0  0  0  0  0  0  0
   -2.0670    2.4178    0.4049 H   0  0  0  0  0  0  0  0  0  0  0  0
   -1.0541    3.0529    1.7156 H   0  0  0  0  0  0  0  0  0  0  0  0
   -0.2349   -0.4357    1.0680 C   0  0  0  0  0  0  0  0  0  0  0  0
    0.3664   -1.4291    0.1010 C   0  0  0  0  0  0  0  0  0  0  0  0
    0.5854   -2.6438    0.7718 O   0  0  0  0  0  0  0  0  0  0  0  0
    1.1451   -3.6388   -0.0478 C   0  0  0  0  0  0  0  0  0  0  0  0
    1.3059   -4.9158    0.7515 C   0  0  0  0  0  0  0  0  0  0  0  0
   -0.0194   -5.4931    1.2305 C   0  0  0  0  0  0  0  0  0  0  0  0
   -1.1840   -0.8070    1.4565 H   0  0  0  0  0  0  0  0  0  0  0  0
    0.4382   -0.2658    1.9091 H   0  0  0  0  0  0  0  0  0  0  0  0
    1.3158   -1.0466   -0.3022 H   0  0  0  0  0  0  0  0  0  0  0  0
   -0.3070   -1.5893   -0.7540 H   0  0  0  0  0  0  0  0  0  0  0  0
    0.4941   -3.8173   -0.9183 H   0  0  0  0  0  0  0  0  0  0  0  0
    2.1199   -3.3040   -0.4317 H   0  0  0  0  0  0  0  0  0  0  0  0
    1.9567   -4.7110    1.6056 H   0  0  0  0  0  0  0  0  0  0  0  0
    1.8277   -5.6425    0.1227 H   0  0  0  0  0  0  0  0  0  0  0  0
   -0.6716   -5.7252    0.3848 H   0  0  0  0  0  0  0  0  0  0  0  0
   -0.5414   -4.7821    1.8708 H   0  0  0  0  0  0  0  0  0  0  0  0
    0.1347   -6.4130    1.7966 H   0  0  0  0  0  0  0  0  0  0  0  0
  1  2  1  0
  1  6  1  0
  1  8  1  0
  2  3  1  0
  2  9  1  0
  2 10  1  0
  3  4  1  0
  4  5  1  0
  4 11  1  0
  4 12  1  0
  5  6  1  0
  6 13  1  0
  6 14  1  0
  7 15  1  0
 15 16  1  0
 15 21  1  0
 15 22  1  0
 16 17  1  0
 16 23  1  0
 16 24  1  0
 17 18  1  0
 18 19  1  0
 18 25  1  0
 18 26  1  0
 19 20  1  0
 19 27  1  0
 19 28  1  0
 20 29  1  0
 20 30  1  0
 20 31  1  0
M  RAD  1   1   2
M  END
>  <reaction>  (18) 
rmg_rxn_205

>  <mol_properties>  (18) 
{"0": {"label": "*1", "atom_type": "Cs"}, "1": {"label": "*0", "atom_type": "Cs"}, "6": {"label": "*2", "atom_type": "H0"}, "14": {"label": "*3", "atom_type": "Cs"}, "15": {"label": "*4", "atom_type": "Cs"}}

>  <type>  (18) 
unop_14

>  <geom_source>  (18) 
gaussian_log

$$$$
