
     RDKit          3D

 18 17  0  0  0  0  0  0  0  0999 V2000
    2.2026   -0.7213   -0.2612 C   0  0  0  0  0  0  0  0  0  0  0  0
    1.5384    0.2638    0.6915 C   0  0  0  0  0  0  0  0  0  0  0  0
    2.2584    1.5946    0.7694 C   0  0  0  0  0  0  0  0  0  0  0  0
    2.2212    2.2185   -0.4893 O   0  0  0  0  0  0  0  0  0  0  0  0
    2.8988    3.4488   -0.5204 C   0  0  0  0  0  0  0  0  0  0  0  0
    2.7981    4.0296   -1.9118 C   0  0  0  0  0  0  0  0  0  0  0  0
    3.2294   -0.9309    0.0486 H   0  0  0  0  0  0  0  0  0  0  0  0
    2.2338   -0.3181   -1.2734 H   0  0  0  0  0  0  0  0  0  0  0  0
    1.6610   -1.6680   -0.2875 H   0  0  0  0  0  0  0  0  0  0  0  0
    1.4990   -0.1566    1.7002 H   0  0  0  0  0  0  0  0  0  0  0  0
    0.5055    0.4455    0.3835 H   0  0  0  0  0  0  0  0  0  0  0  0
    3.3038    1.4410    1.0808 H   0  0  0  0  0  0  0  0  0  0  0  0
    1.7844    2.2410    1.5226 H   0  0  0  0  0  0  0  0  0  0  0  0
    2.4596    4.1376    0.2164 H   0  0  0  0  0  0  0  0  0  0  0  0
    3.9524    3.3035   -0.2397 H   0  0  0  0  0  0  0  0  0  0  0  0
    1.7543    4.1869   -2.1856 H   0  0  0  0  0  0  0  0  0  0  0  0
    3.2472    3.3545   -2.6411 H   0  0  0  0  0  0  0  0  0  0  0  0
    3.3178    4.9878   -1.9600 H   0  0  0  0  0  0  0  0  0  0  0  0
  1  2  1  0
  1  7  1  0
  1  8  1  0
  1  9  1  0
  2  3  1  0
  2 10  1  0
  2 11  1  0
  3  4  1  0
  3 12  1  0
  3 13  1  0
  4  5  1  0
  5  6  1  0
  5 14  1  0
  5 15  1  0
  6 16  1  0
  6 17  1  0
  6 18  1  0
M  END
>  <reaction>  (1) 
rmg_rxn_348

>  <mol_properties>  (1) 
{"0": {"label": "donator", "atom_type": "Cs"}, "6": {"label": "d_hydrogen", "atom_type": "H0"}}

>  <type>  (1) 
r1h

$$$$

     RDKit          3D

  8  7  0  0  0  0  0  0  0  0999 V2000
    1.3778   -0.6812    0.2772 C   0  0  0  0  0  3  0  0  0  0  0  0
    0.4890    0.2108   -0.0590 C   0  0  0  0  0  0  0  0  0  0  0  0
   -1.0010    0.0286   -0.0323 C   0  0  0  0  0  0  0  0  0  0  0  0
    2.4535   -0.7507    0.3287 H   0  0  0  0  0  0  0  0  0  0  0  0
    0.8447    1.1899   -0.3945 H   0  0  0  0  0  0  0  0  0  0  0  0
   -1.4635    0.7638    0.6301 H   0  0  0  0  0  0  0  0  0  0  0  0
   -1.2709   -0.9687    0.3117 H   0  0  0  0  0  0  0  0  0  0  0  0
   -1.4218    0.1801   -1.0289 H   0  0  0  0  0  0  0  0  0  0  0  0
  1  2  2  3
  1  4  1  0
  2  3  1  0
  2  5  1  0
  3  6  1  0
  3  7  1  0
  3  8  1  0
M  RAD  1   1   2
M  END
>  <reaction>  (2) 
rmg_rxn_348

>  <mol_properties>  (2) 
{"0": {"label": "acceptor", "atom_type": "Cd"}}

>  <type>  (2) 
r2

$$$$

     RDKit          3D

  9  8  0  0  0  0  0  0  0  0999 V2000
    1.1303   -0.2933   -0.7510 C   0  0  0  0  0  0  0  0  0  0  0  0
    0.2866    0.4560   -0.0588 C   0  0  0  0  0  0  0  0  0  0  0  0
   -0.9719   -0.0331    0.5823 C   0  0  0  0  0  0  0  0  0  0  0  0
    2.0274    0.1230   -1.1916 H   0  0  0  0  0  0  0  0  0  0  0  0
    0.9532   -1.3530   -0.9023 H   0  0  0  0  0  0  0  0  0  0  0  0
    0.5065    1.5132    0.0659 H   0  0  0  0  0  0  0  0  0  0  0  0
   -0.9526    0.1426    1.6610 H   0  0  0  0  0  0  0  0  0  0  0  0
   -1.1182   -1.1002    0.4106 H   0  0  0  0  0  0  0  0  0  0  0  0
   -1.8412    0.5010    0.1901 H   0  0  0  0  0  0  0  0  0  0  0  0
  1  2  2  3
  1  4  1  0
  1  5  1  0
  2  3  1  0
  2  6  1  0
  3  7  1  0
  3  8  1  0
  3  9  1  0
M  END
>  <reaction>  (3) 
rmg_rxn_348

>  <mol_properties>  (3) 
{"0": {"label": "acceptor", "atom_type": "Cd"}, "8": {"label": "a_hydrogen", "atom_type": "H0"}}

>  <type>  (3) 
r2h

$$$$

     RDKit          3D

 26 24  0  0  0  0  0  0  0  0999 V2000
   -1.6681    1.1551    1.2918 C   0  0  0  0  0  3  0  0  0  0  0  0
   -2.0621    0.3427    0.3352 C   0  0  0  0  0  0  0  0  0  0  0  0
   -3.3584   -0.4121    0.3013 C   0  0  0  0  0  0  0  0  0  0  0  0
   -2.1967    1.4209    2.2015 H   0  0  0  0  0  0  0  0  0  0  0  0
   -1.3946    0.1921   -0.5131 H   0  0  0  0  0  0  0  0  0  0  0  0
   -3.9389   -0.1405   -0.5840 H   0  0  0  0  0  0  0  0  0  0  0  0
   -3.9632   -0.2103    1.1857 H   0  0  0  0  0  0  0  0  0  0  0  0
   -3.1754   -1.4885    0.2461 H   0  0  0  0  0  0  0  0  0  0  0  0
    0.7156    2.1905    0.6738 C   0  0  0  0  0  0  0  0  0  0  0  0
    1.7970    1.2297    1.1080 C   0  0  0  0  0  0  0  0  0  0  0  0
    1.4998   -0.2156    0.7558 C   0  0  0  0  0  0  0  0  0  0  0  0
    1.2619   -0.3234   -0.6266 O   0  0  0  0  0  0  0  0  0  0  0  0
    0.8925   -1.6205   -1.0211 C   0  0  0  0  0  0  0  0  0  0  0  0
    0.5819   -1.6128   -2.4998 C   0  0  0  0  0  0  0  0  0  0  0  0
   -0.4233    1.7495    1.0735 H   0  0  0  0  0  0  0  0  0  0  0  0
    0.5863    2.2416   -0.4052 H   0  0  0  0  0  0  0  0  0  0  0  0
    0.8001    3.1840    1.1111 H   0  0  0  0  0  0  0  0  0  0  0  0
    1.9426    1.2840    2.1902 H   0  0  0  0  0  0  0  0  0  0  0  0
    2.7491    1.5180    0.6482 H   0  0  0  0  0  0  0  0  0  0  0  0
    0.6148   -0.5583    1.3096 H   0  0  0  0  0  0  0  0  0  0  0  0
    2.3449   -0.8572    1.0442 H   0  0  0  0  0  0  0  0  0  0  0  0
    1.7060   -2.3270   -0.8005 H   0  0  0  0  0  0  0  0  0  0  0  0
    0.0141   -1.9482   -0.4452 H   0  0  0  0  0  0  0  0  0  0  0  0
    1.4517   -1.2885   -3.0719 H   0  0  0  0  0  0  0  0  0  0  0  0
   -0.2427   -0.9312   -2.7140 H   0  0  0  0  0  0  0  0  0  0  0  0
    0.2999   -2.6128   -2.8328 H   0  0  0  0  0  0  0  0  0  0  0  0
  1  2  2  3
  1  4  1  0
  2  3  1  0
  2  5  1  0
  3  6  1  0
  3  7  1  0
  3  8  1  0
  9 10  1  0
  9 15  1  0
  9 16  1  0
  9 17  1  0
 10 11  1  0
 10 18  1  0
 10 19  1  0
 11 12  1  0
 11 20  1  0
 11 21  1  0
 12 13  1  0
 13 14  1  0
 13 22  1  0
 13 23  1  0
 14 24  1  0
 14 25  1  0
 14 26  1  0
M  RAD  1   1   2
M  END
>  <reaction>  (4) 
rmg_rxn_348

>  <mol_properties>  (4) 
{"0": {"label": "*3", "atom_type": "Cd"}, "1": {"label": "*4", "atom_type": "Cd"}, "8": {"label": "*1", "atom_type": "Cs"}, "9": {"label": "*0", "atom_type": "Cs"}, "14": {"label": "*2", "atom_type": "H0"}}

>  <type>  (4) 
ts

$$$$

     RDKit          3D

 26 24  0  0  0  0  0  0  0  0999 V2000
   -1.8155    0.5025    1.2339 C   0  0  0  0  0  0  0  0  0  0  0  0
   -2.6472    1.1761    2.0129 C   0  0  0  0  0  0  0  0  0  0  0  0
   -4.1379    1.1480    1.9080 C   0  0  0  0  0  0  0  0  0  0  0  0
   -2.1795   -0.1385    0.4378 H   0  0  0  0  0  0  0  0  0  0  0  0
   -2.2355    1.8058    2.7975 H   0  0  0  0  0  0  0  0  0  0  0  0
   -4.5868    0.7955    2.8401 H   0  0  0  0  0  0  0  0  0  0  0  0
   -4.4684    0.4952    1.0991 H   0  0  0  0  0  0  0  0  0  0  0  0
   -4.5339    2.1503    1.7252 H   0  0  0  0  0  0  0  0  0  0  0  0
    0.2991    1.6287    0.1965 C   0  0  0  0  0  3  0  0  0  0  0  0
    1.5690    0.9214    0.6508 C   0  0  0  0  0  0  0  0  0  0  0  0
    1.6086   -0.5415    0.2590 C   0  0  0  0  0  0  0  0  0  0  0  0
    1.6095   -0.6484   -1.1423 O   0  0  0  0  0  0  0  0  0  0  0  0
    1.6095   -1.9771   -1.5987 C   0  0  0  0  0  0  0  0  0  0  0  0
    1.6095   -1.9771   -3.1098 C   0  0  0  0  0  0  0  0  0  0  0  0
   -0.7631    1.0630    0.7176 H   0  0  0  0  0  0  0  0  0  0  0  0
    0.2018    1.5884   -0.8884 H   0  0  0  0  0  0  0  0  0  0  0  0
    0.3031    2.6765    0.5002 H   0  0  0  0  0  0  0  0  0  0  0  0
    1.6641    0.9808    1.7386 H   0  0  0  0  0  0  0  0  0  0  0  0
    2.4465    1.4178    0.2286 H   0  0  0  0  0  0  0  0  0  0  0  0
    0.7346   -1.0678    0.6744 H   0  0  0  0  0  0  0  0  0  0  0  0
    2.5070   -1.0228    0.6725 H   0  0  0  0  0  0  0  0  0  0  0  0
    2.4944   -2.5058   -1.2142 H   0  0  0  0  0  0  0  0  0  0  0  0
    0.7246   -2.5053   -1.2142 H   0  0  0  0  0  0  0  0  0  0  0  0
    2.4936   -1.4656   -3.4919 H   0  0  0  0  0  0  0  0  0  0  0  0
    0.7247   -1.4667   -3.4919 H   0  0  0  0  0  0  0  0  0  0  0  0
    1.6101   -3.0006   -3.4879 H   0  0  0  0  0  0  0  0  0  0  0  0
  1  2  2  3
  1  4  1  0
  1 15  1  0
  2  3  1  0
  2  5  1  0
  3  6  1  0
  3  7  1  0
  3  8  1  0
  9 10  1  0
  9 16  1  0
  9 17  1  0
 10 11  1  0
 10 18  1  0
 10 19  1  0
 11 12  1  0
 11 20  1  0
 11 21  1  0
 12 13  1  0
 13 14  1  0
 13 22  1  0
 13 23  1  0
 14 24  1  0
 14 25  1  0
 14 26  1  0
M  RAD  1   9   2
M  END
>  <reaction>  (5) 
rmg_rxn_348

>  <mol_properties>  (5) 
{"0": {"label": "*3", "atom_type": "Cd"}, "1": {"label": "*4", "atom_type": "Cd"}, "8": {"label": "*1", "atom_type": "Cs"}, "9": {"label": "*0", "atom_type": "Cs"}, "14": {"label": "*2", "atom_type": "H0"}}

>  <type>  (5) 
unop_1

>  <geom_source>  (5) 
Heuristics

$$$$

     RDKit          3D

 26 24  0  0  0  0  0  0  0  0999 V2000
   -2.0420    0.8163    1.0315 C   0  0  0  0  0  0  0  0  0  0  0  0
   -1.9993    0.2170    2.2111 C   0  0  0  0  0  0  0  0  0  0  0  0
   -3.1902   -0.1168    3.0504 C   0  0  0  0  0  0  0  0  0  0  0  0
   -2.9833    1.1148    0.5821 H   0  0  0  0  0  0  0  0  0  0  0  0
   -1.0324   -0.0635    2.6210 H   0  0  0  0  0  0  0  0  0  0  0  0
   -3.2456   -1.1924    3.2367 H   0  0  0  0  0  0  0  0  0  0  0  0
   -4.1175    0.1967    2.5692 H   0  0  0  0  0  0  0  0  0  0  0  0
   -3.1269    0.3708    4.0266 H   0  0  0  0  0  0  0  0  0  0  0  0
    0.0726    1.9425   -0.0059 C   0  0  0  0  0  3  0  0  0  0  0  0
    1.3424    1.2352    0.4484 C   0  0  0  0  0  0  0  0  0  0  0  0
    1.3820   -0.2277    0.0566 C   0  0  0  0  0  0  0  0  0  0  0  0
    1.3830   -0.3347   -1.3447 O   0  0  0  0  0  0  0  0  0  0  0  0
    1.3830   -1.6633   -1.8010 C   0  0  0  0  0  0  0  0  0  0  0  0
    1.3830   -1.6633   -3.3122 C   0  0  0  0  0  0  0  0  0  0  0  0
   -0.9897    1.3767    0.5152 H   0  0  0  0  0  0  0  0  0  0  0  0
   -0.0247    1.9022   -1.0908 H   0  0  0  0  0  0  0  0  0  0  0  0
    0.0766    2.9903    0.2978 H   0  0  0  0  0  0  0  0  0  0  0  0
    1.4376    1.2946    1.5362 H   0  0  0  0  0  0  0  0  0  0  0  0
    2.2200    1.7315    0.0262 H   0  0  0  0  0  0  0  0  0  0  0  0
    0.5081   -0.7541    0.4720 H   0  0  0  0  0  0  0  0  0  0  0  0
    2.2805   -0.7090    0.4701 H   0  0  0  0  0  0  0  0  0  0  0  0
    2.2678   -2.1920   -1.4166 H   0  0  0  0  0  0  0  0  0  0  0  0
    0.4980   -2.1915   -1.4165 H   0  0  0  0  0  0  0  0  0  0  0  0
    2.2671   -1.1518   -3.6943 H   0  0  0  0  0  0  0  0  0  0  0  0
    0.4982   -1.1529   -3.6943 H   0  0  0  0  0  0  0  0  0  0  0  0
    1.3836   -2.6868   -3.6903 H   0  0  0  0  0  0  0  0  0  0  0  0
  1  2  2  3
  1  4  1  0
  1 15  1  0
  2  3  1  0
  2  5  1  0
  3  6  1  0
  3  7  1  0
  3  8  1  0
  9 10  1  0
  9 16  1  0
  9 17  1  0
 10 11  1  0
 10 18  1  0
 10 19  1  0
 11 12  1  0
 11 20  1  0
 11 21  1  0
 12 13  1  0
 13 14  1  0
 13 22  1  0
 13 23  1  0
 14 24  1  0
 14 25  1  0
 14 26  1  0
M  RAD  1   9   2
M  END
>  <reaction>  (6) 
rmg_rxn_348

>  <mol_properties>  (6) 
{"0": {"label": "*3", "atom_type": "Cd"}, "1": {"label": "*4", "atom_type": "Cd"}, "8": {"label": "*1", "atom_type": "Cs"}, "9": {"label": "*0", "atom_type": "Cs"}, "14": {"label": "*2", "atom_type": "H0"}}

>  <type>  (6) 
unop_2

>  <geom_source>  (6) 
Heuristics

$$$$

     RDKit          3D

 26 24  0  0  0  0  0  0  0  0999 V2000
   -1.7693    0.5560    1.3555 C   0  0  0  0  0  0  0  0  0  0  0  0
   -2.8665    1.2496    1.6148 C   0  0  0  0  0  0  0  0  0  0  0  0
   -4.2635    0.7480    1.4384 C   0  0  0  0  0  0  0  0  0  0  0  0
   -1.8179   -0.4619    0.9833 H   0  0  0  0  0  0  0  0  0  0  0  0
   -2.7676    2.2664    1.9863 H   0  0  0  0  0  0  0  0  0  0  0  0
   -4.8087    0.7743    2.3854 H   0  0  0  0  0  0  0  0  0  0  0  0
   -4.2750   -0.2762    1.0637 H   0  0  0  0  0  0  0  0  0  0  0  0
   -4.8170    1.3775    0.7369 H   0  0  0  0  0  0  0  0  0  0  0  0
    0.3453    1.6822    0.3181 C   0  0  0  0  0  3  0  0  0  0  0  0
    1.6152    0.9749    0.7724 C   0  0  0  0  0  0  0  0  0  0  0  0
    1.6548   -0.4880    0.3806 C   0  0  0  0  0  0  0  0  0  0  0  0
    1.6557   -0.5949   -1.0207 O   0  0  0  0  0  0  0  0  0  0  0  0
    1.6557   -1.9235   -1.4771 C   0  0  0  0  0  0  0  0  0  0  0  0
    1.6557   -1.9235   -2.9882 C   0  0  0  0  0  0  0  0  0  0  0  0
   -0.7169    1.1165    0.8392 H   0  0  0  0  0  0  0  0  0  0  0  0
    0.2480    1.6420   -0.7668 H   0  0  0  0  0  0  0  0  0  0  0  0
    0.3493    2.7301    0.6218 H   0  0  0  0  0  0  0  0  0  0  0  0
    1.7103    1.0343    1.8602 H   0  0  0  0  0  0  0  0  0  0  0  0
    2.4928    1.4713    0.3502 H   0  0  0  0  0  0  0  0  0  0  0  0
    0.7808   -1.0143    0.7960 H   0  0  0  0  0  0  0  0  0  0  0  0
    2.5532   -0.9693    0.7941 H   0  0  0  0  0  0  0  0  0  0  0  0
    2.5406   -2.4523   -1.0926 H   0  0  0  0  0  0  0  0  0  0  0  0
    0.7708   -2.4518   -1.0926 H   0  0  0  0  0  0  0  0  0  0  0  0
    2.5398   -1.4121   -3.3703 H   0  0  0  0  0  0  0  0  0  0  0  0
    0.7709   -1.4132   -3.3703 H   0  0  0  0  0  0  0  0  0  0  0  0
    1.6563   -2.9471   -3.3663 H   0  0  0  0  0  0  0  0  0  0  0  0
  1  2  2  3
  1  4  1  0
  1 15  1  0
  2  3  1  0
  2  5  1  0
  3  6  1  0
  3  7  1  0
  3  8  1  0
  9 10  1  0
  9 16  1  0
  9 17  1  0
 10 11  1  0
 10 18  1  0
 10 19  1  0
 11 12  1  0
 11 20  1  0
 11 21  1  0
 12 13  1  0
 13 14  1  0
 13 22  1  0
 13 23  1  0
 14 24  1  0
 14 25  1  0
 14 26  1  0
M  RAD  1   9   2
M  END
>  <reaction>  (7) 
rmg_rxn_348

>  <mol_properties>  (7) 
{"0": {"label": "*3", "atom_type": "Cd"}, "1": {"label": "*4", "atom_type": "Cd"}, "8": {"label": "*1", "atom_type": "Cs"}, "9": {"label": "*0", "atom_type": "Cs"}, "14": {"label": "*2", "atom_type": "H0"}}

>  <type>  (7) 
unop_3

>  <geom_source>  (7) 
Heuristics

$$$$

     RDKit          3D

 26 24  0  0  0  0  0  0  0  0999 V2000
   -1.9465    0.9906    1.4498 C   0  0  0  0  0  0  0  0  0  0  0  0
   -2.2368   -0.2806    1.2212 C   0  0  0  0  0  0  0  0  0  0  0  0
   -3.6177   -0.8467    1.1398 C   0  0  0  0  0  0  0  0  0  0  0  0
   -2.7253    1.7311    1.5985 H   0  0  0  0  0  0  0  0  0  0  0  0
   -1.4222   -0.9861    1.0783 H   0  0  0  0  0  0  0  0  0  0  0  0
   -3.7913   -1.3099    0.1651 H   0  0  0  0  0  0  0  0  0  0  0  0
   -4.3742   -0.0762    1.2936 H   0  0  0  0  0  0  0  0  0  0  0  0
   -3.7631   -1.6269    1.8914 H   0  0  0  0  0  0  0  0  0  0  0  0
    0.1681    2.1168    0.4124 C   0  0  0  0  0  3  0  0  0  0  0  0
    1.4380    1.4095    0.8668 C   0  0  0  0  0  0  0  0  0  0  0  0
    1.4776   -0.0534    0.4749 C   0  0  0  0  0  0  0  0  0  0  0  0
    1.4785   -0.1603   -0.9263 O   0  0  0  0  0  0  0  0  0  0  0  0
    1.4785   -1.4890   -1.3827 C   0  0  0  0  0  0  0  0  0  0  0  0
    1.4785   -1.4890   -2.8939 C   0  0  0  0  0  0  0  0  0  0  0  0
   -0.8941    1.5510    0.9335 H   0  0  0  0  0  0  0  0  0  0  0  0
    0.0708    2.0765   -0.6724 H   0  0  0  0  0  0  0  0  0  0  0  0
    0.1722    3.1646    0.7161 H   0  0  0  0  0  0  0  0  0  0  0  0
    1.5331    1.4689    1.9545 H   0  0  0  0  0  0  0  0  0  0  0  0
    2.3156    1.9058    0.4445 H   0  0  0  0  0  0  0  0  0  0  0  0
    0.6036   -0.5798    0.8904 H   0  0  0  0  0  0  0  0  0  0  0  0
    2.3760   -0.5347    0.8885 H   0  0  0  0  0  0  0  0  0  0  0  0
    2.3634   -2.0177   -0.9983 H   0  0  0  0  0  0  0  0  0  0  0  0
    0.5936   -2.0172   -0.9982 H   0  0  0  0  0  0  0  0  0  0  0  0
    2.3626   -0.9775   -3.2760 H   0  0  0  0  0  0  0  0  0  0  0  0
    0.5937   -0.9786   -3.2760 H   0  0  0  0  0  0  0  0  0  0  0  0
    1.4791   -2.5125   -3.2719 H   0  0  0  0  0  0  0  0  0  0  0  0
  1  2  2  3
  1  4  1  0
  1 15  1  0
  2  3  1  0
  2  5  1  0
  3  6  1  0
  3  7  1  0
  3  8  1  0
  9 10  1  0
  9 16  1  0
  9 17  1  0
 10 11  1  0
 10 18  1  0
 10 19  1  0
 11 12  1  0
 11 20  1  0
 11 21  1  0
 12 13  1  0
 13 14  1  0
 13 22  1  0
 13 23  1  0
 14 24  1  0
 14 25  1  0
 14 26  1  0
M  RAD  1   9   2
M  END
>  <reaction>  (8) 
rmg_rxn_348

>  <mol_properties>  (8) 
{"0": {"label": "*3", "atom_type": "Cd"}, "1": {"label": "*4", "atom_type": "Cd"}, "8": {"label": "*1", "atom_type": "Cs"}, "9": {"label": "*0", "atom_type": "Cs"}, "14": {"label": "*2", "atom_type": "H0"}}

>  <type>  (8) 
unop_4

>  <geom_source>  (8) 
Heuristics

$$$$

     RDKit          3D

 26 24  0  0  0  0  0  0  0  0999 V2000
   -1.7592    0.6192    1.3788 C   0  0  0  0  0  0  0  0  0  0  0  0
   -2.9783    1.0669    1.1227 C   0  0  0  0  0  0  0  0  0  0  0  0
   -4.2414    0.4855    1.6712 C   0  0  0  0  0  0  0  0  0  0  0  0
   -1.5943   -0.2330    2.0298 H   0  0  0  0  0  0  0  0  0  0  0  0
   -3.0937    1.9239    0.4641 H   0  0  0  0  0  0  0  0  0  0  0  0
   -4.7953    1.2318    2.2466 H   0  0  0  0  0  0  0  0  0  0  0  0
   -4.0388   -0.3675    2.3201 H   0  0  0  0  0  0  0  0  0  0  0  0
   -4.9002    0.1553    0.8640 H   0  0  0  0  0  0  0  0  0  0  0  0
    0.3554    1.7453    0.3414 C   0  0  0  0  0  3  0  0  0  0  0  0
    1.6253    1.0381    0.7957 C   0  0  0  0  0  0  0  0  0  0  0  0
    1.6649   -0.4248    0.4039 C   0  0  0  0  0  0  0  0  0  0  0  0
    1.6658   -0.5318   -0.9974 O   0  0  0  0  0  0  0  0  0  0  0  0
    1.6658   -1.8604   -1.4537 C   0  0  0  0  0  0  0  0  0  0  0  0
    1.6658   -1.8604   -2.9649 C   0  0  0  0  0  0  0  0  0  0  0  0
   -0.7068    1.1796    0.8625 H   0  0  0  0  0  0  0  0  0  0  0  0
    0.2582    1.7051   -0.7435 H   0  0  0  0  0  0  0  0  0  0  0  0
    0.3595    2.7932    0.6451 H   0  0  0  0  0  0  0  0  0  0  0  0
    1.7204    1.0974    1.8835 H   0  0  0  0  0  0  0  0  0  0  0  0
    2.5029    1.5344    0.3735 H   0  0  0  0  0  0  0  0  0  0  0  0
    0.7909   -0.9512    0.8193 H   0  0  0  0  0  0  0  0  0  0  0  0
    2.5633   -0.9061    0.8174 H   0  0  0  0  0  0  0  0  0  0  0  0
    2.5507   -2.3891   -1.0693 H   0  0  0  0  0  0  0  0  0  0  0  0
    0.7809   -2.3886   -1.0692 H   0  0  0  0  0  0  0  0  0  0  0  0
    2.5500   -1.3489   -3.3470 H   0  0  0  0  0  0  0  0  0  0  0  0
    0.7810   -1.3500   -3.3470 H   0  0  0  0  0  0  0  0  0  0  0  0
    1.6664   -2.8839   -3.3430 H   0  0  0  0  0  0  0  0  0  0  0  0
  1  2  2  3
  1  4  1  0
  1 15  1  0
  2  3  1  0
  2  5  1  0
  3  6  1  0
  3  7  1  0
  3  8  1  0
  9 10  1  0
  9 16  1  0
  9 17  1  0
 10 11  1  0
 10 18  1  0
 10 19  1  0
 11 12  1  0
 11 20  1  0
 11 21  1  0
 12 13  1  0
 13 14  1  0
 13 22  1  0
 13 23  1  0
 14 24  1  0
 14 25  1  0
 14 26  1  0
M  RAD  1   9   2
M  END
>  <reaction>  (9) 
rmg_rxn_348

>  <mol_properties>  (9) 
{"0": {"label": "*3", "atom_type": "Cd"}, "1": {"label": "*4", "atom_type": "Cd"}, "8": {"label": "*1", "atom_type": "Cs"}, "9": {"label": "*0", "atom_type": "Cs"}, "14": {"label": "*2", "atom_type": "H0"}}

>  <type>  (9) 
unop_5

>  <geom_source>  (9) 
Heuristics

$$$$

     RDKit          3D

 26 24  0  0  0  0  0  0  0  0999 V2000
   -1.8605    0.8781    1.5361 C   0  0  0  0  0  0  0  0  0  0  0  0
   -2.4888   -0.1125    0.9227 C   0  0  0  0  0  0  0  0  0  0  0  0
   -3.9730   -0.2568    0.8192 C   0  0  0  0  0  0  0  0  0  0  0  0
   -2.4064    1.6800    2.0218 H   0  0  0  0  0  0  0  0  0  0  0  0
   -1.8990   -0.8937    0.4501 H   0  0  0  0  0  0  0  0  0  0  0  0
   -4.2895   -0.2786   -0.2268 H   0  0  0  0  0  0  0  0  0  0  0  0
   -4.4892    0.5648    1.3173 H   0  0  0  0  0  0  0  0  0  0  0  0
   -4.3048   -1.1957    1.2700 H   0  0  0  0  0  0  0  0  0  0  0  0
    0.2541    2.0043    0.4987 C   0  0  0  0  0  3  0  0  0  0  0  0
    1.5240    1.2970    0.9530 C   0  0  0  0  0  0  0  0  0  0  0  0
    1.5636   -0.1659    0.5612 C   0  0  0  0  0  0  0  0  0  0  0  0
    1.5646   -0.2728   -0.8401 O   0  0  0  0  0  0  0  0  0  0  0  0
    1.5646   -1.6015   -1.2965 C   0  0  0  0  0  0  0  0  0  0  0  0
    1.5646   -1.6015   -2.8076 C   0  0  0  0  0  0  0  0  0  0  0  0
   -0.8081    1.4386    1.0198 H   0  0  0  0  0  0  0  0  0  0  0  0
    0.1569    1.9640   -0.5862 H   0  0  0  0  0  0  0  0  0  0  0  0
    0.2582    3.0521    0.8024 H   0  0  0  0  0  0  0  0  0  0  0  0
    1.6192    1.3564    2.0408 H   0  0  0  0  0  0  0  0  0  0  0  0
    2.4016    1.7934    0.5308 H   0  0  0  0  0  0  0  0  0  0  0  0
    0.6896   -0.6922    0.9766 H   0  0  0  0  0  0  0  0  0  0  0  0
    2.4620   -0.6472    0.9747 H   0  0  0  0  0  0  0  0  0  0  0  0
    2.4494   -2.1302   -0.9120 H   0  0  0  0  0  0  0  0  0  0  0  0
    0.6796   -2.1297   -0.9120 H   0  0  0  0  0  0  0  0  0  0  0  0
    2.4487   -1.0900   -3.1897 H   0  0  0  0  0  0  0  0  0  0  0  0
    0.6798   -1.0911   -3.1897 H   0  0  0  0  0  0  0  0  0  0  0  0
    1.5652   -2.6250   -3.1857 H   0  0  0  0  0  0  0  0  0  0  0  0
  1  2  2  3
  1  4  1  0
  1 15  1  0
  2  3  1  0
  2  5  1  0
  3  6  1  0
  3  7  1  0
  3  8  1  0
  9 10  1  0
  9 16  1  0
  9 17  1  0
 10 11  1  0
 10 18  1  0
 10 19  1  0
 11 12  1  0
 11 20  1  0
 11 21  1  0
 12 13  1  0
 13 14  1  0
 13 22  1  0
 13 23  1  0
 14 24  1  0
 14 25  1  0
 14 26  1  0
M  RAD  1   9   2
M  END
>  <reaction>  (10) 
rmg_rxn_348

>  <mol_properties>  (10) 
{"0": {"label": "*3", "atom_type": "Cd"}, "1": {"label": "*4", "atom_type": "Cd"}, "8": {"label": "*1", "atom_type": "Cs"}, "9": {"label": "*0", "atom_type": "Cs"}, "14": {"label": "*2", "atom_type": "H0"}}

>  <type>  (10) 
unop_6

>  <geom_source>  (10) 
Heuristics

$$$$

     RDKit          3D

 26 24  0  0  0  0  0  0  0  0999 V2000
   -1.7929    0.7344    1.5317 C   0  0  0  0  0  0  0  0  0  0  0  0
   -2.7414    0.2097    0.7718 C   0  0  0  0  0  0  0  0  0  0  0  0
   -4.2095    0.4134    0.9645 C   0  0  0  0  0  0  0  0  0  0  0  0
   -2.0323    1.3713    2.3767 H   0  0  0  0  0  0  0  0  0  0  0  0
   -2.4526   -0.4224   -0.0641 H   0  0  0  0  0  0  0  0  0  0  0  0
   -4.6589    0.8674    0.0776 H   0  0  0  0  0  0  0  0  0  0  0  0
   -4.4136    1.0573    1.8209 H   0  0  0  0  0  0  0  0  0  0  0  0
   -4.7171   -0.5416    1.1230 H   0  0  0  0  0  0  0  0  0  0  0  0
    0.3217    1.8606    0.4943 C   0  0  0  0  0  3  0  0  0  0  0  0
    1.5916    1.1533    0.9486 C   0  0  0  0  0  0  0  0  0  0  0  0
    1.6312   -0.3096    0.5568 C   0  0  0  0  0  0  0  0  0  0  0  0
    1.6321   -0.4165   -0.8445 O   0  0  0  0  0  0  0  0  0  0  0  0
    1.6321   -1.7452   -1.3008 C   0  0  0  0  0  0  0  0  0  0  0  0
    1.6321   -1.7452   -2.8120 C   0  0  0  0  0  0  0  0  0  0  0  0
   -0.7405    1.2949    1.0154 H   0  0  0  0  0  0  0  0  0  0  0  0
    0.2244    1.8203   -0.5906 H   0  0  0  0  0  0  0  0  0  0  0  0
    0.3257    2.9084    0.7980 H   0  0  0  0  0  0  0  0  0  0  0  0
    1.6867    1.2127    2.0364 H   0  0  0  0  0  0  0  0  0  0  0  0
    2.4691    1.6497    0.5264 H   0  0  0  0  0  0  0  0  0  0  0  0
    0.7572   -0.8359    0.9722 H   0  0  0  0  0  0  0  0  0  0  0  0
    2.5296   -0.7909    0.9703 H   0  0  0  0  0  0  0  0  0  0  0  0
    2.5170   -2.2739   -0.9164 H   0  0  0  0  0  0  0  0  0  0  0  0
    0.7472   -2.2734   -0.9163 H   0  0  0  0  0  0  0  0  0  0  0  0
    2.5162   -1.2337   -3.1941 H   0  0  0  0  0  0  0  0  0  0  0  0
    0.7473   -1.2348   -3.1941 H   0  0  0  0  0  0  0  0  0  0  0  0
    1.6327   -2.7687   -3.1901 H   0  0  0  0  0  0  0  0  0  0  0  0
  1  2  2  3
  1  4  1  0
  1 15  1  0
  2  3  1  0
  2  5  1  0
  3  6  1  0
  3  7  1  0
  3  8  1  0
  9 10  1  0
  9 16  1  0
  9 17  1  0
 10 11  1  0
 10 18  1  0
 10 19  1  0
 11 12  1  0
 11 20  1  0
 11 21  1  0
 12 13  1  0
 13 14  1  0
 13 22  1  0
 13 23  1  0
 14 24  1  0
 14 25  1  0
 14 26  1  0
M  RAD  1   9   2
M  END
>  <reaction>  (11) 
rmg_rxn_348

>  <mol_properties>  (11) 
{"0": {"label": "*3", "atom_type": "Cd"}, "1": {"label": "*4", "atom_type": "Cd"}, "8": {"label": "*1", "atom_type": "Cs"}, "9": {"label": "*0", "atom_type": "Cs"}, "14": {"label": "*2", "atom_type": "H0"}}

>  <type>  (11) 
unop_7

>  <geom_source>  (11) 
Heuristics

$$$$

     RDKit          3D

 26 24  0  0  0  0  0  0  0  0999 V2000
   -1.8935    0.5388    1.1003 C   0  0  0  0  0  0  0  0  0  0  0  0
   -2.3871    0.9319    2.2641 C   0  0  0  0  0  0  0  0  0  0  0  0
   -3.8402    1.1050    2.5682 C   0  0  0  0  0  0  0  0  0  0  0  0
   -2.5401    0.3083    0.2602 H   0  0  0  0  0  0  0  0  0  0  0  0
   -1.6996    1.1516    3.0769 H   0  0  0  0  0  0  0  0  0  0  0  0
   -4.1433    0.4612    3.3979 H   0  0  0  0  0  0  0  0  0  0  0  0
   -4.4599    0.8652    1.7032 H   0  0  0  0  0  0  0  0  0  0  0  0
   -4.0545    2.1333    2.8707 H   0  0  0  0  0  0  0  0  0  0  0  0
    0.2211    1.6650    0.0630 C   0  0  0  0  0  3  0  0  0  0  0  0
    1.4910    0.9577    0.5173 C   0  0  0  0  0  0  0  0  0  0  0  0
    1.5305   -0.5052    0.1255 C   0  0  0  0  0  0  0  0  0  0  0  0
    1.5315   -0.6121   -1.2758 O   0  0  0  0  0  0  0  0  0  0  0  0
    1.5315   -1.9407   -1.7322 C   0  0  0  0  0  0  0  0  0  0  0  0
    1.5315   -1.9407   -3.2433 C   0  0  0  0  0  0  0  0  0  0  0  0
   -0.8412    1.0993    0.5841 H   0  0  0  0  0  0  0  0  0  0  0  0
    0.1238    1.6248   -1.0219 H   0  0  0  0  0  0  0  0  0  0  0  0
    0.2251    2.7129    0.3667 H   0  0  0  0  0  0  0  0  0  0  0  0
    1.5861    1.0171    1.6051 H   0  0  0  0  0  0  0  0  0  0  0  0
    2.3685    1.4541    0.0951 H   0  0  0  0  0  0  0  0  0  0  0  0
    0.6566   -1.0315    0.5409 H   0  0  0  0  0  0  0  0  0  0  0  0
    2.4290   -0.9865    0.5390 H   0  0  0  0  0  0  0  0  0  0  0  0
    2.4163   -2.4695   -1.3478 H   0  0  0  0  0  0  0  0  0  0  0  0
    0.6465   -2.4690   -1.3477 H   0  0  0  0  0  0  0  0  0  0  0  0
    2.4156   -1.4292   -3.6254 H   0  0  0  0  0  0  0  0  0  0  0  0
    0.6467   -1.4304   -3.6255 H   0  0  0  0  0  0  0  0  0  0  0  0
    1.5321   -2.9643   -3.6214 H   0  0  0  0  0  0  0  0  0  0  0  0
  1  2  2  3
  1  4  1  0
  1 15  1  0
  2  3  1  0
  2  5  1  0
  3  6  1  0
  3  7  1  0
  3  8  1  0
  9 10  1  0
  9 16  1  0
  9 17  1  0
 10 11  1  0
 10 18  1  0
 10 19  1  0
 11 12  1  0
 11 20  1  0
 11 21  1  0
 12 13  1  0
 13 14  1  0
 13 22  1  0
 13 23  1  0
 14 24  1  0
 14 25  1  0
 14 26  1  0
M  RAD  1   9   2
M  END
>  <reaction>  (12) 
rmg_rxn_348

>  <mol_properties>  (12) 
{"0": {"label": "*3", "atom_type": "Cd"}, "1": {"label": "*4", "atom_type": "Cd"}, "8": {"label": "*1", "atom_type": "Cs"}, "9": {"label": "*0", "atom_type": "Cs"}, "14": {"label": "*2", "atom_type": "H0"}}

>  <type>  (12) 
unop_8

>  <geom_source>  (12) 
Heuristics

$$$$

     RDKit          3D

 26 24  0  0  0  0  0  0  0  0999 V2000
   -2.0218    1.0242    1.2986 C   0  0  0  0  0  0  0  0  0  0  0  0
   -2.0464   -0.2669    1.5896 C   0  0  0  0  0  0  0  0  0  0  0  0
   -3.2834   -1.0731    1.8222 C   0  0  0  0  0  0  0  0  0  0  0  0
   -2.9359    1.6014    1.2070 H   0  0  0  0  0  0  0  0  0  0  0  0
   -1.1045   -0.8033    1.6709 H   0  0  0  0  0  0  0  0  0  0  0  0
   -3.3483   -1.9000    1.1103 H   0  0  0  0  0  0  0  0  0  0  0  0
   -4.1818   -0.4626    1.7225 H   0  0  0  0  0  0  0  0  0  0  0  0
   -3.2771   -1.5156    2.8216 H   0  0  0  0  0  0  0  0  0  0  0  0
    0.0928    2.1504    0.2612 C   0  0  0  0  0  3  0  0  0  0  0  0
    1.3627    1.4432    0.7155 C   0  0  0  0  0  0  0  0  0  0  0  0
    1.4023   -0.0198    0.3237 C   0  0  0  0  0  0  0  0  0  0  0  0
    1.4033   -0.1267   -1.0776 O   0  0  0  0  0  0  0  0  0  0  0  0
    1.4033   -1.4553   -1.5339 C   0  0  0  0  0  0  0  0  0  0  0  0
    1.4033   -1.4553   -3.0451 C   0  0  0  0  0  0  0  0  0  0  0  0
   -0.9694    1.5847    0.7823 H   0  0  0  0  0  0  0  0  0  0  0  0
   -0.0044    2.1102   -0.8237 H   0  0  0  0  0  0  0  0  0  0  0  0
    0.0969    3.1983    0.5649 H   0  0  0  0  0  0  0  0  0  0  0  0
    1.4579    1.5025    1.8033 H   0  0  0  0  0  0  0  0  0  0  0  0
    2.2403    1.9395    0.2933 H   0  0  0  0  0  0  0  0  0  0  0  0
    0.5283   -0.5461    0.7391 H   0  0  0  0  0  0  0  0  0  0  0  0
    2.3007   -0.5010    0.7372 H   0  0  0  0  0  0  0  0  0  0  0  0
    2.2881   -1.9841   -1.1495 H   0  0  0  0  0  0  0  0  0  0  0  0
    0.5183   -1.9836   -1.1494 H   0  0  0  0  0  0  0  0  0  0  0  0
    2.2874   -0.9438   -3.4272 H   0  0  0  0  0  0  0  0  0  0  0  0
    0.5184   -0.9450   -3.4272 H   0  0  0  0  0  0  0  0  0  0  0  0
    1.4039   -2.4788   -3.4232 H   0  0  0  0  0  0  0  0  0  0  0  0
  1  2  2  3
  1  4  1  0
  1 15  1  0
  2  3  1  0
  2  5  1  0
  3  6  1  0
  3  7  1  0
  3  8  1  0
  9 10  1  0
  9 16  1  0
  9 17  1  0
 10 11  1  0
 10 18  1  0
 10 19  1  0
 11 12  1  0
 11 20  1  0
 11 21  1  0
 12 13  1  0
 13 14  1  0
 13 22  1  0
 13 23  1  0
 14 24  1  0
 14 25  1  0
 14 26  1  0
M  RAD  1   9   2
M  END
>  <reaction>  (13) 
rmg_rxn_348

>  <mol_properties>  (13) 
{"0": {"label": "*3", "atom_type": "Cd"}, "1": {"label": "*4", "atom_type": "Cd"}, "8": {"label": "*1", "atom_type": "Cs"}, "9": {"label": "*0", "atom_type": "Cs"}, "14": {"label": "*2", "atom_type": "H0"}}

>  <type>  (13) 
unop_9

>  <geom_source>  (13) 
Heuristics

$$$$

     RDKit          3D

 26 24  0  0  0  0  0  0  0  0999 V2000
   -1.9791    0.6563    1.0206 C   0  0  0  0  0  0  0  0  0  0  0  0
   -2.1525    0.5835    2.3309 C   0  0  0  0  0  0  0  0  0  0  0  0
   -3.4745    0.6231    3.0274 C   0  0  0  0  0  0  0  0  0  0  0  0
   -2.8206    0.7533    0.3427 H   0  0  0  0  0  0  0  0  0  0  0  0
   -1.2787    0.4870    2.9701 H   0  0  0  0  0  0  0  0  0  0  0  0
   -3.6324   -0.2857    3.6139 H   0  0  0  0  0  0  0  0  0  0  0  0
   -4.2965    0.7208    2.3173 H   0  0  0  0  0  0  0  0  0  0  0  0
   -3.5211    1.4626    3.7258 H   0  0  0  0  0  0  0  0  0  0  0  0
    0.1355    1.7825   -0.0168 C   0  0  0  0  0  3  0  0  0  0  0  0
    1.4054    1.0752    0.4375 C   0  0  0  0  0  0  0  0  0  0  0  0
    1.4450   -0.3877    0.0457 C   0  0  0  0  0  0  0  0  0  0  0  0
    1.4460   -0.4946   -1.3556 O   0  0  0  0  0  0  0  0  0  0  0  0
    1.4460   -1.8232   -1.8120 C   0  0  0  0  0  0  0  0  0  0  0  0
    1.4460   -1.8232   -3.3231 C   0  0  0  0  0  0  0  0  0  0  0  0
   -0.9267    1.2168    0.5043 H   0  0  0  0  0  0  0  0  0  0  0  0
    0.0383    1.7423   -1.1017 H   0  0  0  0  0  0  0  0  0  0  0  0
    0.1396    2.8304    0.2869 H   0  0  0  0  0  0  0  0  0  0  0  0
    1.5005    1.1346    1.5253 H   0  0  0  0  0  0  0  0  0  0  0  0
    2.2830    1.5716    0.0153 H   0  0  0  0  0  0  0  0  0  0  0  0
    0.5710   -0.9140    0.4611 H   0  0  0  0  0  0  0  0  0  0  0  0
    2.3434   -0.8690    0.4592 H   0  0  0  0  0  0  0  0  0  0  0  0
    2.3308   -2.3520   -1.4275 H   0  0  0  0  0  0  0  0  0  0  0  0
    0.5610   -2.3515   -1.4275 H   0  0  0  0  0  0  0  0  0  0  0  0
    2.3301   -1.3117   -3.7052 H   0  0  0  0  0  0  0  0  0  0  0  0
    0.5611   -1.3129   -3.7052 H   0  0  0  0  0  0  0  0  0  0  0  0
    1.4466   -2.8468   -3.7012 H   0  0  0  0  0  0  0  0  0  0  0  0
  1  2  2  3
  1  4  1  0
  1 15  1  0
  2  3  1  0
  2  5  1  0
  3  6  1  0
  3  7  1  0
  3  8  1  0
  9 10  1  0
  9 16  1  0
  9 17  1  0
 10 11  1  0
 10 18  1  0
 10 19  1  0
 11 12  1  0
 11 20  1  0
 11 21  1  0
 12 13  1  0
 13 14  1  0
 13 22  1  0
 13 23  1  0
 14 24  1  0
 14 25  1  0
 14 26  1  0
M  RAD  1   9   2
M  END
>  <reaction>  (14) 
rmg_rxn_348

>  <mol_properties>  (14) 
{"0": {"label": "*3", "atom_type": "Cd"}, "1": {"label": "*4", "atom_type": "Cd"}, "8": {"label": "*1", "atom_type": "Cs"}, "9": {"label": "*0", "atom_type": "Cs"}, "14": {"label": "*2", "atom_type": "H0"}}

>  <type>  (14) 
unop_10

>  <geom_source>  (14) 
Heuristics

$$$$

     RDKit          3D

 26 24  0  0  0  0  0  0  0  0999 V2000
   -1.7624    0.6268    1.4464 C   0  0  0  0  0  0  0  0  0  0  0  0
   -2.9271    0.6286    0.8172 C   0  0  0  0  0  0  0  0  0  0  0  0
   -4.2607    0.7771    1.4758 C   0  0  0  0  0  0  0  0  0  0  0  0
   -1.7010    0.7377    2.5239 H   0  0  0  0  0  0  0  0  0  0  0  0
   -2.9383    0.5144   -0.2637 H   0  0  0  0  0  0  0  0  0  0  0  0
   -4.7903    1.6514    1.0886 H   0  0  0  0  0  0  0  0  0  0  0  0
   -4.1617    0.8862    2.5565 H   0  0  0  0  0  0  0  0  0  0  0  0
   -4.8930   -0.0912    1.2738 H   0  0  0  0  0  0  0  0  0  0  0  0
    0.3522    1.7530    0.4090 C   0  0  0  0  0  3  0  0  0  0  0  0
    1.6221    1.0457    0.8633 C   0  0  0  0  0  0  0  0  0  0  0  0
    1.6617   -0.4172    0.4715 C   0  0  0  0  0  0  0  0  0  0  0  0
    1.6626   -0.5241   -0.9298 O   0  0  0  0  0  0  0  0  0  0  0  0
    1.6626   -1.8528   -1.3862 C   0  0  0  0  0  0  0  0  0  0  0  0
    1.6626   -1.8528   -2.8973 C   0  0  0  0  0  0  0  0  0  0  0  0
   -0.7100    1.1873    0.9301 H   0  0  0  0  0  0  0  0  0  0  0  0
    0.2549    1.7127   -0.6759 H   0  0  0  0  0  0  0  0  0  0  0  0
    0.3562    2.8008    0.7127 H   0  0  0  0  0  0  0  0  0  0  0  0
    1.7172    1.1051    1.9511 H   0  0  0  0  0  0  0  0  0  0  0  0
    2.4997    1.5421    0.4411 H   0  0  0  0  0  0  0  0  0  0  0  0
    0.7877   -0.9435    0.8869 H   0  0  0  0  0  0  0  0  0  0  0  0
    2.5601   -0.8985    0.8850 H   0  0  0  0  0  0  0  0  0  0  0  0
    2.5475   -2.3815   -1.0017 H   0  0  0  0  0  0  0  0  0  0  0  0
    0.7777   -2.3810   -1.0017 H   0  0  0  0  0  0  0  0  0  0  0  0
    2.5467   -1.3413   -3.2794 H   0  0  0  0  0  0  0  0  0  0  0  0
    0.7778   -1.3424   -3.2794 H   0  0  0  0  0  0  0  0  0  0  0  0
    1.6632   -2.8763   -3.2754 H   0  0  0  0  0  0  0  0  0  0  0  0
  1  2  2  3
  1  4  1  0
  1 15  1  0
  2  3  1  0
  2  5  1  0
  3  6  1  0
  3  7  1  0
  3  8  1  0
  9 10  1  0
  9 16  1  0
  9 17  1  0
 10 11  1  0
 10 18  1  0
 10 19  1  0
 11 12  1  0
 11 20  1  0
 11 21  1  0
 12 13  1  0
 13 14  1  0
 13 22  1  0
 13 23  1  0
 14 24  1  0
 14 25  1  0
 14 26  1  0
M  RAD  1   9   2
M  END
>  <reaction>  (15) 
rmg_rxn_348

>  <mol_properties>  (15) 
{"0": {"label": "*3", "atom_type": "Cd"}, "1": {"label": "*4", "atom_type": "Cd"}, "8": {"label": "*1", "atom_type": "Cs"}, "9": {"label": "*0", "atom_type": "Cs"}, "14": {"label": "*2", "atom_type": "H0"}}

>  <type>  (15) 
unop_11

>  <geom_source>  (15) 
Heuristics

$$$$

     RDKit          3D

 26 24  0  0  0  0  0  0  0  0999 V2000
   -2.0584    0.9586    1.1372 C   0  0  0  0  0  0  0  0  0  0  0  0
   -1.9612   -0.0867    1.9437 C   0  0  0  0  0  0  0  0  0  0  0  0
   -3.1147   -0.7923    2.5807 C   0  0  0  0  0  0  0  0  0  0  0  0
   -3.0214    1.3856    0.8778 H   0  0  0  0  0  0  0  0  0  0  0  0
   -0.9744   -0.4796    2.1748 H   0  0  0  0  0  0  0  0  0  0  0  0
   -3.1364   -1.8451    2.2877 H   0  0  0  0  0  0  0  0  0  0  0  0
   -4.0652   -0.3376    2.2988 H   0  0  0  0  0  0  0  0  0  0  0  0
   -3.0314   -0.7686    3.6703 H   0  0  0  0  0  0  0  0  0  0  0  0
    0.0562    2.0847    0.0999 C   0  0  0  0  0  3  0  0  0  0  0  0
    1.3260    1.3775    0.5542 C   0  0  0  0  0  0  0  0  0  0  0  0
    1.3656   -0.0855    0.1624 C   0  0  0  0  0  0  0  0  0  0  0  0
    1.3666   -0.1924   -1.2389 O   0  0  0  0  0  0  0  0  0  0  0  0
    1.3666   -1.5210   -1.6953 C   0  0  0  0  0  0  0  0  0  0  0  0
    1.3666   -1.5210   -3.2064 C   0  0  0  0  0  0  0  0  0  0  0  0
   -1.0061    1.5190    0.6210 H   0  0  0  0  0  0  0  0  0  0  0  0
   -0.0411    2.0445   -0.9850 H   0  0  0  0  0  0  0  0  0  0  0  0
    0.0602    3.1326    0.4036 H   0  0  0  0  0  0  0  0  0  0  0  0
    1.4212    1.4368    1.6420 H   0  0  0  0  0  0  0  0  0  0  0  0
    2.2036    1.8738    0.1319 H   0  0  0  0  0  0  0  0  0  0  0  0
    0.4917   -0.6118    0.5778 H   0  0  0  0  0  0  0  0  0  0  0  0
    2.2641   -0.5667    0.5759 H   0  0  0  0  0  0  0  0  0  0  0  0
    2.2514   -2.0497   -1.3109 H   0  0  0  0  0  0  0  0  0  0  0  0
    0.4816   -2.0492   -1.3108 H   0  0  0  0  0  0  0  0  0  0  0  0
    2.2507   -1.0095   -3.5886 H   0  0  0  0  0  0  0  0  0  0  0  0
    0.4818   -1.0106   -3.5886 H   0  0  0  0  0  0  0  0  0  0  0  0
    1.3672   -2.5445   -3.5845 H   0  0  0  0  0  0  0  0  0  0  0  0
  1  2  2  3
  1  4  1  0
  1 15  1  0
  2  3  1  0
  2  5  1  0
  3  6  1  0
  3  7  1  0
  3  8  1  0
  9 10  1  0
  9 16  1  0
  9 17  1  0
 10 11  1  0
 10 18  1  0
 10 19  1  0
 11 12  1  0
 11 20  1  0
 11 21  1  0
 12 13  1  0
 13 14  1  0
 13 22  1  0
 13 23  1  0
 14 24  1  0
 14 25  1  0
 14 26  1  0
M  RAD  1   9   2
M  END
>  <reaction>  (16) 
rmg_rxn_348

>  <mol_properties>  (16) 
{"0": {"label": "*3", "atom_type": "Cd"}, "1": {"label": "*4", "atom_type": "Cd"}, "8": {"label": "*1", "atom_type": "Cs"}, "9": {"label": "*0", "atom_type": "Cs"}, "14": {"label": "*2", "atom_type": "H0"}}

>  <type>  (16) 
unop_12

>  <geom_source>  (16) 
Heuristics

$$$$

     RDKit          3D

 26 24  0  0  0  0  0  0  0  0999 V2000
   -1.7584    0.0549    0.5217 O   0  0  0  0  0  0  0  0  0  0  0  0
    0.2302   -1.2625    0.3363 C   0  0  0  0  0  0  0  0  0  0  0  0
   -1.1640   -0.9884   -0.2208 C   0  0  0  0  0  0  0  0  0  0  0  0
   -3.0488    0.3186    0.0137 C   0  0  0  0  0  0  0  0  0  0  0  0
   -3.6819    1.4429    0.8189 C   0  0  0  0  0  0  0  0  0  0  0  0
    3.5924    1.7839   -0.1378 C   0  0  0  0  0  0  0  0  0  0  0  0
    3.1444    0.4130   -0.5395 C   0  0  0  0  0  0  0  0  0  0  0  0
    0.9202   -2.3687   -0.4506 C   0  0  0  0  0  3  0  0  0  0  0  0
    1.8688    0.0402   -0.4195 C   0  0  0  0  0  0  0  0  0  0  0  0
    0.1557   -1.5614    1.4045 H   0  0  0  0  0  0  0  0  0  0  0  0
    0.8421   -0.3372    0.2683 H   0  0  0  0  0  0  0  0  0  0  0  0
   -2.9975    0.6398   -1.0518 H   0  0  0  0  0  0  0  0  0  0  0  0
   -3.7004   -0.5809    0.1001 H   0  0  0  0  0  0  0  0  0  0  0  0
   -1.7698   -1.9206   -0.1392 H   0  0  0  0  0  0  0  0  0  0  0  0
   -1.0670   -0.6999   -1.2933 H   0  0  0  0  0  0  0  0  0  0  0  0
   -4.6984    1.6592    0.4278 H   0  0  0  0  0  0  0  0  0  0  0  0
   -3.0627    2.3617    0.7406 H   0  0  0  0  0  0  0  0  0  0  0  0
   -3.7621    1.1472    1.8866 H   0  0  0  0  0  0  0  0  0  0  0  0
    3.0549    2.5492   -0.7368 H   0  0  0  0  0  0  0  0  0  0  0  0
    4.6829    1.8886   -0.3170 H   0  0  0  0  0  0  0  0  0  0  0  0
    3.3883    1.9485    0.9413 H   0  0  0  0  0  0  0  0  0  0  0  0
    3.8691   -0.2915   -0.9357 H   0  0  0  0  0  0  0  0  0  0  0  0
    0.3660   -3.3256   -0.3434 H   0  0  0  0  0  0  0  0  0  0  0  0
    1.9579   -2.5065   -0.0804 H   0  0  0  0  0  0  0  0  0  0  0  0
    1.1217    0.7234   -0.0266 H   0  0  0  0  0  0  0  0  0  0  0  0
    1.5163   -1.1276   -0.7676 H   0  0  0  0  0  0  0  0  0  0  0  0
  1  4  1  0
  1  3  1  0
  2  8  1  0
  2  3  1  0
  2 10  1  0
  2 11  1  0
  3 14  1  0
  3 15  1  0
  4  5  1  0
  4 12  1  0
  4 13  1  0
  5 16  1  0
  5 17  1  0
  5 18  1  0
  6  7  1  0
  6 19  1  0
  6 20  1  0
  6 21  1  0
  7  9  2  3
  7 22  1  0
  8 23  1  0
  8 24  1  0
  9 25  1  0
  9 26  1  0
M  RAD  1   8   2
M  END
>  <reaction>  (17) 
rmg_rxn_348

>  <mol_properties>  (17) 
{"0": {"label": "*3", "atom_type": "Cd"}, "1": {"label": "*4", "atom_type": "Cd"}, "8": {"label": "*1", "atom_type": "Cs"}, "9": {"label": "*0", "atom_type": "Cs"}, "14": {"label": "*2", "atom_type": "H0"}}

>  <type>  (17) 
unop_13

>  <geom_source>  (17) 
AutoTST

$$$$

     RDKit          3D

 26 24  0  0  0  0  0  0  0  0999 V2000
   -2.0420    0.8163    1.0315 C   0  0  0  0  0  0  0  0  0  0  0  0
   -1.9993    0.2170    2.2111 C   0  0  0  0  0  0  0  0  0  0  0  0
   -3.1902   -0.1168    3.0504 C   0  0  0  0  0  0  0  0  0  0  0  0
   -2.9833    1.1148    0.5821 H   0  0  0  0  0  0  0  0  0  0  0  0
   -1.0324   -0.0635    2.6210 H   0  0  0  0  0  0  0  0  0  0  0  0
   -3.2456   -1.1924    3.2367 H   0  0  0  0  0  0  0  0  0  0  0  0
   -4.1175    0.1967    2.5692 H   0  0  0  0  0  0  0  0  0  0  0  0
   -3.1269    0.3708    4.0266 H   0  0  0  0  0  0  0  0  0  0  0  0
    0.0726    1.9425   -0.0059 C   0  0  0  0  0  3  0  0  0  0  0  0
    1.3424    1.2352    0.4485 C   0  0  0  0  0  0  0  0  0  0  0  0
    1.3820   -0.2277    0.0566 C   0  0  0  0  0  0  0  0  0  0  0  0
    1.3830   -0.3347   -1.3447 O   0  0  0  0  0  0  0  0  0  0  0  0
    1.3830   -1.6633   -1.8010 C   0  0  0  0  0  0  0  0  0  0  0  0
    1.3830   -1.6633   -3.3122 C   0  0  0  0  0  0  0  0  0  0  0  0
   -0.9897    1.3767    0.5152 H   0  0  0  0  0  0  0  0  0  0  0  0
   -0.0247    1.9022   -1.0908 H   0  0  0  0  0  0  0  0  0  0  0  0
    0.0766    2.9903    0.2978 H   0  0  0  0  0  0  0  0  0  0  0  0
    1.4376    1.2946    1.5362 H   0  0  0  0  0  0  0  0  0  0  0  0
    2.2200    1.7315    0.0262 H   0  0  0  0  0  0  0  0  0  0  0  0
    0.5081   -0.7540    0.4720 H   0  0  0  0  0  0  0  0  0  0  0  0
    2.2805   -0.7090    0.4701 H   0  0  0  0  0  0  0  0  0  0  0  0
    2.2678   -2.1920   -1.4166 H   0  0  0  0  0  0  0  0  0  0  0  0
    0.4980   -2.1915   -1.4165 H   0  0  0  0  0  0  0  0  0  0  0  0
    2.2671   -1.1518   -3.6943 H   0  0  0  0  0  0  0  0  0  0  0  0
    0.4982   -1.1529   -3.6943 H   0  0  0  0  0  0  0  0  0  0  0  0
    1.3836   -2.6868   -3.6903 H   0  0  0  0  0  0  0  0  0  0  0  0
  1  2  2  3
  1  4  1  0
  1 15  1  0
  2  3  1  0
  2  5  1  0
  3  6  1  0
  3  7  1  0
  3  8  1  0
  9 10  1  0
  9 16  1  0
  9 17  1  0
 10 11  1  0
 10 18  1  0
 10 19  1  0
 11 12  1  0
 11 20  1  0
 11 21  1  0
 12 13  1  0
 13 14  1  0
 13 22  1  0
 13 23  1  0
 14 24  1  0
 14 25  1  0
 14 26  1  0
M  RAD  1   9   2
M  END
>  <reaction>  (18) 
rmg_rxn_348

>  <mol_properties>  (18) 
{"0": {"label": "*3", "atom_type": "Cd"}, "1": {"label": "*4", "atom_type": "Cd"}, "8": {"label": "*1", "atom_type": "Cs"}, "9": {"label": "*0", "atom_type": "Cs"}, "14": {"label": "*2", "atom_type": "H0"}}

>  <type>  (18) 
unop_14

>  <geom_source>  (18) 
gaussian_log

$$$$
