
     RDKit          3D

  8  7  0  0  0  0  0  0  0  0999 V2000
    0.9548    0.1194   -0.0790 C   0  0  0  0  0  0  0  0  0  0  0  0
   -0.4838   -0.2649    0.0193 C   0  0  0  0  0  0  0  0  0  0  0  0
   -0.8933   -1.1081    0.8664 N   0  0  0  0  0  0  0  0  0  0  0  0
    1.3360   -0.0983   -1.0800 H   0  0  0  0  0  0  0  0  0  0  0  0
    1.0698    1.1948    0.0786 H   0  0  0  0  0  0  0  0  0  0  0  0
    1.5426   -0.4219    0.6602 H   0  0  0  0  0  0  0  0  0  0  0  0
   -1.1575    0.2324   -0.6905 H   0  0  0  0  0  0  0  0  0  0  0  0
   -1.8989   -1.2455    0.7886 H   0  0  0  0  0  0  0  0  0  0  0  0
  1  2  1  0
  1  4  1  0
  1  5  1  0
  1  6  1  0
  2  3  2  3
  2  7  1  0
  3  8  1  0
M  END
>  <reaction>  (1) 
rmg_rxn_16525

>  <mol_properties>  (1) 
{"2": {"label": "donator", "atom_type": "N3d"}, "7": {"label": "d_hydrogen", "atom_type": "H0"}}

>  <type>  (1) 
r1h

$$$$

     RDKit          3D

 11 10  0  0  0  0  0  0  0  0999 V2000
    2.2312    0.7411   -0.3115 C   0  0  0  0  0  3  0  0  0  0  0  0
    0.6426    1.1039   -0.7896 S   0  0  0  0  0  0  0  0  0  0  0  0
    0.9085    2.4168   -2.0061 C   0  0  0  0  0  0  0  0  0  0  0  0
    1.5570    1.9429   -3.2967 C   0  0  0  0  0  0  0  0  0  0  0  0
    2.3707   -0.0938    0.3575 H   0  0  0  0  0  0  0  0  0  0  0  0
    3.0432    1.4267   -0.5066 H   0  0  0  0  0  0  0  0  0  0  0  0
    1.4997    3.2005   -1.5289 H   0  0  0  0  0  0  0  0  0  0  0  0
   -0.0844    2.8269   -2.1951 H   0  0  0  0  0  0  0  0  0  0  0  0
    0.9451    1.1830   -3.7838 H   0  0  0  0  0  0  0  0  0  0  0  0
    1.6803    2.7812   -3.9857 H   0  0  0  0  0  0  0  0  0  0  0  0
    2.5399    1.5119   -3.1043 H   0  0  0  0  0  0  0  0  0  0  0  0
  1  2  1  0
  1  5  1  0
  1  6  1  0
  2  3  1  0
  3  4  1  0
  3  7  1  0
  3  8  1  0
  4  9  1  0
  4 10  1  0
  4 11  1  0
M  RAD  1   1   2
M  END
>  <reaction>  (2) 
rmg_rxn_16525

>  <mol_properties>  (2) 
{"0": {"label": "acceptor", "atom_type": "Cs"}}

>  <type>  (2) 
r2

$$$$

     RDKit          3D

 12 11  0  0  0  0  0  0  0  0999 V2000
    1.8075    0.1979    0.4695 C   0  0  0  0  0  0  0  0  0  0  0  0
    1.0072   -0.8859   -0.7259 S   0  0  0  0  0  0  0  0  0  0  0  0
   -0.7258   -0.6904   -0.2447 C   0  0  0  0  0  0  0  0  0  0  0  0
   -1.0856   -1.2776    1.1108 C   0  0  0  0  0  0  0  0  0  0  0  0
    1.7126   -0.1777    1.4878 H   0  0  0  0  0  0  0  0  0  0  0  0
    1.4024    1.2089    0.4095 H   0  0  0  0  0  0  0  0  0  0  0  0
    2.8647    0.2298    0.2095 H   0  0  0  0  0  0  0  0  0  0  0  0
   -1.2866   -1.1892   -1.0369 H   0  0  0  0  0  0  0  0  0  0  0  0
   -0.9814    0.3707   -0.2917 H   0  0  0  0  0  0  0  0  0  0  0  0
   -0.5492   -0.7768    1.9180 H   0  0  0  0  0  0  0  0  0  0  0  0
   -0.8418   -2.3397    1.1503 H   0  0  0  0  0  0  0  0  0  0  0  0
   -2.1545   -1.1604    1.3035 H   0  0  0  0  0  0  0  0  0  0  0  0
  1  2  1  0
  1  5  1  0
  1  6  1  0
  1  7  1  0
  2  3  1  0
  3  4  1  0
  3  8  1  0
  3  9  1  0
  4 10  1  0
  4 11  1  0
  4 12  1  0
M  END
>  <reaction>  (3) 
rmg_rxn_16525

>  <mol_properties>  (3) 
{"0": {"label": "a_hydrogen", "atom_type": "H0"}, "1": {"label": "acceptor", "atom_type": "Cs"}}

>  <type>  (3) 
r2h

$$$$

     RDKit          3D

 19 17  0  0  0  0  0  0  0  0999 V2000
   -3.3396   -0.4349   -0.5459 C   0  0  0  0  0  0  0  0  0  0  0  0
   -2.0012    0.1348   -0.1799 C   0  0  0  0  0  0  0  0  0  0  0  0
   -1.7233    0.5385    0.9736 N   0  0  0  0  0  0  0  0  0  0  0  0
   -4.0065   -0.4382    0.3142 H   0  0  0  0  0  0  0  0  0  0  0  0
   -3.7857    0.1528   -1.3515 H   0  0  0  0  0  0  0  0  0  0  0  0
   -3.2187   -1.4551   -0.9179 H   0  0  0  0  0  0  0  0  0  0  0  0
   -1.2528    0.1725   -0.9886 H   0  0  0  0  0  0  0  0  0  0  0  0
   -0.5325    0.9386    0.9403 H   0  0  0  0  0  0  0  0  0  0  0  0
    0.7272    1.3856    0.7373 C   0  0  0  0  0  3  0  0  0  0  0  0
    1.4925    0.6454   -0.6531 S   0  0  0  0  0  0  0  0  0  0  0  0
    2.0240   -0.9444    0.0295 C   0  0  0  0  0  0  0  0  0  0  0  0
    0.8967   -1.8835    0.4263 C   0  0  0  0  0  0  0  0  0  0  0  0
    1.2297    1.1803    1.6819 H   0  0  0  0  0  0  0  0  0  0  0  0
    0.5835    2.4502    0.5678 H   0  0  0  0  0  0  0  0  0  0  0  0
    2.6798   -0.7397    0.8781 H   0  0  0  0  0  0  0  0  0  0  0  0
    2.6390   -1.3867   -0.7557 H   0  0  0  0  0  0  0  0  0  0  0  0
    0.2572   -2.1082   -0.4283 H   0  0  0  0  0  0  0  0  0  0  0  0
    1.3095   -2.8219    0.8027 H   0  0  0  0  0  0  0  0  0  0  0  0
    0.2723   -1.4498    1.2073 H   0  0  0  0  0  0  0  0  0  0  0  0
  1  2  1  0
  1  4  1  0
  1  5  1  0
  1  6  1  0
  2  3  2  3
  2  7  1  0
  3  8  1  0
  9 10  1  0
  9 13  1  0
  9 14  1  0
 10 11  1  0
 11 12  1  0
 11 15  1  0
 11 16  1  0
 12 17  1  0
 12 18  1  0
 12 19  1  0
M  RAD  1   9   2
M  END
>  <reaction>  (4) 
rmg_rxn_16525

>  <mol_properties>  (4) 
{"1": {"label": "*0", "atom_type": "Cd"}, "2": {"label": "*1", "atom_type": "N3d"}, "7": {"label": "*2", "atom_type": "H0"}, "8": {"label": "*3", "atom_type": "Cs"}, "9": {"label": "*4", "atom_type": "S2s"}}

>  <type>  (4) 
ts

$$$$

     RDKit          3D

 19 17  0  0  0  0  0  0  0  0999 V2000
   -3.3427   -0.4423   -0.5209 C   0  0  0  0  0  0  0  0  0  0  0  0
   -1.9967    0.1426   -0.2264 C   0  0  0  0  0  0  0  0  0  0  0  0
   -1.6299    0.4714    0.9120 N   0  0  0  0  0  0  0  0  0  0  0  0
   -3.9259   -0.5281    0.3916 H   0  0  0  0  0  0  0  0  0  0  0  0
   -3.8648    0.1959   -1.2321 H   0  0  0  0  0  0  0  0  0  0  0  0
   -3.2199   -1.4254   -0.9731 H   0  0  0  0  0  0  0  0  0  0  0  0
   -1.3527    0.2505   -1.1163 H   0  0  0  0  0  0  0  0  0  0  0  0
   -0.4799    0.9333    0.9197 H   0  0  0  0  0  0  0  0  0  0  0  0
    0.7331    1.4046    0.7454 C   0  0  0  0  0  3  0  0  0  0  0  0
    1.4734    0.6201   -0.6467 S   0  0  0  0  0  0  0  0  0  0  0  0
    2.0237   -0.9571    0.0945 C   0  0  0  0  0  0  0  0  0  0  0  0
    0.8766   -1.8992    0.4043 C   0  0  0  0  0  0  0  0  0  0  0  0
    1.2864    1.2251    1.6592 H   0  0  0  0  0  0  0  0  0  0  0  0
    0.6014    2.4584    0.5348 H   0  0  0  0  0  0  0  0  0  0  0  0
    2.5892   -0.7084    0.9927 H   0  0  0  0  0  0  0  0  0  0  0  0
    2.6983   -1.3904   -0.6435 H   0  0  0  0  0  0  0  0  0  0  0  0
    0.3274   -2.1398   -0.5033 H   0  0  0  0  0  0  0  0  0  0  0  0
    1.2668   -2.8220    0.8291 H   0  0  0  0  0  0  0  0  0  0  0  0
    0.1873   -1.4527    1.1173 H   0  0  0  0  0  0  0  0  0  0  0  0
  1  2  1  0
  1  4  1  0
  1  5  1  0
  1  6  1  0
  2  3  2  3
  2  7  1  0
  3  8  1  0
  9 10  1  0
  9 13  1  0
  9 14  1  0
 10 11  1  0
 11 12  1  0
 11 15  1  0
 11 16  1  0
 12 17  1  0
 12 18  1  0
 12 19  1  0
M  RAD  1   9   2
M  END
>  <reaction>  (5) 
rmg_rxn_16525

>  <mol_properties>  (5) 
{"1": {"label": "*0", "atom_type": "Cd"}, "2": {"label": "*1", "atom_type": "N3d"}, "7": {"label": "*2", "atom_type": "H0"}, "8": {"label": "*3", "atom_type": "Cs"}, "9": {"label": "*4", "atom_type": "S2s"}}

>  <type>  (5) 
unop_1

>  <geom_source>  (5) 
crest_best.xyz

$$$$

     RDKit          3D

 19 17  0  0  0  0  0  0  0  0999 V2000
   -0.8991   -1.1543   -3.3675 C   0  0  0  0  0  0  0  0  0  0  0  0
   -0.8991   -1.1543   -1.8752 C   0  0  0  0  0  0  0  0  0  0  0  0
   -0.8991   -0.0817   -1.2075 N   0  0  0  0  0  0  0  0  0  0  0  0
   -0.0208   -1.6843   -3.7449 H   0  0  0  0  0  0  0  0  0  0  0  0
   -1.7773   -1.6843   -3.7449 H   0  0  0  0  0  0  0  0  0  0  0  0
   -0.8991   -0.1337   -3.7461 H   0  0  0  0  0  0  0  0  0  0  0  0
   -0.8991   -2.1440   -1.4005 H   0  0  0  0  0  0  0  0  0  0  0  0
   -0.8991   -0.3118   -0.0079 H   0  0  0  0  0  0  0  0  0  0  0  0
   -0.8991   -0.5582    1.2761 C   0  0  0  0  0  3  0  0  0  0  0  0
    0.5475    0.1351    2.0953 S   0  0  0  0  0  0  0  0  0  0  0  0
    0.9376    1.5048    0.9796 C   0  0  0  0  0  0  0  0  0  0  0  0
    1.4343    1.0903   -0.3962 C   0  0  0  0  0  0  0  0  0  0  0  0
   -1.2806   -1.3474    1.9223 H   0  0  0  0  0  0  0  0  0  0  0  0
   -1.6753    0.1981    1.1527 H   0  0  0  0  0  0  0  0  0  0  0  0
    1.7050    2.0749    1.5059 H   0  0  0  0  0  0  0  0  0  0  0  0
    0.0588    2.1490    0.9007 H   0  0  0  0  0  0  0  0  0  0  0  0
    0.6720    0.5362   -0.9458 H   0  0  0  0  0  0  0  0  0  0  0  0
    1.6916    1.9717   -0.9882 H   0  0  0  0  0  0  0  0  0  0  0  0
    2.3192    0.4584   -0.3148 H   0  0  0  0  0  0  0  0  0  0  0  0
  1  2  1  0
  1  4  1  0
  1  5  1  0
  1  6  1  0
  2  3  2  3
  2  7  1  0
  3  8  1  0
  9 10  1  0
  9 13  1  0
  9 14  1  0
 10 11  1  0
 11 12  1  0
 11 15  1  0
 11 16  1  0
 12 17  1  0
 12 18  1  0
 12 19  1  0
M  RAD  1   9   2
M  END
>  <reaction>  (6) 
rmg_rxn_16525

>  <mol_properties>  (6) 
{"1": {"label": "*0", "atom_type": "Cd"}, "2": {"label": "*1", "atom_type": "N3d"}, "7": {"label": "*2", "atom_type": "H0"}, "8": {"label": "*3", "atom_type": "Cs"}, "9": {"label": "*4", "atom_type": "S2s"}}

>  <type>  (6) 
unop_2

>  <geom_source>  (6) 
Heuristics

$$$$

     RDKit          3D

 19 17  0  0  0  0  0  0  0  0999 V2000
   -0.7912    0.2415   -3.1731 C   0  0  0  0  0  0  0  0  0  0  0  0
   -0.7912    0.2415   -1.6808 C   0  0  0  0  0  0  0  0  0  0  0  0
   -0.7912    1.3141   -1.0131 N   0  0  0  0  0  0  0  0  0  0  0  0
    0.0870   -0.2885   -3.5505 H   0  0  0  0  0  0  0  0  0  0  0  0
   -1.6695   -0.2885   -3.5505 H   0  0  0  0  0  0  0  0  0  0  0  0
   -0.7912    1.2621   -3.5517 H   0  0  0  0  0  0  0  0  0  0  0  0
   -0.7912   -0.7482   -1.2061 H   0  0  0  0  0  0  0  0  0  0  0  0
   -0.7912    1.0839    0.1865 H   0  0  0  0  0  0  0  0  0  0  0  0
   -0.7912    0.8376    1.4705 C   0  0  0  0  0  3  0  0  0  0  0  0
    0.0440   -0.7101    1.8598 S   0  0  0  0  0  0  0  0  0  0  0  0
    1.5717   -0.5119    0.9111 C   0  0  0  0  0  0  0  0  0  0  0  0
    1.3971   -0.5362   -0.5990 C   0  0  0  0  0  0  0  0  0  0  0  0
   -1.6983    0.8676    2.0726 H   0  0  0  0  0  0  0  0  0  0  0  0
   -0.1679    1.6926    1.7351 H   0  0  0  0  0  0  0  0  0  0  0  0
    2.2031   -1.3409    1.2350 H   0  0  0  0  0  0  0  0  0  0  0  0
    2.0631    0.4090    1.2334 H   0  0  0  0  0  0  0  0  0  0  0  0
    0.7846    0.2982   -0.9437 H   0  0  0  0  0  0  0  0  0  0  0  0
    2.3676   -0.4590   -1.0946 H   0  0  0  0  0  0  0  0  0  0  0  0
    0.9184   -1.4622   -0.9191 H   0  0  0  0  0  0  0  0  0  0  0  0
  1  2  1  0
  1  4  1  0
  1  5  1  0
  1  6  1  0
  2  3  2  3
  2  7  1  0
  3  8  1  0
  9 10  1  0
  9 13  1  0
  9 14  1  0
 10 11  1  0
 11 12  1  0
 11 15  1  0
 11 16  1  0
 12 17  1  0
 12 18  1  0
 12 19  1  0
M  RAD  1   9   2
M  END
>  <reaction>  (7) 
rmg_rxn_16525

>  <mol_properties>  (7) 
{"1": {"label": "*0", "atom_type": "Cd"}, "2": {"label": "*1", "atom_type": "N3d"}, "7": {"label": "*2", "atom_type": "H0"}, "8": {"label": "*3", "atom_type": "Cs"}, "9": {"label": "*4", "atom_type": "S2s"}}

>  <type>  (7) 
unop_3

>  <geom_source>  (7) 
Heuristics

$$$$

     RDKit          3D

 19 17  0  0  0  0  0  0  0  0999 V2000
   -0.3693   -1.5481   -3.4698 C   0  0  0  0  0  0  0  0  0  0  0  0
   -0.3693   -1.5481   -1.9774 C   0  0  0  0  0  0  0  0  0  0  0  0
   -0.3693   -0.4755   -1.3097 N   0  0  0  0  0  0  0  0  0  0  0  0
    0.5090   -2.0781   -3.8472 H   0  0  0  0  0  0  0  0  0  0  0  0
   -1.2475   -2.0781   -3.8472 H   0  0  0  0  0  0  0  0  0  0  0  0
   -0.3693   -0.5275   -3.8483 H   0  0  0  0  0  0  0  0  0  0  0  0
   -0.3693   -2.5378   -1.5028 H   0  0  0  0  0  0  0  0  0  0  0  0
   -0.3693   -0.7057   -0.1101 H   0  0  0  0  0  0  0  0  0  0  0  0
   -0.3693   -0.9520    1.1738 C   0  0  0  0  0  3  0  0  0  0  0  0
    0.4659    0.3417    2.1083 S   0  0  0  0  0  0  0  0  0  0  0  0
   -0.0436    1.8068    1.1772 C   0  0  0  0  0  0  0  0  0  0  0  0
    0.5342    1.9089   -0.2254 C   0  0  0  0  0  0  0  0  0  0  0  0
   -0.2044   -1.8858    1.7096 H   0  0  0  0  0  0  0  0  0  0  0  0
   -1.4424   -0.7633    1.1228 H   0  0  0  0  0  0  0  0  0  0  0  0
    0.2891    2.6474    1.7884 H   0  0  0  0  0  0  0  0  0  0  0  0
   -1.1353    1.8408    1.1541 H   0  0  0  0  0  0  0  0  0  0  0  0
    0.1955    1.0868   -0.8576 H   0  0  0  0  0  0  0  0  0  0  0  0
    0.2175    2.8408   -0.6994 H   0  0  0  0  0  0  0  0  0  0  0  0
    1.6241    1.8880   -0.1982 H   0  0  0  0  0  0  0  0  0  0  0  0
  1  2  1  0
  1  4  1  0
  1  5  1  0
  1  6  1  0
  2  3  2  3
  2  7  1  0
  3  8  1  0
  9 10  1  0
  9 13  1  0
  9 14  1  0
 10 11  1  0
 11 12  1  0
 11 15  1  0
 11 16  1  0
 12 17  1  0
 12 18  1  0
 12 19  1  0
M  RAD  1   9   2
M  END
>  <reaction>  (8) 
rmg_rxn_16525

>  <mol_properties>  (8) 
{"1": {"label": "*0", "atom_type": "Cd"}, "2": {"label": "*1", "atom_type": "N3d"}, "7": {"label": "*2", "atom_type": "H0"}, "8": {"label": "*3", "atom_type": "Cs"}, "9": {"label": "*4", "atom_type": "S2s"}}

>  <type>  (8) 
unop_4

>  <geom_source>  (8) 
Heuristics

$$$$

     RDKit          3D

 19 17  0  0  0  0  0  0  0  0999 V2000
    0.5198    0.4701   -3.5014 C   0  0  0  0  0  0  0  0  0  0  0  0
    0.5198    0.4701   -2.0091 C   0  0  0  0  0  0  0  0  0  0  0  0
    0.5198    1.5427   -1.3414 N   0  0  0  0  0  0  0  0  0  0  0  0
    1.3981   -0.0599   -3.8788 H   0  0  0  0  0  0  0  0  0  0  0  0
   -0.3584   -0.0599   -3.8788 H   0  0  0  0  0  0  0  0  0  0  0  0
    0.5198    1.4907   -3.8800 H   0  0  0  0  0  0  0  0  0  0  0  0
    0.5198   -0.5196   -1.5344 H   0  0  0  0  0  0  0  0  0  0  0  0
    0.5198    1.3126   -0.1418 H   0  0  0  0  0  0  0  0  0  0  0  0
    0.5198    1.0662    1.1422 C   0  0  0  0  0  3  0  0  0  0  0  0
   -0.9268    0.1190    1.6466 S   0  0  0  0  0  0  0  0  0  0  0  0
   -0.2317   -1.5507    1.6937 C   0  0  0  0  0  0  0  0  0  0  0  0
    0.1526   -2.1242    0.3391 C   0  0  0  0  0  0  0  0  0  0  0  0
    0.2356    2.1172    1.1714 H   0  0  0  0  0  0  0  0  0  0  0  0
    1.3480    0.9089    1.8344 H   0  0  0  0  0  0  0  0  0  0  0  0
   -1.0114   -2.1575    2.1570 H   0  0  0  0  0  0  0  0  0  0  0  0
    0.6218   -1.5521    2.3755 H   0  0  0  0  0  0  0  0  0  0  0  0
    0.9463   -1.5416   -0.1306 H   0  0  0  0  0  0  0  0  0  0  0  0
    0.5173   -3.1480    0.4501 H   0  0  0  0  0  0  0  0  0  0  0  0
   -0.7044   -2.1339   -0.3351 H   0  0  0  0  0  0  0  0  0  0  0  0
  1  2  1  0
  1  4  1  0
  1  5  1  0
  1  6  1  0
  2  3  2  3
  2  7  1  0
  3  8  1  0
  9 10  1  0
  9 13  1  0
  9 14  1  0
 10 11  1  0
 11 12  1  0
 11 15  1  0
 11 16  1  0
 12 17  1  0
 12 18  1  0
 12 19  1  0
M  RAD  1   9   2
M  END
>  <reaction>  (9) 
rmg_rxn_16525

>  <mol_properties>  (9) 
{"1": {"label": "*0", "atom_type": "Cd"}, "2": {"label": "*1", "atom_type": "N3d"}, "7": {"label": "*2", "atom_type": "H0"}, "8": {"label": "*3", "atom_type": "Cs"}, "9": {"label": "*4", "atom_type": "S2s"}}

>  <type>  (9) 
unop_5

>  <geom_source>  (9) 
Heuristics

$$$$

     RDKit          3D

 19 17  0  0  0  0  0  0  0  0999 V2000
    0.4290   -1.5034   -3.6168 C   0  0  0  0  0  0  0  0  0  0  0  0
    0.4290   -1.5034   -2.1244 C   0  0  0  0  0  0  0  0  0  0  0  0
    0.4290   -0.4307   -1.4568 N   0  0  0  0  0  0  0  0  0  0  0  0
    1.3072   -2.0334   -3.9942 H   0  0  0  0  0  0  0  0  0  0  0  0
   -0.4493   -2.0334   -3.9942 H   0  0  0  0  0  0  0  0  0  0  0  0
    0.4290   -0.4827   -3.9954 H   0  0  0  0  0  0  0  0  0  0  0  0
    0.4290   -2.4931   -1.6498 H   0  0  0  0  0  0  0  0  0  0  0  0
    0.4290   -0.6609   -0.2572 H   0  0  0  0  0  0  0  0  0  0  0  0
    0.4290   -0.9073    1.0268 C   0  0  0  0  0  3  0  0  0  0  0  0
    0.4290    0.6062    2.0034 S   0  0  0  0  0  0  0  0  0  0  0  0
   -1.2016    1.2707    1.5878 C   0  0  0  0  0  0  0  0  0  0  0  0
   -1.3563    1.7389    0.1496 C   0  0  0  0  0  0  0  0  0  0  0  0
    1.3429   -1.4446    1.2762 H   0  0  0  0  0  0  0  0  0  0  0  0
   -0.4259   -1.5346    1.2825 H   0  0  0  0  0  0  0  0  0  0  0  0
   -1.3395    2.1054    2.2771 H   0  0  0  0  0  0  0  0  0  0  0  0
   -1.9559    0.5213    1.8386 H   0  0  0  0  0  0  0  0  0  0  0  0
   -1.2418    0.9128   -0.5537 H   0  0  0  0  0  0  0  0  0  0  0  0
   -2.3490    2.1679   -0.0052 H   0  0  0  0  0  0  0  0  0  0  0  0
   -0.6107    2.4964   -0.0938 H   0  0  0  0  0  0  0  0  0  0  0  0
  1  2  1  0
  1  4  1  0
  1  5  1  0
  1  6  1  0
  2  3  2  3
  2  7  1  0
  3  8  1  0
  9 10  1  0
  9 13  1  0
  9 14  1  0
 10 11  1  0
 11 12  1  0
 11 15  1  0
 11 16  1  0
 12 17  1  0
 12 18  1  0
 12 19  1  0
M  RAD  1   9   2
M  END
>  <reaction>  (10) 
rmg_rxn_16525

>  <mol_properties>  (10) 
{"1": {"label": "*0", "atom_type": "Cd"}, "2": {"label": "*1", "atom_type": "N3d"}, "7": {"label": "*2", "atom_type": "H0"}, "8": {"label": "*3", "atom_type": "Cs"}, "9": {"label": "*4", "atom_type": "S2s"}}

>  <type>  (10) 
unop_6

>  <geom_source>  (10) 
Heuristics

$$$$

     RDKit          3D

 19 17  0  0  0  0  0  0  0  0999 V2000
    0.8905    0.1098   -3.6416 C   0  0  0  0  0  0  0  0  0  0  0  0
    0.8905    0.1098   -2.1492 C   0  0  0  0  0  0  0  0  0  0  0  0
    0.8905    1.1825   -1.4815 N   0  0  0  0  0  0  0  0  0  0  0  0
    1.7687   -0.4202   -4.0190 H   0  0  0  0  0  0  0  0  0  0  0  0
    0.0122   -0.4202   -4.0190 H   0  0  0  0  0  0  0  0  0  0  0  0
    0.8905    1.1305   -4.0201 H   0  0  0  0  0  0  0  0  0  0  0  0
    0.8905   -0.8799   -1.6746 H   0  0  0  0  0  0  0  0  0  0  0  0
    0.8905    0.9523   -0.2819 H   0  0  0  0  0  0  0  0  0  0  0  0
    0.8905    0.7059    1.0020 C   0  0  0  0  0  3  0  0  0  0  0  0
   -0.7799    0.5789    1.6639 S   0  0  0  0  0  0  0  0  0  0  0  0
   -0.9053   -1.2089    1.9106 C   0  0  0  0  0  0  0  0  0  0  0  0
   -0.9322   -2.0327    0.6330 C   0  0  0  0  0  0  0  0  0  0  0  0
    1.1108    1.7678    0.9010 H   0  0  0  0  0  0  0  0  0  0  0  0
    1.6145    0.2626    1.6869 H   0  0  0  0  0  0  0  0  0  0  0  0
   -1.8329   -1.3425    2.4696 H   0  0  0  0  0  0  0  0  0  0  0  0
   -0.0898   -1.5270    2.5641 H   0  0  0  0  0  0  0  0  0  0  0  0
   -0.0034   -1.9276    0.0705 H   0  0  0  0  0  0  0  0  0  0  0  0
   -1.0570   -3.0924    0.8673 H   0  0  0  0  0  0  0  0  0  0  0  0
   -1.7552   -1.7221   -0.0114 H   0  0  0  0  0  0  0  0  0  0  0  0
  1  2  1  0
  1  4  1  0
  1  5  1  0
  1  6  1  0
  2  3  2  3
  2  7  1  0
  3  8  1  0
  9 10  1  0
  9 13  1  0
  9 14  1  0
 10 11  1  0
 11 12  1  0
 11 15  1  0
 11 16  1  0
 12 17  1  0
 12 18  1  0
 12 19  1  0
M  RAD  1   9   2
M  END
>  <reaction>  (11) 
rmg_rxn_16525

>  <mol_properties>  (11) 
{"1": {"label": "*0", "atom_type": "Cd"}, "2": {"label": "*1", "atom_type": "N3d"}, "7": {"label": "*2", "atom_type": "H0"}, "8": {"label": "*3", "atom_type": "Cs"}, "9": {"label": "*4", "atom_type": "S2s"}}

>  <type>  (11) 
unop_7

>  <geom_source>  (11) 
Heuristics

$$$$

     RDKit          3D

 19 17  0  0  0  0  0  0  0  0999 V2000
    1.0474   -0.3984   -3.7452 C   0  0  0  0  0  0  0  0  0  0  0  0
    1.0474   -0.3984   -2.2529 C   0  0  0  0  0  0  0  0  0  0  0  0
    1.0474    0.6743   -1.5852 N   0  0  0  0  0  0  0  0  0  0  0  0
    1.9257   -0.9284   -4.1226 H   0  0  0  0  0  0  0  0  0  0  0  0
    0.1691   -0.9284   -4.1226 H   0  0  0  0  0  0  0  0  0  0  0  0
    1.0474    0.6222   -4.1238 H   0  0  0  0  0  0  0  0  0  0  0  0
    1.0474   -1.3881   -1.7782 H   0  0  0  0  0  0  0  0  0  0  0  0
    1.0474    0.4441   -0.3856 H   0  0  0  0  0  0  0  0  0  0  0  0
    1.0474    0.1977    0.8983 C   0  0  0  0  0  3  0  0  0  0  0  0
   -0.3992    0.8910    1.7176 S   0  0  0  0  0  0  0  0  0  0  0  0
   -1.3531   -0.6126    2.0377 C   0  0  0  0  0  0  0  0  0  0  0  0
   -1.9033   -1.2997    0.7980 C   0  0  0  0  0  0  0  0  0  0  0  0
    1.7450    1.0190    0.7399 H   0  0  0  0  0  0  0  0  0  0  0  0
    1.5281   -0.5524    1.5277 H   0  0  0  0  0  0  0  0  0  0  0  0
   -2.1682   -0.2855    2.6854 H   0  0  0  0  0  0  0  0  0  0  0  0
   -0.7352   -1.2975    2.6229 H   0  0  0  0  0  0  0  0  0  0  0  0
   -1.1014   -1.6520    0.1477 H   0  0  0  0  0  0  0  0  0  0  0  0
   -2.5038   -2.1675    1.0801 H   0  0  0  0  0  0  0  0  0  0  0  0
   -2.5304   -0.6177    0.2229 H   0  0  0  0  0  0  0  0  0  0  0  0
  1  2  1  0
  1  4  1  0
  1  5  1  0
  1  6  1  0
  2  3  2  3
  2  7  1  0
  3  8  1  0
  9 10  1  0
  9 13  1  0
  9 14  1  0
 10 11  1  0
 11 12  1  0
 11 15  1  0
 11 16  1  0
 12 17  1  0
 12 18  1  0
 12 19  1  0
M  RAD  1   9   2
M  END
>  <reaction>  (12) 
rmg_rxn_16525

>  <mol_properties>  (12) 
{"1": {"label": "*0", "atom_type": "Cd"}, "2": {"label": "*1", "atom_type": "N3d"}, "7": {"label": "*2", "atom_type": "H0"}, "8": {"label": "*3", "atom_type": "Cs"}, "9": {"label": "*4", "atom_type": "S2s"}}

>  <type>  (12) 
unop_8

>  <geom_source>  (12) 
Heuristics

$$$$

     RDKit          3D

 19 17  0  0  0  0  0  0  0  0999 V2000
   -1.0947   -0.6356   -3.2691 C   0  0  0  0  0  0  0  0  0  0  0  0
   -1.0947   -0.6356   -1.7768 C   0  0  0  0  0  0  0  0  0  0  0  0
   -1.0947    0.4371   -1.1091 N   0  0  0  0  0  0  0  0  0  0  0  0
   -0.2165   -1.1656   -3.6465 H   0  0  0  0  0  0  0  0  0  0  0  0
   -1.9730   -1.1656   -3.6465 H   0  0  0  0  0  0  0  0  0  0  0  0
   -1.0947    0.3851   -3.6477 H   0  0  0  0  0  0  0  0  0  0  0  0
   -1.0947   -1.6253   -1.3021 H   0  0  0  0  0  0  0  0  0  0  0  0
   -1.0947    0.2069    0.0905 H   0  0  0  0  0  0  0  0  0  0  0  0
   -1.0947   -0.0395    1.3745 C   0  0  0  0  0  3  0  0  0  0  0  0
    0.5757   -0.1665    2.0363 S   0  0  0  0  0  0  0  0  0  0  0  0
    1.4775    0.8791    0.8672 C   0  0  0  0  0  0  0  0  0  0  0  0
    1.5780    0.3240   -0.5446 C   0  0  0  0  0  0  0  0  0  0  0  0
   -1.7502   -0.5658    2.0670 H   0  0  0  0  0  0  0  0  0  0  0  0
   -1.4117    1.0027    1.3171 H   0  0  0  0  0  0  0  0  0  0  0  0
    2.4708    0.9851    1.3065 H   0  0  0  0  0  0  0  0  0  0  0  0
    1.0211    1.8716    0.8659 H   0  0  0  0  0  0  0  0  0  0  0  0
    0.5947    0.2303   -1.0078 H   0  0  0  0  0  0  0  0  0  0  0  0
    2.1755    0.9892   -1.1723 H   0  0  0  0  0  0  0  0  0  0  0  0
    2.0460   -0.6609   -0.5416 H   0  0  0  0  0  0  0  0  0  0  0  0
  1  2  1  0
  1  4  1  0
  1  5  1  0
  1  6  1  0
  2  3  2  3
  2  7  1  0
  3  8  1  0
  9 10  1  0
  9 13  1  0
  9 14  1  0
 10 11  1  0
 11 12  1  0
 11 15  1  0
 11 16  1  0
 12 17  1  0
 12 18  1  0
 12 19  1  0
M  RAD  1   9   2
M  END
>  <reaction>  (13) 
rmg_rxn_16525

>  <mol_properties>  (13) 
{"1": {"label": "*0", "atom_type": "Cd"}, "2": {"label": "*1", "atom_type": "N3d"}, "7": {"label": "*2", "atom_type": "H0"}, "8": {"label": "*3", "atom_type": "Cs"}, "9": {"label": "*4", "atom_type": "S2s"}}

>  <type>  (13) 
unop_9

>  <geom_source>  (13) 
Heuristics

$$$$

     RDKit          3D

 19 17  0  0  0  0  0  0  0  0999 V2000
   -3.3427   -0.4423   -0.5209 C   0  0  0  0  0  0  0  0  0  0  0  0
   -1.9967    0.1426   -0.2264 C   0  0  0  0  0  0  0  0  0  0  0  0
   -1.6299    0.4714    0.9120 N   0  0  0  0  0  0  0  0  0  0  0  0
   -3.9259   -0.5281    0.3916 H   0  0  0  0  0  0  0  0  0  0  0  0
   -3.8648    0.1959   -1.2321 H   0  0  0  0  0  0  0  0  0  0  0  0
   -3.2199   -1.4254   -0.9731 H   0  0  0  0  0  0  0  0  0  0  0  0
   -1.3527    0.2505   -1.1163 H   0  0  0  0  0  0  0  0  0  0  0  0
   -0.4799    0.9333    0.9197 H   0  0  0  0  0  0  0  0  0  0  0  0
    0.7331    1.4046    0.7454 C   0  0  0  0  0  3  0  0  0  0  0  0
    1.4734    0.6201   -0.6467 S   0  0  0  0  0  0  0  0  0  0  0  0
    2.0237   -0.9571    0.0945 C   0  0  0  0  0  0  0  0  0  0  0  0
    0.8766   -1.8992    0.4043 C   0  0  0  0  0  0  0  0  0  0  0  0
    1.2864    1.2251    1.6592 H   0  0  0  0  0  0  0  0  0  0  0  0
    0.6014    2.4584    0.5348 H   0  0  0  0  0  0  0  0  0  0  0  0
    2.5892   -0.7084    0.9927 H   0  0  0  0  0  0  0  0  0  0  0  0
    2.6983   -1.3904   -0.6435 H   0  0  0  0  0  0  0  0  0  0  0  0
    0.3274   -2.1398   -0.5033 H   0  0  0  0  0  0  0  0  0  0  0  0
    1.2668   -2.8220    0.8291 H   0  0  0  0  0  0  0  0  0  0  0  0
    0.1873   -1.4527    1.1173 H   0  0  0  0  0  0  0  0  0  0  0  0
  1  2  1  0
  1  4  1  0
  1  5  1  0
  1  6  1  0
  2  3  2  3
  2  7  1  0
  3  8  1  0
  9 10  1  0
  9 13  1  0
  9 14  1  0
 10 11  1  0
 11 12  1  0
 11 15  1  0
 11 16  1  0
 12 17  1  0
 12 18  1  0
 12 19  1  0
M  RAD  1   9   2
M  END
>  <reaction>  (14) 
rmg_rxn_16525

>  <mol_properties>  (14) 
{"1": {"label": "*0", "atom_type": "Cd"}, "2": {"label": "*1", "atom_type": "N3d"}, "7": {"label": "*2", "atom_type": "H0"}, "8": {"label": "*3", "atom_type": "Cs"}, "9": {"label": "*4", "atom_type": "S2s"}}

>  <type>  (14) 
unop_10

>  <geom_source>  (14) 
Heuristics

$$$$

     RDKit          3D

 19 17  0  0  0  0  0  0  0  0999 V2000
    0.0350    0.6040   -3.3542 C   0  0  0  0  0  0  0  0  0  0  0  0
    0.0350    0.6040   -1.8619 C   0  0  0  0  0  0  0  0  0  0  0  0
    0.0350    1.6766   -1.1942 N   0  0  0  0  0  0  0  0  0  0  0  0
    0.9133    0.0740   -3.7316 H   0  0  0  0  0  0  0  0  0  0  0  0
   -0.8432    0.0740   -3.7316 H   0  0  0  0  0  0  0  0  0  0  0  0
    0.0350    1.6246   -3.7328 H   0  0  0  0  0  0  0  0  0  0  0  0
    0.0350   -0.3857   -1.3873 H   0  0  0  0  0  0  0  0  0  0  0  0
    0.0350    1.4464    0.0054 H   0  0  0  0  0  0  0  0  0  0  0  0
    0.0350    1.2001    1.2893 C   0  0  0  0  0  3  0  0  0  0  0  0
   -0.8002   -0.3476    1.6786 S   0  0  0  0  0  0  0  0  0  0  0  0
    0.5466   -1.5273    1.4185 C   0  0  0  0  0  0  0  0  0  0  0  0
    0.9938   -1.6824   -0.0263 C   0  0  0  0  0  0  0  0  0  0  0  0
   -0.6690    2.0025    1.5055 H   0  0  0  0  0  0  0  0  0  0  0  0
    0.9187    1.3327    1.9149 H   0  0  0  0  0  0  0  0  0  0  0  0
    0.1582   -2.4729    1.8006 H   0  0  0  0  0  0  0  0  0  0  0  0
    1.3847   -1.2439    2.0593 H   0  0  0  0  0  0  0  0  0  0  0  0
    1.4045   -0.7512   -0.4193 H   0  0  0  0  0  0  0  0  0  0  0  0
    1.7732   -2.4440   -0.1026 H   0  0  0  0  0  0  0  0  0  0  0  0
    0.1582   -1.9783   -0.6612 H   0  0  0  0  0  0  0  0  0  0  0  0
  1  2  1  0
  1  4  1  0
  1  5  1  0
  1  6  1  0
  2  3  2  3
  2  7  1  0
  3  8  1  0
  9 10  1  0
  9 13  1  0
  9 14  1  0
 10 11  1  0
 11 12  1  0
 11 15  1  0
 11 16  1  0
 12 17  1  0
 12 18  1  0
 12 19  1  0
M  RAD  1   9   2
M  END
>  <reaction>  (15) 
rmg_rxn_16525

>  <mol_properties>  (15) 
{"1": {"label": "*0", "atom_type": "Cd"}, "2": {"label": "*1", "atom_type": "N3d"}, "7": {"label": "*2", "atom_type": "H0"}, "8": {"label": "*3", "atom_type": "Cs"}, "9": {"label": "*4", "atom_type": "S2s"}}

>  <type>  (15) 
unop_11

>  <geom_source>  (15) 
Heuristics

$$$$

     RDKit          3D

 19 17  0  0  0  0  0  0  0  0999 V2000
   -1.0309   -0.1463   -3.1934 C   0  0  0  0  0  0  0  0  0  0  0  0
   -1.0309   -0.1463   -1.7011 C   0  0  0  0  0  0  0  0  0  0  0  0
   -1.0309    0.9263   -1.0334 N   0  0  0  0  0  0  0  0  0  0  0  0
   -0.1526   -0.6763   -3.5708 H   0  0  0  0  0  0  0  0  0  0  0  0
   -1.9092   -0.6763   -3.5708 H   0  0  0  0  0  0  0  0  0  0  0  0
   -1.0309    0.8743   -3.5720 H   0  0  0  0  0  0  0  0  0  0  0  0
   -1.0309   -1.1360   -1.2264 H   0  0  0  0  0  0  0  0  0  0  0  0
   -1.0309    0.6961    0.1662 H   0  0  0  0  0  0  0  0  0  0  0  0
   -1.0309    0.4498    1.4502 C   0  0  0  0  0  3  0  0  0  0  0  0
    0.4157   -0.4975    1.9547 S   0  0  0  0  0  0  0  0  0  0  0  0
    1.6633    0.1761    0.8308 C   0  0  0  0  0  0  0  0  0  0  0  0
    1.4633   -0.1752   -0.6348 C   0  0  0  0  0  0  0  0  0  0  0  0
   -1.8356    0.1874    2.1357 H   0  0  0  0  0  0  0  0  0  0  0  0
   -0.8406    1.5209    1.5286 H   0  0  0  0  0  0  0  0  0  0  0  0
    2.6073   -0.2326    1.1951 H   0  0  0  0  0  0  0  0  0  0  0  0
    1.7084    1.2585    0.9711 H   0  0  0  0  0  0  0  0  0  0  0  0
    0.5332    0.2430   -1.0223 H   0  0  0  0  0  0  0  0  0  0  0  0
    2.2812    0.2275   -1.2366 H   0  0  0  0  0  0  0  0  0  0  0  0
    1.4320   -1.2563   -0.7736 H   0  0  0  0  0  0  0  0  0  0  0  0
  1  2  1  0
  1  4  1  0
  1  5  1  0
  1  6  1  0
  2  3  2  3
  2  7  1  0
  3  8  1  0
  9 10  1  0
  9 13  1  0
  9 14  1  0
 10 11  1  0
 11 12  1  0
 11 15  1  0
 11 16  1  0
 12 17  1  0
 12 18  1  0
 12 19  1  0
M  RAD  1   9   2
M  END
>  <reaction>  (16) 
rmg_rxn_16525

>  <mol_properties>  (16) 
{"1": {"label": "*0", "atom_type": "Cd"}, "2": {"label": "*1", "atom_type": "N3d"}, "7": {"label": "*2", "atom_type": "H0"}, "8": {"label": "*3", "atom_type": "Cs"}, "9": {"label": "*4", "atom_type": "S2s"}}

>  <type>  (16) 
unop_12

>  <geom_source>  (16) 
Heuristics

$$$$

     RDKit          3D

 19 17  0  0  0  0  0  0  0  0999 V2000
    0.9380   -0.9735   -3.7569 C   0  0  0  0  0  0  0  0  0  0  0  0
    0.9380   -0.9735   -2.2645 C   0  0  0  0  0  0  0  0  0  0  0  0
    0.9380    0.0991   -1.5968 N   0  0  0  0  0  0  0  0  0  0  0  0
    1.8163   -1.5035   -4.1343 H   0  0  0  0  0  0  0  0  0  0  0  0
    0.0598   -1.5035   -4.1343 H   0  0  0  0  0  0  0  0  0  0  0  0
    0.9380    0.0471   -4.1354 H   0  0  0  0  0  0  0  0  0  0  0  0
    0.9380   -1.9632   -1.7899 H   0  0  0  0  0  0  0  0  0  0  0  0
    0.9380   -0.1311   -0.3973 H   0  0  0  0  0  0  0  0  0  0  0  0
    0.9380   -0.3774    0.8867 C   0  0  0  0  0  3  0  0  0  0  0  0
    0.1028    0.9163    1.8212 S   0  0  0  0  0  0  0  0  0  0  0  0
   -1.5496    0.1973    1.9815 C   0  0  0  0  0  0  0  0  0  0  0  0
   -2.3325    0.0922    0.6824 C   0  0  0  0  0  0  0  0  0  0  0  0
    1.9850   -0.0871    0.8108 H   0  0  0  0  0  0  0  0  0  0  0  0
    0.8777   -1.3338    1.4078 H   0  0  0  0  0  0  0  0  0  0  0  0
   -2.0651    0.8532    2.6849 H   0  0  0  0  0  0  0  0  0  0  0  0
   -1.4580   -0.7789    2.4631 H   0  0  0  0  0  0  0  0  0  0  0  0
   -1.8421   -0.5765   -0.0264 H   0  0  0  0  0  0  0  0  0  0  0  0
   -3.3320   -0.3055    0.8728 H   0  0  0  0  0  0  0  0  0  0  0  0
   -2.4338    1.0701    0.2106 H   0  0  0  0  0  0  0  0  0  0  0  0
  1  2  1  0
  1  4  1  0
  1  5  1  0
  1  6  1  0
  2  3  2  3
  2  7  1  0
  3  8  1  0
  9 10  1  0
  9 13  1  0
  9 14  1  0
 10 11  1  0
 11 12  1  0
 11 15  1  0
 11 16  1  0
 12 17  1  0
 12 18  1  0
 12 19  1  0
M  RAD  1   9   2
M  END
>  <reaction>  (17) 
rmg_rxn_16525

>  <mol_properties>  (17) 
{"1": {"label": "*0", "atom_type": "Cd"}, "2": {"label": "*1", "atom_type": "N3d"}, "7": {"label": "*2", "atom_type": "H0"}, "8": {"label": "*3", "atom_type": "Cs"}, "9": {"label": "*4", "atom_type": "S2s"}}

>  <type>  (17) 
unop_13

>  <geom_source>  (17) 
Heuristics

$$$$

     RDKit          3D

 19 17  0  0  0  0  0  0  0  0999 V2000
   -0.4290    0.5059   -3.2313 C   0  0  0  0  0  0  0  0  0  0  0  0
   -0.4290    0.5059   -1.7389 C   0  0  0  0  0  0  0  0  0  0  0  0
   -0.4290    1.5785   -1.0712 N   0  0  0  0  0  0  0  0  0  0  0  0
    0.4493   -0.0241   -3.6087 H   0  0  0  0  0  0  0  0  0  0  0  0
   -1.3072   -0.0241   -3.6087 H   0  0  0  0  0  0  0  0  0  0  0  0
   -0.4290    1.5265   -3.6098 H   0  0  0  0  0  0  0  0  0  0  0  0
   -0.4290   -0.4838   -1.2643 H   0  0  0  0  0  0  0  0  0  0  0  0
   -0.4290    1.3484    0.1284 H   0  0  0  0  0  0  0  0  0  0  0  0
   -0.4290    1.1020    1.4123 C   0  0  0  0  0  3  0  0  0  0  0  0
   -0.4290   -0.6655    1.7594 S   0  0  0  0  0  0  0  0  0  0  0  0
    1.2016   -1.1289    1.1274 C   0  0  0  0  0  0  0  0  0  0  0  0
    1.3563   -1.0316   -0.3819 C   0  0  0  0  0  0  0  0  0  0  0  0
   -1.3429    1.5089    1.8428 H   0  0  0  0  0  0  0  0  0  0  0  0
    0.4259    1.5902    1.8820 H   0  0  0  0  0  0  0  0  0  0  0  0
    1.3395   -2.1595    1.4588 H   0  0  0  0  0  0  0  0  0  0  0  0
    1.9559   -0.5256    1.6377 H   0  0  0  0  0  0  0  0  0  0  0  0
    1.2418   -0.0039   -0.7296 H   0  0  0  0  0  0  0  0  0  0  0  0
    2.3490   -1.3728   -0.6845 H   0  0  0  0  0  0  0  0  0  0  0  0
    0.6107   -1.6452   -0.8885 H   0  0  0  0  0  0  0  0  0  0  0  0
  1  2  1  0
  1  4  1  0
  1  5  1  0
  1  6  1  0
  2  3  2  3
  2  7  1  0
  3  8  1  0
  9 10  1  0
  9 13  1  0
  9 14  1  0
 10 11  1  0
 11 12  1  0
 11 15  1  0
 11 16  1  0
 12 17  1  0
 12 18  1  0
 12 19  1  0
M  RAD  1   9   2
M  END
>  <reaction>  (18) 
rmg_rxn_16525

>  <mol_properties>  (18) 
{"1": {"label": "*0", "atom_type": "Cd"}, "2": {"label": "*1", "atom_type": "N3d"}, "7": {"label": "*2", "atom_type": "H0"}, "8": {"label": "*3", "atom_type": "Cs"}, "9": {"label": "*4", "atom_type": "S2s"}}

>  <type>  (18) 
unop_14

>  <geom_source>  (18) 
Heuristics

$$$$

     RDKit          3D

 19 17  0  0  0  0  0  0  0  0999 V2000
   -0.7912    0.2415   -3.1731 C   0  0  0  0  0  0  0  0  0  0  0  0
   -0.7912    0.2415   -1.6808 C   0  0  0  0  0  0  0  0  0  0  0  0
   -0.7912    1.3141   -1.0131 N   0  0  0  0  0  0  0  0  0  0  0  0
    0.0870   -0.2885   -3.5505 H   0  0  0  0  0  0  0  0  0  0  0  0
   -1.6695   -0.2885   -3.5505 H   0  0  0  0  0  0  0  0  0  0  0  0
   -0.7912    1.2621   -3.5517 H   0  0  0  0  0  0  0  0  0  0  0  0
   -0.7912   -0.7482   -1.2061 H   0  0  0  0  0  0  0  0  0  0  0  0
   -0.7912    1.0839    0.1865 H   0  0  0  0  0  0  0  0  0  0  0  0
   -0.7912    0.8376    1.4705 C   0  0  0  0  0  3  0  0  0  0  0  0
    0.0440   -0.7101    1.8598 S   0  0  0  0  0  0  0  0  0  0  0  0
    1.5717   -0.5119    0.9111 C   0  0  0  0  0  0  0  0  0  0  0  0
    1.3971   -0.5362   -0.5990 C   0  0  0  0  0  0  0  0  0  0  0  0
   -1.6983    0.8676    2.0726 H   0  0  0  0  0  0  0  0  0  0  0  0
   -0.1679    1.6926    1.7351 H   0  0  0  0  0  0  0  0  0  0  0  0
    2.2031   -1.3409    1.2350 H   0  0  0  0  0  0  0  0  0  0  0  0
    2.0631    0.4090    1.2333 H   0  0  0  0  0  0  0  0  0  0  0  0
    0.7846    0.2982   -0.9437 H   0  0  0  0  0  0  0  0  0  0  0  0
    2.3676   -0.4590   -1.0946 H   0  0  0  0  0  0  0  0  0  0  0  0
    0.9184   -1.4622   -0.9191 H   0  0  0  0  0  0  0  0  0  0  0  0
  1  2  1  0
  1  4  1  0
  1  5  1  0
  1  6  1  0
  2  3  2  3
  2  7  1  0
  3  8  1  0
  9 10  1  0
  9 13  1  0
  9 14  1  0
 10 11  1  0
 11 12  1  0
 11 15  1  0
 11 16  1  0
 12 17  1  0
 12 18  1  0
 12 19  1  0
M  RAD  1   9   2
M  END
>  <reaction>  (19) 
rmg_rxn_16525

>  <mol_properties>  (19) 
{"1": {"label": "*0", "atom_type": "Cd"}, "2": {"label": "*1", "atom_type": "N3d"}, "7": {"label": "*2", "atom_type": "H0"}, "8": {"label": "*3", "atom_type": "Cs"}, "9": {"label": "*4", "atom_type": "S2s"}}

>  <type>  (19) 
unop_15

>  <geom_source>  (19) 
gaussian_log

$$$$
