
     RDKit          3D

  8  7  0  0  0  0  0  0  0  0999 V2000
    0.9548    0.1194   -0.0790 C   0  0  0  0  0  0  0  0  0  0  0  0
   -0.4838   -0.2649    0.0193 C   0  0  0  0  0  0  0  0  0  0  0  0
   -0.8933   -1.1081    0.8664 N   0  0  0  0  0  0  0  0  0  0  0  0
    1.3360   -0.0983   -1.0800 H   0  0  0  0  0  0  0  0  0  0  0  0
    1.0698    1.1948    0.0786 H   0  0  0  0  0  0  0  0  0  0  0  0
    1.5426   -0.4219    0.6602 H   0  0  0  0  0  0  0  0  0  0  0  0
   -1.1575    0.2324   -0.6905 H   0  0  0  0  0  0  0  0  0  0  0  0
   -1.8989   -1.2455    0.7886 H   0  0  0  0  0  0  0  0  0  0  0  0
  1  2  1  0
  1  4  1  0
  1  5  1  0
  1  6  1  0
  2  3  2  3
  2  7  1  0
  3  8  1  0
M  END
>  <reaction>  (1) 
rmg_rxn_16640

>  <mol_properties>  (1) 
{"2": {"label": "donator", "atom_type": "N3d"}, "7": {"label": "d_hydrogen", "atom_type": "H0"}}

>  <type>  (1) 
r1h

$$$$

     RDKit          3D

  9  8  0  0  0  0  0  0  0  0999 V2000
    1.2172    0.4579   -0.1964 C   0  0  0  0  0  3  0  0  0  0  0  0
    0.1414   -0.5234    0.0523 C   0  0  0  0  0  0  0  0  0  0  0  0
    0.5861   -1.9610    0.1321 C   0  0  0  0  0  0  0  0  0  0  0  0
    1.7162   -2.3406    0.0105 O   0  0  0  0  0  0  0  0  0  0  0  0
    0.9857    1.5106   -0.2681 H   0  0  0  0  0  0  0  0  0  0  0  0
    2.2392    0.1268   -0.3076 H   0  0  0  0  0  0  0  0  0  0  0  0
   -0.6447   -0.4809   -0.7179 H   0  0  0  0  0  0  0  0  0  0  0  0
   -0.4048   -0.3122    0.9851 H   0  0  0  0  0  0  0  0  0  0  0  0
   -0.2343   -2.6846    0.3193 H   0  0  0  0  0  0  0  0  0  0  0  0
  1  2  1  0
  1  5  1  0
  1  6  1  0
  2  3  1  0
  2  7  1  0
  2  8  1  0
  3  4  2  0
  3  9  1  0
M  RAD  1   1   2
M  END
>  <reaction>  (2) 
rmg_rxn_16640

>  <mol_properties>  (2) 
{"0": {"label": "acceptor", "atom_type": "Cs"}}

>  <type>  (2) 
r2

$$$$

     RDKit          3D

 10  9  0  0  0  0  0  0  0  0999 V2000
   -1.1238    0.2714    0.2496 C   0  0  0  0  0  0  0  0  0  0  0  0
    0.0881   -0.5850   -0.0680 C   0  0  0  0  0  0  0  0  0  0  0  0
   -0.0512   -1.4242   -1.3070 C   0  0  0  0  0  0  0  0  0  0  0  0
   -1.0187   -1.4480   -2.0158 O   0  0  0  0  0  0  0  0  0  0  0  0
   -2.0096   -0.3470    0.3939 H   0  0  0  0  0  0  0  0  0  0  0  0
   -0.9564    0.8523    1.1567 H   0  0  0  0  0  0  0  0  0  0  0  0
   -1.3376    0.9606   -0.5673 H   0  0  0  0  0  0  0  0  0  0  0  0
    0.3267   -1.2715    0.7528 H   0  0  0  0  0  0  0  0  0  0  0  0
    0.9917    0.0222   -0.1983 H   0  0  0  0  0  0  0  0  0  0  0  0
    0.8330   -2.0534   -1.5447 H   0  0  0  0  0  0  0  0  0  0  0  0
  1  2  1  0
  1  5  1  0
  1  6  1  0
  1  7  1  0
  2  3  1  0
  2  8  1  0
  2  9  1  0
  3  4  2  0
  3 10  1  0
M  END
>  <reaction>  (3) 
rmg_rxn_16640

>  <mol_properties>  (3) 
{"0": {"label": "a_hydrogen", "atom_type": "H0"}, "1": {"label": "acceptor", "atom_type": "Cs"}}

>  <type>  (3) 
r2h

$$$$

     RDKit          3D

 17 15  0  0  0  0  0  0  0  0999 V2000
   -0.4475    0.3606   -3.0847 C   0  0  0  0  0  0  0  0  0  0  0  0
   -0.2741    0.5127   -1.6053 C   0  0  0  0  0  0  0  0  0  0  0  0
   -1.2230    0.8629   -0.8570 N   0  0  0  0  0  0  0  0  0  0  0  0
    0.2413    1.0271   -3.6090 H   0  0  0  0  0  0  0  0  0  0  0  0
   -0.1978   -0.6605   -3.3822 H   0  0  0  0  0  0  0  0  0  0  0  0
   -1.4699    0.5880   -3.3811 H   0  0  0  0  0  0  0  0  0  0  0  0
    0.7214    0.2911   -1.2051 H   0  0  0  0  0  0  0  0  0  0  0  0
   -0.8205    0.9114    0.2727 H   0  0  0  0  0  0  0  0  0  0  0  0
   -0.2492    0.8420    1.5469 C   0  0  0  0  0  3  0  0  0  0  0  0
   -0.5219   -0.5456    2.0403 C   0  0  0  0  0  0  0  0  0  0  0  0
    0.3295   -1.6197    1.4238 C   0  0  0  0  0  0  0  0  0  0  0  0
    1.2148   -1.4332    0.6346 O   0  0  0  0  0  0  0  0  0  0  0  0
   -0.7964    1.6272    2.0611 H   0  0  0  0  0  0  0  0  0  0  0  0
    0.7976    1.0794    1.3788 H   0  0  0  0  0  0  0  0  0  0  0  0
   -1.5686   -0.8327    1.8803 H   0  0  0  0  0  0  0  0  0  0  0  0
   -0.3775   -0.6320    3.1279 H   0  0  0  0  0  0  0  0  0  0  0  0
    0.0920   -2.6490    1.7632 H   0  0  0  0  0  0  0  0  0  0  0  0
  1  2  1  0
  1  4  1  0
  1  5  1  0
  1  6  1  0
  2  3  2  3
  2  7  1  0
  3  8  1  0
  9 10  1  0
  9 13  1  0
  9 14  1  0
 10 11  1  0
 10 15  1  0
 10 16  1  0
 11 12  2  0
 11 17  1  0
M  RAD  1   9   2
M  END
>  <reaction>  (4) 
rmg_rxn_16640

>  <mol_properties>  (4) 
{"1": {"label": "*0", "atom_type": "Cd"}, "2": {"label": "*1", "atom_type": "N3d"}, "7": {"label": "*2", "atom_type": "H0"}, "8": {"label": "*3", "atom_type": "Cs"}, "9": {"label": "*4", "atom_type": "Cs"}}

>  <type>  (4) 
ts

$$$$

     RDKit          3D

 17 15  0  0  0  0  0  0  0  0999 V2000
   -2.4011    1.4103   -0.0716 C   0  0  0  0  0  0  0  0  0  0  0  0
   -2.7831   -0.0242    0.1303 C   0  0  0  0  0  0  0  0  0  0  0  0
   -2.1023   -1.0531    0.0289 N   0  0  0  0  0  0  0  0  0  0  0  0
   -1.3597    1.5059   -0.3651 H   0  0  0  0  0  0  0  0  0  0  0  0
   -3.0366    1.8466   -0.8406 H   0  0  0  0  0  0  0  0  0  0  0  0
   -2.5706    1.9600    0.8530 H   0  0  0  0  0  0  0  0  0  0  0  0
   -3.8339   -0.1588    0.4118 H   0  0  0  0  0  0  0  0  0  0  0  0
   -0.9080   -0.8991   -0.2856 H   0  0  0  0  0  0  0  0  0  0  0  0
    0.3393   -0.7492   -0.6172 C   0  0  0  0  0  3  0  0  0  0  0  0
    1.1159   -0.3273    0.6059 C   0  0  0  0  0  0  0  0  0  0  0  0
    2.5413   -0.2234    0.1296 C   0  0  0  0  0  0  0  0  0  0  0  0
    3.1038    0.8023   -0.1401 O   0  0  0  0  0  0  0  0  0  0  0  0
    0.3544   -0.0116   -1.4126 H   0  0  0  0  0  0  0  0  0  0  0  0
    0.6168   -1.7312   -0.9848 H   0  0  0  0  0  0  0  0  0  0  0  0
    1.0309   -1.0770    1.3925 H   0  0  0  0  0  0  0  0  0  0  0  0
    0.7799    0.6424    0.9744 H   0  0  0  0  0  0  0  0  0  0  0  0
    3.0259   -1.2052   -0.0309 H   0  0  0  0  0  0  0  0  0  0  0  0
  1  2  1  0
  1  4  1  0
  1  5  1  0
  1  6  1  0
  2  3  2  3
  2  7  1  0
  3  8  1  0
  9 10  1  0
  9 13  1  0
  9 14  1  0
 10 11  1  0
 10 15  1  0
 10 16  1  0
 11 12  2  0
 11 17  1  0
M  RAD  1   9   2
M  END
>  <reaction>  (5) 
rmg_rxn_16640

>  <mol_properties>  (5) 
{"1": {"label": "*0", "atom_type": "Cd"}, "2": {"label": "*1", "atom_type": "N3d"}, "7": {"label": "*2", "atom_type": "H0"}, "8": {"label": "*3", "atom_type": "Cs"}, "9": {"label": "*4", "atom_type": "Cs"}}

>  <type>  (5) 
unop_1

>  <geom_source>  (5) 
crest_best.xyz

$$$$

     RDKit          3D

 17 15  0  0  0  0  0  0  0  0999 V2000
   -0.6644   -1.1245   -3.0780 C   0  0  0  0  0  0  0  0  0  0  0  0
   -0.6644   -1.1245   -1.5856 C   0  0  0  0  0  0  0  0  0  0  0  0
   -0.6644   -0.0519   -0.9179 N   0  0  0  0  0  0  0  0  0  0  0  0
    0.2138   -1.6545   -3.4554 H   0  0  0  0  0  0  0  0  0  0  0  0
   -1.5427   -1.6545   -3.4554 H   0  0  0  0  0  0  0  0  0  0  0  0
   -0.6644   -0.1039   -3.4565 H   0  0  0  0  0  0  0  0  0  0  0  0
   -0.6644   -2.1142   -1.1110 H   0  0  0  0  0  0  0  0  0  0  0  0
   -0.6644   -0.2820    0.2817 H   0  0  0  0  0  0  0  0  0  0  0  0
   -0.6644   -0.5285    1.5661 C   0  0  0  0  0  3  0  0  0  0  0  0
    0.5634    0.0657    2.2312 C   0  0  0  0  0  0  0  0  0  0  0  0
    1.2308    1.1573    1.4425 C   0  0  0  0  0  0  0  0  0  0  0  0
    0.8605    1.5579    0.3742 O   0  0  0  0  0  0  0  0  0  0  0  0
   -1.0977   -1.3112    2.1890 H   0  0  0  0  0  0  0  0  0  0  0  0
   -1.4222    0.2360    1.3952 H   0  0  0  0  0  0  0  0  0  0  0  0
    1.3282   -0.6953    2.4261 H   0  0  0  0  0  0  0  0  0  0  0  0
    0.3283    0.4867    3.2159 H   0  0  0  0  0  0  0  0  0  0  0  0
    2.1303    1.5962    1.9244 H   0  0  0  0  0  0  0  0  0  0  0  0
  1  2  1  0
  1  4  1  0
  1  5  1  0
  1  6  1  0
  2  3  2  3
  2  7  1  0
  3  8  1  0
  9 10  1  0
  9 13  1  0
  9 14  1  0
 10 11  1  0
 10 15  1  0
 10 16  1  0
 11 12  2  0
 11 17  1  0
M  RAD  1   9   2
M  END
>  <reaction>  (6) 
rmg_rxn_16640

>  <mol_properties>  (6) 
{"1": {"label": "*0", "atom_type": "Cd"}, "2": {"label": "*1", "atom_type": "N3d"}, "7": {"label": "*2", "atom_type": "H0"}, "8": {"label": "*3", "atom_type": "Cs"}, "9": {"label": "*4", "atom_type": "Cs"}}

>  <type>  (6) 
unop_2

>  <geom_source>  (6) 
Heuristics

$$$$

     RDKit          3D

 17 15  0  0  0  0  0  0  0  0999 V2000
   -0.7395    0.0258   -2.9593 C   0  0  0  0  0  0  0  0  0  0  0  0
   -0.7395    0.0258   -1.4670 C   0  0  0  0  0  0  0  0  0  0  0  0
   -0.7395    1.0984   -0.7993 N   0  0  0  0  0  0  0  0  0  0  0  0
    0.1387   -0.5042   -3.3367 H   0  0  0  0  0  0  0  0  0  0  0  0
   -1.6178   -0.5042   -3.3367 H   0  0  0  0  0  0  0  0  0  0  0  0
   -0.7395    1.0464   -3.3379 H   0  0  0  0  0  0  0  0  0  0  0  0
   -0.7395   -0.9639   -0.9923 H   0  0  0  0  0  0  0  0  0  0  0  0
   -0.7395    0.8683    0.4003 H   0  0  0  0  0  0  0  0  0  0  0  0
   -0.7395    0.6218    1.6848 C   0  0  0  0  0  3  0  0  0  0  0  0
   -0.0307   -0.6860    1.9849 C   0  0  0  0  0  0  0  0  0  0  0  0
    1.2278   -0.9069    1.1935 C   0  0  0  0  0  0  0  0  0  0  0  0
    1.6728   -0.1429    0.3828 O   0  0  0  0  0  0  0  0  0  0  0  0
   -1.6407    0.7180    2.2906 H   0  0  0  0  0  0  0  0  0  0  0  0
   -0.0908    1.4724    1.8934 H   0  0  0  0  0  0  0  0  0  0  0  0
   -0.6775   -1.5511    1.7968 H   0  0  0  0  0  0  0  0  0  0  0  0
    0.2443   -0.7654    3.0433 H   0  0  0  0  0  0  0  0  0  0  0  0
    1.7513   -1.8627    1.4089 H   0  0  0  0  0  0  0  0  0  0  0  0
  1  2  1  0
  1  4  1  0
  1  5  1  0
  1  6  1  0
  2  3  2  3
  2  7  1  0
  3  8  1  0
  9 10  1  0
  9 13  1  0
  9 14  1  0
 10 11  1  0
 10 15  1  0
 10 16  1  0
 11 12  2  0
 11 17  1  0
M  RAD  1   9   2
M  END
>  <reaction>  (7) 
rmg_rxn_16640

>  <mol_properties>  (7) 
{"1": {"label": "*0", "atom_type": "Cd"}, "2": {"label": "*1", "atom_type": "N3d"}, "7": {"label": "*2", "atom_type": "H0"}, "8": {"label": "*3", "atom_type": "Cs"}, "9": {"label": "*4", "atom_type": "Cs"}}

>  <type>  (7) 
unop_3

>  <geom_source>  (7) 
Heuristics

$$$$

     RDKit          3D

 17 15  0  0  0  0  0  0  0  0999 V2000
   -0.1821   -1.3945   -3.1738 C   0  0  0  0  0  0  0  0  0  0  0  0
   -0.1821   -1.3945   -1.6815 C   0  0  0  0  0  0  0  0  0  0  0  0
   -0.1821   -0.3219   -1.0138 N   0  0  0  0  0  0  0  0  0  0  0  0
    0.6961   -1.9245   -3.5513 H   0  0  0  0  0  0  0  0  0  0  0  0
   -1.0604   -1.9245   -3.5513 H   0  0  0  0  0  0  0  0  0  0  0  0
   -0.1821   -0.3739   -3.5524 H   0  0  0  0  0  0  0  0  0  0  0  0
   -0.1821   -2.3842   -1.2069 H   0  0  0  0  0  0  0  0  0  0  0  0
   -0.1821   -0.5521    0.1858 H   0  0  0  0  0  0  0  0  0  0  0  0
   -0.1821   -0.7985    1.4702 C   0  0  0  0  0  3  0  0  0  0  0  0
    0.5268    0.3053    2.2331 C   0  0  0  0  0  0  0  0  0  0  0  0
    0.4181    1.6654    1.6028 C   0  0  0  0  0  0  0  0  0  0  0  0
   -0.1683    1.9060    0.5843 O   0  0  0  0  0  0  0  0  0  0  0  0
   -0.0640   -1.7547    1.9802 H   0  0  0  0  0  0  0  0  0  0  0  0
   -1.2470   -0.5854    1.3782 H   0  0  0  0  0  0  0  0  0  0  0  0
    1.5967    0.0962    2.3495 H   0  0  0  0  0  0  0  0  0  0  0  0
    0.1459    0.4008    3.2568 H   0  0  0  0  0  0  0  0  0  0  0  0
    0.9352    2.4777    2.1568 H   0  0  0  0  0  0  0  0  0  0  0  0
  1  2  1  0
  1  4  1  0
  1  5  1  0
  1  6  1  0
  2  3  2  3
  2  7  1  0
  3  8  1  0
  9 10  1  0
  9 13  1  0
  9 14  1  0
 10 11  1  0
 10 15  1  0
 10 16  1  0
 11 12  2  0
 11 17  1  0
M  RAD  1   9   2
M  END
>  <reaction>  (8) 
rmg_rxn_16640

>  <mol_properties>  (8) 
{"1": {"label": "*0", "atom_type": "Cd"}, "2": {"label": "*1", "atom_type": "N3d"}, "7": {"label": "*2", "atom_type": "H0"}, "8": {"label": "*3", "atom_type": "Cs"}, "9": {"label": "*4", "atom_type": "Cs"}}

>  <type>  (8) 
unop_4

>  <geom_source>  (8) 
Heuristics

$$$$

     RDKit          3D

 17 15  0  0  0  0  0  0  0  0999 V2000
    0.3245    0.3687   -3.2973 C   0  0  0  0  0  0  0  0  0  0  0  0
    0.3245    0.3687   -1.8050 C   0  0  0  0  0  0  0  0  0  0  0  0
    0.3245    1.4413   -1.1373 N   0  0  0  0  0  0  0  0  0  0  0  0
    1.2028   -0.1613   -3.6747 H   0  0  0  0  0  0  0  0  0  0  0  0
   -0.5537   -0.1613   -3.6747 H   0  0  0  0  0  0  0  0  0  0  0  0
    0.3245    1.3893   -3.6759 H   0  0  0  0  0  0  0  0  0  0  0  0
    0.3245   -0.6210   -1.3303 H   0  0  0  0  0  0  0  0  0  0  0  0
    0.3245    1.2112    0.0623 H   0  0  0  0  0  0  0  0  0  0  0  0
    0.3245    0.9647    1.3468 C   0  0  0  0  0  3  0  0  0  0  0  0
   -0.9033    0.1665    1.7447 C   0  0  0  0  0  0  0  0  0  0  0  0
   -0.7124   -1.3240    1.7148 C   0  0  0  0  0  0  0  0  0  0  0  0
    0.3053   -1.8805    1.4090 O   0  0  0  0  0  0  0  0  0  0  0  0
    0.1179    2.0342    1.3899 H   0  0  0  0  0  0  0  0  0  0  0  0
    1.1613    0.7475    2.0106 H   0  0  0  0  0  0  0  0  0  0  0  0
   -1.7594    0.3880    1.0965 H   0  0  0  0  0  0  0  0  0  0  0  0
   -1.2429    0.4208    2.7557 H   0  0  0  0  0  0  0  0  0  0  0  0
   -1.6080   -1.9137    2.0052 H   0  0  0  0  0  0  0  0  0  0  0  0
  1  2  1  0
  1  4  1  0
  1  5  1  0
  1  6  1  0
  2  3  2  3
  2  7  1  0
  3  8  1  0
  9 10  1  0
  9 13  1  0
  9 14  1  0
 10 11  1  0
 10 15  1  0
 10 16  1  0
 11 12  2  0
 11 17  1  0
M  RAD  1   9   2
M  END
>  <reaction>  (9) 
rmg_rxn_16640

>  <mol_properties>  (9) 
{"1": {"label": "*0", "atom_type": "Cd"}, "2": {"label": "*1", "atom_type": "N3d"}, "7": {"label": "*2", "atom_type": "H0"}, "8": {"label": "*3", "atom_type": "Cs"}, "9": {"label": "*4", "atom_type": "Cs"}}

>  <type>  (9) 
unop_5

>  <geom_source>  (9) 
Heuristics

$$$$

     RDKit          3D

 17 15  0  0  0  0  0  0  0  0999 V2000
    0.4753   -1.2639   -3.3345 C   0  0  0  0  0  0  0  0  0  0  0  0
    0.4753   -1.2639   -1.8422 C   0  0  0  0  0  0  0  0  0  0  0  0
    0.4753   -0.1913   -1.1745 N   0  0  0  0  0  0  0  0  0  0  0  0
    1.3535   -1.7939   -3.7120 H   0  0  0  0  0  0  0  0  0  0  0  0
   -0.4030   -1.7939   -3.7120 H   0  0  0  0  0  0  0  0  0  0  0  0
    0.4753   -0.2433   -3.7131 H   0  0  0  0  0  0  0  0  0  0  0  0
    0.4753   -2.2536   -1.3676 H   0  0  0  0  0  0  0  0  0  0  0  0
    0.4753   -0.4215    0.0251 H   0  0  0  0  0  0  0  0  0  0  0  0
    0.4753   -0.6679    1.3095 C   0  0  0  0  0  3  0  0  0  0  0  0
    0.4753    0.6224    2.1082 C   0  0  0  0  0  0  0  0  0  0  0  0
   -0.7049    1.5155    1.8466 C   0  0  0  0  0  0  0  0  0  0  0  0
   -1.5953    1.2710    1.0808 O   0  0  0  0  0  0  0  0  0  0  0  0
    1.3552   -1.2662    1.5465 H   0  0  0  0  0  0  0  0  0  0  0  0
   -0.4136   -1.2599    1.5273 H   0  0  0  0  0  0  0  0  0  0  0  0
    1.3730    1.2209    1.9132 H   0  0  0  0  0  0  0  0  0  0  0  0
    0.4934    0.4319    3.1878 H   0  0  0  0  0  0  0  0  0  0  0  0
   -0.7105    2.4618    2.4284 H   0  0  0  0  0  0  0  0  0  0  0  0
  1  2  1  0
  1  4  1  0
  1  5  1  0
  1  6  1  0
  2  3  2  3
  2  7  1  0
  3  8  1  0
  9 10  1  0
  9 13  1  0
  9 14  1  0
 10 11  1  0
 10 15  1  0
 10 16  1  0
 11 12  2  0
 11 17  1  0
M  RAD  1   9   2
M  END
>  <reaction>  (10) 
rmg_rxn_16640

>  <mol_properties>  (10) 
{"1": {"label": "*0", "atom_type": "Cd"}, "2": {"label": "*1", "atom_type": "N3d"}, "7": {"label": "*2", "atom_type": "H0"}, "8": {"label": "*3", "atom_type": "Cs"}, "9": {"label": "*4", "atom_type": "Cs"}}

>  <type>  (10) 
unop_6

>  <geom_source>  (10) 
Heuristics

$$$$

     RDKit          3D

 17 15  0  0  0  0  0  0  0  0999 V2000
    0.6641    0.1070   -3.4156 C   0  0  0  0  0  0  0  0  0  0  0  0
    0.6641    0.1070   -1.9233 C   0  0  0  0  0  0  0  0  0  0  0  0
    0.6641    1.1796   -1.2556 N   0  0  0  0  0  0  0  0  0  0  0  0
    1.5424   -0.4230   -3.7930 H   0  0  0  0  0  0  0  0  0  0  0  0
   -0.2141   -0.4230   -3.7930 H   0  0  0  0  0  0  0  0  0  0  0  0
    0.6641    1.1276   -3.7942 H   0  0  0  0  0  0  0  0  0  0  0  0
    0.6642   -0.8827   -1.4486 H   0  0  0  0  0  0  0  0  0  0  0  0
    0.6641    0.9494   -0.0560 H   0  0  0  0  0  0  0  0  0  0  0  0
    0.6641    0.7030    1.2285 C   0  0  0  0  0  3  0  0  0  0  0  0
   -0.7536    0.6010    1.7600 C   0  0  0  0  0  0  0  0  0  0  0  0
   -1.2590   -0.8057    1.9171 C   0  0  0  0  0  0  0  0  0  0  0  0
   -0.6313   -1.7945    1.6574 O   0  0  0  0  0  0  0  0  0  0  0  0
    0.9666    1.7465    1.1392 H   0  0  0  0  0  0  0  0  0  0  0  0
    1.3652    0.1957    1.8912 H   0  0  0  0  0  0  0  0  0  0  0  0
   -1.4686    1.1225    1.1127 H   0  0  0  0  0  0  0  0  0  0  0  0
   -0.8562    1.0841    2.7388 H   0  0  0  0  0  0  0  0  0  0  0  0
   -2.2964   -0.8868    2.3059 H   0  0  0  0  0  0  0  0  0  0  0  0
  1  2  1  0
  1  4  1  0
  1  5  1  0
  1  6  1  0
  2  3  2  3
  2  7  1  0
  3  8  1  0
  9 10  1  0
  9 13  1  0
  9 14  1  0
 10 11  1  0
 10 15  1  0
 10 16  1  0
 11 12  2  0
 11 17  1  0
M  RAD  1   9   2
M  END
>  <reaction>  (11) 
rmg_rxn_16640

>  <mol_properties>  (11) 
{"1": {"label": "*0", "atom_type": "Cd"}, "2": {"label": "*1", "atom_type": "N3d"}, "7": {"label": "*2", "atom_type": "H0"}, "8": {"label": "*3", "atom_type": "Cs"}, "9": {"label": "*4", "atom_type": "Cs"}}

>  <type>  (11) 
unop_7

>  <geom_source>  (11) 
Heuristics

$$$$

     RDKit          3D

 17 15  0  0  0  0  0  0  0  0999 V2000
    0.8427   -0.2892   -3.4951 C   0  0  0  0  0  0  0  0  0  0  0  0
    0.8427   -0.2892   -2.0028 C   0  0  0  0  0  0  0  0  0  0  0  0
    0.8427    0.7834   -1.3351 N   0  0  0  0  0  0  0  0  0  0  0  0
    1.7209   -0.8192   -3.8725 H   0  0  0  0  0  0  0  0  0  0  0  0
   -0.0356   -0.8192   -3.8725 H   0  0  0  0  0  0  0  0  0  0  0  0
    0.8427    0.7314   -3.8737 H   0  0  0  0  0  0  0  0  0  0  0  0
    0.8427   -1.2789   -1.5281 H   0  0  0  0  0  0  0  0  0  0  0  0
    0.8427    0.5533   -0.1355 H   0  0  0  0  0  0  0  0  0  0  0  0
    0.8427    0.3068    1.1490 C   0  0  0  0  0  3  0  0  0  0  0  0
   -0.3851    0.9010    1.8141 C   0  0  0  0  0  0  0  0  0  0  0  0
   -1.4952   -0.0817    2.0613 C   0  0  0  0  0  0  0  0  0  0  0  0
   -1.4589   -1.2459    1.7745 O   0  0  0  0  0  0  0  0  0  0  0  0
    1.6059    1.0706    0.9995 H   0  0  0  0  0  0  0  0  0  0  0  0
    1.2671   -0.4910    1.7583 H   0  0  0  0  0  0  0  0  0  0  0  0
   -0.8132    1.7177    1.2209 H   0  0  0  0  0  0  0  0  0  0  0  0
   -0.1433    1.3539    2.7828 H   0  0  0  0  0  0  0  0  0  0  0  0
   -2.3968    0.3475    2.5480 H   0  0  0  0  0  0  0  0  0  0  0  0
  1  2  1  0
  1  4  1  0
  1  5  1  0
  1  6  1  0
  2  3  2  3
  2  7  1  0
  3  8  1  0
  9 10  1  0
  9 13  1  0
  9 14  1  0
 10 11  1  0
 10 15  1  0
 10 16  1  0
 11 12  2  0
 11 17  1  0
M  RAD  1   9   2
M  END
>  <reaction>  (12) 
rmg_rxn_16640

>  <mol_properties>  (12) 
{"1": {"label": "*0", "atom_type": "Cd"}, "2": {"label": "*1", "atom_type": "N3d"}, "7": {"label": "*2", "atom_type": "H0"}, "8": {"label": "*3", "atom_type": "Cs"}, "9": {"label": "*4", "atom_type": "Cs"}}

>  <type>  (12) 
unop_8

>  <geom_source>  (12) 
Heuristics

$$$$

     RDKit          3D

 17 15  0  0  0  0  0  0  0  0999 V2000
   -0.8788   -0.7214   -3.0019 C   0  0  0  0  0  0  0  0  0  0  0  0
   -0.8788   -0.7214   -1.5096 C   0  0  0  0  0  0  0  0  0  0  0  0
   -0.8788    0.3512   -0.8419 N   0  0  0  0  0  0  0  0  0  0  0  0
   -0.0006   -1.2514   -3.3793 H   0  0  0  0  0  0  0  0  0  0  0  0
   -1.7571   -1.2514   -3.3793 H   0  0  0  0  0  0  0  0  0  0  0  0
   -0.8788    0.2992   -3.3805 H   0  0  0  0  0  0  0  0  0  0  0  0
   -0.8788   -1.7111   -1.0349 H   0  0  0  0  0  0  0  0  0  0  0  0
   -0.8788    0.1210    0.3577 H   0  0  0  0  0  0  0  0  0  0  0  0
   -0.8788   -0.1254    1.6422 C   0  0  0  0  0  3  0  0  0  0  0  0
    0.5389   -0.2274    2.1737 C   0  0  0  0  0  0  0  0  0  0  0  0
    1.5774    0.4230    1.3034 C   0  0  0  0  0  0  0  0  0  0  0  0
    1.3520    0.9862    0.2686 O   0  0  0  0  0  0  0  0  0  0  0  0
   -1.5788   -0.6157    2.3189 H   0  0  0  0  0  0  0  0  0  0  0  0
   -1.1783    0.9166    1.5311 H   0  0  0  0  0  0  0  0  0  0  0  0
    0.8483   -1.2706    2.3080 H   0  0  0  0  0  0  0  0  0  0  0  0
    0.6333    0.2241    3.1684 H   0  0  0  0  0  0  0  0  0  0  0  0
    2.6174    0.3516    1.6874 H   0  0  0  0  0  0  0  0  0  0  0  0
  1  2  1  0
  1  4  1  0
  1  5  1  0
  1  6  1  0
  2  3  2  3
  2  7  1  0
  3  8  1  0
  9 10  1  0
  9 13  1  0
  9 14  1  0
 10 11  1  0
 10 15  1  0
 10 16  1  0
 11 12  2  0
 11 17  1  0
M  RAD  1   9   2
M  END
>  <reaction>  (13) 
rmg_rxn_16640

>  <mol_properties>  (13) 
{"1": {"label": "*0", "atom_type": "Cd"}, "2": {"label": "*1", "atom_type": "N3d"}, "7": {"label": "*2", "atom_type": "H0"}, "8": {"label": "*3", "atom_type": "Cs"}, "9": {"label": "*4", "atom_type": "Cs"}}

>  <type>  (13) 
unop_9

>  <geom_source>  (13) 
Heuristics

$$$$

     RDKit          3D

 17 15  0  0  0  0  0  0  0  0999 V2000
   -2.4011    1.4103   -0.0716 C   0  0  0  0  0  0  0  0  0  0  0  0
   -2.7831   -0.0242    0.1303 C   0  0  0  0  0  0  0  0  0  0  0  0
   -2.1023   -1.0531    0.0289 N   0  0  0  0  0  0  0  0  0  0  0  0
   -1.3597    1.5059   -0.3651 H   0  0  0  0  0  0  0  0  0  0  0  0
   -3.0366    1.8466   -0.8406 H   0  0  0  0  0  0  0  0  0  0  0  0
   -2.5706    1.9600    0.8530 H   0  0  0  0  0  0  0  0  0  0  0  0
   -3.8339   -0.1588    0.4118 H   0  0  0  0  0  0  0  0  0  0  0  0
   -0.9080   -0.8991   -0.2856 H   0  0  0  0  0  0  0  0  0  0  0  0
    0.3393   -0.7492   -0.6172 C   0  0  0  0  0  3  0  0  0  0  0  0
    1.1159   -0.3273    0.6059 C   0  0  0  0  0  0  0  0  0  0  0  0
    2.5413   -0.2234    0.1296 C   0  0  0  0  0  0  0  0  0  0  0  0
    3.1038    0.8023   -0.1401 O   0  0  0  0  0  0  0  0  0  0  0  0
    0.3544   -0.0116   -1.4126 H   0  0  0  0  0  0  0  0  0  0  0  0
    0.6168   -1.7312   -0.9848 H   0  0  0  0  0  0  0  0  0  0  0  0
    1.0309   -1.0770    1.3925 H   0  0  0  0  0  0  0  0  0  0  0  0
    0.7799    0.6424    0.9744 H   0  0  0  0  0  0  0  0  0  0  0  0
    3.0259   -1.2052   -0.0309 H   0  0  0  0  0  0  0  0  0  0  0  0
  1  2  1  0
  1  4  1  0
  1  5  1  0
  1  6  1  0
  2  3  2  3
  2  7  1  0
  3  8  1  0
  9 10  1  0
  9 13  1  0
  9 14  1  0
 10 11  1  0
 10 15  1  0
 10 16  1  0
 11 12  2  0
 11 17  1  0
M  RAD  1   9   2
M  END
>  <reaction>  (14) 
rmg_rxn_16640

>  <mol_properties>  (14) 
{"1": {"label": "*0", "atom_type": "Cd"}, "2": {"label": "*1", "atom_type": "N3d"}, "7": {"label": "*2", "atom_type": "H0"}, "8": {"label": "*3", "atom_type": "Cs"}, "9": {"label": "*4", "atom_type": "Cs"}}

>  <type>  (14) 
unop_10

>  <geom_source>  (14) 
Heuristics

$$$$

     RDKit          3D

 17 15  0  0  0  0  0  0  0  0999 V2000
   -0.0956    0.4319   -3.1622 C   0  0  0  0  0  0  0  0  0  0  0  0
   -0.0956    0.4319   -1.6698 C   0  0  0  0  0  0  0  0  0  0  0  0
   -0.0956    1.5045   -1.0021 N   0  0  0  0  0  0  0  0  0  0  0  0
    0.7827   -0.0981   -3.5396 H   0  0  0  0  0  0  0  0  0  0  0  0
   -0.9738   -0.0981   -3.5396 H   0  0  0  0  0  0  0  0  0  0  0  0
   -0.0956    1.4525   -3.5407 H   0  0  0  0  0  0  0  0  0  0  0  0
   -0.0956   -0.5578   -1.1952 H   0  0  0  0  0  0  0  0  0  0  0  0
   -0.0956    1.2744    0.1975 H   0  0  0  0  0  0  0  0  0  0  0  0
   -0.0956    1.0279    1.4819 C   0  0  0  0  0  3  0  0  0  0  0  0
   -0.8045   -0.2799    1.7821 C   0  0  0  0  0  0  0  0  0  0  0  0
    0.0109   -1.5093    1.4943 C   0  0  0  0  0  0  0  0  0  0  0  0
    1.1305   -1.5061    1.0637 O   0  0  0  0  0  0  0  0  0  0  0  0
   -0.7406    1.8760    1.7122 H   0  0  0  0  0  0  0  0  0  0  0  0
    0.8176    1.1189    2.0699 H   0  0  0  0  0  0  0  0  0  0  0  0
   -1.7352   -0.3778    1.2109 H   0  0  0  0  0  0  0  0  0  0  0  0
   -1.1114   -0.3437    2.8327 H   0  0  0  0  0  0  0  0  0  0  0  0
   -0.5028   -2.4699    1.7121 H   0  0  0  0  0  0  0  0  0  0  0  0
  1  2  1  0
  1  4  1  0
  1  5  1  0
  1  6  1  0
  2  3  2  3
  2  7  1  0
  3  8  1  0
  9 10  1  0
  9 13  1  0
  9 14  1  0
 10 11  1  0
 10 15  1  0
 10 16  1  0
 11 12  2  0
 11 17  1  0
M  RAD  1   9   2
M  END
>  <reaction>  (15) 
rmg_rxn_16640

>  <mol_properties>  (15) 
{"1": {"label": "*0", "atom_type": "Cd"}, "2": {"label": "*1", "atom_type": "N3d"}, "7": {"label": "*2", "atom_type": "H0"}, "8": {"label": "*3", "atom_type": "Cs"}, "9": {"label": "*4", "atom_type": "Cs"}}

>  <type>  (15) 
unop_11

>  <geom_source>  (15) 
Heuristics

$$$$

     RDKit          3D

 17 15  0  0  0  0  0  0  0  0999 V2000
   -0.8832   -0.3193   -2.9537 C   0  0  0  0  0  0  0  0  0  0  0  0
   -0.8832   -0.3193   -1.4614 C   0  0  0  0  0  0  0  0  0  0  0  0
   -0.8832    0.7533   -0.7937 N   0  0  0  0  0  0  0  0  0  0  0  0
   -0.0049   -0.8493   -3.3311 H   0  0  0  0  0  0  0  0  0  0  0  0
   -1.7614   -0.8493   -3.3311 H   0  0  0  0  0  0  0  0  0  0  0  0
   -0.8832    0.7013   -3.3323 H   0  0  0  0  0  0  0  0  0  0  0  0
   -0.8832   -1.3090   -0.9867 H   0  0  0  0  0  0  0  0  0  0  0  0
   -0.8832    0.5231    0.4059 H   0  0  0  0  0  0  0  0  0  0  0  0
   -0.8832    0.2767    1.6904 C   0  0  0  0  0  3  0  0  0  0  0  0
    0.3447   -0.5215    2.0883 C   0  0  0  0  0  0  0  0  0  0  0  0
    1.5410   -0.3035    1.2051 C   0  0  0  0  0  0  0  0  0  0  0  0
    1.5699    0.4290    0.2556 O   0  0  0  0  0  0  0  0  0  0  0  0
   -1.7108    0.0723    2.3698 H   0  0  0  0  0  0  0  0  0  0  0  0
   -0.6751    1.3463    1.7115 H   0  0  0  0  0  0  0  0  0  0  0  0
    0.1455   -1.5996    2.0892 H   0  0  0  0  0  0  0  0  0  0  0  0
    0.6630   -0.2935    3.1124 H   0  0  0  0  0  0  0  0  0  0  0  0
    2.4431   -0.8852    1.4915 H   0  0  0  0  0  0  0  0  0  0  0  0
  1  2  1  0
  1  4  1  0
  1  5  1  0
  1  6  1  0
  2  3  2  3
  2  7  1  0
  3  8  1  0
  9 10  1  0
  9 13  1  0
  9 14  1  0
 10 11  1  0
 10 15  1  0
 10 16  1  0
 11 12  2  0
 11 17  1  0
M  RAD  1   9   2
M  END
>  <reaction>  (16) 
rmg_rxn_16640

>  <mol_properties>  (16) 
{"1": {"label": "*0", "atom_type": "Cd"}, "2": {"label": "*1", "atom_type": "N3d"}, "7": {"label": "*2", "atom_type": "H0"}, "8": {"label": "*3", "atom_type": "Cs"}, "9": {"label": "*4", "atom_type": "Cs"}}

>  <type>  (16) 
unop_12

>  <geom_source>  (16) 
Heuristics

$$$$

     RDKit          3D

 17 15  0  0  0  0  0  0  0  0999 V2000
    0.8227   -0.7663   -3.4876 C   0  0  0  0  0  0  0  0  0  0  0  0
    0.8227   -0.7663   -1.9953 C   0  0  0  0  0  0  0  0  0  0  0  0
    0.8227    0.3063   -1.3276 N   0  0  0  0  0  0  0  0  0  0  0  0
    1.7010   -1.2963   -3.8650 H   0  0  0  0  0  0  0  0  0  0  0  0
   -0.0555   -1.2963   -3.8650 H   0  0  0  0  0  0  0  0  0  0  0  0
    0.8227    0.2543   -3.8662 H   0  0  0  0  0  0  0  0  0  0  0  0
    0.8227   -1.7560   -1.5206 H   0  0  0  0  0  0  0  0  0  0  0  0
    0.8227    0.0762   -0.1280 H   0  0  0  0  0  0  0  0  0  0  0  0
    0.8227   -0.1703    1.1565 C   0  0  0  0  0  3  0  0  0  0  0  0
    0.1138    0.9336    1.9194 C   0  0  0  0  0  0  0  0  0  0  0  0
   -1.3683    0.7335    2.0682 C   0  0  0  0  0  0  0  0  0  0  0  0
   -1.9821   -0.2029    1.6376 O   0  0  0  0  0  0  0  0  0  0  0  0
    1.8906    0.0367    1.0855 H   0  0  0  0  0  0  0  0  0  0  0  0
    0.6895   -1.1322    1.6513 H   0  0  0  0  0  0  0  0  0  0  0  0
    0.2539    1.9111    1.4431 H   0  0  0  0  0  0  0  0  0  0  0  0
    0.5191    1.0531    2.9310 H   0  0  0  0  0  0  0  0  0  0  0  0
   -1.8928    1.5385    2.6259 H   0  0  0  0  0  0  0  0  0  0  0  0
  1  2  1  0
  1  4  1  0
  1  5  1  0
  1  6  1  0
  2  3  2  3
  2  7  1  0
  3  8  1  0
  9 10  1  0
  9 13  1  0
  9 14  1  0
 10 11  1  0
 10 15  1  0
 10 16  1  0
 11 12  2  0
 11 17  1  0
M  RAD  1   9   2
M  END
>  <reaction>  (17) 
rmg_rxn_16640

>  <mol_properties>  (17) 
{"1": {"label": "*0", "atom_type": "Cd"}, "2": {"label": "*1", "atom_type": "N3d"}, "7": {"label": "*2", "atom_type": "H0"}, "8": {"label": "*3", "atom_type": "Cs"}, "9": {"label": "*4", "atom_type": "Cs"}}

>  <type>  (17) 
unop_13

>  <geom_source>  (17) 
Heuristics

$$$$

     RDKit          3D

 17 15  0  0  0  0  0  0  0  0999 V2000
   -0.4753    0.2940   -3.0356 C   0  0  0  0  0  0  0  0  0  0  0  0
   -0.4753    0.2940   -1.5433 C   0  0  0  0  0  0  0  0  0  0  0  0
   -0.4753    1.3666   -0.8756 N   0  0  0  0  0  0  0  0  0  0  0  0
    0.4030   -0.2360   -3.4130 H   0  0  0  0  0  0  0  0  0  0  0  0
   -1.3535   -0.2360   -3.4130 H   0  0  0  0  0  0  0  0  0  0  0  0
   -0.4753    1.3146   -3.4142 H   0  0  0  0  0  0  0  0  0  0  0  0
   -0.4753   -0.6957   -1.0686 H   0  0  0  0  0  0  0  0  0  0  0  0
   -0.4753    1.1364    0.3240 H   0  0  0  0  0  0  0  0  0  0  0  0
   -0.4753    0.8900    1.6085 C   0  0  0  0  0  3  0  0  0  0  0  0
   -0.4753   -0.6044    1.8728 C   0  0  0  0  0  0  0  0  0  0  0  0
    0.7049   -1.3372    1.2992 C   0  0  0  0  0  0  0  0  0  0  0  0
    1.5953   -0.8267    0.6783 O   0  0  0  0  0  0  0  0  0  0  0  0
   -1.3552    1.3580    2.0500 H   0  0  0  0  0  0  0  0  0  0  0  0
    0.4136    1.3592    2.0298 H   0  0  0  0  0  0  0  0  0  0  0  0
   -1.3730   -1.0881    1.4701 H   0  0  0  0  0  0  0  0  0  0  0  0
   -0.4934   -0.8270    2.9462 H   0  0  0  0  0  0  0  0  0  0  0  0
    0.7105   -2.4317    1.4895 H   0  0  0  0  0  0  0  0  0  0  0  0
  1  2  1  0
  1  4  1  0
  1  5  1  0
  1  6  1  0
  2  3  2  3
  2  7  1  0
  3  8  1  0
  9 10  1  0
  9 13  1  0
  9 14  1  0
 10 11  1  0
 10 15  1  0
 10 16  1  0
 11 12  2  0
 11 17  1  0
M  RAD  1   9   2
M  END
>  <reaction>  (18) 
rmg_rxn_16640

>  <mol_properties>  (18) 
{"1": {"label": "*0", "atom_type": "Cd"}, "2": {"label": "*1", "atom_type": "N3d"}, "7": {"label": "*2", "atom_type": "H0"}, "8": {"label": "*3", "atom_type": "Cs"}, "9": {"label": "*4", "atom_type": "Cs"}}

>  <type>  (18) 
unop_14

>  <geom_source>  (18) 
Heuristics

$$$$

     RDKit          3D

 17 15  0  0  0  0  0  0  0  0999 V2000
   -0.7396    0.0258   -2.9593 C   0  0  0  0  0  0  0  0  0  0  0  0
   -0.7396    0.0258   -1.4670 C   0  0  0  0  0  0  0  0  0  0  0  0
   -0.7396    1.0984   -0.7993 N   0  0  0  0  0  0  0  0  0  0  0  0
    0.1387   -0.5042   -3.3367 H   0  0  0  0  0  0  0  0  0  0  0  0
   -1.6178   -0.5042   -3.3367 H   0  0  0  0  0  0  0  0  0  0  0  0
   -0.7396    1.0464   -3.3379 H   0  0  0  0  0  0  0  0  0  0  0  0
   -0.7395   -0.9639   -0.9923 H   0  0  0  0  0  0  0  0  0  0  0  0
   -0.7396    0.8683    0.4003 H   0  0  0  0  0  0  0  0  0  0  0  0
   -0.7396    0.6218    1.6847 C   0  0  0  0  0  3  0  0  0  0  0  0
   -0.0307   -0.6860    1.9849 C   0  0  0  0  0  0  0  0  0  0  0  0
    1.2278   -0.9069    1.1935 C   0  0  0  0  0  0  0  0  0  0  0  0
    1.6728   -0.1429    0.3828 O   0  0  0  0  0  0  0  0  0  0  0  0
   -1.6407    0.7180    2.2906 H   0  0  0  0  0  0  0  0  0  0  0  0
   -0.0908    1.4724    1.8934 H   0  0  0  0  0  0  0  0  0  0  0  0
   -0.6774   -1.5511    1.7968 H   0  0  0  0  0  0  0  0  0  0  0  0
    0.2443   -0.7654    3.0433 H   0  0  0  0  0  0  0  0  0  0  0  0
    1.7513   -1.8627    1.4089 H   0  0  0  0  0  0  0  0  0  0  0  0
  1  2  1  0
  1  4  1  0
  1  5  1  0
  1  6  1  0
  2  3  2  3
  2  7  1  0
  3  8  1  0
  9 10  1  0
  9 13  1  0
  9 14  1  0
 10 11  1  0
 10 15  1  0
 10 16  1  0
 11 12  2  0
 11 17  1  0
M  RAD  1   9   2
M  END
>  <reaction>  (19) 
rmg_rxn_16640

>  <mol_properties>  (19) 
{"1": {"label": "*0", "atom_type": "Cd"}, "2": {"label": "*1", "atom_type": "N3d"}, "7": {"label": "*2", "atom_type": "H0"}, "8": {"label": "*3", "atom_type": "Cs"}, "9": {"label": "*4", "atom_type": "Cs"}}

>  <type>  (19) 
unop_15

>  <geom_source>  (19) 
gaussian_log

$$$$
