
     RDKit          3D

  9  8  0  0  0  0  0  0  0  0999 V2000
   -1.5470   -0.0755   -0.1976 C   0  0  0  0  0  0  0  0  0  0  0  0
   -0.2885    0.4507    0.1749 O   0  0  0  0  0  0  0  0  0  0  0  0
   -0.1502    1.7216   -0.3294 N   0  0  0  0  0  0  0  0  0  0  0  0
    0.9626    2.2353   -0.0219 C   0  0  0  0  0  0  0  0  0  0  0  0
   -1.6392   -0.1356   -1.2844 H   0  0  0  0  0  0  0  0  0  0  0  0
   -2.3597    0.5337    0.2044 H   0  0  0  0  0  0  0  0  0  0  0  0
   -1.5879   -1.0750    0.2318 H   0  0  0  0  0  0  0  0  0  0  0  0
    1.1497    3.2381   -0.3820 H   0  0  0  0  0  0  0  0  0  0  0  0
    1.7060    1.7101    0.5739 H   0  0  0  0  0  0  0  0  0  0  0  0
  1  2  1  0
  1  5  1  0
  1  6  1  0
  1  7  1  0
  2  3  1  0
  3  4  2  3
  4  8  1  0
  4  9  1  0
M  END
>  <reaction>  (1) 
rmg_rxn_15634

>  <mol_properties>  (1) 
{"0": {"label": "donator", "atom_type": "Cs"}, "4": {"label": "d_hydrogen", "atom_type": "H0"}}

>  <type>  (1) 
r1h

$$$$

     RDKit          3D

  1  0  0  0  0  0  0  0  0  0999 V2000
    0.0000    0.0000    0.0000 O   0  0  0  0  0 15  0  0  0  0  0  0
M  END
>  <reaction>  (2) 
rmg_rxn_15634

>  <mol_properties>  (2) 
{"0": {"label": "acceptor", "atom_type": "O2s"}}

>  <type>  (2) 
r2

$$$$

     RDKit          3D

  2  1  0  0  0  0  0  0  0  0999 V2000
    0.0000    0.0000    0.4855 O   0  0  0  0  0  1  0  0  0  0  0  0
    0.0000    0.0000   -0.4855 H   0  0  0  0  0  0  0  0  0  0  0  0
  1  2  1  0
M  RAD  1   1   2
M  END
>  <reaction>  (3) 
rmg_rxn_15634

>  <mol_properties>  (3) 
{"0": {"label": "acceptor", "atom_type": "O2s"}, "1": {"label": "a_hydrogen", "atom_type": "H0"}}

>  <type>  (3) 
r2h

$$$$

     RDKit          3D

 10  8  0  0  0  0  0  0  0  0999 V2000
    1.7173   -0.2990    1.9854 O   0  0  0  0  0 15  0  0  0  0  0  0
   -0.4487    0.6599    1.0523 C   0  0  0  0  0  0  0  0  0  0  0  0
   -0.3628    0.7106   -0.3186 O   0  0  0  0  0  0  0  0  0  0  0  0
   -0.6740   -0.5203   -0.8787 N   0  0  0  0  0  0  0  0  0  0  0  0
   -0.4633   -0.5199   -2.1233 C   0  0  0  0  0  0  0  0  0  0  0  0
    0.5942    0.1838    1.5181 H   0  0  0  0  0  0  0  0  0  0  0  0
   -1.2392    0.0009    1.4099 H   0  0  0  0  0  0  0  0  0  0  0  0
   -0.4916    1.6768    1.4348 H   0  0  0  0  0  0  0  0  0  0  0  0
   -0.6930   -1.4373   -2.6487 H   0  0  0  0  0  0  0  0  0  0  0  0
   -0.0731    0.3449   -2.6543 H   0  0  0  0  0  0  0  0  0  0  0  0
  2  3  1  0
  2  6  1  0
  2  7  1  0
  2  8  1  0
  3  4  1  0
  4  5  2  3
  5  9  1  0
  5 10  1  0
M  END
>  <reaction>  (4) 
rmg_rxn_15634

>  <mol_properties>  (4) 
{"0": {"label": "*3", "atom_type": "O2s"}, "1": {"label": "*1", "atom_type": "Cs"}, "2": {"label": "*0", "atom_type": "O2s"}, "5": {"label": "*2", "atom_type": "H0"}}

>  <type>  (4) 
ts

$$$$

     RDKit          3D

 10  9  0  0  0  0  0  0  0  0999 V2000
    1.8224   -0.7442    0.1774 O   0  0  0  0  0  0  0  0  0  0  0  0
    1.1462    0.5994   -0.2561 C   0  0  0  0  0  0  0  0  0  0  0  0
   -0.1366    0.7208    0.2469 O   0  0  0  0  0  0  0  0  0  0  0  0
   -0.9484   -0.2952   -0.2643 N   0  0  0  0  0  0  0  0  0  0  0  0
   -2.1554   -0.2710    0.0799 C   0  0  0  0  0  0  0  0  0  0  0  0
    0.9112   -0.9163   -0.2146 H   0  0  0  0  0  0  0  0  0  0  0  0
    1.7188    1.4205    0.1800 H   0  0  0  0  0  0  0  0  0  0  0  0
    1.1859    0.6324   -1.3517 H   0  0  0  0  0  0  0  0  0  0  0  0
   -2.7796   -1.0580   -0.3066 H   0  0  0  0  0  0  0  0  0  0  0  0
   -2.5892    0.4813    0.7301 H   0  0  0  0  0  0  0  0  0  0  0  0
  1  2  1  0
  1  6  1  0
  2  3  1  0
  2  7  1  0
  2  8  1  0
  3  4  1  0
  4  5  2  3
  5  9  1  0
  5 10  1  0
M  END
>  <reaction>  (5) 
rmg_rxn_15634

>  <mol_properties>  (5) 
{"0": {"label": "*3", "atom_type": "O2s"}, "1": {"label": "*1", "atom_type": "Cs"}, "2": {"label": "*0", "atom_type": "O2s"}, "5": {"label": "*2", "atom_type": "H0"}}

>  <type>  (5) 
unop_1

>  <geom_source>  (5) 
crest_best.xyz

$$$$

     RDKit          3D

 10  9  0  0  0  0  0  0  0  0999 V2000
    1.8224   -0.7442    0.1774 O   0  0  0  0  0  0  0  0  0  0  0  0
    1.1462    0.5994   -0.2561 C   0  0  0  0  0  0  0  0  0  0  0  0
   -0.1366    0.7208    0.2469 O   0  0  0  0  0  0  0  0  0  0  0  0
   -0.9484   -0.2952   -0.2643 N   0  0  0  0  0  0  0  0  0  0  0  0
   -2.1554   -0.2710    0.0799 C   0  0  0  0  0  0  0  0  0  0  0  0
    0.9112   -0.9163   -0.2146 H   0  0  0  0  0  0  0  0  0  0  0  0
    1.7188    1.4205    0.1800 H   0  0  0  0  0  0  0  0  0  0  0  0
    1.1859    0.6324   -1.3517 H   0  0  0  0  0  0  0  0  0  0  0  0
   -2.7796   -1.0580   -0.3066 H   0  0  0  0  0  0  0  0  0  0  0  0
   -2.5892    0.4813    0.7301 H   0  0  0  0  0  0  0  0  0  0  0  0
  1  2  1  0
  1  6  1  0
  2  3  1  0
  2  7  1  0
  2  8  1  0
  3  4  1  0
  4  5  2  3
  5  9  1  0
  5 10  1  0
M  END
>  <reaction>  (6) 
rmg_rxn_15634

>  <mol_properties>  (6) 
{"0": {"label": "*3", "atom_type": "O2s"}, "1": {"label": "*1", "atom_type": "Cs"}, "2": {"label": "*0", "atom_type": "O2s"}, "5": {"label": "*2", "atom_type": "H0"}}

>  <type>  (6) 
unop_2

>  <geom_source>  (6) 
Heuristics

$$$$

     RDKit          3D

 10  8  0  0  0  0  0  0  0  0999 V2000
    1.5888   -0.4663    1.9164 O   0  0  0  0  0  1  0  0  0  0  0  0
   -0.4335    0.6901    1.0775 C   0  0  0  0  0  3  0  0  0  0  0  0
   -0.4335    0.7480   -0.3354 O   0  0  0  0  0  0  0  0  0  0  0  0
   -0.4335   -0.5259   -0.8511 N   0  0  0  0  0  0  0  0  0  0  0  0
   -0.4335   -0.5259   -2.1147 C   0  0  0  0  0  0  0  0  0  0  0  0
    0.6371    0.0779    1.5216 H   0  0  0  0  0  0  0  0  0  0  0  0
   -1.3256    0.1799    1.4476 H   0  0  0  0  0  0  0  0  0  0  0  0
   -0.4335    1.7250    1.4153 H   0  0  0  0  0  0  0  0  0  0  0  0
   -0.4335   -1.4930   -2.5996 H   0  0  0  0  0  0  0  0  0  0  0  0
   -0.4335    0.3906   -2.7009 H   0  0  0  0  0  0  0  0  0  0  0  0
  1  6  1  0
  2  3  1  0
  2  7  1  0
  2  8  1  0
  3  4  1  0
  4  5  2  3
  5  9  1  0
  5 10  1  0
M  RAD  2   1   2   2   2
M  END
>  <reaction>  (7) 
rmg_rxn_15634

>  <mol_properties>  (7) 
{"0": {"label": "*3", "atom_type": "O2s"}, "1": {"label": "*1", "atom_type": "Cs"}, "2": {"label": "*0", "atom_type": "O2s"}, "5": {"label": "*2", "atom_type": "H0"}}

>  <type>  (7) 
unop_3

>  <geom_source>  (7) 
Heuristics

$$$$

     RDKit          3D

 10  8  0  0  0  0  0  0  0  0999 V2000
   -0.1047   -0.2362    0.7244 O   0  0  0  0  0  0  0  0  0  0  0  0
    2.0194    0.4225   -1.6443 O   0  0  0  0  0  1  0  0  0  0  0  0
   -0.9235    0.3695   -0.2005 N   0  0  0  0  0  0  0  0  0  0  0  0
    1.2982   -0.2563    0.5284 C   0  0  0  0  0  3  0  0  0  0  0  0
   -2.2038    0.3909   -0.0289 C   0  0  0  0  0  0  0  0  0  0  0  0
   -2.6508   -0.0672    0.8445 H   0  0  0  0  0  0  0  0  0  0  0  0
   -2.8369    0.8700   -0.7630 H   0  0  0  0  0  0  0  0  0  0  0  0
    1.7852   -0.7405    1.3996 H   0  0  0  0  0  0  0  0  0  0  0  0
    1.5405   -0.8284   -0.3916 H   0  0  0  0  0  0  0  0  0  0  0  0
    2.0765    0.0757   -0.4685 H   0  0  0  0  0  0  0  0  0  0  0  0
  1  4  1  0
  1  3  1  0
  2 10  1  0
  3  5  2  3
  4  8  1  0
  4  9  1  0
  5  6  1  0
  5  7  1  0
M  RAD  2   2   2   4   2
M  END
>  <reaction>  (8) 
rmg_rxn_15634

>  <mol_properties>  (8) 
{"0": {"label": "*3", "atom_type": "O2s"}, "1": {"label": "*1", "atom_type": "Cs"}, "2": {"label": "*0", "atom_type": "O2s"}, "5": {"label": "*2", "atom_type": "H0"}}

>  <type>  (8) 
unop_4

>  <geom_source>  (8) 
AutoTST

$$$$

     RDKit          3D

 10  9  0  0  0  0  0  0  0  0999 V2000
    1.8224   -0.7442    0.1774 O   0  0  0  0  0  0  0  0  0  0  0  0
    1.1462    0.5994   -0.2561 C   0  0  0  0  0  0  0  0  0  0  0  0
   -0.1366    0.7208    0.2469 O   0  0  0  0  0  0  0  0  0  0  0  0
   -0.9484   -0.2952   -0.2643 N   0  0  0  0  0  0  0  0  0  0  0  0
   -2.1554   -0.2710    0.0799 C   0  0  0  0  0  0  0  0  0  0  0  0
    0.9112   -0.9163   -0.2147 H   0  0  0  0  0  0  0  0  0  0  0  0
    1.7188    1.4205    0.1800 H   0  0  0  0  0  0  0  0  0  0  0  0
    1.1859    0.6324   -1.3517 H   0  0  0  0  0  0  0  0  0  0  0  0
   -2.7796   -1.0580   -0.3066 H   0  0  0  0  0  0  0  0  0  0  0  0
   -2.5892    0.4813    0.7301 H   0  0  0  0  0  0  0  0  0  0  0  0
  1  2  1  0
  1  6  1  0
  2  3  1  0
  2  7  1  0
  2  8  1  0
  3  4  1  0
  4  5  2  3
  5  9  1  0
  5 10  1  0
M  END
>  <reaction>  (9) 
rmg_rxn_15634

>  <mol_properties>  (9) 
{"0": {"label": "*3", "atom_type": "O2s"}, "1": {"label": "*1", "atom_type": "Cs"}, "2": {"label": "*0", "atom_type": "O2s"}, "5": {"label": "*2", "atom_type": "H0"}}

>  <type>  (9) 
unop_5

>  <geom_source>  (9) 
gaussian_log

$$$$
