
     RDKit          3D

 18 17  0  0  0  0  0  0  0  0999 V2000
    2.2026   -0.7213   -0.2612 C   0  0  0  0  0  0  0  0  0  0  0  0
    1.5384    0.2638    0.6915 C   0  0  0  0  0  0  0  0  0  0  0  0
    2.2584    1.5946    0.7694 C   0  0  0  0  0  0  0  0  0  0  0  0
    2.2212    2.2185   -0.4893 O   0  0  0  0  0  0  0  0  0  0  0  0
    2.8988    3.4488   -0.5204 C   0  0  0  0  0  0  0  0  0  0  0  0
    2.7981    4.0296   -1.9118 C   0  0  0  0  0  0  0  0  0  0  0  0
    3.2294   -0.9309    0.0486 H   0  0  0  0  0  0  0  0  0  0  0  0
    2.2338   -0.3181   -1.2734 H   0  0  0  0  0  0  0  0  0  0  0  0
    1.6610   -1.6680   -0.2875 H   0  0  0  0  0  0  0  0  0  0  0  0
    1.4990   -0.1566    1.7002 H   0  0  0  0  0  0  0  0  0  0  0  0
    0.5055    0.4455    0.3835 H   0  0  0  0  0  0  0  0  0  0  0  0
    3.3038    1.4410    1.0808 H   0  0  0  0  0  0  0  0  0  0  0  0
    1.7844    2.2410    1.5226 H   0  0  0  0  0  0  0  0  0  0  0  0
    2.4596    4.1376    0.2164 H   0  0  0  0  0  0  0  0  0  0  0  0
    3.9524    3.3035   -0.2397 H   0  0  0  0  0  0  0  0  0  0  0  0
    1.7543    4.1869   -2.1856 H   0  0  0  0  0  0  0  0  0  0  0  0
    3.2472    3.3545   -2.6411 H   0  0  0  0  0  0  0  0  0  0  0  0
    3.3178    4.9878   -1.9600 H   0  0  0  0  0  0  0  0  0  0  0  0
  1  2  1  0
  1  7  1  0
  1  8  1  0
  1  9  1  0
  2  3  1  0
  2 10  1  0
  2 11  1  0
  3  4  1  0
  3 12  1  0
  3 13  1  0
  4  5  1  0
  5  6  1  0
  5 14  1  0
  5 15  1  0
  6 16  1  0
  6 17  1  0
  6 18  1  0
M  END
>  <reaction>  (1) 
rmg_rxn_326

>  <mol_properties>  (1) 
{"2": {"label": "donator", "atom_type": "Cs"}, "11": {"label": "d_hydrogen", "atom_type": "H0"}}

>  <type>  (1) 
r1h

$$$$

     RDKit          3D

 13 12  0  0  0  0  0  0  0  0999 V2000
    1.9060    0.2628    0.3980 C   0  0  0  0  0  0  0  0  0  0  0  0
    0.6330   -0.4250    0.0685 C   0  0  0  0  0  3  0  0  0  0  0  0
   -0.2610   -0.9325    1.1416 C   0  0  0  0  0  0  0  0  0  0  0  0
   -1.4364   -1.7546    0.6268 C   0  0  0  0  0  0  0  0  0  0  0  0
    2.4899   -0.3070    1.1292 H   0  0  0  0  0  0  0  0  0  0  0  0
    1.7297    1.2496    0.8515 H   0  0  0  0  0  0  0  0  0  0  0  0
    2.5269    0.4197   -0.4845 H   0  0  0  0  0  0  0  0  0  0  0  0
    0.2597   -0.3936   -0.9489 H   0  0  0  0  0  0  0  0  0  0  0  0
   -0.6439   -0.0868    1.7356 H   0  0  0  0  0  0  0  0  0  0  0  0
    0.3260   -1.5277    1.8536 H   0  0  0  0  0  0  0  0  0  0  0  0
   -1.0872   -2.6320    0.0792 H   0  0  0  0  0  0  0  0  0  0  0  0
   -2.0701   -2.0976    1.4459 H   0  0  0  0  0  0  0  0  0  0  0  0
   -2.0561   -1.1637   -0.0512 H   0  0  0  0  0  0  0  0  0  0  0  0
  1  2  1  0
  1  5  1  0
  1  6  1  0
  1  7  1  0
  2  3  1  0
  2  8  1  0
  3  4  1  0
  3  9  1  0
  3 10  1  0
  4 11  1  0
  4 12  1  0
  4 13  1  0
M  RAD  1   2   2
M  END
>  <reaction>  (2) 
rmg_rxn_326

>  <mol_properties>  (2) 
{"1": {"label": "acceptor", "atom_type": "Cs"}}

>  <type>  (2) 
r2

$$$$

     RDKit          3D

 14 13  0  0  0  0  0  0  0  0999 V2000
    1.8106   -0.5953    0.5577 C   0  0  0  0  0  0  0  0  0  0  0  0
    0.5197    0.2064    0.6554 C   0  0  0  0  0  0  0  0  0  0  0  0
   -0.5206   -0.2080   -0.3788 C   0  0  0  0  0  0  0  0  0  0  0  0
   -1.8114    0.5937   -0.2812 C   0  0  0  0  0  0  0  0  0  0  0  0
    2.2725   -0.4752   -0.4251 H   0  0  0  0  0  0  0  0  0  0  0  0
    1.6214   -1.6612    0.7052 H   0  0  0  0  0  0  0  0  0  0  0  0
    2.5364   -0.2784    1.3084 H   0  0  0  0  0  0  0  0  0  0  0  0
    0.0930    0.0950    1.6574 H   0  0  0  0  0  0  0  0  0  0  0  0
    0.7393    1.2723    0.5354 H   0  0  0  0  0  0  0  0  0  0  0  0
   -0.7402   -1.2739   -0.2588 H   0  0  0  0  0  0  0  0  0  0  0  0
   -0.0938   -0.0965   -1.3808 H   0  0  0  0  0  0  0  0  0  0  0  0
   -1.6222    1.6596   -0.4287 H   0  0  0  0  0  0  0  0  0  0  0  0
   -2.2734    0.4736    0.7017 H   0  0  0  0  0  0  0  0  0  0  0  0
   -2.5373    0.2768   -1.0318 H   0  0  0  0  0  0  0  0  0  0  0  0
  1  2  1  0
  1  5  1  0
  1  6  1  0
  1  7  1  0
  2  3  1  0
  2  8  1  0
  2  9  1  0
  3  4  1  0
  3 10  1  0
  3 11  1  0
  4 12  1  0
  4 13  1  0
  4 14  1  0
M  END
>  <reaction>  (3) 
rmg_rxn_326

>  <mol_properties>  (3) 
{"1": {"label": "acceptor", "atom_type": "Cs"}, "13": {"label": "a_hydrogen", "atom_type": "H0"}}

>  <type>  (3) 
r2h

$$$$

     RDKit          3D

 31 29  0  0  0  0  0  0  0  0999 V2000
    2.9759   -0.1018    0.7134 C   0  0  0  0  0  0  0  0  0  0  0  0
    1.8534    0.6395    0.0361 C   0  0  0  0  0  3  0  0  0  0  0  0
    1.8140    0.5534   -1.4687 C   0  0  0  0  0  0  0  0  0  0  0  0
    0.5394    1.1219   -2.0805 C   0  0  0  0  0  0  0  0  0  0  0  0
    3.9559    0.3019    0.4337 H   0  0  0  0  0  0  0  0  0  0  0  0
    2.9697   -1.1587    0.4319 H   0  0  0  0  0  0  0  0  0  0  0  0
    2.8963   -0.0442    1.8010 H   0  0  0  0  0  0  0  0  0  0  0  0
    1.7402    1.6644    0.3977 H   0  0  0  0  0  0  0  0  0  0  0  0
    1.9311   -0.4908   -1.7754 H   0  0  0  0  0  0  0  0  0  0  0  0
    2.6850    1.0801   -1.8826 H   0  0  0  0  0  0  0  0  0  0  0  0
    0.4015    2.1673   -1.7925 H   0  0  0  0  0  0  0  0  0  0  0  0
    0.5690    1.0790   -3.1704 H   0  0  0  0  0  0  0  0  0  0  0  0
   -0.3341    0.5624   -1.7405 H   0  0  0  0  0  0  0  0  0  0  0  0
   -0.1330   -2.5175   -0.4026 C   0  0  0  0  0  0  0  0  0  0  0  0
   -0.2047   -2.0088    1.0320 C   0  0  0  0  0  0  0  0  0  0  0  0
   -0.3566   -0.5160    1.1349 C   0  0  0  0  0  0  0  0  0  0  0  0
   -1.5012   -0.0751    0.4932 O   0  0  0  0  0  0  0  0  0  0  0  0
   -1.7681    1.2972    0.6803 C   0  0  0  0  0  0  0  0  0  0  0  0
   -2.9635    1.6799   -0.1590 C   0  0  0  0  0  0  0  0  0  0  0  0
    0.7356   -2.1051   -0.9187 H   0  0  0  0  0  0  0  0  0  0  0  0
   -1.0231   -2.2281   -0.9614 H   0  0  0  0  0  0  0  0  0  0  0  0
   -0.0536   -3.6052   -0.4268 H   0  0  0  0  0  0  0  0  0  0  0  0
    0.7019   -2.2880    1.5756 H   0  0  0  0  0  0  0  0  0  0  0  0
   -1.0423   -2.4896    1.5508 H   0  0  0  0  0  0  0  0  0  0  0  0
    0.7051    0.0491    0.5470 H   0  0  0  0  0  0  0  0  0  0  0  0
   -0.2944   -0.1439    2.1664 H   0  0  0  0  0  0  0  0  0  0  0  0
   -1.9583    1.4914    1.7450 H   0  0  0  0  0  0  0  0  0  0  0  0
   -0.8896    1.8862    0.3898 H   0  0  0  0  0  0  0  0  0  0  0  0
   -3.8342    1.0847    0.1186 H   0  0  0  0  0  0  0  0  0  0  0  0
   -2.7549    1.5147   -1.2168 H   0  0  0  0  0  0  0  0  0  0  0  0
   -3.2032    2.7343   -0.0140 H   0  0  0  0  0  0  0  0  0  0  0  0
  1  2  1  0
  1  5  1  0
  1  6  1  0
  1  7  1  0
  2  3  1  0
  2  8  1  0
  3  4  1  0
  3  9  1  0
  3 10  1  0
  4 11  1  0
  4 12  1  0
  4 13  1  0
 14 15  1  0
 14 20  1  0
 14 21  1  0
 14 22  1  0
 15 16  1  0
 15 23  1  0
 15 24  1  0
 16 17  1  0
 16 25  1  0
 16 26  1  0
 17 18  1  0
 18 19  1  0
 18 27  1  0
 18 28  1  0
 19 29  1  0
 19 30  1  0
 19 31  1  0
M  RAD  1   2   2
M  END
>  <reaction>  (4) 
rmg_rxn_326

>  <mol_properties>  (4) 
{"1": {"label": "*3", "atom_type": "Cs"}, "2": {"label": "*4", "atom_type": "Cs"}, "15": {"label": "*1", "atom_type": "Cs"}, "16": {"label": "*0", "atom_type": "O2s"}, "24": {"label": "*2", "atom_type": "H0"}}

>  <type>  (4) 
ts

$$$$

     RDKit          3D

 31 29  0  0  0  0  0  0  0  0999 V2000
    1.7821    0.2939   -1.8289 C   0  0  0  0  0  0  0  0  0  0  0  0
    1.7762    0.2782   -0.3063 C   0  0  0  0  0  0  0  0  0  0  0  0
    1.7546    1.6742    0.3054 C   0  0  0  0  0  0  0  0  0  0  0  0
    1.7487    1.6585    1.8280 C   0  0  0  0  0  0  0  0  0  0  0  0
    2.6580    0.8233   -2.2114 H   0  0  0  0  0  0  0  0  0  0  0  0
    0.8951    0.7991   -2.2185 H   0  0  0  0  0  0  0  0  0  0  0  0
    1.7977   -0.7170   -2.2396 H   0  0  0  0  0  0  0  0  0  0  0  0
    2.6573   -0.2594    0.0589 H   0  0  0  0  0  0  0  0  0  0  0  0
    0.8735    2.2118   -0.0598 H   0  0  0  0  0  0  0  0  0  0  0  0
    2.6234    2.2358   -0.0527 H   0  0  0  0  0  0  0  0  0  0  0  0
    2.6357    1.1533    2.2177 H   0  0  0  0  0  0  0  0  0  0  0  0
    1.7331    2.6694    2.2388 H   0  0  0  0  0  0  0  0  0  0  0  0
    0.8728    1.1291    2.2106 H   0  0  0  0  0  0  0  0  0  0  0  0
   -0.3154   -2.4669   -1.5624 C   0  0  0  0  0  0  0  0  0  0  0  0
   -0.3154   -2.4669   -0.0395 C   0  0  0  0  0  0  0  0  0  0  0  0
   -0.3154   -1.0739    0.5560 C   0  0  0  0  0  3  0  0  0  0  0  0
   -1.4984   -0.4103    0.1884 O   0  0  0  0  0  0  0  0  0  0  0  0
   -1.5691    0.9078    0.6693 C   0  0  0  0  0  0  0  0  0  0  0  0
   -2.8725    1.5256    0.2185 C   0  0  0  0  0  0  0  0  0  0  0  0
    0.5666   -1.9526   -1.9520 H   0  0  0  0  0  0  0  0  0  0  0  0
   -1.1982   -1.9572   -1.9485 H   0  0  0  0  0  0  0  0  0  0  0  0
   -0.3100   -3.4848   -1.9551 H   0  0  0  0  0  0  0  0  0  0  0  0
    0.5661   -2.9934    0.3368 H   0  0  0  0  0  0  0  0  0  0  0  0
   -1.1898   -3.0049    0.3358 H   0  0  0  0  0  0  0  0  0  0  0  0
    0.7336   -0.3958    0.1236 H   0  0  0  0  0  0  0  0  0  0  0  0
   -0.2406   -1.1278    1.6521 H   0  0  0  0  0  0  0  0  0  0  0  0
   -1.5019    0.9107    1.7674 H   0  0  0  0  0  0  0  0  0  0  0  0
   -0.7163    1.4908    0.2914 H   0  0  0  0  0  0  0  0  0  0  0  0
   -3.7188    0.9562    0.6042 H   0  0  0  0  0  0  0  0  0  0  0  0
   -2.9333    1.5374   -0.8703 H   0  0  0  0  0  0  0  0  0  0  0  0
   -2.9501    2.5516    0.5815 H   0  0  0  0  0  0  0  0  0  0  0  0
  1  2  1  0
  1  5  1  0
  1  6  1  0
  1  7  1  0
  2  3  1  0
  2  8  1  0
  2 25  1  0
  3  4  1  0
  3  9  1  0
  3 10  1  0
  4 11  1  0
  4 12  1  0
  4 13  1  0
 14 15  1  0
 14 20  1  0
 14 21  1  0
 14 22  1  0
 15 16  1  0
 15 23  1  0
 15 24  1  0
 16 17  1  0
 16 26  1  0
 17 18  1  0
 18 19  1  0
 18 27  1  0
 18 28  1  0
 19 29  1  0
 19 30  1  0
 19 31  1  0
M  RAD  1  16   2
M  END
>  <reaction>  (5) 
rmg_rxn_326

>  <mol_properties>  (5) 
{"1": {"label": "*3", "atom_type": "Cs"}, "2": {"label": "*4", "atom_type": "Cs"}, "15": {"label": "*1", "atom_type": "Cs"}, "16": {"label": "*0", "atom_type": "O2s"}, "24": {"label": "*2", "atom_type": "H0"}}

>  <type>  (5) 
unop_1

>  <geom_source>  (5) 
Heuristics

$$$$

     RDKit          3D

 31 29  0  0  0  0  0  0  0  0999 V2000
    3.2059    0.6248    0.6658 C   0  0  0  0  0  0  0  0  0  0  0  0
    1.7873    0.5348    0.1198 C   0  0  0  0  0  0  0  0  0  0  0  0
    1.7246    0.6349   -1.3999 C   0  0  0  0  0  0  0  0  0  0  0  0
    0.3060    0.5449   -1.9459 C   0  0  0  0  0  0  0  0  0  0  0  0
    3.6722    1.5734    0.3892 H   0  0  0  0  0  0  0  0  0  0  0  0
    3.8303   -0.1783    0.2673 H   0  0  0  0  0  0  0  0  0  0  0  0
    3.2214    0.5505    1.7544 H   0  0  0  0  0  0  0  0  0  0  0  0
    1.1744    1.3298    0.5568 H   0  0  0  0  0  0  0  0  0  0  0  0
    2.3375   -0.1601   -1.8369 H   0  0  0  0  0  0  0  0  0  0  0  0
    2.1806    1.5787   -1.7159 H   0  0  0  0  0  0  0  0  0  0  0  0
   -0.3184    1.3480   -1.5473 H   0  0  0  0  0  0  0  0  0  0  0  0
    0.2905    0.6192   -3.0344 H   0  0  0  0  0  0  0  0  0  0  0  0
   -0.1603   -0.4037   -1.6692 H   0  0  0  0  0  0  0  0  0  0  0  0
   -0.3044   -2.2103   -1.1363 C   0  0  0  0  0  0  0  0  0  0  0  0
   -0.3044   -2.2103    0.3866 C   0  0  0  0  0  0  0  0  0  0  0  0
   -0.3044   -0.8173    0.9821 C   0  0  0  0  0  3  0  0  0  0  0  0
   -1.4874   -0.1537    0.6145 O   0  0  0  0  0  0  0  0  0  0  0  0
   -1.5581    1.1644    1.0954 C   0  0  0  0  0  0  0  0  0  0  0  0
   -2.8614    1.7822    0.6446 C   0  0  0  0  0  0  0  0  0  0  0  0
    0.5777   -1.6960   -1.5259 H   0  0  0  0  0  0  0  0  0  0  0  0
   -1.1871   -1.7006   -1.5224 H   0  0  0  0  0  0  0  0  0  0  0  0
   -0.2989   -3.2282   -1.5290 H   0  0  0  0  0  0  0  0  0  0  0  0
    0.5772   -2.7368    0.7629 H   0  0  0  0  0  0  0  0  0  0  0  0
   -1.1787   -2.7483    0.7619 H   0  0  0  0  0  0  0  0  0  0  0  0
    0.7447   -0.1392    0.5497 H   0  0  0  0  0  0  0  0  0  0  0  0
   -0.2296   -0.8712    2.0782 H   0  0  0  0  0  0  0  0  0  0  0  0
   -1.4908    1.1673    2.1935 H   0  0  0  0  0  0  0  0  0  0  0  0
   -0.7052    1.7474    0.7175 H   0  0  0  0  0  0  0  0  0  0  0  0
   -3.7078    1.2128    1.0303 H   0  0  0  0  0  0  0  0  0  0  0  0
   -2.9222    1.7940   -0.4442 H   0  0  0  0  0  0  0  0  0  0  0  0
   -2.9390    2.8082    1.0076 H   0  0  0  0  0  0  0  0  0  0  0  0
  1  2  1  0
  1  5  1  0
  1  6  1  0
  1  7  1  0
  2  3  1  0
  2  8  1  0
  2 25  1  0
  3  4  1  0
  3  9  1  0
  3 10  1  0
  4 11  1  0
  4 12  1  0
  4 13  1  0
 14 15  1  0
 14 20  1  0
 14 21  1  0
 14 22  1  0
 15 16  1  0
 15 23  1  0
 15 24  1  0
 16 17  1  0
 16 26  1  0
 17 18  1  0
 18 19  1  0
 18 27  1  0
 18 28  1  0
 19 29  1  0
 19 30  1  0
 19 31  1  0
M  RAD  1  16   2
M  END
>  <reaction>  (6) 
rmg_rxn_326

>  <mol_properties>  (6) 
{"1": {"label": "*3", "atom_type": "Cs"}, "2": {"label": "*4", "atom_type": "Cs"}, "15": {"label": "*1", "atom_type": "Cs"}, "16": {"label": "*0", "atom_type": "O2s"}, "24": {"label": "*2", "atom_type": "H0"}}

>  <type>  (6) 
unop_2

>  <geom_source>  (6) 
Heuristics

$$$$

     RDKit          3D

 31 29  0  0  0  0  0  0  0  0999 V2000
    0.7622    0.9516   -1.4455 C   0  0  0  0  0  0  0  0  0  0  0  0
    1.6906    0.3546   -0.3966 C   0  0  0  0  0  0  0  0  0  0  0  0
    2.1101    1.3587    0.6708 C   0  0  0  0  0  0  0  0  0  0  0  0
    3.0385    0.7616    1.7197 C   0  0  0  0  0  0  0  0  0  0  0  0
    1.2417    1.7858   -1.9632 H   0  0  0  0  0  0  0  0  0  0  0  0
   -0.1540    1.3310   -0.9868 H   0  0  0  0  0  0  0  0  0  0  0  0
    0.4780    0.2123   -2.1960 H   0  0  0  0  0  0  0  0  0  0  0  0
    2.5857   -0.0457   -0.8835 H   0  0  0  0  0  0  0  0  0  0  0  0
    1.2150    1.7590    1.1577 H   0  0  0  0  0  0  0  0  0  0  0  0
    2.6004    2.2105    0.1885 H   0  0  0  0  0  0  0  0  0  0  0  0
    3.9547    0.3823    1.2610 H   0  0  0  0  0  0  0  0  0  0  0  0
    3.3227    1.5010    2.4703 H   0  0  0  0  0  0  0  0  0  0  0  0
    2.5590   -0.0725    2.2375 H   0  0  0  0  0  0  0  0  0  0  0  0
   -0.4011   -2.3905   -1.6527 C   0  0  0  0  0  0  0  0  0  0  0  0
   -0.4011   -2.3905   -0.1298 C   0  0  0  0  0  0  0  0  0  0  0  0
   -0.4011   -0.9975    0.4657 C   0  0  0  0  0  3  0  0  0  0  0  0
   -1.5841   -0.3339    0.0981 O   0  0  0  0  0  0  0  0  0  0  0  0
   -1.6548    0.9842    0.5790 C   0  0  0  0  0  0  0  0  0  0  0  0
   -2.9581    1.6020    0.1282 C   0  0  0  0  0  0  0  0  0  0  0  0
    0.4810   -1.8762   -2.0423 H   0  0  0  0  0  0  0  0  0  0  0  0
   -1.2838   -1.8808   -2.0388 H   0  0  0  0  0  0  0  0  0  0  0  0
   -0.3956   -3.4084   -2.0454 H   0  0  0  0  0  0  0  0  0  0  0  0
    0.4805   -2.9170    0.2465 H   0  0  0  0  0  0  0  0  0  0  0  0
   -1.2754   -2.9285    0.2455 H   0  0  0  0  0  0  0  0  0  0  0  0
    0.6480   -0.3194    0.0333 H   0  0  0  0  0  0  0  0  0  0  0  0
   -0.3263   -1.0514    1.5618 H   0  0  0  0  0  0  0  0  0  0  0  0
   -1.5875    0.9871    1.6771 H   0  0  0  0  0  0  0  0  0  0  0  0
   -0.8019    1.5672    0.2011 H   0  0  0  0  0  0  0  0  0  0  0  0
   -3.8045    1.0326    0.5139 H   0  0  0  0  0  0  0  0  0  0  0  0
   -3.0189    1.6138   -0.9606 H   0  0  0  0  0  0  0  0  0  0  0  0
   -3.0357    2.6280    0.4912 H   0  0  0  0  0  0  0  0  0  0  0  0
  1  2  1  0
  1  5  1  0
  1  6  1  0
  1  7  1  0
  2  3  1  0
  2  8  1  0
  2 25  1  0
  3  4  1  0
  3  9  1  0
  3 10  1  0
  4 11  1  0
  4 12  1  0
  4 13  1  0
 14 15  1  0
 14 20  1  0
 14 21  1  0
 14 22  1  0
 15 16  1  0
 15 23  1  0
 15 24  1  0
 16 17  1  0
 16 26  1  0
 17 18  1  0
 18 19  1  0
 18 27  1  0
 18 28  1  0
 19 29  1  0
 19 30  1  0
 19 31  1  0
M  RAD  1  16   2
M  END
>  <reaction>  (7) 
rmg_rxn_326

>  <mol_properties>  (7) 
{"1": {"label": "*3", "atom_type": "Cs"}, "2": {"label": "*4", "atom_type": "Cs"}, "15": {"label": "*1", "atom_type": "Cs"}, "16": {"label": "*0", "atom_type": "O2s"}, "24": {"label": "*2", "atom_type": "H0"}}

>  <type>  (7) 
unop_3

>  <geom_source>  (7) 
Heuristics

$$$$

     RDKit          3D

 31 29  0  0  0  0  0  0  0  0999 V2000
    0.4451    1.4243   -0.6847 C   0  0  0  0  0  0  0  0  0  0  0  0
    1.6043    0.4720   -0.4239 C   0  0  0  0  0  0  0  0  0  0  0  0
    2.4587    0.8837    0.7694 C   0  0  0  0  0  0  0  0  0  0  0  0
    3.6179   -0.0686    1.0302 C   0  0  0  0  0  0  0  0  0  0  0  0
    0.8069    2.4355   -0.8853 H   0  0  0  0  0  0  0  0  0  0  0  0
   -0.2200    1.4774    0.1805 H   0  0  0  0  0  0  0  0  0  0  0  0
   -0.1490    1.1062   -1.5430 H   0  0  0  0  0  0  0  0  0  0  0  0
    2.2380    0.4122   -1.3147 H   0  0  0  0  0  0  0  0  0  0  0  0
    1.8250    0.9435    1.6601 H   0  0  0  0  0  0  0  0  0  0  0  0
    2.8443    1.8946    0.6022 H   0  0  0  0  0  0  0  0  0  0  0  0
    4.2830   -0.1217    0.1649 H   0  0  0  0  0  0  0  0  0  0  0  0
    4.2120    0.2494    1.8885 H   0  0  0  0  0  0  0  0  0  0  0  0
    3.2562   -1.0799    1.2307 H   0  0  0  0  0  0  0  0  0  0  0  0
   -0.4873   -2.2731   -1.6801 C   0  0  0  0  0  0  0  0  0  0  0  0
   -0.4873   -2.2731   -0.1572 C   0  0  0  0  0  0  0  0  0  0  0  0
   -0.4873   -0.8801    0.4383 C   0  0  0  0  0  3  0  0  0  0  0  0
   -1.6703   -0.2165    0.0708 O   0  0  0  0  0  0  0  0  0  0  0  0
   -1.7410    1.1016    0.5516 C   0  0  0  0  0  0  0  0  0  0  0  0
   -3.0444    1.7194    0.1008 C   0  0  0  0  0  0  0  0  0  0  0  0
    0.3947   -1.7588   -2.0697 H   0  0  0  0  0  0  0  0  0  0  0  0
   -1.3701   -1.7634   -2.0661 H   0  0  0  0  0  0  0  0  0  0  0  0
   -0.4819   -3.2910   -2.0727 H   0  0  0  0  0  0  0  0  0  0  0  0
    0.3942   -2.7996    0.2191 H   0  0  0  0  0  0  0  0  0  0  0  0
   -1.3617   -2.8111    0.2181 H   0  0  0  0  0  0  0  0  0  0  0  0
    0.5617   -0.2020    0.0059 H   0  0  0  0  0  0  0  0  0  0  0  0
   -0.4125   -0.9340    1.5344 H   0  0  0  0  0  0  0  0  0  0  0  0
   -1.6738    1.1045    1.6497 H   0  0  0  0  0  0  0  0  0  0  0  0
   -0.8882    1.6846    0.1738 H   0  0  0  0  0  0  0  0  0  0  0  0
   -3.8907    1.1500    0.4865 H   0  0  0  0  0  0  0  0  0  0  0  0
   -3.1052    1.7312   -0.9880 H   0  0  0  0  0  0  0  0  0  0  0  0
   -3.1220    2.7454    0.4639 H   0  0  0  0  0  0  0  0  0  0  0  0
  1  2  1  0
  1  5  1  0
  1  6  1  0
  1  7  1  0
  2  3  1  0
  2  8  1  0
  2 25  1  0
  3  4  1  0
  3  9  1  0
  3 10  1  0
  4 11  1  0
  4 12  1  0
  4 13  1  0
 14 15  1  0
 14 20  1  0
 14 21  1  0
 14 22  1  0
 15 16  1  0
 15 23  1  0
 15 24  1  0
 16 17  1  0
 16 26  1  0
 17 18  1  0
 18 19  1  0
 18 27  1  0
 18 28  1  0
 19 29  1  0
 19 30  1  0
 19 31  1  0
M  RAD  1  16   2
M  END
>  <reaction>  (8) 
rmg_rxn_326

>  <mol_properties>  (8) 
{"1": {"label": "*3", "atom_type": "Cs"}, "2": {"label": "*4", "atom_type": "Cs"}, "15": {"label": "*1", "atom_type": "Cs"}, "16": {"label": "*0", "atom_type": "O2s"}, "24": {"label": "*2", "atom_type": "H0"}}

>  <type>  (8) 
unop_4

>  <geom_source>  (8) 
Heuristics

$$$$

     RDKit          3D

 31 29  0  0  0  0  0  0  0  0999 V2000
    1.7258    1.5389    1.1594 C   0  0  0  0  0  0  0  0  0  0  0  0
    1.5428    0.7517   -0.1311 C   0  0  0  0  0  0  0  0  0  0  0  0
    2.6855   -0.2190   -0.4059 C   0  0  0  0  0  0  0  0  0  0  0  0
    2.5025   -1.0062   -1.6964 C   0  0  0  0  0  0  0  0  0  0  0  0
    2.6452    2.1285    1.1311 H   0  0  0  0  0  0  0  0  0  0  0  0
    1.7896    0.8694    2.0205 H   0  0  0  0  0  0  0  0  0  0  0  0
    0.8948    2.2249    1.3311 H   0  0  0  0  0  0  0  0  0  0  0  0
    1.4505    1.4443   -0.9740 H   0  0  0  0  0  0  0  0  0  0  0  0
    2.7777   -0.9116    0.4369 H   0  0  0  0  0  0  0  0  0  0  0  0
    3.6271    0.3382   -0.4459 H   0  0  0  0  0  0  0  0  0  0  0  0
    2.4387   -0.3367   -2.5575 H   0  0  0  0  0  0  0  0  0  0  0  0
    3.3335   -1.6922   -1.8682 H   0  0  0  0  0  0  0  0  0  0  0  0
    1.5831   -1.5958   -1.6682 H   0  0  0  0  0  0  0  0  0  0  0  0
   -0.5489   -1.9934   -1.3873 C   0  0  0  0  0  0  0  0  0  0  0  0
   -0.5489   -1.9934    0.1356 C   0  0  0  0  0  0  0  0  0  0  0  0
   -0.5489   -0.6004    0.7312 C   0  0  0  0  0  3  0  0  0  0  0  0
   -1.7319    0.0632    0.3636 O   0  0  0  0  0  0  0  0  0  0  0  0
   -1.8026    1.3813    0.8445 C   0  0  0  0  0  0  0  0  0  0  0  0
   -3.1059    1.9991    0.3936 C   0  0  0  0  0  0  0  0  0  0  0  0
    0.3332   -1.4791   -1.7769 H   0  0  0  0  0  0  0  0  0  0  0  0
   -1.4316   -1.4837   -1.7733 H   0  0  0  0  0  0  0  0  0  0  0  0
   -0.5434   -3.0113   -1.7799 H   0  0  0  0  0  0  0  0  0  0  0  0
    0.3326   -2.5199    0.5119 H   0  0  0  0  0  0  0  0  0  0  0  0
   -1.4233   -2.5314    0.5109 H   0  0  0  0  0  0  0  0  0  0  0  0
    0.5002    0.0777    0.2987 H   0  0  0  0  0  0  0  0  0  0  0  0
   -0.4741   -0.6543    1.8272 H   0  0  0  0  0  0  0  0  0  0  0  0
   -1.7353    1.3841    1.9425 H   0  0  0  0  0  0  0  0  0  0  0  0
   -0.9497    1.9643    0.4666 H   0  0  0  0  0  0  0  0  0  0  0  0
   -3.9523    1.4297    0.7793 H   0  0  0  0  0  0  0  0  0  0  0  0
   -3.1667    2.0109   -0.6952 H   0  0  0  0  0  0  0  0  0  0  0  0
   -3.1835    3.0251    0.7567 H   0  0  0  0  0  0  0  0  0  0  0  0
  1  2  1  0
  1  5  1  0
  1  6  1  0
  1  7  1  0
  2  3  1  0
  2  8  1  0
  2 25  1  0
  3  4  1  0
  3  9  1  0
  3 10  1  0
  4 11  1  0
  4 12  1  0
  4 13  1  0
 14 15  1  0
 14 20  1  0
 14 21  1  0
 14 22  1  0
 15 16  1  0
 15 23  1  0
 15 24  1  0
 16 17  1  0
 16 26  1  0
 17 18  1  0
 18 19  1  0
 18 27  1  0
 18 28  1  0
 19 29  1  0
 19 30  1  0
 19 31  1  0
M  RAD  1  16   2
M  END
>  <reaction>  (9) 
rmg_rxn_326

>  <mol_properties>  (9) 
{"1": {"label": "*3", "atom_type": "Cs"}, "2": {"label": "*4", "atom_type": "Cs"}, "15": {"label": "*1", "atom_type": "Cs"}, "16": {"label": "*0", "atom_type": "O2s"}, "24": {"label": "*2", "atom_type": "H0"}}

>  <type>  (9) 
unop_5

>  <geom_source>  (9) 
Heuristics

$$$$

     RDKit          3D

 31 29  0  0  0  0  0  0  0  0999 V2000
    1.0510    1.7250    0.7553 C   0  0  0  0  0  0  0  0  0  0  0  0
    1.5180    0.7020   -0.2713 C   0  0  0  0  0  0  0  0  0  0  0  0
    2.7899   -0.0265    0.1471 C   0  0  0  0  0  0  0  0  0  0  0  0
    3.2568   -1.0495   -0.8795 C   0  0  0  0  0  0  0  0  0  0  0  0
    1.8149    2.4880    0.9230 H   0  0  0  0  0  0  0  0  0  0  0  0
    0.8441    1.2485    1.7165 H   0  0  0  0  0  0  0  0  0  0  0  0
    0.1401    2.2308    0.4308 H   0  0  0  0  0  0  0  0  0  0  0  0
    1.6887    1.1977   -1.2324 H   0  0  0  0  0  0  0  0  0  0  0  0
    2.6192   -0.5221    1.1083 H   0  0  0  0  0  0  0  0  0  0  0  0
    3.5829    0.7082    0.3206 H   0  0  0  0  0  0  0  0  0  0  0  0
    3.4638   -0.5730   -1.8407 H   0  0  0  0  0  0  0  0  0  0  0  0
    4.1677   -1.5553   -0.5550 H   0  0  0  0  0  0  0  0  0  0  0  0
    2.4929   -1.8124   -1.0472 H   0  0  0  0  0  0  0  0  0  0  0  0
   -0.5737   -2.0431   -1.5274 C   0  0  0  0  0  0  0  0  0  0  0  0
   -0.5737   -2.0431   -0.0045 C   0  0  0  0  0  0  0  0  0  0  0  0
   -0.5737   -0.6501    0.5910 C   0  0  0  0  0  3  0  0  0  0  0  0
   -1.7567    0.0135    0.2234 O   0  0  0  0  0  0  0  0  0  0  0  0
   -1.8274    1.3316    0.7043 C   0  0  0  0  0  0  0  0  0  0  0  0
   -3.1307    1.9494    0.2535 C   0  0  0  0  0  0  0  0  0  0  0  0
    0.3084   -1.5288   -1.9170 H   0  0  0  0  0  0  0  0  0  0  0  0
   -1.4564   -1.5334   -1.9135 H   0  0  0  0  0  0  0  0  0  0  0  0
   -0.5682   -3.0610   -1.9201 H   0  0  0  0  0  0  0  0  0  0  0  0
    0.3078   -2.5696    0.3718 H   0  0  0  0  0  0  0  0  0  0  0  0
   -1.4481   -2.5811    0.3708 H   0  0  0  0  0  0  0  0  0  0  0  0
    0.4753    0.0280    0.1585 H   0  0  0  0  0  0  0  0  0  0  0  0
   -0.4989   -0.7040    1.6870 H   0  0  0  0  0  0  0  0  0  0  0  0
   -1.7602    1.3345    1.8024 H   0  0  0  0  0  0  0  0  0  0  0  0
   -0.9745    1.9146    0.3264 H   0  0  0  0  0  0  0  0  0  0  0  0
   -3.9771    1.3800    0.6391 H   0  0  0  0  0  0  0  0  0  0  0  0
   -3.1915    1.9612   -0.8354 H   0  0  0  0  0  0  0  0  0  0  0  0
   -3.2083    2.9754    0.6165 H   0  0  0  0  0  0  0  0  0  0  0  0
  1  2  1  0
  1  5  1  0
  1  6  1  0
  1  7  1  0
  2  3  1  0
  2  8  1  0
  2 25  1  0
  3  4  1  0
  3  9  1  0
  3 10  1  0
  4 11  1  0
  4 12  1  0
  4 13  1  0
 14 15  1  0
 14 20  1  0
 14 21  1  0
 14 22  1  0
 15 16  1  0
 15 23  1  0
 15 24  1  0
 16 17  1  0
 16 26  1  0
 17 18  1  0
 18 19  1  0
 18 27  1  0
 18 28  1  0
 19 29  1  0
 19 30  1  0
 19 31  1  0
M  RAD  1  16   2
M  END
>  <reaction>  (10) 
rmg_rxn_326

>  <mol_properties>  (10) 
{"1": {"label": "*3", "atom_type": "Cs"}, "2": {"label": "*4", "atom_type": "Cs"}, "15": {"label": "*1", "atom_type": "Cs"}, "16": {"label": "*0", "atom_type": "O2s"}, "24": {"label": "*2", "atom_type": "H0"}}

>  <type>  (10) 
unop_6

>  <geom_source>  (10) 
Heuristics

$$$$

     RDKit          3D

 31 28  0  0  0  0  0  0  0  0999 V2000
    3.3070   -0.0689   -0.3712 C   0  0  0  0  0  0  0  0  0  0  0  0
    1.8694    0.3074   -0.0390 C   0  0  0  0  0  0  0  0  0  0  0  0
    1.3892    1.5477   -0.7838 C   0  0  0  0  0  3  0  0  0  0  0  0
   -0.0484    1.9240   -0.4517 C   0  0  0  0  0  3  0  0  0  0  0  0
    3.9929    0.7423   -0.1155 H   0  0  0  0  0  0  0  0  0  0  0  0
    3.4214   -0.2735   -1.4383 H   0  0  0  0  0  0  0  0  0  0  0  0
    3.6243   -0.9587    0.1750 H   0  0  0  0  0  0  0  0  0  0  0  0
    1.7736    0.4770    1.0383 H   0  0  0  0  0  0  0  0  0  0  0  0
    1.4849    1.3781   -1.8612 H   0  0  0  0  0  0  0  0  0  0  0  0
    2.0522    2.3863   -0.5481 H   0  0  0  0  0  0  0  0  0  0  0  0
   -0.1628    2.1286    0.6155 H   0  0  0  0  0  0  0  0  0  0  0  0
   -0.3658    2.8138   -0.9978 H   0  0  0  0  0  0  0  0  0  0  0  0
   -0.7343    1.1128   -0.7074 H   0  0  0  0  0  0  0  0  0  0  0  0
   -0.2223   -2.4377   -1.2951 C   0  0  0  0  0  0  0  0  0  0  0  0
   -0.2223   -2.4377    0.2278 C   0  0  0  0  0  0  0  0  0  0  0  0
   -0.2223   -1.0446    0.8233 C   0  0  0  0  0  3  0  0  0  0  0  0
   -1.4053   -0.3810    0.4557 O   0  0  0  0  0  0  0  0  0  0  0  0
   -1.4760    0.9370    0.9366 C   0  0  0  0  0  0  0  0  0  0  0  0
   -2.7793    1.5548    0.4857 C   0  0  0  0  0  0  0  0  0  0  0  0
    0.6598   -1.9233   -1.6848 H   0  0  0  0  0  0  0  0  0  0  0  0
   -1.1050   -1.9280   -1.6812 H   0  0  0  0  0  0  0  0  0  0  0  0
   -0.2168   -3.4555   -1.6878 H   0  0  0  0  0  0  0  0  0  0  0  0
    0.6592   -2.9641    0.6040 H   0  0  0  0  0  0  0  0  0  0  0  0
   -1.0967   -2.9756    0.6030 H   0  0  0  0  0  0  0  0  0  0  0  0
    0.8268   -0.3665    0.3908 H   0  0  0  0  0  0  0  0  0  0  0  0
   -0.1475   -1.0985    1.9193 H   0  0  0  0  0  0  0  0  0  0  0  0
   -1.4087    0.9399    2.0347 H   0  0  0  0  0  0  0  0  0  0  0  0
   -0.6231    1.5200    0.5587 H   0  0  0  0  0  0  0  0  0  0  0  0
   -3.6257    0.9854    0.8714 H   0  0  0  0  0  0  0  0  0  0  0  0
   -2.8401    1.5667   -0.6031 H   0  0  0  0  0  0  0  0  0  0  0  0
   -2.8569    2.5809    0.8488 H   0  0  0  0  0  0  0  0  0  0  0  0
  1  2  1  0
  1  5  1  0
  1  6  1  0
  1  7  1  0
  2  3  1  0
  2  8  1  0
  2 25  1  0
  3  9  1  0
  3 10  1  0
  4 11  1  0
  4 12  1  0
  4 13  1  0
 14 15  1  0
 14 20  1  0
 14 21  1  0
 14 22  1  0
 15 16  1  0
 15 23  1  0
 15 24  1  0
 16 17  1  0
 16 26  1  0
 17 18  1  0
 18 19  1  0
 18 27  1  0
 18 28  1  0
 19 29  1  0
 19 30  1  0
 19 31  1  0
M  RAD  3   3   2   4   2  16   2
M  END
>  <reaction>  (11) 
rmg_rxn_326

>  <mol_properties>  (11) 
{"1": {"label": "*3", "atom_type": "Cs"}, "2": {"label": "*4", "atom_type": "Cs"}, "15": {"label": "*1", "atom_type": "Cs"}, "16": {"label": "*0", "atom_type": "O2s"}, "24": {"label": "*2", "atom_type": "H0"}}

>  <type>  (11) 
unop_7

>  <geom_source>  (11) 
Heuristics

$$$$

     RDKit          3D

 31 29  0  0  0  0  0  0  0  0999 V2000
    3.3537    0.2592    0.2550 C   0  0  0  0  0  0  0  0  0  0  0  0
    1.8496    0.4076    0.0701 C   0  0  0  0  0  0  0  0  0  0  0  0
    1.4749    1.1419   -1.2121 C   0  0  0  0  0  0  0  0  0  0  0  0
   -0.0292    1.2903   -1.3970 C   0  0  0  0  0  0  0  0  0  0  0  0
    3.8417    1.2361    0.2927 H   0  0  0  0  0  0  0  0  0  0  0  0
    3.7967   -0.2990   -0.5732 H   0  0  0  0  0  0  0  0  0  0  0  0
    3.5933   -0.2692    1.1792 H   0  0  0  0  0  0  0  0  0  0  0  0
    1.4253    0.9422    0.9261 H   0  0  0  0  0  0  0  0  0  0  0  0
    1.8993    0.6073   -2.0681 H   0  0  0  0  0  0  0  0  0  0  0  0
    1.9440    2.1311   -1.2086 H   0  0  0  0  0  0  0  0  0  0  0  0
   -0.4721    1.8485   -0.5688 H   0  0  0  0  0  0  0  0  0  0  0  0
   -0.2687    1.8186   -2.3212 H   0  0  0  0  0  0  0  0  0  0  0  0
   -0.5171    0.3134   -1.4347 H   0  0  0  0  0  0  0  0  0  0  0  0
   -0.2420   -2.3375   -1.1860 C   0  0  0  0  0  0  0  0  0  0  0  0
   -0.2420   -2.3375    0.3369 C   0  0  0  0  0  0  0  0  0  0  0  0
   -0.2420   -0.9444    0.9324 C   0  0  0  0  0  3  0  0  0  0  0  0
   -1.4250   -0.2808    0.5648 O   0  0  0  0  0  0  0  0  0  0  0  0
   -1.4958    1.0372    1.0457 C   0  0  0  0  0  0  0  0  0  0  0  0
   -2.7991    1.6550    0.5949 C   0  0  0  0  0  0  0  0  0  0  0  0
    0.6400   -1.8232   -1.5757 H   0  0  0  0  0  0  0  0  0  0  0  0
   -1.1248   -1.8278   -1.5721 H   0  0  0  0  0  0  0  0  0  0  0  0
   -0.2366   -3.3554   -1.5787 H   0  0  0  0  0  0  0  0  0  0  0  0
    0.6395   -2.8640    0.7132 H   0  0  0  0  0  0  0  0  0  0  0  0
   -1.1164   -2.8755    0.7121 H   0  0  0  0  0  0  0  0  0  0  0  0
    0.8070   -0.2663    0.4999 H   0  0  0  0  0  0  0  0  0  0  0  0
   -0.1673   -0.9984    2.0284 H   0  0  0  0  0  0  0  0  0  0  0  0
   -1.4285    1.0401    2.1438 H   0  0  0  0  0  0  0  0  0  0  0  0
   -0.6429    1.6202    0.6678 H   0  0  0  0  0  0  0  0  0  0  0  0
   -3.6454    1.0856    0.9805 H   0  0  0  0  0  0  0  0  0  0  0  0
   -2.8599    1.6669   -0.4940 H   0  0  0  0  0  0  0  0  0  0  0  0
   -2.8767    2.6810    0.9579 H   0  0  0  0  0  0  0  0  0  0  0  0
  1  2  1  0
  1  5  1  0
  1  6  1  0
  1  7  1  0
  2  3  1  0
  2  8  1  0
  2 25  1  0
  3  4  1  0
  3  9  1  0
  3 10  1  0
  4 11  1  0
  4 12  1  0
  4 13  1  0
 14 15  1  0
 14 20  1  0
 14 21  1  0
 14 22  1  0
 15 16  1  0
 15 23  1  0
 15 24  1  0
 16 17  1  0
 16 26  1  0
 17 18  1  0
 18 19  1  0
 18 27  1  0
 18 28  1  0
 19 29  1  0
 19 30  1  0
 19 31  1  0
M  RAD  1  16   2
M  END
>  <reaction>  (12) 
rmg_rxn_326

>  <mol_properties>  (12) 
{"1": {"label": "*3", "atom_type": "Cs"}, "2": {"label": "*4", "atom_type": "Cs"}, "15": {"label": "*1", "atom_type": "Cs"}, "16": {"label": "*0", "atom_type": "O2s"}, "24": {"label": "*2", "atom_type": "H0"}}

>  <type>  (12) 
unop_8

>  <geom_source>  (12) 
Heuristics

$$$$

     RDKit          3D

 31 29  0  0  0  0  0  0  0  0999 V2000
    0.5880    1.6922    0.0870 C   0  0  0  0  0  0  0  0  0  0  0  0
    1.5408    0.5993   -0.3784 C   0  0  0  0  0  0  0  0  0  0  0  0
    2.7072    0.3769    0.5774 C   0  0  0  0  0  0  0  0  0  0  0  0
    3.6599   -0.7160    0.1120 C   0  0  0  0  0  0  0  0  0  0  0  0
    1.1072    2.6486    0.1846 H   0  0  0  0  0  0  0  0  0  0  0  0
    0.1593    1.4486    1.0620 H   0  0  0  0  0  0  0  0  0  0  0  0
   -0.2362    1.8302   -0.6147 H   0  0  0  0  0  0  0  0  0  0  0  0
    1.9325    0.8510   -1.3693 H   0  0  0  0  0  0  0  0  0  0  0  0
    2.3154    0.1252    1.5682 H   0  0  0  0  0  0  0  0  0  0  0  0
    3.2563    1.3164    0.6973 H   0  0  0  0  0  0  0  0  0  0  0  0
    4.0886   -0.4723   -0.8630 H   0  0  0  0  0  0  0  0  0  0  0  0
    4.4842   -0.8540    0.8136 H   0  0  0  0  0  0  0  0  0  0  0  0
    3.1407   -1.6724    0.0144 H   0  0  0  0  0  0  0  0  0  0  0  0
   -0.5509   -2.1458   -1.6345 C   0  0  0  0  0  0  0  0  0  0  0  0
   -0.5509   -2.1458   -0.1116 C   0  0  0  0  0  0  0  0  0  0  0  0
   -0.5509   -0.7527    0.4839 C   0  0  0  0  0  3  0  0  0  0  0  0
   -1.7339   -0.0891    0.1163 O   0  0  0  0  0  0  0  0  0  0  0  0
   -1.8046    1.2290    0.5972 C   0  0  0  0  0  0  0  0  0  0  0  0
   -3.1079    1.8467    0.1463 C   0  0  0  0  0  0  0  0  0  0  0  0
    0.3312   -1.6314   -2.0242 H   0  0  0  0  0  0  0  0  0  0  0  0
   -1.4336   -1.6361   -2.0206 H   0  0  0  0  0  0  0  0  0  0  0  0
   -0.5454   -3.1636   -2.0272 H   0  0  0  0  0  0  0  0  0  0  0  0
    0.3306   -2.6722    0.2646 H   0  0  0  0  0  0  0  0  0  0  0  0
   -1.4253   -2.6837    0.2636 H   0  0  0  0  0  0  0  0  0  0  0  0
    0.4982   -0.0746    0.0514 H   0  0  0  0  0  0  0  0  0  0  0  0
   -0.4761   -0.8066    1.5799 H   0  0  0  0  0  0  0  0  0  0  0  0
   -1.7373    1.2318    1.6952 H   0  0  0  0  0  0  0  0  0  0  0  0
   -0.9517    1.8119    0.2193 H   0  0  0  0  0  0  0  0  0  0  0  0
   -3.9543    1.2773    0.5320 H   0  0  0  0  0  0  0  0  0  0  0  0
   -3.1687    1.8586   -0.9425 H   0  0  0  0  0  0  0  0  0  0  0  0
   -3.1855    2.8728    0.5094 H   0  0  0  0  0  0  0  0  0  0  0  0
  1  2  1  0
  1  5  1  0
  1  6  1  0
  1  7  1  0
  2  3  1  0
  2  8  1  0
  2 25  1  0
  3  4  1  0
  3  9  1  0
  3 10  1  0
  4 11  1  0
  4 12  1  0
  4 13  1  0
 14 15  1  0
 14 20  1  0
 14 21  1  0
 14 22  1  0
 15 16  1  0
 15 23  1  0
 15 24  1  0
 16 17  1  0
 16 26  1  0
 17 18  1  0
 18 19  1  0
 18 27  1  0
 18 28  1  0
 19 29  1  0
 19 30  1  0
 19 31  1  0
M  RAD  1  16   2
M  END
>  <reaction>  (13) 
rmg_rxn_326

>  <mol_properties>  (13) 
{"1": {"label": "*3", "atom_type": "Cs"}, "2": {"label": "*4", "atom_type": "Cs"}, "15": {"label": "*1", "atom_type": "Cs"}, "16": {"label": "*0", "atom_type": "O2s"}, "24": {"label": "*2", "atom_type": "H0"}}

>  <type>  (13) 
unop_9

>  <geom_source>  (13) 
Heuristics

$$$$

     RDKit          3D

 31 29  0  0  0  0  0  0  0  0999 V2000
    2.9117    0.9437    0.9702 C   0  0  0  0  0  0  0  0  0  0  0  0
    1.6991    0.6547    0.0958 C   0  0  0  0  0  0  0  0  0  0  0  0
    2.0712    0.1624   -1.2980 C   0  0  0  0  0  0  0  0  0  0  0  0
    0.8586   -0.1267   -2.1723 C   0  0  0  0  0  0  0  0  0  0  0  0
    3.5452    1.7114    0.5194 H   0  0  0  0  0  0  0  0  0  0  0  0
    3.5224    0.0472    1.1011 H   0  0  0  0  0  0  0  0  0  0  0  0
    2.6168    1.2940    1.9607 H   0  0  0  0  0  0  0  0  0  0  0  0
    1.0878    1.5584    0.0052 H   0  0  0  0  0  0  0  0  0  0  0  0
    2.6825   -0.7414   -1.2073 H   0  0  0  0  0  0  0  0  0  0  0  0
    2.7051    0.9105   -1.7848 H   0  0  0  0  0  0  0  0  0  0  0  0
    0.2479    0.7698   -2.3033 H   0  0  0  0  0  0  0  0  0  0  0  0
    1.1535   -0.4770   -3.1628 H   0  0  0  0  0  0  0  0  0  0  0  0
    0.2251   -0.8944   -1.7215 H   0  0  0  0  0  0  0  0  0  0  0  0
   -0.3926   -2.0905   -1.1603 C   0  0  0  0  0  0  0  0  0  0  0  0
   -0.3926   -2.0905    0.3626 C   0  0  0  0  0  0  0  0  0  0  0  0
   -0.3926   -0.6974    0.9581 C   0  0  0  0  0  3  0  0  0  0  0  0
   -1.5756   -0.0338    0.5905 O   0  0  0  0  0  0  0  0  0  0  0  0
   -1.6463    1.2843    1.0714 C   0  0  0  0  0  0  0  0  0  0  0  0
   -2.9496    1.9021    0.6206 C   0  0  0  0  0  0  0  0  0  0  0  0
    0.4895   -1.5761   -1.5499 H   0  0  0  0  0  0  0  0  0  0  0  0
   -1.2753   -1.5808   -1.5464 H   0  0  0  0  0  0  0  0  0  0  0  0
   -0.3871   -3.1083   -1.5530 H   0  0  0  0  0  0  0  0  0  0  0  0
    0.4889   -2.6169    0.7389 H   0  0  0  0  0  0  0  0  0  0  0  0
   -1.2670   -2.6284    0.7379 H   0  0  0  0  0  0  0  0  0  0  0  0
    0.6564   -0.0193    0.5256 H   0  0  0  0  0  0  0  0  0  0  0  0
   -0.3178   -0.7513    2.0542 H   0  0  0  0  0  0  0  0  0  0  0  0
   -1.5791    1.2871    2.1695 H   0  0  0  0  0  0  0  0  0  0  0  0
   -0.7934    1.8672    0.6935 H   0  0  0  0  0  0  0  0  0  0  0  0
   -3.7960    1.3326    1.0063 H   0  0  0  0  0  0  0  0  0  0  0  0
   -3.0104    1.9139   -0.4682 H   0  0  0  0  0  0  0  0  0  0  0  0
   -3.0272    2.9281    0.9836 H   0  0  0  0  0  0  0  0  0  0  0  0
  1  2  1  0
  1  5  1  0
  1  6  1  0
  1  7  1  0
  2  3  1  0
  2  8  1  0
  2 25  1  0
  3  4  1  0
  3  9  1  0
  3 10  1  0
  4 11  1  0
  4 12  1  0
  4 13  1  0
 14 15  1  0
 14 20  1  0
 14 21  1  0
 14 22  1  0
 15 16  1  0
 15 23  1  0
 15 24  1  0
 16 17  1  0
 16 26  1  0
 17 18  1  0
 18 19  1  0
 18 27  1  0
 18 28  1  0
 19 29  1  0
 19 30  1  0
 19 31  1  0
M  RAD  1  16   2
M  END
>  <reaction>  (14) 
rmg_rxn_326

>  <mol_properties>  (14) 
{"1": {"label": "*3", "atom_type": "Cs"}, "2": {"label": "*4", "atom_type": "Cs"}, "15": {"label": "*1", "atom_type": "Cs"}, "16": {"label": "*0", "atom_type": "O2s"}, "24": {"label": "*2", "atom_type": "H0"}}

>  <type>  (14) 
unop_10

>  <geom_source>  (14) 
Heuristics

$$$$

     RDKit          3D

 31 29  0  0  0  0  0  0  0  0999 V2000
   -1.9268    0.1178   -0.4388 O   0  0  0  0  0  0  0  0  0  0  0  0
    2.4925    0.3790   -0.4639 C   0  0  0  0  0  0  0  0  0  0  0  0
    1.3234    0.4273    0.5295 C   0  0  0  0  0  0  0  0  0  0  0  0
   -0.5405    1.2725    1.1612 C   0  0  0  0  0  0  0  0  0  0  0  0
   -1.4236   -0.7489   -1.4260 C   0  0  0  0  0  0  0  0  0  0  0  0
    2.3249   -0.7183   -1.5136 C   0  0  0  0  0  0  0  0  0  0  0  0
    1.3098   -0.7654    1.4837 C   0  0  0  0  0  0  0  0  0  0  0  0
   -1.6815    1.6798    2.0901 C   0  0  0  0  0  0  0  0  0  0  0  0
   -2.3924   -1.9061   -1.6154 C   0  0  0  0  0  0  0  0  0  0  0  0
   -1.0016    1.1631   -0.2904 C   0  0  0  0  0  3  0  0  0  0  0  0
    3.4518    0.2340    0.0789 H   0  0  0  0  0  0  0  0  0  0  0  0
    2.5462    1.3574   -0.9884 H   0  0  0  0  0  0  0  0  0  0  0  0
    1.4118    1.3567    1.1328 H   0  0  0  0  0  0  0  0  0  0  0  0
    0.1828    0.4795   -0.1210 H   0  0  0  0  0  0  0  0  0  0  0  0
    0.2672    2.0324    1.2221 H   0  0  0  0  0  0  0  0  0  0  0  0
   -0.1233    0.2964    1.4898 H   0  0  0  0  0  0  0  0  0  0  0  0
   -0.4364   -1.1672   -1.1196 H   0  0  0  0  0  0  0  0  0  0  0  0
   -1.3177   -0.2184   -2.4009 H   0  0  0  0  0  0  0  0  0  0  0  0
    2.3847   -1.7226   -1.0455 H   0  0  0  0  0  0  0  0  0  0  0  0
    3.1394   -0.6379   -2.2640 H   0  0  0  0  0  0  0  0  0  0  0  0
    1.3512   -0.6106   -2.0371 H   0  0  0  0  0  0  0  0  0  0  0  0
    2.2838   -0.8544    2.0101 H   0  0  0  0  0  0  0  0  0  0  0  0
    1.0979   -1.7045    0.9325 H   0  0  0  0  0  0  0  0  0  0  0  0
    0.5101   -0.6209    2.2400 H   0  0  0  0  0  0  0  0  0  0  0  0
   -2.5082   -2.4646   -0.6623 H   0  0  0  0  0  0  0  0  0  0  0  0
   -3.3843   -1.5230   -1.9364 H   0  0  0  0  0  0  0  0  0  0  0  0
   -2.0044   -2.5975   -2.3931 H   0  0  0  0  0  0  0  0  0  0  0  0
   -1.2995    1.7700    3.1288 H   0  0  0  0  0  0  0  0  0  0  0  0
   -2.1006    2.6606    1.7796 H   0  0  0  0  0  0  0  0  0  0  0  0
   -2.4865    0.9148    2.0749 H   0  0  0  0  0  0  0  0  0  0  0  0
   -1.4501    2.1189   -0.6375 H   0  0  0  0  0  0  0  0  0  0  0  0
  1  5  1  0
  1 10  1  0
  2  6  1  0
  2  3  1  0
  2 11  1  0
  2 12  1  0
  3  7  1  0
  3 13  1  0
  3 14  1  0
  4  8  1  0
  4 10  1  0
  4 15  1  0
  4 16  1  0
  5  9  1  0
  5 17  1  0
  5 18  1  0
  6 19  1  0
  6 20  1  0
  6 21  1  0
  7 22  1  0
  7 23  1  0
  7 24  1  0
  8 28  1  0
  8 29  1  0
  8 30  1  0
  9 25  1  0
  9 26  1  0
  9 27  1  0
 10 31  1  0
M  RAD  1  10   2
M  END
>  <reaction>  (15) 
rmg_rxn_326

>  <mol_properties>  (15) 
{"1": {"label": "*3", "atom_type": "Cs"}, "2": {"label": "*4", "atom_type": "Cs"}, "15": {"label": "*1", "atom_type": "Cs"}, "16": {"label": "*0", "atom_type": "O2s"}, "24": {"label": "*2", "atom_type": "H0"}}

>  <type>  (15) 
unop_11

>  <geom_source>  (15) 
AutoTST

$$$$

     RDKit          3D

 31 29  0  0  0  0  0  0  0  0999 V2000
    3.2059    0.6248    0.6658 C   0  0  0  0  0  0  0  0  0  0  0  0
    1.7873    0.5348    0.1198 C   0  0  0  0  0  0  0  0  0  0  0  0
    1.7246    0.6349   -1.3999 C   0  0  0  0  0  0  0  0  0  0  0  0
    0.3060    0.5449   -1.9459 C   0  0  0  0  0  0  0  0  0  0  0  0
    3.6722    1.5734    0.3892 H   0  0  0  0  0  0  0  0  0  0  0  0
    3.8303   -0.1783    0.2673 H   0  0  0  0  0  0  0  0  0  0  0  0
    3.2214    0.5505    1.7544 H   0  0  0  0  0  0  0  0  0  0  0  0
    1.1744    1.3298    0.5568 H   0  0  0  0  0  0  0  0  0  0  0  0
    2.3375   -0.1601   -1.8369 H   0  0  0  0  0  0  0  0  0  0  0  0
    2.1806    1.5787   -1.7159 H   0  0  0  0  0  0  0  0  0  0  0  0
   -0.3184    1.3480   -1.5473 H   0  0  0  0  0  0  0  0  0  0  0  0
    0.2905    0.6192   -3.0344 H   0  0  0  0  0  0  0  0  0  0  0  0
   -0.1603   -0.4037   -1.6692 H   0  0  0  0  0  0  0  0  0  0  0  0
   -0.3044   -2.2103   -1.1363 C   0  0  0  0  0  0  0  0  0  0  0  0
   -0.3044   -2.2103    0.3866 C   0  0  0  0  0  0  0  0  0  0  0  0
   -0.3044   -0.8173    0.9821 C   0  0  0  0  0  3  0  0  0  0  0  0
   -1.4874   -0.1537    0.6145 O   0  0  0  0  0  0  0  0  0  0  0  0
   -1.5581    1.1644    1.0954 C   0  0  0  0  0  0  0  0  0  0  0  0
   -2.8614    1.7822    0.6446 C   0  0  0  0  0  0  0  0  0  0  0  0
    0.5777   -1.6960   -1.5259 H   0  0  0  0  0  0  0  0  0  0  0  0
   -1.1871   -1.7006   -1.5224 H   0  0  0  0  0  0  0  0  0  0  0  0
   -0.2989   -3.2282   -1.5290 H   0  0  0  0  0  0  0  0  0  0  0  0
    0.5772   -2.7368    0.7629 H   0  0  0  0  0  0  0  0  0  0  0  0
   -1.1787   -2.7483    0.7619 H   0  0  0  0  0  0  0  0  0  0  0  0
    0.7447   -0.1392    0.5497 H   0  0  0  0  0  0  0  0  0  0  0  0
   -0.2296   -0.8712    2.0782 H   0  0  0  0  0  0  0  0  0  0  0  0
   -1.4908    1.1673    2.1935 H   0  0  0  0  0  0  0  0  0  0  0  0
   -0.7052    1.7474    0.7175 H   0  0  0  0  0  0  0  0  0  0  0  0
   -3.7078    1.2128    1.0303 H   0  0  0  0  0  0  0  0  0  0  0  0
   -2.9222    1.7940   -0.4442 H   0  0  0  0  0  0  0  0  0  0  0  0
   -2.9390    2.8082    1.0076 H   0  0  0  0  0  0  0  0  0  0  0  0
  1  2  1  0
  1  5  1  0
  1  6  1  0
  1  7  1  0
  2  3  1  0
  2  8  1  0
  2 25  1  0
  3  4  1  0
  3  9  1  0
  3 10  1  0
  4 11  1  0
  4 12  1  0
  4 13  1  0
 14 15  1  0
 14 20  1  0
 14 21  1  0
 14 22  1  0
 15 16  1  0
 15 23  1  0
 15 24  1  0
 16 17  1  0
 16 26  1  0
 17 18  1  0
 18 19  1  0
 18 27  1  0
 18 28  1  0
 19 29  1  0
 19 30  1  0
 19 31  1  0
M  RAD  1  16   2
M  END
>  <reaction>  (16) 
rmg_rxn_326

>  <mol_properties>  (16) 
{"1": {"label": "*3", "atom_type": "Cs"}, "2": {"label": "*4", "atom_type": "Cs"}, "15": {"label": "*1", "atom_type": "Cs"}, "16": {"label": "*0", "atom_type": "O2s"}, "24": {"label": "*2", "atom_type": "H0"}}

>  <type>  (16) 
unop_12

>  <geom_source>  (16) 
gaussian_log

$$$$
