
     RDKit          3D

 14 14  0  0  0  0  0  0  0  0999 V2000
   -1.1778    0.2241    0.1818 C   0  0  0  0  0  0  0  0  0  0  0  0
   -0.5633   -1.1636    0.0678 C   0  0  0  0  0  0  0  0  0  0  0  0
    0.6943   -1.1996    0.7146 O   0  0  0  0  0  0  0  0  0  0  0  0
    1.5547   -0.2288    0.2011 C   0  0  0  0  0  0  0  0  0  0  0  0
    1.0729    1.0696    0.3698 O   0  0  0  0  0  0  0  0  0  0  0  0
   -0.1607    1.2493   -0.2989 C   0  0  0  0  0  0  0  0  0  0  0  0
   -2.0927    0.2866   -0.4117 H   0  0  0  0  0  0  0  0  0  0  0  0
   -1.4303    0.4248    1.2248 H   0  0  0  0  0  0  0  0  0  0  0  0
   -1.1822   -1.9235    0.5431 H   0  0  0  0  0  0  0  0  0  0  0  0
   -0.4389   -1.4347   -0.9919 H   0  0  0  0  0  0  0  0  0  0  0  0
    1.7250   -0.4207   -0.8742 H   0  0  0  0  0  0  0  0  0  0  0  0
    2.4896   -0.3010    0.7524 H   0  0  0  0  0  0  0  0  0  0  0  0
   -0.0080    1.1481   -1.3844 H   0  0  0  0  0  0  0  0  0  0  0  0
   -0.4826    2.2695   -0.0942 H   0  0  0  0  0  0  0  0  0  0  0  0
  1  2  1  0
  1  6  1  0
  1  7  1  0
  1  8  1  0
  2  3  1  0
  2  9  1  0
  2 10  1  0
  3  4  1  0
  4  5  1  0
  4 11  1  0
  4 12  1  0
  5  6  1  0
  6 13  1  0
  6 14  1  0
M  END
>  <reaction>  (1) 
rmg_rxn_351

>  <mol_properties>  (1) 
{"1": {"label": "donator", "atom_type": "Cs"}, "8": {"label": "d_hydrogen", "atom_type": "H0"}}

>  <type>  (1) 
r1h

$$$$

     RDKit          3D

  8  7  0  0  0  0  0  0  0  0999 V2000
    1.3778   -0.6812    0.2772 C   0  0  0  0  0  3  0  0  0  0  0  0
    0.4890    0.2108   -0.0590 C   0  0  0  0  0  0  0  0  0  0  0  0
   -1.0010    0.0286   -0.0323 C   0  0  0  0  0  0  0  0  0  0  0  0
    2.4535   -0.7507    0.3287 H   0  0  0  0  0  0  0  0  0  0  0  0
    0.8447    1.1899   -0.3945 H   0  0  0  0  0  0  0  0  0  0  0  0
   -1.4635    0.7638    0.6301 H   0  0  0  0  0  0  0  0  0  0  0  0
   -1.2709   -0.9687    0.3117 H   0  0  0  0  0  0  0  0  0  0  0  0
   -1.4218    0.1801   -1.0289 H   0  0  0  0  0  0  0  0  0  0  0  0
  1  2  2  3
  1  4  1  0
  2  3  1  0
  2  5  1  0
  3  6  1  0
  3  7  1  0
  3  8  1  0
M  RAD  1   1   2
M  END
>  <reaction>  (2) 
rmg_rxn_351

>  <mol_properties>  (2) 
{"0": {"label": "acceptor", "atom_type": "Cd"}}

>  <type>  (2) 
r2

$$$$

     RDKit          3D

  9  8  0  0  0  0  0  0  0  0999 V2000
    1.1303   -0.2933   -0.7510 C   0  0  0  0  0  0  0  0  0  0  0  0
    0.2866    0.4560   -0.0588 C   0  0  0  0  0  0  0  0  0  0  0  0
   -0.9719   -0.0331    0.5823 C   0  0  0  0  0  0  0  0  0  0  0  0
    2.0274    0.1230   -1.1916 H   0  0  0  0  0  0  0  0  0  0  0  0
    0.9532   -1.3530   -0.9023 H   0  0  0  0  0  0  0  0  0  0  0  0
    0.5065    1.5132    0.0659 H   0  0  0  0  0  0  0  0  0  0  0  0
   -0.9526    0.1426    1.6610 H   0  0  0  0  0  0  0  0  0  0  0  0
   -1.1182   -1.1002    0.4106 H   0  0  0  0  0  0  0  0  0  0  0  0
   -1.8412    0.5010    0.1901 H   0  0  0  0  0  0  0  0  0  0  0  0
  1  2  2  3
  1  4  1  0
  1  5  1  0
  2  3  1  0
  2  6  1  0
  3  7  1  0
  3  8  1  0
  3  9  1  0
M  END
>  <reaction>  (3) 
rmg_rxn_351

>  <mol_properties>  (3) 
{"0": {"label": "acceptor", "atom_type": "Cd"}, "8": {"label": "a_hydrogen", "atom_type": "H0"}}

>  <type>  (3) 
r2h

$$$$

     RDKit          3D

 22 21  0  0  0  0  0  0  0  0999 V2000
    0.8162   -2.1891    0.9326 C   0  0  0  0  0  3  0  0  0  0  0  0
   -0.3951   -2.6947    0.8669 C   0  0  0  0  0  0  0  0  0  0  0  0
   -0.7519   -4.1343    1.0980 C   0  0  0  0  0  0  0  0  0  0  0  0
    1.7491   -2.6960    1.1567 H   0  0  0  0  0  0  0  0  0  0  0  0
   -1.2193   -2.0245    0.6287 H   0  0  0  0  0  0  0  0  0  0  0  0
   -1.4610   -4.2248    1.9246 H   0  0  0  0  0  0  0  0  0  0  0  0
    0.1285   -4.7338    1.3304 H   0  0  0  0  0  0  0  0  0  0  0  0
   -1.2349   -4.5561    0.2130 H   0  0  0  0  0  0  0  0  0  0  0  0
    1.2726    0.5904   -1.0699 C   0  0  0  0  0  0  0  0  0  0  0  0
    0.7510    0.4065    0.3349 C   0  0  0  0  0  0  0  0  0  0  0  0
   -0.6279    0.6291    0.4090 O   0  0  0  0  0  0  0  0  0  0  0  0
   -0.9789    1.8879   -0.1012 C   0  0  0  0  0  0  0  0  0  0  0  0
   -0.6135    2.0486   -1.4343 O   0  0  0  0  0  0  0  0  0  0  0  0
    0.7870    1.9357   -1.6021 C   0  0  0  0  0  0  0  0  0  0  0  0
    2.3632    0.5427   -1.0836 H   0  0  0  0  0  0  0  0  0  0  0  0
    0.8847   -0.2094   -1.7049 H   0  0  0  0  0  0  0  0  0  0  0  0
    0.8964   -0.8154    0.6704 H   0  0  0  0  0  0  0  0  0  0  0  0
    1.2931    0.9905    1.0906 H   0  0  0  0  0  0  0  0  0  0  0  0
   -0.5033    2.6724    0.5132 H   0  0  0  0  0  0  0  0  0  0  0  0
   -2.0626    1.9645   -0.0475 H   0  0  0  0  0  0  0  0  0  0  0  0
    1.2890    2.7575   -1.0702 H   0  0  0  0  0  0  0  0  0  0  0  0
    0.9844    2.0453   -2.6678 H   0  0  0  0  0  0  0  0  0  0  0  0
  1  2  2  3
  1  4  1  0
  2  3  1  0
  2  5  1  0
  3  6  1  0
  3  7  1  0
  3  8  1  0
  9 10  1  0
  9 14  1  0
  9 15  1  0
  9 16  1  0
 10 11  1  0
 10 17  1  0
 10 18  1  0
 11 12  1  0
 12 13  1  0
 12 19  1  0
 12 20  1  0
 13 14  1  0
 14 21  1  0
 14 22  1  0
M  RAD  1   1   2
M  END
>  <reaction>  (4) 
rmg_rxn_351

>  <mol_properties>  (4) 
{"0": {"label": "*3", "atom_type": "Cd"}, "1": {"label": "*4", "atom_type": "Cd"}, "9": {"label": "*1", "atom_type": "Cs"}, "10": {"label": "*0", "atom_type": "O2s"}, "16": {"label": "*2", "atom_type": "H0"}}

>  <type>  (4) 
ts

$$$$

     RDKit          3D

 22 21  0  0  0  0  0  0  0  0999 V2000
   -0.0662   -2.1675    0.8355 C   0  0  0  0  0  0  0  0  0  0  0  0
    0.8307   -2.7472    1.6177 C   0  0  0  0  0  0  0  0  0  0  0  0
    0.5252   -3.4637    2.8934 C   0  0  0  0  0  0  0  0  0  0  0  0
   -1.1227   -2.1768    1.0822 H   0  0  0  0  0  0  0  0  0  0  0  0
    1.8781   -2.7118    1.3289 H   0  0  0  0  0  0  0  0  0  0  0  0
    0.8567   -4.5040    2.8442 H   0  0  0  0  0  0  0  0  0  0  0  0
   -0.5437   -3.4536    3.1101 H   0  0  0  0  0  0  0  0  0  0  0  0
    1.0512   -3.0032    3.7337 H   0  0  0  0  0  0  0  0  0  0  0  0
    0.3141    0.2195   -1.6613 C   0  0  0  0  0  0  0  0  0  0  0  0
    0.3141    0.2195   -0.1392 C   0  0  0  0  0  3  0  0  0  0  0  0
   -0.7342    1.0321    0.3529 O   0  0  0  0  0  0  0  0  0  0  0  0
   -0.6433    2.3317   -0.1464 C   0  0  0  0  0  0  0  0  0  0  0  0
   -0.7342    2.3879   -1.5375 O   0  0  0  0  0  0  0  0  0  0  0  0
    0.3141    1.6612   -2.1494 C   0  0  0  0  0  0  0  0  0  0  0  0
    1.1881   -0.3129   -2.0431 H   0  0  0  0  0  0  0  0  0  0  0  0
   -0.5825   -0.2866   -2.0243 H   0  0  0  0  0  0  0  0  0  0  0  0
    0.1234   -0.9775    0.3496 H   0  0  0  0  0  0  0  0  0  0  0  0
    1.2777    0.5955    0.2375 H   0  0  0  0  0  0  0  0  0  0  0  0
    0.3121    2.7838    0.1778 H   0  0  0  0  0  0  0  0  0  0  0  0
   -1.4843    2.8922    0.2555 H   0  0  0  0  0  0  0  0  0  0  0  0
    1.2777    2.1386   -1.9141 H   0  0  0  0  0  0  0  0  0  0  0  0
    0.1552    1.7271   -3.2248 H   0  0  0  0  0  0  0  0  0  0  0  0
  1  2  2  3
  1  4  1  0
  1 17  1  0
  2  3  1  0
  2  5  1  0
  3  6  1  0
  3  7  1  0
  3  8  1  0
  9 10  1  0
  9 14  1  0
  9 15  1  0
  9 16  1  0
 10 11  1  0
 10 18  1  0
 11 12  1  0
 12 13  1  0
 12 19  1  0
 12 20  1  0
 13 14  1  0
 14 21  1  0
 14 22  1  0
M  RAD  1  10   2
M  END
>  <reaction>  (5) 
rmg_rxn_351

>  <mol_properties>  (5) 
{"0": {"label": "*3", "atom_type": "Cd"}, "1": {"label": "*4", "atom_type": "Cd"}, "9": {"label": "*1", "atom_type": "Cs"}, "10": {"label": "*0", "atom_type": "O2s"}, "16": {"label": "*2", "atom_type": "H0"}}

>  <type>  (5) 
unop_1

>  <geom_source>  (5) 
Heuristics

$$$$

     RDKit          3D

 22 21  0  0  0  0  0  0  0  0999 V2000
   -0.0166   -1.9802    1.2271 C   0  0  0  0  0  0  0  0  0  0  0  0
    0.3818   -3.0641    0.5800 C   0  0  0  0  0  0  0  0  0  0  0  0
    0.5564   -4.4165    1.1924 C   0  0  0  0  0  0  0  0  0  0  0  0
   -0.2510   -2.0073    2.2860 H   0  0  0  0  0  0  0  0  0  0  0  0
    0.6052   -2.9879   -0.4811 H   0  0  0  0  0  0  0  0  0  0  0  0
   -0.0836   -5.1524    0.6988 H   0  0  0  0  0  0  0  0  0  0  0  0
    0.3127   -4.4072    2.2554 H   0  0  0  0  0  0  0  0  0  0  0  0
    1.5860   -4.7651    1.0782 H   0  0  0  0  0  0  0  0  0  0  0  0
    0.3637    0.4068   -1.2697 C   0  0  0  0  0  0  0  0  0  0  0  0
    0.3637    0.4068    0.2523 C   0  0  0  0  0  3  0  0  0  0  0  0
   -0.6846    1.2194    0.7444 O   0  0  0  0  0  0  0  0  0  0  0  0
   -0.5937    2.5189    0.2451 C   0  0  0  0  0  0  0  0  0  0  0  0
   -0.6846    2.5751   -1.1459 O   0  0  0  0  0  0  0  0  0  0  0  0
    0.3637    1.8484   -1.7578 C   0  0  0  0  0  0  0  0  0  0  0  0
    1.2377   -0.1257   -1.6516 H   0  0  0  0  0  0  0  0  0  0  0  0
   -0.5329   -0.0994   -1.6327 H   0  0  0  0  0  0  0  0  0  0  0  0
    0.1730   -0.7902    0.7411 H   0  0  0  0  0  0  0  0  0  0  0  0
    1.3273    0.7827    0.6291 H   0  0  0  0  0  0  0  0  0  0  0  0
    0.3617    2.9710    0.5693 H   0  0  0  0  0  0  0  0  0  0  0  0
   -1.4347    3.0794    0.6471 H   0  0  0  0  0  0  0  0  0  0  0  0
    1.3273    2.3258   -1.5225 H   0  0  0  0  0  0  0  0  0  0  0  0
    0.2048    1.9143   -2.8333 H   0  0  0  0  0  0  0  0  0  0  0  0
  1  2  2  3
  1  4  1  0
  1 17  1  0
  2  3  1  0
  2  5  1  0
  3  6  1  0
  3  7  1  0
  3  8  1  0
  9 10  1  0
  9 14  1  0
  9 15  1  0
  9 16  1  0
 10 11  1  0
 10 18  1  0
 11 12  1  0
 12 13  1  0
 12 19  1  0
 12 20  1  0
 13 14  1  0
 14 21  1  0
 14 22  1  0
M  RAD  1  10   2
M  END
>  <reaction>  (6) 
rmg_rxn_351

>  <mol_properties>  (6) 
{"0": {"label": "*3", "atom_type": "Cd"}, "1": {"label": "*4", "atom_type": "Cd"}, "9": {"label": "*1", "atom_type": "Cs"}, "10": {"label": "*0", "atom_type": "O2s"}, "16": {"label": "*2", "atom_type": "H0"}}

>  <type>  (6) 
unop_2

>  <geom_source>  (6) 
Heuristics

$$$$

     RDKit          3D

 22 21  0  0  0  0  0  0  0  0999 V2000
    0.0624   -2.1950    0.7857 C   0  0  0  0  0  0  0  0  0  0  0  0
    0.5759   -2.5572    1.9508 C   0  0  0  0  0  0  0  0  0  0  0  0
   -0.1007   -3.4350    2.9538 C   0  0  0  0  0  0  0  0  0  0  0  0
   -0.9223   -2.5265    0.4735 H   0  0  0  0  0  0  0  0  0  0  0  0
    1.5665   -2.1999    2.2201 H   0  0  0  0  0  0  0  0  0  0  0  0
    0.4954   -4.3292    3.1529 H   0  0  0  0  0  0  0  0  0  0  0  0
   -1.0864   -3.7490    2.6081 H   0  0  0  0  0  0  0  0  0  0  0  0
   -0.2200   -2.9151    3.9078 H   0  0  0  0  0  0  0  0  0  0  0  0
    0.4428    0.1920   -1.7111 C   0  0  0  0  0  0  0  0  0  0  0  0
    0.4428    0.1920   -0.1891 C   0  0  0  0  0  3  0  0  0  0  0  0
   -0.6055    1.0046    0.3030 O   0  0  0  0  0  0  0  0  0  0  0  0
   -0.5146    2.3042   -0.1963 C   0  0  0  0  0  0  0  0  0  0  0  0
   -0.6055    2.3604   -1.5873 O   0  0  0  0  0  0  0  0  0  0  0  0
    0.4428    1.6336   -2.1992 C   0  0  0  0  0  0  0  0  0  0  0  0
    1.3168   -0.3405   -2.0930 H   0  0  0  0  0  0  0  0  0  0  0  0
   -0.4538   -0.3142   -2.0741 H   0  0  0  0  0  0  0  0  0  0  0  0
    0.2520   -1.0050    0.2997 H   0  0  0  0  0  0  0  0  0  0  0  0
    1.4064    0.5680    0.1877 H   0  0  0  0  0  0  0  0  0  0  0  0
    0.4407    2.7562    0.1279 H   0  0  0  0  0  0  0  0  0  0  0  0
   -1.3557    2.8647    0.2057 H   0  0  0  0  0  0  0  0  0  0  0  0
    1.4064    2.1110   -1.9639 H   0  0  0  0  0  0  0  0  0  0  0  0
    0.2838    1.6996   -3.2747 H   0  0  0  0  0  0  0  0  0  0  0  0
  1  2  2  3
  1  4  1  0
  1 17  1  0
  2  3  1  0
  2  5  1  0
  3  6  1  0
  3  7  1  0
  3  8  1  0
  9 10  1  0
  9 14  1  0
  9 15  1  0
  9 16  1  0
 10 11  1  0
 10 18  1  0
 11 12  1  0
 12 13  1  0
 12 19  1  0
 12 20  1  0
 13 14  1  0
 14 21  1  0
 14 22  1  0
M  RAD  1  10   2
M  END
>  <reaction>  (7) 
rmg_rxn_351

>  <mol_properties>  (7) 
{"0": {"label": "*3", "atom_type": "Cd"}, "1": {"label": "*4", "atom_type": "Cd"}, "9": {"label": "*1", "atom_type": "Cs"}, "10": {"label": "*0", "atom_type": "O2s"}, "16": {"label": "*2", "atom_type": "H0"}}

>  <type>  (7) 
unop_3

>  <geom_source>  (7) 
Heuristics

$$$$

     RDKit          3D

 22 21  0  0  0  0  0  0  0  0999 V2000
    0.4100   -2.1131    1.1047 C   0  0  0  0  0  0  0  0  0  0  0  0
   -0.6891   -2.8020    0.8406 C   0  0  0  0  0  0  0  0  0  0  0  0
   -1.3433   -3.7694    1.7735 C   0  0  0  0  0  0  0  0  0  0  0  0
    0.9255   -2.2120    2.0542 H   0  0  0  0  0  0  0  0  0  0  0  0
   -1.1707   -2.6694   -0.1248 H   0  0  0  0  0  0  0  0  0  0  0  0
   -2.3704   -3.4656    1.9914 H   0  0  0  0  0  0  0  0  0  0  0  0
   -0.7998   -3.8439    2.7162 H   0  0  0  0  0  0  0  0  0  0  0  0
   -1.3959   -4.7656    1.3267 H   0  0  0  0  0  0  0  0  0  0  0  0
    0.7903    0.2739   -1.3921 C   0  0  0  0  0  0  0  0  0  0  0  0
    0.7903    0.2739    0.1300 C   0  0  0  0  0  3  0  0  0  0  0  0
   -0.2580    1.0865    0.6221 O   0  0  0  0  0  0  0  0  0  0  0  0
   -0.1671    2.3861    0.1227 C   0  0  0  0  0  0  0  0  0  0  0  0
   -0.2580    2.4423   -1.2683 O   0  0  0  0  0  0  0  0  0  0  0  0
    0.7903    1.7156   -1.8802 C   0  0  0  0  0  0  0  0  0  0  0  0
    1.6643   -0.2585   -1.7739 H   0  0  0  0  0  0  0  0  0  0  0  0
   -0.1063   -0.2322   -1.7551 H   0  0  0  0  0  0  0  0  0  0  0  0
    0.5996   -0.9231    0.6188 H   0  0  0  0  0  0  0  0  0  0  0  0
    1.7539    0.6499    0.5067 H   0  0  0  0  0  0  0  0  0  0  0  0
    0.7883    2.8382    0.4470 H   0  0  0  0  0  0  0  0  0  0  0  0
   -1.0081    2.9466    0.5247 H   0  0  0  0  0  0  0  0  0  0  0  0
    1.7539    2.1930   -1.6449 H   0  0  0  0  0  0  0  0  0  0  0  0
    0.6314    1.7815   -2.9556 H   0  0  0  0  0  0  0  0  0  0  0  0
  1  2  2  3
  1  4  1  0
  1 17  1  0
  2  3  1  0
  2  5  1  0
  3  6  1  0
  3  7  1  0
  3  8  1  0
  9 10  1  0
  9 14  1  0
  9 15  1  0
  9 16  1  0
 10 11  1  0
 10 18  1  0
 11 12  1  0
 12 13  1  0
 12 19  1  0
 12 20  1  0
 13 14  1  0
 14 21  1  0
 14 22  1  0
M  RAD  1  10   2
M  END
>  <reaction>  (8) 
rmg_rxn_351

>  <mol_properties>  (8) 
{"0": {"label": "*3", "atom_type": "Cd"}, "1": {"label": "*4", "atom_type": "Cd"}, "9": {"label": "*1", "atom_type": "Cs"}, "10": {"label": "*0", "atom_type": "O2s"}, "16": {"label": "*2", "atom_type": "H0"}}

>  <type>  (8) 
unop_4

>  <geom_source>  (8) 
Heuristics

$$$$

     RDKit          3D

 22 21  0  0  0  0  0  0  0  0999 V2000
    0.1247   -2.1709    0.7990 C   0  0  0  0  0  0  0  0  0  0  0  0
    0.0900   -2.3886    2.1043 C   0  0  0  0  0  0  0  0  0  0  0  0
   -0.1221   -3.7202    2.7493 C   0  0  0  0  0  0  0  0  0  0  0  0
   -0.0041   -2.9792    0.0868 H   0  0  0  0  0  0  0  0  0  0  0  0
    0.2241   -1.5470    2.7791 H   0  0  0  0  0  0  0  0  0  0  0  0
    0.7249   -3.9820    3.3885 H   0  0  0  0  0  0  0  0  0  0  0  0
   -0.2477   -4.5080    2.0055 H   0  0  0  0  0  0  0  0  0  0  0  0
   -1.0086   -3.7058    3.3885 H   0  0  0  0  0  0  0  0  0  0  0  0
    0.5051    0.2161   -1.6978 C   0  0  0  0  0  0  0  0  0  0  0  0
    0.5051    0.2161   -0.1758 C   0  0  0  0  0  3  0  0  0  0  0  0
   -0.5432    1.0287    0.3163 O   0  0  0  0  0  0  0  0  0  0  0  0
   -0.4523    2.3282   -0.1830 C   0  0  0  0  0  0  0  0  0  0  0  0
   -0.5432    2.3844   -1.5740 O   0  0  0  0  0  0  0  0  0  0  0  0
    0.5051    1.6577   -2.1859 C   0  0  0  0  0  0  0  0  0  0  0  0
    1.3791   -0.3164   -2.0797 H   0  0  0  0  0  0  0  0  0  0  0  0
   -0.3915   -0.2901   -2.0608 H   0  0  0  0  0  0  0  0  0  0  0  0
    0.3143   -0.9809    0.3130 H   0  0  0  0  0  0  0  0  0  0  0  0
    1.4687    0.5920    0.2010 H   0  0  0  0  0  0  0  0  0  0  0  0
    0.5030    2.7803    0.1412 H   0  0  0  0  0  0  0  0  0  0  0  0
   -1.2934    2.8887    0.2190 H   0  0  0  0  0  0  0  0  0  0  0  0
    1.4687    2.1351   -1.9506 H   0  0  0  0  0  0  0  0  0  0  0  0
    0.3461    1.7236   -3.2614 H   0  0  0  0  0  0  0  0  0  0  0  0
  1  2  2  3
  1  4  1  0
  1 17  1  0
  2  3  1  0
  2  5  1  0
  3  6  1  0
  3  7  1  0
  3  8  1  0
  9 10  1  0
  9 14  1  0
  9 15  1  0
  9 16  1  0
 10 11  1  0
 10 18  1  0
 11 12  1  0
 12 13  1  0
 12 19  1  0
 12 20  1  0
 13 14  1  0
 14 21  1  0
 14 22  1  0
M  RAD  1  10   2
M  END
>  <reaction>  (9) 
rmg_rxn_351

>  <mol_properties>  (9) 
{"0": {"label": "*3", "atom_type": "Cd"}, "1": {"label": "*4", "atom_type": "Cd"}, "9": {"label": "*1", "atom_type": "Cs"}, "10": {"label": "*0", "atom_type": "O2s"}, "16": {"label": "*2", "atom_type": "H0"}}

>  <type>  (9) 
unop_5

>  <geom_source>  (9) 
Heuristics

$$$$

     RDKit          3D

 22 21  0  0  0  0  0  0  0  0999 V2000
    0.4024   -2.1868    0.9563 C   0  0  0  0  0  0  0  0  0  0  0  0
   -0.8128   -2.6436    1.2153 C   0  0  0  0  0  0  0  0  0  0  0  0
   -1.1986   -3.4206    2.4325 C   0  0  0  0  0  0  0  0  0  0  0  0
    1.2279   -2.3550    1.6399 H   0  0  0  0  0  0  0  0  0  0  0  0
   -1.6083   -2.4500    0.5003 H   0  0  0  0  0  0  0  0  0  0  0  0
   -1.9832   -2.9039    2.9912 H   0  0  0  0  0  0  0  0  0  0  0  0
   -0.3463   -3.5710    3.0963 H   0  0  0  0  0  0  0  0  0  0  0  0
   -1.5983   -4.4002    2.1580 H   0  0  0  0  0  0  0  0  0  0  0  0
    0.7827    0.2002   -1.5405 C   0  0  0  0  0  0  0  0  0  0  0  0
    0.7827    0.2002   -0.0184 C   0  0  0  0  0  3  0  0  0  0  0  0
   -0.2656    1.0128    0.4737 O   0  0  0  0  0  0  0  0  0  0  0  0
   -0.1747    2.3124   -0.0256 C   0  0  0  0  0  0  0  0  0  0  0  0
   -0.2656    2.3686   -1.4167 O   0  0  0  0  0  0  0  0  0  0  0  0
    0.7827    1.6419   -2.0286 C   0  0  0  0  0  0  0  0  0  0  0  0
    1.6567   -0.3322   -1.9223 H   0  0  0  0  0  0  0  0  0  0  0  0
   -0.1139   -0.3059   -1.9035 H   0  0  0  0  0  0  0  0  0  0  0  0
    0.5920   -0.9968    0.4704 H   0  0  0  0  0  0  0  0  0  0  0  0
    1.7463    0.5762    0.3583 H   0  0  0  0  0  0  0  0  0  0  0  0
    0.7807    2.7645    0.2986 H   0  0  0  0  0  0  0  0  0  0  0  0
   -1.0157    2.8729    0.3763 H   0  0  0  0  0  0  0  0  0  0  0  0
    1.7463    2.1193   -1.7933 H   0  0  0  0  0  0  0  0  0  0  0  0
    0.6238    1.7078   -3.1040 H   0  0  0  0  0  0  0  0  0  0  0  0
  1  2  2  3
  1  4  1  0
  1 17  1  0
  2  3  1  0
  2  5  1  0
  3  6  1  0
  3  7  1  0
  3  8  1  0
  9 10  1  0
  9 14  1  0
  9 15  1  0
  9 16  1  0
 10 11  1  0
 10 18  1  0
 11 12  1  0
 12 13  1  0
 12 19  1  0
 12 20  1  0
 13 14  1  0
 14 21  1  0
 14 22  1  0
M  RAD  1  10   2
M  END
>  <reaction>  (10) 
rmg_rxn_351

>  <mol_properties>  (10) 
{"0": {"label": "*3", "atom_type": "Cd"}, "1": {"label": "*4", "atom_type": "Cd"}, "9": {"label": "*1", "atom_type": "Cs"}, "10": {"label": "*0", "atom_type": "O2s"}, "16": {"label": "*2", "atom_type": "H0"}}

>  <type>  (10) 
unop_6

>  <geom_source>  (10) 
Heuristics

$$$$

     RDKit          3D

 22 21  0  0  0  0  0  0  0  0999 V2000
    0.3073   -2.2270    0.8355 C   0  0  0  0  0  0  0  0  0  0  0  0
   -0.7254   -2.4992    1.6177 C   0  0  0  0  0  0  0  0  0  0  0  0
   -0.6576   -3.2752    2.8934 C   0  0  0  0  0  0  0  0  0  0  0  0
    1.3086   -2.5642    1.0822 H   0  0  0  0  0  0  0  0  0  0  0  0
   -1.7099   -2.1401    1.3289 H   0  0  0  0  0  0  0  0  0  0  0  0
   -1.0145   -2.6740    3.7337 H   0  0  0  0  0  0  0  0  0  0  0  0
    0.3615   -3.5978    3.1101 H   0  0  0  0  0  0  0  0  0  0  0  0
   -1.2961   -4.1610    2.8442 H   0  0  0  0  0  0  0  0  0  0  0  0
    0.6876    0.1600   -1.6613 C   0  0  0  0  0  0  0  0  0  0  0  0
    0.6876    0.1600   -0.1392 C   0  0  0  0  0  3  0  0  0  0  0  0
   -0.3607    0.9726    0.3529 O   0  0  0  0  0  0  0  0  0  0  0  0
   -0.2697    2.2722   -0.1464 C   0  0  0  0  0  0  0  0  0  0  0  0
   -0.3607    2.3284   -1.5375 O   0  0  0  0  0  0  0  0  0  0  0  0
    0.6876    1.6017   -2.1494 C   0  0  0  0  0  0  0  0  0  0  0  0
    1.5616   -0.3724   -2.0431 H   0  0  0  0  0  0  0  0  0  0  0  0
   -0.2089   -0.3461   -2.0243 H   0  0  0  0  0  0  0  0  0  0  0  0
    0.4969   -1.0370    0.3496 H   0  0  0  0  0  0  0  0  0  0  0  0
    1.6513    0.5360    0.2375 H   0  0  0  0  0  0  0  0  0  0  0  0
    0.6856    2.7242    0.1778 H   0  0  0  0  0  0  0  0  0  0  0  0
   -1.1108    2.8327    0.2555 H   0  0  0  0  0  0  0  0  0  0  0  0
    1.6513    2.0791   -1.9141 H   0  0  0  0  0  0  0  0  0  0  0  0
    0.5287    1.6676   -3.2248 H   0  0  0  0  0  0  0  0  0  0  0  0
  1  2  2  3
  1  4  1  0
  1 17  1  0
  2  3  1  0
  2  5  1  0
  3  6  1  0
  3  7  1  0
  3  8  1  0
  9 10  1  0
  9 14  1  0
  9 15  1  0
  9 16  1  0
 10 11  1  0
 10 18  1  0
 11 12  1  0
 12 13  1  0
 12 19  1  0
 12 20  1  0
 13 14  1  0
 14 21  1  0
 14 22  1  0
M  RAD  1  10   2
M  END
>  <reaction>  (11) 
rmg_rxn_351

>  <mol_properties>  (11) 
{"0": {"label": "*3", "atom_type": "Cd"}, "1": {"label": "*4", "atom_type": "Cd"}, "9": {"label": "*1", "atom_type": "Cs"}, "10": {"label": "*0", "atom_type": "O2s"}, "16": {"label": "*2", "atom_type": "H0"}}

>  <type>  (11) 
unop_7

>  <geom_source>  (11) 
Heuristics

$$$$

     RDKit          3D

 22 21  0  0  0  0  0  0  0  0999 V2000
   -0.1441   -2.0997    0.9563 C   0  0  0  0  0  0  0  0  0  0  0  0
    0.8689   -2.9115    1.2153 C   0  0  0  0  0  0  0  0  0  0  0  0
    0.9942   -3.7700    2.4325 C   0  0  0  0  0  0  0  0  0  0  0  0
   -0.9811   -2.0031    1.6399 H   0  0  0  0  0  0  0  0  0  0  0  0
    1.6852   -2.9748    0.5003 H   0  0  0  0  0  0  0  0  0  0  0  0
    1.0696   -4.8253    2.1580 H   0  0  0  0  0  0  0  0  0  0  0  0
    0.1373   -3.6481    3.0963 H   0  0  0  0  0  0  0  0  0  0  0  0
    1.9005   -3.5227    2.9912 H   0  0  0  0  0  0  0  0  0  0  0  0
    0.2362    0.2873   -1.5405 C   0  0  0  0  0  0  0  0  0  0  0  0
    0.2362    0.2873   -0.0184 C   0  0  0  0  0  3  0  0  0  0  0  0
   -0.8120    1.0999    0.4737 O   0  0  0  0  0  0  0  0  0  0  0  0
   -0.7211    2.3995   -0.0256 C   0  0  0  0  0  0  0  0  0  0  0  0
   -0.8120    2.4557   -1.4167 O   0  0  0  0  0  0  0  0  0  0  0  0
    0.2362    1.7290   -2.0286 C   0  0  0  0  0  0  0  0  0  0  0  0
    1.1102   -0.2451   -1.9223 H   0  0  0  0  0  0  0  0  0  0  0  0
   -0.6603   -0.2189   -1.9035 H   0  0  0  0  0  0  0  0  0  0  0  0
    0.0455   -0.9097    0.4704 H   0  0  0  0  0  0  0  0  0  0  0  0
    1.1999    0.6633    0.3583 H   0  0  0  0  0  0  0  0  0  0  0  0
    0.2342    2.8515    0.2986 H   0  0  0  0  0  0  0  0  0  0  0  0
   -1.5622    2.9600    0.3763 H   0  0  0  0  0  0  0  0  0  0  0  0
    1.1999    2.2064   -1.7933 H   0  0  0  0  0  0  0  0  0  0  0  0
    0.0773    1.7949   -3.1040 H   0  0  0  0  0  0  0  0  0  0  0  0
  1  2  2  3
  1  4  1  0
  1 17  1  0
  2  3  1  0
  2  5  1  0
  3  6  1  0
  3  7  1  0
  3  8  1  0
  9 10  1  0
  9 14  1  0
  9 15  1  0
  9 16  1  0
 10 11  1  0
 10 18  1  0
 11 12  1  0
 12 13  1  0
 12 19  1  0
 12 20  1  0
 13 14  1  0
 14 21  1  0
 14 22  1  0
M  RAD  1  10   2
M  END
>  <reaction>  (12) 
rmg_rxn_351

>  <mol_properties>  (12) 
{"0": {"label": "*3", "atom_type": "Cd"}, "1": {"label": "*4", "atom_type": "Cd"}, "9": {"label": "*1", "atom_type": "Cs"}, "10": {"label": "*0", "atom_type": "O2s"}, "16": {"label": "*2", "atom_type": "H0"}}

>  <type>  (12) 
unop_8

>  <geom_source>  (12) 
Heuristics

$$$$

     RDKit          3D

 22 21  0  0  0  0  0  0  0  0999 V2000
    0.3184   -2.0336    1.2271 C   0  0  0  0  0  0  0  0  0  0  0  0
   -0.3972   -2.9400    0.5800 C   0  0  0  0  0  0  0  0  0  0  0  0
   -0.9835   -4.1711    1.1924 C   0  0  0  0  0  0  0  0  0  0  0  0
    0.5327   -2.1322    2.2860 H   0  0  0  0  0  0  0  0  0  0  0  0
   -0.5859   -2.7981   -0.4811 H   0  0  0  0  0  0  0  0  0  0  0  0
   -2.0705   -4.1825    1.0782 H   0  0  0  0  0  0  0  0  0  0  0  0
   -0.7489   -4.2380    2.2554 H   0  0  0  0  0  0  0  0  0  0  0  0
   -0.6039   -5.0695    0.6988 H   0  0  0  0  0  0  0  0  0  0  0  0
    0.6987    0.3534   -1.2697 C   0  0  0  0  0  0  0  0  0  0  0  0
    0.6987    0.3534    0.2523 C   0  0  0  0  0  3  0  0  0  0  0  0
   -0.3496    1.1660    0.7444 O   0  0  0  0  0  0  0  0  0  0  0  0
   -0.2587    2.4656    0.2451 C   0  0  0  0  0  0  0  0  0  0  0  0
   -0.3496    2.5218   -1.1459 O   0  0  0  0  0  0  0  0  0  0  0  0
    0.6987    1.7950   -1.7578 C   0  0  0  0  0  0  0  0  0  0  0  0
    1.5727   -0.1791   -1.6516 H   0  0  0  0  0  0  0  0  0  0  0  0
   -0.1979   -0.1528   -1.6327 H   0  0  0  0  0  0  0  0  0  0  0  0
    0.5080   -0.8436    0.7411 H   0  0  0  0  0  0  0  0  0  0  0  0
    1.6623    0.7294    0.6291 H   0  0  0  0  0  0  0  0  0  0  0  0
    0.6967    2.9176    0.5693 H   0  0  0  0  0  0  0  0  0  0  0  0
   -1.0997    3.0261    0.6471 H   0  0  0  0  0  0  0  0  0  0  0  0
    1.6623    2.2724   -1.5225 H   0  0  0  0  0  0  0  0  0  0  0  0
    0.5398    1.8610   -2.8333 H   0  0  0  0  0  0  0  0  0  0  0  0
  1  2  2  3
  1  4  1  0
  1 17  1  0
  2  3  1  0
  2  5  1  0
  3  6  1  0
  3  7  1  0
  3  8  1  0
  9 10  1  0
  9 14  1  0
  9 15  1  0
  9 16  1  0
 10 11  1  0
 10 18  1  0
 11 12  1  0
 12 13  1  0
 12 19  1  0
 12 20  1  0
 13 14  1  0
 14 21  1  0
 14 22  1  0
M  RAD  1  10   2
M  END
>  <reaction>  (13) 
rmg_rxn_351

>  <mol_properties>  (13) 
{"0": {"label": "*3", "atom_type": "Cd"}, "1": {"label": "*4", "atom_type": "Cd"}, "9": {"label": "*1", "atom_type": "Cs"}, "10": {"label": "*0", "atom_type": "O2s"}, "16": {"label": "*2", "atom_type": "H0"}}

>  <type>  (13) 
unop_9

>  <geom_source>  (13) 
Heuristics

$$$$

     RDKit          3D

 22 21  0  0  0  0  0  0  0  0999 V2000
   -0.1284   -2.0273    1.1047 C   0  0  0  0  0  0  0  0  0  0  0  0
    0.7021   -3.0237    0.8406 C   0  0  0  0  0  0  0  0  0  0  0  0
    1.0233   -4.1465    1.7735 C   0  0  0  0  0  0  0  0  0  0  0  0
   -0.6492   -1.9611    2.0542 H   0  0  0  0  0  0  0  0  0  0  0  0
    1.2011   -3.0474   -0.1248 H   0  0  0  0  0  0  0  0  0  0  0  0
    0.7636   -5.1097    1.3267 H   0  0  0  0  0  0  0  0  0  0  0  0
    0.4835   -4.0484    2.7162 H   0  0  0  0  0  0  0  0  0  0  0  0
    2.0940   -4.1770    1.9914 H   0  0  0  0  0  0  0  0  0  0  0  0
    0.2519    0.3597   -1.3921 C   0  0  0  0  0  0  0  0  0  0  0  0
    0.2519    0.3597    0.1300 C   0  0  0  0  0  3  0  0  0  0  0  0
   -0.7964    1.1723    0.6221 O   0  0  0  0  0  0  0  0  0  0  0  0
   -0.7055    2.4719    0.1227 C   0  0  0  0  0  0  0  0  0  0  0  0
   -0.7964    2.5281   -1.2683 O   0  0  0  0  0  0  0  0  0  0  0  0
    0.2519    1.8014   -1.8802 C   0  0  0  0  0  0  0  0  0  0  0  0
    1.1259   -0.1727   -1.7739 H   0  0  0  0  0  0  0  0  0  0  0  0
   -0.6446   -0.1464   -1.7551 H   0  0  0  0  0  0  0  0  0  0  0  0
    0.0612   -0.8373    0.6188 H   0  0  0  0  0  0  0  0  0  0  0  0
    1.2155    0.7357    0.5067 H   0  0  0  0  0  0  0  0  0  0  0  0
    0.2499    2.9239    0.4470 H   0  0  0  0  0  0  0  0  0  0  0  0
   -1.5465    3.0324    0.5247 H   0  0  0  0  0  0  0  0  0  0  0  0
    1.2155    2.2788   -1.6449 H   0  0  0  0  0  0  0  0  0  0  0  0
    0.0930    1.8673   -2.9556 H   0  0  0  0  0  0  0  0  0  0  0  0
  1  2  2  3
  1  4  1  0
  1 17  1  0
  2  3  1  0
  2  5  1  0
  3  6  1  0
  3  7  1  0
  3  8  1  0
  9 10  1  0
  9 14  1  0
  9 15  1  0
  9 16  1  0
 10 11  1  0
 10 18  1  0
 11 12  1  0
 12 13  1  0
 12 19  1  0
 12 20  1  0
 13 14  1  0
 14 21  1  0
 14 22  1  0
M  RAD  1  10   2
M  END
>  <reaction>  (14) 
rmg_rxn_351

>  <mol_properties>  (14) 
{"0": {"label": "*3", "atom_type": "Cd"}, "1": {"label": "*4", "atom_type": "Cd"}, "9": {"label": "*1", "atom_type": "Cs"}, "10": {"label": "*0", "atom_type": "O2s"}, "16": {"label": "*2", "atom_type": "H0"}}

>  <type>  (14) 
unop_10

>  <geom_source>  (14) 
Heuristics

$$$$

     RDKit          3D

 22 21  0  0  0  0  0  0  0  0999 V2000
    0.1765   -2.2132    0.7857 C   0  0  0  0  0  0  0  0  0  0  0  0
   -0.4242   -2.3979    1.9508 C   0  0  0  0  0  0  0  0  0  0  0  0
   -0.0538   -3.4424    2.9538 C   0  0  0  0  0  0  0  0  0  0  0  0
    1.0094   -2.8343    0.4735 H   0  0  0  0  0  0  0  0  0  0  0  0
   -1.2547   -1.7504    2.2201 H   0  0  0  0  0  0  0  0  0  0  0  0
    0.2211   -2.9854    3.9078 H   0  0  0  0  0  0  0  0  0  0  0  0
    0.7854   -4.0473    2.6081 H   0  0  0  0  0  0  0  0  0  0  0  0
   -0.8984   -4.1071    3.1529 H   0  0  0  0  0  0  0  0  0  0  0  0
    0.5568    0.1738   -1.7111 C   0  0  0  0  0  0  0  0  0  0  0  0
    0.5568    0.1738   -0.1891 C   0  0  0  0  0  3  0  0  0  0  0  0
   -0.4915    0.9864    0.3030 O   0  0  0  0  0  0  0  0  0  0  0  0
   -0.4006    2.2860   -0.1963 C   0  0  0  0  0  0  0  0  0  0  0  0
   -0.4915    2.3422   -1.5873 O   0  0  0  0  0  0  0  0  0  0  0  0
    0.5568    1.6155   -2.1992 C   0  0  0  0  0  0  0  0  0  0  0  0
    1.4308   -0.3586   -2.0930 H   0  0  0  0  0  0  0  0  0  0  0  0
   -0.3398   -0.3323   -2.0741 H   0  0  0  0  0  0  0  0  0  0  0  0
    0.3661   -1.0232    0.2997 H   0  0  0  0  0  0  0  0  0  0  0  0
    1.5204    0.5498    0.1877 H   0  0  0  0  0  0  0  0  0  0  0  0
    0.5548    2.7381    0.1279 H   0  0  0  0  0  0  0  0  0  0  0  0
   -1.2416    2.8465    0.2057 H   0  0  0  0  0  0  0  0  0  0  0  0
    1.5204    2.0929   -1.9639 H   0  0  0  0  0  0  0  0  0  0  0  0
    0.3979    1.6814   -3.2747 H   0  0  0  0  0  0  0  0  0  0  0  0
  1  2  2  3
  1  4  1  0
  1 17  1  0
  2  3  1  0
  2  5  1  0
  3  6  1  0
  3  7  1  0
  3  8  1  0
  9 10  1  0
  9 14  1  0
  9 15  1  0
  9 16  1  0
 10 11  1  0
 10 18  1  0
 11 12  1  0
 12 13  1  0
 12 19  1  0
 12 20  1  0
 13 14  1  0
 14 21  1  0
 14 22  1  0
M  RAD  1  10   2
M  END
>  <reaction>  (15) 
rmg_rxn_351

>  <mol_properties>  (15) 
{"0": {"label": "*3", "atom_type": "Cd"}, "1": {"label": "*4", "atom_type": "Cd"}, "9": {"label": "*1", "atom_type": "Cs"}, "10": {"label": "*0", "atom_type": "O2s"}, "16": {"label": "*2", "atom_type": "H0"}}

>  <type>  (15) 
unop_11

>  <geom_source>  (15) 
Heuristics

$$$$

     RDKit          3D

 22 21  0  0  0  0  0  0  0  0999 V2000
    0.1549   -1.9814    1.2748 C   0  0  0  0  0  0  0  0  0  0  0  0
   -0.0125   -3.0324    0.4876 C   0  0  0  0  0  0  0  0  0  0  0  0
   -0.2358   -4.4334    0.9584 C   0  0  0  0  0  0  0  0  0  0  0  0
    0.1399   -2.0757    2.3555 H   0  0  0  0  0  0  0  0  0  0  0  0
    0.0104   -2.8886   -0.5896 H   0  0  0  0  0  0  0  0  0  0  0  0
   -1.1865   -4.8223    0.5849 H   0  0  0  0  0  0  0  0  0  0  0  0
   -0.2450   -4.4912    2.0475 H   0  0  0  0  0  0  0  0  0  0  0  0
    0.5470   -5.0986    0.5849 H   0  0  0  0  0  0  0  0  0  0  0  0
    0.5353    0.4056   -1.2220 C   0  0  0  0  0  0  0  0  0  0  0  0
    0.5353    0.4056    0.3001 C   0  0  0  0  0  3  0  0  0  0  0  0
   -0.5130    1.2182    0.7922 O   0  0  0  0  0  0  0  0  0  0  0  0
   -0.4221    2.5177    0.2929 C   0  0  0  0  0  0  0  0  0  0  0  0
   -0.5130    2.5739   -1.0982 O   0  0  0  0  0  0  0  0  0  0  0  0
    0.5353    1.8472   -1.7101 C   0  0  0  0  0  0  0  0  0  0  0  0
    1.4093   -0.1269   -1.6038 H   0  0  0  0  0  0  0  0  0  0  0  0
   -0.3613   -0.1006   -1.5850 H   0  0  0  0  0  0  0  0  0  0  0  0
    0.3445   -0.7915    0.7889 H   0  0  0  0  0  0  0  0  0  0  0  0
    1.4989    0.7815    0.6768 H   0  0  0  0  0  0  0  0  0  0  0  0
    0.5332    2.9698    0.6171 H   0  0  0  0  0  0  0  0  0  0  0  0
   -1.2632    3.0782    0.6948 H   0  0  0  0  0  0  0  0  0  0  0  0
    1.4989    2.3246   -1.4748 H   0  0  0  0  0  0  0  0  0  0  0  0
    0.3763    1.9131   -2.7855 H   0  0  0  0  0  0  0  0  0  0  0  0
  1  2  2  3
  1  4  1  0
  1 17  1  0
  2  3  1  0
  2  5  1  0
  3  6  1  0
  3  7  1  0
  3  8  1  0
  9 10  1  0
  9 14  1  0
  9 15  1  0
  9 16  1  0
 10 11  1  0
 10 18  1  0
 11 12  1  0
 12 13  1  0
 12 19  1  0
 12 20  1  0
 13 14  1  0
 14 21  1  0
 14 22  1  0
M  RAD  1  10   2
M  END
>  <reaction>  (16) 
rmg_rxn_351

>  <mol_properties>  (16) 
{"0": {"label": "*3", "atom_type": "Cd"}, "1": {"label": "*4", "atom_type": "Cd"}, "9": {"label": "*1", "atom_type": "Cs"}, "10": {"label": "*0", "atom_type": "O2s"}, "16": {"label": "*2", "atom_type": "H0"}}

>  <type>  (16) 
unop_12

>  <geom_source>  (16) 
Heuristics

$$$$

     RDKit          3D

 22 21  0  0  0  0  0  0  0  0999 V2000
   -2.4370   -0.8273   -0.8617 O   0  0  0  0  0  0  0  0  0  0  0  0
   -1.5659    1.3474   -0.3459 O   0  0  0  0  0  0  0  0  0  0  0  0
   -1.5712   -0.3749    1.3374 C   0  0  0  0  0  0  0  0  0  0  0  0
   -2.7808   -0.8051    0.5064 C   0  0  0  0  0  0  0  0  0  0  0  0
   -2.1462    0.4892   -1.3237 C   0  0  0  0  0  0  0  0  0  0  0  0
    3.8359    0.1706   -0.6429 C   0  0  0  0  0  0  0  0  0  0  0  0
    2.4743    0.5850   -0.1783 C   0  0  0  0  0  0  0  0  0  0  0  0
   -0.7353    0.6073    0.5208 C   0  0  0  0  0  3  0  0  0  0  0  0
    1.7090   -0.2391    0.5398 C   0  0  0  0  0  0  0  0  0  0  0  0
   -0.9502   -1.2577    1.6028 H   0  0  0  0  0  0  0  0  0  0  0  0
   -1.9141    0.1152    2.2732 H   0  0  0  0  0  0  0  0  0  0  0  0
   -3.6420   -0.1195    0.6825 H   0  0  0  0  0  0  0  0  0  0  0  0
   -3.0987   -1.8226    0.8173 H   0  0  0  0  0  0  0  0  0  0  0  0
    4.3017    0.9964   -1.2202 H   0  0  0  0  0  0  0  0  0  0  0  0
    4.4796   -0.0643    0.2310 H   0  0  0  0  0  0  0  0  0  0  0  0
    3.7577   -0.7244   -1.2958 H   0  0  0  0  0  0  0  0  0  0  0  0
   -3.0850    0.9553   -1.6908 H   0  0  0  0  0  0  0  0  0  0  0  0
   -1.4574    0.4160   -2.1919 H   0  0  0  0  0  0  0  0  0  0  0  0
    2.1021    1.5734   -0.4296 H   0  0  0  0  0  0  0  0  0  0  0  0
    0.0723    0.0880   -0.0449 H   0  0  0  0  0  0  0  0  0  0  0  0
    2.0554   -1.2334    0.8058 H   0  0  0  0  0  0  0  0  0  0  0  0
    0.5960    0.1247    0.9088 H   0  0  0  0  0  0  0  0  0  0  0  0
  1  4  1  0
  1  5  1  0
  2  8  1  0
  2  5  1  0
  3  8  1  0
  3  4  1  0
  3 10  1  0
  3 11  1  0
  4 12  1  0
  4 13  1  0
  5 17  1  0
  5 18  1  0
  6  7  1  0
  6 14  1  0
  6 15  1  0
  6 16  1  0
  7  9  2  3
  7 19  1  0
  8 20  1  0
  9 21  1  0
  9 22  1  0
M  RAD  1   8   2
M  END
>  <reaction>  (17) 
rmg_rxn_351

>  <mol_properties>  (17) 
{"0": {"label": "*3", "atom_type": "Cd"}, "1": {"label": "*4", "atom_type": "Cd"}, "9": {"label": "*1", "atom_type": "Cs"}, "10": {"label": "*0", "atom_type": "O2s"}, "16": {"label": "*2", "atom_type": "H0"}}

>  <type>  (17) 
unop_13

>  <geom_source>  (17) 
AutoTST

$$$$

     RDKit          3D

 22 21  0  0  0  0  0  0  0  0999 V2000
   -0.0166   -1.9802    1.2271 C   0  0  0  0  0  0  0  0  0  0  0  0
    0.3818   -3.0641    0.5800 C   0  0  0  0  0  0  0  0  0  0  0  0
    0.5564   -4.4165    1.1924 C   0  0  0  0  0  0  0  0  0  0  0  0
   -0.2510   -2.0073    2.2860 H   0  0  0  0  0  0  0  0  0  0  0  0
    0.6052   -2.9879   -0.4811 H   0  0  0  0  0  0  0  0  0  0  0  0
   -0.0836   -5.1524    0.6988 H   0  0  0  0  0  0  0  0  0  0  0  0
    0.3127   -4.4072    2.2554 H   0  0  0  0  0  0  0  0  0  0  0  0
    1.5860   -4.7651    1.0782 H   0  0  0  0  0  0  0  0  0  0  0  0
    0.3637    0.4068   -1.2697 C   0  0  0  0  0  0  0  0  0  0  0  0
    0.3637    0.4068    0.2523 C   0  0  0  0  0  3  0  0  0  0  0  0
   -0.6846    1.2194    0.7444 O   0  0  0  0  0  0  0  0  0  0  0  0
   -0.5937    2.5189    0.2451 C   0  0  0  0  0  0  0  0  0  0  0  0
   -0.6846    2.5751   -1.1459 O   0  0  0  0  0  0  0  0  0  0  0  0
    0.3637    1.8484   -1.7578 C   0  0  0  0  0  0  0  0  0  0  0  0
    1.2377   -0.1257   -1.6516 H   0  0  0  0  0  0  0  0  0  0  0  0
   -0.5329   -0.0994   -1.6327 H   0  0  0  0  0  0  0  0  0  0  0  0
    0.1730   -0.7902    0.7411 H   0  0  0  0  0  0  0  0  0  0  0  0
    1.3273    0.7827    0.6290 H   0  0  0  0  0  0  0  0  0  0  0  0
    0.3617    2.9710    0.5693 H   0  0  0  0  0  0  0  0  0  0  0  0
   -1.4347    3.0795    0.6471 H   0  0  0  0  0  0  0  0  0  0  0  0
    1.3273    2.3258   -1.5225 H   0  0  0  0  0  0  0  0  0  0  0  0
    0.2048    1.9143   -2.8333 H   0  0  0  0  0  0  0  0  0  0  0  0
  1  2  2  3
  1  4  1  0
  1 17  1  0
  2  3  1  0
  2  5  1  0
  3  6  1  0
  3  7  1  0
  3  8  1  0
  9 10  1  0
  9 14  1  0
  9 15  1  0
  9 16  1  0
 10 11  1  0
 10 18  1  0
 11 12  1  0
 12 13  1  0
 12 19  1  0
 12 20  1  0
 13 14  1  0
 14 21  1  0
 14 22  1  0
M  RAD  1  10   2
M  END
>  <reaction>  (18) 
rmg_rxn_351

>  <mol_properties>  (18) 
{"0": {"label": "*3", "atom_type": "Cd"}, "1": {"label": "*4", "atom_type": "Cd"}, "9": {"label": "*1", "atom_type": "Cs"}, "10": {"label": "*0", "atom_type": "O2s"}, "16": {"label": "*2", "atom_type": "H0"}}

>  <type>  (18) 
unop_14

>  <geom_source>  (18) 
gaussian_log

$$$$
