
     RDKit          3D

  9  8  0  0  0  0  0  0  0  0999 V2000
   -0.8818   -0.3578    0.1297 C   0  0  0  0  0  0  0  0  0  0  0  0
    0.6153   -0.3021   -0.1188 C   0  0  0  0  0  0  0  0  0  0  0  0
    1.5354   -1.7170    0.5545 S   0  0  0  0  0  0  0  0  0  0  0  0
   -1.1018   -0.3317    1.1984 H   0  0  0  0  0  0  0  0  0  0  0  0
   -1.3114   -1.2723   -0.2799 H   0  0  0  0  0  0  0  0  0  0  0  0
   -1.3767    0.4976   -0.3363 H   0  0  0  0  0  0  0  0  0  0  0  0
    1.0467    0.6194    0.2718 H   0  0  0  0  0  0  0  0  0  0  0  0
    0.8295   -0.3275   -1.1882 H   0  0  0  0  0  0  0  0  0  0  0  0
    1.2306   -1.5077    1.8423 H   0  0  0  0  0  0  0  0  0  0  0  0
  1  2  1  0
  1  4  1  0
  1  5  1  0
  1  6  1  0
  2  3  1  0
  2  7  1  0
  2  8  1  0
  3  9  1  0
M  END
>  <reaction>  (1) 
rmg_rxn_252

>  <mol_properties>  (1) 
{"2": {"label": "donator", "atom_type": "S2s"}, "8": {"label": "d_hydrogen", "atom_type": "H0"}}

>  <type>  (1) 
r1h

$$$$

     RDKit          3D

 13 13  0  0  0  0  0  0  0  0999 V2000
   -0.9087    1.0135    0.2744 C   0  0  0  0  0  3  0  0  0  0  0  0
   -1.1528   -0.4306   -0.0132 C   0  0  0  0  0  0  0  0  0  0  0  0
    0.1597   -1.1985    0.0580 C   0  0  0  0  0  0  0  0  0  0  0  0
    1.1497   -0.5125   -0.6902 O   0  0  0  0  0  0  0  0  0  0  0  0
    1.3593    0.7608   -0.1866 C   0  0  0  0  0  0  0  0  0  0  0  0
    0.2092    1.5798   -0.2538 O   0  0  0  0  0  0  0  0  0  0  0  0
   -1.7260    1.7182    0.3534 H   0  0  0  0  0  0  0  0  0  0  0  0
   -1.8796   -0.8393    0.6913 H   0  0  0  0  0  0  0  0  0  0  0  0
   -1.5725   -0.5507   -1.0227 H   0  0  0  0  0  0  0  0  0  0  0  0
    0.4914   -1.2968    1.1007 H   0  0  0  0  0  0  0  0  0  0  0  0
    0.0732   -2.1931   -0.3758 H   0  0  0  0  0  0  0  0  0  0  0  0
    1.6805    0.7077    0.8652 H   0  0  0  0  0  0  0  0  0  0  0  0
    2.1167    1.2415   -0.8007 H   0  0  0  0  0  0  0  0  0  0  0  0
  1  2  1  0
  1  6  1  0
  1  7  1  0
  2  3  1  0
  2  8  1  0
  2  9  1  0
  3  4  1  0
  3 10  1  0
  3 11  1  0
  4  5  1  0
  5  6  1  0
  5 12  1  0
  5 13  1  0
M  RAD  1   1   2
M  END
>  <reaction>  (2) 
rmg_rxn_252

>  <mol_properties>  (2) 
{"0": {"label": "acceptor", "atom_type": "Cs"}}

>  <type>  (2) 
r2

$$$$

     RDKit          3D

 14 14  0  0  0  0  0  0  0  0999 V2000
   -1.1778    0.2241    0.1818 C   0  0  0  0  0  0  0  0  0  0  0  0
   -0.5633   -1.1636    0.0678 C   0  0  0  0  0  0  0  0  0  0  0  0
    0.6943   -1.1996    0.7146 O   0  0  0  0  0  0  0  0  0  0  0  0
    1.5547   -0.2288    0.2011 C   0  0  0  0  0  0  0  0  0  0  0  0
    1.0729    1.0696    0.3698 O   0  0  0  0  0  0  0  0  0  0  0  0
   -0.1607    1.2493   -0.2989 C   0  0  0  0  0  0  0  0  0  0  0  0
   -2.0927    0.2866   -0.4117 H   0  0  0  0  0  0  0  0  0  0  0  0
   -1.4303    0.4248    1.2248 H   0  0  0  0  0  0  0  0  0  0  0  0
   -1.1822   -1.9235    0.5431 H   0  0  0  0  0  0  0  0  0  0  0  0
   -0.4389   -1.4347   -0.9919 H   0  0  0  0  0  0  0  0  0  0  0  0
    1.7250   -0.4207   -0.8742 H   0  0  0  0  0  0  0  0  0  0  0  0
    2.4896   -0.3010    0.7524 H   0  0  0  0  0  0  0  0  0  0  0  0
   -0.0080    1.1481   -1.3844 H   0  0  0  0  0  0  0  0  0  0  0  0
   -0.4826    2.2695   -0.0942 H   0  0  0  0  0  0  0  0  0  0  0  0
  1  2  1  0
  1  6  1  0
  1  7  1  0
  1  8  1  0
  2  3  1  0
  2  9  1  0
  2 10  1  0
  3  4  1  0
  4  5  1  0
  4 11  1  0
  4 12  1  0
  5  6  1  0
  6 13  1  0
  6 14  1  0
M  END
>  <reaction>  (3) 
rmg_rxn_252

>  <mol_properties>  (3) 
{"0": {"label": "a_hydrogen", "atom_type": "H0"}, "1": {"label": "acceptor", "atom_type": "Cs"}}

>  <type>  (3) 
r2h

$$$$

     RDKit          3D

 22 21  0  0  0  0  0  0  0  0999 V2000
   -1.2869   -2.6119   -0.5733 C   0  0  0  0  0  0  0  0  0  0  0  0
   -1.6682   -1.4261    0.2973 C   0  0  0  0  0  0  0  0  0  0  0  0
   -2.2403    0.0216   -0.6392 S   0  0  0  0  0  1  0  0  0  0  0  0
   -0.4540   -2.3558   -1.2297 H   0  0  0  0  0  0  0  0  0  0  0  0
   -2.1255   -2.9235   -1.1972 H   0  0  0  0  0  0  0  0  0  0  0  0
   -0.9839   -3.4592    0.0478 H   0  0  0  0  0  0  0  0  0  0  0  0
   -0.8315   -1.1230    0.9267 H   0  0  0  0  0  0  0  0  0  0  0  0
   -2.4972   -1.6833    0.9594 H   0  0  0  0  0  0  0  0  0  0  0  0
   -0.8850    0.3298   -1.2359 H   0  0  0  0  0  0  0  0  0  0  0  0
    0.4589    0.7121   -1.7191 C   0  0  0  0  0  0  0  0  0  0  0  0
    0.7749    1.9212   -0.8884 C   0  0  0  0  0  0  0  0  0  0  0  0
    0.9138    1.5111    0.5816 C   0  0  0  0  0  0  0  0  0  0  0  0
    1.3242    0.1497    0.7030 O   0  0  0  0  0  0  0  0  0  0  0  0
    2.0735   -0.2934   -0.3666 C   0  0  0  0  0  0  0  0  0  0  0  0
    1.3168   -0.3399   -1.5666 O   0  0  0  0  0  0  0  0  0  0  0  0
    0.2102    0.8577   -2.7670 H   0  0  0  0  0  0  0  0  0  0  0  0
    1.7019    2.3803   -1.2516 H   0  0  0  0  0  0  0  0  0  0  0  0
   -0.0165    2.6617   -1.0015 H   0  0  0  0  0  0  0  0  0  0  0  0
    1.6270    2.1555    1.1051 H   0  0  0  0  0  0  0  0  0  0  0  0
   -0.0522    1.5685    1.0812 H   0  0  0  0  0  0  0  0  0  0  0  0
    2.9517    0.3473   -0.5350 H   0  0  0  0  0  0  0  0  0  0  0  0
    2.3875   -1.3136   -0.1597 H   0  0  0  0  0  0  0  0  0  0  0  0
  1  2  1  0
  1  4  1  0
  1  5  1  0
  1  6  1  0
  2  3  1  0
  2  7  1  0
  2  8  1  0
  9 10  1  0
 10 11  1  0
 10 15  1  0
 10 16  1  0
 11 12  1  0
 11 17  1  0
 11 18  1  0
 12 13  1  0
 12 19  1  0
 12 20  1  0
 13 14  1  0
 14 15  1  0
 14 21  1  0
 14 22  1  0
M  RAD  1   3   2
M  END
>  <reaction>  (4) 
rmg_rxn_252

>  <mol_properties>  (4) 
{"1": {"label": "*4", "atom_type": "Cs"}, "2": {"label": "*3", "atom_type": "S2s"}, "8": {"label": "*2", "atom_type": "H0"}, "9": {"label": "*1", "atom_type": "Cs"}, "14": {"label": "*0", "atom_type": "O2s"}}

>  <type>  (4) 
ts

$$$$

     RDKit          3D

 22 21  0  0  0  0  0  0  0  0999 V2000
   -1.7579   -2.5989   -1.5926 C   0  0  0  0  0  0  0  0  0  0  0  0
   -1.7579   -2.5989   -0.0739 C   0  0  0  0  0  0  0  0  0  0  0  0
   -1.7579   -0.9415    0.6711 S   0  0  0  0  0  1  0  0  0  0  0  0
   -0.8513   -2.1335   -1.9833 H   0  0  0  0  0  0  0  0  0  0  0  0
   -2.6139   -2.0477   -1.9827 H   0  0  0  0  0  0  0  0  0  0  0  0
   -1.8010   -3.6222   -1.9728 H   0  0  0  0  0  0  0  0  0  0  0  0
   -0.9147   -3.1650    0.3212 H   0  0  0  0  0  0  0  0  0  0  0  0
   -2.6655   -3.0659    0.3112 H   0  0  0  0  0  0  0  0  0  0  0  0
   -0.3481   -0.4595    0.0669 H   0  0  0  0  0  0  0  0  0  0  0  0
    0.7979   -0.0677   -0.4243 C   0  0  0  0  0  0  0  0  0  0  0  0
    0.6492    1.1686   -1.2997 C   0  0  0  0  0  0  0  0  0  0  0  0
    1.6848    2.1980   -0.8704 C   0  0  0  0  0  0  0  0  0  0  0  0
    1.6066    2.4227    0.5242 O   0  0  0  0  0  0  0  0  0  0  0  0
    1.7596    1.2333    1.2371 C   0  0  0  0  0  0  0  0  0  0  0  0
    0.7725    0.2920    0.9436 O   0  0  0  0  0  0  0  0  0  0  0  0
    1.7460   -0.5786   -0.6520 H   0  0  0  0  0  0  0  0  0  0  0  0
    0.7821    0.9093   -2.3524 H   0  0  0  0  0  0  0  0  0  0  0  0
   -0.3517    1.5855   -1.1720 H   0  0  0  0  0  0  0  0  0  0  0  0
    2.6953    1.8465   -1.1294 H   0  0  0  0  0  0  0  0  0  0  0  0
    1.5256    3.1615   -1.3526 H   0  0  0  0  0  0  0  0  0  0  0  0
    2.7544    0.8016    1.0221 H   0  0  0  0  0  0  0  0  0  0  0  0
    1.6713    1.4759    2.2937 H   0  0  0  0  0  0  0  0  0  0  0  0
  1  2  1  0
  1  4  1  0
  1  5  1  0
  1  6  1  0
  2  3  1  0
  2  7  1  0
  2  8  1  0
  9 10  1  0
 10 11  1  0
 10 15  1  0
 10 16  1  0
 11 12  1  0
 11 17  1  0
 11 18  1  0
 12 13  1  0
 12 19  1  0
 12 20  1  0
 13 14  1  0
 14 15  1  0
 14 21  1  0
 14 22  1  0
M  RAD  1   3   2
M  END
>  <reaction>  (5) 
rmg_rxn_252

>  <mol_properties>  (5) 
{"1": {"label": "*4", "atom_type": "Cs"}, "2": {"label": "*3", "atom_type": "S2s"}, "8": {"label": "*2", "atom_type": "H0"}, "9": {"label": "*1", "atom_type": "Cs"}, "14": {"label": "*0", "atom_type": "O2s"}}

>  <type>  (5) 
unop_1

>  <geom_source>  (5) 
Heuristics

$$$$

     RDKit          3D

 22 21  0  0  0  0  0  0  0  0999 V2000
   -1.7147   -2.3086   -0.6477 C   0  0  0  0  0  0  0  0  0  0  0  0
   -1.7147   -2.3086    0.8710 C   0  0  0  0  0  0  0  0  0  0  0  0
   -1.7147   -0.6512    1.6160 S   0  0  0  0  0  1  0  0  0  0  0  0
   -0.8080   -1.8432   -1.0385 H   0  0  0  0  0  0  0  0  0  0  0  0
   -2.5706   -1.7574   -1.0378 H   0  0  0  0  0  0  0  0  0  0  0  0
   -1.7577   -3.3319   -1.0280 H   0  0  0  0  0  0  0  0  0  0  0  0
   -0.8714   -2.8747    1.2661 H   0  0  0  0  0  0  0  0  0  0  0  0
   -2.6223   -2.7756    1.2561 H   0  0  0  0  0  0  0  0  0  0  0  0
   -0.3049   -0.1692    1.0117 H   0  0  0  0  0  0  0  0  0  0  0  0
    0.8411    0.2226    0.5205 C   0  0  0  0  0  0  0  0  0  0  0  0
    1.1381   -0.4301   -0.8220 C   0  0  0  0  0  0  0  0  0  0  0  0
    2.0446    0.4930   -1.6237 C   0  0  0  0  0  0  0  0  0  0  0  0
    1.4922    1.7939   -1.6847 O   0  0  0  0  0  0  0  0  0  0  0  0
    1.2622    2.3058   -0.4074 C   0  0  0  0  0  0  0  0  0  0  0  0
    0.3604    1.5397    0.3317 O   0  0  0  0  0  0  0  0  0  0  0  0
    1.7532    0.2496    1.1363 H   0  0  0  0  0  0  0  0  0  0  0  0
    1.6150   -1.4021   -0.6769 H   0  0  0  0  0  0  0  0  0  0  0  0
    0.2039   -0.5833   -1.3657 H   0  0  0  0  0  0  0  0  0  0  0  0
    3.0414    0.5389   -1.1588 H   0  0  0  0  0  0  0  0  0  0  0  0
    2.1639    0.1545   -2.6520 H   0  0  0  0  0  0  0  0  0  0  0  0
    2.2207    2.3737    0.1392 H   0  0  0  0  0  0  0  0  0  0  0  0
    0.8236    3.2937   -0.5290 H   0  0  0  0  0  0  0  0  0  0  0  0
  1  2  1  0
  1  4  1  0
  1  5  1  0
  1  6  1  0
  2  3  1  0
  2  7  1  0
  2  8  1  0
  9 10  1  0
 10 11  1  0
 10 15  1  0
 10 16  1  0
 11 12  1  0
 11 17  1  0
 11 18  1  0
 12 13  1  0
 12 19  1  0
 12 20  1  0
 13 14  1  0
 14 15  1  0
 14 21  1  0
 14 22  1  0
M  RAD  1   3   2
M  END
>  <reaction>  (6) 
rmg_rxn_252

>  <mol_properties>  (6) 
{"1": {"label": "*4", "atom_type": "Cs"}, "2": {"label": "*3", "atom_type": "S2s"}, "8": {"label": "*2", "atom_type": "H0"}, "9": {"label": "*1", "atom_type": "Cs"}, "14": {"label": "*0", "atom_type": "O2s"}}

>  <type>  (6) 
unop_2

>  <geom_source>  (6) 
Heuristics

$$$$

     RDKit          3D

 22 21  0  0  0  0  0  0  0  0999 V2000
   -2.0493   -2.3273   -1.7415 C   0  0  0  0  0  0  0  0  0  0  0  0
   -2.0493   -2.3273   -0.2229 C   0  0  0  0  0  0  0  0  0  0  0  0
   -2.0493   -0.6699    0.5221 S   0  0  0  0  0  1  0  0  0  0  0  0
   -1.1426   -1.8619   -2.1323 H   0  0  0  0  0  0  0  0  0  0  0  0
   -2.9052   -1.7761   -2.1316 H   0  0  0  0  0  0  0  0  0  0  0  0
   -2.0923   -3.3507   -2.1218 H   0  0  0  0  0  0  0  0  0  0  0  0
   -1.2060   -2.8934    0.1722 H   0  0  0  0  0  0  0  0  0  0  0  0
   -2.9569   -2.7943    0.1623 H   0  0  0  0  0  0  0  0  0  0  0  0
   -0.6395   -0.1879   -0.0821 H   0  0  0  0  0  0  0  0  0  0  0  0
    0.5065    0.2039   -0.5733 C   0  0  0  0  0  0  0  0  0  0  0  0
    0.5457    1.7091   -0.7957 C   0  0  0  0  0  0  0  0  0  0  0  0
    1.9311    2.2210   -0.4278 C   0  0  0  0  0  0  0  0  0  0  0  0
    2.2884    1.7847    0.8696 O   0  0  0  0  0  0  0  0  0  0  0  0
    2.2267    0.3945    0.9702 C   0  0  0  0  0  0  0  0  0  0  0  0
    0.9487   -0.1122    0.7328 O   0  0  0  0  0  0  0  0  0  0  0  0
    1.1480   -0.3027   -1.3107 H   0  0  0  0  0  0  0  0  0  0  0  0
    0.3145    1.9475   -1.8364 H   0  0  0  0  0  0  0  0  0  0  0  0
   -0.1997    2.1897   -0.1592 H   0  0  0  0  0  0  0  0  0  0  0  0
    2.6728    1.8563   -1.1549 H   0  0  0  0  0  0  0  0  0  0  0  0
    1.9732    3.3092   -0.4153 H   0  0  0  0  0  0  0  0  0  0  0  0
    2.9395   -0.0574    0.2562 H   0  0  0  0  0  0  0  0  0  0  0  0
    2.4942    0.1320    1.9913 H   0  0  0  0  0  0  0  0  0  0  0  0
  1  2  1  0
  1  4  1  0
  1  5  1  0
  1  6  1  0
  2  3  1  0
  2  7  1  0
  2  8  1  0
  9 10  1  0
 10 11  1  0
 10 15  1  0
 10 16  1  0
 11 12  1  0
 11 17  1  0
 11 18  1  0
 12 13  1  0
 12 19  1  0
 12 20  1  0
 13 14  1  0
 14 15  1  0
 14 21  1  0
 14 22  1  0
M  RAD  1   3   2
M  END
>  <reaction>  (7) 
rmg_rxn_252

>  <mol_properties>  (7) 
{"1": {"label": "*4", "atom_type": "Cs"}, "2": {"label": "*3", "atom_type": "S2s"}, "8": {"label": "*2", "atom_type": "H0"}, "9": {"label": "*1", "atom_type": "Cs"}, "14": {"label": "*0", "atom_type": "O2s"}}

>  <type>  (7) 
unop_3

>  <geom_source>  (7) 
Heuristics

$$$$

     RDKit          3D

 22 21  0  0  0  0  0  0  0  0999 V2000
   -2.2902   -1.9787   -1.0471 C   0  0  0  0  0  0  0  0  0  0  0  0
   -2.2902   -1.9787    0.4716 C   0  0  0  0  0  0  0  0  0  0  0  0
   -2.2902   -0.3214    1.2166 S   0  0  0  0  0  1  0  0  0  0  0  0
   -1.3835   -1.5133   -1.4378 H   0  0  0  0  0  0  0  0  0  0  0  0
   -3.1461   -1.4275   -1.4372 H   0  0  0  0  0  0  0  0  0  0  0  0
   -2.3332   -3.0021   -1.4274 H   0  0  0  0  0  0  0  0  0  0  0  0
   -1.4469   -2.5449    0.8667 H   0  0  0  0  0  0  0  0  0  0  0  0
   -3.1978   -2.4458    0.8567 H   0  0  0  0  0  0  0  0  0  0  0  0
   -0.8804    0.1606    0.6123 H   0  0  0  0  0  0  0  0  0  0  0  0
    0.2656    0.5525    0.1212 C   0  0  0  0  0  0  0  0  0  0  0  0
    1.4126   -0.3424    0.5686 C   0  0  0  0  0  0  0  0  0  0  0  0
    2.7134    0.4404    0.4604 C   0  0  0  0  0  0  0  0  0  0  0  0
    2.8436    1.0021   -0.8315 O   0  0  0  0  0  0  0  0  0  0  0  0
    1.7485    1.8075   -1.1452 C   0  0  0  0  0  0  0  0  0  0  0  0
    0.5417    1.1075   -1.1505 O   0  0  0  0  0  0  0  0  0  0  0  0
    0.1138    1.3631    0.8503 H   0  0  0  0  0  0  0  0  0  0  0  0
    1.2548   -0.6808    1.5952 H   0  0  0  0  0  0  0  0  0  0  0  0
    1.4621   -1.2200   -0.0788 H   0  0  0  0  0  0  0  0  0  0  0  0
    2.7337    1.2432    1.2134 H   0  0  0  0  0  0  0  0  0  0  0  0
    3.5848   -0.1942    0.6156 H   0  0  0  0  0  0  0  0  0  0  0  0
    1.6864    2.6411   -0.4217 H   0  0  0  0  0  0  0  0  0  0  0  0
    1.9055    2.1892   -2.1516 H   0  0  0  0  0  0  0  0  0  0  0  0
  1  2  1  0
  1  4  1  0
  1  5  1  0
  1  6  1  0
  2  3  1  0
  2  7  1  0
  2  8  1  0
  9 10  1  0
 10 11  1  0
 10 15  1  0
 10 16  1  0
 11 12  1  0
 11 17  1  0
 11 18  1  0
 12 13  1  0
 12 19  1  0
 12 20  1  0
 13 14  1  0
 14 15  1  0
 14 21  1  0
 14 22  1  0
M  RAD  1   3   2
M  END
>  <reaction>  (8) 
rmg_rxn_252

>  <mol_properties>  (8) 
{"1": {"label": "*4", "atom_type": "Cs"}, "2": {"label": "*3", "atom_type": "S2s"}, "8": {"label": "*2", "atom_type": "H0"}, "9": {"label": "*1", "atom_type": "Cs"}, "14": {"label": "*0", "atom_type": "O2s"}}

>  <type>  (8) 
unop_4

>  <geom_source>  (8) 
Heuristics

$$$$

     RDKit          3D

 22 21  0  0  0  0  0  0  0  0999 V2000
   -2.3053   -2.0671   -1.4524 C   0  0  0  0  0  0  0  0  0  0  0  0
   -2.3053   -2.0671    0.0663 C   0  0  0  0  0  0  0  0  0  0  0  0
   -2.3053   -0.4097    0.8112 S   0  0  0  0  0  1  0  0  0  0  0  0
   -1.3987   -1.6016   -1.8432 H   0  0  0  0  0  0  0  0  0  0  0  0
   -3.1613   -1.5159   -1.8425 H   0  0  0  0  0  0  0  0  0  0  0  0
   -2.3484   -3.0904   -1.8327 H   0  0  0  0  0  0  0  0  0  0  0  0
   -1.4621   -2.6332    0.4614 H   0  0  0  0  0  0  0  0  0  0  0  0
   -3.2129   -2.5341    0.4514 H   0  0  0  0  0  0  0  0  0  0  0  0
   -0.8955    0.0723    0.2070 H   0  0  0  0  0  0  0  0  0  0  0  0
    0.2505    0.4642   -0.2842 C   0  0  0  0  0  0  0  0  0  0  0  0
    0.6008    1.8807    0.1486 C   0  0  0  0  0  0  0  0  0  0  0  0
    2.0334    2.1787   -0.2701 C   0  0  0  0  0  0  0  0  0  0  0  0
    2.9031    1.1643    0.1946 O   0  0  0  0  0  0  0  0  0  0  0  0
    2.5016   -0.0925   -0.2589 C   0  0  0  0  0  0  0  0  0  0  0  0
    1.2264   -0.4482    0.1814 O   0  0  0  0  0  0  0  0  0  0  0  0
    0.1910    0.4095   -1.3821 H   0  0  0  0  0  0  0  0  0  0  0  0
   -0.0865    2.5992   -0.3037 H   0  0  0  0  0  0  0  0  0  0  0  0
    0.5158    1.9601    1.2340 H   0  0  0  0  0  0  0  0  0  0  0  0
    2.0994    2.2447   -1.3670 H   0  0  0  0  0  0  0  0  0  0  0  0
    2.3937    3.1170    0.1496 H   0  0  0  0  0  0  0  0  0  0  0  0
    2.5266   -0.1095   -1.3640 H   0  0  0  0  0  0  0  0  0  0  0  0
    3.1991   -0.8212    0.1479 H   0  0  0  0  0  0  0  0  0  0  0  0
  1  2  1  0
  1  4  1  0
  1  5  1  0
  1  6  1  0
  2  3  1  0
  2  7  1  0
  2  8  1  0
  9 10  1  0
 10 11  1  0
 10 15  1  0
 10 16  1  0
 11 12  1  0
 11 17  1  0
 11 18  1  0
 12 13  1  0
 12 19  1  0
 12 20  1  0
 13 14  1  0
 14 15  1  0
 14 21  1  0
 14 22  1  0
M  RAD  1   3   2
M  END
>  <reaction>  (9) 
rmg_rxn_252

>  <mol_properties>  (9) 
{"1": {"label": "*4", "atom_type": "Cs"}, "2": {"label": "*3", "atom_type": "S2s"}, "8": {"label": "*2", "atom_type": "H0"}, "9": {"label": "*1", "atom_type": "Cs"}, "14": {"label": "*0", "atom_type": "O2s"}}

>  <type>  (9) 
unop_5

>  <geom_source>  (9) 
Heuristics

$$$$

     RDKit          3D

 22 21  0  0  0  0  0  0  0  0999 V2000
   -2.2850   -2.1081   -1.1465 C   0  0  0  0  0  0  0  0  0  0  0  0
   -2.2850   -2.1081    0.3721 C   0  0  0  0  0  0  0  0  0  0  0  0
   -2.2850   -0.4507    1.1171 S   0  0  0  0  0  1  0  0  0  0  0  0
   -1.3783   -1.6426   -1.5373 H   0  0  0  0  0  0  0  0  0  0  0  0
   -3.1410   -1.5569   -1.5366 H   0  0  0  0  0  0  0  0  0  0  0  0
   -2.3281   -3.1314   -1.5268 H   0  0  0  0  0  0  0  0  0  0  0  0
   -1.4417   -2.6742    0.7673 H   0  0  0  0  0  0  0  0  0  0  0  0
   -3.1926   -2.5751    0.7573 H   0  0  0  0  0  0  0  0  0  0  0  0
   -0.8752    0.0313    0.5129 H   0  0  0  0  0  0  0  0  0  0  0  0
    0.2708    0.4232    0.0217 C   0  0  0  0  0  0  0  0  0  0  0  0
    1.4320    0.0827    0.9448 C   0  0  0  0  0  0  0  0  0  0  0  0
    2.5199    1.1325    0.7683 C   0  0  0  0  0  0  0  0  0  0  0  0
    2.8479    1.2759   -0.6003 O   0  0  0  0  0  0  0  0  0  0  0  0
    1.7211    1.5920   -1.3597 C   0  0  0  0  0  0  0  0  0  0  0  0
    0.7329    0.6088   -1.3025 O   0  0  0  0  0  0  0  0  0  0  0  0
   -0.2293    1.3407    0.3680 H   0  0  0  0  0  0  0  0  0  0  0  0
    1.0971    0.0509    1.9841 H   0  0  0  0  0  0  0  0  0  0  0  0
    1.8293   -0.8995    0.6815 H   0  0  0  0  0  0  0  0  0  0  0  0
    2.1781    2.0999    1.1672 H   0  0  0  0  0  0  0  0  0  0  0  0
    3.4390    0.8573    1.2839 H   0  0  0  0  0  0  0  0  0  0  0  0
    1.3023    2.5544   -1.0125 H   0  0  0  0  0  0  0  0  0  0  0  0
    2.0410    1.6690   -2.3965 H   0  0  0  0  0  0  0  0  0  0  0  0
  1  2  1  0
  1  4  1  0
  1  5  1  0
  1  6  1  0
  2  3  1  0
  2  7  1  0
  2  8  1  0
  9 10  1  0
 10 11  1  0
 10 15  1  0
 10 16  1  0
 11 12  1  0
 11 17  1  0
 11 18  1  0
 12 13  1  0
 12 19  1  0
 12 20  1  0
 13 14  1  0
 14 15  1  0
 14 21  1  0
 14 22  1  0
M  RAD  1   3   2
M  END
>  <reaction>  (10) 
rmg_rxn_252

>  <mol_properties>  (10) 
{"1": {"label": "*4", "atom_type": "Cs"}, "2": {"label": "*3", "atom_type": "S2s"}, "8": {"label": "*2", "atom_type": "H0"}, "9": {"label": "*1", "atom_type": "Cs"}, "14": {"label": "*0", "atom_type": "O2s"}}

>  <type>  (10) 
unop_6

>  <geom_source>  (10) 
Heuristics

$$$$

     RDKit          3D

 22 21  0  0  0  0  0  0  0  0999 V2000
   -2.2501   -2.1850   -1.1287 C   0  0  0  0  0  0  0  0  0  0  0  0
   -2.2501   -2.1850    0.3900 C   0  0  0  0  0  0  0  0  0  0  0  0
   -2.2501   -0.5276    1.1350 S   0  0  0  0  0  1  0  0  0  0  0  0
   -1.3434   -1.7196   -1.5194 H   0  0  0  0  0  0  0  0  0  0  0  0
   -3.1060   -1.6338   -1.5188 H   0  0  0  0  0  0  0  0  0  0  0  0
   -2.2932   -3.2084   -1.5090 H   0  0  0  0  0  0  0  0  0  0  0  0
   -1.4068   -2.7511    0.7851 H   0  0  0  0  0  0  0  0  0  0  0  0
   -3.1577   -2.6520    0.7751 H   0  0  0  0  0  0  0  0  0  0  0  0
   -0.8403   -0.0456    0.5307 H   0  0  0  0  0  0  0  0  0  0  0  0
    0.3057    0.3462    0.0395 C   0  0  0  0  0  0  0  0  0  0  0  0
    1.3038    0.6972    1.1337 C   0  0  0  0  0  0  0  0  0  0  0  0
    2.2214    1.7987    0.6223 C   0  0  0  0  0  0  0  0  0  0  0  0
    2.7828    1.4326   -0.6236 O   0  0  0  0  0  0  0  0  0  0  0  0
    1.7899    1.1361   -1.5577 C   0  0  0  0  0  0  0  0  0  0  0  0
    0.9812    0.0667   -1.1716 O   0  0  0  0  0  0  0  0  0  0  0  0
   -0.3936    1.1823   -0.1147 H   0  0  0  0  0  0  0  0  0  0  0  0
    0.7821    1.0232    2.0363 H   0  0  0  0  0  0  0  0  0  0  0  0
    1.8979   -0.1851    1.3797 H   0  0  0  0  0  0  0  0  0  0  0  0
    1.6568    2.7369    0.5091 H   0  0  0  0  0  0  0  0  0  0  0  0
    3.0543    1.9822    1.2997 H   0  0  0  0  0  0  0  0  0  0  0  0
    1.1617    2.0307   -1.7227 H   0  0  0  0  0  0  0  0  0  0  0  0
    2.2893    0.8474   -2.4799 H   0  0  0  0  0  0  0  0  0  0  0  0
  1  2  1  0
  1  4  1  0
  1  5  1  0
  1  6  1  0
  2  3  1  0
  2  7  1  0
  2  8  1  0
  9 10  1  0
 10 11  1  0
 10 15  1  0
 10 16  1  0
 11 12  1  0
 11 17  1  0
 11 18  1  0
 12 13  1  0
 12 19  1  0
 12 20  1  0
 13 14  1  0
 14 15  1  0
 14 21  1  0
 14 22  1  0
M  RAD  1   3   2
M  END
>  <reaction>  (11) 
rmg_rxn_252

>  <mol_properties>  (11) 
{"1": {"label": "*4", "atom_type": "Cs"}, "2": {"label": "*3", "atom_type": "S2s"}, "8": {"label": "*2", "atom_type": "H0"}, "9": {"label": "*1", "atom_type": "Cs"}, "14": {"label": "*0", "atom_type": "O2s"}}

>  <type>  (11) 
unop_7

>  <geom_source>  (11) 
Heuristics

$$$$

     RDKit          3D

 22 21  0  0  0  0  0  0  0  0999 V2000
   -1.5895   -2.6785   -1.2430 C   0  0  0  0  0  0  0  0  0  0  0  0
   -1.5895   -2.6785    0.2757 C   0  0  0  0  0  0  0  0  0  0  0  0
   -1.5895   -1.0211    1.0206 S   0  0  0  0  0  1  0  0  0  0  0  0
   -0.6828   -2.2130   -1.6338 H   0  0  0  0  0  0  0  0  0  0  0  0
   -2.4454   -2.1273   -1.6331 H   0  0  0  0  0  0  0  0  0  0  0  0
   -1.6325   -3.7018   -1.6233 H   0  0  0  0  0  0  0  0  0  0  0  0
   -0.7462   -3.2446    0.6708 H   0  0  0  0  0  0  0  0  0  0  0  0
   -2.4971   -3.1455    0.6608 H   0  0  0  0  0  0  0  0  0  0  0  0
   -0.1797   -0.5391    0.4164 H   0  0  0  0  0  0  0  0  0  0  0  0
    0.9663   -0.1472   -0.0748 C   0  0  0  0  0  0  0  0  0  0  0  0
    0.8033    0.5345   -1.4258 C   0  0  0  0  0  0  0  0  0  0  0  0
    1.5801    1.8433   -1.4089 C   0  0  0  0  0  0  0  0  0  0  0  0
    1.2133    2.6188   -0.2840 O   0  0  0  0  0  0  0  0  0  0  0  0
    1.4037    1.9099    0.9024 C   0  0  0  0  0  0  0  0  0  0  0  0
    0.6361    0.7469    0.9706 O   0  0  0  0  0  0  0  0  0  0  0  0
    2.0044   -0.4913    0.0507 H   0  0  0  0  0  0  0  0  0  0  0  0
    1.1651   -0.1139   -2.2269 H   0  0  0  0  0  0  0  0  0  0  0  0
   -0.2538    0.7421   -1.6025 H   0  0  0  0  0  0  0  0  0  0  0  0
    2.6614    1.6393   -1.3773 H   0  0  0  0  0  0  0  0  0  0  0  0
    1.3739    2.4507   -2.2891 H   0  0  0  0  0  0  0  0  0  0  0  0
    2.4732    1.6508    1.0079 H   0  0  0  0  0  0  0  0  0  0  0  0
    1.0869    2.5548    1.7190 H   0  0  0  0  0  0  0  0  0  0  0  0
  1  2  1  0
  1  4  1  0
  1  5  1  0
  1  6  1  0
  2  3  1  0
  2  7  1  0
  2  8  1  0
  9 10  1  0
 10 11  1  0
 10 15  1  0
 10 16  1  0
 11 12  1  0
 11 17  1  0
 11 18  1  0
 12 13  1  0
 12 19  1  0
 12 20  1  0
 13 14  1  0
 14 15  1  0
 14 21  1  0
 14 22  1  0
M  RAD  1   3   2
M  END
>  <reaction>  (12) 
rmg_rxn_252

>  <mol_properties>  (12) 
{"1": {"label": "*4", "atom_type": "Cs"}, "2": {"label": "*3", "atom_type": "S2s"}, "8": {"label": "*2", "atom_type": "H0"}, "9": {"label": "*1", "atom_type": "Cs"}, "14": {"label": "*0", "atom_type": "O2s"}}

>  <type>  (12) 
unop_8

>  <geom_source>  (12) 
Heuristics

$$$$

     RDKit          3D

 22 21  0  0  0  0  0  0  0  0999 V2000
   -2.1888   -1.9263   -0.8340 C   0  0  0  0  0  0  0  0  0  0  0  0
   -2.1888   -1.9263    0.6846 C   0  0  0  0  0  0  0  0  0  0  0  0
   -2.1888   -0.2689    1.4296 S   0  0  0  0  0  1  0  0  0  0  0  0
   -1.2821   -1.4609   -1.2248 H   0  0  0  0  0  0  0  0  0  0  0  0
   -3.0447   -1.3751   -1.2241 H   0  0  0  0  0  0  0  0  0  0  0  0
   -2.2319   -2.9497   -1.2143 H   0  0  0  0  0  0  0  0  0  0  0  0
   -1.3455   -2.4924    1.0798 H   0  0  0  0  0  0  0  0  0  0  0  0
   -3.0964   -2.3933    1.0698 H   0  0  0  0  0  0  0  0  0  0  0  0
   -0.7790    0.2131    0.8254 H   0  0  0  0  0  0  0  0  0  0  0  0
    0.3670    0.6049    0.3342 C   0  0  0  0  0  0  0  0  0  0  0  0
    1.3261   -0.5589    0.1287 C   0  0  0  0  0  0  0  0  0  0  0  0
    2.6976   -0.0040   -0.2282 C   0  0  0  0  0  0  0  0  0  0  0  0
    2.5955    0.9028   -1.3092 O   0  0  0  0  0  0  0  0  0  0  0  0
    1.6994    1.9329   -1.0219 C   0  0  0  0  0  0  0  0  0  0  0  0
    0.4037    1.4755   -0.7804 O   0  0  0  0  0  0  0  0  0  0  0  0
    0.6396    1.1617    1.2439 H   0  0  0  0  0  0  0  0  0  0  0  0
    1.3846   -1.1696    1.0325 H   0  0  0  0  0  0  0  0  0  0  0  0
    0.9649   -1.1871   -0.6878 H   0  0  0  0  0  0  0  0  0  0  0  0
    3.1342    0.5099    0.6419 H   0  0  0  0  0  0  0  0  0  0  0  0
    3.3856   -0.7883   -0.5409 H   0  0  0  0  0  0  0  0  0  0  0  0
    2.0593    2.4982   -0.1427 H   0  0  0  0  0  0  0  0  0  0  0  0
    1.6569    2.5779   -1.8967 H   0  0  0  0  0  0  0  0  0  0  0  0
  1  2  1  0
  1  4  1  0
  1  5  1  0
  1  6  1  0
  2  3  1  0
  2  7  1  0
  2  8  1  0
  9 10  1  0
 10 11  1  0
 10 15  1  0
 10 16  1  0
 11 12  1  0
 11 17  1  0
 11 18  1  0
 12 13  1  0
 12 19  1  0
 12 20  1  0
 13 14  1  0
 14 15  1  0
 14 21  1  0
 14 22  1  0
M  RAD  1   3   2
M  END
>  <reaction>  (13) 
rmg_rxn_252

>  <mol_properties>  (13) 
{"1": {"label": "*4", "atom_type": "Cs"}, "2": {"label": "*3", "atom_type": "S2s"}, "8": {"label": "*2", "atom_type": "H0"}, "9": {"label": "*1", "atom_type": "Cs"}, "14": {"label": "*0", "atom_type": "O2s"}}

>  <type>  (13) 
unop_9

>  <geom_source>  (13) 
Heuristics

$$$$

     RDKit          3D

 22 21  0  0  0  0  0  0  0  0999 V2000
   -1.5719   -2.5609   -0.8813 C   0  0  0  0  0  0  0  0  0  0  0  0
   -1.5719   -2.5609    0.6374 C   0  0  0  0  0  0  0  0  0  0  0  0
   -1.5719   -0.9035    1.3824 S   0  0  0  0  0  1  0  0  0  0  0  0
   -0.6653   -2.0954   -1.2720 H   0  0  0  0  0  0  0  0  0  0  0  0
   -2.4279   -2.0097   -1.2714 H   0  0  0  0  0  0  0  0  0  0  0  0
   -1.6150   -3.5842   -1.2616 H   0  0  0  0  0  0  0  0  0  0  0  0
   -0.7287   -3.1270    1.0325 H   0  0  0  0  0  0  0  0  0  0  0  0
   -2.4795   -3.0279    1.0225 H   0  0  0  0  0  0  0  0  0  0  0  0
   -0.1622   -0.4215    0.7781 H   0  0  0  0  0  0  0  0  0  0  0  0
    0.9838   -0.0296    0.2869 C   0  0  0  0  0  0  0  0  0  0  0  0
    0.9840   -0.0393   -1.2351 C   0  0  0  0  0  0  0  0  0  0  0  0
    1.7086    1.2039   -1.7310 C   0  0  0  0  0  0  0  0  0  0  0  0
    1.1676    2.3629   -1.1265 O   0  0  0  0  0  0  0  0  0  0  0  0
    1.2178    2.2774    0.2651 C   0  0  0  0  0  0  0  0  0  0  0  0
    0.4860    1.2029    0.7712 O   0  0  0  0  0  0  0  0  0  0  0  0
    2.0058   -0.1866    0.6647 H   0  0  0  0  0  0  0  0  0  0  0  0
    1.4719   -0.9413   -1.6112 H   0  0  0  0  0  0  0  0  0  0  0  0
   -0.0455   -0.0285   -1.5983 H   0  0  0  0  0  0  0  0  0  0  0  0
    2.7816    1.1338   -1.4952 H   0  0  0  0  0  0  0  0  0  0  0  0
    1.6045    1.3340   -2.8073 H   0  0  0  0  0  0  0  0  0  0  0  0
    2.2709    2.1901    0.5900 H   0  0  0  0  0  0  0  0  0  0  0  0
    0.7724    3.1873    0.6613 H   0  0  0  0  0  0  0  0  0  0  0  0
  1  2  1  0
  1  4  1  0
  1  5  1  0
  1  6  1  0
  2  3  1  0
  2  7  1  0
  2  8  1  0
  9 10  1  0
 10 11  1  0
 10 15  1  0
 10 16  1  0
 11 12  1  0
 11 17  1  0
 11 18  1  0
 12 13  1  0
 12 19  1  0
 12 20  1  0
 13 14  1  0
 14 15  1  0
 14 21  1  0
 14 22  1  0
M  RAD  1   3   2
M  END
>  <reaction>  (14) 
rmg_rxn_252

>  <mol_properties>  (14) 
{"1": {"label": "*4", "atom_type": "Cs"}, "2": {"label": "*3", "atom_type": "S2s"}, "8": {"label": "*2", "atom_type": "H0"}, "9": {"label": "*1", "atom_type": "Cs"}, "14": {"label": "*0", "atom_type": "O2s"}}

>  <type>  (14) 
unop_10

>  <geom_source>  (14) 
Heuristics

$$$$

     RDKit          3D

 22 21  0  0  0  0  0  0  0  0999 V2000
   -2.2761   -2.1263   -1.1361 C   0  0  0  0  0  0  0  0  0  0  0  0
   -2.2761   -2.1263    0.3825 C   0  0  0  0  0  0  0  0  0  0  0  0
   -2.2761   -0.4690    1.1275 S   0  0  0  0  0  1  0  0  0  0  0  0
   -1.3695   -1.6609   -1.5269 H   0  0  0  0  0  0  0  0  0  0  0  0
   -3.1321   -1.5751   -1.5262 H   0  0  0  0  0  0  0  0  0  0  0  0
   -2.3192   -3.1497   -1.5164 H   0  0  0  0  0  0  0  0  0  0  0  0
   -1.4329   -2.6924    0.7776 H   0  0  0  0  0  0  0  0  0  0  0  0
   -3.1838   -2.5934    0.7677 H   0  0  0  0  0  0  0  0  0  0  0  0
   -0.8664    0.0131    0.5233 H   0  0  0  0  0  0  0  0  0  0  0  0
    0.2796    0.4049    0.0321 C   0  0  0  0  0  0  0  0  0  0  0  0
    0.9810    1.3990    0.9467 C   0  0  0  0  0  0  0  0  0  0  0  0
    2.0031    2.1767    0.1300 C   0  0  0  0  0  0  0  0  0  0  0  0
    2.8507    1.2881   -0.5724 O   0  0  0  0  0  0  0  0  0  0  0  0
    2.1155    0.4242   -1.3846 C   0  0  0  0  0  0  0  0  0  0  0  0
    1.2300   -0.3781   -0.6645 O   0  0  0  0  0  0  0  0  0  0  0  0
   -0.3550    0.9406   -0.6905 H   0  0  0  0  0  0  0  0  0  0  0  0
    0.2558    2.0794    1.3987 H   0  0  0  0  0  0  0  0  0  0  0  0
    1.4907    0.8589    1.7469 H   0  0  0  0  0  0  0  0  0  0  0  0
    1.4897    2.8371   -0.5857 H   0  0  0  0  0  0  0  0  0  0  0  0
    2.6454    2.7909    0.7596 H   0  0  0  0  0  0  0  0  0  0  0  0
    1.5529    1.0128   -2.1324 H   0  0  0  0  0  0  0  0  0  0  0  0
    2.8241   -0.2378   -1.8773 H   0  0  0  0  0  0  0  0  0  0  0  0
  1  2  1  0
  1  4  1  0
  1  5  1  0
  1  6  1  0
  2  3  1  0
  2  7  1  0
  2  8  1  0
  9 10  1  0
 10 11  1  0
 10 15  1  0
 10 16  1  0
 11 12  1  0
 11 17  1  0
 11 18  1  0
 12 13  1  0
 12 19  1  0
 12 20  1  0
 13 14  1  0
 14 15  1  0
 14 21  1  0
 14 22  1  0
M  RAD  1   3   2
M  END
>  <reaction>  (15) 
rmg_rxn_252

>  <mol_properties>  (15) 
{"1": {"label": "*4", "atom_type": "Cs"}, "2": {"label": "*3", "atom_type": "S2s"}, "8": {"label": "*2", "atom_type": "H0"}, "9": {"label": "*1", "atom_type": "Cs"}, "14": {"label": "*0", "atom_type": "O2s"}}

>  <type>  (15) 
unop_11

>  <geom_source>  (15) 
Heuristics

$$$$

     RDKit          3D

 22 21  0  0  0  0  0  0  0  0999 V2000
   -1.9648   -2.0481   -0.6428 C   0  0  0  0  0  0  0  0  0  0  0  0
   -1.9648   -2.0481    0.8758 C   0  0  0  0  0  0  0  0  0  0  0  0
   -1.9648   -0.3908    1.6208 S   0  0  0  0  0  1  0  0  0  0  0  0
   -1.0581   -1.5827   -1.0336 H   0  0  0  0  0  0  0  0  0  0  0  0
   -2.8208   -1.4969   -1.0329 H   0  0  0  0  0  0  0  0  0  0  0  0
   -2.0079   -3.0715   -1.0231 H   0  0  0  0  0  0  0  0  0  0  0  0
   -1.1215   -2.6142    1.2710 H   0  0  0  0  0  0  0  0  0  0  0  0
   -2.8724   -2.5152    1.2610 H   0  0  0  0  0  0  0  0  0  0  0  0
   -0.5550    0.0913    1.0166 H   0  0  0  0  0  0  0  0  0  0  0  0
    0.5910    0.4831    0.5254 C   0  0  0  0  0  0  0  0  0  0  0  0
    1.2389   -0.5921   -0.3352 C   0  0  0  0  0  0  0  0  0  0  0  0
    2.4420    0.0110   -1.0462 C   0  0  0  0  0  0  0  0  0  0  0  0
    2.0699    1.1956   -1.7242 O   0  0  0  0  0  0  0  0  0  0  0  0
    1.4921    2.1176   -0.8510 C   0  0  0  0  0  0  0  0  0  0  0  0
    0.3293    1.6396   -0.2462 O   0  0  0  0  0  0  0  0  0  0  0  0
    1.2539    0.7441    1.3646 H   0  0  0  0  0  0  0  0  0  0  0  0
    1.5452   -1.4409    0.2804 H   0  0  0  0  0  0  0  0  0  0  0  0
    0.5196   -0.9466   -1.0760 H   0  0  0  0  0  0  0  0  0  0  0  0
    3.2351    0.2388   -0.3176 H   0  0  0  0  0  0  0  0  0  0  0  0
    2.8523   -0.6638   -1.7963 H   0  0  0  0  0  0  0  0  0  0  0  0
    2.2250    2.3937   -0.0707 H   0  0  0  0  0  0  0  0  0  0  0  0
    1.2159    2.9904   -1.4384 H   0  0  0  0  0  0  0  0  0  0  0  0
  1  2  1  0
  1  4  1  0
  1  5  1  0
  1  6  1  0
  2  3  1  0
  2  7  1  0
  2  8  1  0
  9 10  1  0
 10 11  1  0
 10 15  1  0
 10 16  1  0
 11 12  1  0
 11 17  1  0
 11 18  1  0
 12 13  1  0
 12 19  1  0
 12 20  1  0
 13 14  1  0
 14 15  1  0
 14 21  1  0
 14 22  1  0
M  RAD  1   3   2
M  END
>  <reaction>  (16) 
rmg_rxn_252

>  <mol_properties>  (16) 
{"1": {"label": "*4", "atom_type": "Cs"}, "2": {"label": "*3", "atom_type": "S2s"}, "8": {"label": "*2", "atom_type": "H0"}, "9": {"label": "*1", "atom_type": "Cs"}, "14": {"label": "*0", "atom_type": "O2s"}}

>  <type>  (16) 
unop_12

>  <geom_source>  (16) 
Heuristics

$$$$

     RDKit          3D

 22 21  0  0  0  0  0  0  0  0999 V2000
   -1.7147   -2.3086   -0.6477 C   0  0  0  0  0  0  0  0  0  0  0  0
   -1.7147   -2.3086    0.8710 C   0  0  0  0  0  0  0  0  0  0  0  0
   -1.7147   -0.6512    1.6159 S   0  0  0  0  0  1  0  0  0  0  0  0
   -0.8080   -1.8432   -1.0385 H   0  0  0  0  0  0  0  0  0  0  0  0
   -2.5706   -1.7574   -1.0378 H   0  0  0  0  0  0  0  0  0  0  0  0
   -1.7577   -3.3319   -1.0280 H   0  0  0  0  0  0  0  0  0  0  0  0
   -0.8714   -2.8747    1.2661 H   0  0  0  0  0  0  0  0  0  0  0  0
   -2.6223   -2.7756    1.2561 H   0  0  0  0  0  0  0  0  0  0  0  0
   -0.3049   -0.1692    1.0117 H   0  0  0  0  0  0  0  0  0  0  0  0
    0.8411    0.2226    0.5205 C   0  0  0  0  0  0  0  0  0  0  0  0
    1.1381   -0.4301   -0.8220 C   0  0  0  0  0  0  0  0  0  0  0  0
    2.0446    0.4930   -1.6237 C   0  0  0  0  0  0  0  0  0  0  0  0
    1.4922    1.7939   -1.6847 O   0  0  0  0  0  0  0  0  0  0  0  0
    1.2622    2.3058   -0.4074 C   0  0  0  0  0  0  0  0  0  0  0  0
    0.3604    1.5397    0.3317 O   0  0  0  0  0  0  0  0  0  0  0  0
    1.7532    0.2496    1.1363 H   0  0  0  0  0  0  0  0  0  0  0  0
    1.6150   -1.4021   -0.6769 H   0  0  0  0  0  0  0  0  0  0  0  0
    0.2039   -0.5833   -1.3657 H   0  0  0  0  0  0  0  0  0  0  0  0
    3.0414    0.5389   -1.1588 H   0  0  0  0  0  0  0  0  0  0  0  0
    2.1639    0.1545   -2.6520 H   0  0  0  0  0  0  0  0  0  0  0  0
    2.2207    2.3737    0.1392 H   0  0  0  0  0  0  0  0  0  0  0  0
    0.8236    3.2937   -0.5290 H   0  0  0  0  0  0  0  0  0  0  0  0
  1  2  1  0
  1  4  1  0
  1  5  1  0
  1  6  1  0
  2  3  1  0
  2  7  1  0
  2  8  1  0
  9 10  1  0
 10 11  1  0
 10 15  1  0
 10 16  1  0
 11 12  1  0
 11 17  1  0
 11 18  1  0
 12 13  1  0
 12 19  1  0
 12 20  1  0
 13 14  1  0
 14 15  1  0
 14 21  1  0
 14 22  1  0
M  RAD  1   3   2
M  END
>  <reaction>  (17) 
rmg_rxn_252

>  <mol_properties>  (17) 
{"1": {"label": "*4", "atom_type": "Cs"}, "2": {"label": "*3", "atom_type": "S2s"}, "8": {"label": "*2", "atom_type": "H0"}, "9": {"label": "*1", "atom_type": "Cs"}, "14": {"label": "*0", "atom_type": "O2s"}}

>  <type>  (17) 
unop_13

>  <geom_source>  (17) 
gaussian_log

$$$$
