
     RDKit          3D

  9  8  0  0  0  0  0  0  0  0999 V2000
   -1.2461    0.5037    0.0950 C   0  0  0  0  0  0  0  0  0  0  0  0
   -0.0155   -0.3334    0.0640 C   0  0  0  0  0  0  0  0  0  0  0  0
    1.0697    0.1457   -0.3733 N   0  0  0  0  0  0  0  0  0  0  0  0
    2.1001   -0.7834   -0.3224 O   0  0  0  0  0  0  0  0  0  0  0  0
   -2.0357    0.0440   -0.5039 H   0  0  0  0  0  0  0  0  0  0  0  0
   -1.6237    0.5897    1.1166 H   0  0  0  0  0  0  0  0  0  0  0  0
   -1.0397    1.4998   -0.2929 H   0  0  0  0  0  0  0  0  0  0  0  0
   -0.0537   -1.3634    0.4205 H   0  0  0  0  0  0  0  0  0  0  0  0
    2.8478   -0.2985   -0.6758 H   0  0  0  0  0  0  0  0  0  0  0  0
  1  2  1  0
  1  5  1  0
  1  6  1  0
  1  7  1  0
  2  3  2  3
  2  8  1  0
  3  4  1  0
  4  9  1  0
M  END
>  <reaction>  (1) 
rmg_rxn_53

>  <mol_properties>  (1) 
{"3": {"label": "donator", "atom_type": "O2s"}, "8": {"label": "d_hydrogen", "atom_type": "H0"}}

>  <type>  (1) 
r1h

$$$$

     RDKit          3D

  9  8  0  0  0  0  0  0  0  0999 V2000
    1.3246   -0.8124   -0.0809 C   0  0  0  0  0  2  0  0  0  0  0  0
    0.4082    0.3080    0.1518 C   0  0  0  0  0  0  0  0  0  0  0  0
   -1.0545   -0.0277   -0.1520 C   0  0  0  0  0  0  0  0  0  0  0  0
    2.3933   -0.9471    0.0203 H   0  0  0  0  0  0  0  0  0  0  0  0
    0.4898    0.6406    1.1970 H   0  0  0  0  0  0  0  0  0  0  0  0
    0.7134    1.1680   -0.4624 H   0  0  0  0  0  0  0  0  0  0  0  0
   -1.4014   -0.8515    0.4727 H   0  0  0  0  0  0  0  0  0  0  0  0
   -1.1767   -0.3214   -1.1952 H   0  0  0  0  0  0  0  0  0  0  0  0
   -1.6915    0.8372    0.0370 H   0  0  0  0  0  0  0  0  0  0  0  0
  1  2  1  0
  1  4  1  0
  2  3  1  0
  2  5  1  0
  2  6  1  0
  3  7  1  0
  3  8  1  0
  3  9  1  0
M  RAD  1   1   3
M  END
>  <reaction>  (2) 
rmg_rxn_53

>  <mol_properties>  (2) 
{"0": {"label": "acceptor", "atom_type": "Cs"}}

>  <type>  (2) 
r2

$$$$

     RDKit          3D

 10  9  0  0  0  0  0  0  0  0999 V2000
    1.4352    0.2660   -0.1351 C   0  0  0  0  0  3  0  0  0  0  0  0
    0.2236   -0.3243    0.4850 C   0  0  0  0  0  0  0  0  0  0  0  0
   -0.8893    0.6872    0.7364 C   0  0  0  0  0  0  0  0  0  0  0  0
    2.3577   -0.2958   -0.1940 H   0  0  0  0  0  0  0  0  0  0  0  0
    1.3935    1.2286   -0.6287 H   0  0  0  0  0  0  0  0  0  0  0  0
   -0.1633   -1.1318   -0.1556 H   0  0  0  0  0  0  0  0  0  0  0  0
    0.4945   -0.8215    1.4240 H   0  0  0  0  0  0  0  0  0  0  0  0
   -1.1991    1.1627   -0.1967 H   0  0  0  0  0  0  0  0  0  0  0  0
   -1.7660    0.2103    1.1768 H   0  0  0  0  0  0  0  0  0  0  0  0
   -0.5545    1.4732    1.4159 H   0  0  0  0  0  0  0  0  0  0  0  0
  1  2  1  0
  1  4  1  0
  1  5  1  0
  2  3  1  0
  2  6  1  0
  2  7  1  0
  3  8  1  0
  3  9  1  0
  3 10  1  0
M  RAD  1   1   2
M  END
>  <reaction>  (3) 
rmg_rxn_53

>  <mol_properties>  (3) 
{"0": {"label": "a_hydrogen", "atom_type": "H0"}, "1": {"label": "acceptor", "atom_type": "Cs"}}

>  <type>  (3) 
r2h

$$$$

     RDKit          3D

 18 16  0  0  0  0  0  0  0  0999 V2000
   -0.4159   -1.0990   -2.7711 C   0  0  0  0  0  0  0  0  0  0  0  0
    0.6137   -1.2255   -1.7022 C   0  0  0  0  0  0  0  0  0  0  0  0
    0.5701   -0.4755   -0.6810 N   0  0  0  0  0  0  0  0  0  0  0  0
    1.5470   -0.6803    0.2137 O   0  0  0  0  0  0  0  0  0  0  0  0
    0.0512   -0.8577   -3.7289 H   0  0  0  0  0  0  0  0  0  0  0  0
   -0.9525   -2.0419   -2.9022 H   0  0  0  0  0  0  0  0  0  0  0  0
   -1.1310   -0.3173   -2.5192 H   0  0  0  0  0  0  0  0  0  0  0  0
    1.4050   -1.9686   -1.8050 H   0  0  0  0  0  0  0  0  0  0  0  0
    1.3366    0.0894    1.0689 H   0  0  0  0  0  0  0  0  0  0  0  0
    0.9505    1.0353    1.9151 C   0  0  0  0  0  2  0  0  0  0  0  0
   -0.3113    1.6917    1.5499 C   0  0  0  0  0  0  0  0  0  0  0  0
   -1.5547    0.9364    2.0428 C   0  0  0  0  0  0  0  0  0  0  0  0
    1.4724    1.0153    2.8646 H   0  0  0  0  0  0  0  0  0  0  0  0
   -0.3132    2.7142    1.9481 H   0  0  0  0  0  0  0  0  0  0  0  0
   -0.3624    1.7758    0.4595 H   0  0  0  0  0  0  0  0  0  0  0  0
   -1.5488    0.8346    3.1291 H   0  0  0  0  0  0  0  0  0  0  0  0
   -1.5873   -0.0615    1.6048 H   0  0  0  0  0  0  0  0  0  0  0  0
   -2.4625    1.4690    1.7536 H   0  0  0  0  0  0  0  0  0  0  0  0
  1  2  1  0
  1  5  1  0
  1  6  1  0
  1  7  1  0
  2  3  2  3
  2  8  1  0
  3  4  1  0
  4  9  1  0
 10 11  1  0
 10 13  1  0
 11 12  1  0
 11 14  1  0
 11 15  1  0
 12 16  1  0
 12 17  1  0
 12 18  1  0
M  RAD  1  10   3
M  END
>  <reaction>  (4) 
rmg_rxn_53

>  <mol_properties>  (4) 
{"2": {"label": "*0", "atom_type": "N3d"}, "3": {"label": "*1", "atom_type": "O2s"}, "8": {"label": "*2", "atom_type": "H0"}, "9": {"label": "*3", "atom_type": "Cs"}, "10": {"label": "*4", "atom_type": "Cs"}}

>  <type>  (4) 
ts

$$$$

     RDKit          3D

 18 16  0  0  0  0  0  0  0  0999 V2000
    0.5170   -1.7629   -3.0610 C   0  0  0  0  0  0  0  0  0  0  0  0
    0.5170   -1.7629   -1.5723 C   0  0  0  0  0  0  0  0  0  0  0  0
    0.5170   -0.6708   -0.9355 N   0  0  0  0  0  0  0  0  0  0  0  0
    0.5170   -0.8755    0.4377 O   0  0  0  0  0  0  0  0  0  0  0  0
    1.3964   -2.2867   -3.4428 H   0  0  0  0  0  0  0  0  0  0  0  0
   -0.3624   -2.2867   -3.4428 H   0  0  0  0  0  0  0  0  0  0  0  0
    0.5170   -0.7432   -3.4424 H   0  0  0  0  0  0  0  0  0  0  0  0
    0.5170   -2.7104   -1.0322 H   0  0  0  0  0  0  0  0  0  0  0  0
    0.5170    0.1942    0.8610 H   0  0  0  0  0  0  0  0  0  0  0  0
    0.5170    1.4021    1.3391 C   0  0  0  0  0  2  0  0  0  0  0  0
   -0.5859    1.8753    2.2112 C   0  0  0  0  0  0  0  0  0  0  0  0
   -1.9440    1.9034    1.5186 C   0  0  0  0  0  0  0  0  0  0  0  0
    1.5496    1.5101    1.6431 H   0  0  0  0  0  0  0  0  0  0  0  0
   -0.6516    1.2350    3.1043 H   0  0  0  0  0  0  0  0  0  0  0  0
   -0.3461    2.8714    2.6017 H   0  0  0  0  0  0  0  0  0  0  0  0
   -2.2164    0.9088    1.1590 H   0  0  0  0  0  0  0  0  0  0  0  0
   -1.9286    2.5760    0.6590 H   0  0  0  0  0  0  0  0  0  0  0  0
   -2.7282    2.2406    2.1979 H   0  0  0  0  0  0  0  0  0  0  0  0
  1  2  1  0
  1  5  1  0
  1  6  1  0
  1  7  1  0
  2  3  2  3
  2  8  1  0
  3  4  1  0
  4  9  1  0
 10 11  1  0
 10 13  1  0
 11 12  1  0
 11 14  1  0
 11 15  1  0
 12 16  1  0
 12 17  1  0
 12 18  1  0
M  RAD  1  10   3
M  END
>  <reaction>  (5) 
rmg_rxn_53

>  <mol_properties>  (5) 
{"2": {"label": "*0", "atom_type": "N3d"}, "3": {"label": "*1", "atom_type": "O2s"}, "8": {"label": "*2", "atom_type": "H0"}, "9": {"label": "*3", "atom_type": "Cs"}, "10": {"label": "*4", "atom_type": "Cs"}}

>  <type>  (5) 
unop_1

>  <geom_source>  (5) 
Heuristics

$$$$

     RDKit          3D

 18 16  0  0  0  0  0  0  0  0999 V2000
    0.1646   -1.9308   -2.4690 C   0  0  0  0  0  0  0  0  0  0  0  0
    0.1646   -1.9308   -0.9803 C   0  0  0  0  0  0  0  0  0  0  0  0
    0.1646   -0.8387   -0.3435 N   0  0  0  0  0  0  0  0  0  0  0  0
    0.1646   -1.0434    1.0297 O   0  0  0  0  0  0  0  0  0  0  0  0
    1.0440   -2.4546   -2.8508 H   0  0  0  0  0  0  0  0  0  0  0  0
   -0.7148   -2.4546   -2.8508 H   0  0  0  0  0  0  0  0  0  0  0  0
    0.1646   -0.9111   -2.8504 H   0  0  0  0  0  0  0  0  0  0  0  0
    0.1646   -2.8783   -0.4402 H   0  0  0  0  0  0  0  0  0  0  0  0
    0.1646    0.0262    1.4531 H   0  0  0  0  0  0  0  0  0  0  0  0
    0.1646    1.2342    1.9311 C   0  0  0  0  0  2  0  0  0  0  0  0
   -0.4722    2.3476    1.1857 C   0  0  0  0  0  0  0  0  0  0  0  0
   -0.3209    2.2357   -0.3275 C   0  0  0  0  0  0  0  0  0  0  0  0
    0.2929    1.2871    3.0039 H   0  0  0  0  0  0  0  0  0  0  0  0
   -1.5429    2.3958    1.4368 H   0  0  0  0  0  0  0  0  0  0  0  0
   -0.0634    3.3045    1.5313 H   0  0  0  0  0  0  0  0  0  0  0  0
   -0.7602    1.3051   -0.6932 H   0  0  0  0  0  0  0  0  0  0  0  0
    0.7321    2.2429   -0.6149 H   0  0  0  0  0  0  0  0  0  0  0  0
   -0.8162    3.0633   -0.8373 H   0  0  0  0  0  0  0  0  0  0  0  0
  1  2  1  0
  1  5  1  0
  1  6  1  0
  1  7  1  0
  2  3  2  3
  2  8  1  0
  3  4  1  0
  4  9  1  0
 10 11  1  0
 10 13  1  0
 11 12  1  0
 11 14  1  0
 11 15  1  0
 12 16  1  0
 12 17  1  0
 12 18  1  0
M  RAD  1  10   3
M  END
>  <reaction>  (6) 
rmg_rxn_53

>  <mol_properties>  (6) 
{"2": {"label": "*0", "atom_type": "N3d"}, "3": {"label": "*1", "atom_type": "O2s"}, "8": {"label": "*2", "atom_type": "H0"}, "9": {"label": "*3", "atom_type": "Cs"}, "10": {"label": "*4", "atom_type": "Cs"}}

>  <type>  (6) 
unop_2

>  <geom_source>  (6) 
Heuristics

$$$$

     RDKit          3D

 18 16  0  0  0  0  0  0  0  0999 V2000
    0.3944   -1.6452   -3.2992 C   0  0  0  0  0  0  0  0  0  0  0  0
    0.3944   -1.6452   -1.8105 C   0  0  0  0  0  0  0  0  0  0  0  0
    0.3944   -0.5531   -1.1737 N   0  0  0  0  0  0  0  0  0  0  0  0
    0.3944   -0.7578    0.1995 O   0  0  0  0  0  0  0  0  0  0  0  0
    1.2738   -2.1690   -3.6810 H   0  0  0  0  0  0  0  0  0  0  0  0
   -0.4850   -2.1690   -3.6810 H   0  0  0  0  0  0  0  0  0  0  0  0
    0.3944   -0.6255   -3.6806 H   0  0  0  0  0  0  0  0  0  0  0  0
    0.3944   -2.5927   -1.2704 H   0  0  0  0  0  0  0  0  0  0  0  0
    0.3944    0.3119    0.6228 H   0  0  0  0  0  0  0  0  0  0  0  0
    0.3944    1.5198    1.1009 C   0  0  0  0  0  2  0  0  0  0  0  0
   -0.2423    1.8215    2.4065 C   0  0  0  0  0  0  0  0  0  0  0  0
   -1.6980    1.3762    2.4942 C   0  0  0  0  0  0  0  0  0  0  0  0
    1.3547    1.9448    0.8410 H   0  0  0  0  0  0  0  0  0  0  0  0
    0.3291    1.3419    3.2160 H   0  0  0  0  0  0  0  0  0  0  0  0
   -0.1681    2.8956    2.6138 H   0  0  0  0  0  0  0  0  0  0  0  0
   -1.7848    0.3000    2.3300 H   0  0  0  0  0  0  0  0  0  0  0  0
   -2.3049    1.8788    1.7387 H   0  0  0  0  0  0  0  0  0  0  0  0
   -2.1228    1.6012    3.4735 H   0  0  0  0  0  0  0  0  0  0  0  0
  1  2  1  0
  1  5  1  0
  1  6  1  0
  1  7  1  0
  2  3  2  3
  2  8  1  0
  3  4  1  0
  4  9  1  0
 10 11  1  0
 10 13  1  0
 11 12  1  0
 11 14  1  0
 11 15  1  0
 12 16  1  0
 12 17  1  0
 12 18  1  0
M  RAD  1  10   3
M  END
>  <reaction>  (7) 
rmg_rxn_53

>  <mol_properties>  (7) 
{"2": {"label": "*0", "atom_type": "N3d"}, "3": {"label": "*1", "atom_type": "O2s"}, "8": {"label": "*2", "atom_type": "H0"}, "9": {"label": "*3", "atom_type": "Cs"}, "10": {"label": "*4", "atom_type": "Cs"}}

>  <type>  (7) 
unop_3

>  <geom_source>  (7) 
Heuristics

$$$$

     RDKit          3D

 18 16  0  0  0  0  0  0  0  0999 V2000
   -0.4508   -1.8302   -2.6479 C   0  0  0  0  0  0  0  0  0  0  0  0
   -0.4508   -1.8302   -1.1592 C   0  0  0  0  0  0  0  0  0  0  0  0
   -0.4508   -0.7381   -0.5224 N   0  0  0  0  0  0  0  0  0  0  0  0
   -0.4508   -0.9428    0.8508 O   0  0  0  0  0  0  0  0  0  0  0  0
    0.4286   -2.3540   -3.0297 H   0  0  0  0  0  0  0  0  0  0  0  0
   -1.3302   -2.3540   -3.0297 H   0  0  0  0  0  0  0  0  0  0  0  0
   -0.4508   -0.8105   -3.0293 H   0  0  0  0  0  0  0  0  0  0  0  0
   -0.4508   -2.7777   -0.6191 H   0  0  0  0  0  0  0  0  0  0  0  0
   -0.4508    0.1269    1.2742 H   0  0  0  0  0  0  0  0  0  0  0  0
   -0.4508    1.3348    1.7522 C   0  0  0  0  0  2  0  0  0  0  0  0
    0.6521    2.2767    1.4402 C   0  0  0  0  0  0  0  0  0  0  0  0
    1.5339    1.8234    0.2817 C   0  0  0  0  0  0  0  0  0  0  0  0
   -1.0298    1.4402    2.6599 H   0  0  0  0  0  0  0  0  0  0  0  0
    0.2360    3.2690    1.2077 H   0  0  0  0  0  0  0  0  0  0  0  0
    1.2654    2.4363    2.3350 H   0  0  0  0  0  0  0  0  0  0  0  0
    0.9439    1.6989   -0.6289 H   0  0  0  0  0  0  0  0  0  0  0  0
    2.0083    0.8661    0.5051 H   0  0  0  0  0  0  0  0  0  0  0  0
    2.3205    2.5504    0.0747 H   0  0  0  0  0  0  0  0  0  0  0  0
  1  2  1  0
  1  5  1  0
  1  6  1  0
  1  7  1  0
  2  3  2  3
  2  8  1  0
  3  4  1  0
  4  9  1  0
 10 11  1  0
 10 13  1  0
 11 12  1  0
 11 14  1  0
 11 15  1  0
 12 16  1  0
 12 17  1  0
 12 18  1  0
M  RAD  1  10   3
M  END
>  <reaction>  (8) 
rmg_rxn_53

>  <mol_properties>  (8) 
{"2": {"label": "*0", "atom_type": "N3d"}, "3": {"label": "*1", "atom_type": "O2s"}, "8": {"label": "*2", "atom_type": "H0"}, "9": {"label": "*3", "atom_type": "Cs"}, "10": {"label": "*4", "atom_type": "Cs"}}

>  <type>  (8) 
unop_4

>  <geom_source>  (8) 
Heuristics

$$$$

     RDKit          3D

 18 16  0  0  0  0  0  0  0  0999 V2000
    0.0624   -1.5167   -3.4499 C   0  0  0  0  0  0  0  0  0  0  0  0
    0.0624   -1.5167   -1.9612 C   0  0  0  0  0  0  0  0  0  0  0  0
    0.0624   -0.4246   -1.3244 N   0  0  0  0  0  0  0  0  0  0  0  0
    0.0624   -0.6293    0.0488 O   0  0  0  0  0  0  0  0  0  0  0  0
    0.9418   -2.0405   -3.8317 H   0  0  0  0  0  0  0  0  0  0  0  0
   -0.8171   -2.0405   -3.8317 H   0  0  0  0  0  0  0  0  0  0  0  0
    0.0624   -0.4970   -3.8313 H   0  0  0  0  0  0  0  0  0  0  0  0
    0.0624   -2.4642   -1.4211 H   0  0  0  0  0  0  0  0  0  0  0  0
    0.0624    0.4404    0.4721 H   0  0  0  0  0  0  0  0  0  0  0  0
    0.0624    1.6483    0.9502 C   0  0  0  0  0  2  0  0  0  0  0  0
    0.0624    1.8872    2.4144 C   0  0  0  0  0  0  0  0  0  0  0  0
   -0.3661    0.6735    3.2319 C   0  0  0  0  0  0  0  0  0  0  0  0
    0.1631    2.4703    0.2543 H   0  0  0  0  0  0  0  0  0  0  0  0
    1.0668    2.2013    2.7376 H   0  0  0  0  0  0  0  0  0  0  0  0
   -0.5838    2.7414    2.6489 H   0  0  0  0  0  0  0  0  0  0  0  0
    0.2935   -0.1756    3.0400 H   0  0  0  0  0  0  0  0  0  0  0  0
   -1.3828    0.3705    2.9752 H   0  0  0  0  0  0  0  0  0  0  0  0
   -0.3364    0.8859    4.3016 H   0  0  0  0  0  0  0  0  0  0  0  0
  1  2  1  0
  1  5  1  0
  1  6  1  0
  1  7  1  0
  2  3  2  3
  2  8  1  0
  3  4  1  0
  4  9  1  0
 10 11  1  0
 10 13  1  0
 11 12  1  0
 11 14  1  0
 11 15  1  0
 12 16  1  0
 12 17  1  0
 12 18  1  0
M  RAD  1  10   3
M  END
>  <reaction>  (9) 
rmg_rxn_53

>  <mol_properties>  (9) 
{"2": {"label": "*0", "atom_type": "N3d"}, "3": {"label": "*1", "atom_type": "O2s"}, "8": {"label": "*2", "atom_type": "H0"}, "9": {"label": "*3", "atom_type": "Cs"}, "10": {"label": "*4", "atom_type": "Cs"}}

>  <type>  (9) 
unop_5

>  <geom_source>  (9) 
Heuristics

$$$$

     RDKit          3D

 18 16  0  0  0  0  0  0  0  0999 V2000
   -0.5426   -1.7518   -2.8708 C   0  0  0  0  0  0  0  0  0  0  0  0
   -0.5426   -1.7518   -1.3822 C   0  0  0  0  0  0  0  0  0  0  0  0
   -0.5426   -0.6597   -0.7454 N   0  0  0  0  0  0  0  0  0  0  0  0
   -0.5426   -0.8644    0.6278 O   0  0  0  0  0  0  0  0  0  0  0  0
    0.3369   -2.2756   -3.2526 H   0  0  0  0  0  0  0  0  0  0  0  0
   -1.4220   -2.2756   -3.2526 H   0  0  0  0  0  0  0  0  0  0  0  0
   -0.5425   -0.7321   -3.2523 H   0  0  0  0  0  0  0  0  0  0  0  0
   -0.5426   -2.6993   -0.8420 H   0  0  0  0  0  0  0  0  0  0  0  0
   -0.5425    0.2053    1.0512 H   0  0  0  0  0  0  0  0  0  0  0  0
   -0.5425    1.4132    1.5293 C   0  0  0  0  0  2  0  0  0  0  0  0
    0.7310    2.1207    1.8093 C   0  0  0  0  0  0  0  0  0  0  0  0
    1.9103    1.6033    0.9929 C   0  0  0  0  0  0  0  0  0  0  0  0
   -1.4056    1.5519    2.1665 H   0  0  0  0  0  0  0  0  0  0  0  0
    0.6058    3.1973    1.6164 H   0  0  0  0  0  0  0  0  0  0  0  0
    0.9615    2.0561    2.8793 H   0  0  0  0  0  0  0  0  0  0  0  0
    1.7127    1.6985   -0.0770 H   0  0  0  0  0  0  0  0  0  0  0  0
    2.0975    0.5489    1.2048 H   0  0  0  0  0  0  0  0  0  0  0  0
    2.8214    2.1600    1.2164 H   0  0  0  0  0  0  0  0  0  0  0  0
  1  2  1  0
  1  5  1  0
  1  6  1  0
  1  7  1  0
  2  3  2  3
  2  8  1  0
  3  4  1  0
  4  9  1  0
 10 11  1  0
 10 13  1  0
 11 12  1  0
 11 14  1  0
 11 15  1  0
 12 16  1  0
 12 17  1  0
 12 18  1  0
M  RAD  1  10   3
M  END
>  <reaction>  (10) 
rmg_rxn_53

>  <mol_properties>  (10) 
{"2": {"label": "*0", "atom_type": "N3d"}, "3": {"label": "*1", "atom_type": "O2s"}, "8": {"label": "*2", "atom_type": "H0"}, "9": {"label": "*3", "atom_type": "Cs"}, "10": {"label": "*4", "atom_type": "Cs"}}

>  <type>  (10) 
unop_6

>  <geom_source>  (10) 
Heuristics

$$$$

     RDKit          3D

 18 16  0  0  0  0  0  0  0  0999 V2000
   -0.5125   -1.6559   -3.1248 C   0  0  0  0  0  0  0  0  0  0  0  0
   -0.5125   -1.6559   -1.6362 C   0  0  0  0  0  0  0  0  0  0  0  0
   -0.5125   -0.5638   -0.9994 N   0  0  0  0  0  0  0  0  0  0  0  0
   -0.5125   -0.7685    0.3738 O   0  0  0  0  0  0  0  0  0  0  0  0
    0.3669   -2.1797   -3.5066 H   0  0  0  0  0  0  0  0  0  0  0  0
   -1.3919   -2.1797   -3.5066 H   0  0  0  0  0  0  0  0  0  0  0  0
   -0.5125   -0.6362   -3.5063 H   0  0  0  0  0  0  0  0  0  0  0  0
   -0.5125   -2.6034   -1.0960 H   0  0  0  0  0  0  0  0  0  0  0  0
   -0.5125    0.3012    0.7972 H   0  0  0  0  0  0  0  0  0  0  0  0
   -0.5125    1.5091    1.2752 C   0  0  0  0  0  2  0  0  0  0  0  0
    0.5904    1.9824    2.1474 C   0  0  0  0  0  0  0  0  0  0  0  0
    1.9172    1.2751    1.8934 C   0  0  0  0  0  0  0  0  0  0  0  0
   -1.5376    1.7901    1.4761 H   0  0  0  0  0  0  0  0  0  0  0  0
    0.7297    3.0660    2.0119 H   0  0  0  0  0  0  0  0  0  0  0  0
    0.3033    1.8694    3.1995 H   0  0  0  0  0  0  0  0  0  0  0  0
    2.2379    1.4125    0.8585 H   0  0  0  0  0  0  0  0  0  0  0  0
    1.8274    0.2025    2.0750 H   0  0  0  0  0  0  0  0  0  0  0  0
    2.7035    1.6632    2.5423 H   0  0  0  0  0  0  0  0  0  0  0  0
  1  2  1  0
  1  5  1  0
  1  6  1  0
  1  7  1  0
  2  3  2  3
  2  8  1  0
  3  4  1  0
  4  9  1  0
 10 11  1  0
 10 13  1  0
 11 12  1  0
 11 14  1  0
 11 15  1  0
 12 16  1  0
 12 17  1  0
 12 18  1  0
M  RAD  1  10   3
M  END
>  <reaction>  (11) 
rmg_rxn_53

>  <mol_properties>  (11) 
{"2": {"label": "*0", "atom_type": "N3d"}, "3": {"label": "*1", "atom_type": "O2s"}, "8": {"label": "*2", "atom_type": "H0"}, "9": {"label": "*3", "atom_type": "Cs"}, "10": {"label": "*4", "atom_type": "Cs"}}

>  <type>  (11) 
unop_7

>  <geom_source>  (11) 
Heuristics

$$$$

     RDKit          3D

 18 16  0  0  0  0  0  0  0  0999 V2000
    0.4998   -1.8525   -2.8108 C   0  0  0  0  0  0  0  0  0  0  0  0
    0.4998   -1.8525   -1.3221 C   0  0  0  0  0  0  0  0  0  0  0  0
    0.4998   -0.7604   -0.6853 N   0  0  0  0  0  0  0  0  0  0  0  0
    0.4998   -0.9651    0.6879 O   0  0  0  0  0  0  0  0  0  0  0  0
    1.3792   -2.3763   -3.1926 H   0  0  0  0  0  0  0  0  0  0  0  0
   -0.3796   -2.3763   -3.1926 H   0  0  0  0  0  0  0  0  0  0  0  0
    0.4998   -0.8328   -3.1922 H   0  0  0  0  0  0  0  0  0  0  0  0
    0.4998   -2.8000   -0.7820 H   0  0  0  0  0  0  0  0  0  0  0  0
    0.4998    0.1046    1.1112 H   0  0  0  0  0  0  0  0  0  0  0  0
    0.4998    1.3125    1.5893 C   0  0  0  0  0  2  0  0  0  0  0  0
   -0.7737    2.0201    1.8693 C   0  0  0  0  0  0  0  0  0  0  0  0
   -1.6596    2.1940    0.6405 C   0  0  0  0  0  0  0  0  0  0  0  0
    1.2939    1.2886    2.3235 H   0  0  0  0  0  0  0  0  0  0  0  0
   -1.3364    1.4759    2.6434 H   0  0  0  0  0  0  0  0  0  0  0  0
   -0.5617    2.9982    2.3173 H   0  0  0  0  0  0  0  0  0  0  0  0
   -1.9137    1.2250    0.2056 H   0  0  0  0  0  0  0  0  0  0  0  0
   -1.1504    2.7805   -0.1265 H   0  0  0  0  0  0  0  0  0  0  0  0
   -2.5910    2.7029    0.8925 H   0  0  0  0  0  0  0  0  0  0  0  0
  1  2  1  0
  1  5  1  0
  1  6  1  0
  1  7  1  0
  2  3  2  3
  2  8  1  0
  3  4  1  0
  4  9  1  0
 10 11  1  0
 10 13  1  0
 11 12  1  0
 11 14  1  0
 11 15  1  0
 12 16  1  0
 12 17  1  0
 12 18  1  0
M  RAD  1  10   3
M  END
>  <reaction>  (12) 
rmg_rxn_53

>  <mol_properties>  (12) 
{"2": {"label": "*0", "atom_type": "N3d"}, "3": {"label": "*1", "atom_type": "O2s"}, "8": {"label": "*2", "atom_type": "H0"}, "9": {"label": "*3", "atom_type": "Cs"}, "10": {"label": "*4", "atom_type": "Cs"}}

>  <type>  (12) 
unop_8

>  <geom_source>  (12) 
Heuristics

$$$$

     RDKit          3D

 18 16  0  0  0  0  0  0  0  0999 V2000
   -0.2772   -1.8848   -2.4964 C   0  0  0  0  0  0  0  0  0  0  0  0
   -0.2772   -1.8848   -1.0077 C   0  0  0  0  0  0  0  0  0  0  0  0
   -0.2772   -0.7927   -0.3709 N   0  0  0  0  0  0  0  0  0  0  0  0
   -0.2772   -0.9974    1.0022 O   0  0  0  0  0  0  0  0  0  0  0  0
    0.6022   -2.4086   -2.8782 H   0  0  0  0  0  0  0  0  0  0  0  0
   -1.1566   -2.4086   -2.8782 H   0  0  0  0  0  0  0  0  0  0  0  0
   -0.2772   -0.8651   -2.8778 H   0  0  0  0  0  0  0  0  0  0  0  0
   -0.2772   -2.8323   -0.4676 H   0  0  0  0  0  0  0  0  0  0  0  0
   -0.2772    0.0723    1.4256 H   0  0  0  0  0  0  0  0  0  0  0  0
   -0.2772    1.2802    1.9037 C   0  0  0  0  0  2  0  0  0  0  0  0
    0.3596    2.3936    1.1582 C   0  0  0  0  0  0  0  0  0  0  0  0
    0.9820    1.9656   -0.1663 C   0  0  0  0  0  0  0  0  0  0  0  0
   -0.5875    1.4075    2.9321 H   0  0  0  0  0  0  0  0  0  0  0  0
   -0.3836    3.1830    0.9671 H   0  0  0  0  0  0  0  0  0  0  0  0
    1.1177    2.8736    1.7883 H   0  0  0  0  0  0  0  0  0  0  0  0
    0.2302    1.5217   -0.8224 H   0  0  0  0  0  0  0  0  0  0  0  0
    1.7652    1.2223   -0.0060 H   0  0  0  0  0  0  0  0  0  0  0  0
    1.4238    2.8150   -0.6892 H   0  0  0  0  0  0  0  0  0  0  0  0
  1  2  1  0
  1  5  1  0
  1  6  1  0
  1  7  1  0
  2  3  2  3
  2  8  1  0
  3  4  1  0
  4  9  1  0
 10 11  1  0
 10 13  1  0
 11 12  1  0
 11 14  1  0
 11 15  1  0
 12 16  1  0
 12 17  1  0
 12 18  1  0
M  RAD  1  10   3
M  END
>  <reaction>  (13) 
rmg_rxn_53

>  <mol_properties>  (13) 
{"2": {"label": "*0", "atom_type": "N3d"}, "3": {"label": "*1", "atom_type": "O2s"}, "8": {"label": "*2", "atom_type": "H0"}, "9": {"label": "*3", "atom_type": "Cs"}, "10": {"label": "*4", "atom_type": "Cs"}}

>  <type>  (13) 
unop_9

>  <geom_source>  (13) 
Heuristics

$$$$

     RDKit          3D

 18 16  0  0  0  0  0  0  0  0999 V2000
    0.3685   -1.9107   -2.5999 C   0  0  0  0  0  0  0  0  0  0  0  0
    0.3685   -1.9107   -1.1112 C   0  0  0  0  0  0  0  0  0  0  0  0
    0.3685   -0.8186   -0.4744 N   0  0  0  0  0  0  0  0  0  0  0  0
    0.3685   -1.0233    0.8988 O   0  0  0  0  0  0  0  0  0  0  0  0
    1.2479   -2.4345   -2.9817 H   0  0  0  0  0  0  0  0  0  0  0  0
   -0.5110   -2.4345   -2.9817 H   0  0  0  0  0  0  0  0  0  0  0  0
    0.3685   -0.8910   -2.9813 H   0  0  0  0  0  0  0  0  0  0  0  0
    0.3685   -2.8582   -0.5711 H   0  0  0  0  0  0  0  0  0  0  0  0
    0.3685    0.0464    1.3222 H   0  0  0  0  0  0  0  0  0  0  0  0
    0.3685    1.2543    1.8002 C   0  0  0  0  0  2  0  0  0  0  0  0
   -0.7344    2.1962    1.4882 C   0  0  0  0  0  0  0  0  0  0  0  0
   -1.0507    2.2958   -0.0001 C   0  0  0  0  0  0  0  0  0  0  0  0
    0.8145    1.2297    2.7855 H   0  0  0  0  0  0  0  0  0  0  0  0
   -1.6440    1.8924    2.0289 H   0  0  0  0  0  0  0  0  0  0  0  0
   -0.4948    3.1896    1.8856 H   0  0  0  0  0  0  0  0  0  0  0  0
   -1.3313    1.3202   -0.4030 H   0  0  0  0  0  0  0  0  0  0  0  0
   -0.1831    2.6506   -0.5595 H   0  0  0  0  0  0  0  0  0  0  0  0
   -1.8765    2.9845   -0.1843 H   0  0  0  0  0  0  0  0  0  0  0  0
  1  2  1  0
  1  5  1  0
  1  6  1  0
  1  7  1  0
  2  3  2  3
  2  8  1  0
  3  4  1  0
  4  9  1  0
 10 11  1  0
 10 13  1  0
 11 12  1  0
 11 14  1  0
 11 15  1  0
 12 16  1  0
 12 17  1  0
 12 18  1  0
M  RAD  1  10   3
M  END
>  <reaction>  (14) 
rmg_rxn_53

>  <mol_properties>  (14) 
{"2": {"label": "*0", "atom_type": "N3d"}, "3": {"label": "*1", "atom_type": "O2s"}, "8": {"label": "*2", "atom_type": "H0"}, "9": {"label": "*3", "atom_type": "Cs"}, "10": {"label": "*4", "atom_type": "Cs"}}

>  <type>  (14) 
unop_10

>  <geom_source>  (14) 
Heuristics

$$$$

     RDKit          3D

 18 16  0  0  0  0  0  0  0  0999 V2000
   -0.3269   -1.5551   -3.3529 C   0  0  0  0  0  0  0  0  0  0  0  0
   -0.3269   -1.5551   -1.8642 C   0  0  0  0  0  0  0  0  0  0  0  0
   -0.3269   -0.4630   -1.2274 N   0  0  0  0  0  0  0  0  0  0  0  0
   -0.3269   -0.6677    0.1458 O   0  0  0  0  0  0  0  0  0  0  0  0
    0.5525   -2.0789   -3.7347 H   0  0  0  0  0  0  0  0  0  0  0  0
   -1.2063   -2.0789   -3.7347 H   0  0  0  0  0  0  0  0  0  0  0  0
   -0.3269   -0.5354   -3.7343 H   0  0  0  0  0  0  0  0  0  0  0  0
   -0.3269   -2.5026   -1.3241 H   0  0  0  0  0  0  0  0  0  0  0  0
   -0.3269    0.4020    0.5691 H   0  0  0  0  0  0  0  0  0  0  0  0
   -0.3269    1.6099    1.0472 C   0  0  0  0  0  2  0  0  0  0  0  0
    0.3098    1.9116    2.3527 C   0  0  0  0  0  0  0  0  0  0  0  0
    1.3019    0.8475    2.8096 C   0  0  0  0  0  0  0  0  0  0  0  0
   -1.1781    2.1804    0.7005 H   0  0  0  0  0  0  0  0  0  0  0  0
    0.8255    2.8826    2.2968 H   0  0  0  0  0  0  0  0  0  0  0  0
   -0.4638    2.0524    3.1169 H   0  0  0  0  0  0  0  0  0  0  0  0
    2.1024    0.7239    2.0771 H   0  0  0  0  0  0  0  0  0  0  0  0
    0.8082   -0.1186    2.9302 H   0  0  0  0  0  0  0  0  0  0  0  0
    1.7587    1.1153    3.7634 H   0  0  0  0  0  0  0  0  0  0  0  0
  1  2  1  0
  1  5  1  0
  1  6  1  0
  1  7  1  0
  2  3  2  3
  2  8  1  0
  3  4  1  0
  4  9  1  0
 10 11  1  0
 10 13  1  0
 11 12  1  0
 11 14  1  0
 11 15  1  0
 12 16  1  0
 12 17  1  0
 12 18  1  0
M  RAD  1  10   3
M  END
>  <reaction>  (15) 
rmg_rxn_53

>  <mol_properties>  (15) 
{"2": {"label": "*0", "atom_type": "N3d"}, "3": {"label": "*1", "atom_type": "O2s"}, "8": {"label": "*2", "atom_type": "H0"}, "9": {"label": "*3", "atom_type": "Cs"}, "10": {"label": "*4", "atom_type": "Cs"}}

>  <type>  (15) 
unop_11

>  <geom_source>  (15) 
Heuristics

$$$$

     RDKit          3D

 18 16  0  0  0  0  0  0  0  0999 V2000
   -0.0624   -1.9185   -2.4348 C   0  0  0  0  0  0  0  0  0  0  0  0
   -0.0624   -1.9185   -0.9462 C   0  0  0  0  0  0  0  0  0  0  0  0
   -0.0624   -0.8264   -0.3094 N   0  0  0  0  0  0  0  0  0  0  0  0
   -0.0624   -1.0311    1.0638 O   0  0  0  0  0  0  0  0  0  0  0  0
    0.8170   -2.4423   -2.8166 H   0  0  0  0  0  0  0  0  0  0  0  0
   -0.9418   -2.4423   -2.8166 H   0  0  0  0  0  0  0  0  0  0  0  0
   -0.0624   -0.8988   -2.8163 H   0  0  0  0  0  0  0  0  0  0  0  0
   -0.0624   -2.8660   -0.4060 H   0  0  0  0  0  0  0  0  0  0  0  0
   -0.0624    0.0386    1.4872 H   0  0  0  0  0  0  0  0  0  0  0  0
   -0.0624    1.2465    1.9653 C   0  0  0  0  0  2  0  0  0  0  0  0
   -0.0624    2.4228    1.0612 C   0  0  0  0  0  0  0  0  0  0  0  0
    0.3661    2.0973   -0.3656 C   0  0  0  0  0  0  0  0  0  0  0  0
   -0.1631    1.3697    3.0352 H   0  0  0  0  0  0  0  0  0  0  0  0
   -1.0667    2.8730    1.0405 H   0  0  0  0  0  0  0  0  0  0  0  0
    0.5838    3.2061    1.4747 H   0  0  0  0  0  0  0  0  0  0  0  0
   -0.2935    1.3469   -0.8067 H   0  0  0  0  0  0  0  0  0  0  0  0
    1.3828    1.7007   -0.3857 H   0  0  0  0  0  0  0  0  0  0  0  0
    0.3364    2.9842   -1.0001 H   0  0  0  0  0  0  0  0  0  0  0  0
  1  2  1  0
  1  5  1  0
  1  6  1  0
  1  7  1  0
  2  3  2  3
  2  8  1  0
  3  4  1  0
  4  9  1  0
 10 11  1  0
 10 13  1  0
 11 12  1  0
 11 14  1  0
 11 15  1  0
 12 16  1  0
 12 17  1  0
 12 18  1  0
M  RAD  1  10   3
M  END
>  <reaction>  (16) 
rmg_rxn_53

>  <mol_properties>  (16) 
{"2": {"label": "*0", "atom_type": "N3d"}, "3": {"label": "*1", "atom_type": "O2s"}, "8": {"label": "*2", "atom_type": "H0"}, "9": {"label": "*3", "atom_type": "Cs"}, "10": {"label": "*4", "atom_type": "Cs"}}

>  <type>  (16) 
unop_12

>  <geom_source>  (16) 
Heuristics

$$$$

     RDKit          3D

 18 16  0  0  0  0  0  0  0  0999 V2000
    0.8604    0.7016    0.1832 O   0  0  0  0  0  1  0  0  0  0  0  0
    2.0814    0.5563    0.8020 N   0  0  0  0  0  2  0  0  0  0  0  0
   -2.6689    0.5094    0.3233 C   0  0  0  0  0  0  0  0  0  0  0  0
   -2.5900   -1.0093    0.2087 C   0  0  0  0  0  0  0  0  0  0  0  0
    3.0706   -0.2092   -1.2945 C   0  0  0  0  0  0  0  0  0  0  0  0
    3.1271    0.1395    0.1594 C   0  0  0  0  0  3  0  0  0  0  0  0
   -1.3958    1.0841    0.9295 C   0  0  0  0  0  3  0  0  0  0  0  0
   -2.8191    0.9489   -0.6855 H   0  0  0  0  0  0  0  0  0  0  0  0
   -3.5341    0.7885    0.9616 H   0  0  0  0  0  0  0  0  0  0  0  0
   -1.7403   -1.3036   -0.4437 H   0  0  0  0  0  0  0  0  0  0  0  0
   -2.4573   -1.4657    1.2128 H   0  0  0  0  0  0  0  0  0  0  0  0
   -3.5304   -1.3974   -0.2364 H   0  0  0  0  0  0  0  0  0  0  0  0
    2.7636    0.6799   -1.8844 H   0  0  0  0  0  0  0  0  0  0  0  0
    4.0721   -0.5410   -1.6396 H   0  0  0  0  0  0  0  0  0  0  0  0
    2.3435   -1.0322   -1.4575 H   0  0  0  0  0  0  0  0  0  0  0  0
    4.0656    0.0413    0.6891 H   0  0  0  0  0  0  0  0  0  0  0  0
   -1.2374    0.6931    1.9572 H   0  0  0  0  0  0  0  0  0  0  0  0
   -0.4110    0.8158    0.2150 H   0  0  0  0  0  0  0  0  0  0  0  0
  1  2  1  0
  2  6  1  0
  3  8  1  0
  3  4  1  0
  3  9  1  0
  3  7  1  0
  4 12  1  0
  4 11  1  0
  4 10  1  0
  5 15  1  0
  5 14  1  0
  5 13  1  0
  5  6  1  0
  6 16  1  0
  7 18  1  0
  7 17  1  0
M  RAD  4   1   2   2   2   6   2   7   2
M  END
>  <reaction>  (17) 
rmg_rxn_53

>  <mol_properties>  (17) 
{"2": {"label": "*0", "atom_type": "N3d"}, "3": {"label": "*1", "atom_type": "O2s"}, "8": {"label": "*2", "atom_type": "H0"}, "9": {"label": "*3", "atom_type": "Cs"}, "10": {"label": "*4", "atom_type": "Cs"}}

>  <type>  (17) 
unop_13

>  <geom_source>  (17) 
AutoTST

$$$$

     RDKit          3D

 18 16  0  0  0  0  0  0  0  0999 V2000
    0.1646   -1.9308   -2.4689 C   0  0  0  0  0  0  0  0  0  0  0  0
    0.1646   -1.9308   -0.9803 C   0  0  0  0  0  0  0  0  0  0  0  0
    0.1646   -0.8387   -0.3435 N   0  0  0  0  0  0  0  0  0  0  0  0
    0.1646   -1.0434    1.0297 O   0  0  0  0  0  0  0  0  0  0  0  0
    1.0440   -2.4546   -2.8508 H   0  0  0  0  0  0  0  0  0  0  0  0
   -0.7148   -2.4546   -2.8508 H   0  0  0  0  0  0  0  0  0  0  0  0
    0.1646   -0.9111   -2.8504 H   0  0  0  0  0  0  0  0  0  0  0  0
    0.1646   -2.8783   -0.4401 H   0  0  0  0  0  0  0  0  0  0  0  0
    0.1646    0.0262    1.4531 H   0  0  0  0  0  0  0  0  0  0  0  0
    0.1646    1.2342    1.9311 C   0  0  0  0  0  2  0  0  0  0  0  0
   -0.4722    2.3476    1.1857 C   0  0  0  0  0  0  0  0  0  0  0  0
   -0.3209    2.2357   -0.3275 C   0  0  0  0  0  0  0  0  0  0  0  0
    0.2929    1.2871    3.0040 H   0  0  0  0  0  0  0  0  0  0  0  0
   -1.5429    2.3958    1.4368 H   0  0  0  0  0  0  0  0  0  0  0  0
   -0.0634    3.3045    1.5313 H   0  0  0  0  0  0  0  0  0  0  0  0
   -0.7602    1.3051   -0.6932 H   0  0  0  0  0  0  0  0  0  0  0  0
    0.7321    2.2429   -0.6149 H   0  0  0  0  0  0  0  0  0  0  0  0
   -0.8162    3.0633   -0.8373 H   0  0  0  0  0  0  0  0  0  0  0  0
  1  2  1  0
  1  5  1  0
  1  6  1  0
  1  7  1  0
  2  3  2  3
  2  8  1  0
  3  4  1  0
  4  9  1  0
 10 11  1  0
 10 13  1  0
 11 12  1  0
 11 14  1  0
 11 15  1  0
 12 16  1  0
 12 17  1  0
 12 18  1  0
M  RAD  1  10   3
M  END
>  <reaction>  (18) 
rmg_rxn_53

>  <mol_properties>  (18) 
{"2": {"label": "*0", "atom_type": "N3d"}, "3": {"label": "*1", "atom_type": "O2s"}, "8": {"label": "*2", "atom_type": "H0"}, "9": {"label": "*3", "atom_type": "Cs"}, "10": {"label": "*4", "atom_type": "Cs"}}

>  <type>  (18) 
unop_14

>  <geom_source>  (18) 
gaussian_log

$$$$
