
     RDKit          3D

  9  8  0  0  0  0  0  0  0  0999 V2000
   -1.2461    0.5037    0.0950 C   0  0  0  0  0  0  0  0  0  0  0  0
   -0.0155   -0.3334    0.0640 C   0  0  0  0  0  0  0  0  0  0  0  0
    1.0697    0.1457   -0.3733 N   0  0  0  0  0  0  0  0  0  0  0  0
    2.1001   -0.7834   -0.3224 O   0  0  0  0  0  0  0  0  0  0  0  0
   -2.0357    0.0440   -0.5039 H   0  0  0  0  0  0  0  0  0  0  0  0
   -1.6237    0.5897    1.1166 H   0  0  0  0  0  0  0  0  0  0  0  0
   -1.0397    1.4998   -0.2929 H   0  0  0  0  0  0  0  0  0  0  0  0
   -0.0537   -1.3634    0.4205 H   0  0  0  0  0  0  0  0  0  0  0  0
    2.8478   -0.2985   -0.6758 H   0  0  0  0  0  0  0  0  0  0  0  0
  1  2  1  0
  1  5  1  0
  1  6  1  0
  1  7  1  0
  2  3  2  3
  2  8  1  0
  3  4  1  0
  4  9  1  0
M  END
>  <reaction>  (1) 
rmg_rxn_81

>  <mol_properties>  (1) 
{"3": {"label": "donator", "atom_type": "O2s"}, "8": {"label": "d_hydrogen", "atom_type": "H0"}}

>  <type>  (1) 
r1h

$$$$

     RDKit          3D

  2  1  0  0  0  0  0  0  0  0999 V2000
    0.0000    0.0000    0.6715 S   0  0  0  0  0  1  0  0  0  0  0  0
    0.0000    0.0000   -0.6715 H   0  0  0  0  0  0  0  0  0  0  0  0
  1  2  1  0
M  RAD  1   1   2
M  END
>  <reaction>  (2) 
rmg_rxn_81

>  <mol_properties>  (2) 
{"0": {"label": "acceptor", "atom_type": "S2s"}}

>  <type>  (2) 
r2

$$$$

     RDKit          3D

  3  2  0  0  0  0  0  0  0  0999 V2000
   -0.0007    0.6157    0.0000 S   0  0  0  0  0  0  0  0  0  0  0  0
   -0.9686   -0.3090    0.0000 H   0  0  0  0  0  0  0  0  0  0  0  0
    0.9693   -0.3067    0.0000 H   0  0  0  0  0  0  0  0  0  0  0  0
  1  2  1  0
  1  3  1  0
M  END
>  <reaction>  (3) 
rmg_rxn_81

>  <mol_properties>  (3) 
{"0": {"label": "acceptor", "atom_type": "S2s"}, "2": {"label": "a_hydrogen", "atom_type": "H0"}}

>  <type>  (3) 
r2h

$$$$

     RDKit          3D

 11  9  0  0  0  0  0  0  0  0999 V2000
   -0.5082    2.0321    1.5147 S   0  0  0  0  0  1  0  0  0  0  0  0
    0.7210    2.0381    0.9801 H   0  0  0  0  0  0  0  0  0  0  0  0
    0.3778   -1.6123   -2.6860 C   0  0  0  0  0  0  0  0  0  0  0  0
   -0.2461   -1.5846   -1.3356 C   0  0  0  0  0  0  0  0  0  0  0  0
   -0.2450   -0.5192   -0.6487 N   0  0  0  0  0  0  0  0  0  0  0  0
   -0.7887   -0.5242    0.5364 O   0  0  0  0  0  0  0  0  0  0  0  0
    1.1738   -2.3594   -2.7219 H   0  0  0  0  0  0  0  0  0  0  0  0
   -0.3612   -1.8901   -3.4409 H   0  0  0  0  0  0  0  0  0  0  0  0
    0.7925   -0.6378   -2.9370 H   0  0  0  0  0  0  0  0  0  0  0  0
   -0.7115   -2.4854   -0.9368 H   0  0  0  0  0  0  0  0  0  0  0  0
   -0.7925    0.5851    0.9390 H   0  0  0  0  0  0  0  0  0  0  0  0
  1  2  1  0
  3  4  1  0
  3  7  1  0
  3  8  1  0
  3  9  1  0
  4  5  2  3
  4 10  1  0
  5  6  1  0
  6 11  1  0
M  RAD  1   1   2
M  END
>  <reaction>  (4) 
rmg_rxn_81

>  <mol_properties>  (4) 
{"0": {"label": "*3", "atom_type": "S2s"}, "1": {"label": "*4", "atom_type": "H0"}, "4": {"label": "*0", "atom_type": "N3d"}, "5": {"label": "*1", "atom_type": "O2s"}, "10": {"label": "*2", "atom_type": "H0"}}

>  <type>  (4) 
ts

$$$$

     RDKit          3D

 11  9  0  0  0  0  0  0  0  0999 V2000
    0.0127    1.8848    1.7101 S   0  0  0  0  0  1  0  0  0  0  0  0
   -1.1453    1.6985    2.3554 H   0  0  0  0  0  0  0  0  0  0  0  0
    0.0127   -1.5659   -2.8030 C   0  0  0  0  0  0  0  0  0  0  0  0
    0.0127   -1.5659   -1.3144 C   0  0  0  0  0  0  0  0  0  0  0  0
    0.0127   -0.4738   -0.6776 N   0  0  0  0  0  0  0  0  0  0  0  0
    0.0127   -0.6785    0.6956 O   0  0  0  0  0  0  0  0  0  0  0  0
    0.8921   -2.0897   -3.1848 H   0  0  0  0  0  0  0  0  0  0  0  0
   -0.8667   -2.0897   -3.1848 H   0  0  0  0  0  0  0  0  0  0  0  0
    0.0127   -0.5462   -3.1844 H   0  0  0  0  0  0  0  0  0  0  0  0
    0.0127   -2.5134   -0.7742 H   0  0  0  0  0  0  0  0  0  0  0  0
    0.0127    0.3912    1.1190 H   0  0  0  0  0  0  0  0  0  0  0  0
  1  2  1  0
  3  4  1  0
  3  7  1  0
  3  8  1  0
  3  9  1  0
  4  5  2  3
  4 10  1  0
  5  6  1  0
  6 11  1  0
M  RAD  1   1   2
M  END
>  <reaction>  (5) 
rmg_rxn_81

>  <mol_properties>  (5) 
{"0": {"label": "*3", "atom_type": "S2s"}, "1": {"label": "*4", "atom_type": "H0"}, "4": {"label": "*0", "atom_type": "N3d"}, "5": {"label": "*1", "atom_type": "O2s"}, "10": {"label": "*2", "atom_type": "H0"}}

>  <type>  (5) 
unop_1

>  <geom_source>  (5) 
Heuristics

$$$$

     RDKit          3D

 11  9  0  0  0  0  0  0  0  0999 V2000
    0.0073    1.8774    1.7287 S   0  0  0  0  0  1  0  0  0  0  0  0
   -0.6612    2.3633    0.6757 H   0  0  0  0  0  0  0  0  0  0  0  0
    0.0073   -1.5733   -2.7844 C   0  0  0  0  0  0  0  0  0  0  0  0
    0.0073   -1.5733   -1.2958 C   0  0  0  0  0  0  0  0  0  0  0  0
    0.0073   -0.4812   -0.6590 N   0  0  0  0  0  0  0  0  0  0  0  0
    0.0073   -0.6859    0.7142 O   0  0  0  0  0  0  0  0  0  0  0  0
    0.8867   -2.0971   -3.1662 H   0  0  0  0  0  0  0  0  0  0  0  0
   -0.8721   -2.0971   -3.1662 H   0  0  0  0  0  0  0  0  0  0  0  0
    0.0073   -0.5536   -3.1658 H   0  0  0  0  0  0  0  0  0  0  0  0
    0.0073   -2.5208   -0.7556 H   0  0  0  0  0  0  0  0  0  0  0  0
    0.0073    0.3838    1.1376 H   0  0  0  0  0  0  0  0  0  0  0  0
  1  2  1  0
  3  4  1  0
  3  7  1  0
  3  8  1  0
  3  9  1  0
  4  5  2  3
  4 10  1  0
  5  6  1  0
  6 11  1  0
M  RAD  1   1   2
M  END
>  <reaction>  (6) 
rmg_rxn_81

>  <mol_properties>  (6) 
{"0": {"label": "*3", "atom_type": "S2s"}, "1": {"label": "*4", "atom_type": "H0"}, "4": {"label": "*0", "atom_type": "N3d"}, "5": {"label": "*1", "atom_type": "O2s"}, "10": {"label": "*2", "atom_type": "H0"}}

>  <type>  (6) 
unop_2

>  <geom_source>  (6) 
Heuristics

$$$$

     RDKit          3D

 11  9  0  0  0  0  0  0  0  0999 V2000
    0.0073    1.8867    1.7052 S   0  0  0  0  0  1  0  0  0  0  0  0
   -0.6612    1.5203    2.8055 H   0  0  0  0  0  0  0  0  0  0  0  0
    0.0073   -1.5639   -2.8080 C   0  0  0  0  0  0  0  0  0  0  0  0
    0.0073   -1.5639   -1.3193 C   0  0  0  0  0  0  0  0  0  0  0  0
    0.0073   -0.4719   -0.6825 N   0  0  0  0  0  0  0  0  0  0  0  0
    0.0073   -0.6765    0.6907 O   0  0  0  0  0  0  0  0  0  0  0  0
    0.8867   -2.0878   -3.1898 H   0  0  0  0  0  0  0  0  0  0  0  0
   -0.8721   -2.0878   -3.1898 H   0  0  0  0  0  0  0  0  0  0  0  0
    0.0073   -0.5443   -3.1894 H   0  0  0  0  0  0  0  0  0  0  0  0
    0.0073   -2.5115   -0.7792 H   0  0  0  0  0  0  0  0  0  0  0  0
    0.0073    0.3931    1.1140 H   0  0  0  0  0  0  0  0  0  0  0  0
  1  2  1  0
  3  4  1  0
  3  7  1  0
  3  8  1  0
  3  9  1  0
  4  5  2  3
  4 10  1  0
  5  6  1  0
  6 11  1  0
M  RAD  1   1   2
M  END
>  <reaction>  (7) 
rmg_rxn_81

>  <mol_properties>  (7) 
{"0": {"label": "*3", "atom_type": "S2s"}, "1": {"label": "*4", "atom_type": "H0"}, "4": {"label": "*0", "atom_type": "N3d"}, "5": {"label": "*1", "atom_type": "O2s"}, "10": {"label": "*2", "atom_type": "H0"}}

>  <type>  (7) 
unop_3

>  <geom_source>  (7) 
Heuristics

$$$$

     RDKit          3D

 11  9  0  0  0  0  0  0  0  0999 V2000
   -0.0127    1.8794    1.7238 S   0  0  0  0  0  1  0  0  0  0  0  0
    1.1453    2.1851    1.1258 H   0  0  0  0  0  0  0  0  0  0  0  0
   -0.0127   -1.5713   -2.7894 C   0  0  0  0  0  0  0  0  0  0  0  0
   -0.0127   -1.5713   -1.3007 C   0  0  0  0  0  0  0  0  0  0  0  0
   -0.0127   -0.4792   -0.6639 N   0  0  0  0  0  0  0  0  0  0  0  0
   -0.0127   -0.6839    0.7093 O   0  0  0  0  0  0  0  0  0  0  0  0
    0.8667   -2.0951   -3.1712 H   0  0  0  0  0  0  0  0  0  0  0  0
   -0.8921   -2.0951   -3.1712 H   0  0  0  0  0  0  0  0  0  0  0  0
   -0.0127   -0.5516   -3.1708 H   0  0  0  0  0  0  0  0  0  0  0  0
   -0.0127   -2.5188   -0.7606 H   0  0  0  0  0  0  0  0  0  0  0  0
   -0.0127    0.3858    1.1326 H   0  0  0  0  0  0  0  0  0  0  0  0
  1  2  1  0
  3  4  1  0
  3  7  1  0
  3  8  1  0
  3  9  1  0
  4  5  2  3
  4 10  1  0
  5  6  1  0
  6 11  1  0
M  RAD  1   1   2
M  END
>  <reaction>  (8) 
rmg_rxn_81

>  <mol_properties>  (8) 
{"0": {"label": "*3", "atom_type": "S2s"}, "1": {"label": "*4", "atom_type": "H0"}, "4": {"label": "*0", "atom_type": "N3d"}, "5": {"label": "*1", "atom_type": "O2s"}, "10": {"label": "*2", "atom_type": "H0"}}

>  <type>  (8) 
unop_4

>  <geom_source>  (8) 
Heuristics

$$$$

     RDKit          3D

 11  9  0  0  0  0  0  0  0  0999 V2000
    0.0000    1.8875    1.7033 S   0  0  0  0  0  1  0  0  0  0  0  0
    0.0000    1.4551    2.9702 H   0  0  0  0  0  0  0  0  0  0  0  0
   -0.0000   -1.5632   -2.8098 C   0  0  0  0  0  0  0  0  0  0  0  0
   -0.0000   -1.5632   -1.3212 C   0  0  0  0  0  0  0  0  0  0  0  0
   -0.0000   -0.4711   -0.6844 N   0  0  0  0  0  0  0  0  0  0  0  0
   -0.0000   -0.6758    0.6888 O   0  0  0  0  0  0  0  0  0  0  0  0
    0.8794   -2.0870   -3.1916 H   0  0  0  0  0  0  0  0  0  0  0  0
   -0.8794   -2.0870   -3.1916 H   0  0  0  0  0  0  0  0  0  0  0  0
   -0.0000   -0.5435   -3.1912 H   0  0  0  0  0  0  0  0  0  0  0  0
   -0.0000   -2.5107   -0.7810 H   0  0  0  0  0  0  0  0  0  0  0  0
    0.0000    0.3938    1.1122 H   0  0  0  0  0  0  0  0  0  0  0  0
  1  2  1  0
  3  4  1  0
  3  7  1  0
  3  8  1  0
  3  9  1  0
  4  5  2  3
  4 10  1  0
  5  6  1  0
  6 11  1  0
M  RAD  1   1   2
M  END
>  <reaction>  (9) 
rmg_rxn_81

>  <mol_properties>  (9) 
{"0": {"label": "*3", "atom_type": "S2s"}, "1": {"label": "*4", "atom_type": "H0"}, "4": {"label": "*0", "atom_type": "N3d"}, "5": {"label": "*1", "atom_type": "O2s"}, "10": {"label": "*2", "atom_type": "H0"}}

>  <type>  (9) 
unop_5

>  <geom_source>  (9) 
Heuristics

$$$$

     RDKit          3D

 11  9  0  0  0  0  0  0  0  0999 V2000
   -0.0146    1.8821    1.7170 S   0  0  0  0  0  1  0  0  0  0  0  0
    1.3224    1.9418    1.7406 H   0  0  0  0  0  0  0  0  0  0  0  0
   -0.0146   -1.5686   -2.7962 C   0  0  0  0  0  0  0  0  0  0  0  0
   -0.0146   -1.5686   -1.3075 C   0  0  0  0  0  0  0  0  0  0  0  0
   -0.0146   -0.4765   -0.6707 N   0  0  0  0  0  0  0  0  0  0  0  0
   -0.0146   -0.6812    0.7025 O   0  0  0  0  0  0  0  0  0  0  0  0
    0.8648   -2.0924   -3.1780 H   0  0  0  0  0  0  0  0  0  0  0  0
   -0.8941   -2.0924   -3.1780 H   0  0  0  0  0  0  0  0  0  0  0  0
   -0.0146   -0.5489   -3.1776 H   0  0  0  0  0  0  0  0  0  0  0  0
   -0.0146   -2.5161   -0.7674 H   0  0  0  0  0  0  0  0  0  0  0  0
   -0.0146    0.3885    1.1258 H   0  0  0  0  0  0  0  0  0  0  0  0
  1  2  1  0
  3  4  1  0
  3  7  1  0
  3  8  1  0
  3  9  1  0
  4  5  2  3
  4 10  1  0
  5  6  1  0
  6 11  1  0
M  RAD  1   1   2
M  END
>  <reaction>  (10) 
rmg_rxn_81

>  <mol_properties>  (10) 
{"0": {"label": "*3", "atom_type": "S2s"}, "1": {"label": "*4", "atom_type": "H0"}, "4": {"label": "*0", "atom_type": "N3d"}, "5": {"label": "*1", "atom_type": "O2s"}, "10": {"label": "*2", "atom_type": "H0"}}

>  <type>  (10) 
unop_6

>  <geom_source>  (10) 
Heuristics

$$$$

     RDKit          3D

 11  9  0  0  0  0  0  0  0  0999 V2000
   -0.0127    1.8848    1.7101 S   0  0  0  0  0  1  0  0  0  0  0  0
    1.1453    1.6985    2.3554 H   0  0  0  0  0  0  0  0  0  0  0  0
   -0.0127   -1.5659   -2.8030 C   0  0  0  0  0  0  0  0  0  0  0  0
   -0.0127   -1.5659   -1.3144 C   0  0  0  0  0  0  0  0  0  0  0  0
   -0.0127   -0.4738   -0.6776 N   0  0  0  0  0  0  0  0  0  0  0  0
   -0.0127   -0.6785    0.6956 O   0  0  0  0  0  0  0  0  0  0  0  0
    0.8667   -2.0897   -3.1848 H   0  0  0  0  0  0  0  0  0  0  0  0
   -0.8921   -2.0897   -3.1848 H   0  0  0  0  0  0  0  0  0  0  0  0
   -0.0127   -0.5462   -3.1844 H   0  0  0  0  0  0  0  0  0  0  0  0
   -0.0127   -2.5134   -0.7742 H   0  0  0  0  0  0  0  0  0  0  0  0
   -0.0127    0.3912    1.1190 H   0  0  0  0  0  0  0  0  0  0  0  0
  1  2  1  0
  3  4  1  0
  3  7  1  0
  3  8  1  0
  3  9  1  0
  4  5  2  3
  4 10  1  0
  5  6  1  0
  6 11  1  0
M  RAD  1   1   2
M  END
>  <reaction>  (11) 
rmg_rxn_81

>  <mol_properties>  (11) 
{"0": {"label": "*3", "atom_type": "S2s"}, "1": {"label": "*4", "atom_type": "H0"}, "4": {"label": "*0", "atom_type": "N3d"}, "5": {"label": "*1", "atom_type": "O2s"}, "10": {"label": "*2", "atom_type": "H0"}}

>  <type>  (11) 
unop_7

>  <geom_source>  (11) 
Heuristics

$$$$

     RDKit          3D

 11  9  0  0  0  0  0  0  0  0999 V2000
    0.0146    1.8821    1.7170 S   0  0  0  0  0  1  0  0  0  0  0  0
   -1.3224    1.9418    1.7406 H   0  0  0  0  0  0  0  0  0  0  0  0
    0.0146   -1.5686   -2.7962 C   0  0  0  0  0  0  0  0  0  0  0  0
    0.0146   -1.5686   -1.3075 C   0  0  0  0  0  0  0  0  0  0  0  0
    0.0146   -0.4765   -0.6707 N   0  0  0  0  0  0  0  0  0  0  0  0
    0.0146   -0.6812    0.7025 O   0  0  0  0  0  0  0  0  0  0  0  0
    0.8941   -2.0924   -3.1780 H   0  0  0  0  0  0  0  0  0  0  0  0
   -0.8648   -2.0924   -3.1780 H   0  0  0  0  0  0  0  0  0  0  0  0
    0.0146   -0.5489   -3.1776 H   0  0  0  0  0  0  0  0  0  0  0  0
    0.0146   -2.5161   -0.7674 H   0  0  0  0  0  0  0  0  0  0  0  0
    0.0146    0.3885    1.1258 H   0  0  0  0  0  0  0  0  0  0  0  0
  1  2  1  0
  3  4  1  0
  3  7  1  0
  3  8  1  0
  3  9  1  0
  4  5  2  3
  4 10  1  0
  5  6  1  0
  6 11  1  0
M  RAD  1   1   2
M  END
>  <reaction>  (12) 
rmg_rxn_81

>  <mol_properties>  (12) 
{"0": {"label": "*3", "atom_type": "S2s"}, "1": {"label": "*4", "atom_type": "H0"}, "4": {"label": "*0", "atom_type": "N3d"}, "5": {"label": "*1", "atom_type": "O2s"}, "10": {"label": "*2", "atom_type": "H0"}}

>  <type>  (12) 
unop_8

>  <geom_source>  (12) 
Heuristics

$$$$

     RDKit          3D

 11  9  0  0  0  0  0  0  0  0999 V2000
   -0.0073    1.8774    1.7287 S   0  0  0  0  0  1  0  0  0  0  0  0
    0.6612    2.3633    0.6757 H   0  0  0  0  0  0  0  0  0  0  0  0
   -0.0073   -1.5733   -2.7844 C   0  0  0  0  0  0  0  0  0  0  0  0
   -0.0073   -1.5733   -1.2958 C   0  0  0  0  0  0  0  0  0  0  0  0
   -0.0073   -0.4812   -0.6590 N   0  0  0  0  0  0  0  0  0  0  0  0
   -0.0073   -0.6859    0.7142 O   0  0  0  0  0  0  0  0  0  0  0  0
    0.8721   -2.0971   -3.1662 H   0  0  0  0  0  0  0  0  0  0  0  0
   -0.8867   -2.0971   -3.1662 H   0  0  0  0  0  0  0  0  0  0  0  0
   -0.0073   -0.5536   -3.1658 H   0  0  0  0  0  0  0  0  0  0  0  0
   -0.0073   -2.5208   -0.7556 H   0  0  0  0  0  0  0  0  0  0  0  0
   -0.0073    0.3838    1.1376 H   0  0  0  0  0  0  0  0  0  0  0  0
  1  2  1  0
  3  4  1  0
  3  7  1  0
  3  8  1  0
  3  9  1  0
  4  5  2  3
  4 10  1  0
  5  6  1  0
  6 11  1  0
M  RAD  1   1   2
M  END
>  <reaction>  (13) 
rmg_rxn_81

>  <mol_properties>  (13) 
{"0": {"label": "*3", "atom_type": "S2s"}, "1": {"label": "*4", "atom_type": "H0"}, "4": {"label": "*0", "atom_type": "N3d"}, "5": {"label": "*1", "atom_type": "O2s"}, "10": {"label": "*2", "atom_type": "H0"}}

>  <type>  (13) 
unop_9

>  <geom_source>  (13) 
Heuristics

$$$$

     RDKit          3D

 11  9  0  0  0  0  0  0  0  0999 V2000
    0.0127    1.8794    1.7238 S   0  0  0  0  0  1  0  0  0  0  0  0
   -1.1453    2.1851    1.1258 H   0  0  0  0  0  0  0  0  0  0  0  0
    0.0127   -1.5713   -2.7894 C   0  0  0  0  0  0  0  0  0  0  0  0
    0.0127   -1.5713   -1.3007 C   0  0  0  0  0  0  0  0  0  0  0  0
    0.0127   -0.4792   -0.6639 N   0  0  0  0  0  0  0  0  0  0  0  0
    0.0127   -0.6839    0.7093 O   0  0  0  0  0  0  0  0  0  0  0  0
    0.8921   -2.0951   -3.1712 H   0  0  0  0  0  0  0  0  0  0  0  0
   -0.8667   -2.0951   -3.1712 H   0  0  0  0  0  0  0  0  0  0  0  0
    0.0127   -0.5516   -3.1708 H   0  0  0  0  0  0  0  0  0  0  0  0
    0.0127   -2.5188   -0.7606 H   0  0  0  0  0  0  0  0  0  0  0  0
    0.0127    0.3858    1.1326 H   0  0  0  0  0  0  0  0  0  0  0  0
  1  2  1  0
  3  4  1  0
  3  7  1  0
  3  8  1  0
  3  9  1  0
  4  5  2  3
  4 10  1  0
  5  6  1  0
  6 11  1  0
M  RAD  1   1   2
M  END
>  <reaction>  (14) 
rmg_rxn_81

>  <mol_properties>  (14) 
{"0": {"label": "*3", "atom_type": "S2s"}, "1": {"label": "*4", "atom_type": "H0"}, "4": {"label": "*0", "atom_type": "N3d"}, "5": {"label": "*1", "atom_type": "O2s"}, "10": {"label": "*2", "atom_type": "H0"}}

>  <type>  (14) 
unop_10

>  <geom_source>  (14) 
Heuristics

$$$$

     RDKit          3D

 11  9  0  0  0  0  0  0  0  0999 V2000
   -0.0073    1.8867    1.7052 S   0  0  0  0  0  1  0  0  0  0  0  0
    0.6612    1.5203    2.8055 H   0  0  0  0  0  0  0  0  0  0  0  0
   -0.0073   -1.5639   -2.8080 C   0  0  0  0  0  0  0  0  0  0  0  0
   -0.0073   -1.5639   -1.3193 C   0  0  0  0  0  0  0  0  0  0  0  0
   -0.0073   -0.4719   -0.6825 N   0  0  0  0  0  0  0  0  0  0  0  0
   -0.0073   -0.6765    0.6907 O   0  0  0  0  0  0  0  0  0  0  0  0
    0.8721   -2.0878   -3.1898 H   0  0  0  0  0  0  0  0  0  0  0  0
   -0.8867   -2.0878   -3.1898 H   0  0  0  0  0  0  0  0  0  0  0  0
   -0.0073   -0.5443   -3.1894 H   0  0  0  0  0  0  0  0  0  0  0  0
   -0.0073   -2.5115   -0.7792 H   0  0  0  0  0  0  0  0  0  0  0  0
   -0.0073    0.3931    1.1140 H   0  0  0  0  0  0  0  0  0  0  0  0
  1  2  1  0
  3  4  1  0
  3  7  1  0
  3  8  1  0
  3  9  1  0
  4  5  2  3
  4 10  1  0
  5  6  1  0
  6 11  1  0
M  RAD  1   1   2
M  END
>  <reaction>  (15) 
rmg_rxn_81

>  <mol_properties>  (15) 
{"0": {"label": "*3", "atom_type": "S2s"}, "1": {"label": "*4", "atom_type": "H0"}, "4": {"label": "*0", "atom_type": "N3d"}, "5": {"label": "*1", "atom_type": "O2s"}, "10": {"label": "*2", "atom_type": "H0"}}

>  <type>  (15) 
unop_11

>  <geom_source>  (15) 
Heuristics

$$$$

     RDKit          3D

 11  9  0  0  0  0  0  0  0  0999 V2000
    0.0000    1.8767    1.7306 S   0  0  0  0  0  1  0  0  0  0  0  0
    0.0000    2.4285    0.5110 H   0  0  0  0  0  0  0  0  0  0  0  0
   -0.0000   -1.5740   -2.7826 C   0  0  0  0  0  0  0  0  0  0  0  0
   -0.0000   -1.5740   -1.2939 C   0  0  0  0  0  0  0  0  0  0  0  0
   -0.0000   -0.4819   -0.6571 N   0  0  0  0  0  0  0  0  0  0  0  0
   -0.0000   -0.6866    0.7161 O   0  0  0  0  0  0  0  0  0  0  0  0
    0.8794   -2.0978   -3.1644 H   0  0  0  0  0  0  0  0  0  0  0  0
   -0.8794   -2.0978   -3.1644 H   0  0  0  0  0  0  0  0  0  0  0  0
   -0.0000   -0.5543   -3.1640 H   0  0  0  0  0  0  0  0  0  0  0  0
   -0.0000   -2.5215   -0.7538 H   0  0  0  0  0  0  0  0  0  0  0  0
    0.0000    0.3831    1.1394 H   0  0  0  0  0  0  0  0  0  0  0  0
  1  2  1  0
  3  4  1  0
  3  7  1  0
  3  8  1  0
  3  9  1  0
  4  5  2  3
  4 10  1  0
  5  6  1  0
  6 11  1  0
M  RAD  1   1   2
M  END
>  <reaction>  (16) 
rmg_rxn_81

>  <mol_properties>  (16) 
{"0": {"label": "*3", "atom_type": "S2s"}, "1": {"label": "*4", "atom_type": "H0"}, "4": {"label": "*0", "atom_type": "N3d"}, "5": {"label": "*1", "atom_type": "O2s"}, "10": {"label": "*2", "atom_type": "H0"}}

>  <type>  (16) 
unop_12

>  <geom_source>  (16) 
Heuristics

$$$$

     RDKit          3D

 11  9  0  0  0  0  0  0  0  0999 V2000
    0.0073    1.8774    1.7288 S   0  0  0  0  0  1  0  0  0  0  0  0
   -0.6612    2.3633    0.6757 H   0  0  0  0  0  0  0  0  0  0  0  0
    0.0073   -1.5733   -2.7844 C   0  0  0  0  0  0  0  0  0  0  0  0
    0.0073   -1.5733   -1.2957 C   0  0  0  0  0  0  0  0  0  0  0  0
    0.0073   -0.4812   -0.6590 N   0  0  0  0  0  0  0  0  0  0  0  0
    0.0073   -0.6859    0.7142 O   0  0  0  0  0  0  0  0  0  0  0  0
    0.8867   -2.0971   -3.1662 H   0  0  0  0  0  0  0  0  0  0  0  0
   -0.8721   -2.0971   -3.1662 H   0  0  0  0  0  0  0  0  0  0  0  0
    0.0073   -0.5536   -3.1658 H   0  0  0  0  0  0  0  0  0  0  0  0
    0.0073   -2.5208   -0.7556 H   0  0  0  0  0  0  0  0  0  0  0  0
    0.0073    0.3838    1.1376 H   0  0  0  0  0  0  0  0  0  0  0  0
  1  2  1  0
  3  4  1  0
  3  7  1  0
  3  8  1  0
  3  9  1  0
  4  5  2  3
  4 10  1  0
  5  6  1  0
  6 11  1  0
M  RAD  1   1   2
M  END
>  <reaction>  (17) 
rmg_rxn_81

>  <mol_properties>  (17) 
{"0": {"label": "*3", "atom_type": "S2s"}, "1": {"label": "*4", "atom_type": "H0"}, "4": {"label": "*0", "atom_type": "N3d"}, "5": {"label": "*1", "atom_type": "O2s"}, "10": {"label": "*2", "atom_type": "H0"}}

>  <type>  (17) 
unop_13

>  <geom_source>  (17) 
gaussian_log

$$$$
