
     RDKit          3D

 21 21  0  0  0  0  0  0  0  0999 V2000
   -3.3063    0.8372   -0.4191 C   0  0  0  0  0  0  0  0  0  0  0  0
   -2.1868   -0.0031    0.1062 C   0  0  0  0  0  0  0  0  0  0  0  0
   -1.2468   -0.5708   -0.6355 C   0  0  0  0  0  0  0  0  0  0  0  0
   -0.1288   -1.4267   -0.0992 C   0  0  1  0  0  0  0  0  0  0  0  0
   -0.2669   -2.8181   -0.6749 C   0  0  0  0  0  0  0  0  0  0  0  0
    0.3720   -3.1660   -1.7912 C   0  0  0  0  0  0  0  0  0  0  0  0
    1.2734   -2.2287   -2.4612 C   0  0  0  0  0  0  0  0  0  0  0  0
    1.6831   -1.1252   -1.8379 C   0  0  0  0  0  0  0  0  0  0  0  0
    1.2566   -0.8455   -0.4251 C   0  0  0  0  0  0  0  0  0  0  0  0
   -3.2551    0.9336   -1.5043 H   0  0  0  0  0  0  0  0  0  0  0  0
   -4.2759    0.4036   -0.1600 H   0  0  0  0  0  0  0  0  0  0  0  0
   -3.2812    1.8399    0.0155 H   0  0  0  0  0  0  0  0  0  0  0  0
   -2.1595   -0.1491    1.1845 H   0  0  0  0  0  0  0  0  0  0  0  0
   -1.2614   -0.4401   -1.7158 H   0  0  0  0  0  0  0  0  0  0  0  0
   -0.2339   -1.4738    0.9871 H   0  0  0  0  0  0  0  0  0  0  0  0
   -0.9690   -3.4944   -0.2017 H   0  0  0  0  0  0  0  0  0  0  0  0
    0.2170   -4.1439   -2.2308 H   0  0  0  0  0  0  0  0  0  0  0  0
    1.6128   -2.4570   -3.4641 H   0  0  0  0  0  0  0  0  0  0  0  0
    2.3713   -0.4410   -2.3198 H   0  0  0  0  0  0  0  0  0  0  0  0
    1.2580    0.2272   -0.2225 H   0  0  0  0  0  0  0  0  0  0  0  0
    1.9994   -1.2911    0.2497 H   0  0  0  0  0  0  0  0  0  0  0  0
  1  2  1  0
  1 10  1  0
  1 11  1  0
  1 12  1  0
  2  3  2  3
  2 13  1  0
  3  4  1  0
  3 14  1  0
  4  5  1  0
  4  9  1  0
  4 15  1  1
  5  6  2  0
  5 16  1  0
  6  7  1  0
  6 17  1  0
  7  8  2  0
  7 18  1  0
  8  9  1  0
  8 19  1  0
  9 20  1  0
  9 21  1  0
M  END
>  <reaction>  (1) 
rmg_rxn_15539

>  <mol_properties>  (1) 
{"8": {"label": "donator", "atom_type": "Cs"}, "19": {"label": "d_hydrogen", "atom_type": "H0"}}

>  <type>  (1) 
r1h

$$$$

     RDKit          3D

  5  4  0  0  0  0  0  0  0  0999 V2000
    0.8934    0.3742    0.4948 O   0  0  0  0  0  0  0  0  0  0  0  0
    0.1582   -0.1610   -0.5904 N   0  0  0  0  0  0  0  0  0  0  0  0
   -1.0297   -0.3739   -0.4689 C   0  0  0  0  0  3  0  0  0  0  0  0
    1.7804    0.4382    0.1306 H   0  0  0  0  0  0  0  0  0  0  0  0
   -1.8023   -0.2775    0.2859 H   0  0  0  0  0  0  0  0  0  0  0  0
  1  2  1  0
  1  4  1  0
  2  3  2  3
  3  5  1  0
M  RAD  1   3   2
M  END
>  <reaction>  (2) 
rmg_rxn_15539

>  <mol_properties>  (2) 
{"2": {"label": "acceptor", "atom_type": "Cd"}}

>  <type>  (2) 
r2

$$$$

     RDKit          3D

  6  5  0  0  0  0  0  0  0  0999 V2000
    1.2314    0.0428    0.5088 O   0  0  0  0  0  0  0  0  0  0  0  0
    0.2987    0.2341   -0.4915 N   0  0  0  0  0  0  0  0  0  0  0  0
   -0.8599   -0.1122   -0.1290 C   0  0  0  0  0  0  0  0  0  0  0  0
    2.0507    0.3401    0.1082 H   0  0  0  0  0  0  0  0  0  0  0  0
   -1.0700   -0.5112    0.8610 H   0  0  0  0  0  0  0  0  0  0  0  0
   -1.6509    0.0064   -0.8574 H   0  0  0  0  0  0  0  0  0  0  0  0
  1  2  1  0
  1  4  1  0
  2  3  2  3
  3  5  1  0
  3  6  1  0
M  END
>  <reaction>  (3) 
rmg_rxn_15539

>  <mol_properties>  (3) 
{"2": {"label": "acceptor", "atom_type": "Cd"}, "5": {"label": "a_hydrogen", "atom_type": "H0"}}

>  <type>  (3) 
r2h

$$$$

     RDKit          3D

 26 25  0  0  0  0  0  0  0  0999 V2000
   -3.9989   -1.6508   -0.6037 O   0  0  0  0  0  0  0  0  0  0  0  0
   -2.9507   -1.1957    0.2134 N   0  0  0  0  0  0  0  0  0  0  0  0
   -2.1517   -0.4353   -0.3528 C   0  0  0  0  0  3  0  0  0  0  0  0
   -4.5015   -2.2105   -0.0073 H   0  0  0  0  0  0  0  0  0  0  0  0
   -2.1436   -0.0833   -1.3831 H   0  0  0  0  0  0  0  0  0  0  0  0
    1.1288   -1.1325   -3.1610 C   0  0  0  0  0  0  0  0  0  0  0  0
    1.2077   -1.1947   -1.6697 C   0  0  0  0  0  0  0  0  0  0  0  0
    1.0863   -0.1552   -0.8576 C   0  0  0  0  0  0  0  0  0  0  0  0
    1.1652   -0.2206    0.6494 C   0  0  1  0  0  0  0  0  0  0  0  0
    2.3625    0.6014    1.0722 C   0  0  0  0  0  0  0  0  0  0  0  0
    2.2343    1.8642    1.4745 C   0  0  0  0  0  0  0  0  0  0  0  0
    0.9160    2.4730    1.6289 C   0  0  0  0  0  0  0  0  0  0  0  0
   -0.1909    1.7263    1.5732 C   0  0  0  0  0  0  0  0  0  0  0  0
   -0.1284    0.2752    1.3049 C   0  0  0  0  0  0  0  0  0  0  0  0
    0.9662   -0.1115   -3.5089 H   0  0  0  0  0  0  0  0  0  0  0  0
    2.0485   -1.5064   -3.6182 H   0  0  0  0  0  0  0  0  0  0  0  0
    0.3128   -1.7568   -3.5344 H   0  0  0  0  0  0  0  0  0  0  0  0
    1.3693   -2.1792   -1.2357 H   0  0  0  0  0  0  0  0  0  0  0  0
    0.9244    0.8389   -1.2707 H   0  0  0  0  0  0  0  0  0  0  0  0
    1.3239   -1.2640    0.9288 H   0  0  0  0  0  0  0  0  0  0  0  0
    3.3401    0.1517    0.9448 H   0  0  0  0  0  0  0  0  0  0  0  0
    3.1104    2.4586    1.7036 H   0  0  0  0  0  0  0  0  0  0  0  0
    0.8523    3.5317    1.8484 H   0  0  0  0  0  0  0  0  0  0  0  0
   -1.1623    2.1664    1.7688 H   0  0  0  0  0  0  0  0  0  0  0  0
   -1.0502   -0.0043    0.5291 H   0  0  0  0  0  0  0  0  0  0  0  0
   -0.4345   -0.3160    2.1722 H   0  0  0  0  0  0  0  0  0  0  0  0
  1  2  1  0
  1  4  1  0
  2  3  2  3
  3  5  1  0
  6  7  1  0
  6 15  1  0
  6 16  1  0
  6 17  1  0
  7  8  2  3
  7 18  1  0
  8  9  1  0
  8 19  1  0
  9 10  1  0
  9 14  1  0
  9 20  1  6
 10 11  2  0
 10 21  1  0
 11 12  1  0
 11 22  1  0
 12 13  2  0
 12 23  1  0
 13 14  1  0
 13 24  1  0
 14 25  1  0
 14 26  1  0
M  RAD  1   3   2
M  END
>  <reaction>  (4) 
rmg_rxn_15539

>  <mol_properties>  (4) 
{"1": {"label": "*4", "atom_type": "N3d"}, "2": {"label": "*3", "atom_type": "Cd"}, "8": {"label": "*0", "atom_type": "Cs"}, "13": {"label": "*1", "atom_type": "Cs"}, "24": {"label": "*2", "atom_type": "H0"}}

>  <type>  (4) 
ts

$$$$

     RDKit          3D

 26 25  0  0  0  0  0  0  0  0999 V2000
   -3.3786    1.6059   -0.4377 O   0  0  0  0  0  0  0  0  0  0  0  0
   -2.1586    1.4381    0.2452 N   0  0  0  0  0  0  0  0  0  0  0  0
   -1.1488    1.1607   -0.4299 C   0  0  0  0  0  0  0  0  0  0  0  0
   -4.0136    1.8213    0.2587 H   0  0  0  0  0  0  0  0  0  0  0  0
   -1.0988    1.0371   -1.5067 H   0  0  0  0  0  0  0  0  0  0  0  0
   -2.2620   -2.4356   -0.2345 C   0  0  0  0  0  0  0  0  0  0  0  0
   -0.8871   -1.8594   -0.2488 C   0  0  0  0  0  0  0  0  0  0  0  0
   -0.2502   -1.4221    0.8245 C   0  0  0  0  0  0  0  0  0  0  0  0
    1.1176   -0.7821    0.8214 C   0  0  0  0  0  0  0  0  0  0  0  0
    1.9413   -1.1312   -0.3787 C   0  0  0  0  0  3  0  0  0  0  0  0
    2.7513   -0.2398   -0.9820 C   0  0  0  0  0  0  0  0  0  0  0  0
    2.8351    1.1048   -0.5368 C   0  0  0  0  0  0  0  0  0  0  0  0
    2.0071    1.5431    0.4725 C   0  0  0  0  0  0  0  0  0  0  0  0
    1.0091    0.7204    1.0098 C   0  0  0  0  0  0  0  0  0  0  0  0
   -2.9300   -1.8068   -0.8230 H   0  0  0  0  0  0  0  0  0  0  0  0
   -2.2646   -3.4296   -0.6810 H   0  0  0  0  0  0  0  0  0  0  0  0
   -2.6480   -2.5009    0.7796 H   0  0  0  0  0  0  0  0  0  0  0  0
   -0.4166   -1.8008   -1.2217 H   0  0  0  0  0  0  0  0  0  0  0  0
   -0.7323   -1.4664    1.7923 H   0  0  0  0  0  0  0  0  0  0  0  0
    1.6441   -1.1864    1.7093 H   0  0  0  0  0  0  0  0  0  0  0  0
    1.9127   -2.1627   -0.6961 H   0  0  0  0  0  0  0  0  0  0  0  0
    3.3648   -0.5446   -1.8180 H   0  0  0  0  0  0  0  0  0  0  0  0
    3.5532    1.7708   -0.9871 H   0  0  0  0  0  0  0  0  0  0  0  0
    2.0454    2.5776    0.7851 H   0  0  0  0  0  0  0  0  0  0  0  0
   -0.1069    1.0059    0.2214 H   0  0  0  0  0  0  0  0  0  0  0  0
    0.5493    1.0249    1.9447 H   0  0  0  0  0  0  0  0  0  0  0  0
  1  2  1  0
  1  4  1  0
  2  3  2  3
  3  5  1  0
  3 25  1  0
  6  7  1  0
  6 15  1  0
  6 16  1  0
  6 17  1  0
  7  8  2  3
  7 18  1  0
  8  9  1  0
  8 19  1  0
  9 10  1  0
  9 14  1  0
  9 20  1  0
 10 11  1  0
 10 21  1  0
 11 12  2  0
 11 22  1  0
 12 13  1  0
 12 23  1  0
 13 14  2  0
 13 24  1  0
 14 26  1  0
M  RAD  1  10   2
M  END
>  <reaction>  (5) 
rmg_rxn_15539

>  <mol_properties>  (5) 
{"1": {"label": "*4", "atom_type": "N3d"}, "2": {"label": "*3", "atom_type": "Cd"}, "8": {"label": "*0", "atom_type": "Cs"}, "13": {"label": "*1", "atom_type": "Cs"}, "24": {"label": "*2", "atom_type": "H0"}}

>  <type>  (5) 
unop_1

>  <geom_source>  (5) 
crest_best.xyz

$$$$

     RDKit          3D

 26 25  0  0  0  0  0  0  0  0999 V2000
   -4.3348   -0.6110    0.1709 O   0  0  0  0  0  0  0  0  0  0  0  0
   -3.0664   -1.0460    0.5012 N   0  0  0  0  0  0  0  0  0  0  0  0
   -2.1770   -0.4756   -0.1896 C   0  0  0  0  0  0  0  0  0  0  0  0
   -4.9020   -1.1142    0.7583 H   0  0  0  0  0  0  0  0  0  0  0  0
   -2.4108    0.2676   -0.9490 H   0  0  0  0  0  0  0  0  0  0  0  0
    1.1839   -1.4722   -3.2821 C   0  0  0  0  0  0  0  0  0  0  0  0
    1.1839   -1.4722   -1.7870 C   0  0  0  0  0  0  0  0  0  0  0  0
    1.1839   -0.3883   -1.0246 C   0  0  0  0  0  0  0  0  0  0  0  0
    1.1966   -0.3970    0.4819 C   0  0  0  0  0  0  0  0  0  0  0  0
    2.4668    0.2709    0.9582 C   0  0  0  0  0  3  0  0  0  0  0  0
    2.4941    1.5729    1.2399 C   0  0  0  0  0  0  0  0  0  0  0  0
    1.2794    2.3836    1.1527 C   0  0  0  0  0  0  0  0  0  0  0  0
    0.0855    1.8007    1.0583 C   0  0  0  0  0  0  0  0  0  0  0  0
   -0.0351    0.3037    1.0782 C   0  0  0  0  0  0  0  0  0  0  0  0
    1.1793   -0.4565   -3.6793 H   0  0  0  0  0  0  0  0  0  0  0  0
    2.0648   -1.9881   -3.6734 H   0  0  0  0  0  0  0  0  0  0  0  0
    0.3090   -1.9974   -3.6741 H   0  0  0  0  0  0  0  0  0  0  0  0
    1.1851   -2.4484   -1.3056 H   0  0  0  0  0  0  0  0  0  0  0  0
    1.1883    0.5961   -1.4886 H   0  0  0  0  0  0  0  0  0  0  0  0
    1.1914   -1.4385    0.8114 H   0  0  0  0  0  0  0  0  0  0  0  0
    3.3736   -0.3220    0.9788 H   0  0  0  0  0  0  0  0  0  0  0  0
    3.4231    2.0554    1.5189 H   0  0  0  0  0  0  0  0  0  0  0  0
    1.3684    3.4627    1.1828 H   0  0  0  0  0  0  0  0  0  0  0  0
   -0.8191    2.3960    1.0198 H   0  0  0  0  0  0  0  0  0  0  0  0
   -1.1109   -0.0877    0.4414 H   0  0  0  0  0  0  0  0  0  0  0  0
   -0.1575   -0.0146    2.1219 H   0  0  0  0  0  0  0  0  0  0  0  0
  1  2  1  0
  1  4  1  0
  2  3  2  3
  3  5  1  0
  3 25  1  0
  6  7  1  0
  6 15  1  0
  6 16  1  0
  6 17  1  0
  7  8  2  3
  7 18  1  0
  8  9  1  0
  8 19  1  0
  9 10  1  0
  9 14  1  0
  9 20  1  0
 10 11  1  0
 10 21  1  0
 11 12  2  0
 11 22  1  0
 12 13  1  0
 12 23  1  0
 13 14  2  0
 13 24  1  0
 14 26  1  0
M  RAD  1  10   2
M  END
>  <reaction>  (6) 
rmg_rxn_15539

>  <mol_properties>  (6) 
{"1": {"label": "*4", "atom_type": "N3d"}, "2": {"label": "*3", "atom_type": "Cd"}, "8": {"label": "*0", "atom_type": "Cs"}, "13": {"label": "*1", "atom_type": "Cs"}, "24": {"label": "*2", "atom_type": "H0"}}

>  <type>  (6) 
unop_2

>  <geom_source>  (6) 
Heuristics

$$$$

     RDKit          3D

 26 25  0  0  0  0  0  0  0  0999 V2000
   -3.5985   -1.8952   -0.7407 O   0  0  0  0  0  0  0  0  0  0  0  0
   -2.3293   -1.4348   -0.4503 N   0  0  0  0  0  0  0  0  0  0  0  0
   -2.3489   -0.2664    0.0271 C   0  0  0  0  0  0  0  0  0  0  0  0
   -3.4412   -2.7750   -1.0888 H   0  0  0  0  0  0  0  0  0  0  0  0
   -3.2716    0.2892    0.1809 H   0  0  0  0  0  0  0  0  0  0  0  0
    1.0121   -1.2630   -3.0654 C   0  0  0  0  0  0  0  0  0  0  0  0
    1.0121   -1.2630   -1.5703 C   0  0  0  0  0  0  0  0  0  0  0  0
    1.0121   -0.1791   -0.8079 C   0  0  0  0  0  0  0  0  0  0  0  0
    1.0247   -0.1878    0.6987 C   0  0  0  0  0  0  0  0  0  0  0  0
    2.2950    0.4802    1.1749 C   0  0  0  0  0  3  0  0  0  0  0  0
    2.3222    1.7822    1.4566 C   0  0  0  0  0  0  0  0  0  0  0  0
    1.1075    2.5928    1.3694 C   0  0  0  0  0  0  0  0  0  0  0  0
   -0.0864    2.0099    1.2751 C   0  0  0  0  0  0  0  0  0  0  0  0
   -0.2069    0.5129    1.2949 C   0  0  0  0  0  0  0  0  0  0  0  0
    1.0074   -0.2472   -3.4626 H   0  0  0  0  0  0  0  0  0  0  0  0
    1.8929   -1.7788   -3.4567 H   0  0  0  0  0  0  0  0  0  0  0  0
    0.1371   -1.7882   -3.4574 H   0  0  0  0  0  0  0  0  0  0  0  0
    1.0133   -2.2392   -1.0889 H   0  0  0  0  0  0  0  0  0  0  0  0
    1.0164    0.8053   -1.2719 H   0  0  0  0  0  0  0  0  0  0  0  0
    1.0196   -1.2293    1.0282 H   0  0  0  0  0  0  0  0  0  0  0  0
    3.2017   -0.1127    1.1956 H   0  0  0  0  0  0  0  0  0  0  0  0
    3.2512    2.2646    1.7357 H   0  0  0  0  0  0  0  0  0  0  0  0
    1.1965    3.6719    1.3995 H   0  0  0  0  0  0  0  0  0  0  0  0
   -0.9909    2.6052    1.2366 H   0  0  0  0  0  0  0  0  0  0  0  0
   -1.2828    0.1215    0.6582 H   0  0  0  0  0  0  0  0  0  0  0  0
   -0.3293    0.1947    2.3386 H   0  0  0  0  0  0  0  0  0  0  0  0
  1  2  1  0
  1  4  1  0
  2  3  2  3
  3  5  1  0
  3 25  1  0
  6  7  1  0
  6 15  1  0
  6 16  1  0
  6 17  1  0
  7  8  2  3
  7 18  1  0
  8  9  1  0
  8 19  1  0
  9 10  1  0
  9 14  1  0
  9 20  1  0
 10 11  1  0
 10 21  1  0
 11 12  2  0
 11 22  1  0
 12 13  1  0
 12 23  1  0
 13 14  2  0
 13 24  1  0
 14 26  1  0
M  RAD  1  10   2
M  END
>  <reaction>  (7) 
rmg_rxn_15539

>  <mol_properties>  (7) 
{"1": {"label": "*4", "atom_type": "N3d"}, "2": {"label": "*3", "atom_type": "Cd"}, "8": {"label": "*0", "atom_type": "Cs"}, "13": {"label": "*1", "atom_type": "Cs"}, "24": {"label": "*2", "atom_type": "H0"}}

>  <type>  (7) 
unop_3

>  <geom_source>  (7) 
Heuristics

$$$$

     RDKit          3D

 26 25  0  0  0  0  0  0  0  0999 V2000
   -4.3308   -0.2844   -0.2581 O   0  0  0  0  0  0  0  0  0  0  0  0
   -3.2348   -0.5824    0.5273 N   0  0  0  0  0  0  0  0  0  0  0  0
   -2.1606   -0.5656   -0.1354 C   0  0  0  0  0  0  0  0  0  0  0  0
   -5.0646   -0.3311    0.3578 H   0  0  0  0  0  0  0  0  0  0  0  0
   -2.1311   -0.3397   -1.1992 H   0  0  0  0  0  0  0  0  0  0  0  0
    1.2004   -1.5623   -3.2279 C   0  0  0  0  0  0  0  0  0  0  0  0
    1.2004   -1.5623   -1.7328 C   0  0  0  0  0  0  0  0  0  0  0  0
    1.2004   -0.4783   -0.9705 C   0  0  0  0  0  0  0  0  0  0  0  0
    1.2130   -0.4870    0.5361 C   0  0  0  0  0  0  0  0  0  0  0  0
    2.4833    0.1809    1.0123 C   0  0  0  0  0  3  0  0  0  0  0  0
    2.5105    1.4829    1.2940 C   0  0  0  0  0  0  0  0  0  0  0  0
    1.2959    2.2935    1.2069 C   0  0  0  0  0  0  0  0  0  0  0  0
    0.1019    1.7107    1.1125 C   0  0  0  0  0  0  0  0  0  0  0  0
   -0.0186    0.2137    1.1323 C   0  0  0  0  0  0  0  0  0  0  0  0
    1.1958   -0.5465   -3.6251 H   0  0  0  0  0  0  0  0  0  0  0  0
    2.0813   -2.0781   -3.6193 H   0  0  0  0  0  0  0  0  0  0  0  0
    0.3255   -2.0874   -3.6199 H   0  0  0  0  0  0  0  0  0  0  0  0
    1.2016   -2.5385   -1.2515 H   0  0  0  0  0  0  0  0  0  0  0  0
    1.2048    0.5061   -1.4345 H   0  0  0  0  0  0  0  0  0  0  0  0
    1.2079   -1.5285    0.8656 H   0  0  0  0  0  0  0  0  0  0  0  0
    3.3901   -0.4120    1.0330 H   0  0  0  0  0  0  0  0  0  0  0  0
    3.4396    1.9653    1.5731 H   0  0  0  0  0  0  0  0  0  0  0  0
    1.3849    3.3726    1.2369 H   0  0  0  0  0  0  0  0  0  0  0  0
   -0.8026    2.3060    1.0740 H   0  0  0  0  0  0  0  0  0  0  0  0
   -1.0944   -0.1777    0.4956 H   0  0  0  0  0  0  0  0  0  0  0  0
   -0.1410   -0.1046    2.1761 H   0  0  0  0  0  0  0  0  0  0  0  0
  1  2  1  0
  1  4  1  0
  2  3  2  3
  3  5  1  0
  3 25  1  0
  6  7  1  0
  6 15  1  0
  6 16  1  0
  6 17  1  0
  7  8  2  3
  7 18  1  0
  8  9  1  0
  8 19  1  0
  9 10  1  0
  9 14  1  0
  9 20  1  0
 10 11  1  0
 10 21  1  0
 11 12  2  0
 11 22  1  0
 12 13  1  0
 12 23  1  0
 13 14  2  0
 13 24  1  0
 14 26  1  0
M  RAD  1  10   2
M  END
>  <reaction>  (8) 
rmg_rxn_15539

>  <mol_properties>  (8) 
{"1": {"label": "*4", "atom_type": "N3d"}, "2": {"label": "*3", "atom_type": "Cd"}, "8": {"label": "*0", "atom_type": "Cs"}, "13": {"label": "*1", "atom_type": "Cs"}, "24": {"label": "*2", "atom_type": "H0"}}

>  <type>  (8) 
unop_4

>  <geom_source>  (8) 
Heuristics

$$$$

     RDKit          3D

 26 25  0  0  0  0  0  0  0  0999 V2000
   -3.6621   -0.1396   -1.4940 O   0  0  0  0  0  0  0  0  0  0  0  0
   -2.3747   -0.3731   -1.0525 N   0  0  0  0  0  0  0  0  0  0  0  0
   -2.3359   -0.6059    0.1876 C   0  0  0  0  0  0  0  0  0  0  0  0
   -3.5493    0.0199   -2.4331 H   0  0  0  0  0  0  0  0  0  0  0  0
   -3.2275   -0.6151    0.8109 H   0  0  0  0  0  0  0  0  0  0  0  0
    1.0251   -1.6026   -2.9049 C   0  0  0  0  0  0  0  0  0  0  0  0
    1.0251   -1.6026   -1.4098 C   0  0  0  0  0  0  0  0  0  0  0  0
    1.0251   -0.5186   -0.6474 C   0  0  0  0  0  0  0  0  0  0  0  0
    1.0377   -0.5273    0.8591 C   0  0  0  0  0  0  0  0  0  0  0  0
    2.3080    0.1406    1.3354 C   0  0  0  0  0  3  0  0  0  0  0  0
    2.3352    1.4426    1.6171 C   0  0  0  0  0  0  0  0  0  0  0  0
    1.1205    2.2532    1.5299 C   0  0  0  0  0  0  0  0  0  0  0  0
   -0.0734    1.6704    1.4355 C   0  0  0  0  0  0  0  0  0  0  0  0
   -0.1939    0.1734    1.4554 C   0  0  0  0  0  0  0  0  0  0  0  0
    1.0204   -0.5868   -3.3021 H   0  0  0  0  0  0  0  0  0  0  0  0
    1.9060   -2.1184   -3.2962 H   0  0  0  0  0  0  0  0  0  0  0  0
    0.1501   -2.1277   -3.2969 H   0  0  0  0  0  0  0  0  0  0  0  0
    1.0263   -2.5788   -0.9284 H   0  0  0  0  0  0  0  0  0  0  0  0
    1.0295    0.4658   -1.1114 H   0  0  0  0  0  0  0  0  0  0  0  0
    1.0326   -1.5688    1.1886 H   0  0  0  0  0  0  0  0  0  0  0  0
    3.2147   -0.4523    1.3561 H   0  0  0  0  0  0  0  0  0  0  0  0
    3.2642    1.9250    1.8961 H   0  0  0  0  0  0  0  0  0  0  0  0
    1.2095    3.3323    1.5600 H   0  0  0  0  0  0  0  0  0  0  0  0
   -0.9779    2.2657    1.3970 H   0  0  0  0  0  0  0  0  0  0  0  0
   -1.2697   -0.2180    0.8187 H   0  0  0  0  0  0  0  0  0  0  0  0
   -0.3163   -0.1449    2.4991 H   0  0  0  0  0  0  0  0  0  0  0  0
  1  2  1  0
  1  4  1  0
  2  3  2  3
  3  5  1  0
  3 25  1  0
  6  7  1  0
  6 15  1  0
  6 16  1  0
  6 17  1  0
  7  8  2  3
  7 18  1  0
  8  9  1  0
  8 19  1  0
  9 10  1  0
  9 14  1  0
  9 20  1  0
 10 11  1  0
 10 21  1  0
 11 12  2  0
 11 22  1  0
 12 13  1  0
 12 23  1  0
 13 14  2  0
 13 24  1  0
 14 26  1  0
M  RAD  1  10   2
M  END
>  <reaction>  (9) 
rmg_rxn_15539

>  <mol_properties>  (9) 
{"1": {"label": "*4", "atom_type": "N3d"}, "2": {"label": "*3", "atom_type": "Cd"}, "8": {"label": "*0", "atom_type": "Cs"}, "13": {"label": "*1", "atom_type": "Cs"}, "24": {"label": "*2", "atom_type": "H0"}}

>  <type>  (9) 
unop_5

>  <geom_source>  (9) 
Heuristics

$$$$

     RDKit          3D

 26 25  0  0  0  0  0  0  0  0999 V2000
   -4.3231   -0.5604   -0.4387 O   0  0  0  0  0  0  0  0  0  0  0  0
   -3.2551   -0.0834    0.2955 N   0  0  0  0  0  0  0  0  0  0  0  0
   -2.1595   -0.5795   -0.0881 C   0  0  0  0  0  0  0  0  0  0  0  0
   -5.0770   -0.1118   -0.0509 H   0  0  0  0  0  0  0  0  0  0  0  0
   -2.0938   -1.2963   -0.9038 H   0  0  0  0  0  0  0  0  0  0  0  0
    1.2015   -1.5761   -3.1806 C   0  0  0  0  0  0  0  0  0  0  0  0
    1.2015   -1.5761   -1.6855 C   0  0  0  0  0  0  0  0  0  0  0  0
    1.2015   -0.4922   -0.9232 C   0  0  0  0  0  0  0  0  0  0  0  0
    1.2141   -0.5009    0.5834 C   0  0  0  0  0  0  0  0  0  0  0  0
    2.4843    0.1671    1.0597 C   0  0  0  0  0  3  0  0  0  0  0  0
    2.5116    1.4691    1.3413 C   0  0  0  0  0  0  0  0  0  0  0  0
    1.2969    2.2797    1.2542 C   0  0  0  0  0  0  0  0  0  0  0  0
    0.1030    1.6968    1.1598 C   0  0  0  0  0  0  0  0  0  0  0  0
   -0.0176    0.1998    1.1796 C   0  0  0  0  0  0  0  0  0  0  0  0
    1.1968   -0.5603   -3.5778 H   0  0  0  0  0  0  0  0  0  0  0  0
    2.0823   -2.0919   -3.5720 H   0  0  0  0  0  0  0  0  0  0  0  0
    0.3265   -2.1013   -3.5726 H   0  0  0  0  0  0  0  0  0  0  0  0
    1.2026   -2.5523   -1.2042 H   0  0  0  0  0  0  0  0  0  0  0  0
    1.2058    0.4922   -1.3872 H   0  0  0  0  0  0  0  0  0  0  0  0
    1.2089   -1.5424    0.9129 H   0  0  0  0  0  0  0  0  0  0  0  0
    3.3911   -0.4258    1.0803 H   0  0  0  0  0  0  0  0  0  0  0  0
    3.4406    1.9515    1.6204 H   0  0  0  0  0  0  0  0  0  0  0  0
    1.3859    3.3588    1.2842 H   0  0  0  0  0  0  0  0  0  0  0  0
   -0.8016    2.2921    1.1213 H   0  0  0  0  0  0  0  0  0  0  0  0
   -1.0934   -0.1916    0.5429 H   0  0  0  0  0  0  0  0  0  0  0  0
   -0.1400   -0.1184    2.2234 H   0  0  0  0  0  0  0  0  0  0  0  0
  1  2  1  0
  1  4  1  0
  2  3  2  3
  3  5  1  0
  3 25  1  0
  6  7  1  0
  6 15  1  0
  6 16  1  0
  6 17  1  0
  7  8  2  3
  7 18  1  0
  8  9  1  0
  8 19  1  0
  9 10  1  0
  9 14  1  0
  9 20  1  0
 10 11  1  0
 10 21  1  0
 11 12  2  0
 11 22  1  0
 12 13  1  0
 12 23  1  0
 13 14  2  0
 13 24  1  0
 14 26  1  0
M  RAD  1  10   2
M  END
>  <reaction>  (10) 
rmg_rxn_15539

>  <mol_properties>  (10) 
{"1": {"label": "*4", "atom_type": "N3d"}, "2": {"label": "*3", "atom_type": "Cd"}, "8": {"label": "*0", "atom_type": "Cs"}, "13": {"label": "*1", "atom_type": "Cs"}, "24": {"label": "*2", "atom_type": "H0"}}

>  <type>  (10) 
unop_6

>  <geom_source>  (10) 
Heuristics

$$$$

     RDKit          3D

 26 25  0  0  0  0  0  0  0  0999 V2000
   -3.3824    1.6027   -0.4353 O   0  0  0  0  0  0  0  0  0  0  0  0
   -2.1608    1.4355    0.2447 N   0  0  0  0  0  0  0  0  0  0  0  0
   -1.1520    1.1601   -0.4327 C   0  0  0  0  0  0  0  0  0  0  0  0
   -4.0161    1.8163    0.2629 H   0  0  0  0  0  0  0  0  0  0  0  0
   -1.1038    1.0378   -1.5097 H   0  0  0  0  0  0  0  0  0  0  0  0
   -2.2576   -2.4387   -0.2366 C   0  0  0  0  0  0  0  0  0  0  0  0
   -0.8836   -1.8603   -0.2491 C   0  0  0  0  0  0  0  0  0  0  0  0
   -0.2491   -1.4212    0.8248 C   0  0  0  0  0  0  0  0  0  0  0  0
    1.1177   -0.7792    0.8231 C   0  0  0  0  0  0  0  0  0  0  0  0
    1.9445   -1.1308   -0.3741 C   0  0  0  0  0  3  0  0  0  0  0  0
    2.7544   -0.2400   -0.9785 C   0  0  0  0  0  0  0  0  0  0  0  0
    2.8350    1.1062   -0.5375 C   0  0  0  0  0  0  0  0  0  0  0  0
    2.0044    1.5463    0.4688 C   0  0  0  0  0  0  0  0  0  0  0  0
    1.0068    0.7237    1.0070 C   0  0  0  0  0  0  0  0  0  0  0  0
   -2.2581   -3.4328   -0.6827 H   0  0  0  0  0  0  0  0  0  0  0  0
   -2.6450   -2.5043    0.7770 H   0  0  0  0  0  0  0  0  0  0  0  0
   -2.9259   -1.8112   -0.8261 H   0  0  0  0  0  0  0  0  0  0  0  0
   -0.4116   -1.8016   -1.2213 H   0  0  0  0  0  0  0  0  0  0  0  0
   -0.7328   -1.4654    1.7919 H   0  0  0  0  0  0  0  0  0  0  0  0
    1.6427   -1.1802    1.7133 H   0  0  0  0  0  0  0  0  0  0  0  0
    1.9182   -2.1633   -0.6883 H   0  0  0  0  0  0  0  0  0  0  0  0
    3.3703   -0.5465   -1.8122 H   0  0  0  0  0  0  0  0  0  0  0  0
    3.5528    1.7720   -0.9886 H   0  0  0  0  0  0  0  0  0  0  0  0
    2.0403    2.5819    0.7781 H   0  0  0  0  0  0  0  0  0  0  0  0
   -0.1090    1.0061    0.2172 H   0  0  0  0  0  0  0  0  0  0  0  0
    0.5454    1.0301    1.9405 H   0  0  0  0  0  0  0  0  0  0  0  0
  1  2  1  0
  1  4  1  0
  2  3  2  3
  3  5  1  0
  3 25  1  0
  6  7  1  0
  6 15  1  0
  6 16  1  0
  6 17  1  0
  7  8  2  3
  7 18  1  0
  8  9  1  0
  8 19  1  0
  9 10  1  0
  9 14  1  0
  9 20  1  0
 10 11  1  0
 10 21  1  0
 11 12  2  0
 11 22  1  0
 12 13  1  0
 12 23  1  0
 13 14  2  0
 13 24  1  0
 14 26  1  0
M  RAD  1  10   2
M  END
>  <reaction>  (11) 
rmg_rxn_15539

>  <mol_properties>  (11) 
{"1": {"label": "*4", "atom_type": "N3d"}, "2": {"label": "*3", "atom_type": "Cd"}, "8": {"label": "*0", "atom_type": "Cs"}, "13": {"label": "*1", "atom_type": "Cs"}, "24": {"label": "*2", "atom_type": "H0"}}

>  <type>  (11) 
unop_7

>  <geom_source>  (11) 
Heuristics

$$$$

     RDKit          3D

 26 25  0  0  0  0  0  0  0  0999 V2000
   -3.9755    0.1783   -0.9703 O   0  0  0  0  0  0  0  0  0  0  0  0
   -2.6084   -0.0063   -0.9059 N   0  0  0  0  0  0  0  0  0  0  0  0
   -2.2708   -0.6850    0.1035 C   0  0  0  0  0  0  0  0  0  0  0  0
   -4.0919    0.6987   -1.7676 H   0  0  0  0  0  0  0  0  0  0  0  0
   -2.9931   -1.0670    0.8219 H   0  0  0  0  0  0  0  0  0  0  0  0
    1.0901   -1.6817   -2.9890 C   0  0  0  0  0  0  0  0  0  0  0  0
    1.0901   -1.6817   -1.4939 C   0  0  0  0  0  0  0  0  0  0  0  0
    1.0901   -0.5977   -0.7315 C   0  0  0  0  0  0  0  0  0  0  0  0
    1.1028   -0.6064    0.7750 C   0  0  0  0  0  0  0  0  0  0  0  0
    2.3730    0.0615    1.2513 C   0  0  0  0  0  3  0  0  0  0  0  0
    2.4003    1.3635    1.5330 C   0  0  0  0  0  0  0  0  0  0  0  0
    1.1856    2.1741    1.4458 C   0  0  0  0  0  0  0  0  0  0  0  0
   -0.0083    1.5913    1.3514 C   0  0  0  0  0  0  0  0  0  0  0  0
   -0.1289    0.0942    1.3713 C   0  0  0  0  0  0  0  0  0  0  0  0
    1.0855   -0.6659   -3.3862 H   0  0  0  0  0  0  0  0  0  0  0  0
    1.9710   -2.1975   -3.3803 H   0  0  0  0  0  0  0  0  0  0  0  0
    0.2152   -2.2069   -3.3810 H   0  0  0  0  0  0  0  0  0  0  0  0
    1.0913   -2.6579   -1.0125 H   0  0  0  0  0  0  0  0  0  0  0  0
    1.0945    0.3867   -1.1955 H   0  0  0  0  0  0  0  0  0  0  0  0
    1.0976   -1.6480    1.1045 H   0  0  0  0  0  0  0  0  0  0  0  0
    3.2798   -0.5314    1.2719 H   0  0  0  0  0  0  0  0  0  0  0  0
    3.3293    1.8459    1.8120 H   0  0  0  0  0  0  0  0  0  0  0  0
    1.2746    3.2532    1.4759 H   0  0  0  0  0  0  0  0  0  0  0  0
   -0.9129    2.1866    1.3129 H   0  0  0  0  0  0  0  0  0  0  0  0
   -1.2047   -0.2971    0.7345 H   0  0  0  0  0  0  0  0  0  0  0  0
   -0.2513   -0.2240    2.4150 H   0  0  0  0  0  0  0  0  0  0  0  0
  1  2  1  0
  1  4  1  0
  2  3  2  3
  3  5  1  0
  3 25  1  0
  6  7  1  0
  6 15  1  0
  6 16  1  0
  6 17  1  0
  7  8  2  3
  7 18  1  0
  8  9  1  0
  8 19  1  0
  9 10  1  0
  9 14  1  0
  9 20  1  0
 10 11  1  0
 10 21  1  0
 11 12  2  0
 11 22  1  0
 12 13  1  0
 12 23  1  0
 13 14  2  0
 13 24  1  0
 14 26  1  0
M  RAD  1  10   2
M  END
>  <reaction>  (12) 
rmg_rxn_15539

>  <mol_properties>  (12) 
{"1": {"label": "*4", "atom_type": "N3d"}, "2": {"label": "*3", "atom_type": "Cd"}, "8": {"label": "*0", "atom_type": "Cs"}, "13": {"label": "*1", "atom_type": "Cs"}, "24": {"label": "*2", "atom_type": "H0"}}

>  <type>  (12) 
unop_8

>  <geom_source>  (12) 
Heuristics

$$$$

     RDKit          3D

 26 25  0  0  0  0  0  0  0  0999 V2000
   -3.3812    1.6054   -0.4362 O   0  0  0  0  0  0  0  0  0  0  0  0
   -2.1598    1.4383    0.2443 N   0  0  0  0  0  0  0  0  0  0  0  0
   -1.1513    1.1600   -0.4325 C   0  0  0  0  0  0  0  0  0  0  0  0
   -4.0147    1.8215    0.2613 H   0  0  0  0  0  0  0  0  0  0  0  0
   -1.1035    1.0344   -1.5091 H   0  0  0  0  0  0  0  0  0  0  0  0
   -2.2583   -2.4409   -0.2352 C   0  0  0  0  0  0  0  0  0  0  0  0
   -0.8841   -1.8629   -0.2486 C   0  0  0  0  0  0  0  0  0  0  0  0
   -0.2503   -1.4205    0.8244 C   0  0  0  0  0  0  0  0  0  0  0  0
    1.1170   -0.7794    0.8225 C   0  0  0  0  0  0  0  0  0  0  0  0
    1.9432   -1.1307   -0.3752 C   0  0  0  0  0  3  0  0  0  0  0  0
    2.7537   -0.2401   -0.9790 C   0  0  0  0  0  0  0  0  0  0  0  0
    2.8355    1.1056   -0.5370 C   0  0  0  0  0  0  0  0  0  0  0  0
    2.0053    1.5457    0.4697 C   0  0  0  0  0  0  0  0  0  0  0  0
    1.0072    0.7235    1.0074 C   0  0  0  0  0  0  0  0  0  0  0  0
   -2.6463   -2.5033    0.7785 H   0  0  0  0  0  0  0  0  0  0  0  0
   -2.9262   -1.8152   -0.8270 H   0  0  0  0  0  0  0  0  0  0  0  0
   -2.2586   -3.4364   -0.6781 H   0  0  0  0  0  0  0  0  0  0  0  0
   -0.4116   -1.8075   -1.2207 H   0  0  0  0  0  0  0  0  0  0  0  0
   -0.7349   -1.4614    1.7912 H   0  0  0  0  0  0  0  0  0  0  0  0
    1.6418   -1.1815    1.7123 H   0  0  0  0  0  0  0  0  0  0  0  0
    1.9164   -2.1631   -0.6899 H   0  0  0  0  0  0  0  0  0  0  0  0
    3.3695   -0.5466   -1.8128 H   0  0  0  0  0  0  0  0  0  0  0  0
    3.5539    1.7712   -0.9876 H   0  0  0  0  0  0  0  0  0  0  0  0
    2.0421    2.5810    0.7798 H   0  0  0  0  0  0  0  0  0  0  0  0
   -0.1084    1.0067    0.2176 H   0  0  0  0  0  0  0  0  0  0  0  0
    0.5460    1.0296    1.9411 H   0  0  0  0  0  0  0  0  0  0  0  0
  1  2  1  0
  1  4  1  0
  2  3  2  3
  3  5  1  0
  3 25  1  0
  6  7  1  0
  6 15  1  0
  6 16  1  0
  6 17  1  0
  7  8  2  3
  7 18  1  0
  8  9  1  0
  8 19  1  0
  9 10  1  0
  9 14  1  0
  9 20  1  0
 10 11  1  0
 10 21  1  0
 11 12  2  0
 11 22  1  0
 12 13  1  0
 12 23  1  0
 13 14  2  0
 13 24  1  0
 14 26  1  0
M  RAD  1  10   2
M  END
>  <reaction>  (13) 
rmg_rxn_15539

>  <mol_properties>  (13) 
{"1": {"label": "*4", "atom_type": "N3d"}, "2": {"label": "*3", "atom_type": "Cd"}, "8": {"label": "*0", "atom_type": "Cs"}, "13": {"label": "*1", "atom_type": "Cs"}, "24": {"label": "*2", "atom_type": "H0"}}

>  <type>  (13) 
unop_9

>  <geom_source>  (13) 
Heuristics

$$$$

     RDKit          3D

 26 25  0  0  0  0  0  0  0  0999 V2000
   -4.2370    0.0438   -0.3967 O   0  0  0  0  0  0  0  0  0  0  0  0
   -2.8792    0.2087   -0.5864 N   0  0  0  0  0  0  0  0  0  0  0  0
   -2.2089   -0.6889   -0.0046 C   0  0  0  0  0  0  0  0  0  0  0  0
   -4.6197    0.7777   -0.8816 H   0  0  0  0  0  0  0  0  0  0  0  0
   -2.6726   -1.4867    0.5717 H   0  0  0  0  0  0  0  0  0  0  0  0
    1.1521   -1.6856   -3.0971 C   0  0  0  0  0  0  0  0  0  0  0  0
    1.1521   -1.6856   -1.6020 C   0  0  0  0  0  0  0  0  0  0  0  0
    1.1521   -0.6016   -0.8397 C   0  0  0  0  0  0  0  0  0  0  0  0
    1.1647   -0.6103    0.6669 C   0  0  0  0  0  0  0  0  0  0  0  0
    2.4350    0.0576    1.1431 C   0  0  0  0  0  3  0  0  0  0  0  0
    2.4622    1.3596    1.4248 C   0  0  0  0  0  0  0  0  0  0  0  0
    1.2475    2.1702    1.3377 C   0  0  0  0  0  0  0  0  0  0  0  0
    0.0536    1.5874    1.2433 C   0  0  0  0  0  0  0  0  0  0  0  0
   -0.0669    0.0903    1.2631 C   0  0  0  0  0  0  0  0  0  0  0  0
    1.1474   -0.6698   -3.4943 H   0  0  0  0  0  0  0  0  0  0  0  0
    2.0330   -2.2014   -3.4885 H   0  0  0  0  0  0  0  0  0  0  0  0
    0.2772   -2.2108   -3.4891 H   0  0  0  0  0  0  0  0  0  0  0  0
    1.1533   -2.6618   -1.1207 H   0  0  0  0  0  0  0  0  0  0  0  0
    1.1565    0.3828   -1.3037 H   0  0  0  0  0  0  0  0  0  0  0  0
    1.1596   -1.6519    0.9964 H   0  0  0  0  0  0  0  0  0  0  0  0
    3.3418   -0.5353    1.1638 H   0  0  0  0  0  0  0  0  0  0  0  0
    3.3913    1.8420    1.7039 H   0  0  0  0  0  0  0  0  0  0  0  0
    1.3366    3.2493    1.3677 H   0  0  0  0  0  0  0  0  0  0  0  0
   -0.8509    2.1827    1.2048 H   0  0  0  0  0  0  0  0  0  0  0  0
   -1.1427   -0.3011    0.6264 H   0  0  0  0  0  0  0  0  0  0  0  0
   -0.1893   -0.2279    2.3069 H   0  0  0  0  0  0  0  0  0  0  0  0
  1  2  1  0
  1  4  1  0
  2  3  2  3
  3  5  1  0
  3 25  1  0
  6  7  1  0
  6 15  1  0
  6 16  1  0
  6 17  1  0
  7  8  2  3
  7 18  1  0
  8  9  1  0
  8 19  1  0
  9 10  1  0
  9 14  1  0
  9 20  1  0
 10 11  1  0
 10 21  1  0
 11 12  2  0
 11 22  1  0
 12 13  1  0
 12 23  1  0
 13 14  2  0
 13 24  1  0
 14 26  1  0
M  RAD  1  10   2
M  END
>  <reaction>  (14) 
rmg_rxn_15539

>  <mol_properties>  (14) 
{"1": {"label": "*4", "atom_type": "N3d"}, "2": {"label": "*3", "atom_type": "Cd"}, "8": {"label": "*0", "atom_type": "Cs"}, "13": {"label": "*1", "atom_type": "Cs"}, "24": {"label": "*2", "atom_type": "H0"}}

>  <type>  (14) 
unop_10

>  <geom_source>  (14) 
Heuristics

$$$$

     RDKit          3D

 26 25  0  0  0  0  0  0  0  0999 V2000
   -4.1861   -1.2328    0.2529 O   0  0  0  0  0  0  0  0  0  0  0  0
   -2.8129   -1.3763    0.2818 N   0  0  0  0  0  0  0  0  0  0  0  0
   -2.2223   -0.3599   -0.1783 C   0  0  0  0  0  0  0  0  0  0  0  0
   -4.5034   -2.0589    0.6228 H   0  0  0  0  0  0  0  0  0  0  0  0
   -2.7574    0.5125   -0.5473 H   0  0  0  0  0  0  0  0  0  0  0  0
    1.1387   -1.3566   -3.2708 C   0  0  0  0  0  0  0  0  0  0  0  0
    1.1387   -1.3566   -1.7757 C   0  0  0  0  0  0  0  0  0  0  0  0
    1.1387   -0.2726   -1.0133 C   0  0  0  0  0  0  0  0  0  0  0  0
    1.1513   -0.2813    0.4932 C   0  0  0  0  0  0  0  0  0  0  0  0
    2.4216    0.3866    0.9695 C   0  0  0  0  0  3  0  0  0  0  0  0
    2.4488    1.6886    1.2512 C   0  0  0  0  0  0  0  0  0  0  0  0
    1.2341    2.4992    1.1640 C   0  0  0  0  0  0  0  0  0  0  0  0
    0.0402    1.9164    1.0696 C   0  0  0  0  0  0  0  0  0  0  0  0
   -0.0803    0.4193    1.0895 C   0  0  0  0  0  0  0  0  0  0  0  0
    1.1340   -0.3408   -3.6680 H   0  0  0  0  0  0  0  0  0  0  0  0
    2.0195   -1.8724   -3.6621 H   0  0  0  0  0  0  0  0  0  0  0  0
    0.2637   -1.8818   -3.6628 H   0  0  0  0  0  0  0  0  0  0  0  0
    1.1399   -2.3328   -1.2943 H   0  0  0  0  0  0  0  0  0  0  0  0
    1.1430    0.7118   -1.4773 H   0  0  0  0  0  0  0  0  0  0  0  0
    1.1462   -1.3229    0.8227 H   0  0  0  0  0  0  0  0  0  0  0  0
    3.3283   -0.2063    0.9901 H   0  0  0  0  0  0  0  0  0  0  0  0
    3.3778    2.1710    1.5302 H   0  0  0  0  0  0  0  0  0  0  0  0
    1.3231    3.5783    1.1941 H   0  0  0  0  0  0  0  0  0  0  0  0
   -0.8643    2.5117    1.0311 H   0  0  0  0  0  0  0  0  0  0  0  0
   -1.1562    0.0280    0.4527 H   0  0  0  0  0  0  0  0  0  0  0  0
   -0.2027    0.1011    2.1332 H   0  0  0  0  0  0  0  0  0  0  0  0
  1  2  1  0
  1  4  1  0
  2  3  2  3
  3  5  1  0
  3 25  1  0
  6  7  1  0
  6 15  1  0
  6 16  1  0
  6 17  1  0
  7  8  2  3
  7 18  1  0
  8  9  1  0
  8 19  1  0
  9 10  1  0
  9 14  1  0
  9 20  1  0
 10 11  1  0
 10 21  1  0
 11 12  2  0
 11 22  1  0
 12 13  1  0
 12 23  1  0
 13 14  2  0
 13 24  1  0
 14 26  1  0
M  RAD  1  10   2
M  END
>  <reaction>  (15) 
rmg_rxn_15539

>  <mol_properties>  (15) 
{"1": {"label": "*4", "atom_type": "N3d"}, "2": {"label": "*3", "atom_type": "Cd"}, "8": {"label": "*0", "atom_type": "Cs"}, "13": {"label": "*1", "atom_type": "Cs"}, "24": {"label": "*2", "atom_type": "H0"}}

>  <type>  (15) 
unop_11

>  <geom_source>  (15) 
Heuristics

$$$$

     RDKit          3D

 26 25  0  0  0  0  0  0  0  0999 V2000
   -3.3786    1.6059   -0.4377 O   0  0  0  0  0  0  0  0  0  0  0  0
   -2.1586    1.4381    0.2452 N   0  0  0  0  0  0  0  0  0  0  0  0
   -1.1488    1.1607   -0.4299 C   0  0  0  0  0  0  0  0  0  0  0  0
   -4.0136    1.8213    0.2587 H   0  0  0  0  0  0  0  0  0  0  0  0
   -1.0988    1.0371   -1.5067 H   0  0  0  0  0  0  0  0  0  0  0  0
   -2.2620   -2.4356   -0.2345 C   0  0  0  0  0  0  0  0  0  0  0  0
   -0.8871   -1.8594   -0.2488 C   0  0  0  0  0  0  0  0  0  0  0  0
   -0.2502   -1.4221    0.8245 C   0  0  0  0  0  0  0  0  0  0  0  0
    1.1176   -0.7821    0.8214 C   0  0  0  0  0  0  0  0  0  0  0  0
    1.9413   -1.1312   -0.3787 C   0  0  0  0  0  3  0  0  0  0  0  0
    2.7513   -0.2398   -0.9820 C   0  0  0  0  0  0  0  0  0  0  0  0
    2.8351    1.1048   -0.5368 C   0  0  0  0  0  0  0  0  0  0  0  0
    2.0071    1.5431    0.4725 C   0  0  0  0  0  0  0  0  0  0  0  0
    1.0091    0.7204    1.0098 C   0  0  0  0  0  0  0  0  0  0  0  0
   -2.9300   -1.8068   -0.8230 H   0  0  0  0  0  0  0  0  0  0  0  0
   -2.2646   -3.4296   -0.6810 H   0  0  0  0  0  0  0  0  0  0  0  0
   -2.6480   -2.5009    0.7796 H   0  0  0  0  0  0  0  0  0  0  0  0
   -0.4166   -1.8008   -1.2217 H   0  0  0  0  0  0  0  0  0  0  0  0
   -0.7323   -1.4664    1.7923 H   0  0  0  0  0  0  0  0  0  0  0  0
    1.6441   -1.1864    1.7093 H   0  0  0  0  0  0  0  0  0  0  0  0
    1.9127   -2.1627   -0.6961 H   0  0  0  0  0  0  0  0  0  0  0  0
    3.3648   -0.5446   -1.8180 H   0  0  0  0  0  0  0  0  0  0  0  0
    3.5532    1.7708   -0.9871 H   0  0  0  0  0  0  0  0  0  0  0  0
    2.0454    2.5776    0.7851 H   0  0  0  0  0  0  0  0  0  0  0  0
   -0.1069    1.0059    0.2214 H   0  0  0  0  0  0  0  0  0  0  0  0
    0.5493    1.0249    1.9447 H   0  0  0  0  0  0  0  0  0  0  0  0
  1  2  1  0
  1  4  1  0
  2  3  2  3
  3  5  1  0
  3 25  1  0
  6  7  1  0
  6 15  1  0
  6 16  1  0
  6 17  1  0
  7  8  2  3
  7 18  1  0
  8  9  1  0
  8 19  1  0
  9 10  1  0
  9 14  1  0
  9 20  1  0
 10 11  1  0
 10 21  1  0
 11 12  2  0
 11 22  1  0
 12 13  1  0
 12 23  1  0
 13 14  2  0
 13 24  1  0
 14 26  1  0
M  RAD  1  10   2
M  END
>  <reaction>  (16) 
rmg_rxn_15539

>  <mol_properties>  (16) 
{"1": {"label": "*4", "atom_type": "N3d"}, "2": {"label": "*3", "atom_type": "Cd"}, "8": {"label": "*0", "atom_type": "Cs"}, "13": {"label": "*1", "atom_type": "Cs"}, "24": {"label": "*2", "atom_type": "H0"}}

>  <type>  (16) 
unop_12

>  <geom_source>  (16) 
Heuristics

$$$$

     RDKit          3D

 26 25  0  0  0  0  0  0  0  0999 V2000
   -3.4361   -0.8073   -1.6838 O   0  0  0  0  0  0  0  0  0  0  0  0
   -2.2340   -0.7957   -1.0042 N   0  0  0  0  0  0  0  0  0  0  0  0
   -2.3800   -0.4749    0.2079 C   0  0  0  0  0  0  0  0  0  0  0  0
   -3.1854   -1.0617   -2.5740 H   0  0  0  0  0  0  0  0  0  0  0  0
   -3.3506   -0.2402    0.6397 H   0  0  0  0  0  0  0  0  0  0  0  0
    0.9810   -1.4715   -2.8846 C   0  0  0  0  0  0  0  0  0  0  0  0
    0.9810   -1.4715   -1.3895 C   0  0  0  0  0  0  0  0  0  0  0  0
    0.9810   -0.3876   -0.6272 C   0  0  0  0  0  0  0  0  0  0  0  0
    0.9936   -0.3963    0.8794 C   0  0  0  0  0  0  0  0  0  0  0  0
    2.2638    0.2716    1.3557 C   0  0  0  0  0  3  0  0  0  0  0  0
    2.2911    1.5737    1.6373 C   0  0  0  0  0  0  0  0  0  0  0  0
    1.0764    2.3843    1.5502 C   0  0  0  0  0  0  0  0  0  0  0  0
   -0.1175    1.8014    1.4558 C   0  0  0  0  0  0  0  0  0  0  0  0
   -0.2381    0.3044    1.4757 C   0  0  0  0  0  0  0  0  0  0  0  0
    0.9763   -0.4558   -3.2818 H   0  0  0  0  0  0  0  0  0  0  0  0
    1.8618   -1.9874   -3.2760 H   0  0  0  0  0  0  0  0  0  0  0  0
    0.1060   -1.9967   -3.2766 H   0  0  0  0  0  0  0  0  0  0  0  0
    0.9821   -2.4477   -0.9082 H   0  0  0  0  0  0  0  0  0  0  0  0
    0.9853    0.5968   -1.0912 H   0  0  0  0  0  0  0  0  0  0  0  0
    0.9885   -1.4378    1.2089 H   0  0  0  0  0  0  0  0  0  0  0  0
    3.1706   -0.3213    1.3763 H   0  0  0  0  0  0  0  0  0  0  0  0
    3.2201    2.0561    1.9164 H   0  0  0  0  0  0  0  0  0  0  0  0
    1.1654    3.4634    1.5802 H   0  0  0  0  0  0  0  0  0  0  0  0
   -1.0221    2.3967    1.4173 H   0  0  0  0  0  0  0  0  0  0  0  0
   -1.3139   -0.0870    0.8389 H   0  0  0  0  0  0  0  0  0  0  0  0
   -0.3605   -0.0139    2.5194 H   0  0  0  0  0  0  0  0  0  0  0  0
  1  2  1  0
  1  4  1  0
  2  3  2  3
  3  5  1  0
  3 25  1  0
  6  7  1  0
  6 15  1  0
  6 16  1  0
  6 17  1  0
  7  8  2  3
  7 18  1  0
  8  9  1  0
  8 19  1  0
  9 10  1  0
  9 14  1  0
  9 20  1  0
 10 11  1  0
 10 21  1  0
 11 12  2  0
 11 22  1  0
 12 13  1  0
 12 23  1  0
 13 14  2  0
 13 24  1  0
 14 26  1  0
M  RAD  1  10   2
M  END
>  <reaction>  (17) 
rmg_rxn_15539

>  <mol_properties>  (17) 
{"1": {"label": "*4", "atom_type": "N3d"}, "2": {"label": "*3", "atom_type": "Cd"}, "8": {"label": "*0", "atom_type": "Cs"}, "13": {"label": "*1", "atom_type": "Cs"}, "24": {"label": "*2", "atom_type": "H0"}}

>  <type>  (17) 
unop_13

>  <geom_source>  (17) 
Heuristics

$$$$

     RDKit          3D

 26 25  0  0  0  0  0  0  0  0999 V2000
   -3.9035   -1.7568   -0.0921 O   0  0  0  0  0  0  0  0  0  0  0  0
   -2.5447   -1.5121   -0.0651 N   0  0  0  0  0  0  0  0  0  0  0  0
   -2.2868   -0.2769   -0.0976 C   0  0  0  0  0  0  0  0  0  0  0  0
   -3.9573   -2.7141   -0.0632 H   0  0  0  0  0  0  0  0  0  0  0  0
   -3.0635    0.4836   -0.1415 H   0  0  0  0  0  0  0  0  0  0  0  0
    1.0742   -1.2735   -3.1901 C   0  0  0  0  0  0  0  0  0  0  0  0
    1.0742   -1.2735   -1.6950 C   0  0  0  0  0  0  0  0  0  0  0  0
    1.0742   -0.1896   -0.9327 C   0  0  0  0  0  0  0  0  0  0  0  0
    1.0868   -0.1983    0.5739 C   0  0  0  0  0  0  0  0  0  0  0  0
    2.3571    0.4697    1.0502 C   0  0  0  0  0  3  0  0  0  0  0  0
    2.3843    1.7717    1.3318 C   0  0  0  0  0  0  0  0  0  0  0  0
    1.1696    2.5823    1.2447 C   0  0  0  0  0  0  0  0  0  0  0  0
   -0.0243    1.9994    1.1503 C   0  0  0  0  0  0  0  0  0  0  0  0
   -0.1448    0.5024    1.1702 C   0  0  0  0  0  0  0  0  0  0  0  0
    1.0695   -0.2577   -3.5873 H   0  0  0  0  0  0  0  0  0  0  0  0
    1.9551   -1.7893   -3.5814 H   0  0  0  0  0  0  0  0  0  0  0  0
    0.1992   -1.7987   -3.5821 H   0  0  0  0  0  0  0  0  0  0  0  0
    1.0754   -2.2497   -1.2136 H   0  0  0  0  0  0  0  0  0  0  0  0
    1.0786    0.7948   -1.3966 H   0  0  0  0  0  0  0  0  0  0  0  0
    1.0817   -1.2398    0.9034 H   0  0  0  0  0  0  0  0  0  0  0  0
    3.2638   -0.1232    1.0708 H   0  0  0  0  0  0  0  0  0  0  0  0
    3.3133    2.2541    1.6109 H   0  0  0  0  0  0  0  0  0  0  0  0
    1.2587    3.6614    1.2748 H   0  0  0  0  0  0  0  0  0  0  0  0
   -0.9288    2.5947    1.1118 H   0  0  0  0  0  0  0  0  0  0  0  0
   -1.2206    0.1110    0.5334 H   0  0  0  0  0  0  0  0  0  0  0  0
   -0.2672    0.1842    2.2139 H   0  0  0  0  0  0  0  0  0  0  0  0
  1  2  1  0
  1  4  1  0
  2  3  2  3
  3  5  1  0
  3 25  1  0
  6  7  1  0
  6 15  1  0
  6 16  1  0
  6 17  1  0
  7  8  2  3
  7 18  1  0
  8  9  1  0
  8 19  1  0
  9 10  1  0
  9 14  1  0
  9 20  1  0
 10 11  1  0
 10 21  1  0
 11 12  2  0
 11 22  1  0
 12 13  1  0
 12 23  1  0
 13 14  2  0
 13 24  1  0
 14 26  1  0
M  RAD  1  10   2
M  END
>  <reaction>  (18) 
rmg_rxn_15539

>  <mol_properties>  (18) 
{"1": {"label": "*4", "atom_type": "N3d"}, "2": {"label": "*3", "atom_type": "Cd"}, "8": {"label": "*0", "atom_type": "Cs"}, "13": {"label": "*1", "atom_type": "Cs"}, "24": {"label": "*2", "atom_type": "H0"}}

>  <type>  (18) 
unop_14

>  <geom_source>  (18) 
Heuristics

$$$$

     RDKit          3D

 26 25  0  0  0  0  0  0  0  0999 V2000
   -4.3507   -0.4178   -0.1424 O   0  0  0  0  0  0  0  0  0  0  0  0
   -3.1175    0.2035   -0.1539 N   0  0  0  0  0  0  0  0  0  0  0  0
   -2.1698   -0.6273   -0.0820 C   0  0  0  0  0  0  0  0  0  0  0  0
   -4.9684    0.3137   -0.2010 H   0  0  0  0  0  0  0  0  0  0  0  0
   -2.3342   -1.7009   -0.0193 H   0  0  0  0  0  0  0  0  0  0  0  0
    1.1912   -1.6240   -3.1745 C   0  0  0  0  0  0  0  0  0  0  0  0
    1.1912   -1.6240   -1.6794 C   0  0  0  0  0  0  0  0  0  0  0  0
    1.1912   -0.5400   -0.9170 C   0  0  0  0  0  0  0  0  0  0  0  0
    1.2038   -0.5487    0.5895 C   0  0  0  0  0  0  0  0  0  0  0  0
    2.4741    0.1192    1.0658 C   0  0  0  0  0  3  0  0  0  0  0  0
    2.5013    1.4212    1.3475 C   0  0  0  0  0  0  0  0  0  0  0  0
    1.2867    2.2318    1.2603 C   0  0  0  0  0  0  0  0  0  0  0  0
    0.0927    1.6490    1.1659 C   0  0  0  0  0  0  0  0  0  0  0  0
   -0.0278    0.1520    1.1858 C   0  0  0  0  0  0  0  0  0  0  0  0
    1.1866   -0.6082   -3.5717 H   0  0  0  0  0  0  0  0  0  0  0  0
    2.0721   -2.1398   -3.5658 H   0  0  0  0  0  0  0  0  0  0  0  0
    0.3163   -2.1491   -3.5665 H   0  0  0  0  0  0  0  0  0  0  0  0
    1.1924   -2.6002   -1.1980 H   0  0  0  0  0  0  0  0  0  0  0  0
    1.1956    0.4444   -1.3810 H   0  0  0  0  0  0  0  0  0  0  0  0
    1.1987   -1.5902    0.9190 H   0  0  0  0  0  0  0  0  0  0  0  0
    3.3809   -0.4737    1.0864 H   0  0  0  0  0  0  0  0  0  0  0  0
    3.4304    1.9036    1.6265 H   0  0  0  0  0  0  0  0  0  0  0  0
    1.3757    3.3109    1.2904 H   0  0  0  0  0  0  0  0  0  0  0  0
   -0.8118    2.2443    1.1274 H   0  0  0  0  0  0  0  0  0  0  0  0
   -1.1036   -0.2394    0.5491 H   0  0  0  0  0  0  0  0  0  0  0  0
   -0.1502   -0.1663    2.2295 H   0  0  0  0  0  0  0  0  0  0  0  0
  1  2  1  0
  1  4  1  0
  2  3  2  3
  3  5  1  0
  3 25  1  0
  6  7  1  0
  6 15  1  0
  6 16  1  0
  6 17  1  0
  7  8  2  3
  7 18  1  0
  8  9  1  0
  8 19  1  0
  9 10  1  0
  9 14  1  0
  9 20  1  0
 10 11  1  0
 10 21  1  0
 11 12  2  0
 11 22  1  0
 12 13  1  0
 12 23  1  0
 13 14  2  0
 13 24  1  0
 14 26  1  0
M  RAD  1  10   2
M  END
>  <reaction>  (19) 
rmg_rxn_15539

>  <mol_properties>  (19) 
{"1": {"label": "*4", "atom_type": "N3d"}, "2": {"label": "*3", "atom_type": "Cd"}, "8": {"label": "*0", "atom_type": "Cs"}, "13": {"label": "*1", "atom_type": "Cs"}, "24": {"label": "*2", "atom_type": "H0"}}

>  <type>  (19) 
unop_15

>  <geom_source>  (19) 
Heuristics

$$$$

     RDKit          3D

 26 25  0  0  0  0  0  0  0  0999 V2000
   -3.4105   -1.5212   -1.3900 O   0  0  0  0  0  0  0  0  0  0  0  0
   -2.2176   -1.1757   -0.7860 N   0  0  0  0  0  0  0  0  0  0  0  0
   -2.3851   -0.3420    0.1470 C   0  0  0  0  0  0  0  0  0  0  0  0
   -3.1439   -2.1471   -2.0661 H   0  0  0  0  0  0  0  0  0  0  0  0
   -3.3652    0.0422    0.4215 H   0  0  0  0  0  0  0  0  0  0  0  0
    0.9759   -1.3387   -2.9455 C   0  0  0  0  0  0  0  0  0  0  0  0
    0.9759   -1.3387   -1.4504 C   0  0  0  0  0  0  0  0  0  0  0  0
    0.9759   -0.2547   -0.6881 C   0  0  0  0  0  0  0  0  0  0  0  0
    0.9885   -0.2634    0.8185 C   0  0  0  0  0  0  0  0  0  0  0  0
    2.2588    0.4045    1.2948 C   0  0  0  0  0  3  0  0  0  0  0  0
    2.2860    1.7065    1.5764 C   0  0  0  0  0  0  0  0  0  0  0  0
    1.0714    2.5171    1.4893 C   0  0  0  0  0  0  0  0  0  0  0  0
   -0.1226    1.9343    1.3949 C   0  0  0  0  0  0  0  0  0  0  0  0
   -0.2431    0.4373    1.4147 C   0  0  0  0  0  0  0  0  0  0  0  0
    0.9713   -0.3229   -3.3427 H   0  0  0  0  0  0  0  0  0  0  0  0
    1.8568   -1.8545   -3.3369 H   0  0  0  0  0  0  0  0  0  0  0  0
    0.1010   -1.8638   -3.3375 H   0  0  0  0  0  0  0  0  0  0  0  0
    0.9771   -2.3149   -0.9691 H   0  0  0  0  0  0  0  0  0  0  0  0
    0.9803    0.7297   -1.1521 H   0  0  0  0  0  0  0  0  0  0  0  0
    0.9834   -1.3050    1.1480 H   0  0  0  0  0  0  0  0  0  0  0  0
    3.1656   -0.1884    1.3154 H   0  0  0  0  0  0  0  0  0  0  0  0
    3.2151    2.1889    1.8555 H   0  0  0  0  0  0  0  0  0  0  0  0
    1.1604    3.5962    1.5193 H   0  0  0  0  0  0  0  0  0  0  0  0
   -1.0271    2.5296    1.3564 H   0  0  0  0  0  0  0  0  0  0  0  0
   -1.3189    0.0459    0.7780 H   0  0  0  0  0  0  0  0  0  0  0  0
   -0.3655    0.1190    2.4585 H   0  0  0  0  0  0  0  0  0  0  0  0
  1  2  1  0
  1  4  1  0
  2  3  2  3
  3  5  1  0
  3 25  1  0
  6  7  1  0
  6 15  1  0
  6 16  1  0
  6 17  1  0
  7  8  2  3
  7 18  1  0
  8  9  1  0
  8 19  1  0
  9 10  1  0
  9 14  1  0
  9 20  1  0
 10 11  1  0
 10 21  1  0
 11 12  2  0
 11 22  1  0
 12 13  1  0
 12 23  1  0
 13 14  2  0
 13 24  1  0
 14 26  1  0
M  RAD  1  10   2
M  END
>  <reaction>  (20) 
rmg_rxn_15539

>  <mol_properties>  (20) 
{"1": {"label": "*4", "atom_type": "N3d"}, "2": {"label": "*3", "atom_type": "Cd"}, "8": {"label": "*0", "atom_type": "Cs"}, "13": {"label": "*1", "atom_type": "Cs"}, "24": {"label": "*2", "atom_type": "H0"}}

>  <type>  (20) 
unop_16

>  <geom_source>  (20) 
Heuristics

$$$$

     RDKit          3D

 26 25  0  0  0  0  0  0  0  0999 V2000
   -3.8296    1.8975   -1.2727 O   0  0  0  0  0  0  0  0  0  0  0  0
   -3.0695    0.8675   -0.7704 N   0  0  0  0  0  0  0  0  0  0  0  0
    0.3810   -0.2371    0.5334 C   0  0  0  0  0  0  0  0  0  0  0  0
    2.6277    2.5430   -0.9587 C   0  0  0  0  0  0  0  0  0  0  0  0
    1.1744    0.6164   -0.4255 C   0  0  0  0  0  0  0  0  0  0  0  0
   -0.5803   -1.1680   -0.2341 C   0  0  0  0  0  3  0  0  0  0  0  0
    1.2994   -1.0437    1.4269 C   0  0  0  0  0  0  0  0  0  0  0  0
    1.8451    1.6977   -0.0024 C   0  0  0  0  0  0  0  0  0  0  0  0
   -1.1871   -2.1958    0.6830 C   0  0  0  0  0  0  0  0  0  0  0  0
    0.8625   -2.1663    2.0099 C   0  0  0  0  0  0  0  0  0  0  0  0
   -0.4772   -2.7001    1.6978 C   0  0  0  0  0  0  0  0  0  0  0  0
   -2.4215    0.0820   -1.5657 C   0  0  0  0  0  0  0  0  0  0  0  0
   -0.2397    0.4260    1.1757 H   0  0  0  0  0  0  0  0  0  0  0  0
    3.4192    1.9330   -1.4431 H   0  0  0  0  0  0  0  0  0  0  0  0
    3.1056    3.3826   -0.4120 H   0  0  0  0  0  0  0  0  0  0  0  0
    1.9530    2.9587   -1.7366 H   0  0  0  0  0  0  0  0  0  0  0  0
   -0.0411   -1.7018   -1.0475 H   0  0  0  0  0  0  0  0  0  0  0  0
    2.2825   -0.6655    1.6811 H   0  0  0  0  0  0  0  0  0  0  0  0
    1.1972    0.3579   -1.4818 H   0  0  0  0  0  0  0  0  0  0  0  0
    1.8278    1.9730    1.0488 H   0  0  0  0  0  0  0  0  0  0  0  0
   -0.8882   -3.4994    2.3010 H   0  0  0  0  0  0  0  0  0  0  0  0
   -2.1738   -2.5839    0.4670 H   0  0  0  0  0  0  0  0  0  0  0  0
    1.4930   -2.6878    2.7186 H   0  0  0  0  0  0  0  0  0  0  0  0
   -2.4674    0.2230   -2.6383 H   0  0  0  0  0  0  0  0  0  0  0  0
   -1.7590   -0.8169   -1.1120 H   0  0  0  0  0  0  0  0  0  0  0  0
   -4.3341    2.5081   -0.6426 H   0  0  0  0  0  0  0  0  0  0  0  0
  1  2  1  0
  1 26  1  0
  2 12  2  3
  3  5  1  0
  3  6  1  0
  3  7  1  0
  3 13  1  0
  4  8  1  0
  4 14  1  0
  4 15  1  0
  4 16  1  0
  5  8  2  3
  5 19  1  0
  6  9  1  0
  6 17  1  0
  7 10  2  0
  7 18  1  0
  8 20  1  0
  9 11  2  0
  9 22  1  0
 10 11  1  0
 10 23  1  0
 11 21  1  0
 12 24  1  0
 12 25  1  0
M  RAD  1   6   2
M  END
>  <reaction>  (21) 
rmg_rxn_15539

>  <mol_properties>  (21) 
{"1": {"label": "*4", "atom_type": "N3d"}, "2": {"label": "*3", "atom_type": "Cd"}, "8": {"label": "*0", "atom_type": "Cs"}, "13": {"label": "*1", "atom_type": "Cs"}, "24": {"label": "*2", "atom_type": "H0"}}

>  <type>  (21) 
unop_17

>  <geom_source>  (21) 
AutoTST

$$$$

     RDKit          3D

 26 25  0  0  0  0  0  0  0  0999 V2000
   -3.5985   -1.8952   -0.7407 O   0  0  0  0  0  0  0  0  0  0  0  0
   -2.3293   -1.4348   -0.4503 N   0  0  0  0  0  0  0  0  0  0  0  0
   -2.3489   -0.2663    0.0271 C   0  0  0  0  0  0  0  0  0  0  0  0
   -3.4411   -2.7750   -1.0888 H   0  0  0  0  0  0  0  0  0  0  0  0
   -3.2716    0.2892    0.1809 H   0  0  0  0  0  0  0  0  0  0  0  0
    1.0121   -1.2630   -3.0654 C   0  0  0  0  0  0  0  0  0  0  0  0
    1.0121   -1.2630   -1.5703 C   0  0  0  0  0  0  0  0  0  0  0  0
    1.0121   -0.1791   -0.8079 C   0  0  0  0  0  0  0  0  0  0  0  0
    1.0247   -0.1878    0.6987 C   0  0  0  0  0  0  0  0  0  0  0  0
    2.2950    0.4802    1.1749 C   0  0  0  0  0  3  0  0  0  0  0  0
    2.3222    1.7822    1.4566 C   0  0  0  0  0  0  0  0  0  0  0  0
    1.1075    2.5928    1.3694 C   0  0  0  0  0  0  0  0  0  0  0  0
   -0.0864    2.0099    1.2751 C   0  0  0  0  0  0  0  0  0  0  0  0
   -0.2069    0.5129    1.2949 C   0  0  0  0  0  0  0  0  0  0  0  0
    1.0074   -0.2472   -3.4626 H   0  0  0  0  0  0  0  0  0  0  0  0
    1.8929   -1.7788   -3.4567 H   0  0  0  0  0  0  0  0  0  0  0  0
    0.1371   -1.7882   -3.4574 H   0  0  0  0  0  0  0  0  0  0  0  0
    1.0133   -2.2392   -1.0889 H   0  0  0  0  0  0  0  0  0  0  0  0
    1.0164    0.8054   -1.2719 H   0  0  0  0  0  0  0  0  0  0  0  0
    1.0196   -1.2293    1.0281 H   0  0  0  0  0  0  0  0  0  0  0  0
    3.2017   -0.1128    1.1956 H   0  0  0  0  0  0  0  0  0  0  0  0
    3.2512    2.2646    1.7357 H   0  0  0  0  0  0  0  0  0  0  0  0
    1.1965    3.6719    1.3995 H   0  0  0  0  0  0  0  0  0  0  0  0
   -0.9909    2.6052    1.2366 H   0  0  0  0  0  0  0  0  0  0  0  0
   -1.2828    0.1215    0.6582 H   0  0  0  0  0  0  0  0  0  0  0  0
   -0.3293    0.1947    2.3386 H   0  0  0  0  0  0  0  0  0  0  0  0
  1  2  1  0
  1  4  1  0
  2  3  2  3
  3  5  1  0
  3 25  1  0
  6  7  1  0
  6 15  1  0
  6 16  1  0
  6 17  1  0
  7  8  2  3
  7 18  1  0
  8  9  1  0
  8 19  1  0
  9 10  1  0
  9 14  1  0
  9 20  1  0
 10 11  1  0
 10 21  1  0
 11 12  2  0
 11 22  1  0
 12 13  1  0
 12 23  1  0
 13 14  2  0
 13 24  1  0
 14 26  1  0
M  RAD  1  10   2
M  END
>  <reaction>  (22) 
rmg_rxn_15539

>  <mol_properties>  (22) 
{"1": {"label": "*4", "atom_type": "N3d"}, "2": {"label": "*3", "atom_type": "Cd"}, "8": {"label": "*0", "atom_type": "Cs"}, "13": {"label": "*1", "atom_type": "Cs"}, "24": {"label": "*2", "atom_type": "H0"}}

>  <type>  (22) 
unop_18

>  <geom_source>  (22) 
gaussian_log

$$$$
