
     RDKit          3D

 12 11  0  0  0  0  0  0  0  0999 V2000
    1.8075    0.1979    0.4695 C   0  0  0  0  0  0  0  0  0  0  0  0
    1.0072   -0.8859   -0.7259 S   0  0  0  0  0  0  0  0  0  0  0  0
   -0.7258   -0.6904   -0.2447 C   0  0  0  0  0  0  0  0  0  0  0  0
   -1.0856   -1.2776    1.1108 C   0  0  0  0  0  0  0  0  0  0  0  0
    1.7126   -0.1777    1.4878 H   0  0  0  0  0  0  0  0  0  0  0  0
    1.4024    1.2089    0.4095 H   0  0  0  0  0  0  0  0  0  0  0  0
    2.8647    0.2298    0.2095 H   0  0  0  0  0  0  0  0  0  0  0  0
   -1.2866   -1.1892   -1.0369 H   0  0  0  0  0  0  0  0  0  0  0  0
   -0.9814    0.3707   -0.2917 H   0  0  0  0  0  0  0  0  0  0  0  0
   -0.5492   -0.7768    1.9180 H   0  0  0  0  0  0  0  0  0  0  0  0
   -0.8418   -2.3397    1.1503 H   0  0  0  0  0  0  0  0  0  0  0  0
   -2.1545   -1.1604    1.3035 H   0  0  0  0  0  0  0  0  0  0  0  0
  1  2  1  0
  1  5  1  0
  1  6  1  0
  1  7  1  0
  2  3  1  0
  3  4  1  0
  3  8  1  0
  3  9  1  0
  4 10  1  0
  4 11  1  0
  4 12  1  0
M  END
>  <reaction>  (1) 
rmg_rxn_523

>  <mol_properties>  (1) 
{"0": {"label": "donator", "atom_type": "Cs"}, "4": {"label": "d_hydrogen", "atom_type": "H0"}}

>  <type>  (1) 
r1h

$$$$

     RDKit          3D

 17 16  0  0  0  0  0  0  0  0999 V2000
   -3.2378    0.0781    0.0468 C   0  0  0  0  0  0  0  0  0  0  0  0
   -1.9072   -0.5430    0.2348 C   0  0  0  0  0  3  0  0  0  0  0  0
   -1.5607   -0.7743    1.5229 O   0  0  0  0  0  0  0  0  0  0  0  0
   -0.2678   -1.3170    1.7206 C   0  0  0  0  0  0  0  0  0  0  0  0
    0.0055   -1.4164    3.2061 C   0  0  0  0  0  0  0  0  0  0  0  0
    0.0347   -0.0632    3.9042 C   0  0  0  0  0  0  0  0  0  0  0  0
   -3.2816    1.0982    0.4537 H   0  0  0  0  0  0  0  0  0  0  0  0
   -3.4818    0.1310   -1.0144 H   0  0  0  0  0  0  0  0  0  0  0  0
   -4.0139   -0.5033    0.5509 H   0  0  0  0  0  0  0  0  0  0  0  0
   -1.0896   -0.3480   -0.4562 H   0  0  0  0  0  0  0  0  0  0  0  0
   -0.2142   -2.3036    1.2476 H   0  0  0  0  0  0  0  0  0  0  0  0
    0.4751   -0.6679    1.2371 H   0  0  0  0  0  0  0  0  0  0  0  0
   -0.7555   -2.0574    3.6583 H   0  0  0  0  0  0  0  0  0  0  0  0
    0.9642   -1.9267    3.3334 H   0  0  0  0  0  0  0  0  0  0  0  0
   -0.9209    0.4499    3.7952 H   0  0  0  0  0  0  0  0  0  0  0  0
    0.2399   -0.1765    4.9695 H   0  0  0  0  0  0  0  0  0  0  0  0
    0.8109    0.5782    3.4796 H   0  0  0  0  0  0  0  0  0  0  0  0
  1  2  1  0
  1  7  1  0
  1  8  1  0
  1  9  1  0
  2  3  1  0
  2 10  1  0
  3  4  1  0
  4  5  1  0
  4 11  1  0
  4 12  1  0
  5  6  1  0
  5 13  1  0
  5 14  1  0
  6 15  1  0
  6 16  1  0
  6 17  1  0
M  RAD  1   2   2
M  END
>  <reaction>  (2) 
rmg_rxn_523

>  <mol_properties>  (2) 
{"1": {"label": "acceptor", "atom_type": "Cs"}}

>  <type>  (2) 
r2

$$$$

     RDKit          3D

 18 17  0  0  0  0  0  0  0  0999 V2000
    2.2026   -0.7213   -0.2612 C   0  0  0  0  0  0  0  0  0  0  0  0
    1.5384    0.2638    0.6915 C   0  0  0  0  0  0  0  0  0  0  0  0
    2.2584    1.5946    0.7694 C   0  0  0  0  0  0  0  0  0  0  0  0
    2.2212    2.2185   -0.4893 O   0  0  0  0  0  0  0  0  0  0  0  0
    2.8988    3.4488   -0.5204 C   0  0  0  0  0  0  0  0  0  0  0  0
    2.7981    4.0296   -1.9118 C   0  0  0  0  0  0  0  0  0  0  0  0
    3.2294   -0.9309    0.0486 H   0  0  0  0  0  0  0  0  0  0  0  0
    2.2338   -0.3181   -1.2734 H   0  0  0  0  0  0  0  0  0  0  0  0
    1.6610   -1.6680   -0.2875 H   0  0  0  0  0  0  0  0  0  0  0  0
    1.4990   -0.1566    1.7002 H   0  0  0  0  0  0  0  0  0  0  0  0
    0.5055    0.4455    0.3835 H   0  0  0  0  0  0  0  0  0  0  0  0
    3.3038    1.4410    1.0808 H   0  0  0  0  0  0  0  0  0  0  0  0
    1.7844    2.2410    1.5226 H   0  0  0  0  0  0  0  0  0  0  0  0
    2.4596    4.1376    0.2164 H   0  0  0  0  0  0  0  0  0  0  0  0
    3.9524    3.3035   -0.2397 H   0  0  0  0  0  0  0  0  0  0  0  0
    1.7543    4.1869   -2.1856 H   0  0  0  0  0  0  0  0  0  0  0  0
    3.2472    3.3545   -2.6411 H   0  0  0  0  0  0  0  0  0  0  0  0
    3.3178    4.9878   -1.9600 H   0  0  0  0  0  0  0  0  0  0  0  0
  1  2  1  0
  1  7  1  0
  1  8  1  0
  1  9  1  0
  2  3  1  0
  2 10  1  0
  2 11  1  0
  3  4  1  0
  3 12  1  0
  3 13  1  0
  4  5  1  0
  5  6  1  0
  5 14  1  0
  5 15  1  0
  6 16  1  0
  6 17  1  0
  6 18  1  0
M  END
>  <reaction>  (3) 
rmg_rxn_523

>  <mol_properties>  (3) 
{"0": {"label": "a_hydrogen", "atom_type": "H0"}, "2": {"label": "acceptor", "atom_type": "Cs"}}

>  <type>  (3) 
r2h

$$$$

     RDKit          3D

 29 27  0  0  0  0  0  0  0  0999 V2000
   -1.2597    0.4708    1.6560 C   0  0  0  0  0  3  0  0  0  0  0  0
   -2.4722   -0.7873    1.4214 S   0  0  0  0  0  0  0  0  0  0  0  0
   -1.4301   -2.2284    1.0915 C   0  0  0  0  0  0  0  0  0  0  0  0
   -0.7522   -2.2333   -0.2685 C   0  0  0  0  0  0  0  0  0  0  0  0
   -0.7427    0.9498    0.4807 H   0  0  0  0  0  0  0  0  0  0  0  0
   -0.4062    0.1468    2.2522 H   0  0  0  0  0  0  0  0  0  0  0  0
   -1.7283    1.3573    2.0793 H   0  0  0  0  0  0  0  0  0  0  0  0
   -2.1024   -3.0823    1.1906 H   0  0  0  0  0  0  0  0  0  0  0  0
   -0.6963   -2.3031    1.8972 H   0  0  0  0  0  0  0  0  0  0  0  0
   -0.0929   -1.3742   -0.3943 H   0  0  0  0  0  0  0  0  0  0  0  0
   -1.4921   -2.2054   -1.0696 H   0  0  0  0  0  0  0  0  0  0  0  0
   -0.1549   -3.1407   -0.3881 H   0  0  0  0  0  0  0  0  0  0  0  0
   -1.4380    1.3523   -1.6416 C   0  0  0  0  0  0  0  0  0  0  0  0
   -0.2947    1.4725   -0.6821 C   0  0  0  0  0  0  0  0  0  0  0  0
    0.8000    0.7439   -1.1064 O   0  0  0  0  0  0  0  0  0  0  0  0
    1.9317    0.8560   -0.2716 C   0  0  0  0  0  0  0  0  0  0  0  0
    3.0603    0.0298   -0.8515 C   0  0  0  0  0  0  0  0  0  0  0  0
    3.5161    0.5138   -2.2214 C   0  0  0  0  0  0  0  0  0  0  0  0
   -1.7258    0.3067   -1.7614 H   0  0  0  0  0  0  0  0  0  0  0  0
   -2.3018    1.8992   -1.2615 H   0  0  0  0  0  0  0  0  0  0  0  0
   -1.1774    1.7539   -2.6251 H   0  0  0  0  0  0  0  0  0  0  0  0
   -0.0283    2.5036   -0.4156 H   0  0  0  0  0  0  0  0  0  0  0  0
    2.2280    1.9124   -0.1939 H   0  0  0  0  0  0  0  0  0  0  0  0
    1.6799    0.5075    0.7382 H   0  0  0  0  0  0  0  0  0  0  0  0
    3.8938    0.0597   -0.1445 H   0  0  0  0  0  0  0  0  0  0  0  0
    2.7331   -1.0117   -0.9106 H   0  0  0  0  0  0  0  0  0  0  0  0
    3.8689    1.5469   -2.1723 H   0  0  0  0  0  0  0  0  0  0  0  0
    4.3328   -0.1010   -2.6021 H   0  0  0  0  0  0  0  0  0  0  0  0
    2.6964    0.4731   -2.9387 H   0  0  0  0  0  0  0  0  0  0  0  0
  1  2  1  0
  1  6  1  0
  1  7  1  0
  2  3  1  0
  3  4  1  0
  3  8  1  0
  3  9  1  0
  4 10  1  0
  4 11  1  0
  4 12  1  0
  5 14  1  0
 13 14  1  0
 13 19  1  0
 13 20  1  0
 13 21  1  0
 14 15  1  0
 14 22  1  0
 15 16  1  0
 16 17  1  0
 16 23  1  0
 16 24  1  0
 17 18  1  0
 17 25  1  0
 17 26  1  0
 18 27  1  0
 18 28  1  0
 18 29  1  0
M  RAD  1   1   2
M  END
>  <reaction>  (4) 
rmg_rxn_523

>  <mol_properties>  (4) 
{"0": {"label": "*3", "atom_type": "Cs"}, "1": {"label": "*4", "atom_type": "S2s"}, "4": {"label": "*2", "atom_type": "H0"}, "13": {"label": "*1", "atom_type": "Cs"}, "14": {"label": "*0", "atom_type": "O2s"}}

>  <type>  (4) 
ts

$$$$

     RDKit          3D

 29 27  0  0  0  0  0  0  0  0999 V2000
    0.3845   -0.5544    1.8252 C   0  0  0  0  0  0  0  0  0  0  0  0
   -1.2586   -1.1332    2.2830 S   0  0  0  0  0  0  0  0  0  0  0  0
   -1.2586   -2.7733    1.5193 C   0  0  0  0  0  0  0  0  0  0  0  0
   -1.2586   -2.7733   -0.0011 C   0  0  0  0  0  0  0  0  0  0  0  0
    0.4994   -0.3787    0.5348 H   0  0  0  0  0  0  0  0  0  0  0  0
    1.1515   -1.2474    2.1733 H   0  0  0  0  0  0  0  0  0  0  0  0
    0.5310    0.4050    2.3195 H   0  0  0  0  0  0  0  0  0  0  0  0
   -2.1626   -3.2513    1.9002 H   0  0  0  0  0  0  0  0  0  0  0  0
   -0.4094   -3.3382    1.9106 H   0  0  0  0  0  0  0  0  0  0  0  0
   -0.3516   -2.3172   -0.4004 H   0  0  0  0  0  0  0  0  0  0  0  0
   -2.1146   -2.2201   -0.3888 H   0  0  0  0  0  0  0  0  0  0  0  0
   -1.3070   -3.7966   -0.3806 H   0  0  0  0  0  0  0  0  0  0  0  0
    1.8805   -0.9422   -0.4023 C   0  0  0  0  0  0  0  0  0  0  0  0
    0.6153   -0.2013   -0.7683 C   0  0  0  0  0  3  0  0  0  0  0  0
    0.9345    1.1389   -1.0428 O   0  0  0  0  0  0  0  0  0  0  0  0
   -0.1822    1.9155   -1.3964 C   0  0  0  0  0  0  0  0  0  0  0  0
    0.2675    3.3279   -1.7099 C   0  0  0  0  0  0  0  0  0  0  0  0
    1.2028    3.4059   -2.9092 C   0  0  0  0  0  0  0  0  0  0  0  0
    2.3439   -0.4953    0.4780 H   0  0  0  0  0  0  0  0  0  0  0  0
    1.6568   -1.9875   -0.1838 H   0  0  0  0  0  0  0  0  0  0  0  0
    2.5964   -0.9052   -1.2242 H   0  0  0  0  0  0  0  0  0  0  0  0
    0.1412   -0.6613   -1.6479 H   0  0  0  0  0  0  0  0  0  0  0  0
   -0.6828    1.4749   -2.2731 H   0  0  0  0  0  0  0  0  0  0  0  0
   -0.9109    1.9215   -0.5725 H   0  0  0  0  0  0  0  0  0  0  0  0
   -0.6255    3.9330   -1.8892 H   0  0  0  0  0  0  0  0  0  0  0  0
    0.7575    3.7409   -0.8244 H   0  0  0  0  0  0  0  0  0  0  0  0
    0.7171    3.0180   -3.8081 H   0  0  0  0  0  0  0  0  0  0  0  0
    1.5010    4.4363   -3.1082 H   0  0  0  0  0  0  0  0  0  0  0  0
    2.1038    2.8178   -2.7351 H   0  0  0  0  0  0  0  0  0  0  0  0
  1  2  1  0
  1  5  1  0
  1  6  1  0
  1  7  1  0
  2  3  1  0
  3  4  1  0
  3  8  1  0
  3  9  1  0
  4 10  1  0
  4 11  1  0
  4 12  1  0
 13 14  1  0
 13 19  1  0
 13 20  1  0
 13 21  1  0
 14 15  1  0
 14 22  1  0
 15 16  1  0
 16 17  1  0
 16 23  1  0
 16 24  1  0
 17 18  1  0
 17 25  1  0
 17 26  1  0
 18 27  1  0
 18 28  1  0
 18 29  1  0
M  RAD  1  14   2
M  END
>  <reaction>  (5) 
rmg_rxn_523

>  <mol_properties>  (5) 
{"0": {"label": "*3", "atom_type": "Cs"}, "1": {"label": "*4", "atom_type": "S2s"}, "4": {"label": "*2", "atom_type": "H0"}, "13": {"label": "*1", "atom_type": "Cs"}, "14": {"label": "*0", "atom_type": "O2s"}}

>  <type>  (5) 
unop_1

>  <geom_source>  (5) 
Heuristics

$$$$

     RDKit          3D

 29 27  0  0  0  0  0  0  0  0999 V2000
    1.2982    0.2383    1.9664 C   0  0  0  0  0  0  0  0  0  0  0  0
   -0.3449   -0.3405    2.4242 S   0  0  0  0  0  0  0  0  0  0  0  0
   -0.3449   -1.9806    1.6605 C   0  0  0  0  0  0  0  0  0  0  0  0
   -0.3449   -1.9806    0.1401 C   0  0  0  0  0  0  0  0  0  0  0  0
    1.4131    0.4140    0.6760 H   0  0  0  0  0  0  0  0  0  0  0  0
    2.0652   -0.4547    2.3145 H   0  0  0  0  0  0  0  0  0  0  0  0
    1.4447    1.1977    2.4607 H   0  0  0  0  0  0  0  0  0  0  0  0
   -1.2489   -2.4586    2.0414 H   0  0  0  0  0  0  0  0  0  0  0  0
    0.5043   -2.5455    2.0518 H   0  0  0  0  0  0  0  0  0  0  0  0
    0.5621   -1.5245   -0.2592 H   0  0  0  0  0  0  0  0  0  0  0  0
   -1.2009   -1.4274   -0.2476 H   0  0  0  0  0  0  0  0  0  0  0  0
   -0.3933   -3.0039   -0.2394 H   0  0  0  0  0  0  0  0  0  0  0  0
    2.3905    1.8285   -0.5220 C   0  0  0  0  0  0  0  0  0  0  0  0
    1.5290    0.5914   -0.6271 C   0  0  0  0  0  3  0  0  0  0  0  0
    0.2851    0.9466   -1.1748 O   0  0  0  0  0  0  0  0  0  0  0  0
   -0.5925   -0.1420   -1.3147 C   0  0  0  0  0  0  0  0  0  0  0  0
   -1.8850    0.3330   -1.9464 C   0  0  0  0  0  0  0  0  0  0  0  0
   -1.6975    0.8772   -3.3564 C   0  0  0  0  0  0  0  0  0  0  0  0
    1.9148    2.5721    0.1183 H   0  0  0  0  0  0  0  0  0  0  0  0
    3.3636    1.5766   -0.0977 H   0  0  0  0  0  0  0  0  0  0  0  0
    2.5455    2.2709   -1.5067 H   0  0  0  0  0  0  0  0  0  0  0  0
    2.0161   -0.1636   -1.2618 H   0  0  0  0  0  0  0  0  0  0  0  0
   -0.1285   -0.9193   -1.9422 H   0  0  0  0  0  0  0  0  0  0  0  0
   -0.7918   -0.5919   -0.3309 H   0  0  0  0  0  0  0  0  0  0  0  0
   -2.5829   -0.5088   -1.9577 H   0  0  0  0  0  0  0  0  0  0  0  0
   -2.3243    1.1001   -1.3034 H   0  0  0  0  0  0  0  0  0  0  0  0
   -1.2808    0.1127   -4.0169 H   0  0  0  0  0  0  0  0  0  0  0  0
   -2.6479    1.2041   -3.7807 H   0  0  0  0  0  0  0  0  0  0  0  0
   -1.0146    1.7267   -3.3547 H   0  0  0  0  0  0  0  0  0  0  0  0
  1  2  1  0
  1  5  1  0
  1  6  1  0
  1  7  1  0
  2  3  1  0
  3  4  1  0
  3  8  1  0
  3  9  1  0
  4 10  1  0
  4 11  1  0
  4 12  1  0
 13 14  1  0
 13 19  1  0
 13 20  1  0
 13 21  1  0
 14 15  1  0
 14 22  1  0
 15 16  1  0
 16 17  1  0
 16 23  1  0
 16 24  1  0
 17 18  1  0
 17 25  1  0
 17 26  1  0
 18 27  1  0
 18 28  1  0
 18 29  1  0
M  RAD  1  14   2
M  END
>  <reaction>  (6) 
rmg_rxn_523

>  <mol_properties>  (6) 
{"0": {"label": "*3", "atom_type": "Cs"}, "1": {"label": "*4", "atom_type": "S2s"}, "4": {"label": "*2", "atom_type": "H0"}, "13": {"label": "*1", "atom_type": "Cs"}, "14": {"label": "*0", "atom_type": "O2s"}}

>  <type>  (6) 
unop_2

>  <geom_source>  (6) 
Heuristics

$$$$

     RDKit          3D

 29 27  0  0  0  0  0  0  0  0999 V2000
   -0.0028   -0.4302    1.7841 C   0  0  0  0  0  0  0  0  0  0  0  0
   -1.6460   -1.0091    2.2419 S   0  0  0  0  0  0  0  0  0  0  0  0
   -1.6460   -2.6492    1.4782 C   0  0  0  0  0  0  0  0  0  0  0  0
   -1.6460   -2.6492   -0.0422 C   0  0  0  0  0  0  0  0  0  0  0  0
    0.1120   -0.2546    0.4937 H   0  0  0  0  0  0  0  0  0  0  0  0
    0.7642   -1.1233    2.1322 H   0  0  0  0  0  0  0  0  0  0  0  0
    0.1436    0.5292    2.2784 H   0  0  0  0  0  0  0  0  0  0  0  0
   -2.5500   -3.1272    1.8591 H   0  0  0  0  0  0  0  0  0  0  0  0
   -0.7967   -3.2141    1.8695 H   0  0  0  0  0  0  0  0  0  0  0  0
   -0.7390   -2.1930   -0.4415 H   0  0  0  0  0  0  0  0  0  0  0  0
   -2.5019   -2.0960   -0.4299 H   0  0  0  0  0  0  0  0  0  0  0  0
   -1.6944   -3.6724   -0.4217 H   0  0  0  0  0  0  0  0  0  0  0  0
    0.9463   -1.4064   -0.8354 C   0  0  0  0  0  0  0  0  0  0  0  0
    0.2280   -0.0772   -0.8094 C   0  0  0  0  0  3  0  0  0  0  0  0
    1.1530    0.9467   -1.0731 O   0  0  0  0  0  0  0  0  0  0  0  0
    0.5786    2.2293   -1.0718 C   0  0  0  0  0  0  0  0  0  0  0  0
    1.6423    3.2561   -1.4028 C   0  0  0  0  0  0  0  0  0  0  0  0
    2.2276    3.0832   -2.7980 C   0  0  0  0  0  0  0  0  0  0  0  0
    1.7336   -1.4301   -0.0811 H   0  0  0  0  0  0  0  0  0  0  0  0
    0.2464   -2.2184   -0.6321 H   0  0  0  0  0  0  0  0  0  0  0  0
    1.4004   -1.5763   -1.8122 H   0  0  0  0  0  0  0  0  0  0  0  0
   -0.5751   -0.0593   -1.5610 H   0  0  0  0  0  0  0  0  0  0  0  0
   -0.2354    2.2762   -1.8125 H   0  0  0  0  0  0  0  0  0  0  0  0
    0.1371    2.4416   -0.0870 H   0  0  0  0  0  0  0  0  0  0  0  0
    1.1941    4.2486   -1.3031 H   0  0  0  0  0  0  0  0  0  0  0  0
    2.4344    3.1895   -0.6525 H   0  0  0  0  0  0  0  0  0  0  0  0
    1.4498    3.1714   -3.5606 H   0  0  0  0  0  0  0  0  0  0  0  0
    2.9847    3.8416   -3.0030 H   0  0  0  0  0  0  0  0  0  0  0  0
    2.6905    2.1020   -2.9036 H   0  0  0  0  0  0  0  0  0  0  0  0
  1  2  1  0
  1  5  1  0
  1  6  1  0
  1  7  1  0
  2  3  1  0
  3  4  1  0
  3  8  1  0
  3  9  1  0
  4 10  1  0
  4 11  1  0
  4 12  1  0
 13 14  1  0
 13 19  1  0
 13 20  1  0
 13 21  1  0
 14 15  1  0
 14 22  1  0
 15 16  1  0
 16 17  1  0
 16 23  1  0
 16 24  1  0
 17 18  1  0
 17 25  1  0
 17 26  1  0
 18 27  1  0
 18 28  1  0
 18 29  1  0
M  RAD  1  14   2
M  END
>  <reaction>  (7) 
rmg_rxn_523

>  <mol_properties>  (7) 
{"0": {"label": "*3", "atom_type": "Cs"}, "1": {"label": "*4", "atom_type": "S2s"}, "4": {"label": "*2", "atom_type": "H0"}, "13": {"label": "*1", "atom_type": "Cs"}, "14": {"label": "*0", "atom_type": "O2s"}}

>  <type>  (7) 
unop_3

>  <geom_source>  (7) 
Heuristics

$$$$

     RDKit          3D

 29 26  0  0  0  0  0  0  0  0999 V2000
    0.4777    1.1873    1.8753 C   0  0  0  0  0  0  0  0  0  0  0  0
   -1.1654    0.6085    2.3331 S   0  0  0  0  0  0  0  0  0  0  0  0
   -1.1654   -1.0316    1.5694 C   0  0  0  0  0  3  0  0  0  0  0  0
   -1.1654   -1.0316    0.0491 C   0  0  0  0  0  3  0  0  0  0  0  0
    0.5925    1.3630    0.5849 H   0  0  0  0  0  0  0  0  0  0  0  0
    1.2447    0.4943    2.2234 H   0  0  0  0  0  0  0  0  0  0  0  0
    0.6241    2.1467    2.3696 H   0  0  0  0  0  0  0  0  0  0  0  0
   -2.0695   -1.5096    1.9504 H   0  0  0  0  0  0  0  0  0  0  0  0
   -0.3162   -1.5965    1.9607 H   0  0  0  0  0  0  0  0  0  0  0  0
   -0.2584   -0.5754   -0.3502 H   0  0  0  0  0  0  0  0  0  0  0  0
   -2.0214   -0.4784   -0.3387 H   0  0  0  0  0  0  0  0  0  0  0  0
   -1.2139   -2.0549   -0.3305 H   0  0  0  0  0  0  0  0  0  0  0  0
    0.3481    2.6870   -1.6341 C   0  0  0  0  0  0  0  0  0  0  0  0
    0.7085    1.5404   -0.7182 C   0  0  0  0  0  3  0  0  0  0  0  0
    0.4735    0.3289   -1.3894 O   0  0  0  0  0  0  0  0  0  0  0  0
    0.7809   -0.8040   -0.6166 C   0  0  0  0  0  0  0  0  0  0  0  0
    0.5328   -2.0535   -1.4367 C   0  0  0  0  0  0  0  0  0  0  0  0
    1.4301   -2.1525   -2.6632 C   0  0  0  0  0  0  0  0  0  0  0  0
   -0.7029    2.6321   -1.9198 H   0  0  0  0  0  0  0  0  0  0  0  0
    0.5223    3.6404   -1.1329 H   0  0  0  0  0  0  0  0  0  0  0  0
    0.9532    2.6563   -2.5410 H   0  0  0  0  0  0  0  0  0  0  0  0
    1.7652    1.6044   -0.4194 H   0  0  0  0  0  0  0  0  0  0  0  0
    1.8342   -0.7649   -0.2966 H   0  0  0  0  0  0  0  0  0  0  0  0
    0.1631   -0.8163    0.2933 H   0  0  0  0  0  0  0  0  0  0  0  0
    0.6878   -2.9188   -0.7862 H   0  0  0  0  0  0  0  0  0  0  0  0
   -0.5177   -2.0680   -1.7381 H   0  0  0  0  0  0  0  0  0  0  0  0
    2.4843   -2.1632   -2.3749 H   0  0  0  0  0  0  0  0  0  0  0  0
    1.2276   -3.0654   -3.2252 H   0  0  0  0  0  0  0  0  0  0  0  0
    1.2729   -1.3018   -3.3263 H   0  0  0  0  0  0  0  0  0  0  0  0
  1  2  1  0
  1  5  1  0
  1  6  1  0
  1  7  1  0
  2  3  1  0
  3  8  1  0
  3  9  1  0
  4 10  1  0
  4 11  1  0
  4 12  1  0
 13 14  1  0
 13 19  1  0
 13 20  1  0
 13 21  1  0
 14 15  1  0
 14 22  1  0
 15 16  1  0
 16 17  1  0
 16 23  1  0
 16 24  1  0
 17 18  1  0
 17 25  1  0
 17 26  1  0
 18 27  1  0
 18 28  1  0
 18 29  1  0
M  RAD  3   3   2   4   2  14   2
M  END
>  <reaction>  (8) 
rmg_rxn_523

>  <mol_properties>  (8) 
{"0": {"label": "*3", "atom_type": "Cs"}, "1": {"label": "*4", "atom_type": "S2s"}, "4": {"label": "*2", "atom_type": "H0"}, "13": {"label": "*1", "atom_type": "Cs"}, "14": {"label": "*0", "atom_type": "O2s"}}

>  <type>  (8) 
unop_4

>  <geom_source>  (8) 
Heuristics

$$$$

     RDKit          3D

 29 27  0  0  0  0  0  0  0  0999 V2000
   -0.3019   -0.1451    1.7205 C   0  0  0  0  0  0  0  0  0  0  0  0
   -1.9450   -0.7239    2.1783 S   0  0  0  0  0  0  0  0  0  0  0  0
   -1.9450   -2.3641    1.4146 C   0  0  0  0  0  0  0  0  0  0  0  0
   -1.9450   -2.3641   -0.1058 C   0  0  0  0  0  0  0  0  0  0  0  0
   -0.1871    0.0306    0.4301 H   0  0  0  0  0  0  0  0  0  0  0  0
    0.4651   -0.8381    2.0686 H   0  0  0  0  0  0  0  0  0  0  0  0
   -0.1555    0.8143    2.2148 H   0  0  0  0  0  0  0  0  0  0  0  0
   -2.8491   -2.8420    1.7955 H   0  0  0  0  0  0  0  0  0  0  0  0
   -1.0958   -2.9289    1.8059 H   0  0  0  0  0  0  0  0  0  0  0  0
   -1.0381   -1.9079   -0.5051 H   0  0  0  0  0  0  0  0  0  0  0  0
   -2.8010   -1.8109   -0.4935 H   0  0  0  0  0  0  0  0  0  0  0  0
   -1.9935   -3.3873   -0.4853 H   0  0  0  0  0  0  0  0  0  0  0  0
   -0.3284   -1.0875   -1.6072 C   0  0  0  0  0  0  0  0  0  0  0  0
   -0.0711    0.2079   -0.8730 C   0  0  0  0  0  3  0  0  0  0  0  0
    1.2232    0.6583   -1.1819 O   0  0  0  0  0  0  0  0  0  0  0  0
    1.5593    1.8649   -0.5445 C   0  0  0  0  0  0  0  0  0  0  0  0
    2.9512    2.2863   -0.9691 C   0  0  0  0  0  0  0  0  0  0  0  0
    3.0592    2.5796   -2.4596 C   0  0  0  0  0  0  0  0  0  0  0  0
    0.3968   -1.8458   -1.3098 H   0  0  0  0  0  0  0  0  0  0  0  0
   -1.3297   -1.4576   -1.3817 H   0  0  0  0  0  0  0  0  0  0  0  0
   -0.2482   -0.9386   -2.6846 H   0  0  0  0  0  0  0  0  0  0  0  0
   -0.8115    0.9679   -1.1632 H   0  0  0  0  0  0  0  0  0  0  0  0
    0.8299    2.6459   -0.8119 H   0  0  0  0  0  0  0  0  0  0  0  0
    1.5160    1.7372    0.5471 H   0  0  0  0  0  0  0  0  0  0  0  0
    3.2253    3.1726   -0.3903 H   0  0  0  0  0  0  0  0  0  0  0  0
    3.6533    1.4963   -0.6902 H   0  0  0  0  0  0  0  0  0  0  0  0
    2.3792    3.3849   -2.7485 H   0  0  0  0  0  0  0  0  0  0  0  0
    4.0719    2.8845   -2.7274 H   0  0  0  0  0  0  0  0  0  0  0  0
    2.8023    1.6976   -3.0463 H   0  0  0  0  0  0  0  0  0  0  0  0
  1  2  1  0
  1  5  1  0
  1  6  1  0
  1  7  1  0
  2  3  1  0
  3  4  1  0
  3  8  1  0
  3  9  1  0
  4 10  1  0
  4 11  1  0
  4 12  1  0
 13 14  1  0
 13 19  1  0
 13 20  1  0
 13 21  1  0
 14 15  1  0
 14 22  1  0
 15 16  1  0
 16 17  1  0
 16 23  1  0
 16 24  1  0
 17 18  1  0
 17 25  1  0
 17 26  1  0
 18 27  1  0
 18 28  1  0
 18 29  1  0
M  RAD  1  14   2
M  END
>  <reaction>  (9) 
rmg_rxn_523

>  <mol_properties>  (9) 
{"0": {"label": "*3", "atom_type": "Cs"}, "1": {"label": "*4", "atom_type": "S2s"}, "4": {"label": "*2", "atom_type": "H0"}, "13": {"label": "*1", "atom_type": "Cs"}, "14": {"label": "*0", "atom_type": "O2s"}}

>  <type>  (9) 
unop_5

>  <geom_source>  (9) 
Heuristics

$$$$

     RDKit          3D

 29 27  0  0  0  0  0  0  0  0999 V2000
    0.0319    1.0924    1.8018 C   0  0  0  0  0  0  0  0  0  0  0  0
   -1.6112    0.5135    2.2595 S   0  0  0  0  0  0  0  0  0  0  0  0
   -1.6112   -1.1266    1.4959 C   0  0  0  0  0  0  0  0  0  0  0  0
   -1.6112   -1.1266   -0.0245 C   0  0  0  0  0  0  0  0  0  0  0  0
    0.1467    1.2680    0.5113 H   0  0  0  0  0  0  0  0  0  0  0  0
    0.7989    0.3993    2.1499 H   0  0  0  0  0  0  0  0  0  0  0  0
    0.1783    2.0518    2.2961 H   0  0  0  0  0  0  0  0  0  0  0  0
   -2.5153   -1.6046    1.8768 H   0  0  0  0  0  0  0  0  0  0  0  0
   -0.7620   -1.6914    1.8871 H   0  0  0  0  0  0  0  0  0  0  0  0
   -0.7043   -0.6704   -0.4238 H   0  0  0  0  0  0  0  0  0  0  0  0
   -2.4672   -0.5734   -0.4122 H   0  0  0  0  0  0  0  0  0  0  0  0
   -1.6597   -2.1498   -0.4040 H   0  0  0  0  0  0  0  0  0  0  0  0
   -0.3845    2.3207   -1.8399 C   0  0  0  0  0  0  0  0  0  0  0  0
    0.2627    1.4454   -0.7917 C   0  0  0  0  0  3  0  0  0  0  0  0
    0.7078    0.2594   -1.3989 O   0  0  0  0  0  0  0  0  0  0  0  0
    1.3289   -0.6260   -0.5015 C   0  0  0  0  0  0  0  0  0  0  0  0
    1.8066   -1.8508   -1.2543 C   0  0  0  0  0  0  0  0  0  0  0  0
    2.8674   -1.5347   -2.3002 C   0  0  0  0  0  0  0  0  0  0  0  0
   -1.2335    1.8086   -2.2942 H   0  0  0  0  0  0  0  0  0  0  0  0
   -0.7393    3.2494   -1.3904 H   0  0  0  0  0  0  0  0  0  0  0  0
    0.3299    2.5667   -2.6264 H   0  0  0  0  0  0  0  0  0  0  0  0
    1.1103    1.9681   -0.3243 H   0  0  0  0  0  0  0  0  0  0  0  0
    2.1804   -0.1273   -0.0119 H   0  0  0  0  0  0  0  0  0  0  0  0
    0.6214   -0.9162    0.2891 H   0  0  0  0  0  0  0  0  0  0  0  0
    2.1995   -2.5628   -0.5231 H   0  0  0  0  0  0  0  0  0  0  0  0
    0.9434   -2.3263   -1.7271 H   0  0  0  0  0  0  0  0  0  0  0  0
    3.7472   -1.0802   -1.8378 H   0  0  0  0  0  0  0  0  0  0  0  0
    3.1908   -2.4392   -2.8174 H   0  0  0  0  0  0  0  0  0  0  0  0
    2.4812   -0.8368   -3.0431 H   0  0  0  0  0  0  0  0  0  0  0  0
  1  2  1  0
  1  5  1  0
  1  6  1  0
  1  7  1  0
  2  3  1  0
  3  4  1  0
  3  8  1  0
  3  9  1  0
  4 10  1  0
  4 11  1  0
  4 12  1  0
 13 14  1  0
 13 19  1  0
 13 20  1  0
 13 21  1  0
 14 15  1  0
 14 22  1  0
 15 16  1  0
 16 17  1  0
 16 23  1  0
 16 24  1  0
 17 18  1  0
 17 25  1  0
 17 26  1  0
 18 27  1  0
 18 28  1  0
 18 29  1  0
M  RAD  1  14   2
M  END
>  <reaction>  (10) 
rmg_rxn_523

>  <mol_properties>  (10) 
{"0": {"label": "*3", "atom_type": "Cs"}, "1": {"label": "*4", "atom_type": "S2s"}, "4": {"label": "*2", "atom_type": "H0"}, "13": {"label": "*1", "atom_type": "Cs"}, "14": {"label": "*0", "atom_type": "O2s"}}

>  <type>  (10) 
unop_6

>  <geom_source>  (10) 
Heuristics

$$$$

     RDKit          3D

 29 27  0  0  0  0  0  0  0  0999 V2000
   -0.3101    0.7750    1.7278 C   0  0  0  0  0  0  0  0  0  0  0  0
   -1.9532    0.1962    2.1856 S   0  0  0  0  0  0  0  0  0  0  0  0
   -1.9532   -1.4439    1.4220 C   0  0  0  0  0  0  0  0  0  0  0  0
   -1.9532   -1.4439   -0.0984 C   0  0  0  0  0  0  0  0  0  0  0  0
   -0.1953    0.9507    0.4374 H   0  0  0  0  0  0  0  0  0  0  0  0
    0.4569    0.0820    2.0759 H   0  0  0  0  0  0  0  0  0  0  0  0
   -0.1636    1.7344    2.2222 H   0  0  0  0  0  0  0  0  0  0  0  0
   -2.8573   -1.9219    1.8029 H   0  0  0  0  0  0  0  0  0  0  0  0
   -1.1040   -2.0088    1.8132 H   0  0  0  0  0  0  0  0  0  0  0  0
   -1.0462   -0.9878   -0.4977 H   0  0  0  0  0  0  0  0  0  0  0  0
   -2.8092   -0.8907   -0.4861 H   0  0  0  0  0  0  0  0  0  0  0  0
   -2.0016   -2.4672   -0.4779 H   0  0  0  0  0  0  0  0  0  0  0  0
   -0.9868    1.5426   -2.0006 C   0  0  0  0  0  0  0  0  0  0  0  0
   -0.0793    1.1281   -0.8656 C   0  0  0  0  0  3  0  0  0  0  0  0
    0.9380    0.3026   -1.3729 O   0  0  0  0  0  0  0  0  0  0  0  0
    1.8398   -0.1374   -0.3890 C   0  0  0  0  0  0  0  0  0  0  0  0
    2.9161   -0.9841   -1.0370 C   0  0  0  0  0  0  0  0  0  0  0  0
    3.7644   -0.2109   -2.0379 C   0  0  0  0  0  0  0  0  0  0  0  0
   -1.4353    0.6667   -2.4706 H   0  0  0  0  0  0  0  0  0  0  0  0
   -1.7867    2.1853   -1.6297 H   0  0  0  0  0  0  0  0  0  0  0  0
   -0.4252    2.0901   -2.7585 H   0  0  0  0  0  0  0  0  0  0  0  0
    0.3618    2.0128   -0.3832 H   0  0  0  0  0  0  0  0  0  0  0  0
    2.2943    0.7291    0.1172 H   0  0  0  0  0  0  0  0  0  0  0  0
    1.3056   -0.7197    0.3761 H   0  0  0  0  0  0  0  0  0  0  0  0
    3.5482   -1.3903   -0.2425 H   0  0  0  0  0  0  0  0  0  0  0  0
    2.4388   -1.8357   -1.5286 H   0  0  0  0  0  0  0  0  0  0  0  0
    4.2673    0.6305   -1.5545 H   0  0  0  0  0  0  0  0  0  0  0  0
    4.5306   -0.8497   -2.4795 H   0  0  0  0  0  0  0  0  0  0  0  0
    3.1460    0.1861   -2.8428 H   0  0  0  0  0  0  0  0  0  0  0  0
  1  2  1  0
  1  5  1  0
  1  6  1  0
  1  7  1  0
  2  3  1  0
  3  4  1  0
  3  8  1  0
  3  9  1  0
  4 10  1  0
  4 11  1  0
  4 12  1  0
 13 14  1  0
 13 19  1  0
 13 20  1  0
 13 21  1  0
 14 15  1  0
 14 22  1  0
 15 16  1  0
 16 17  1  0
 16 23  1  0
 16 24  1  0
 17 18  1  0
 17 25  1  0
 17 26  1  0
 18 27  1  0
 18 28  1  0
 18 29  1  0
M  RAD  1  14   2
M  END
>  <reaction>  (11) 
rmg_rxn_523

>  <mol_properties>  (11) 
{"0": {"label": "*3", "atom_type": "Cs"}, "1": {"label": "*4", "atom_type": "S2s"}, "4": {"label": "*2", "atom_type": "H0"}, "13": {"label": "*1", "atom_type": "Cs"}, "14": {"label": "*0", "atom_type": "O2s"}}

>  <type>  (11) 
unop_7

>  <geom_source>  (11) 
Heuristics

$$$$

     RDKit          3D

 29 27  0  0  0  0  0  0  0  0999 V2000
    0.8042   -0.4801    1.8724 C   0  0  0  0  0  0  0  0  0  0  0  0
   -0.8389   -1.0589    2.3302 S   0  0  0  0  0  0  0  0  0  0  0  0
   -0.8389   -2.6990    1.5666 C   0  0  0  0  0  0  0  0  0  0  0  0
   -0.8389   -2.6990    0.0462 C   0  0  0  0  0  0  0  0  0  0  0  0
    0.9190   -0.3044    0.5820 H   0  0  0  0  0  0  0  0  0  0  0  0
    1.5712   -1.1731    2.2205 H   0  0  0  0  0  0  0  0  0  0  0  0
    0.9507    0.4793    2.3668 H   0  0  0  0  0  0  0  0  0  0  0  0
   -1.7430   -3.1770    1.9475 H   0  0  0  0  0  0  0  0  0  0  0  0
    0.0103   -3.2639    1.9578 H   0  0  0  0  0  0  0  0  0  0  0  0
    0.0681   -2.2429   -0.3531 H   0  0  0  0  0  0  0  0  0  0  0  0
   -1.6949   -2.1458   -0.3415 H   0  0  0  0  0  0  0  0  0  0  0  0
   -0.8874   -3.7223   -0.3333 H   0  0  0  0  0  0  0  0  0  0  0  0
    2.4685   -0.1349   -0.2429 C   0  0  0  0  0  0  0  0  0  0  0  0
    1.0350   -0.1270   -0.7210 C   0  0  0  0  0  3  0  0  0  0  0  0
    0.6740    1.1877   -1.0596 O   0  0  0  0  0  0  0  0  0  0  0  0
   -0.6491    1.3005   -1.5195 C   0  0  0  0  0  0  0  0  0  0  0  0
   -0.9293    2.7414   -1.8943 C   0  0  0  0  0  0  0  0  0  0  0  0
   -0.0641    3.2399   -3.0441 C   0  0  0  0  0  0  0  0  0  0  0  0
    2.5830    0.5061    0.6320 H   0  0  0  0  0  0  0  0  0  0  0  0
    2.7715   -1.1478    0.0269 H   0  0  0  0  0  0  0  0  0  0  0  0
    3.1345    0.2295   -1.0258 H   0  0  0  0  0  0  0  0  0  0  0  0
    0.9176   -0.7846   -1.5950 H   0  0  0  0  0  0  0  0  0  0  0  0
   -0.7992    0.6466   -2.3932 H   0  0  0  0  0  0  0  0  0  0  0  0
   -1.3476    0.9671   -0.7379 H   0  0  0  0  0  0  0  0  0  0  0  0
   -1.9876    2.8205   -2.1580 H   0  0  0  0  0  0  0  0  0  0  0  0
   -0.7755    3.3662   -1.0107 H   0  0  0  0  0  0  0  0  0  0  0  0
   -0.2255    2.6387   -3.9424 H   0  0  0  0  0  0  0  0  0  0  0  0
   -0.2967    4.2772   -3.2895 H   0  0  0  0  0  0  0  0  0  0  0  0
    0.9932    3.1794   -2.7861 H   0  0  0  0  0  0  0  0  0  0  0  0
  1  2  1  0
  1  5  1  0
  1  6  1  0
  1  7  1  0
  2  3  1  0
  3  4  1  0
  3  8  1  0
  3  9  1  0
  4 10  1  0
  4 11  1  0
  4 12  1  0
 13 14  1  0
 13 19  1  0
 13 20  1  0
 13 21  1  0
 14 15  1  0
 14 22  1  0
 15 16  1  0
 16 17  1  0
 16 23  1  0
 16 24  1  0
 17 18  1  0
 17 25  1  0
 17 26  1  0
 18 27  1  0
 18 28  1  0
 18 29  1  0
M  RAD  1  14   2
M  END
>  <reaction>  (12) 
rmg_rxn_523

>  <mol_properties>  (12) 
{"0": {"label": "*3", "atom_type": "Cs"}, "1": {"label": "*4", "atom_type": "S2s"}, "4": {"label": "*2", "atom_type": "H0"}, "13": {"label": "*1", "atom_type": "Cs"}, "14": {"label": "*0", "atom_type": "O2s"}}

>  <type>  (12) 
unop_8

>  <geom_source>  (12) 
Heuristics

$$$$

     RDKit          3D

 29 27  0  0  0  0  0  0  0  0999 V2000
    1.1446   -0.1953    1.9265 C   0  0  0  0  0  0  0  0  0  0  0  0
   -0.4985   -0.7742    2.3842 S   0  0  0  0  0  0  0  0  0  0  0  0
   -0.4985   -2.4143    1.6206 C   0  0  0  0  0  0  0  0  0  0  0  0
   -0.4985   -2.4143    0.1002 C   0  0  0  0  0  0  0  0  0  0  0  0
    1.2594   -0.0197    0.6360 H   0  0  0  0  0  0  0  0  0  0  0  0
    1.9116   -0.8884    2.2746 H   0  0  0  0  0  0  0  0  0  0  0  0
    1.2911    0.7640    2.4208 H   0  0  0  0  0  0  0  0  0  0  0  0
   -1.4025   -2.8923    2.0015 H   0  0  0  0  0  0  0  0  0  0  0  0
    0.3507   -2.9792    2.0118 H   0  0  0  0  0  0  0  0  0  0  0  0
    0.4085   -1.9581   -0.2991 H   0  0  0  0  0  0  0  0  0  0  0  0
   -1.3545   -1.8611   -0.2875 H   0  0  0  0  0  0  0  0  0  0  0  0
   -0.5469   -3.4375   -0.2793 H   0  0  0  0  0  0  0  0  0  0  0  0
    2.6540    0.8636   -0.2791 C   0  0  0  0  0  0  0  0  0  0  0  0
    1.3754    0.1577   -0.6670 C   0  0  0  0  0  3  0  0  0  0  0  0
    0.4423    1.1119   -1.1055 O   0  0  0  0  0  0  0  0  0  0  0  0
   -0.7870    0.5513   -1.4920 C   0  0  0  0  0  0  0  0  0  0  0  0
   -1.7074    1.6497   -1.9835 C   0  0  0  0  0  0  0  0  0  0  0  0
   -1.1842    2.3577   -3.2262 C   0  0  0  0  0  0  0  0  0  0  0  0
    2.4675    1.5790    0.5226 H   0  0  0  0  0  0  0  0  0  0  0  0
    3.3951    0.1409    0.0661 H   0  0  0  0  0  0  0  0  0  0  0  0
    3.0668    1.4029   -1.1324 H   0  0  0  0  0  0  0  0  0  0  0  0
    1.5671   -0.5736   -1.4660 H   0  0  0  0  0  0  0  0  0  0  0  0
   -0.6260   -0.1917   -2.2892 H   0  0  0  0  0  0  0  0  0  0  0  0
   -1.2429    0.0242   -0.6411 H   0  0  0  0  0  0  0  0  0  0  0  0
   -2.6844    1.2032   -2.1881 H   0  0  0  0  0  0  0  0  0  0  0  0
   -1.8516    2.3699   -1.1740 H   0  0  0  0  0  0  0  0  0  0  0  0
   -1.0579    1.6530   -4.0520 H   0  0  0  0  0  0  0  0  0  0  0  0
   -1.8739    3.1369   -3.5538 H   0  0  0  0  0  0  0  0  0  0  0  0
   -0.2168    2.8195   -3.0290 H   0  0  0  0  0  0  0  0  0  0  0  0
  1  2  1  0
  1  5  1  0
  1  6  1  0
  1  7  1  0
  2  3  1  0
  3  4  1  0
  3  8  1  0
  3  9  1  0
  4 10  1  0
  4 11  1  0
  4 12  1  0
 13 14  1  0
 13 19  1  0
 13 20  1  0
 13 21  1  0
 14 15  1  0
 14 22  1  0
 15 16  1  0
 16 17  1  0
 16 23  1  0
 16 24  1  0
 17 18  1  0
 17 25  1  0
 17 26  1  0
 18 27  1  0
 18 28  1  0
 18 29  1  0
M  RAD  1  14   2
M  END
>  <reaction>  (13) 
rmg_rxn_523

>  <mol_properties>  (13) 
{"0": {"label": "*3", "atom_type": "Cs"}, "1": {"label": "*4", "atom_type": "S2s"}, "4": {"label": "*2", "atom_type": "H0"}, "13": {"label": "*1", "atom_type": "Cs"}, "14": {"label": "*0", "atom_type": "O2s"}}

>  <type>  (13) 
unop_9

>  <geom_source>  (13) 
Heuristics

$$$$

     RDKit          3D

 29 27  0  0  0  0  0  0  0  0999 V2000
   -0.4389    0.3091    1.6850 C   0  0  0  0  0  0  0  0  0  0  0  0
   -2.0820   -0.2697    2.1428 S   0  0  0  0  0  0  0  0  0  0  0  0
   -2.0820   -1.9098    1.3792 C   0  0  0  0  0  0  0  0  0  0  0  0
   -2.0820   -1.9098   -0.1412 C   0  0  0  0  0  0  0  0  0  0  0  0
   -0.3241    0.4848    0.3946 H   0  0  0  0  0  0  0  0  0  0  0  0
    0.3281   -0.3839    2.0331 H   0  0  0  0  0  0  0  0  0  0  0  0
   -0.2924    1.2685    2.1794 H   0  0  0  0  0  0  0  0  0  0  0  0
   -2.9861   -2.3878    1.7601 H   0  0  0  0  0  0  0  0  0  0  0  0
   -1.2328   -2.4747    1.7704 H   0  0  0  0  0  0  0  0  0  0  0  0
   -1.1750   -1.4536   -0.5405 H   0  0  0  0  0  0  0  0  0  0  0  0
   -2.9380   -1.3566   -0.5289 H   0  0  0  0  0  0  0  0  0  0  0  0
   -2.1305   -2.9331   -0.5207 H   0  0  0  0  0  0  0  0  0  0  0  0
   -1.1322    0.2779   -2.0406 C   0  0  0  0  0  0  0  0  0  0  0  0
   -0.2081    0.6622   -0.9085 C   0  0  0  0  0  3  0  0  0  0  0  0
    1.1200    0.4357   -1.3065 O   0  0  0  0  0  0  0  0  0  0  0  0
    2.0614    0.7654   -0.3165 C   0  0  0  0  0  0  0  0  0  0  0  0
    3.4581    0.5247   -0.8519 C   0  0  0  0  0  0  0  0  0  0  0  0
    3.8041    1.4105   -2.0414 C   0  0  0  0  0  0  0  0  0  0  0  0
   -1.0077   -0.7753   -2.2949 H   0  0  0  0  0  0  0  0  0  0  0  0
   -2.1716    0.4451   -1.7537 H   0  0  0  0  0  0  0  0  0  0  0  0
   -0.9174    0.8739   -2.9283 H   0  0  0  0  0  0  0  0  0  0  0  0
   -0.3444    1.7211   -0.6434 H   0  0  0  0  0  0  0  0  0  0  0  0
    1.9450    1.8214   -0.0254 H   0  0  0  0  0  0  0  0  0  0  0  0
    1.8880    0.1572    0.5834 H   0  0  0  0  0  0  0  0  0  0  0  0
    4.1653    0.6974   -0.0358 H   0  0  0  0  0  0  0  0  0  0  0  0
    3.5465   -0.5287   -1.1301 H   0  0  0  0  0  0  0  0  0  0  0  0
    3.7431    2.4676   -1.7708 H   0  0  0  0  0  0  0  0  0  0  0  0
    4.8169    1.2138   -2.3960 H   0  0  0  0  0  0  0  0  0  0  0  0
    3.1139    1.2356   -2.8666 H   0  0  0  0  0  0  0  0  0  0  0  0
  1  2  1  0
  1  5  1  0
  1  6  1  0
  1  7  1  0
  2  3  1  0
  3  4  1  0
  3  8  1  0
  3  9  1  0
  4 10  1  0
  4 11  1  0
  4 12  1  0
 13 14  1  0
 13 19  1  0
 13 20  1  0
 13 21  1  0
 14 15  1  0
 14 22  1  0
 15 16  1  0
 16 17  1  0
 16 23  1  0
 16 24  1  0
 17 18  1  0
 17 25  1  0
 17 26  1  0
 18 27  1  0
 18 28  1  0
 18 29  1  0
M  RAD  1  14   2
M  END
>  <reaction>  (14) 
rmg_rxn_523

>  <mol_properties>  (14) 
{"0": {"label": "*3", "atom_type": "Cs"}, "1": {"label": "*4", "atom_type": "S2s"}, "4": {"label": "*2", "atom_type": "H0"}, "13": {"label": "*1", "atom_type": "Cs"}, "14": {"label": "*0", "atom_type": "O2s"}}

>  <type>  (14) 
unop_10

>  <geom_source>  (14) 
Heuristics

$$$$

     RDKit          3D

 29 26  0  0  0  0  0  0  0  0999 V2000
    1.2102    0.6973    1.9697 C   0  0  0  0  0  0  0  0  0  0  0  0
   -0.4329    0.1184    2.4275 S   0  0  0  0  0  0  0  0  0  0  0  0
   -0.4329   -1.5217    1.6639 C   0  0  0  0  0  3  0  0  0  0  0  0
   -0.4329   -1.5217    0.1435 C   0  0  0  0  0  0  0  0  0  0  0  0
    1.3250    0.8729    0.6793 H   0  0  0  0  0  0  0  0  0  0  0  0
    1.9772    0.0042    2.3178 H   0  0  0  0  0  0  0  0  0  0  0  0
    1.3567    1.6567    2.4641 H   0  0  0  0  0  0  0  0  0  0  0  0
   -1.3370   -1.9997    2.0448 H   0  0  0  0  0  0  0  0  0  0  0  0
    0.4163   -2.0866    2.0551 H   0  0  0  0  0  0  0  0  0  0  0  0
    0.4741   -1.0655   -0.2558 H   0  0  0  0  0  0  0  0  0  0  0  0
   -1.2889   -0.9685   -0.2442 H   0  0  0  0  0  0  0  0  0  0  0  0
   -0.4813   -2.5449   -0.2360 H   0  0  0  0  0  0  0  0  0  0  0  0
    1.7910    2.4877   -0.9319 C   0  0  0  0  0  0  0  0  0  0  0  0
    1.4410    1.0503   -0.6237 C   0  0  0  0  0  3  0  0  0  0  0  0
    0.2308    0.7287   -1.2606 O   0  0  0  0  0  3  0  0  0  0  0  0
   -0.1821   -0.5954   -1.0344 C   0  0  0  0  0  0  0  0  0  0  0  0
   -1.4689   -0.8561   -1.7902 C   0  0  0  0  0  0  0  0  0  0  0  0
   -1.3099   -0.7410   -3.3004 C   0  0  0  0  0  0  0  0  0  0  0  0
    1.0076    3.1569   -0.5744 H   0  0  0  0  0  0  0  0  0  0  0  0
    2.7291    2.7609   -0.4462 H   0  0  0  0  0  0  0  0  0  0  0  0
    1.9024    2.6318   -2.0072 H   0  0  0  0  0  0  0  0  0  0  0  0
    2.2382    0.3773   -0.9722 H   0  0  0  0  0  0  0  0  0  0  0  0
    0.6008   -1.2945   -1.3687 H   0  0  0  0  0  0  0  0  0  0  0  0
   -0.3318   -0.7629    0.0424 H   0  0  0  0  0  0  0  0  0  0  0  0
   -1.8183   -1.8575   -1.5239 H   0  0  0  0  0  0  0  0  0  0  0  0
   -2.2272   -0.1520   -1.4380 H   0  0  0  0  0  0  0  0  0  0  0  0
   -0.5713   -1.4566   -3.6702 H   0  0  0  0  0  0  0  0  0  0  0  0
   -2.2534   -0.9399   -3.8109 H   0  0  0  0  0  0  0  0  0  0  0  0
   -0.9761    0.2587   -3.5784 H   0  0  0  0  0  0  0  0  0  0  0  0
  1  2  1  0
  1  5  1  0
  1  6  1  0
  1  7  1  0
  2  3  1  0
  3  8  1  0
  3  9  1  0
  4 10  1  0
  4 11  1  0
  4 12  1  0
  4 24  1  0
 13 14  1  0
 13 19  1  0
 13 20  1  0
 13 21  1  0
 14 15  1  0
 14 22  1  0
 15 16  2  3
 16 17  1  0
 16 23  1  0
 17 18  1  0
 17 25  1  0
 17 26  1  0
 18 27  1  0
 18 28  1  0
 18 29  1  0
M  CHG  2  14  -1  15   1
M  RAD  1   3   2
M  END
>  <reaction>  (15) 
rmg_rxn_523

>  <mol_properties>  (15) 
{"0": {"label": "*3", "atom_type": "Cs"}, "1": {"label": "*4", "atom_type": "S2s"}, "4": {"label": "*2", "atom_type": "H0"}, "13": {"label": "*1", "atom_type": "Cs"}, "14": {"label": "*0", "atom_type": "O2s"}}

>  <type>  (15) 
unop_11

>  <geom_source>  (15) 
Heuristics

$$$$

     RDKit          3D

 29 27  0  0  0  0  0  0  0  0999 V2000
   -2.3027    0.4857   -1.4044 S   0  0  0  0  0  0  0  0  0  0  0  0
    1.5514   -0.5786   -1.0102 O   0  0  0  0  0  0  0  0  0  0  0  0
    2.3305    1.3251    0.2625 C   0  0  0  0  0  0  0  0  0  0  0  0
    2.6749   -0.0424   -0.3359 C   0  0  0  0  0  0  0  0  0  0  0  0
    0.7912   -1.4184   -0.1609 C   0  0  0  0  0  3  0  0  0  0  0  0
   -4.0289    0.5073   -0.8028 C   0  0  0  0  0  0  0  0  0  0  0  0
    3.5449    1.9569    0.9365 C   0  0  0  0  0  0  0  0  0  0  0  0
    1.2301   -2.8690   -0.3171 C   0  0  0  0  0  0  0  0  0  0  0  0
   -4.1769    1.4520    0.3828 C   0  0  0  0  0  0  0  0  0  0  0  0
   -1.7194   -0.8062   -0.2591 C   0  0  0  0  0  0  0  0  0  0  0  0
    1.5191    1.2143    1.0133 H   0  0  0  0  0  0  0  0  0  0  0  0
    1.9700    2.0003   -0.5436 H   0  0  0  0  0  0  0  0  0  0  0  0
    0.8275   -1.1175    0.9124 H   0  0  0  0  0  0  0  0  0  0  0  0
   -0.5186   -1.3329   -0.5440 H   0  0  0  0  0  0  0  0  0  0  0  0
    3.4840    0.0929   -1.0851 H   0  0  0  0  0  0  0  0  0  0  0  0
    3.0835   -0.7233    0.4480 H   0  0  0  0  0  0  0  0  0  0  0  0
   -4.3686   -0.5128   -0.5235 H   0  0  0  0  0  0  0  0  0  0  0  0
   -4.6777    0.8675   -1.6288 H   0  0  0  0  0  0  0  0  0  0  0  0
    0.5786   -3.5220    0.3003 H   0  0  0  0  0  0  0  0  0  0  0  0
    1.1429   -3.1769   -1.3802 H   0  0  0  0  0  0  0  0  0  0  0  0
    2.2819   -2.9943    0.0149 H   0  0  0  0  0  0  0  0  0  0  0  0
    4.3624    2.1050    0.1990 H   0  0  0  0  0  0  0  0  0  0  0  0
    3.9082    1.3088    1.7624 H   0  0  0  0  0  0  0  0  0  0  0  0
    3.2639    2.9450    1.3580 H   0  0  0  0  0  0  0  0  0  0  0  0
   -5.2419    1.4929    0.6942 H   0  0  0  0  0  0  0  0  0  0  0  0
   -3.8487    2.4747    0.0999 H   0  0  0  0  0  0  0  0  0  0  0  0
   -3.5711    1.0978    1.2421 H   0  0  0  0  0  0  0  0  0  0  0  0
   -2.2704   -1.7550   -0.4259 H   0  0  0  0  0  0  0  0  0  0  0  0
   -1.8201   -0.4771    0.7951 H   0  0  0  0  0  0  0  0  0  0  0  0
  1 10  1  0
  1  6  1  0
  2  5  1  0
  2  4  1  0
  3  7  1  0
  3  4  1  0
  3 11  1  0
  3 12  1  0
  4 15  1  0
  4 16  1  0
  5  8  1  0
  5 13  1  0
  6  9  1  0
  6 17  1  0
  6 18  1  0
  7 22  1  0
  7 23  1  0
  7 24  1  0
  8 19  1  0
  8 20  1  0
  8 21  1  0
  9 25  1  0
  9 26  1  0
  9 27  1  0
 10 14  1  0
 10 28  1  0
 10 29  1  0
M  RAD  1   5   2
M  END
>  <reaction>  (16) 
rmg_rxn_523

>  <mol_properties>  (16) 
{"0": {"label": "*3", "atom_type": "Cs"}, "1": {"label": "*4", "atom_type": "S2s"}, "4": {"label": "*2", "atom_type": "H0"}, "13": {"label": "*1", "atom_type": "Cs"}, "14": {"label": "*0", "atom_type": "O2s"}}

>  <type>  (16) 
unop_12

>  <geom_source>  (16) 
AutoTST

$$$$

     RDKit          3D

 29 27  0  0  0  0  0  0  0  0999 V2000
    1.2982    0.2383    1.9664 C   0  0  0  0  0  0  0  0  0  0  0  0
   -0.3449   -0.3405    2.4242 S   0  0  0  0  0  0  0  0  0  0  0  0
   -0.3449   -1.9806    1.6605 C   0  0  0  0  0  0  0  0  0  0  0  0
   -0.3449   -1.9806    0.1401 C   0  0  0  0  0  0  0  0  0  0  0  0
    1.4131    0.4140    0.6760 H   0  0  0  0  0  0  0  0  0  0  0  0
    2.0652   -0.4547    2.3145 H   0  0  0  0  0  0  0  0  0  0  0  0
    1.4447    1.1977    2.4607 H   0  0  0  0  0  0  0  0  0  0  0  0
   -1.2489   -2.4586    2.0414 H   0  0  0  0  0  0  0  0  0  0  0  0
    0.5043   -2.5455    2.0518 H   0  0  0  0  0  0  0  0  0  0  0  0
    0.5621   -1.5245   -0.2592 H   0  0  0  0  0  0  0  0  0  0  0  0
   -1.2009   -1.4274   -0.2476 H   0  0  0  0  0  0  0  0  0  0  0  0
   -0.3933   -3.0039   -0.2394 H   0  0  0  0  0  0  0  0  0  0  0  0
    2.3905    1.8285   -0.5220 C   0  0  0  0  0  0  0  0  0  0  0  0
    1.5290    0.5914   -0.6271 C   0  0  0  0  0  3  0  0  0  0  0  0
    0.2851    0.9466   -1.1748 O   0  0  0  0  0  0  0  0  0  0  0  0
   -0.5925   -0.1420   -1.3147 C   0  0  0  0  0  0  0  0  0  0  0  0
   -1.8850    0.3330   -1.9464 C   0  0  0  0  0  0  0  0  0  0  0  0
   -1.6975    0.8772   -3.3564 C   0  0  0  0  0  0  0  0  0  0  0  0
    1.9148    2.5721    0.1183 H   0  0  0  0  0  0  0  0  0  0  0  0
    3.3636    1.5766   -0.0977 H   0  0  0  0  0  0  0  0  0  0  0  0
    2.5455    2.2709   -1.5067 H   0  0  0  0  0  0  0  0  0  0  0  0
    2.0161   -0.1636   -1.2618 H   0  0  0  0  0  0  0  0  0  0  0  0
   -0.1285   -0.9194   -1.9422 H   0  0  0  0  0  0  0  0  0  0  0  0
   -0.7918   -0.5919   -0.3310 H   0  0  0  0  0  0  0  0  0  0  0  0
   -2.5829   -0.5088   -1.9577 H   0  0  0  0  0  0  0  0  0  0  0  0
   -2.3243    1.1001   -1.3034 H   0  0  0  0  0  0  0  0  0  0  0  0
   -1.2808    0.1127   -4.0169 H   0  0  0  0  0  0  0  0  0  0  0  0
   -2.6479    1.2041   -3.7807 H   0  0  0  0  0  0  0  0  0  0  0  0
   -1.0146    1.7267   -3.3547 H   0  0  0  0  0  0  0  0  0  0  0  0
  1  2  1  0
  1  5  1  0
  1  6  1  0
  1  7  1  0
  2  3  1  0
  3  4  1  0
  3  8  1  0
  3  9  1  0
  4 10  1  0
  4 11  1  0
  4 12  1  0
 13 14  1  0
 13 19  1  0
 13 20  1  0
 13 21  1  0
 14 15  1  0
 14 22  1  0
 15 16  1  0
 16 17  1  0
 16 23  1  0
 16 24  1  0
 17 18  1  0
 17 25  1  0
 17 26  1  0
 18 27  1  0
 18 28  1  0
 18 29  1  0
M  RAD  1  14   2
M  END
>  <reaction>  (17) 
rmg_rxn_523

>  <mol_properties>  (17) 
{"0": {"label": "*3", "atom_type": "Cs"}, "1": {"label": "*4", "atom_type": "S2s"}, "4": {"label": "*2", "atom_type": "H0"}, "13": {"label": "*1", "atom_type": "Cs"}, "14": {"label": "*0", "atom_type": "O2s"}}

>  <type>  (17) 
unop_13

>  <geom_source>  (17) 
gaussian_log

$$$$
