
     RDKit          3D

  9  8  0  0  0  0  0  0  0  0999 V2000
   -1.0314    0.2323   -0.1227 C   0  0  0  0  0  0  0  0  0  0  0  0
    0.3094   -0.4511    0.0063 C   0  0  0  0  0  0  0  0  0  0  0  0
    0.3197   -1.7698    0.6841 N   0  0  0  0  0  0  0  0  0  0  0  0
   -0.7498   -2.1455    1.0557 O   0  0  0  0  0  0  0  0  0  0  0  0
   -1.4744    0.4198    0.8552 H   0  0  0  0  0  0  0  0  0  0  0  0
   -0.9073    1.1865   -0.6350 H   0  0  0  0  0  0  0  0  0  0  0  0
   -1.7319   -0.3778   -0.6927 H   0  0  0  0  0  0  0  0  0  0  0  0
    1.0375    0.1401    0.5713 H   0  0  0  0  0  0  0  0  0  0  0  0
    0.7826   -0.6494   -0.9609 H   0  0  0  0  0  0  0  0  0  0  0  0
  1  2  1  0
  1  5  1  0
  1  6  1  0
  1  7  1  0
  2  3  1  0
  2  8  1  0
  2  9  1  0
  3  4  2  0
M  END
>  <reaction>  (1) 
rmg_rxn_20

>  <mol_properties>  (1) 
{"1": {"label": "donator", "atom_type": "Cs"}, "7": {"label": "d_hydrogen", "atom_type": "H0"}}

>  <type>  (1) 
r1h

$$$$

     RDKit          3D

 14 13  0  0  0  0  0  0  0  0999 V2000
    2.5796   -0.5432    0.2329 C   0  0  0  0  0  3  0  0  0  0  0  0
    1.2594    0.0982    0.3029 C   0  0  0  0  0  0  0  0  0  0  0  0
   -0.0483   -1.0244    0.9576 S   0  0  0  0  0  0  0  0  0  0  0  0
   -0.0049   -2.3732   -0.2491 C   0  0  0  0  0  0  0  0  0  0  0  0
   -0.3891   -1.9781   -1.6653 C   0  0  0  0  0  0  0  0  0  0  0  0
    2.9359   -0.9798   -0.6903 H   0  0  0  0  0  0  0  0  0  0  0  0
    3.1327   -0.7454    1.1400 H   0  0  0  0  0  0  0  0  0  0  0  0
    0.9347    0.4858   -0.6621 H   0  0  0  0  0  0  0  0  0  0  0  0
    1.2442    0.9220    1.0193 H   0  0  0  0  0  0  0  0  0  0  0  0
    0.9819   -2.8380   -0.2257 H   0  0  0  0  0  0  0  0  0  0  0  0
   -0.7110   -3.1037    0.1493 H   0  0  0  0  0  0  0  0  0  0  0  0
    0.3274   -1.2737   -2.0913 H   0  0  0  0  0  0  0  0  0  0  0  0
   -0.4075   -2.8581   -2.3121 H   0  0  0  0  0  0  0  0  0  0  0  0
   -1.3749   -1.5123   -1.6865 H   0  0  0  0  0  0  0  0  0  0  0  0
  1  2  1  0
  1  6  1  0
  1  7  1  0
  2  3  1  0
  2  8  1  0
  2  9  1  0
  3  4  1  0
  4  5  1  0
  4 10  1  0
  4 11  1  0
  5 12  1  0
  5 13  1  0
  5 14  1  0
M  RAD  1   1   2
M  END
>  <reaction>  (2) 
rmg_rxn_20

>  <mol_properties>  (2) 
{"0": {"label": "acceptor", "atom_type": "Cs"}}

>  <type>  (2) 
r2

$$$$

     RDKit          3D

 15 14  0  0  0  0  0  0  0  0999 V2000
   -2.0554    0.0723   -0.4910 C   0  0  0  0  0  0  0  0  0  0  0  0
   -0.7461   -0.6266   -0.8178 C   0  0  0  0  0  0  0  0  0  0  0  0
    0.3249    0.2591   -1.9782 S   0  0  0  0  0  0  0  0  0  0  0  0
   -0.7172    0.3642   -3.4551 C   0  0  0  0  0  0  0  0  0  0  0  0
   -1.1375   -0.9737   -4.0409 C   0  0  0  0  0  0  0  0  0  0  0  0
   -2.7005    0.1427   -1.3684 H   0  0  0  0  0  0  0  0  0  0  0  0
   -2.6016   -0.4848    0.2733 H   0  0  0  0  0  0  0  0  0  0  0  0
   -1.8758    1.0825   -0.1213 H   0  0  0  0  0  0  0  0  0  0  0  0
   -0.1320   -0.7246    0.0789 H   0  0  0  0  0  0  0  0  0  0  0  0
   -0.9254   -1.6374   -1.1879 H   0  0  0  0  0  0  0  0  0  0  0  0
   -1.5873    0.9874   -3.2422 H   0  0  0  0  0  0  0  0  0  0  0  0
   -0.1021    0.9161   -4.1678 H   0  0  0  0  0  0  0  0  0  0  0  0
   -1.7876   -1.5224   -3.3574 H   0  0  0  0  0  0  0  0  0  0  0  0
   -0.2676   -1.5962   -4.2534 H   0  0  0  0  0  0  0  0  0  0  0  0
   -1.6916   -0.8229   -4.9700 H   0  0  0  0  0  0  0  0  0  0  0  0
  1  2  1  0
  1  6  1  0
  1  7  1  0
  1  8  1  0
  2  3  1  0
  2  9  1  0
  2 10  1  0
  3  4  1  0
  4  5  1  0
  4 11  1  0
  4 12  1  0
  5 13  1  0
  5 14  1  0
  5 15  1  0
M  END
>  <reaction>  (3) 
rmg_rxn_20

>  <mol_properties>  (3) 
{"0": {"label": "a_hydrogen", "atom_type": "H0"}, "1": {"label": "acceptor", "atom_type": "Cs"}}

>  <type>  (3) 
r2h

$$$$

     RDKit          3D

 23 21  0  0  0  0  0  0  0  0999 V2000
   -1.0921    1.8802   -1.2294 C   0  0  0  0  0  0  0  0  0  0  0  0
   -1.5135    1.1838    0.0390 C   0  0  0  0  0  0  0  0  0  0  0  0
   -2.0106    1.9854    1.1208 N   0  0  0  0  0  0  0  0  0  0  0  0
   -1.5834    3.1152    1.1574 O   0  0  0  0  0  0  0  0  0  0  0  0
   -0.3195    2.6219   -1.0304 H   0  0  0  0  0  0  0  0  0  0  0  0
   -0.7142    1.1433   -1.9379 H   0  0  0  0  0  0  0  0  0  0  0  0
   -1.9392    2.3943   -1.6876 H   0  0  0  0  0  0  0  0  0  0  0  0
   -0.4962    0.7009    0.5366 H   0  0  0  0  0  0  0  0  0  0  0  0
   -2.1652    0.3224   -0.0939 H   0  0  0  0  0  0  0  0  0  0  0  0
    0.8654    0.2351    0.9710 C   0  0  0  0  0  3  0  0  0  0  0  0
    1.4977   -0.4265   -0.2084 C   0  0  0  0  0  0  0  0  0  0  0  0
    0.4965   -1.6943   -1.0369 S   0  0  0  0  0  0  0  0  0  0  0  0
    0.1064   -2.8199    0.3263 C   0  0  0  0  0  0  0  0  0  0  0  0
    1.3128   -3.4441    1.0073 C   0  0  0  0  0  0  0  0  0  0  0  0
    0.5783   -0.3990    1.8045 H   0  0  0  0  0  0  0  0  0  0  0  0
    1.2909    1.1876    1.2738 H   0  0  0  0  0  0  0  0  0  0  0  0
    2.4595   -0.8673    0.0763 H   0  0  0  0  0  0  0  0  0  0  0  0
    1.7117    0.3033   -0.9908 H   0  0  0  0  0  0  0  0  0  0  0  0
   -0.5312   -2.3072    1.0487 H   0  0  0  0  0  0  0  0  0  0  0  0
   -0.5082   -3.5892   -0.1438 H   0  0  0  0  0  0  0  0  0  0  0  0
    1.9204   -2.6922    1.5138 H   0  0  0  0  0  0  0  0  0  0  0  0
    0.9891   -4.1649    1.7609 H   0  0  0  0  0  0  0  0  0  0  0  0
    1.9452   -3.9599    0.2841 H   0  0  0  0  0  0  0  0  0  0  0  0
  1  2  1  0
  1  5  1  0
  1  6  1  0
  1  7  1  0
  2  3  1  0
  2  8  1  0
  2  9  1  0
  3  4  2  0
 10 11  1  0
 10 15  1  0
 10 16  1  0
 11 12  1  0
 11 17  1  0
 11 18  1  0
 12 13  1  0
 13 14  1  0
 13 19  1  0
 13 20  1  0
 14 21  1  0
 14 22  1  0
 14 23  1  0
M  RAD  1  10   2
M  END
>  <reaction>  (4) 
rmg_rxn_20

>  <mol_properties>  (4) 
{"1": {"label": "*1", "atom_type": "Cs"}, "2": {"label": "*0", "atom_type": "N3d"}, "7": {"label": "*2", "atom_type": "H0"}, "9": {"label": "*3", "atom_type": "Cs"}, "10": {"label": "*4", "atom_type": "Cs"}}

>  <type>  (4) 
ts

$$$$

     RDKit          3D

 23 21  0  0  0  0  0  0  0  0999 V2000
   -2.4895   -0.0675   -2.1411 C   0  0  0  0  0  0  0  0  0  0  0  0
   -2.4895   -0.0675   -0.6306 C   0  0  0  0  0  0  0  0  0  0  0  0
   -2.4895    1.2585    0.0330 N   0  0  0  0  0  0  0  0  0  0  0  0
   -2.4895    2.1880   -0.7147 O   0  0  0  0  0  1  0  0  0  0  0  0
   -1.6093    0.4399   -2.5355 H   0  0  0  0  0  0  0  0  0  0  0  0
   -2.4895   -1.0946   -2.5063 H   0  0  0  0  0  0  0  0  0  0  0  0
   -3.3696    0.4399   -2.5355 H   0  0  0  0  0  0  0  0  0  0  0  0
   -1.4440   -0.6762   -0.1180 H   0  0  0  0  0  0  0  0  0  0  0  0
   -3.3607   -0.5748   -0.2034 H   0  0  0  0  0  0  0  0  0  0  0  0
   -0.4027   -1.2826    0.3926 C   0  0  0  0  0  0  0  0  0  0  0  0
    0.4084   -0.3323    1.2578 C   0  0  0  0  0  0  0  0  0  0  0  0
    1.7946    0.4734    0.4168 S   0  0  0  0  0  0  0  0  0  0  0  0
    2.8089   -0.9394   -0.0865 C   0  0  0  0  0  0  0  0  0  0  0  0
    3.3156   -1.8050    1.0553 C   0  0  0  0  0  0  0  0  0  0  0  0
    0.1903   -2.1442    0.0813 H   0  0  0  0  0  0  0  0  0  0  0  0
   -1.2629   -1.6609    0.9493 H   0  0  0  0  0  0  0  0  0  0  0  0
    0.7711   -0.8356    2.1556 H   0  0  0  0  0  0  0  0  0  0  0  0
   -0.2113    0.5010    1.5932 H   0  0  0  0  0  0  0  0  0  0  0  0
    2.2615   -1.5380   -0.8165 H   0  0  0  0  0  0  0  0  0  0  0  0
    3.6449   -0.4822   -0.6184 H   0  0  0  0  0  0  0  0  0  0  0  0
    2.4946   -2.3033    1.5735 H   0  0  0  0  0  0  0  0  0  0  0  0
    3.9822   -2.5820    0.6744 H   0  0  0  0  0  0  0  0  0  0  0  0
    3.8625   -1.2065    1.7847 H   0  0  0  0  0  0  0  0  0  0  0  0
  1  2  1  0
  1  5  1  0
  1  6  1  0
  1  7  1  0
  2  3  2  3
  2  9  1  0
  3  4  1  0
  8 10  1  0
 10 11  1  0
 10 15  1  0
 10 16  1  0
 11 12  1  0
 11 17  1  0
 11 18  1  0
 12 13  1  0
 13 14  1  0
 13 19  1  0
 13 20  1  0
 14 21  1  0
 14 22  1  0
 14 23  1  0
M  RAD  1   4   2
M  END
>  <reaction>  (5) 
rmg_rxn_20

>  <mol_properties>  (5) 
{"1": {"label": "*1", "atom_type": "Cs"}, "2": {"label": "*0", "atom_type": "N3d"}, "7": {"label": "*2", "atom_type": "H0"}, "9": {"label": "*3", "atom_type": "Cs"}, "10": {"label": "*4", "atom_type": "Cs"}}

>  <type>  (5) 
unop_1

>  <geom_source>  (5) 
Heuristics

$$$$

     RDKit          3D

 23 21  0  0  0  0  0  0  0  0999 V2000
   -1.9408    1.1024   -1.1764 C   0  0  0  0  0  0  0  0  0  0  0  0
   -1.9408    1.1024    0.3341 C   0  0  0  0  0  0  0  0  0  0  0  0
   -1.9408    2.4284    0.9977 N   0  0  0  0  0  0  0  0  0  0  0  0
   -1.9408    3.3579    0.2500 O   0  0  0  0  0  1  0  0  0  0  0  0
   -1.0606    1.6098   -1.5709 H   0  0  0  0  0  0  0  0  0  0  0  0
   -1.9408    0.0752   -1.5417 H   0  0  0  0  0  0  0  0  0  0  0  0
   -2.8209    1.6098   -1.5709 H   0  0  0  0  0  0  0  0  0  0  0  0
   -0.8953    0.4936    0.8467 H   0  0  0  0  0  0  0  0  0  0  0  0
   -2.8120    0.5951    0.7613 H   0  0  0  0  0  0  0  0  0  0  0  0
    0.1460   -0.1128    1.3572 C   0  0  0  0  0  0  0  0  0  0  0  0
    1.3494    0.0078    0.4370 C   0  0  0  0  0  0  0  0  0  0  0  0
    1.2748   -1.0119   -1.0573 S   0  0  0  0  0  0  0  0  0  0  0  0
    1.1721   -2.6849   -0.3728 C   0  0  0  0  0  0  0  0  0  0  0  0
    2.3524   -3.0991    0.4902 C   0  0  0  0  0  0  0  0  0  0  0  0
    0.0681   -1.1142    1.7838 H   0  0  0  0  0  0  0  0  0  0  0  0
    0.2324    0.5913    2.1878 H   0  0  0  0  0  0  0  0  0  0  0  0
    2.2748   -0.2036    0.9753 H   0  0  0  0  0  0  0  0  0  0  0  0
    1.4349    1.0255    0.0525 H   0  0  0  0  0  0  0  0  0  0  0  0
    0.2327   -2.7980    0.1709 H   0  0  0  0  0  0  0  0  0  0  0  0
    1.1029   -3.3226   -1.2557 H   0  0  0  0  0  0  0  0  0  0  0  0
    2.4130   -2.4981    1.3991 H   0  0  0  0  0  0  0  0  0  0  0  0
    2.2513   -4.1434    0.7942 H   0  0  0  0  0  0  0  0  0  0  0  0
    3.2910   -2.9859   -0.0534 H   0  0  0  0  0  0  0  0  0  0  0  0
  1  2  1  0
  1  5  1  0
  1  6  1  0
  1  7  1  0
  2  3  2  3
  2  9  1  0
  3  4  1  0
  8 10  1  0
 10 11  1  0
 10 15  1  0
 10 16  1  0
 11 12  1  0
 11 17  1  0
 11 18  1  0
 12 13  1  0
 13 14  1  0
 13 19  1  0
 13 20  1  0
 14 21  1  0
 14 22  1  0
 14 23  1  0
M  RAD  1   4   2
M  END
>  <reaction>  (6) 
rmg_rxn_20

>  <mol_properties>  (6) 
{"1": {"label": "*1", "atom_type": "Cs"}, "2": {"label": "*0", "atom_type": "N3d"}, "7": {"label": "*2", "atom_type": "H0"}, "9": {"label": "*3", "atom_type": "Cs"}, "10": {"label": "*4", "atom_type": "Cs"}}

>  <type>  (6) 
unop_2

>  <geom_source>  (6) 
Heuristics

$$$$

     RDKit          3D

 23 21  0  0  0  0  0  0  0  0999 V2000
   -2.2432   -0.2972   -2.5788 C   0  0  0  0  0  0  0  0  0  0  0  0
   -2.2432   -0.2972   -1.0683 C   0  0  0  0  0  0  0  0  0  0  0  0
   -2.2432    1.0287   -0.4047 N   0  0  0  0  0  0  0  0  0  0  0  0
   -2.2432    1.9583   -1.1524 O   0  0  0  0  0  1  0  0  0  0  0  0
   -1.3630    0.2101   -2.9733 H   0  0  0  0  0  0  0  0  0  0  0  0
   -2.2432   -1.3244   -2.9440 H   0  0  0  0  0  0  0  0  0  0  0  0
   -3.1233    0.2101   -2.9733 H   0  0  0  0  0  0  0  0  0  0  0  0
   -1.1977   -0.9060   -0.5557 H   0  0  0  0  0  0  0  0  0  0  0  0
   -3.1143   -0.8045   -0.6411 H   0  0  0  0  0  0  0  0  0  0  0  0
   -0.1564   -1.5124   -0.0451 C   0  0  0  0  0  0  0  0  0  0  0  0
    0.2181   -0.9091    1.2985 C   0  0  0  0  0  0  0  0  0  0  0  0
    1.2589    0.5697    1.2096 S   0  0  0  0  0  0  0  0  0  0  0  0
    2.7354   -0.0530    0.3667 C   0  0  0  0  0  0  0  0  0  0  0  0
    3.4664   -1.1699    1.0933 C   0  0  0  0  0  0  0  0  0  0  0  0
    0.7204   -1.8975   -0.5684 H   0  0  0  0  0  0  0  0  0  0  0  0
   -0.8477   -2.3466    0.0938 H   0  0  0  0  0  0  0  0  0  0  0  0
    0.6957   -1.6516    1.9399 H   0  0  0  0  0  0  0  0  0  0  0  0
   -0.6745   -0.5668    1.8248 H   0  0  0  0  0  0  0  0  0  0  0  0
    2.4740   -0.3542   -0.6491 H   0  0  0  0  0  0  0  0  0  0  0  0
    3.3746    0.8271    0.2789 H   0  0  0  0  0  0  0  0  0  0  0  0
    2.8566   -2.0728    1.1544 H   0  0  0  0  0  0  0  0  0  0  0  0
    4.3845   -1.4300    0.5618 H   0  0  0  0  0  0  0  0  0  0  0  0
    3.7273   -0.8685    2.1084 H   0  0  0  0  0  0  0  0  0  0  0  0
  1  2  1  0
  1  5  1  0
  1  6  1  0
  1  7  1  0
  2  3  2  3
  2  9  1  0
  3  4  1  0
  8 10  1  0
 10 11  1  0
 10 15  1  0
 10 16  1  0
 11 12  1  0
 11 17  1  0
 11 18  1  0
 12 13  1  0
 13 14  1  0
 13 19  1  0
 13 20  1  0
 14 21  1  0
 14 22  1  0
 14 23  1  0
M  RAD  1   4   2
M  END
>  <reaction>  (7) 
rmg_rxn_20

>  <mol_properties>  (7) 
{"1": {"label": "*1", "atom_type": "Cs"}, "2": {"label": "*0", "atom_type": "N3d"}, "7": {"label": "*2", "atom_type": "H0"}, "9": {"label": "*3", "atom_type": "Cs"}, "10": {"label": "*4", "atom_type": "Cs"}}

>  <type>  (7) 
unop_3

>  <geom_source>  (7) 
Heuristics

$$$$

     RDKit          3D

 23 21  0  0  0  0  0  0  0  0999 V2000
   -0.4960    1.4410   -2.0271 C   0  0  0  0  0  0  0  0  0  0  0  0
   -0.4960    1.4410   -0.5166 C   0  0  0  0  0  0  0  0  0  0  0  0
   -0.4960    2.7669    0.1470 N   0  0  0  0  0  0  0  0  0  0  0  0
   -0.4960    3.6965   -0.6007 O   0  0  0  0  0  1  0  0  0  0  0  0
    0.3841    1.9483   -2.4216 H   0  0  0  0  0  0  0  0  0  0  0  0
   -0.4960    0.4138   -2.3923 H   0  0  0  0  0  0  0  0  0  0  0  0
   -1.3762    1.9483   -2.4216 H   0  0  0  0  0  0  0  0  0  0  0  0
    0.5494    0.8322   -0.0040 H   0  0  0  0  0  0  0  0  0  0  0  0
   -1.3672    0.9337   -0.0894 H   0  0  0  0  0  0  0  0  0  0  0  0
    1.5907    0.2258    0.5066 C   0  0  0  0  0  0  0  0  0  0  0  0
    1.6431   -1.2273    0.0647 C   0  0  0  0  0  0  0  0  0  0  0  0
    0.0521   -1.9329   -0.4343 S   0  0  0  0  0  0  0  0  0  0  0  0
   -0.9286   -1.7710    1.0790 C   0  0  0  0  0  0  0  0  0  0  0  0
   -0.3766   -2.5142    2.2843 C   0  0  0  0  0  0  0  0  0  0  0  0
    1.0064    0.3445    1.4206 H   0  0  0  0  0  0  0  0  0  0  0  0
    2.5978    0.5960    0.7111 H   0  0  0  0  0  0  0  0  0  0  0  0
    2.0922   -1.8539    0.8371 H   0  0  0  0  0  0  0  0  0  0  0  0
    2.2645   -1.3328   -0.8261 H   0  0  0  0  0  0  0  0  0  0  0  0
   -1.0746   -0.7137    1.3060 H   0  0  0  0  0  0  0  0  0  0  0  0
   -1.9050   -2.1701    0.7993 H   0  0  0  0  0  0  0  0  0  0  0  0
    0.5817   -2.1012    2.6037 H   0  0  0  0  0  0  0  0  0  0  0  0
   -1.0659   -2.4326    3.1277 H   0  0  0  0  0  0  0  0  0  0  0  0
   -0.2308   -3.5708    2.0570 H   0  0  0  0  0  0  0  0  0  0  0  0
  1  2  1  0
  1  5  1  0
  1  6  1  0
  1  7  1  0
  2  3  2  3
  2  9  1  0
  3  4  1  0
  8 10  1  0
 10 11  1  0
 10 15  1  0
 10 16  1  0
 11 12  1  0
 11 17  1  0
 11 18  1  0
 12 13  1  0
 13 14  1  0
 13 19  1  0
 13 20  1  0
 14 21  1  0
 14 22  1  0
 14 23  1  0
M  RAD  1   4   2
M  END
>  <reaction>  (8) 
rmg_rxn_20

>  <mol_properties>  (8) 
{"1": {"label": "*1", "atom_type": "Cs"}, "2": {"label": "*0", "atom_type": "N3d"}, "7": {"label": "*2", "atom_type": "H0"}, "9": {"label": "*3", "atom_type": "Cs"}, "10": {"label": "*4", "atom_type": "Cs"}}

>  <type>  (8) 
unop_4

>  <geom_source>  (8) 
Heuristics

$$$$

     RDKit          3D

 23 21  0  0  0  0  0  0  0  0999 V2000
   -1.6059   -0.4137   -3.0198 C   0  0  0  0  0  0  0  0  0  0  0  0
   -1.6059   -0.4137   -1.5093 C   0  0  0  0  0  0  0  0  0  0  0  0
   -1.6059    0.9122   -0.8457 N   0  0  0  0  0  0  0  0  0  0  0  0
   -1.6059    1.8418   -1.5934 O   0  0  0  0  0  1  0  0  0  0  0  0
   -0.7257    0.0937   -3.4143 H   0  0  0  0  0  0  0  0  0  0  0  0
   -1.6059   -1.4409   -3.3851 H   0  0  0  0  0  0  0  0  0  0  0  0
   -2.4860    0.0937   -3.4143 H   0  0  0  0  0  0  0  0  0  0  0  0
   -0.5604   -1.0225   -0.9967 H   0  0  0  0  0  0  0  0  0  0  0  0
   -2.4771   -0.9210   -1.0822 H   0  0  0  0  0  0  0  0  0  0  0  0
    0.4809   -1.6289   -0.4862 C   0  0  0  0  0  0  0  0  0  0  0  0
    0.4341   -1.6016    1.0326 C   0  0  0  0  0  0  0  0  0  0  0  0
    0.2776    0.0475    1.7636 S   0  0  0  0  0  0  0  0  0  0  0  0
    1.7740    0.8732    1.1659 C   0  0  0  0  0  0  0  0  0  0  0  0
    3.0799    0.2266    1.5972 C   0  0  0  0  0  0  0  0  0  0  0  0
    1.3784   -1.1387   -0.8670 H   0  0  0  0  0  0  0  0  0  0  0  0
    0.4930   -2.6600   -0.8462 H   0  0  0  0  0  0  0  0  0  0  0  0
    1.3023   -2.1070    1.4587 H   0  0  0  0  0  0  0  0  0  0  0  0
   -0.4479   -2.1313    1.3965 H   0  0  0  0  0  0  0  0  0  0  0  0
    1.7266    0.9698    0.0799 H   0  0  0  0  0  0  0  0  0  0  0  0
    1.6946    1.8818    1.5749 H   0  0  0  0  0  0  0  0  0  0  0  0
    3.1954   -0.7682    1.1636 H   0  0  0  0  0  0  0  0  0  0  0  0
    3.9285    0.8291    1.2653 H   0  0  0  0  0  0  0  0  0  0  0  0
    3.1269    0.1302    2.6824 H   0  0  0  0  0  0  0  0  0  0  0  0
  1  2  1  0
  1  5  1  0
  1  6  1  0
  1  7  1  0
  2  3  2  3
  2  9  1  0
  3  4  1  0
  8 10  1  0
 10 11  1  0
 10 15  1  0
 10 16  1  0
 11 12  1  0
 11 17  1  0
 11 18  1  0
 12 13  1  0
 13 14  1  0
 13 19  1  0
 13 20  1  0
 14 21  1  0
 14 22  1  0
 14 23  1  0
M  RAD  1   4   2
M  END
>  <reaction>  (9) 
rmg_rxn_20

>  <mol_properties>  (9) 
{"1": {"label": "*1", "atom_type": "Cs"}, "2": {"label": "*0", "atom_type": "N3d"}, "7": {"label": "*2", "atom_type": "H0"}, "9": {"label": "*3", "atom_type": "Cs"}, "10": {"label": "*4", "atom_type": "Cs"}}

>  <type>  (9) 
unop_5

>  <geom_source>  (9) 
Heuristics

$$$$

     RDKit          3D

 23 21  0  0  0  0  0  0  0  0999 V2000
   -0.3215    1.1447   -2.5260 C   0  0  0  0  0  0  0  0  0  0  0  0
   -0.3215    1.1447   -1.0156 C   0  0  0  0  0  0  0  0  0  0  0  0
   -0.3215    2.4707   -0.3520 N   0  0  0  0  0  0  0  0  0  0  0  0
   -0.3215    3.4002   -1.0997 O   0  0  0  0  0  1  0  0  0  0  0  0
    0.5587    1.6521   -2.9205 H   0  0  0  0  0  0  0  0  0  0  0  0
   -0.3215    0.1176   -2.8913 H   0  0  0  0  0  0  0  0  0  0  0  0
   -1.2016    1.6521   -2.9205 H   0  0  0  0  0  0  0  0  0  0  0  0
    0.7240    0.5359   -0.5030 H   0  0  0  0  0  0  0  0  0  0  0  0
   -1.1927    0.6374   -0.5884 H   0  0  0  0  0  0  0  0  0  0  0  0
    1.7653   -0.0704    0.0076 C   0  0  0  0  0  0  0  0  0  0  0  0
    1.4827   -1.5486    0.2193 C   0  0  0  0  0  0  0  0  0  0  0  0
   -0.2676   -2.0084    0.1629 S   0  0  0  0  0  0  0  0  0  0  0  0
   -0.9619   -1.0347    1.5224 C   0  0  0  0  0  0  0  0  0  0  0  0
   -0.3801   -1.3396    2.8929 C   0  0  0  0  0  0  0  0  0  0  0  0
    1.3576    0.5344    0.8193 H   0  0  0  0  0  0  0  0  0  0  0  0
    2.8423    0.1083   -0.0251 H   0  0  0  0  0  0  0  0  0  0  0  0
    1.9205   -1.8992    1.1553 H   0  0  0  0  0  0  0  0  0  0  0  0
    1.9323   -2.1409   -0.5793 H   0  0  0  0  0  0  0  0  0  0  0  0
   -0.8753    0.0278    1.2894 H   0  0  0  0  0  0  0  0  0  0  0  0
   -2.0258   -1.2763    1.4975 H   0  0  0  0  0  0  0  0  0  0  0  0
    0.6748   -1.0657    2.9489 H   0  0  0  0  0  0  0  0  0  0  0  0
   -0.9073   -0.7718    3.6628 H   0  0  0  0  0  0  0  0  0  0  0  0
   -0.4667   -2.4015    3.1253 H   0  0  0  0  0  0  0  0  0  0  0  0
  1  2  1  0
  1  5  1  0
  1  6  1  0
  1  7  1  0
  2  3  2  3
  2  9  1  0
  3  4  1  0
  8 10  1  0
 10 11  1  0
 10 15  1  0
 10 16  1  0
 11 12  1  0
 11 17  1  0
 11 18  1  0
 12 13  1  0
 13 14  1  0
 13 19  1  0
 13 20  1  0
 14 21  1  0
 14 22  1  0
 14 23  1  0
M  RAD  1   4   2
M  END
>  <reaction>  (10) 
rmg_rxn_20

>  <mol_properties>  (10) 
{"1": {"label": "*1", "atom_type": "Cs"}, "2": {"label": "*0", "atom_type": "N3d"}, "7": {"label": "*2", "atom_type": "H0"}, "9": {"label": "*3", "atom_type": "Cs"}, "10": {"label": "*4", "atom_type": "Cs"}}

>  <type>  (10) 
unop_6

>  <geom_source>  (10) 
Heuristics

$$$$

     RDKit          3D

 23 21  0  0  0  0  0  0  0  0999 V2000
   -0.3875    0.6489   -2.9699 C   0  0  0  0  0  0  0  0  0  0  0  0
   -0.3875    0.6489   -1.4594 C   0  0  0  0  0  0  0  0  0  0  0  0
   -0.3875    1.9749   -0.7958 N   0  0  0  0  0  0  0  0  0  0  0  0
   -0.3875    2.9045   -1.5435 O   0  0  0  0  0  1  0  0  0  0  0  0
    0.4926    1.1563   -3.3644 H   0  0  0  0  0  0  0  0  0  0  0  0
   -0.3875   -0.3782   -3.3352 H   0  0  0  0  0  0  0  0  0  0  0  0
   -1.2676    1.1563   -3.3644 H   0  0  0  0  0  0  0  0  0  0  0  0
    0.6579    0.0402   -0.9468 H   0  0  0  0  0  0  0  0  0  0  0  0
   -1.2587    0.1416   -1.0323 H   0  0  0  0  0  0  0  0  0  0  0  0
    1.6992   -0.5662   -0.4363 C   0  0  0  0  0  0  0  0  0  0  0  0
    1.2731   -1.7407    0.4289 C   0  0  0  0  0  0  0  0  0  0  0  0
   -0.4761   -1.7513    0.8965 S   0  0  0  0  0  0  0  0  0  0  0  0
   -0.6339   -0.2012    1.8188 C   0  0  0  0  0  0  0  0  0  0  0  0
    0.2424   -0.0982    3.0561 C   0  0  0  0  0  0  0  0  0  0  0  0
    1.6150    0.3787    0.1032 H   0  0  0  0  0  0  0  0  0  0  0  0
    2.7425   -0.6783   -0.7397 H   0  0  0  0  0  0  0  0  0  0  0  0
    1.8896   -1.8076    1.3269 H   0  0  0  0  0  0  0  0  0  0  0  0
    1.4026   -2.6795   -0.1119 H   0  0  0  0  0  0  0  0  0  0  0  0
   -0.4602    0.6408    1.1466 H   0  0  0  0  0  0  0  0  0  0  0  0
   -1.6891   -0.1701    2.0952 H   0  0  0  0  0  0  0  0  0  0  0  0
    1.3020   -0.0865    2.7953 H   0  0  0  0  0  0  0  0  0  0  0  0
    0.0278    0.8265    3.5963 H   0  0  0  0  0  0  0  0  0  0  0  0
    0.0686   -0.9399    3.7275 H   0  0  0  0  0  0  0  0  0  0  0  0
  1  2  1  0
  1  5  1  0
  1  6  1  0
  1  7  1  0
  2  3  2  3
  2  9  1  0
  3  4  1  0
  8 10  1  0
 10 11  1  0
 10 15  1  0
 10 16  1  0
 11 12  1  0
 11 17  1  0
 11 18  1  0
 12 13  1  0
 13 14  1  0
 13 19  1  0
 13 20  1  0
 14 21  1  0
 14 22  1  0
 14 23  1  0
M  RAD  1   4   2
M  END
>  <reaction>  (11) 
rmg_rxn_20

>  <mol_properties>  (11) 
{"1": {"label": "*1", "atom_type": "Cs"}, "2": {"label": "*0", "atom_type": "N3d"}, "7": {"label": "*2", "atom_type": "H0"}, "9": {"label": "*3", "atom_type": "Cs"}, "10": {"label": "*4", "atom_type": "Cs"}}

>  <type>  (11) 
unop_7

>  <geom_source>  (11) 
Heuristics

$$$$

     RDKit          3D

 23 21  0  0  0  0  0  0  0  0999 V2000
   -2.5227    0.2337   -1.7041 C   0  0  0  0  0  0  0  0  0  0  0  0
   -2.5227    0.2337   -0.1936 C   0  0  0  0  0  0  0  0  0  0  0  0
   -2.5227    1.5596    0.4700 N   0  0  0  0  0  0  0  0  0  0  0  0
   -2.5227    2.4892   -0.2777 O   0  0  0  0  0  1  0  0  0  0  0  0
   -1.6426    0.7410   -2.0986 H   0  0  0  0  0  0  0  0  0  0  0  0
   -2.5227   -0.7935   -2.0694 H   0  0  0  0  0  0  0  0  0  0  0  0
   -3.4029    0.7410   -2.0986 H   0  0  0  0  0  0  0  0  0  0  0  0
   -1.4773   -0.3751    0.3190 H   0  0  0  0  0  0  0  0  0  0  0  0
   -3.3939   -0.2736    0.2335 H   0  0  0  0  0  0  0  0  0  0  0  0
   -0.4360   -0.9815    0.8295 C   0  0  0  0  0  0  0  0  0  0  0  0
    0.7101   -0.0062    1.0412 C   0  0  0  0  0  0  0  0  0  0  0  0
    1.9097    0.0699   -0.3128 S   0  0  0  0  0  0  0  0  0  0  0  0
    2.5322   -1.6294   -0.3670 C   0  0  0  0  0  0  0  0  0  0  0  0
    3.2061   -2.1073    0.9087 C   0  0  0  0  0  0  0  0  0  0  0  0
   -0.0818   -2.0132    0.7976 H   0  0  0  0  0  0  0  0  0  0  0  0
   -1.1533   -0.9066    1.6498 H   0  0  0  0  0  0  0  0  0  0  0  0
    1.2313   -0.2141    1.9771 H   0  0  0  0  0  0  0  0  0  0  0  0
    0.3333    1.0155    1.1116 H   0  0  0  0  0  0  0  0  0  0  0  0
    1.7244   -2.3032   -0.6573 H   0  0  0  0  0  0  0  0  0  0  0  0
    3.2447   -1.6184   -1.1934 H   0  0  0  0  0  0  0  0  0  0  0  0
    2.4981   -2.1638    1.7373 H   0  0  0  0  0  0  0  0  0  0  0  0
    3.6229   -3.1066    0.7653 H   0  0  0  0  0  0  0  0  0  0  0  0
    4.0132   -1.4336    1.1986 H   0  0  0  0  0  0  0  0  0  0  0  0
  1  2  1  0
  1  5  1  0
  1  6  1  0
  1  7  1  0
  2  3  2  3
  2  9  1  0
  3  4  1  0
  8 10  1  0
 10 11  1  0
 10 15  1  0
 10 16  1  0
 11 12  1  0
 11 17  1  0
 11 18  1  0
 12 13  1  0
 13 14  1  0
 13 19  1  0
 13 20  1  0
 14 21  1  0
 14 22  1  0
 14 23  1  0
M  RAD  1   4   2
M  END
>  <reaction>  (12) 
rmg_rxn_20

>  <mol_properties>  (12) 
{"1": {"label": "*1", "atom_type": "Cs"}, "2": {"label": "*0", "atom_type": "N3d"}, "7": {"label": "*2", "atom_type": "H0"}, "9": {"label": "*3", "atom_type": "Cs"}, "10": {"label": "*4", "atom_type": "Cs"}}

>  <type>  (12) 
unop_8

>  <geom_source>  (12) 
Heuristics

$$$$

     RDKit          3D

 23 21  0  0  0  0  0  0  0  0999 V2000
   -0.8659    1.5421   -1.5792 C   0  0  0  0  0  0  0  0  0  0  0  0
   -0.8659    1.5421   -0.0688 C   0  0  0  0  0  0  0  0  0  0  0  0
   -0.8659    2.8680    0.5948 N   0  0  0  0  0  0  0  0  0  0  0  0
   -0.8659    3.7976   -0.1529 O   0  0  0  0  0  1  0  0  0  0  0  0
    0.0143    2.0495   -1.9737 H   0  0  0  0  0  0  0  0  0  0  0  0
   -0.8659    0.5149   -1.9445 H   0  0  0  0  0  0  0  0  0  0  0  0
   -1.7460    2.0495   -1.9737 H   0  0  0  0  0  0  0  0  0  0  0  0
    0.1796    0.9333    0.4438 H   0  0  0  0  0  0  0  0  0  0  0  0
   -1.7371    1.0348    0.3584 H   0  0  0  0  0  0  0  0  0  0  0  0
    1.2209    0.3269    0.9544 C   0  0  0  0  0  0  0  0  0  0  0  0
    1.7099   -0.7792    0.0341 C   0  0  0  0  0  0  0  0  0  0  0  0
    0.4039   -1.6935   -0.8241 S   0  0  0  0  0  0  0  0  0  0  0  0
   -0.5403   -2.3932    0.5532 C   0  0  0  0  0  0  0  0  0  0  0  0
    0.2448   -3.3237    1.4627 C   0  0  0  0  0  0  0  0  0  0  0  0
    0.6517   -0.0748    1.7944 H   0  0  0  0  0  0  0  0  0  0  0  0
    2.0684    0.8787    1.3669 H   0  0  0  0  0  0  0  0  0  0  0  0
    2.3503   -1.4799    0.5725 H   0  0  0  0  0  0  0  0  0  0  0  0
    2.3108   -0.3632   -0.7762 H   0  0  0  0  0  0  0  0  0  0  0  0
   -1.0011   -1.5860    1.1250 H   0  0  0  0  0  0  0  0  0  0  0  0
   -1.3517   -2.9340    0.0632 H   0  0  0  0  0  0  0  0  0  0  0  0
    1.0357   -2.7905    1.9929 H   0  0  0  0  0  0  0  0  0  0  0  0
   -0.4144   -3.7638    2.2143 H   0  0  0  0  0  0  0  0  0  0  0  0
    0.7052   -4.1302    0.8909 H   0  0  0  0  0  0  0  0  0  0  0  0
  1  2  1  0
  1  5  1  0
  1  6  1  0
  1  7  1  0
  2  3  2  3
  2  9  1  0
  3  4  1  0
  8 10  1  0
 10 11  1  0
 10 15  1  0
 10 16  1  0
 11 12  1  0
 11 17  1  0
 11 18  1  0
 12 13  1  0
 13 14  1  0
 13 19  1  0
 13 20  1  0
 14 21  1  0
 14 22  1  0
 14 23  1  0
M  RAD  1   4   2
M  END
>  <reaction>  (13) 
rmg_rxn_20

>  <mol_properties>  (13) 
{"1": {"label": "*1", "atom_type": "Cs"}, "2": {"label": "*0", "atom_type": "N3d"}, "7": {"label": "*2", "atom_type": "H0"}, "9": {"label": "*3", "atom_type": "Cs"}, "10": {"label": "*4", "atom_type": "Cs"}}

>  <type>  (13) 
unop_9

>  <geom_source>  (13) 
Heuristics

$$$$

     RDKit          3D

 23 21  0  0  0  0  0  0  0  0999 V2000
   -2.3445    0.6494   -1.3445 C   0  0  0  0  0  0  0  0  0  0  0  0
   -2.3445    0.6494    0.1660 C   0  0  0  0  0  0  0  0  0  0  0  0
   -2.3445    1.9753    0.8296 N   0  0  0  0  0  0  0  0  0  0  0  0
   -2.3445    2.9049    0.0819 O   0  0  0  0  0  1  0  0  0  0  0  0
   -1.4643    1.1567   -1.7390 H   0  0  0  0  0  0  0  0  0  0  0  0
   -2.3445   -0.3778   -1.7098 H   0  0  0  0  0  0  0  0  0  0  0  0
   -3.2246    1.1567   -1.7390 H   0  0  0  0  0  0  0  0  0  0  0  0
   -1.2990    0.0406    0.6786 H   0  0  0  0  0  0  0  0  0  0  0  0
   -3.2157    0.1420    0.5931 H   0  0  0  0  0  0  0  0  0  0  0  0
   -0.2577   -0.5658    1.1891 C   0  0  0  0  0  0  0  0  0  0  0  0
    1.0320    0.1058    0.7473 C   0  0  0  0  0  0  0  0  0  0  0  0
    1.6996   -0.4828   -0.8294 S   0  0  0  0  0  0  0  0  0  0  0  0
    1.9890   -2.2376   -0.4900 C   0  0  0  0  0  0  0  0  0  0  0  0
    2.9690   -2.5205    0.6365 C   0  0  0  0  0  0  0  0  0  0  0  0
   -0.1038   -1.6249    1.4026 H   0  0  0  0  0  0  0  0  0  0  0  0
   -0.6343   -0.0990    2.1020 H   0  0  0  0  0  0  0  0  0  0  0  0
    1.7986    0.0242    1.5196 H   0  0  0  0  0  0  0  0  0  0  0  0
    0.8684    1.1714    0.5781 H   0  0  0  0  0  0  0  0  0  0  0  0
    1.0345   -2.7352   -0.3107 H   0  0  0  0  0  0  0  0  0  0  0  0
    2.3726   -2.6248   -1.4353 H   0  0  0  0  0  0  0  0  0  0  0  0
    2.5832   -2.1762    1.5975 H   0  0  0  0  0  0  0  0  0  0  0  0
    3.1486   -3.5945    0.7214 H   0  0  0  0  0  0  0  0  0  0  0  0
    3.9228   -2.0230    0.4571 H   0  0  0  0  0  0  0  0  0  0  0  0
  1  2  1  0
  1  5  1  0
  1  6  1  0
  1  7  1  0
  2  3  2  3
  2  9  1  0
  3  4  1  0
  8 10  1  0
 10 11  1  0
 10 15  1  0
 10 16  1  0
 11 12  1  0
 11 17  1  0
 11 18  1  0
 12 13  1  0
 13 14  1  0
 13 19  1  0
 13 20  1  0
 14 21  1  0
 14 22  1  0
 14 23  1  0
M  RAD  1   4   2
M  END
>  <reaction>  (14) 
rmg_rxn_20

>  <mol_properties>  (14) 
{"1": {"label": "*1", "atom_type": "Cs"}, "2": {"label": "*0", "atom_type": "N3d"}, "7": {"label": "*2", "atom_type": "H0"}, "9": {"label": "*3", "atom_type": "Cs"}, "10": {"label": "*4", "atom_type": "Cs"}}

>  <type>  (14) 
unop_10

>  <geom_source>  (14) 
Heuristics

$$$$

     RDKit          3D

 23 21  0  0  0  0  0  0  0  0999 V2000
   -0.7955    0.0127   -3.2022 C   0  0  0  0  0  0  0  0  0  0  0  0
   -0.7955    0.0127   -1.6917 C   0  0  0  0  0  0  0  0  0  0  0  0
   -0.7955    1.3386   -1.0281 N   0  0  0  0  0  0  0  0  0  0  0  0
   -0.7955    2.2682   -1.7758 O   0  0  0  0  0  1  0  0  0  0  0  0
    0.0847    0.5200   -3.5967 H   0  0  0  0  0  0  0  0  0  0  0  0
   -0.7955   -1.0145   -3.5675 H   0  0  0  0  0  0  0  0  0  0  0  0
   -1.6756    0.5200   -3.5967 H   0  0  0  0  0  0  0  0  0  0  0  0
    0.2500   -0.5961   -1.1791 H   0  0  0  0  0  0  0  0  0  0  0  0
   -1.6667   -0.4947   -1.2646 H   0  0  0  0  0  0  0  0  0  0  0  0
    1.2913   -1.2025   -0.6686 C   0  0  0  0  0  0  0  0  0  0  0  0
    0.9514   -1.8259    0.6751 C   0  0  0  0  0  0  0  0  0  0  0  0
   -0.4020   -1.0230    1.5704 S   0  0  0  0  0  0  0  0  0  0  0  0
    0.2354    0.6561    1.7998 C   0  0  0  0  0  0  0  0  0  0  0  0
    1.5251    0.7497    2.5983 C   0  0  0  0  0  0  0  0  0  0  0  0
    1.6813   -0.1900   -0.5519 H   0  0  0  0  0  0  0  0  0  0  0  0
    2.0575   -1.7922   -1.1767 H   0  0  0  0  0  0  0  0  0  0  0  0
    1.8329   -1.8747    1.3165 H   0  0  0  0  0  0  0  0  0  0  0  0
    0.6022   -2.8512    0.5423 H   0  0  0  0  0  0  0  0  0  0  0  0
    0.3427    1.1400    0.8275 H   0  0  0  0  0  0  0  0  0  0  0  0
   -0.5734    1.1718    2.3200 H   0  0  0  0  0  0  0  0  0  0  0  0
    2.3553    0.2742    2.0734 H   0  0  0  0  0  0  0  0  0  0  0  0
    1.7955    1.7956    2.7596 H   0  0  0  0  0  0  0  0  0  0  0  0
    1.4175    0.2660    3.5698 H   0  0  0  0  0  0  0  0  0  0  0  0
  1  2  1  0
  1  5  1  0
  1  6  1  0
  1  7  1  0
  2  3  2  3
  2  9  1  0
  3  4  1  0
  8 10  1  0
 10 11  1  0
 10 15  1  0
 10 16  1  0
 11 12  1  0
 11 17  1  0
 11 18  1  0
 12 13  1  0
 13 14  1  0
 13 19  1  0
 13 20  1  0
 14 21  1  0
 14 22  1  0
 14 23  1  0
M  RAD  1   4   2
M  END
>  <reaction>  (15) 
rmg_rxn_20

>  <mol_properties>  (15) 
{"1": {"label": "*1", "atom_type": "Cs"}, "2": {"label": "*0", "atom_type": "N3d"}, "7": {"label": "*2", "atom_type": "H0"}, "9": {"label": "*3", "atom_type": "Cs"}, "10": {"label": "*4", "atom_type": "Cs"}}

>  <type>  (15) 
unop_11

>  <geom_source>  (15) 
Heuristics

$$$$

     RDKit          3D

 23 21  0  0  0  0  0  0  0  0999 V2000
   -1.3895    1.4339   -1.2666 C   0  0  0  0  0  0  0  0  0  0  0  0
   -1.3895    1.4339    0.2439 C   0  0  0  0  0  0  0  0  0  0  0  0
   -1.3895    2.7599    0.9075 N   0  0  0  0  0  0  0  0  0  0  0  0
   -1.3895    3.6895    0.1598 O   0  0  0  0  0  1  0  0  0  0  0  0
   -0.5094    1.9413   -1.6611 H   0  0  0  0  0  0  0  0  0  0  0  0
   -1.3895    0.4068   -1.6319 H   0  0  0  0  0  0  0  0  0  0  0  0
   -2.2697    1.9413   -1.6611 H   0  0  0  0  0  0  0  0  0  0  0  0
   -0.3441    0.8252    0.7565 H   0  0  0  0  0  0  0  0  0  0  0  0
   -2.2607    0.9266    0.6710 H   0  0  0  0  0  0  0  0  0  0  0  0
    0.6972    0.2188    1.2670 C   0  0  0  0  0  0  0  0  0  0  0  0
    1.6075   -0.3113    0.1717 C   0  0  0  0  0  0  0  0  0  0  0  0
    0.8038   -1.4013   -1.0301 S   0  0  0  0  0  0  0  0  0  0  0  0
    0.2222   -2.7597    0.0161 C   0  0  0  0  0  0  0  0  0  0  0  0
    1.3144   -3.5096    0.7607 C   0  0  0  0  0  0  0  0  0  0  0  0
    0.3383   -0.5851    1.9120 H   0  0  0  0  0  0  0  0  0  0  0  0
    1.2372    0.9284    1.8978 H   0  0  0  0  0  0  0  0  0  0  0  0
    2.4759   -0.8172    0.5970 H   0  0  0  0  0  0  0  0  0  0  0  0
    1.9892    0.5097   -0.4375 H   0  0  0  0  0  0  0  0  0  0  0  0
   -0.5359   -2.3872    0.7071 H   0  0  0  0  0  0  0  0  0  0  0  0
   -0.2887   -3.4245   -0.6823 H   0  0  0  0  0  0  0  0  0  0  0  0
    1.8094   -2.8703    1.4936 H   0  0  0  0  0  0  0  0  0  0  0  0
    0.8900   -4.3591    1.3005 H   0  0  0  0  0  0  0  0  0  0  0  0
    2.0718   -3.8816    0.0698 H   0  0  0  0  0  0  0  0  0  0  0  0
  1  2  1  0
  1  5  1  0
  1  6  1  0
  1  7  1  0
  2  3  2  3
  2  9  1  0
  3  4  1  0
  8 10  1  0
 10 11  1  0
 10 15  1  0
 10 16  1  0
 11 12  1  0
 11 17  1  0
 11 18  1  0
 12 13  1  0
 13 14  1  0
 13 19  1  0
 13 20  1  0
 14 21  1  0
 14 22  1  0
 14 23  1  0
M  RAD  1   4   2
M  END
>  <reaction>  (16) 
rmg_rxn_20

>  <mol_properties>  (16) 
{"1": {"label": "*1", "atom_type": "Cs"}, "2": {"label": "*0", "atom_type": "N3d"}, "7": {"label": "*2", "atom_type": "H0"}, "9": {"label": "*3", "atom_type": "Cs"}, "10": {"label": "*4", "atom_type": "Cs"}}

>  <type>  (16) 
unop_12

>  <geom_source>  (16) 
Heuristics

$$$$

     RDKit          3D

 23 21  0  0  0  0  0  0  0  0999 V2000
   -2.0527   -1.5717    0.5935 S   0  0  0  0  0  0  0  0  0  0  0  0
    1.4128    1.5725    1.8112 O   0  0  0  0  0  1  0  0  0  0  0  0
    2.3590    1.0221    1.3369 N   0  0  0  0  0  0  0  0  0  0  0  0
   -0.6346   -0.4593    0.9049 C   0  0  0  0  0  0  0  0  0  0  0  0
   -2.7868   -0.6145   -0.7814 C   0  0  0  0  0  0  0  0  0  0  0  0
    0.5535   -0.8513    0.0378 C   0  0  0  0  0  0  0  0  0  0  0  0
   -3.7593    0.4287   -0.2472 C   0  0  0  0  0  0  0  0  0  0  0  0
    3.7190    0.0856   -0.4386 C   0  0  0  0  0  0  0  0  0  0  0  0
    2.4848    0.9016   -0.0916 C   0  0  0  0  0  0  0  0  0  0  0  0
   -0.3439   -0.5573    1.9716 H   0  0  0  0  0  0  0  0  0  0  0  0
   -0.9032    0.6018    0.7215 H   0  0  0  0  0  0  0  0  0  0  0  0
   -3.3423   -1.3188   -1.4358 H   0  0  0  0  0  0  0  0  0  0  0  0
   -2.0037   -0.1242   -1.3967 H   0  0  0  0  0  0  0  0  0  0  0  0
    0.3019   -0.7490   -1.0382 H   0  0  0  0  0  0  0  0  0  0  0  0
    0.8485   -1.9016    0.2460 H   0  0  0  0  0  0  0  0  0  0  0  0
    1.5336   -0.0928    0.3000 H   0  0  0  0  0  0  0  0  0  0  0  0
   -3.2311    1.1579    0.4016 H   0  0  0  0  0  0  0  0  0  0  0  0
   -4.2201    0.9767   -1.0958 H   0  0  0  0  0  0  0  0  0  0  0  0
   -4.5642   -0.0643    0.3382 H   0  0  0  0  0  0  0  0  0  0  0  0
    3.7999   -0.0096   -1.5414 H   0  0  0  0  0  0  0  0  0  0  0  0
    4.6318    0.5856   -0.0503 H   0  0  0  0  0  0  0  0  0  0  0  0
    3.6376   -0.9299    0.0031 H   0  0  0  0  0  0  0  0  0  0  0  0
    2.5595    1.9117   -0.5492 H   0  0  0  0  0  0  0  0  0  0  0  0
  1  4  1  0
  1  5  1  0
  2  3  1  0
  3  9  2  3
  4  6  1  0
  4 10  1  0
  4 11  1  0
  5  7  1  0
  5 12  1  0
  5 13  1  0
  6 14  1  0
  6 15  1  0
  6 16  1  0
  7 17  1  0
  7 18  1  0
  7 19  1  0
  8  9  1  0
  8 20  1  0
  8 21  1  0
  8 22  1  0
  9 23  1  0
M  RAD  1   2   2
M  END
>  <reaction>  (17) 
rmg_rxn_20

>  <mol_properties>  (17) 
{"1": {"label": "*1", "atom_type": "Cs"}, "2": {"label": "*0", "atom_type": "N3d"}, "7": {"label": "*2", "atom_type": "H0"}, "9": {"label": "*3", "atom_type": "Cs"}, "10": {"label": "*4", "atom_type": "Cs"}}

>  <type>  (17) 
unop_13

>  <geom_source>  (17) 
AutoTST

$$$$

     RDKit          3D

 23 21  0  0  0  0  0  0  0  0999 V2000
   -1.9408    1.1024   -1.1764 C   0  0  0  0  0  0  0  0  0  0  0  0
   -1.9408    1.1024    0.3341 C   0  0  0  0  0  0  0  0  0  0  0  0
   -1.9408    2.4284    0.9977 N   0  0  0  0  0  0  0  0  0  0  0  0
   -1.9408    3.3579    0.2500 O   0  0  0  0  0  1  0  0  0  0  0  0
   -1.0606    1.6098   -1.5709 H   0  0  0  0  0  0  0  0  0  0  0  0
   -1.9407    0.0752   -1.5417 H   0  0  0  0  0  0  0  0  0  0  0  0
   -2.8209    1.6098   -1.5709 H   0  0  0  0  0  0  0  0  0  0  0  0
   -0.8953    0.4936    0.8467 H   0  0  0  0  0  0  0  0  0  0  0  0
   -2.8119    0.5951    0.7612 H   0  0  0  0  0  0  0  0  0  0  0  0
    0.1460   -0.1128    1.3572 C   0  0  0  0  0  0  0  0  0  0  0  0
    1.3494    0.0078    0.4370 C   0  0  0  0  0  0  0  0  0  0  0  0
    1.2748   -1.0119   -1.0573 S   0  0  0  0  0  0  0  0  0  0  0  0
    1.1721   -2.6849   -0.3728 C   0  0  0  0  0  0  0  0  0  0  0  0
    2.3524   -3.0991    0.4902 C   0  0  0  0  0  0  0  0  0  0  0  0
    0.0681   -1.1142    1.7838 H   0  0  0  0  0  0  0  0  0  0  0  0
    0.2324    0.5913    2.1878 H   0  0  0  0  0  0  0  0  0  0  0  0
    2.2748   -0.2036    0.9753 H   0  0  0  0  0  0  0  0  0  0  0  0
    1.4349    1.0255    0.0525 H   0  0  0  0  0  0  0  0  0  0  0  0
    0.2327   -2.7980    0.1709 H   0  0  0  0  0  0  0  0  0  0  0  0
    1.1029   -3.3226   -1.2557 H   0  0  0  0  0  0  0  0  0  0  0  0
    2.4130   -2.4981    1.3991 H   0  0  0  0  0  0  0  0  0  0  0  0
    2.2513   -4.1433    0.7942 H   0  0  0  0  0  0  0  0  0  0  0  0
    3.2910   -2.9859   -0.0534 H   0  0  0  0  0  0  0  0  0  0  0  0
  1  2  1  0
  1  5  1  0
  1  6  1  0
  1  7  1  0
  2  3  2  3
  2  9  1  0
  3  4  1  0
  8 10  1  0
 10 11  1  0
 10 15  1  0
 10 16  1  0
 11 12  1  0
 11 17  1  0
 11 18  1  0
 12 13  1  0
 13 14  1  0
 13 19  1  0
 13 20  1  0
 14 21  1  0
 14 22  1  0
 14 23  1  0
M  RAD  1   4   2
M  END
>  <reaction>  (18) 
rmg_rxn_20

>  <mol_properties>  (18) 
{"1": {"label": "*1", "atom_type": "Cs"}, "2": {"label": "*0", "atom_type": "N3d"}, "7": {"label": "*2", "atom_type": "H0"}, "9": {"label": "*3", "atom_type": "Cs"}, "10": {"label": "*4", "atom_type": "Cs"}}

>  <type>  (18) 
unop_14

>  <geom_source>  (18) 
gaussian_log

$$$$
