
     RDKit          3D

 15 14  0  0  0  0  0  0  0  0999 V2000
   -2.0554    0.0723   -0.4910 C   0  0  0  0  0  0  0  0  0  0  0  0
   -0.7461   -0.6266   -0.8178 C   0  0  0  0  0  0  0  0  0  0  0  0
    0.3249    0.2591   -1.9782 S   0  0  0  0  0  0  0  0  0  0  0  0
   -0.7172    0.3642   -3.4551 C   0  0  0  0  0  0  0  0  0  0  0  0
   -1.1375   -0.9737   -4.0409 C   0  0  0  0  0  0  0  0  0  0  0  0
   -2.7005    0.1427   -1.3684 H   0  0  0  0  0  0  0  0  0  0  0  0
   -2.6016   -0.4848    0.2733 H   0  0  0  0  0  0  0  0  0  0  0  0
   -1.8758    1.0825   -0.1213 H   0  0  0  0  0  0  0  0  0  0  0  0
   -0.1320   -0.7246    0.0789 H   0  0  0  0  0  0  0  0  0  0  0  0
   -0.9254   -1.6374   -1.1879 H   0  0  0  0  0  0  0  0  0  0  0  0
   -1.5873    0.9874   -3.2422 H   0  0  0  0  0  0  0  0  0  0  0  0
   -0.1021    0.9161   -4.1678 H   0  0  0  0  0  0  0  0  0  0  0  0
   -1.7876   -1.5224   -3.3574 H   0  0  0  0  0  0  0  0  0  0  0  0
   -0.2676   -1.5962   -4.2534 H   0  0  0  0  0  0  0  0  0  0  0  0
   -1.6916   -0.8229   -4.9700 H   0  0  0  0  0  0  0  0  0  0  0  0
  1  2  1  0
  1  6  1  0
  1  7  1  0
  1  8  1  0
  2  3  1  0
  2  9  1  0
  2 10  1  0
  3  4  1  0
  4  5  1  0
  4 11  1  0
  4 12  1  0
  5 13  1  0
  5 14  1  0
  5 15  1  0
M  END
>  <reaction>  (1) 
rmg_rxn_15405

>  <mol_properties>  (1) 
{"0": {"label": "donator", "atom_type": "Cs"}, "5": {"label": "d_hydrogen", "atom_type": "H0"}}

>  <type>  (1) 
r1h

$$$$

     RDKit          3D

  5  4  0  0  0  0  0  0  0  0999 V2000
    0.8934    0.3742    0.4948 O   0  0  0  0  0  0  0  0  0  0  0  0
    0.1582   -0.1610   -0.5904 N   0  0  0  0  0  0  0  0  0  0  0  0
   -1.0297   -0.3739   -0.4689 C   0  0  0  0  0  3  0  0  0  0  0  0
    1.7805    0.4382    0.1306 H   0  0  0  0  0  0  0  0  0  0  0  0
   -1.8023   -0.2775    0.2859 H   0  0  0  0  0  0  0  0  0  0  0  0
  1  2  1  0
  1  4  1  0
  2  3  2  3
  3  5  1  0
M  RAD  1   3   2
M  END
>  <reaction>  (2) 
rmg_rxn_15405

>  <mol_properties>  (2) 
{"2": {"label": "acceptor", "atom_type": "Cd"}}

>  <type>  (2) 
r2

$$$$

     RDKit          3D

  6  5  0  0  0  0  0  0  0  0999 V2000
    1.2314    0.0428    0.5088 O   0  0  0  0  0  0  0  0  0  0  0  0
    0.2987    0.2341   -0.4915 N   0  0  0  0  0  0  0  0  0  0  0  0
   -0.8599   -0.1122   -0.1290 C   0  0  0  0  0  0  0  0  0  0  0  0
    2.0507    0.3401    0.1082 H   0  0  0  0  0  0  0  0  0  0  0  0
   -1.0700   -0.5112    0.8610 H   0  0  0  0  0  0  0  0  0  0  0  0
   -1.6509    0.0064   -0.8574 H   0  0  0  0  0  0  0  0  0  0  0  0
  1  2  1  0
  1  4  1  0
  2  3  2  3
  3  5  1  0
  3  6  1  0
M  END
>  <reaction>  (3) 
rmg_rxn_15405

>  <mol_properties>  (3) 
{"2": {"label": "acceptor", "atom_type": "Cd"}, "5": {"label": "a_hydrogen", "atom_type": "H0"}}

>  <type>  (3) 
r2h

$$$$

     RDKit          3D

 20 18  0  0  0  0  0  0  0  0999 V2000
    1.9543   -2.1449   -2.0215 O   0  0  0  0  0  0  0  0  0  0  0  0
    1.7184   -0.9813   -1.2823 N   0  0  0  0  0  0  0  0  0  0  0  0
    1.7517   -1.1474   -0.0490 C   0  0  0  0  0  3  0  0  0  0  0  0
    1.8946   -1.8378   -2.9292 H   0  0  0  0  0  0  0  0  0  0  0  0
    1.9465   -2.0736    0.4916 H   0  0  0  0  0  0  0  0  0  0  0  0
    1.3254    1.1984    1.1581 C   0  0  0  0  0  0  0  0  0  0  0  0
    0.1483    1.8442    0.4735 C   0  0  0  0  0  0  0  0  0  0  0  0
   -1.4811    1.3367    1.0727 S   0  0  0  0  0  0  0  0  0  0  0  0
   -1.6182   -0.3607    0.4574 C   0  0  0  0  0  0  0  0  0  0  0  0
   -1.7473   -0.4846   -1.0510 C   0  0  0  0  0  0  0  0  0  0  0  0
    1.5046    0.0296    0.6627 H   0  0  0  0  0  0  0  0  0  0  0  0
    2.2754    1.6810    0.9278 H   0  0  0  0  0  0  0  0  0  0  0  0
    1.1951    1.0387    2.2271 H   0  0  0  0  0  0  0  0  0  0  0  0
    0.1636    2.9236    0.6502 H   0  0  0  0  0  0  0  0  0  0  0  0
    0.2094    1.7091   -0.6085 H   0  0  0  0  0  0  0  0  0  0  0  0
   -0.7755   -0.9467    0.8276 H   0  0  0  0  0  0  0  0  0  0  0  0
   -2.5115   -0.7457    0.9525 H   0  0  0  0  0  0  0  0  0  0  0  0
   -0.8536   -0.1176   -1.5563 H   0  0  0  0  0  0  0  0  0  0  0  0
   -2.6079    0.0784   -1.4136 H   0  0  0  0  0  0  0  0  0  0  0  0
   -1.8721   -1.5328   -1.3328 H   0  0  0  0  0  0  0  0  0  0  0  0
  1  2  1  0
  1  4  1  0
  2  3  2  3
  3  5  1  0
  6  7  1  0
  6 11  1  0
  6 12  1  0
  6 13  1  0
  7  8  1  0
  7 14  1  0
  7 15  1  0
  8  9  1  0
  9 10  1  0
  9 16  1  0
  9 17  1  0
 10 18  1  0
 10 19  1  0
 10 20  1  0
M  RAD  1   3   2
M  END
>  <reaction>  (4) 
rmg_rxn_15405

>  <mol_properties>  (4) 
{"1": {"label": "*4", "atom_type": "N3d"}, "2": {"label": "*3", "atom_type": "Cd"}, "5": {"label": "*1", "atom_type": "Cs"}, "6": {"label": "*0", "atom_type": "Cs"}, "10": {"label": "*2", "atom_type": "H0"}}

>  <type>  (4) 
ts

$$$$

     RDKit          3D

 20 18  0  0  0  0  0  0  0  0999 V2000
   -4.4081   -0.7889   -0.2831 O   0  0  0  0  0  0  0  0  0  0  0  0
   -3.0733   -0.3733   -0.1230 N   0  0  0  0  0  0  0  0  0  0  0  0
   -2.8040    0.6263    0.5527 C   0  0  0  0  0  0  0  0  0  0  0  0
   -4.3522   -1.5724   -0.8476 H   0  0  0  0  0  0  0  0  0  0  0  0
   -3.4578    1.3006    1.0915 H   0  0  0  0  0  0  0  0  0  0  0  0
   -0.2301    1.1371    0.6565 C   0  0  0  0  0  3  0  0  0  0  0  0
    0.4125    0.4646   -0.5003 C   0  0  0  0  0  0  0  0  0  0  0  0
    2.2454    0.7464   -0.4861 S   0  0  0  0  0  0  0  0  0  0  0  0
    2.7783   -0.5240    0.7128 C   0  0  0  0  0  0  0  0  0  0  0  0
    2.8530   -1.9077    0.0961 C   0  0  0  0  0  0  0  0  0  0  0  0
   -1.5256    0.8868    0.5993 H   0  0  0  0  0  0  0  0  0  0  0  0
    0.0714    0.7448    1.6224 H   0  0  0  0  0  0  0  0  0  0  0  0
   -0.1520    2.2182    0.6263 H   0  0  0  0  0  0  0  0  0  0  0  0
    0.2544   -0.6117   -0.5017 H   0  0  0  0  0  0  0  0  0  0  0  0
    0.0826    0.8828   -1.4489 H   0  0  0  0  0  0  0  0  0  0  0  0
    3.7609   -0.1950    1.0488 H   0  0  0  0  0  0  0  0  0  0  0  0
    2.0888   -0.4947    1.5556 H   0  0  0  0  0  0  0  0  0  0  0  0
    1.8758   -2.2328   -0.2550 H   0  0  0  0  0  0  0  0  0  0  0  0
    3.2074   -2.6242    0.8346 H   0  0  0  0  0  0  0  0  0  0  0  0
    3.5388   -1.9064   -0.7478 H   0  0  0  0  0  0  0  0  0  0  0  0
  1  2  1  0
  1  4  1  0
  2  3  2  3
  3  5  1  0
  3 11  1  0
  6  7  1  0
  6 12  1  0
  6 13  1  0
  7  8  1  0
  7 14  1  0
  7 15  1  0
  8  9  1  0
  9 10  1  0
  9 16  1  0
  9 17  1  0
 10 18  1  0
 10 19  1  0
 10 20  1  0
M  RAD  1   6   2
M  END
>  <reaction>  (5) 
rmg_rxn_15405

>  <mol_properties>  (5) 
{"1": {"label": "*4", "atom_type": "N3d"}, "2": {"label": "*3", "atom_type": "Cd"}, "5": {"label": "*1", "atom_type": "Cs"}, "6": {"label": "*0", "atom_type": "Cs"}, "10": {"label": "*2", "atom_type": "H0"}}

>  <type>  (5) 
unop_1

>  <geom_source>  (5) 
crest_best.xyz

$$$$

     RDKit          3D

 20 18  0  0  0  0  0  0  0  0999 V2000
    2.6268   -2.6178   -0.8760 O   0  0  0  0  0  0  0  0  0  0  0  0
    2.1092   -1.3544   -1.0828 N   0  0  0  0  0  0  0  0  0  0  0  0
    1.1426   -1.1079   -0.3092 C   0  0  0  0  0  0  0  0  0  0  0  0
    3.3395   -2.6732   -1.5156 H   0  0  0  0  0  0  0  0  0  0  0  0
    0.7808   -1.8251    0.4245 H   0  0  0  0  0  0  0  0  0  0  0  0
    1.0918    1.2622    0.7773 C   0  0  0  0  0  3  0  0  0  0  0  0
   -0.1691    2.0210    0.3981 C   0  0  0  0  0  0  0  0  0  0  0  0
   -1.7097    1.3071    1.0267 S   0  0  0  0  0  0  0  0  0  0  0  0
   -1.7097   -0.3340    0.2618 C   0  0  0  0  0  0  0  0  0  0  0  0
   -1.7097   -0.3340   -1.2580 C   0  0  0  0  0  0  0  0  0  0  0  0
    1.1173    0.0720    0.2317 H   0  0  0  0  0  0  0  0  0  0  0  0
    1.9766    1.8006    0.4303 H   0  0  0  0  0  0  0  0  0  0  0  0
    1.1625    1.1401    1.8587 H   0  0  0  0  0  0  0  0  0  0  0  0
   -0.1540    3.0242    0.8273 H   0  0  0  0  0  0  0  0  0  0  0  0
   -0.2402    2.1433   -0.6840 H   0  0  0  0  0  0  0  0  0  0  0  0
   -0.8735   -0.9166    0.6518 H   0  0  0  0  0  0  0  0  0  0  0  0
   -2.6209   -0.7978    0.6431 H   0  0  0  0  0  0  0  0  0  0  0  0
   -0.7866    0.0896   -1.6574 H   0  0  0  0  0  0  0  0  0  0  0  0
   -2.5454    0.2485   -1.6474 H   0  0  0  0  0  0  0  0  0  0  0  0
   -1.7922   -1.3552   -1.6366 H   0  0  0  0  0  0  0  0  0  0  0  0
  1  2  1  0
  1  4  1  0
  2  3  2  3
  3  5  1  0
  3 11  1  0
  6  7  1  0
  6 12  1  0
  6 13  1  0
  7  8  1  0
  7 14  1  0
  7 15  1  0
  8  9  1  0
  9 10  1  0
  9 16  1  0
  9 17  1  0
 10 18  1  0
 10 19  1  0
 10 20  1  0
M  RAD  1   6   2
M  END
>  <reaction>  (6) 
rmg_rxn_15405

>  <mol_properties>  (6) 
{"1": {"label": "*4", "atom_type": "N3d"}, "2": {"label": "*3", "atom_type": "Cd"}, "5": {"label": "*1", "atom_type": "Cs"}, "6": {"label": "*0", "atom_type": "Cs"}, "10": {"label": "*2", "atom_type": "H0"}}

>  <type>  (6) 
unop_2

>  <geom_source>  (6) 
Heuristics

$$$$

     RDKit          3D

 20 18  0  0  0  0  0  0  0  0999 V2000
    4.4028    0.7957   -0.2802 O   0  0  0  0  0  0  0  0  0  0  0  0
    3.0690    0.3793   -0.1138 N   0  0  0  0  0  0  0  0  0  0  0  0
    2.8055   -0.6383    0.5370 C   0  0  0  0  0  0  0  0  0  0  0  0
    4.3415    1.5951   -0.8215 H   0  0  0  0  0  0  0  0  0  0  0  0
    3.4641   -1.3305    1.0465 H   0  0  0  0  0  0  0  0  0  0  0  0
    0.2313   -1.1444    0.6535 C   0  0  0  0  0  3  0  0  0  0  0  0
   -0.4129   -0.4696   -0.5012 C   0  0  0  0  0  0  0  0  0  0  0  0
   -2.2467   -0.7463   -0.4816 S   0  0  0  0  0  0  0  0  0  0  0  0
   -2.7725    0.5300    0.7141 C   0  0  0  0  0  0  0  0  0  0  0  0
   -2.8480    1.9110    0.0916 C   0  0  0  0  0  0  0  0  0  0  0  0
    1.5269   -0.8965    0.5920 H   0  0  0  0  0  0  0  0  0  0  0  0
   -0.0667   -0.7518    1.6204 H   0  0  0  0  0  0  0  0  0  0  0  0
    0.1507   -2.2253    0.6231 H   0  0  0  0  0  0  0  0  0  0  0  0
   -0.2518    0.6062   -0.5026 H   0  0  0  0  0  0  0  0  0  0  0  0
   -0.0870   -0.8884   -1.4510 H   0  0  0  0  0  0  0  0  0  0  0  0
   -3.7542    0.2040    1.0558 H   0  0  0  0  0  0  0  0  0  0  0  0
   -2.0794    0.5034    1.5542 H   0  0  0  0  0  0  0  0  0  0  0  0
   -3.5370    1.9069   -0.7496 H   0  0  0  0  0  0  0  0  0  0  0  0
   -1.8716    2.2332   -0.2647 H   0  0  0  0  0  0  0  0  0  0  0  0
   -3.1986    2.6314    0.8283 H   0  0  0  0  0  0  0  0  0  0  0  0
  1  2  1  0
  1  4  1  0
  2  3  2  3
  3  5  1  0
  3 11  1  0
  6  7  1  0
  6 12  1  0
  6 13  1  0
  7  8  1  0
  7 14  1  0
  7 15  1  0
  8  9  1  0
  9 10  1  0
  9 16  1  0
  9 17  1  0
 10 18  1  0
 10 19  1  0
 10 20  1  0
M  RAD  1   6   2
M  END
>  <reaction>  (7) 
rmg_rxn_15405

>  <mol_properties>  (7) 
{"1": {"label": "*4", "atom_type": "N3d"}, "2": {"label": "*3", "atom_type": "Cd"}, "5": {"label": "*1", "atom_type": "Cs"}, "6": {"label": "*0", "atom_type": "Cs"}, "10": {"label": "*2", "atom_type": "H0"}}

>  <type>  (7) 
unop_3

>  <geom_source>  (7) 
Heuristics

$$$$

     RDKit          3D

 20 18  0  0  0  0  0  0  0  0999 V2000
    4.3999   -0.8005    0.2729 O   0  0  0  0  0  0  0  0  0  0  0  0
    3.0660   -0.3844    0.1055 N   0  0  0  0  0  0  0  0  0  0  0  0
    2.8053    0.6530   -0.5143 C   0  0  0  0  0  0  0  0  0  0  0  0
    4.3363   -1.6181    0.7860 H   0  0  0  0  0  0  0  0  0  0  0  0
    3.4663    1.3636   -0.9946 H   0  0  0  0  0  0  0  0  0  0  0  0
    0.2302    1.1508   -0.6485 C   0  0  0  0  0  3  0  0  0  0  0  0
   -0.4198    0.4839    0.5076 C   0  0  0  0  0  0  0  0  0  0  0  0
   -2.2548    0.7477    0.4689 S   0  0  0  0  0  0  0  0  0  0  0  0
   -2.7624   -0.5461   -0.7156 C   0  0  0  0  0  0  0  0  0  0  0  0
   -2.8270   -1.9213   -0.0791 C   0  0  0  0  0  0  0  0  0  0  0  0
    1.5261    0.9076   -0.5765 H   0  0  0  0  0  0  0  0  0  0  0  0
   -0.0599    0.7485   -1.6138 H   0  0  0  0  0  0  0  0  0  0  0  0
    0.1455    2.2317   -0.6282 H   0  0  0  0  0  0  0  0  0  0  0  0
   -0.2516   -0.5907    0.5215 H   0  0  0  0  0  0  0  0  0  0  0  0
   -0.1049    0.9145    1.4559 H   0  0  0  0  0  0  0  0  0  0  0  0
   -3.7457   -0.2334   -1.0648 H   0  0  0  0  0  0  0  0  0  0  0  0
   -2.0659   -0.5215   -1.5529 H   0  0  0  0  0  0  0  0  0  0  0  0
   -3.5192   -1.9151    0.7594 H   0  0  0  0  0  0  0  0  0  0  0  0
   -1.8491   -2.2306    0.2841 H   0  0  0  0  0  0  0  0  0  0  0  0
   -3.1679   -2.6525   -0.8096 H   0  0  0  0  0  0  0  0  0  0  0  0
  1  2  1  0
  1  4  1  0
  2  3  2  3
  3  5  1  0
  3 11  1  0
  6  7  1  0
  6 12  1  0
  6 13  1  0
  7  8  1  0
  7 14  1  0
  7 15  1  0
  8  9  1  0
  9 10  1  0
  9 16  1  0
  9 17  1  0
 10 18  1  0
 10 19  1  0
 10 20  1  0
M  RAD  1   6   2
M  END
>  <reaction>  (8) 
rmg_rxn_15405

>  <mol_properties>  (8) 
{"1": {"label": "*4", "atom_type": "N3d"}, "2": {"label": "*3", "atom_type": "Cd"}, "5": {"label": "*1", "atom_type": "Cs"}, "6": {"label": "*0", "atom_type": "Cs"}, "10": {"label": "*2", "atom_type": "H0"}}

>  <type>  (8) 
unop_4

>  <geom_source>  (8) 
Heuristics

$$$$

     RDKit          3D

 20 18  0  0  0  0  0  0  0  0999 V2000
    4.4018    0.7996   -0.2741 O   0  0  0  0  0  0  0  0  0  0  0  0
    3.0679    0.3824   -0.1096 N   0  0  0  0  0  0  0  0  0  0  0  0
    2.8059   -0.6477    0.5217 C   0  0  0  0  0  0  0  0  0  0  0  0
    4.3394    1.6103   -0.7983 H   0  0  0  0  0  0  0  0  0  0  0  0
    3.4659   -1.3503    1.0149 H   0  0  0  0  0  0  0  0  0  0  0  0
    0.2310   -1.1475    0.6495 C   0  0  0  0  0  3  0  0  0  0  0  0
   -0.4177   -0.4803   -0.5072 C   0  0  0  0  0  0  0  0  0  0  0  0
   -2.2525   -0.7477   -0.4719 S   0  0  0  0  0  0  0  0  0  0  0  0
   -2.7629    0.5416    0.7165 C   0  0  0  0  0  0  0  0  0  0  0  0
   -2.8389    1.9169    0.0817 C   0  0  0  0  0  0  0  0  0  0  0  0
    1.5270   -0.9037    0.5800 H   0  0  0  0  0  0  0  0  0  0  0  0
   -0.0606   -0.7458    1.6146 H   0  0  0  0  0  0  0  0  0  0  0  0
    0.1468   -2.2283    0.6286 H   0  0  0  0  0  0  0  0  0  0  0  0
   -0.2513    0.5946   -0.5198 H   0  0  0  0  0  0  0  0  0  0  0  0
   -0.1005   -0.9096   -1.4553 H   0  0  0  0  0  0  0  0  0  0  0  0
   -3.7424    0.2225    1.0705 H   0  0  0  0  0  0  0  0  0  0  0  0
   -2.0620    0.5203    1.5501 H   0  0  0  0  0  0  0  0  0  0  0  0
   -1.8646    2.2323   -0.2863 H   0  0  0  0  0  0  0  0  0  0  0  0
   -3.1804    2.6454    0.8146 H   0  0  0  0  0  0  0  0  0  0  0  0
   -3.5354    1.9074   -0.7533 H   0  0  0  0  0  0  0  0  0  0  0  0
  1  2  1  0
  1  4  1  0
  2  3  2  3
  3  5  1  0
  3 11  1  0
  6  7  1  0
  6 12  1  0
  6 13  1  0
  7  8  1  0
  7 14  1  0
  7 15  1  0
  8  9  1  0
  9 10  1  0
  9 16  1  0
  9 17  1  0
 10 18  1  0
 10 19  1  0
 10 20  1  0
M  RAD  1   6   2
M  END
>  <reaction>  (9) 
rmg_rxn_15405

>  <mol_properties>  (9) 
{"1": {"label": "*4", "atom_type": "N3d"}, "2": {"label": "*3", "atom_type": "Cd"}, "5": {"label": "*1", "atom_type": "Cs"}, "6": {"label": "*0", "atom_type": "Cs"}, "10": {"label": "*2", "atom_type": "H0"}}

>  <type>  (9) 
unop_5

>  <geom_source>  (9) 
Heuristics

$$$$

     RDKit          3D

 20 18  0  0  0  0  0  0  0  0999 V2000
    1.3320   -2.4147   -1.8982 O   0  0  0  0  0  0  0  0  0  0  0  0
    0.9285   -1.2784   -1.2251 N   0  0  0  0  0  0  0  0  0  0  0  0
    1.5179   -1.1525   -0.1159 C   0  0  0  0  0  0  0  0  0  0  0  0
    0.8172   -2.3882   -2.7071 H   0  0  0  0  0  0  0  0  0  0  0  0
    2.2529   -1.8701    0.2426 H   0  0  0  0  0  0  0  0  0  0  0  0
    1.4672    1.2176    0.9706 C   0  0  0  0  0  3  0  0  0  0  0  0
    0.2062    1.9764    0.5914 C   0  0  0  0  0  0  0  0  0  0  0  0
   -1.3343    1.2625    1.2200 S   0  0  0  0  0  0  0  0  0  0  0  0
   -1.3343   -0.3786    0.4551 C   0  0  0  0  0  0  0  0  0  0  0  0
   -1.3343   -0.3786   -1.0647 C   0  0  0  0  0  0  0  0  0  0  0  0
    1.4926    0.0273    0.4250 H   0  0  0  0  0  0  0  0  0  0  0  0
    2.3519    1.7560    0.6236 H   0  0  0  0  0  0  0  0  0  0  0  0
    1.5378    1.0955    2.0520 H   0  0  0  0  0  0  0  0  0  0  0  0
    0.2213    2.9796    1.0206 H   0  0  0  0  0  0  0  0  0  0  0  0
    0.1351    2.0986   -0.4907 H   0  0  0  0  0  0  0  0  0  0  0  0
   -0.4981   -0.9612    0.8451 H   0  0  0  0  0  0  0  0  0  0  0  0
   -2.2455   -0.8425    0.8364 H   0  0  0  0  0  0  0  0  0  0  0  0
   -0.4113    0.0450   -1.4641 H   0  0  0  0  0  0  0  0  0  0  0  0
   -2.1701    0.2039   -1.4541 H   0  0  0  0  0  0  0  0  0  0  0  0
   -1.4169   -1.3998   -1.4433 H   0  0  0  0  0  0  0  0  0  0  0  0
  1  2  1  0
  1  4  1  0
  2  3  2  3
  3  5  1  0
  3 11  1  0
  6  7  1  0
  6 12  1  0
  6 13  1  0
  7  8  1  0
  7 14  1  0
  7 15  1  0
  8  9  1  0
  9 10  1  0
  9 16  1  0
  9 17  1  0
 10 18  1  0
 10 19  1  0
 10 20  1  0
M  RAD  1   6   2
M  END
>  <reaction>  (10) 
rmg_rxn_15405

>  <mol_properties>  (10) 
{"1": {"label": "*4", "atom_type": "N3d"}, "2": {"label": "*3", "atom_type": "Cd"}, "5": {"label": "*1", "atom_type": "Cs"}, "6": {"label": "*0", "atom_type": "Cs"}, "10": {"label": "*2", "atom_type": "H0"}}

>  <type>  (10) 
unop_6

>  <geom_source>  (10) 
Heuristics

$$$$

     RDKit          3D

 20 18  0  0  0  0  0  0  0  0999 V2000
    4.4019   -0.7986   -0.2743 O   0  0  0  0  0  0  0  0  0  0  0  0
    3.0678   -0.3831   -0.1084 N   0  0  0  0  0  0  0  0  0  0  0  0
    2.8056    0.6492    0.5195 C   0  0  0  0  0  0  0  0  0  0  0  0
    4.3399   -1.6115   -0.7950 H   0  0  0  0  0  0  0  0  0  0  0  0
    3.4659    1.3545    1.0083 H   0  0  0  0  0  0  0  0  0  0  0  0
    0.2302    1.1459    0.6510 C   0  0  0  0  0  3  0  0  0  0  0  0
   -0.4184    0.4818   -0.5073 C   0  0  0  0  0  0  0  0  0  0  0  0
   -2.2534    0.7480   -0.4713 S   0  0  0  0  0  0  0  0  0  0  0  0
   -2.7633   -0.5427    0.7158 C   0  0  0  0  0  0  0  0  0  0  0  0
   -2.8349   -1.9182    0.0808 C   0  0  0  0  0  0  0  0  0  0  0  0
    1.5266    0.9038    0.5798 H   0  0  0  0  0  0  0  0  0  0  0  0
    0.1450    2.2267    0.6336 H   0  0  0  0  0  0  0  0  0  0  0  0
   -0.0600    0.7408    1.6150 H   0  0  0  0  0  0  0  0  0  0  0  0
   -0.1017    0.9139   -1.4543 H   0  0  0  0  0  0  0  0  0  0  0  0
   -0.2514   -0.5930   -0.5230 H   0  0  0  0  0  0  0  0  0  0  0  0
   -2.0644   -0.5199    1.5510 H   0  0  0  0  0  0  0  0  0  0  0  0
   -3.7444   -0.2258    1.0674 H   0  0  0  0  0  0  0  0  0  0  0  0
   -3.1759   -2.6476    0.8131 H   0  0  0  0  0  0  0  0  0  0  0  0
   -1.8592   -2.2312   -0.2855 H   0  0  0  0  0  0  0  0  0  0  0  0
   -3.5299   -1.9104   -0.7554 H   0  0  0  0  0  0  0  0  0  0  0  0
  1  2  1  0
  1  4  1  0
  2  3  2  3
  3  5  1  0
  3 11  1  0
  6  7  1  0
  6 12  1  0
  6 13  1  0
  7  8  1  0
  7 14  1  0
  7 15  1  0
  8  9  1  0
  9 10  1  0
  9 16  1  0
  9 17  1  0
 10 18  1  0
 10 19  1  0
 10 20  1  0
M  RAD  1   6   2
M  END
>  <reaction>  (11) 
rmg_rxn_15405

>  <mol_properties>  (11) 
{"1": {"label": "*4", "atom_type": "N3d"}, "2": {"label": "*3", "atom_type": "Cd"}, "5": {"label": "*1", "atom_type": "Cs"}, "6": {"label": "*0", "atom_type": "Cs"}, "10": {"label": "*2", "atom_type": "H0"}}

>  <type>  (11) 
unop_7

>  <geom_source>  (11) 
Heuristics

$$$$

     RDKit          3D

 20 18  0  0  0  0  0  0  0  0999 V2000
    2.3350   -2.8903   -0.5468 O   0  0  0  0  0  0  0  0  0  0  0  0
    2.3056   -1.5163   -0.6823 N   0  0  0  0  0  0  0  0  0  0  0  0
    1.1668   -1.0402   -0.4177 C   0  0  0  0  0  0  0  0  0  0  0  0
    3.2394   -3.1163   -0.7728 H   0  0  0  0  0  0  0  0  0  0  0  0
    0.3254   -1.6625   -0.1204 H   0  0  0  0  0  0  0  0  0  0  0  0
    1.1161    1.3299    0.6688 C   0  0  0  0  0  3  0  0  0  0  0  0
   -0.1448    2.0887    0.2896 C   0  0  0  0  0  0  0  0  0  0  0  0
   -1.6854    1.3748    0.9182 S   0  0  0  0  0  0  0  0  0  0  0  0
   -1.6854   -0.2663    0.1533 C   0  0  0  0  0  0  0  0  0  0  0  0
   -1.6854   -0.2663   -1.3665 C   0  0  0  0  0  0  0  0  0  0  0  0
    1.1416    0.1397    0.1232 H   0  0  0  0  0  0  0  0  0  0  0  0
    2.0009    1.8683    0.3218 H   0  0  0  0  0  0  0  0  0  0  0  0
    1.1868    1.2078    1.7502 H   0  0  0  0  0  0  0  0  0  0  0  0
   -0.1297    3.0919    0.7188 H   0  0  0  0  0  0  0  0  0  0  0  0
   -0.2160    2.2109   -0.7925 H   0  0  0  0  0  0  0  0  0  0  0  0
   -0.8492   -0.8489    0.5433 H   0  0  0  0  0  0  0  0  0  0  0  0
   -2.5966   -0.7301    0.5346 H   0  0  0  0  0  0  0  0  0  0  0  0
   -0.7624    0.1573   -1.7659 H   0  0  0  0  0  0  0  0  0  0  0  0
   -2.5211    0.3162   -1.7559 H   0  0  0  0  0  0  0  0  0  0  0  0
   -1.7680   -1.2875   -1.7451 H   0  0  0  0  0  0  0  0  0  0  0  0
  1  2  1  0
  1  4  1  0
  2  3  2  3
  3  5  1  0
  3 11  1  0
  6  7  1  0
  6 12  1  0
  6 13  1  0
  7  8  1  0
  7 14  1  0
  7 15  1  0
  8  9  1  0
  9 10  1  0
  9 16  1  0
  9 17  1  0
 10 18  1  0
 10 19  1  0
 10 20  1  0
M  RAD  1   6   2
M  END
>  <reaction>  (12) 
rmg_rxn_15405

>  <mol_properties>  (12) 
{"1": {"label": "*4", "atom_type": "N3d"}, "2": {"label": "*3", "atom_type": "Cd"}, "5": {"label": "*1", "atom_type": "Cs"}, "6": {"label": "*0", "atom_type": "Cs"}, "10": {"label": "*2", "atom_type": "H0"}}

>  <type>  (12) 
unop_8

>  <geom_source>  (12) 
Heuristics

$$$$

     RDKit          3D

 20 18  0  0  0  0  0  0  0  0999 V2000
    1.0605   -3.0776   -0.2171 O   0  0  0  0  0  0  0  0  0  0  0  0
    0.6553   -1.7575   -0.2303 N   0  0  0  0  0  0  0  0  0  0  0  0
    1.5999   -0.9768   -0.5330 C   0  0  0  0  0  0  0  0  0  0  0  0
    0.2623   -3.5524    0.0227 H   0  0  0  0  0  0  0  0  0  0  0  0
    2.6052   -1.3298   -0.7528 H   0  0  0  0  0  0  0  0  0  0  0  0
    1.5492    1.3933    0.5535 C   0  0  0  0  0  3  0  0  0  0  0  0
    0.2883    2.1522    0.1743 C   0  0  0  0  0  0  0  0  0  0  0  0
   -1.2523    1.4383    0.8029 S   0  0  0  0  0  0  0  0  0  0  0  0
   -1.2523   -0.2028    0.0380 C   0  0  0  0  0  0  0  0  0  0  0  0
   -1.2523   -0.2028   -1.4818 C   0  0  0  0  0  0  0  0  0  0  0  0
    1.5747    0.2031    0.0079 H   0  0  0  0  0  0  0  0  0  0  0  0
    2.4340    1.9317    0.2065 H   0  0  0  0  0  0  0  0  0  0  0  0
    1.6199    1.2713    1.6349 H   0  0  0  0  0  0  0  0  0  0  0  0
    0.3034    3.1554    0.6035 H   0  0  0  0  0  0  0  0  0  0  0  0
    0.2171    2.2744   -0.9078 H   0  0  0  0  0  0  0  0  0  0  0  0
   -0.4161   -0.7855    0.4280 H   0  0  0  0  0  0  0  0  0  0  0  0
   -2.1635   -0.6667    0.4193 H   0  0  0  0  0  0  0  0  0  0  0  0
   -0.3293    0.2208   -1.8812 H   0  0  0  0  0  0  0  0  0  0  0  0
   -2.0880    0.3797   -1.8712 H   0  0  0  0  0  0  0  0  0  0  0  0
   -1.3348   -1.2240   -1.8604 H   0  0  0  0  0  0  0  0  0  0  0  0
  1  2  1  0
  1  4  1  0
  2  3  2  3
  3  5  1  0
  3 11  1  0
  6  7  1  0
  6 12  1  0
  6 13  1  0
  7  8  1  0
  7 14  1  0
  7 15  1  0
  8  9  1  0
  9 10  1  0
  9 16  1  0
  9 17  1  0
 10 18  1  0
 10 19  1  0
 10 20  1  0
M  RAD  1   6   2
M  END
>  <reaction>  (13) 
rmg_rxn_15405

>  <mol_properties>  (13) 
{"1": {"label": "*4", "atom_type": "N3d"}, "2": {"label": "*3", "atom_type": "Cd"}, "5": {"label": "*1", "atom_type": "Cs"}, "6": {"label": "*0", "atom_type": "Cs"}, "10": {"label": "*2", "atom_type": "H0"}}

>  <type>  (13) 
unop_9

>  <geom_source>  (13) 
Heuristics

$$$$

     RDKit          3D

 20 18  0  0  0  0  0  0  0  0999 V2000
    4.3931   -0.8082   -0.2667 O   0  0  0  0  0  0  0  0  0  0  0  0
    3.0604   -0.3880   -0.0992 N   0  0  0  0  0  0  0  0  0  0  0  0
    2.8049    0.6647    0.4965 C   0  0  0  0  0  0  0  0  0  0  0  0
    4.3255   -1.6385   -0.7584 H   0  0  0  0  0  0  0  0  0  0  0  0
    3.4703    1.3864    0.9535 H   0  0  0  0  0  0  0  0  0  0  0  0
    0.2301    1.1600    0.6429 C   0  0  0  0  0  3  0  0  0  0  0  0
   -0.4237    0.4985   -0.5142 C   0  0  0  0  0  0  0  0  0  0  0  0
   -2.2604    0.7480   -0.4582 S   0  0  0  0  0  0  0  0  0  0  0  0
   -2.7463   -0.5606    0.7192 C   0  0  0  0  0  0  0  0  0  0  0  0
   -2.8143   -1.9289    0.0682 C   0  0  0  0  0  0  0  0  0  0  0  0
    1.5263    0.9202    0.5639 H   0  0  0  0  0  0  0  0  0  0  0  0
    0.1420    2.2406    0.6302 H   0  0  0  0  0  0  0  0  0  0  0  0
   -0.0540    0.7505    1.6069 H   0  0  0  0  0  0  0  0  0  0  0  0
   -0.1194    0.9396   -1.4610 H   0  0  0  0  0  0  0  0  0  0  0  0
   -0.2477   -0.5747   -0.5387 H   0  0  0  0  0  0  0  0  0  0  0  0
   -2.0376   -0.5423    1.5463 H   0  0  0  0  0  0  0  0  0  0  0  0
   -3.7256   -0.2559    1.0863 H   0  0  0  0  0  0  0  0  0  0  0  0
   -1.8409   -2.2285   -0.3148 H   0  0  0  0  0  0  0  0  0  0  0  0
   -3.5206   -1.9171   -0.7584 H   0  0  0  0  0  0  0  0  0  0  0  0
   -3.1389   -2.6701    0.7960 H   0  0  0  0  0  0  0  0  0  0  0  0
  1  2  1  0
  1  4  1  0
  2  3  2  3
  3  5  1  0
  3 11  1  0
  6  7  1  0
  6 12  1  0
  6 13  1  0
  7  8  1  0
  7 14  1  0
  7 15  1  0
  8  9  1  0
  9 10  1  0
  9 16  1  0
  9 17  1  0
 10 18  1  0
 10 19  1  0
 10 20  1  0
M  RAD  1   6   2
M  END
>  <reaction>  (14) 
rmg_rxn_15405

>  <mol_properties>  (14) 
{"1": {"label": "*4", "atom_type": "N3d"}, "2": {"label": "*3", "atom_type": "Cd"}, "5": {"label": "*1", "atom_type": "Cs"}, "6": {"label": "*0", "atom_type": "Cs"}, "10": {"label": "*2", "atom_type": "H0"}}

>  <type>  (14) 
unop_10

>  <geom_source>  (14) 
Heuristics

$$$$

     RDKit          3D

 20 18  0  0  0  0  0  0  0  0999 V2000
    2.1471   -2.9503   -0.8074 O   0  0  0  0  0  0  0  0  0  0  0  0
    2.2190   -1.7193   -0.1857 N   0  0  0  0  0  0  0  0  0  0  0  0
    1.2102   -1.0035   -0.4379 C   0  0  0  0  0  0  0  0  0  0  0  0
    2.9591   -3.3833   -0.5370 H   0  0  0  0  0  0  0  0  0  0  0  0
    0.3949   -1.3420   -1.0736 H   0  0  0  0  0  0  0  0  0  0  0  0
    1.1595    1.3666    0.6486 C   0  0  0  0  0  3  0  0  0  0  0  0
   -0.1014    2.1255    0.2694 C   0  0  0  0  0  0  0  0  0  0  0  0
   -1.6420    1.4115    0.8980 S   0  0  0  0  0  0  0  0  0  0  0  0
   -1.6420   -0.2296    0.1331 C   0  0  0  0  0  0  0  0  0  0  0  0
   -1.6420   -0.2296   -1.3867 C   0  0  0  0  0  0  0  0  0  0  0  0
    1.1850    0.1764    0.1030 H   0  0  0  0  0  0  0  0  0  0  0  0
    2.0443    1.9050    0.3016 H   0  0  0  0  0  0  0  0  0  0  0  0
    1.2302    1.2446    1.7300 H   0  0  0  0  0  0  0  0  0  0  0  0
   -0.0863    3.1286    0.6986 H   0  0  0  0  0  0  0  0  0  0  0  0
   -0.1725    2.2477   -0.8127 H   0  0  0  0  0  0  0  0  0  0  0  0
   -0.8058   -0.8122    0.5231 H   0  0  0  0  0  0  0  0  0  0  0  0
   -2.5532   -0.6934    0.5144 H   0  0  0  0  0  0  0  0  0  0  0  0
   -0.7189    0.1940   -1.7861 H   0  0  0  0  0  0  0  0  0  0  0  0
   -2.4777    0.3529   -1.7761 H   0  0  0  0  0  0  0  0  0  0  0  0
   -1.7245   -1.2507   -1.7653 H   0  0  0  0  0  0  0  0  0  0  0  0
  1  2  1  0
  1  4  1  0
  2  3  2  3
  3  5  1  0
  3 11  1  0
  6  7  1  0
  6 12  1  0
  6 13  1  0
  7  8  1  0
  7 14  1  0
  7 15  1  0
  8  9  1  0
  9 10  1  0
  9 16  1  0
  9 17  1  0
 10 18  1  0
 10 19  1  0
 10 20  1  0
M  RAD  1   6   2
M  END
>  <reaction>  (15) 
rmg_rxn_15405

>  <mol_properties>  (15) 
{"1": {"label": "*4", "atom_type": "N3d"}, "2": {"label": "*3", "atom_type": "Cd"}, "5": {"label": "*1", "atom_type": "Cs"}, "6": {"label": "*0", "atom_type": "Cs"}, "10": {"label": "*2", "atom_type": "H0"}}

>  <type>  (15) 
unop_11

>  <geom_source>  (15) 
Heuristics

$$$$

     RDKit          3D

 20 18  0  0  0  0  0  0  0  0999 V2000
    4.4009   -0.7986    0.2770 O   0  0  0  0  0  0  0  0  0  0  0  0
    3.0678   -0.3772    0.1171 N   0  0  0  0  0  0  0  0  0  0  0  0
    2.8048    0.6384   -0.5370 C   0  0  0  0  0  0  0  0  0  0  0  0
    4.3397   -1.5950    0.8227 H   0  0  0  0  0  0  0  0  0  0  0  0
    3.4633    1.3240   -1.0555 H   0  0  0  0  0  0  0  0  0  0  0  0
    0.2314    1.1499   -0.6488 C   0  0  0  0  0  3  0  0  0  0  0  0
   -0.4144    0.4734    0.5041 C   0  0  0  0  0  0  0  0  0  0  0  0
   -2.2485    0.7459    0.4783 S   0  0  0  0  0  0  0  0  0  0  0  0
   -2.7673   -0.5344   -0.7161 C   0  0  0  0  0  0  0  0  0  0  0  0
   -2.8441   -1.9135   -0.0894 C   0  0  0  0  0  0  0  0  0  0  0  0
    1.5268    0.9005   -0.5874 H   0  0  0  0  0  0  0  0  0  0  0  0
   -0.0661    0.7593   -1.6166 H   0  0  0  0  0  0  0  0  0  0  0  0
    0.1515    2.2307   -0.6164 H   0  0  0  0  0  0  0  0  0  0  0  0
   -0.2512   -0.6021    0.5055 H   0  0  0  0  0  0  0  0  0  0  0  0
   -0.0918    0.8924    1.4549 H   0  0  0  0  0  0  0  0  0  0  0  0
   -3.7475   -0.2107   -1.0642 H   0  0  0  0  0  0  0  0  0  0  0  0
   -2.0696   -0.5098   -1.5524 H   0  0  0  0  0  0  0  0  0  0  0  0
   -3.1902   -2.6368   -0.8254 H   0  0  0  0  0  0  0  0  0  0  0  0
   -3.5373   -1.9073    0.7483 H   0  0  0  0  0  0  0  0  0  0  0  0
   -1.8693   -2.2334    0.2729 H   0  0  0  0  0  0  0  0  0  0  0  0
  1  2  1  0
  1  4  1  0
  2  3  2  3
  3  5  1  0
  3 11  1  0
  6  7  1  0
  6 12  1  0
  6 13  1  0
  7  8  1  0
  7 14  1  0
  7 15  1  0
  8  9  1  0
  9 10  1  0
  9 16  1  0
  9 17  1  0
 10 18  1  0
 10 19  1  0
 10 20  1  0
M  RAD  1   6   2
M  END
>  <reaction>  (16) 
rmg_rxn_15405

>  <mol_properties>  (16) 
{"1": {"label": "*4", "atom_type": "N3d"}, "2": {"label": "*3", "atom_type": "Cd"}, "5": {"label": "*1", "atom_type": "Cs"}, "6": {"label": "*0", "atom_type": "Cs"}, "10": {"label": "*2", "atom_type": "H0"}}

>  <type>  (16) 
unop_12

>  <geom_source>  (16) 
Heuristics

$$$$

     RDKit          3D

 20 18  0  0  0  0  0  0  0  0999 V2000
   -4.3897   -0.8080    0.2680 O   0  0  0  0  0  0  0  0  0  0  0  0
   -3.0585   -0.3798    0.1115 N   0  0  0  0  0  0  0  0  0  0  0  0
   -2.8018    0.6551   -0.5142 C   0  0  0  0  0  0  0  0  0  0  0  0
   -4.3236   -1.6203    0.7890 H   0  0  0  0  0  0  0  0  0  0  0  0
   -3.4656    1.3540   -1.0077 H   0  0  0  0  0  0  0  0  0  0  0  0
   -0.2287    1.1642   -0.6413 C   0  0  0  0  0  3  0  0  0  0  0  0
    0.4223    0.4987    0.5148 C   0  0  0  0  0  0  0  0  0  0  0  0
    2.2596    0.7461    0.4620 S   0  0  0  0  0  0  0  0  0  0  0  0
    2.7449   -0.5589   -0.7197 C   0  0  0  0  0  0  0  0  0  0  0  0
    2.8088   -1.9301   -0.0747 C   0  0  0  0  0  0  0  0  0  0  0  0
   -1.5246    0.9191   -0.5697 H   0  0  0  0  0  0  0  0  0  0  0  0
   -0.1443    2.2450   -0.6230 H   0  0  0  0  0  0  0  0  0  0  0  0
    0.0604    0.7605   -1.6064 H   0  0  0  0  0  0  0  0  0  0  0  0
    0.1171    0.9373    1.4625 H   0  0  0  0  0  0  0  0  0  0  0  0
    0.2454   -0.5745    0.5359 H   0  0  0  0  0  0  0  0  0  0  0  0
    2.0378   -0.5357   -1.5480 H   0  0  0  0  0  0  0  0  0  0  0  0
    3.7255   -0.2549   -1.0839 H   0  0  0  0  0  0  0  0  0  0  0  0
    1.8341   -2.2295    0.3048 H   0  0  0  0  0  0  0  0  0  0  0  0
    3.5132   -1.9232    0.7536 H   0  0  0  0  0  0  0  0  0  0  0  0
    3.1337   -2.6688   -0.8050 H   0  0  0  0  0  0  0  0  0  0  0  0
  1  2  1  0
  1  4  1  0
  2  3  2  3
  3  5  1  0
  3 11  1  0
  6  7  1  0
  6 12  1  0
  6 13  1  0
  7  8  1  0
  7 14  1  0
  7 15  1  0
  8  9  1  0
  9 10  1  0
  9 16  1  0
  9 17  1  0
 10 18  1  0
 10 19  1  0
 10 20  1  0
M  RAD  1   6   2
M  END
>  <reaction>  (17) 
rmg_rxn_15405

>  <mol_properties>  (17) 
{"1": {"label": "*4", "atom_type": "N3d"}, "2": {"label": "*3", "atom_type": "Cd"}, "5": {"label": "*1", "atom_type": "Cs"}, "6": {"label": "*0", "atom_type": "Cs"}, "10": {"label": "*2", "atom_type": "H0"}}

>  <type>  (17) 
unop_13

>  <geom_source>  (17) 
Heuristics

$$$$

     RDKit          3D

 20 18  0  0  0  0  0  0  0  0999 V2000
    1.6869   -3.0589   -0.0133 O   0  0  0  0  0  0  0  0  0  0  0  0
    0.9394   -1.9001    0.0615 N   0  0  0  0  0  0  0  0  0  0  0  0
    1.4558   -0.9614   -0.6059 C   0  0  0  0  0  0  0  0  0  0  0  0
    1.1918   -3.6777    0.5270 H   0  0  0  0  0  0  0  0  0  0  0  0
    2.3816   -1.0793   -1.1650 H   0  0  0  0  0  0  0  0  0  0  0  0
    1.4051    1.4088    0.4806 C   0  0  0  0  0  3  0  0  0  0  0  0
    0.1442    2.1676    0.1014 C   0  0  0  0  0  0  0  0  0  0  0  0
   -1.3964    1.4537    0.7300 S   0  0  0  0  0  0  0  0  0  0  0  0
   -1.3964   -0.1874   -0.0349 C   0  0  0  0  0  0  0  0  0  0  0  0
   -1.3964   -0.1874   -1.5547 C   0  0  0  0  0  0  0  0  0  0  0  0
    1.4306    0.2185   -0.0650 H   0  0  0  0  0  0  0  0  0  0  0  0
    2.2898    1.9472    0.1336 H   0  0  0  0  0  0  0  0  0  0  0  0
    1.4758    1.2867    1.5620 H   0  0  0  0  0  0  0  0  0  0  0  0
    0.1592    3.1708    0.5306 H   0  0  0  0  0  0  0  0  0  0  0  0
    0.0730    2.2898   -0.9807 H   0  0  0  0  0  0  0  0  0  0  0  0
   -0.5602   -0.7700    0.3551 H   0  0  0  0  0  0  0  0  0  0  0  0
   -2.3076   -0.6513    0.3464 H   0  0  0  0  0  0  0  0  0  0  0  0
   -0.4734    0.2362   -1.9541 H   0  0  0  0  0  0  0  0  0  0  0  0
   -2.2321    0.3951   -1.9441 H   0  0  0  0  0  0  0  0  0  0  0  0
   -1.4790   -1.2086   -1.9333 H   0  0  0  0  0  0  0  0  0  0  0  0
  1  2  1  0
  1  4  1  0
  2  3  2  3
  3  5  1  0
  3 11  1  0
  6  7  1  0
  6 12  1  0
  6 13  1  0
  7  8  1  0
  7 14  1  0
  7 15  1  0
  8  9  1  0
  9 10  1  0
  9 16  1  0
  9 17  1  0
 10 18  1  0
 10 19  1  0
 10 20  1  0
M  RAD  1   6   2
M  END
>  <reaction>  (18) 
rmg_rxn_15405

>  <mol_properties>  (18) 
{"1": {"label": "*4", "atom_type": "N3d"}, "2": {"label": "*3", "atom_type": "Cd"}, "5": {"label": "*1", "atom_type": "Cs"}, "6": {"label": "*0", "atom_type": "Cs"}, "10": {"label": "*2", "atom_type": "H0"}}

>  <type>  (18) 
unop_14

>  <geom_source>  (18) 
Heuristics

$$$$

     RDKit          3D

 20 18  0  0  0  0  0  0  0  0999 V2000
    4.3983    0.7990   -0.2758 O   0  0  0  0  0  0  0  0  0  0  0  0
    3.0648    0.3819   -0.1084 N   0  0  0  0  0  0  0  0  0  0  0  0
    2.8041   -0.6496    0.5213 C   0  0  0  0  0  0  0  0  0  0  0  0
    4.3346    1.6110   -0.7978 H   0  0  0  0  0  0  0  0  0  0  0  0
    3.4651   -1.3539    1.0106 H   0  0  0  0  0  0  0  0  0  0  0  0
    0.2290   -1.1478    0.6522 C   0  0  0  0  0  3  0  0  0  0  0  0
   -0.4182   -0.4838   -0.5070 C   0  0  0  0  0  0  0  0  0  0  0  0
   -2.2535   -0.7473   -0.4723 S   0  0  0  0  0  0  0  0  0  0  0  0
   -2.7624    0.5436    0.7150 C   0  0  0  0  0  0  0  0  0  0  0  0
   -2.8262    1.9206    0.0825 C   0  0  0  0  0  0  0  0  0  0  0  0
    1.5253   -0.9055    0.5814 H   0  0  0  0  0  0  0  0  0  0  0  0
   -0.0620   -0.7422    1.6158 H   0  0  0  0  0  0  0  0  0  0  0  0
    0.1434   -2.2286    0.6352 H   0  0  0  0  0  0  0  0  0  0  0  0
   -0.2495    0.5907   -0.5235 H   0  0  0  0  0  0  0  0  0  0  0  0
   -0.1015   -0.9172   -1.4533 H   0  0  0  0  0  0  0  0  0  0  0  0
   -3.7460    0.2299    1.0622 H   0  0  0  0  0  0  0  0  0  0  0  0
   -2.0669    0.5166    1.5530 H   0  0  0  0  0  0  0  0  0  0  0  0
   -3.5174    1.9169   -0.7569 H   0  0  0  0  0  0  0  0  0  0  0  0
   -1.8478    2.2310   -0.2786 H   0  0  0  0  0  0  0  0  0  0  0  0
   -3.1679    2.6496    0.8148 H   0  0  0  0  0  0  0  0  0  0  0  0
  1  2  1  0
  1  4  1  0
  2  3  2  3
  3  5  1  0
  3 11  1  0
  6  7  1  0
  6 12  1  0
  6 13  1  0
  7  8  1  0
  7 14  1  0
  7 15  1  0
  8  9  1  0
  9 10  1  0
  9 16  1  0
  9 17  1  0
 10 18  1  0
 10 19  1  0
 10 20  1  0
M  RAD  1   6   2
M  END
>  <reaction>  (19) 
rmg_rxn_15405

>  <mol_properties>  (19) 
{"1": {"label": "*4", "atom_type": "N3d"}, "2": {"label": "*3", "atom_type": "Cd"}, "5": {"label": "*1", "atom_type": "Cs"}, "6": {"label": "*0", "atom_type": "Cs"}, "10": {"label": "*2", "atom_type": "H0"}}

>  <type>  (19) 
unop_15

>  <geom_source>  (19) 
Heuristics

$$$$

     RDKit          3D

 20 18  0  0  0  0  0  0  0  0999 V2000
    2.2491   -2.9223   -0.2294 O   0  0  0  0  0  0  0  0  0  0  0  0
    1.3582   -1.9598    0.2029 N   0  0  0  0  0  0  0  0  0  0  0  0
    1.3051   -0.9769   -0.5874 C   0  0  0  0  0  0  0  0  0  0  0  0
    2.1919   -3.5983    0.4488 H   0  0  0  0  0  0  0  0  0  0  0  0
    1.9022   -0.9211   -1.4952 H   0  0  0  0  0  0  0  0  0  0  0  0
    1.2544    1.3932    0.4991 C   0  0  0  0  0  3  0  0  0  0  0  0
   -0.0066    2.1521    0.1199 C   0  0  0  0  0  0  0  0  0  0  0  0
   -1.5472    1.4381    0.7485 S   0  0  0  0  0  0  0  0  0  0  0  0
   -1.5472   -0.2030   -0.0164 C   0  0  0  0  0  0  0  0  0  0  0  0
   -1.5472   -0.2030   -1.5362 C   0  0  0  0  0  0  0  0  0  0  0  0
    1.2798    0.2030   -0.0466 H   0  0  0  0  0  0  0  0  0  0  0  0
    2.1391    1.9316    0.1521 H   0  0  0  0  0  0  0  0  0  0  0  0
    1.3250    1.2712    1.5805 H   0  0  0  0  0  0  0  0  0  0  0  0
    0.0085    3.1552    0.5491 H   0  0  0  0  0  0  0  0  0  0  0  0
   -0.0777    2.2743   -0.9622 H   0  0  0  0  0  0  0  0  0  0  0  0
   -0.7110   -0.7856    0.3736 H   0  0  0  0  0  0  0  0  0  0  0  0
   -2.4584   -0.6668    0.3649 H   0  0  0  0  0  0  0  0  0  0  0  0
   -0.6241    0.2206   -1.9356 H   0  0  0  0  0  0  0  0  0  0  0  0
   -2.3829    0.3795   -1.9256 H   0  0  0  0  0  0  0  0  0  0  0  0
   -1.6297   -1.2241   -1.9148 H   0  0  0  0  0  0  0  0  0  0  0  0
  1  2  1  0
  1  4  1  0
  2  3  2  3
  3  5  1  0
  3 11  1  0
  6  7  1  0
  6 12  1  0
  6 13  1  0
  7  8  1  0
  7 14  1  0
  7 15  1  0
  8  9  1  0
  9 10  1  0
  9 16  1  0
  9 17  1  0
 10 18  1  0
 10 19  1  0
 10 20  1  0
M  RAD  1   6   2
M  END
>  <reaction>  (20) 
rmg_rxn_15405

>  <mol_properties>  (20) 
{"1": {"label": "*4", "atom_type": "N3d"}, "2": {"label": "*3", "atom_type": "Cd"}, "5": {"label": "*1", "atom_type": "Cs"}, "6": {"label": "*0", "atom_type": "Cs"}, "10": {"label": "*2", "atom_type": "H0"}}

>  <type>  (20) 
unop_16

>  <geom_source>  (20) 
Heuristics

$$$$

     RDKit          3D

 20 18  0  0  0  0  0  0  0  0999 V2000
    4.4020    0.7986   -0.2760 O   0  0  0  0  0  0  0  0  0  0  0  0
    3.0683    0.3825   -0.1089 N   0  0  0  0  0  0  0  0  0  0  0  0
    2.8062   -0.6471    0.5233 C   0  0  0  0  0  0  0  0  0  0  0  0
    4.3392    1.6091   -0.8003 H   0  0  0  0  0  0  0  0  0  0  0  0
    3.4660   -1.3504    1.0157 H   0  0  0  0  0  0  0  0  0  0  0  0
    0.2310   -1.1450    0.6518 C   0  0  0  0  0  3  0  0  0  0  0  0
   -0.4165   -0.4775   -0.5053 C   0  0  0  0  0  0  0  0  0  0  0  0
   -2.2510   -0.7477   -0.4743 S   0  0  0  0  0  0  0  0  0  0  0  0
   -2.7657    0.5385    0.7155 C   0  0  0  0  0  0  0  0  0  0  0  0
   -2.8412    1.9153    0.0838 C   0  0  0  0  0  0  0  0  0  0  0  0
    1.5272   -0.9022    0.5827 H   0  0  0  0  0  0  0  0  0  0  0  0
   -0.0609   -0.7433    1.6168 H   0  0  0  0  0  0  0  0  0  0  0  0
    0.1462   -2.2257    0.6307 H   0  0  0  0  0  0  0  0  0  0  0  0
   -0.2516    0.5977   -0.5163 H   0  0  0  0  0  0  0  0  0  0  0  0
   -0.0969   -0.9051   -1.4533 H   0  0  0  0  0  0  0  0  0  0  0  0
   -3.7460    0.2179    1.0659 H   0  0  0  0  0  0  0  0  0  0  0  0
   -2.0672    0.5159    1.5511 H   0  0  0  0  0  0  0  0  0  0  0  0
   -3.5381    1.9080   -0.7509 H   0  0  0  0  0  0  0  0  0  0  0  0
   -1.8669    2.2308   -0.2840 H   0  0  0  0  0  0  0  0  0  0  0  0
   -3.1819    2.6425    0.8186 H   0  0  0  0  0  0  0  0  0  0  0  0
  1  2  1  0
  1  4  1  0
  2  3  2  3
  3  5  1  0
  3 11  1  0
  6  7  1  0
  6 12  1  0
  6 13  1  0
  7  8  1  0
  7 14  1  0
  7 15  1  0
  8  9  1  0
  9 10  1  0
  9 16  1  0
  9 17  1  0
 10 18  1  0
 10 19  1  0
 10 20  1  0
M  RAD  1   6   2
M  END
>  <reaction>  (21) 
rmg_rxn_15405

>  <mol_properties>  (21) 
{"1": {"label": "*4", "atom_type": "N3d"}, "2": {"label": "*3", "atom_type": "Cd"}, "5": {"label": "*1", "atom_type": "Cs"}, "6": {"label": "*0", "atom_type": "Cs"}, "10": {"label": "*2", "atom_type": "H0"}}

>  <type>  (21) 
unop_17

>  <geom_source>  (21) 
Heuristics

$$$$

     RDKit          3D

 20 18  0  0  0  0  0  0  0  0999 V2000
    2.5196   -2.3875   -1.4389 O   0  0  0  0  0  0  0  0  0  0  0  0
    1.7466   -1.2494   -1.3203 N   0  0  0  0  0  0  0  0  0  0  0  0
    1.2082   -1.1610   -0.1820 C   0  0  0  0  0  0  0  0  0  0  0  0
    2.8624   -2.3309   -2.3330 H   0  0  0  0  0  0  0  0  0  0  0  0
    1.3534   -1.9082    0.5952 H   0  0  0  0  0  0  0  0  0  0  0  0
    1.1575    1.2091    0.9045 C   0  0  0  0  0  3  0  0  0  0  0  0
   -0.1035    1.9680    0.5253 C   0  0  0  0  0  0  0  0  0  0  0  0
   -1.6441    1.2540    1.1539 S   0  0  0  0  0  0  0  0  0  0  0  0
   -1.6441   -0.3870    0.3890 C   0  0  0  0  0  0  0  0  0  0  0  0
   -1.6441   -0.3870   -1.1308 C   0  0  0  0  0  0  0  0  0  0  0  0
    1.1829    0.0189    0.3589 H   0  0  0  0  0  0  0  0  0  0  0  0
    2.0422    1.7475    0.5576 H   0  0  0  0  0  0  0  0  0  0  0  0
    1.2281    1.0871    1.9859 H   0  0  0  0  0  0  0  0  0  0  0  0
   -0.0884    2.9711    0.9546 H   0  0  0  0  0  0  0  0  0  0  0  0
   -0.1746    2.0902   -0.5568 H   0  0  0  0  0  0  0  0  0  0  0  0
   -0.8079   -0.9697    0.7790 H   0  0  0  0  0  0  0  0  0  0  0  0
   -2.5553   -0.8509    0.7703 H   0  0  0  0  0  0  0  0  0  0  0  0
   -0.7210    0.0365   -1.5302 H   0  0  0  0  0  0  0  0  0  0  0  0
   -2.4798    0.1954   -1.5202 H   0  0  0  0  0  0  0  0  0  0  0  0
   -1.7266   -1.4082   -1.5094 H   0  0  0  0  0  0  0  0  0  0  0  0
  1  2  1  0
  1  4  1  0
  2  3  2  3
  3  5  1  0
  3 11  1  0
  6  7  1  0
  6 12  1  0
  6 13  1  0
  7  8  1  0
  7 14  1  0
  7 15  1  0
  8  9  1  0
  9 10  1  0
  9 16  1  0
  9 17  1  0
 10 18  1  0
 10 19  1  0
 10 20  1  0
M  RAD  1   6   2
M  END
>  <reaction>  (22) 
rmg_rxn_15405

>  <mol_properties>  (22) 
{"1": {"label": "*4", "atom_type": "N3d"}, "2": {"label": "*3", "atom_type": "Cd"}, "5": {"label": "*1", "atom_type": "Cs"}, "6": {"label": "*0", "atom_type": "Cs"}, "10": {"label": "*2", "atom_type": "H0"}}

>  <type>  (22) 
unop_18

>  <geom_source>  (22) 
Heuristics

$$$$

     RDKit          3D

 20 18  0  0  0  0  0  0  0  0999 V2000
   -4.4081   -0.7889   -0.2831 O   0  0  0  0  0  0  0  0  0  0  0  0
   -3.0733   -0.3733   -0.1230 N   0  0  0  0  0  0  0  0  0  0  0  0
   -2.8040    0.6263    0.5527 C   0  0  0  0  0  0  0  0  0  0  0  0
   -4.3522   -1.5724   -0.8476 H   0  0  0  0  0  0  0  0  0  0  0  0
   -3.4578    1.3006    1.0915 H   0  0  0  0  0  0  0  0  0  0  0  0
   -0.2301    1.1371    0.6565 C   0  0  0  0  0  3  0  0  0  0  0  0
    0.4125    0.4646   -0.5003 C   0  0  0  0  0  0  0  0  0  0  0  0
    2.2454    0.7464   -0.4861 S   0  0  0  0  0  0  0  0  0  0  0  0
    2.7783   -0.5240    0.7128 C   0  0  0  0  0  0  0  0  0  0  0  0
    2.8530   -1.9077    0.0961 C   0  0  0  0  0  0  0  0  0  0  0  0
   -1.5256    0.8868    0.5993 H   0  0  0  0  0  0  0  0  0  0  0  0
    0.0714    0.7448    1.6224 H   0  0  0  0  0  0  0  0  0  0  0  0
   -0.1520    2.2182    0.6263 H   0  0  0  0  0  0  0  0  0  0  0  0
    0.2544   -0.6117   -0.5017 H   0  0  0  0  0  0  0  0  0  0  0  0
    0.0826    0.8828   -1.4489 H   0  0  0  0  0  0  0  0  0  0  0  0
    3.7609   -0.1950    1.0488 H   0  0  0  0  0  0  0  0  0  0  0  0
    2.0888   -0.4947    1.5556 H   0  0  0  0  0  0  0  0  0  0  0  0
    1.8758   -2.2328   -0.2550 H   0  0  0  0  0  0  0  0  0  0  0  0
    3.2074   -2.6242    0.8346 H   0  0  0  0  0  0  0  0  0  0  0  0
    3.5388   -1.9064   -0.7478 H   0  0  0  0  0  0  0  0  0  0  0  0
  1  2  1  0
  1  4  1  0
  2  3  2  3
  3  5  1  0
  3 11  1  0
  6  7  1  0
  6 12  1  0
  6 13  1  0
  7  8  1  0
  7 14  1  0
  7 15  1  0
  8  9  1  0
  9 10  1  0
  9 16  1  0
  9 17  1  0
 10 18  1  0
 10 19  1  0
 10 20  1  0
M  RAD  1   6   2
M  END
>  <reaction>  (23) 
rmg_rxn_15405

>  <mol_properties>  (23) 
{"1": {"label": "*4", "atom_type": "N3d"}, "2": {"label": "*3", "atom_type": "Cd"}, "5": {"label": "*1", "atom_type": "Cs"}, "6": {"label": "*0", "atom_type": "Cs"}, "10": {"label": "*2", "atom_type": "H0"}}

>  <type>  (23) 
unop_19

>  <geom_source>  (23) 
Heuristics

$$$$

     RDKit          3D

 20 18  0  0  0  0  0  0  0  0999 V2000
    0.6841   -2.9370   -0.7890 O   0  0  0  0  0  0  0  0  0  0  0  0
    0.5599   -1.5756   -0.5941 N   0  0  0  0  0  0  0  0  0  0  0  0
    1.6767   -1.0245   -0.3878 C   0  0  0  0  0  0  0  0  0  0  0  0
   -0.2199   -3.2243   -0.9317 H   0  0  0  0  0  0  0  0  0  0  0  0
    2.6113   -1.5811   -0.3711 H   0  0  0  0  0  0  0  0  0  0  0  0
    1.6260    1.3456    0.6987 C   0  0  0  0  0  3  0  0  0  0  0  0
    0.3651    2.1045    0.3195 C   0  0  0  0  0  0  0  0  0  0  0  0
   -1.1755    1.3905    0.9481 S   0  0  0  0  0  0  0  0  0  0  0  0
   -1.1755   -0.2506    0.1832 C   0  0  0  0  0  0  0  0  0  0  0  0
   -1.1755   -0.2506   -1.3366 C   0  0  0  0  0  0  0  0  0  0  0  0
    1.6515    0.1554    0.1531 H   0  0  0  0  0  0  0  0  0  0  0  0
    2.5107    1.8840    0.3517 H   0  0  0  0  0  0  0  0  0  0  0  0
    1.6967    1.2236    1.7801 H   0  0  0  0  0  0  0  0  0  0  0  0
    0.3802    3.1076    0.7487 H   0  0  0  0  0  0  0  0  0  0  0  0
    0.2939    2.2267   -0.7626 H   0  0  0  0  0  0  0  0  0  0  0  0
   -0.3393   -0.8332    0.5732 H   0  0  0  0  0  0  0  0  0  0  0  0
   -2.0867   -0.7144    0.5645 H   0  0  0  0  0  0  0  0  0  0  0  0
   -0.2525    0.1730   -1.7360 H   0  0  0  0  0  0  0  0  0  0  0  0
   -2.0112    0.3319   -1.7260 H   0  0  0  0  0  0  0  0  0  0  0  0
   -1.2581   -1.2717   -1.7152 H   0  0  0  0  0  0  0  0  0  0  0  0
  1  2  1  0
  1  4  1  0
  2  3  2  3
  3  5  1  0
  3 11  1  0
  6  7  1  0
  6 12  1  0
  6 13  1  0
  7  8  1  0
  7 14  1  0
  7 15  1  0
  8  9  1  0
  9 10  1  0
  9 16  1  0
  9 17  1  0
 10 18  1  0
 10 19  1  0
 10 20  1  0
M  RAD  1   6   2
M  END
>  <reaction>  (24) 
rmg_rxn_15405

>  <mol_properties>  (24) 
{"1": {"label": "*4", "atom_type": "N3d"}, "2": {"label": "*3", "atom_type": "Cd"}, "5": {"label": "*1", "atom_type": "Cs"}, "6": {"label": "*0", "atom_type": "Cs"}, "10": {"label": "*2", "atom_type": "H0"}}

>  <type>  (24) 
unop_20

>  <geom_source>  (24) 
Heuristics

$$$$

     RDKit          3D

 20 18  0  0  0  0  0  0  0  0999 V2000
    2.0210   -2.3033   -1.8614 O   0  0  0  0  0  0  0  0  0  0  0  0
    1.3182   -1.2231   -1.3651 N   0  0  0  0  0  0  0  0  0  0  0  0
    1.3493   -1.1788   -0.1039 C   0  0  0  0  0  0  0  0  0  0  0  0
    1.9177   -2.2179   -2.8112 H   0  0  0  0  0  0  0  0  0  0  0  0
    1.8756   -1.9180    0.4962 H   0  0  0  0  0  0  0  0  0  0  0  0
    1.2986    1.1913    0.9825 C   0  0  0  0  0  3  0  0  0  0  0  0
    0.0376    1.9501    0.6033 C   0  0  0  0  0  0  0  0  0  0  0  0
   -1.5029    1.2362    1.2319 S   0  0  0  0  0  0  0  0  0  0  0  0
   -1.5029   -0.4049    0.4670 C   0  0  0  0  0  0  0  0  0  0  0  0
   -1.5029   -0.4049   -1.0527 C   0  0  0  0  0  0  0  0  0  0  0  0
    1.3240    0.0011    0.4369 H   0  0  0  0  0  0  0  0  0  0  0  0
    2.1833    1.7297    0.6356 H   0  0  0  0  0  0  0  0  0  0  0  0
    1.3692    1.0692    2.0640 H   0  0  0  0  0  0  0  0  0  0  0  0
    0.0527    2.9533    1.0326 H   0  0  0  0  0  0  0  0  0  0  0  0
   -0.0335    2.0724   -0.4787 H   0  0  0  0  0  0  0  0  0  0  0  0
   -0.6667   -0.9875    0.8571 H   0  0  0  0  0  0  0  0  0  0  0  0
   -2.4141   -0.8687    0.8483 H   0  0  0  0  0  0  0  0  0  0  0  0
   -0.5799    0.0187   -1.4521 H   0  0  0  0  0  0  0  0  0  0  0  0
   -2.3387    0.1776   -1.4421 H   0  0  0  0  0  0  0  0  0  0  0  0
   -1.5855   -1.4261   -1.4314 H   0  0  0  0  0  0  0  0  0  0  0  0
  1  2  1  0
  1  4  1  0
  2  3  2  3
  3  5  1  0
  3 11  1  0
  6  7  1  0
  6 12  1  0
  6 13  1  0
  7  8  1  0
  7 14  1  0
  7 15  1  0
  8  9  1  0
  9 10  1  0
  9 16  1  0
  9 17  1  0
 10 18  1  0
 10 19  1  0
 10 20  1  0
M  RAD  1   6   2
M  END
>  <reaction>  (25) 
rmg_rxn_15405

>  <mol_properties>  (25) 
{"1": {"label": "*4", "atom_type": "N3d"}, "2": {"label": "*3", "atom_type": "Cd"}, "5": {"label": "*1", "atom_type": "Cs"}, "6": {"label": "*0", "atom_type": "Cs"}, "10": {"label": "*2", "atom_type": "H0"}}

>  <type>  (25) 
unop_21

>  <geom_source>  (25) 
Heuristics

$$$$

     RDKit          3D

 20 18  0  0  0  0  0  0  0  0999 V2000
    2.4267   -2.8164   -0.7037 O   0  0  0  0  0  0  0  0  0  0  0  0
    1.8252   -1.9036    0.1401 N   0  0  0  0  0  0  0  0  0  0  0  0
    1.2138   -1.0023   -0.4982 C   0  0  0  0  0  0  0  0  0  0  0  0
    2.8468   -3.4328   -0.1007 H   0  0  0  0  0  0  0  0  0  0  0  0
    1.1811   -0.9728   -1.5852 H   0  0  0  0  0  0  0  0  0  0  0  0
    1.1631    1.3678    0.5883 C   0  0  0  0  0  3  0  0  0  0  0  0
   -0.0978    2.1266    0.2091 C   0  0  0  0  0  0  0  0  0  0  0  0
   -1.6384    1.4127    0.8377 S   0  0  0  0  0  0  0  0  0  0  0  0
   -1.6384   -0.2284    0.0728 C   0  0  0  0  0  0  0  0  0  0  0  0
   -1.6384   -0.2284   -1.4469 C   0  0  0  0  0  0  0  0  0  0  0  0
    1.1886    0.1775    0.0427 H   0  0  0  0  0  0  0  0  0  0  0  0
    2.0478    1.9062    0.2414 H   0  0  0  0  0  0  0  0  0  0  0  0
    1.2338    1.2457    1.6697 H   0  0  0  0  0  0  0  0  0  0  0  0
   -0.0827    3.1298    0.6384 H   0  0  0  0  0  0  0  0  0  0  0  0
   -0.1690    2.2488   -0.8729 H   0  0  0  0  0  0  0  0  0  0  0  0
   -0.8022   -0.8110    0.4629 H   0  0  0  0  0  0  0  0  0  0  0  0
   -2.5496   -0.6923    0.4541 H   0  0  0  0  0  0  0  0  0  0  0  0
   -0.7154    0.1952   -1.8463 H   0  0  0  0  0  0  0  0  0  0  0  0
   -2.4741    0.3541   -1.8363 H   0  0  0  0  0  0  0  0  0  0  0  0
   -1.7210   -1.2496   -1.8256 H   0  0  0  0  0  0  0  0  0  0  0  0
  1  2  1  0
  1  4  1  0
  2  3  2  3
  3  5  1  0
  3 11  1  0
  6  7  1  0
  6 12  1  0
  6 13  1  0
  7  8  1  0
  7 14  1  0
  7 15  1  0
  8  9  1  0
  9 10  1  0
  9 16  1  0
  9 17  1  0
 10 18  1  0
 10 19  1  0
 10 20  1  0
M  RAD  1   6   2
M  END
>  <reaction>  (26) 
rmg_rxn_15405

>  <mol_properties>  (26) 
{"1": {"label": "*4", "atom_type": "N3d"}, "2": {"label": "*3", "atom_type": "Cd"}, "5": {"label": "*1", "atom_type": "Cs"}, "6": {"label": "*0", "atom_type": "Cs"}, "10": {"label": "*2", "atom_type": "H0"}}

>  <type>  (26) 
unop_22

>  <geom_source>  (26) 
Heuristics

$$$$

     RDKit          3D

 20 18  0  0  0  0  0  0  0  0999 V2000
    0.7851   -2.6743   -1.4731 O   0  0  0  0  0  0  0  0  0  0  0  0
    0.6597   -1.4033   -0.9478 N   0  0  0  0  0  0  0  0  0  0  0  0
    1.6464   -1.0919   -0.2248 C   0  0  0  0  0  0  0  0  0  0  0  0
   -0.0154   -2.7805   -1.9907 H   0  0  0  0  0  0  0  0  0  0  0  0
    2.4835   -1.7653   -0.0529 H   0  0  0  0  0  0  0  0  0  0  0  0
    1.5957    1.2782    0.8617 C   0  0  0  0  0  3  0  0  0  0  0  0
    0.3348    2.0371    0.4825 C   0  0  0  0  0  0  0  0  0  0  0  0
   -1.2058    1.3231    1.1111 S   0  0  0  0  0  0  0  0  0  0  0  0
   -1.2058   -0.3179    0.3462 C   0  0  0  0  0  0  0  0  0  0  0  0
   -1.2058   -0.3179   -1.1735 C   0  0  0  0  0  0  0  0  0  0  0  0
    1.6212    0.0880    0.3161 H   0  0  0  0  0  0  0  0  0  0  0  0
    2.4805    1.8166    0.5148 H   0  0  0  0  0  0  0  0  0  0  0  0
    1.6664    1.1562    1.9431 H   0  0  0  0  0  0  0  0  0  0  0  0
    0.3499    3.0402    0.9118 H   0  0  0  0  0  0  0  0  0  0  0  0
    0.2637    2.1593   -0.5995 H   0  0  0  0  0  0  0  0  0  0  0  0
   -0.3696   -0.9006    0.7363 H   0  0  0  0  0  0  0  0  0  0  0  0
   -2.1170   -0.7818    0.7275 H   0  0  0  0  0  0  0  0  0  0  0  0
   -0.2827    0.1056   -1.5729 H   0  0  0  0  0  0  0  0  0  0  0  0
   -2.0415    0.2645   -1.5629 H   0  0  0  0  0  0  0  0  0  0  0  0
   -1.2883   -1.3391   -1.5522 H   0  0  0  0  0  0  0  0  0  0  0  0
  1  2  1  0
  1  4  1  0
  2  3  2  3
  3  5  1  0
  3 11  1  0
  6  7  1  0
  6 12  1  0
  6 13  1  0
  7  8  1  0
  7 14  1  0
  7 15  1  0
  8  9  1  0
  9 10  1  0
  9 16  1  0
  9 17  1  0
 10 18  1  0
 10 19  1  0
 10 20  1  0
M  RAD  1   6   2
M  END
>  <reaction>  (27) 
rmg_rxn_15405

>  <mol_properties>  (27) 
{"1": {"label": "*4", "atom_type": "N3d"}, "2": {"label": "*3", "atom_type": "Cd"}, "5": {"label": "*1", "atom_type": "Cs"}, "6": {"label": "*0", "atom_type": "Cs"}, "10": {"label": "*2", "atom_type": "H0"}}

>  <type>  (27) 
unop_23

>  <geom_source>  (27) 
Heuristics

$$$$

     RDKit          3D

 20 18  0  0  0  0  0  0  0  0999 V2000
    4.3992   -0.8024   -0.2713 O   0  0  0  0  0  0  0  0  0  0  0  0
    3.0655   -0.3850   -0.1055 N   0  0  0  0  0  0  0  0  0  0  0  0
    2.8058    0.6541    0.5121 C   0  0  0  0  0  0  0  0  0  0  0  0
    4.3353   -1.6209   -0.7829 H   0  0  0  0  0  0  0  0  0  0  0  0
    3.4682    1.3643    0.9908 H   0  0  0  0  0  0  0  0  0  0  0  0
    0.2309    1.1521    0.6469 C   0  0  0  0  0  3  0  0  0  0  0  0
   -0.4197    0.4857   -0.5090 C   0  0  0  0  0  0  0  0  0  0  0  0
   -2.2551    0.7480   -0.4671 S   0  0  0  0  0  0  0  0  0  0  0  0
   -2.7585   -0.5479    0.7171 C   0  0  0  0  0  0  0  0  0  0  0  0
   -2.8304   -1.9211    0.0771 C   0  0  0  0  0  0  0  0  0  0  0  0
    1.5272    0.9099    0.5737 H   0  0  0  0  0  0  0  0  0  0  0  0
    0.1454    2.2329    0.6277 H   0  0  0  0  0  0  0  0  0  0  0  0
   -0.0576    0.7487    1.6122 H   0  0  0  0  0  0  0  0  0  0  0  0
   -0.1065    0.9174   -1.4573 H   0  0  0  0  0  0  0  0  0  0  0  0
   -0.2506   -0.5888   -0.5241 H   0  0  0  0  0  0  0  0  0  0  0  0
   -2.0561   -0.5273    1.5495 H   0  0  0  0  0  0  0  0  0  0  0  0
   -3.7386   -0.2339    1.0742 H   0  0  0  0  0  0  0  0  0  0  0  0
   -1.8560   -2.2305   -0.2955 H   0  0  0  0  0  0  0  0  0  0  0  0
   -3.5298   -1.9112   -0.7555 H   0  0  0  0  0  0  0  0  0  0  0  0
   -3.1662   -2.6540    0.8083 H   0  0  0  0  0  0  0  0  0  0  0  0
  1  2  1  0
  1  4  1  0
  2  3  2  3
  3  5  1  0
  3 11  1  0
  6  7  1  0
  6 12  1  0
  6 13  1  0
  7  8  1  0
  7 14  1  0
  7 15  1  0
  8  9  1  0
  9 10  1  0
  9 16  1  0
  9 17  1  0
 10 18  1  0
 10 19  1  0
 10 20  1  0
M  RAD  1   6   2
M  END
>  <reaction>  (28) 
rmg_rxn_15405

>  <mol_properties>  (28) 
{"1": {"label": "*4", "atom_type": "N3d"}, "2": {"label": "*3", "atom_type": "Cd"}, "5": {"label": "*1", "atom_type": "Cs"}, "6": {"label": "*0", "atom_type": "Cs"}, "10": {"label": "*2", "atom_type": "H0"}}

>  <type>  (28) 
unop_24

>  <geom_source>  (28) 
Heuristics

$$$$

     RDKit          3D

 20 18  0  0  0  0  0  0  0  0999 V2000
   -1.3633   -0.6778    1.4180 S   0  0  0  0  0  0  0  0  0  0  0  0
    3.9147    1.7659   -0.0177 O   0  0  0  0  0  0  0  0  0  0  0  0
    4.2891    0.4573   -0.2357 N   0  0  0  0  0  0  0  0  0  0  0  0
   -2.4163    0.4882    0.4815 C   0  0  0  0  0  0  0  0  0  0  0  0
   -0.1160   -0.9499    0.1084 C   0  0  0  0  0  0  0  0  0  0  0  0
   -3.4661   -0.2670   -0.3228 C   0  0  0  0  0  0  0  0  0  0  0  0
    0.9936    0.0859    0.2026 C   0  0  0  0  0  3  0  0  0  0  0  0
    3.4160   -0.4680   -0.4709 C   0  0  0  0  0  0  0  0  0  0  0  0
   -2.9316    1.1502    1.2089 H   0  0  0  0  0  0  0  0  0  0  0  0
   -1.8102    1.1295   -0.1919 H   0  0  0  0  0  0  0  0  0  0  0  0
   -4.1167    0.4567   -0.8575 H   0  0  0  0  0  0  0  0  0  0  0  0
   -2.9823   -0.9293   -1.0704 H   0  0  0  0  0  0  0  0  0  0  0  0
   -4.0969   -0.8810    0.3544 H   0  0  0  0  0  0  0  0  0  0  0  0
    0.3279   -1.9567    0.2525 H   0  0  0  0  0  0  0  0  0  0  0  0
   -0.5731   -0.9209   -0.9022 H   0  0  0  0  0  0  0  0  0  0  0  0
    1.4890    0.0370    1.1954 H   0  0  0  0  0  0  0  0  0  0  0  0
    0.5989    1.1084    0.0282 H   0  0  0  0  0  0  0  0  0  0  0  0
    3.7428   -1.4852   -0.6379 H   0  0  0  0  0  0  0  0  0  0  0  0
    2.1593   -0.1925   -0.5089 H   0  0  0  0  0  0  0  0  0  0  0  0
    2.9411    2.0491   -0.0340 H   0  0  0  0  0  0  0  0  0  0  0  0
  1  5  1  0
  1  4  1  0
  2  3  1  0
  2 20  1  0
  3  8  2  3
  4  6  1  0
  4  9  1  0
  4 10  1  0
  5  7  1  0
  5 14  1  0
  5 15  1  0
  6 11  1  0
  6 12  1  0
  6 13  1  0
  7 16  1  0
  7 17  1  0
  8 18  1  0
  8 19  1  0
M  RAD  1   7   2
M  END
>  <reaction>  (29) 
rmg_rxn_15405

>  <mol_properties>  (29) 
{"1": {"label": "*4", "atom_type": "N3d"}, "2": {"label": "*3", "atom_type": "Cd"}, "5": {"label": "*1", "atom_type": "Cs"}, "6": {"label": "*0", "atom_type": "Cs"}, "10": {"label": "*2", "atom_type": "H0"}}

>  <type>  (29) 
unop_25

>  <geom_source>  (29) 
AutoTST

$$$$

     RDKit          3D

 20 18  0  0  0  0  0  0  0  0999 V2000
    1.3320   -2.4147   -1.8982 O   0  0  0  0  0  0  0  0  0  0  0  0
    0.9285   -1.2784   -1.2251 N   0  0  0  0  0  0  0  0  0  0  0  0
    1.5179   -1.1525   -0.1159 C   0  0  0  0  0  0  0  0  0  0  0  0
    0.8172   -2.3882   -2.7071 H   0  0  0  0  0  0  0  0  0  0  0  0
    2.2529   -1.8701    0.2426 H   0  0  0  0  0  0  0  0  0  0  0  0
    1.4672    1.2176    0.9706 C   0  0  0  0  0  3  0  0  0  0  0  0
    0.2062    1.9764    0.5914 C   0  0  0  0  0  0  0  0  0  0  0  0
   -1.3343    1.2625    1.2200 S   0  0  0  0  0  0  0  0  0  0  0  0
   -1.3343   -0.3786    0.4551 C   0  0  0  0  0  0  0  0  0  0  0  0
   -1.3343   -0.3786   -1.0647 C   0  0  0  0  0  0  0  0  0  0  0  0
    1.4926    0.0273    0.4250 H   0  0  0  0  0  0  0  0  0  0  0  0
    2.3519    1.7560    0.6237 H   0  0  0  0  0  0  0  0  0  0  0  0
    1.5378    1.0955    2.0520 H   0  0  0  0  0  0  0  0  0  0  0  0
    0.2213    2.9796    1.0206 H   0  0  0  0  0  0  0  0  0  0  0  0
    0.1351    2.0986   -0.4907 H   0  0  0  0  0  0  0  0  0  0  0  0
   -0.4981   -0.9612    0.8451 H   0  0  0  0  0  0  0  0  0  0  0  0
   -2.2455   -0.8425    0.8364 H   0  0  0  0  0  0  0  0  0  0  0  0
   -0.4113    0.0450   -1.4641 H   0  0  0  0  0  0  0  0  0  0  0  0
   -2.1700    0.2039   -1.4541 H   0  0  0  0  0  0  0  0  0  0  0  0
   -1.4169   -1.3998   -1.4433 H   0  0  0  0  0  0  0  0  0  0  0  0
  1  2  1  0
  1  4  1  0
  2  3  2  3
  3  5  1  0
  3 11  1  0
  6  7  1  0
  6 12  1  0
  6 13  1  0
  7  8  1  0
  7 14  1  0
  7 15  1  0
  8  9  1  0
  9 10  1  0
  9 16  1  0
  9 17  1  0
 10 18  1  0
 10 19  1  0
 10 20  1  0
M  RAD  1   6   2
M  END
>  <reaction>  (30) 
rmg_rxn_15405

>  <mol_properties>  (30) 
{"1": {"label": "*4", "atom_type": "N3d"}, "2": {"label": "*3", "atom_type": "Cd"}, "5": {"label": "*1", "atom_type": "Cs"}, "6": {"label": "*0", "atom_type": "Cs"}, "10": {"label": "*2", "atom_type": "H0"}}

>  <type>  (30) 
unop_26

>  <geom_source>  (30) 
gaussian_log

$$$$
