
     RDKit          3D

 10  9  0  0  0  0  0  0  0  0999 V2000
    0.3026    0.7569   -1.8958 C   0  0  0  0  0  0  0  0  0  0  0  0
    0.0881    0.2203   -0.5517 C   0  0  0  0  0  0  0  0  0  0  0  0
   -0.0881   -0.2203    0.5517 C   0  0  0  0  0  0  0  0  0  0  0  0
   -0.3026   -0.7569    1.8958 C   0  0  0  0  0  0  0  0  0  0  0  0
    0.1056    1.8328   -1.9212 H   0  0  0  0  0  0  0  0  0  0  0  0
   -0.3614    0.2730   -2.6184 H   0  0  0  0  0  0  0  0  0  0  0  0
    1.3347    0.5928   -2.2200 H   0  0  0  0  0  0  0  0  0  0  0  0
   -1.2076   -1.3708    1.9297 H   0  0  0  0  0  0  0  0  0  0  0  0
   -0.4134    0.0519    2.6244 H   0  0  0  0  0  0  0  0  0  0  0  0
    0.5421   -1.3796    2.2055 H   0  0  0  0  0  0  0  0  0  0  0  0
  1  2  1  0
  1  5  1  0
  1  6  1  0
  1  7  1  0
  2  3  3  0
  3  4  1  0
  4  8  1  0
  4  9  1  0
  4 10  1  0
M  END
>  <reaction>  (1) 
rmg_rxn_1130

>  <mol_properties>  (1) 
{"3": {"label": "donator", "atom_type": "Cs"}, "9": {"label": "d_hydrogen", "atom_type": "H0"}}

>  <type>  (1) 
r1h

$$$$

     RDKit          3D

  1  0  0  0  0  0  0  0  0  0999 V2000
    0.0000    0.0000    0.0000 O   0  0  0  0  0 15  0  0  0  0  0  0
M  END
>  <reaction>  (2) 
rmg_rxn_1130

>  <mol_properties>  (2) 
{"0": {"label": "acceptor", "atom_type": "O2s"}}

>  <type>  (2) 
r2

$$$$

     RDKit          3D

  2  1  0  0  0  0  0  0  0  0999 V2000
    0.0000    0.0000    0.1079 O   0  0  0  0  0  1  0  0  0  0  0  0
    0.0000    0.0000   -0.8631 H   0  0  0  0  0  0  0  0  0  0  0  0
  1  2  1  0
M  RAD  1   1   2
M  END
>  <reaction>  (3) 
rmg_rxn_1130

>  <mol_properties>  (3) 
{"0": {"label": "acceptor", "atom_type": "O2s"}, "1": {"label": "a_hydrogen", "atom_type": "H0"}}

>  <type>  (3) 
r2h

$$$$

     RDKit          3D

 11  9  0  0  0  0  0  0  0  0999 V2000
   -2.8345   -0.9549    0.0000 O   0  0  0  0  0 15  0  0  0  0  0  0
    2.6978   -0.4364    0.0003 C   0  0  0  0  0  0  0  0  0  0  0  0
    1.3284    0.0642    0.0014 C   0  0  0  0  0  0  0  0  0  0  0  0
    0.1920    0.4920    0.0004 C   0  0  0  0  0  0  0  0  0  0  0  0
   -1.1643    0.9483   -0.0003 C   0  0  0  0  0  0  0  0  0  0  0  0
    3.3652    0.2540   -0.5370 H   0  0  0  0  0  0  0  0  0  0  0  0
    2.7535   -1.4159   -0.4981 H   0  0  0  0  0  0  0  0  0  0  0  0
    3.0778   -0.5533    1.0258 H   0  0  0  0  0  0  0  0  0  0  0  0
   -1.4644    1.4866   -0.9097 H   0  0  0  0  0  0  0  0  0  0  0  0
   -1.4631    1.4913    0.9067 H   0  0  0  0  0  0  0  0  0  0  0  0
   -1.9164   -0.0321    0.0014 H   0  0  0  0  0  0  0  0  0  0  0  0
  2  3  1  0
  2  6  1  0
  2  7  1  0
  2  8  1  0
  3  4  3  0
  4  5  1  0
  5  9  1  0
  5 10  1  0
  5 11  1  0
M  END
>  <reaction>  (4) 
rmg_rxn_1130

>  <mol_properties>  (4) 
{"0": {"label": "*3", "atom_type": "O2s"}, "3": {"label": "*0", "atom_type": "Ct"}, "4": {"label": "*1", "atom_type": "Cs"}, "10": {"label": "*2", "atom_type": "H0"}}

>  <type>  (4) 
ts

$$$$

     RDKit          3D

 11  9  0  0  0  0  0  0  0  0999 V2000
   -0.5204   -1.7068    2.2712 O   0  0  0  0  0  1  0  0  0  0  0  0
    0.1551    0.5088   -2.7372 C   0  0  0  0  0  0  0  0  0  0  0  0
    0.1551    0.5088   -1.2741 C   0  0  0  0  0  3  0  0  0  0  0  0
    0.1551    0.5088   -0.0730 C   0  0  0  0  0  0  0  0  0  0  0  0
    0.1551    0.5088    1.3900 C   0  0  0  0  0  0  0  0  0  0  0  0
    1.0854    0.9335   -3.1262 H   0  0  0  0  0  0  0  0  0  0  0  0
   -0.6779    1.1020   -3.1262 H   0  0  0  0  0  0  0  0  0  0  0  0
    0.0578   -0.5092   -3.1262 H   0  0  0  0  0  0  0  0  0  0  0  0
   -0.5429    1.2562    1.7791 H   0  0  0  0  0  0  0  0  0  0  0  0
    1.1514    0.7396    1.7791 H   0  0  0  0  0  0  0  0  0  0  0  0
   -0.2028   -0.6651    1.8569 H   0  0  0  0  0  0  0  0  0  0  0  0
  1 11  1  0
  2  3  1  0
  2  6  1  0
  2  7  1  0
  2  8  1  0
  3  4  2  0
  4  5  2  0
  5  9  1  0
  5 10  1  0
M  RAD  2   1   2   3   2
M  END
>  <reaction>  (5) 
rmg_rxn_1130

>  <mol_properties>  (5) 
{"0": {"label": "*3", "atom_type": "O2s"}, "3": {"label": "*0", "atom_type": "Ct"}, "4": {"label": "*1", "atom_type": "Cs"}, "10": {"label": "*2", "atom_type": "H0"}}

>  <type>  (5) 
unop_1

>  <geom_source>  (5) 
Heuristics

$$$$

     RDKit          3D

 11  9  0  0  0  0  0  0  0  0999 V2000
    2.9769   -1.2714    0.2509 O   0  0  0  0  0  1  0  0  0  0  0  0
   -2.2718   -0.3660    0.2695 C   0  0  0  0  0  0  0  0  0  0  0  0
    1.6816    0.6733   -0.3307 C   0  0  0  0  0  0  0  0  0  0  0  0
   -0.8718    0.0020    0.0570 C   0  0  0  0  0  3  0  0  0  0  0  0
    0.2817    0.3053   -0.1182 C   0  0  0  0  0  0  0  0  0  0  0  0
   -2.8333    0.5150    0.6429 H   0  0  0  0  0  0  0  0  0  0  0  0
   -2.7142   -0.7073   -0.6889 H   0  0  0  0  0  0  0  0  0  0  0  0
   -2.3299   -1.1848    1.0158 H   0  0  0  0  0  0  0  0  0  0  0  0
    1.8329    1.7344   -0.0445 H   0  0  0  0  0  0  0  0  0  0  0  0
    1.9414    0.5382   -1.4008 H   0  0  0  0  0  0  0  0  0  0  0  0
    2.3065   -0.2388    0.3470 H   0  0  0  0  0  0  0  0  0  0  0  0
  1 11  1  0
  2  4  1  0
  2  6  1  0
  2  7  1  0
  2  8  1  0
  3  5  2  0
  3  9  1  0
  3 10  1  0
  4  5  2  0
M  RAD  2   1   2   4   2
M  END
>  <reaction>  (6) 
rmg_rxn_1130

>  <mol_properties>  (6) 
{"0": {"label": "*3", "atom_type": "O2s"}, "3": {"label": "*0", "atom_type": "Ct"}, "4": {"label": "*1", "atom_type": "Cs"}, "10": {"label": "*2", "atom_type": "H0"}}

>  <type>  (6) 
unop_2

>  <geom_source>  (6) 
AutoTST

$$$$

     RDKit          3D

 11  9  0  0  0  0  0  0  0  0999 V2000
   -3.1926    1.4964    0.8943 O   0  0  0  0  0 15  0  0  0  0  0  0
   -1.4612   -0.2019    0.9484 C   0  0  0  0  0  0  0  0  0  0  0  0
    2.1123   -0.1192   -1.1232 C   0  0  0  0  0  0  0  0  0  0  0  0
   -0.1958   -0.1727    0.2149 C   0  0  0  0  0  0  0  0  0  0  0  0
    0.8469   -0.1485   -0.3896 C   0  0  0  0  0  0  0  0  0  0  0  0
   -2.0752    0.8538    0.7530 H   0  0  0  0  0  0  0  0  0  0  0  0
   -1.2577   -0.3158    2.0331 H   0  0  0  0  0  0  0  0  0  0  0  0
   -2.0740   -1.0567    0.5954 H   0  0  0  0  0  0  0  0  0  0  0  0
    1.9419    0.2942   -2.1386 H   0  0  0  0  0  0  0  0  0  0  0  0
    2.5158   -1.1493   -1.2064 H   0  0  0  0  0  0  0  0  0  0  0  0
    2.8395    0.5199   -0.5812 H   0  0  0  0  0  0  0  0  0  0  0  0
  2  4  1  0
  2  6  1  0
  2  7  1  0
  2  8  1  0
  3  5  1  0
  3  9  1  0
  3 10  1  0
  3 11  1  0
  4  5  3  0
M  END
>  <reaction>  (7) 
rmg_rxn_1130

>  <mol_properties>  (7) 
{"0": {"label": "*3", "atom_type": "O2s"}, "3": {"label": "*0", "atom_type": "Ct"}, "4": {"label": "*1", "atom_type": "Cs"}, "10": {"label": "*2", "atom_type": "H0"}}

>  <type>  (7) 
unop_3

>  <geom_source>  (7) 
gaussian_log

$$$$
