
     RDKit          3D

  9  8  0  0  0  0  0  0  0  0999 V2000
   -1.0314    0.2323   -0.1227 C   0  0  0  0  0  0  0  0  0  0  0  0
    0.3094   -0.4511    0.0063 C   0  0  0  0  0  0  0  0  0  0  0  0
    0.3197   -1.7698    0.6841 N   0  0  0  0  0  0  0  0  0  0  0  0
   -0.7498   -2.1455    1.0557 O   0  0  0  0  0  0  0  0  0  0  0  0
   -1.4744    0.4198    0.8552 H   0  0  0  0  0  0  0  0  0  0  0  0
   -0.9073    1.1865   -0.6350 H   0  0  0  0  0  0  0  0  0  0  0  0
   -1.7319   -0.3778   -0.6927 H   0  0  0  0  0  0  0  0  0  0  0  0
    1.0375    0.1401    0.5713 H   0  0  0  0  0  0  0  0  0  0  0  0
    0.7826   -0.6494   -0.9609 H   0  0  0  0  0  0  0  0  0  0  0  0
  1  2  1  0
  1  5  1  0
  1  6  1  0
  1  7  1  0
  2  3  1  0
  2  8  1  0
  2  9  1  0
  3  4  2  0
M  END
>  <reaction>  (1) 
rmg_rxn_16555

>  <mol_properties>  (1) 
{"1": {"label": "donator", "atom_type": "Cs"}, "7": {"label": "d_hydrogen", "atom_type": "H0"}}

>  <type>  (1) 
r1h

$$$$

     RDKit          3D

  7  6  0  0  0  0  0  0  0  0999 V2000
   -0.8428   -0.0590   -0.1880 C   0  0  0  0  0  0  0  0  0  0  0  0
    0.5046    0.4746    0.1305 C   0  0  0  0  0  3  0  0  0  0  0  0
    1.1881    0.3350    1.1450 N   0  0  0  0  0  0  0  0  0  0  0  0
   -0.7902   -0.6717   -1.0889 H   0  0  0  0  0  0  0  0  0  0  0  0
   -1.2347   -0.6570    0.6398 H   0  0  0  0  0  0  0  0  0  0  0  0
   -1.5237    0.7672   -0.3967 H   0  0  0  0  0  0  0  0  0  0  0  0
    2.0976    0.7897    1.1637 H   0  0  0  0  0  0  0  0  0  0  0  0
  1  2  1  0
  1  4  1  0
  1  5  1  0
  1  6  1  0
  2  3  2  3
  3  7  1  0
M  RAD  1   2   2
M  END
>  <reaction>  (2) 
rmg_rxn_16555

>  <mol_properties>  (2) 
{"1": {"label": "acceptor", "atom_type": "Cd"}}

>  <type>  (2) 
r2

$$$$

     RDKit          3D

  8  7  0  0  0  0  0  0  0  0999 V2000
    0.9548    0.1194   -0.0790 C   0  0  0  0  0  0  0  0  0  0  0  0
   -0.4838   -0.2649    0.0193 C   0  0  0  0  0  0  0  0  0  0  0  0
   -0.8933   -1.1081    0.8664 N   0  0  0  0  0  0  0  0  0  0  0  0
    1.3360   -0.0983   -1.0800 H   0  0  0  0  0  0  0  0  0  0  0  0
    1.0698    1.1948    0.0786 H   0  0  0  0  0  0  0  0  0  0  0  0
    1.5426   -0.4219    0.6602 H   0  0  0  0  0  0  0  0  0  0  0  0
   -1.1575    0.2324   -0.6905 H   0  0  0  0  0  0  0  0  0  0  0  0
   -1.8989   -1.2455    0.7886 H   0  0  0  0  0  0  0  0  0  0  0  0
  1  2  1  0
  1  4  1  0
  1  5  1  0
  1  6  1  0
  2  3  2  3
  2  7  1  0
  3  8  1  0
M  END
>  <reaction>  (3) 
rmg_rxn_16555

>  <mol_properties>  (3) 
{"1": {"label": "acceptor", "atom_type": "Cd"}, "7": {"label": "a_hydrogen", "atom_type": "H0"}}

>  <type>  (3) 
r2h

$$$$

     RDKit          3D

 16 14  0  0  0  0  0  0  0  0999 V2000
    1.9407   -1.9573   -0.2261 C   0  0  0  0  0  0  0  0  0  0  0  0
    1.1485   -1.0200    0.6053 C   0  0  0  0  0  3  0  0  0  0  0  0
    1.4043   -0.4942    1.6880 N   0  0  0  0  0  0  0  0  0  0  0  0
    2.1258   -1.5095   -1.2037 H   0  0  0  0  0  0  0  0  0  0  0  0
    2.8906   -2.1894    0.2581 H   0  0  0  0  0  0  0  0  0  0  0  0
    1.3746   -2.8760   -0.3869 H   0  0  0  0  0  0  0  0  0  0  0  0
    0.6921    0.1327    2.0642 H   0  0  0  0  0  0  0  0  0  0  0  0
   -0.9323    0.3034   -1.8141 C   0  0  0  0  0  0  0  0  0  0  0  0
   -1.2123   -0.1325   -0.3999 C   0  0  0  0  0  0  0  0  0  0  0  0
   -1.4284    0.8457    0.6022 N   0  0  0  0  0  0  0  0  0  0  0  0
   -1.0100    1.9575    0.3266 O   0  0  0  0  0  0  0  0  0  0  0  0
   -0.0813    0.9820   -1.8520 H   0  0  0  0  0  0  0  0  0  0  0  0
   -0.7265   -0.5661   -2.4391 H   0  0  0  0  0  0  0  0  0  0  0  0
   -1.7923    0.8308   -2.2318 H   0  0  0  0  0  0  0  0  0  0  0  0
   -0.1364   -0.6512    0.0376 H   0  0  0  0  0  0  0  0  0  0  0  0
   -1.9245   -0.9462   -0.2717 H   0  0  0  0  0  0  0  0  0  0  0  0
  1  2  1  0
  1  4  1  0
  1  5  1  0
  1  6  1  0
  2  3  2  3
  3  7  1  0
  8  9  1  0
  8 12  1  0
  8 13  1  0
  8 14  1  0
  9 10  1  0
  9 15  1  0
  9 16  1  0
 10 11  2  0
M  RAD  1   2   2
M  END
>  <reaction>  (4) 
rmg_rxn_16555

>  <mol_properties>  (4) 
{"1": {"label": "*3", "atom_type": "Cd"}, "2": {"label": "*4", "atom_type": "N3d"}, "8": {"label": "*1", "atom_type": "Cs"}, "9": {"label": "*0", "atom_type": "N3d"}, "14": {"label": "*2", "atom_type": "H0"}}

>  <type>  (4) 
ts

$$$$

     RDKit          3D

 16 14  0  0  0  0  0  0  0  0999 V2000
    2.0131   -1.5058   -0.0338 C   0  0  0  0  0  0  0  0  0  0  0  0
    1.5890   -0.0812   -0.0574 C   0  0  0  0  0  0  0  0  0  0  0  0
    2.2072    0.9722    0.1885 N   0  0  0  0  0  0  0  0  0  0  0  0
    1.8737   -1.9437   -1.0212 H   0  0  0  0  0  0  0  0  0  0  0  0
    3.0569   -1.6105    0.2639 H   0  0  0  0  0  0  0  0  0  0  0  0
    1.3810   -2.0558    0.6619 H   0  0  0  0  0  0  0  0  0  0  0  0
    3.1890    0.8886    0.4548 H   0  0  0  0  0  0  0  0  0  0  0  0
   -0.9325    1.7258    0.2809 C   0  0  0  0  0  0  0  0  0  0  0  0
   -0.9229    0.5171   -0.6390 C   0  0  0  0  0  0  0  0  0  0  0  0
   -1.7176   -0.4769   -0.4361 N   0  0  0  0  0  0  0  0  0  0  0  0
   -2.1388   -1.0624    0.5657 O   0  0  0  0  0  1  0  0  0  0  0  0
   -1.1650    1.4103    1.2953 H   0  0  0  0  0  0  0  0  0  0  0  0
    0.0459    2.2015    0.2632 H   0  0  0  0  0  0  0  0  0  0  0  0
   -1.6859    2.4376   -0.0512 H   0  0  0  0  0  0  0  0  0  0  0  0
    0.4059    0.1028   -0.3600 H   0  0  0  0  0  0  0  0  0  0  0  0
   -0.7716    0.7345   -1.6939 H   0  0  0  0  0  0  0  0  0  0  0  0
  1  2  1  0
  1  4  1  0
  1  5  1  0
  1  6  1  0
  2  3  2  3
  2 15  1  0
  3  7  1  0
  8  9  1  0
  8 12  1  0
  8 13  1  0
  8 14  1  0
  9 10  2  3
  9 16  1  0
 10 11  1  0
M  RAD  1  11   2
M  END
>  <reaction>  (5) 
rmg_rxn_16555

>  <mol_properties>  (5) 
{"1": {"label": "*3", "atom_type": "Cd"}, "2": {"label": "*4", "atom_type": "N3d"}, "8": {"label": "*1", "atom_type": "Cs"}, "9": {"label": "*0", "atom_type": "N3d"}, "14": {"label": "*2", "atom_type": "H0"}}

>  <type>  (5) 
unop_1

>  <geom_source>  (5) 
crest_best.xyz

$$$$

     RDKit          3D

 16 14  0  0  0  0  0  0  0  0999 V2000
    2.0079   -0.3520    1.4453 C   0  0  0  0  0  0  0  0  0  0  0  0
    1.1348   -1.1920    0.5740 C   0  0  0  0  0  3  0  0  0  0  0  0
    0.8381   -2.3825    0.8756 N   0  0  0  0  0  0  0  0  0  0  0  0
    1.4742    0.5493    1.7575 H   0  0  0  0  0  0  0  0  0  0  0  0
    2.3187   -0.9140    2.3242 H   0  0  0  0  0  0  0  0  0  0  0  0
    2.8904   -0.0233    0.8904 H   0  0  0  0  0  0  0  0  0  0  0  0
    0.2364   -2.7996    0.1684 H   0  0  0  0  0  0  0  0  0  0  0  0
   -0.9587    0.0270   -1.9629 C   0  0  0  0  0  0  0  0  0  0  0  0
   -0.9587    0.0270   -0.4524 C   0  0  0  0  0  0  0  0  0  0  0  0
   -0.9587    1.3530    0.2111 N   0  0  0  0  0  0  0  0  0  0  0  0
   -0.9587    2.2826   -0.5366 O   0  0  0  0  0  0  0  0  0  0  0  0
   -0.0785    0.5344   -2.3574 H   0  0  0  0  0  0  0  0  0  0  0  0
   -0.9587   -1.0001   -2.3282 H   0  0  0  0  0  0  0  0  0  0  0  0
   -1.8388    0.5344   -2.3574 H   0  0  0  0  0  0  0  0  0  0  0  0
    0.0868   -0.5817    0.0601 H   0  0  0  0  0  0  0  0  0  0  0  0
   -1.8299   -0.4803   -0.0253 H   0  0  0  0  0  0  0  0  0  0  0  0
  1  2  1  0
  1  4  1  0
  1  5  1  0
  1  6  1  0
  2  3  2  3
  3  7  1  0
  8  9  1  0
  8 12  1  0
  8 13  1  0
  8 14  1  0
  9 10  1  0
  9 15  1  0
  9 16  1  0
 10 11  2  0
M  RAD  1   2   2
M  END
>  <reaction>  (6) 
rmg_rxn_16555

>  <mol_properties>  (6) 
{"1": {"label": "*3", "atom_type": "Cd"}, "2": {"label": "*4", "atom_type": "N3d"}, "8": {"label": "*1", "atom_type": "Cs"}, "9": {"label": "*0", "atom_type": "N3d"}, "14": {"label": "*2", "atom_type": "H0"}}

>  <type>  (6) 
unop_2

>  <geom_source>  (6) 
Heuristics

$$$$

     RDKit          3D

 16 14  0  0  0  0  0  0  0  0999 V2000
    2.2776   -1.1534   -0.1316 C   0  0  0  0  0  0  0  0  0  0  0  0
    1.0327   -1.2070    0.6896 C   0  0  0  0  0  3  0  0  0  0  0  0
    1.0559   -1.4968    1.9192 N   0  0  0  0  0  0  0  0  0  0  0  0
    2.4002   -0.1583   -0.5667 H   0  0  0  0  0  0  0  0  0  0  0  0
    3.1455   -1.3927    0.4804 H   0  0  0  0  0  0  0  0  0  0  0  0
    2.2114   -1.8588   -0.9638 H   0  0  0  0  0  0  0  0  0  0  0  0
    0.1182   -1.4852    2.3151 H   0  0  0  0  0  0  0  0  0  0  0  0
   -1.0607    0.0121   -1.8473 C   0  0  0  0  0  0  0  0  0  0  0  0
   -1.0607    0.0121   -0.3368 C   0  0  0  0  0  0  0  0  0  0  0  0
   -1.0607    1.3380    0.3268 N   0  0  0  0  0  0  0  0  0  0  0  0
   -1.0607    2.2676   -0.4209 O   0  0  0  0  0  0  0  0  0  0  0  0
   -0.1806    0.5194   -2.2418 H   0  0  0  0  0  0  0  0  0  0  0  0
   -1.0607   -1.0151   -2.2126 H   0  0  0  0  0  0  0  0  0  0  0  0
   -1.9409    0.5194   -2.2418 H   0  0  0  0  0  0  0  0  0  0  0  0
   -0.0153   -0.5967    0.1758 H   0  0  0  0  0  0  0  0  0  0  0  0
   -1.9319   -0.4953    0.0903 H   0  0  0  0  0  0  0  0  0  0  0  0
  1  2  1  0
  1  4  1  0
  1  5  1  0
  1  6  1  0
  2  3  2  3
  3  7  1  0
  8  9  1  0
  8 12  1  0
  8 13  1  0
  8 14  1  0
  9 10  1  0
  9 15  1  0
  9 16  1  0
 10 11  2  0
M  RAD  1   2   2
M  END
>  <reaction>  (7) 
rmg_rxn_16555

>  <mol_properties>  (7) 
{"1": {"label": "*3", "atom_type": "Cd"}, "2": {"label": "*4", "atom_type": "N3d"}, "8": {"label": "*1", "atom_type": "Cs"}, "9": {"label": "*0", "atom_type": "N3d"}, "14": {"label": "*2", "atom_type": "H0"}}

>  <type>  (7) 
unop_3

>  <geom_source>  (7) 
Heuristics

$$$$

     RDKit          3D

 16 14  0  0  0  0  0  0  0  0999 V2000
    1.5935   -0.6286    1.9235 C   0  0  0  0  0  0  0  0  0  0  0  0
    1.1344   -1.1398    0.5987 C   0  0  0  0  0  3  0  0  0  0  0  0
    1.2608   -2.3534    0.2710 N   0  0  0  0  0  0  0  0  0  0  0  0
    0.7554   -0.1872    2.4688 H   0  0  0  0  0  0  0  0  0  0  0  0
    2.0258   -1.4361    2.5117 H   0  0  0  0  0  0  0  0  0  0  0  0
    2.3359    0.1618    1.7863 H   0  0  0  0  0  0  0  0  0  0  0  0
    0.8939   -2.5197   -0.6637 H   0  0  0  0  0  0  0  0  0  0  0  0
   -0.9591    0.0793   -1.9382 C   0  0  0  0  0  0  0  0  0  0  0  0
   -0.9591    0.0793   -0.4277 C   0  0  0  0  0  0  0  0  0  0  0  0
   -0.9591    1.4053    0.2359 N   0  0  0  0  0  0  0  0  0  0  0  0
   -0.9591    2.3348   -0.5118 O   0  0  0  0  0  0  0  0  0  0  0  0
   -0.0790    0.5867   -2.3327 H   0  0  0  0  0  0  0  0  0  0  0  0
   -0.9591   -0.9478   -2.3035 H   0  0  0  0  0  0  0  0  0  0  0  0
   -1.8393    0.5867   -2.3327 H   0  0  0  0  0  0  0  0  0  0  0  0
    0.0863   -0.5295    0.0849 H   0  0  0  0  0  0  0  0  0  0  0  0
   -1.8303   -0.4280   -0.0006 H   0  0  0  0  0  0  0  0  0  0  0  0
  1  2  1  0
  1  4  1  0
  1  5  1  0
  1  6  1  0
  2  3  2  3
  3  7  1  0
  8  9  1  0
  8 12  1  0
  8 13  1  0
  8 14  1  0
  9 10  1  0
  9 15  1  0
  9 16  1  0
 10 11  2  0
M  RAD  1   2   2
M  END
>  <reaction>  (8) 
rmg_rxn_16555

>  <mol_properties>  (8) 
{"1": {"label": "*3", "atom_type": "Cd"}, "2": {"label": "*4", "atom_type": "N3d"}, "8": {"label": "*1", "atom_type": "Cs"}, "9": {"label": "*0", "atom_type": "N3d"}, "14": {"label": "*2", "atom_type": "H0"}}

>  <type>  (8) 
unop_4

>  <geom_source>  (8) 
Heuristics

$$$$

     RDKit          3D

 16 14  0  0  0  0  0  0  0  0999 V2000
    1.2957   -2.5316    0.2711 C   0  0  0  0  0  0  0  0  0  0  0  0
    1.1418   -1.0935    0.6388 C   0  0  0  0  0  3  0  0  0  0  0  0
    1.5273   -0.6448    1.7553 N   0  0  0  0  0  0  0  0  0  0  0  0
    1.9005   -2.6270   -0.6343 H   0  0  0  0  0  0  0  0  0  0  0  0
    1.7670   -3.0818    1.0836 H   0  0  0  0  0  0  0  0  0  0  0  0
    0.3197   -2.9711    0.0498 H   0  0  0  0  0  0  0  0  0  0  0  0
    1.3429    0.3533    1.8314 H   0  0  0  0  0  0  0  0  0  0  0  0
   -0.9517    0.1256   -1.8981 C   0  0  0  0  0  0  0  0  0  0  0  0
   -0.9517    0.1256   -0.3876 C   0  0  0  0  0  0  0  0  0  0  0  0
   -0.9517    1.4516    0.2760 N   0  0  0  0  0  0  0  0  0  0  0  0
   -0.9517    2.3811   -0.4717 O   0  0  0  0  0  0  0  0  0  0  0  0
   -0.0715    0.6330   -2.2926 H   0  0  0  0  0  0  0  0  0  0  0  0
   -0.9517   -0.9015   -2.2634 H   0  0  0  0  0  0  0  0  0  0  0  0
   -1.8318    0.6330   -2.2926 H   0  0  0  0  0  0  0  0  0  0  0  0
    0.0938   -0.4832    0.1250 H   0  0  0  0  0  0  0  0  0  0  0  0
   -1.8229   -0.3817    0.0395 H   0  0  0  0  0  0  0  0  0  0  0  0
  1  2  1  0
  1  4  1  0
  1  5  1  0
  1  6  1  0
  2  3  2  3
  3  7  1  0
  8  9  1  0
  8 12  1  0
  8 13  1  0
  8 14  1  0
  9 10  1  0
  9 15  1  0
  9 16  1  0
 10 11  2  0
M  RAD  1   2   2
M  END
>  <reaction>  (9) 
rmg_rxn_16555

>  <mol_properties>  (9) 
{"1": {"label": "*3", "atom_type": "Cd"}, "2": {"label": "*4", "atom_type": "N3d"}, "8": {"label": "*1", "atom_type": "Cs"}, "9": {"label": "*0", "atom_type": "N3d"}, "14": {"label": "*2", "atom_type": "H0"}}

>  <type>  (9) 
unop_5

>  <geom_source>  (9) 
Heuristics

$$$$

     RDKit          3D

 16 14  0  0  0  0  0  0  0  0999 V2000
    1.1404   -1.1945    2.1217 C   0  0  0  0  0  0  0  0  0  0  0  0
    1.0806   -1.1597    0.6310 C   0  0  0  0  0  3  0  0  0  0  0  0
    1.9797   -1.6833   -0.0857 N   0  0  0  0  0  0  0  0  0  0  0  0
    0.2561   -1.6959    2.5233 H   0  0  0  0  0  0  0  0  0  0  0  0
    2.0366   -1.7164    2.4526 H   0  0  0  0  0  0  0  0  0  0  0  0
    1.1400   -0.1779    2.5233 H   0  0  0  0  0  0  0  0  0  0  0  0
    1.7741   -1.5635   -1.0754 H   0  0  0  0  0  0  0  0  0  0  0  0
   -1.0129    0.0594   -1.9059 C   0  0  0  0  0  0  0  0  0  0  0  0
   -1.0129    0.0594   -0.3954 C   0  0  0  0  0  0  0  0  0  0  0  0
   -1.0129    1.3854    0.2682 N   0  0  0  0  0  0  0  0  0  0  0  0
   -1.0129    2.3149   -0.4795 O   0  0  0  0  0  0  0  0  0  0  0  0
   -0.1328    0.5668   -2.3004 H   0  0  0  0  0  0  0  0  0  0  0  0
   -1.0129   -0.9677   -2.2712 H   0  0  0  0  0  0  0  0  0  0  0  0
   -1.8930    0.5668   -2.3004 H   0  0  0  0  0  0  0  0  0  0  0  0
    0.0326   -0.5494    0.1172 H   0  0  0  0  0  0  0  0  0  0  0  0
   -1.8841   -0.4479    0.0317 H   0  0  0  0  0  0  0  0  0  0  0  0
  1  2  1  0
  1  4  1  0
  1  5  1  0
  1  6  1  0
  2  3  2  3
  3  7  1  0
  8  9  1  0
  8 12  1  0
  8 13  1  0
  8 14  1  0
  9 10  1  0
  9 15  1  0
  9 16  1  0
 10 11  2  0
M  RAD  1   2   2
M  END
>  <reaction>  (10) 
rmg_rxn_16555

>  <mol_properties>  (10) 
{"1": {"label": "*3", "atom_type": "Cd"}, "2": {"label": "*4", "atom_type": "N3d"}, "8": {"label": "*1", "atom_type": "Cs"}, "9": {"label": "*0", "atom_type": "N3d"}, "14": {"label": "*2", "atom_type": "H0"}}

>  <type>  (10) 
unop_6

>  <geom_source>  (10) 
Heuristics

$$$$

     RDKit          3D

 16 14  0  0  0  0  0  0  0  0999 V2000
    0.9928   -2.5964    0.8431 C   0  0  0  0  0  0  0  0  0  0  0  0
    1.1565   -1.1346    0.5913 C   0  0  0  0  0  3  0  0  0  0  0  0
    1.7640   -0.3811    1.4034 N   0  0  0  0  0  0  0  0  0  0  0  0
    1.4429   -3.1721    0.0302 H   0  0  0  0  0  0  0  0  0  0  0  0
    1.4597   -2.8726    1.7869 H   0  0  0  0  0  0  0  0  0  0  0  0
   -0.0680   -2.8584    0.8694 H   0  0  0  0  0  0  0  0  0  0  0  0
    1.7781    0.5803    1.0694 H   0  0  0  0  0  0  0  0  0  0  0  0
   -0.9370    0.0845   -1.9456 C   0  0  0  0  0  0  0  0  0  0  0  0
   -0.9370    0.0845   -0.4351 C   0  0  0  0  0  0  0  0  0  0  0  0
   -0.9370    1.4105    0.2285 N   0  0  0  0  0  0  0  0  0  0  0  0
   -0.9370    2.3400   -0.5192 O   0  0  0  0  0  0  0  0  0  0  0  0
   -0.0569    0.5919   -2.3401 H   0  0  0  0  0  0  0  0  0  0  0  0
   -0.9370   -0.9426   -2.3109 H   0  0  0  0  0  0  0  0  0  0  0  0
   -1.8171    0.5919   -2.3401 H   0  0  0  0  0  0  0  0  0  0  0  0
    0.1084   -0.5243    0.0775 H   0  0  0  0  0  0  0  0  0  0  0  0
   -1.8082   -0.4228   -0.0080 H   0  0  0  0  0  0  0  0  0  0  0  0
  1  2  1  0
  1  4  1  0
  1  5  1  0
  1  6  1  0
  2  3  2  3
  3  7  1  0
  8  9  1  0
  8 12  1  0
  8 13  1  0
  8 14  1  0
  9 10  1  0
  9 15  1  0
  9 16  1  0
 10 11  2  0
M  RAD  1   2   2
M  END
>  <reaction>  (11) 
rmg_rxn_16555

>  <mol_properties>  (11) 
{"1": {"label": "*3", "atom_type": "Cd"}, "2": {"label": "*4", "atom_type": "N3d"}, "8": {"label": "*1", "atom_type": "Cs"}, "9": {"label": "*0", "atom_type": "N3d"}, "14": {"label": "*2", "atom_type": "H0"}}

>  <type>  (11) 
unop_7

>  <geom_source>  (11) 
Heuristics

$$$$

     RDKit          3D

 16 14  0  0  0  0  0  0  0  0999 V2000
    0.8358   -2.3648    1.4453 C   0  0  0  0  0  0  0  0  0  0  0  0
    1.1355   -1.1908    0.5740 C   0  0  0  0  0  3  0  0  0  0  0  0
    2.0245   -0.3452    0.8756 N   0  0  0  0  0  0  0  0  0  0  0  0
    0.9855   -3.2945    0.8904 H   0  0  0  0  0  0  0  0  0  0  0  0
    1.4780   -2.3577    2.3242 H   0  0  0  0  0  0  0  0  0  0  0  0
   -0.2115   -2.3454    1.7575 H   0  0  0  0  0  0  0  0  0  0  0  0
    2.0903    0.3839    0.1684 H   0  0  0  0  0  0  0  0  0  0  0  0
   -0.9580    0.0283   -1.9629 C   0  0  0  0  0  0  0  0  0  0  0  0
   -0.9580    0.0283   -0.4524 C   0  0  0  0  0  0  0  0  0  0  0  0
   -0.9580    1.3542    0.2111 N   0  0  0  0  0  0  0  0  0  0  0  0
   -0.9580    2.2838   -0.5366 O   0  0  0  0  0  0  0  0  0  0  0  0
   -0.0778    0.5356   -2.3574 H   0  0  0  0  0  0  0  0  0  0  0  0
   -0.9580   -0.9989   -2.3282 H   0  0  0  0  0  0  0  0  0  0  0  0
   -1.8381    0.5356   -2.3574 H   0  0  0  0  0  0  0  0  0  0  0  0
    0.0875   -0.5805    0.0601 H   0  0  0  0  0  0  0  0  0  0  0  0
   -1.8292   -0.4791   -0.0253 H   0  0  0  0  0  0  0  0  0  0  0  0
  1  2  1  0
  1  4  1  0
  1  5  1  0
  1  6  1  0
  2  3  2  3
  3  7  1  0
  8  9  1  0
  8 12  1  0
  8 13  1  0
  8 14  1  0
  9 10  1  0
  9 15  1  0
  9 16  1  0
 10 11  2  0
M  RAD  1   2   2
M  END
>  <reaction>  (12) 
rmg_rxn_16555

>  <mol_properties>  (12) 
{"1": {"label": "*3", "atom_type": "Cd"}, "2": {"label": "*4", "atom_type": "N3d"}, "8": {"label": "*1", "atom_type": "Cs"}, "9": {"label": "*0", "atom_type": "N3d"}, "14": {"label": "*2", "atom_type": "H0"}}

>  <type>  (12) 
unop_8

>  <geom_source>  (12) 
Heuristics

$$$$

     RDKit          3D

 16 14  0  0  0  0  0  0  0  0999 V2000
    2.2868   -0.3743    0.8431 C   0  0  0  0  0  0  0  0  0  0  0  0
    1.0962   -1.2380    0.5913 C   0  0  0  0  0  3  0  0  0  0  0  0
    0.7407   -2.1383    1.4034 N   0  0  0  0  0  0  0  0  0  0  0  0
    1.9911    0.6777    0.8694 H   0  0  0  0  0  0  0  0  0  0  0  0
    2.7575   -0.6440    1.7869 H   0  0  0  0  0  0  0  0  0  0  0  0
    3.0096   -0.4816    0.0302 H   0  0  0  0  0  0  0  0  0  0  0  0
   -0.0885   -2.6250    1.0694 H   0  0  0  0  0  0  0  0  0  0  0  0
   -0.9972   -0.0190   -1.9456 C   0  0  0  0  0  0  0  0  0  0  0  0
   -0.9972   -0.0190   -0.4351 C   0  0  0  0  0  0  0  0  0  0  0  0
   -0.9972    1.3070    0.2285 N   0  0  0  0  0  0  0  0  0  0  0  0
   -0.9972    2.2365   -0.5192 O   0  0  0  0  0  0  0  0  0  0  0  0
   -0.1171    0.4884   -2.3401 H   0  0  0  0  0  0  0  0  0  0  0  0
   -0.9972   -1.0461   -2.3109 H   0  0  0  0  0  0  0  0  0  0  0  0
   -1.8774    0.4884   -2.3401 H   0  0  0  0  0  0  0  0  0  0  0  0
    0.0482   -0.6277    0.0775 H   0  0  0  0  0  0  0  0  0  0  0  0
   -1.8684   -0.5263   -0.0080 H   0  0  0  0  0  0  0  0  0  0  0  0
  1  2  1  0
  1  4  1  0
  1  5  1  0
  1  6  1  0
  2  3  2  3
  3  7  1  0
  8  9  1  0
  8 12  1  0
  8 13  1  0
  8 14  1  0
  9 10  1  0
  9 15  1  0
  9 16  1  0
 10 11  2  0
M  RAD  1   2   2
M  END
>  <reaction>  (13) 
rmg_rxn_16555

>  <mol_properties>  (13) 
{"1": {"label": "*3", "atom_type": "Cd"}, "2": {"label": "*4", "atom_type": "N3d"}, "8": {"label": "*1", "atom_type": "Cs"}, "9": {"label": "*0", "atom_type": "N3d"}, "14": {"label": "*2", "atom_type": "H0"}}

>  <type>  (13) 
unop_9

>  <geom_source>  (13) 
Heuristics

$$$$

     RDKit          3D

 16 14  0  0  0  0  0  0  0  0999 V2000
    2.0131   -1.5058   -0.0338 C   0  0  0  0  0  0  0  0  0  0  0  0
    1.5890   -0.0812   -0.0574 C   0  0  0  0  0  0  0  0  0  0  0  0
    2.2072    0.9722    0.1885 N   0  0  0  0  0  0  0  0  0  0  0  0
    1.8737   -1.9437   -1.0212 H   0  0  0  0  0  0  0  0  0  0  0  0
    3.0569   -1.6105    0.2639 H   0  0  0  0  0  0  0  0  0  0  0  0
    1.3810   -2.0558    0.6619 H   0  0  0  0  0  0  0  0  0  0  0  0
    3.1890    0.8886    0.4548 H   0  0  0  0  0  0  0  0  0  0  0  0
   -0.9325    1.7258    0.2809 C   0  0  0  0  0  0  0  0  0  0  0  0
   -0.9229    0.5171   -0.6390 C   0  0  0  0  0  0  0  0  0  0  0  0
   -1.7176   -0.4769   -0.4361 N   0  0  0  0  0  0  0  0  0  0  0  0
   -2.1388   -1.0624    0.5657 O   0  0  0  0  0  1  0  0  0  0  0  0
   -1.1650    1.4103    1.2953 H   0  0  0  0  0  0  0  0  0  0  0  0
    0.0459    2.2015    0.2632 H   0  0  0  0  0  0  0  0  0  0  0  0
   -1.6859    2.4376   -0.0512 H   0  0  0  0  0  0  0  0  0  0  0  0
    0.4059    0.1028   -0.3600 H   0  0  0  0  0  0  0  0  0  0  0  0
   -0.7716    0.7345   -1.6939 H   0  0  0  0  0  0  0  0  0  0  0  0
  1  2  1  0
  1  4  1  0
  1  5  1  0
  1  6  1  0
  2  3  2  3
  2 15  1  0
  3  7  1  0
  8  9  1  0
  8 12  1  0
  8 13  1  0
  8 14  1  0
  9 10  2  3
  9 16  1  0
 10 11  1  0
M  RAD  1  11   2
M  END
>  <reaction>  (14) 
rmg_rxn_16555

>  <mol_properties>  (14) 
{"1": {"label": "*3", "atom_type": "Cd"}, "2": {"label": "*4", "atom_type": "N3d"}, "8": {"label": "*1", "atom_type": "Cs"}, "9": {"label": "*0", "atom_type": "N3d"}, "14": {"label": "*2", "atom_type": "H0"}}

>  <type>  (14) 
unop_10

>  <geom_source>  (14) 
Heuristics

$$$$

     RDKit          3D

 16 14  0  0  0  0  0  0  0  0999 V2000
    1.6660   -2.2039   -0.1316 C   0  0  0  0  0  0  0  0  0  0  0  0
    1.0982   -1.0947    0.6896 C   0  0  0  0  0  3  0  0  0  0  0  0
    1.3616   -0.9718    1.9192 N   0  0  0  0  0  0  0  0  0  0  0  0
    2.2468   -1.7981   -0.9638 H   0  0  0  0  0  0  0  0  0  0  0  0
    2.3024   -2.8406    0.4804 H   0  0  0  0  0  0  0  0  0  0  0  0
    0.8609   -2.8016   -0.5667 H   0  0  0  0  0  0  0  0  0  0  0  0
    0.8887   -0.1620    2.3151 H   0  0  0  0  0  0  0  0  0  0  0  0
   -0.9953    0.1244   -1.8473 C   0  0  0  0  0  0  0  0  0  0  0  0
   -0.9953    0.1244   -0.3368 C   0  0  0  0  0  0  0  0  0  0  0  0
   -0.9953    1.4504    0.3268 N   0  0  0  0  0  0  0  0  0  0  0  0
   -0.9953    2.3799   -0.4209 O   0  0  0  0  0  0  0  0  0  0  0  0
   -0.1152    0.6318   -2.2418 H   0  0  0  0  0  0  0  0  0  0  0  0
   -0.9953   -0.9027   -2.2126 H   0  0  0  0  0  0  0  0  0  0  0  0
   -1.8754    0.6318   -2.2418 H   0  0  0  0  0  0  0  0  0  0  0  0
    0.0501   -0.4844    0.1758 H   0  0  0  0  0  0  0  0  0  0  0  0
   -1.8665   -0.3829    0.0903 H   0  0  0  0  0  0  0  0  0  0  0  0
  1  2  1  0
  1  4  1  0
  1  5  1  0
  1  6  1  0
  2  3  2  3
  3  7  1  0
  8  9  1  0
  8 12  1  0
  8 13  1  0
  8 14  1  0
  9 10  1  0
  9 15  1  0
  9 16  1  0
 10 11  2  0
M  RAD  1   2   2
M  END
>  <reaction>  (15) 
rmg_rxn_16555

>  <mol_properties>  (15) 
{"1": {"label": "*3", "atom_type": "Cd"}, "2": {"label": "*4", "atom_type": "N3d"}, "8": {"label": "*1", "atom_type": "Cs"}, "9": {"label": "*0", "atom_type": "N3d"}, "14": {"label": "*2", "atom_type": "H0"}}

>  <type>  (15) 
unop_11

>  <geom_source>  (15) 
Heuristics

$$$$

     RDKit          3D

 16 14  0  0  0  0  0  0  0  0999 V2000
    2.3800   -0.6697    0.2711 C   0  0  0  0  0  0  0  0  0  0  0  0
    1.0532   -1.2456    0.6388 C   0  0  0  0  0  3  0  0  0  0  0  0
    0.8533   -1.8022    1.7553 N   0  0  0  0  0  0  0  0  0  0  0  0
    2.2805    0.3961    0.0498 H   0  0  0  0  0  0  0  0  0  0  0  0
    3.0911   -0.8081    1.0836 H   0  0  0  0  0  0  0  0  0  0  0  0
    2.7614   -1.1486   -0.6343 H   0  0  0  0  0  0  0  0  0  0  0  0
   -0.1058   -2.1346    1.8314 H   0  0  0  0  0  0  0  0  0  0  0  0
   -1.0402   -0.0265   -1.8981 C   0  0  0  0  0  0  0  0  0  0  0  0
   -1.0402   -0.0265   -0.3876 C   0  0  0  0  0  0  0  0  0  0  0  0
   -1.0402    1.2995    0.2760 N   0  0  0  0  0  0  0  0  0  0  0  0
   -1.0402    2.2290   -0.4717 O   0  0  0  0  0  0  0  0  0  0  0  0
   -0.1601    0.4809   -2.2926 H   0  0  0  0  0  0  0  0  0  0  0  0
   -1.0402   -1.0536   -2.2634 H   0  0  0  0  0  0  0  0  0  0  0  0
   -1.9204    0.4809   -2.2926 H   0  0  0  0  0  0  0  0  0  0  0  0
    0.0052   -0.6353    0.1250 H   0  0  0  0  0  0  0  0  0  0  0  0
   -1.9114   -0.5338    0.0395 H   0  0  0  0  0  0  0  0  0  0  0  0
  1  2  1  0
  1  4  1  0
  1  5  1  0
  1  6  1  0
  2  3  2  3
  3  7  1  0
  8  9  1  0
  8 12  1  0
  8 13  1  0
  8 14  1  0
  9 10  1  0
  9 15  1  0
  9 16  1  0
 10 11  2  0
M  RAD  1   2   2
M  END
>  <reaction>  (16) 
rmg_rxn_16555

>  <mol_properties>  (16) 
{"1": {"label": "*3", "atom_type": "Cd"}, "2": {"label": "*4", "atom_type": "N3d"}, "8": {"label": "*1", "atom_type": "Cs"}, "9": {"label": "*0", "atom_type": "N3d"}, "14": {"label": "*2", "atom_type": "H0"}}

>  <type>  (16) 
unop_12

>  <geom_source>  (16) 
Heuristics

$$$$

     RDKit          3D

 16 14  0  0  0  0  0  0  0  0999 V2000
    0.8719   -1.8679    1.9235 C   0  0  0  0  0  0  0  0  0  0  0  0
    1.0898   -1.2162    0.5987 C   0  0  0  0  0  3  0  0  0  0  0  0
    2.2078   -0.7272    0.2710 N   0  0  0  0  0  0  0  0  0  0  0  0
    0.5508   -2.9036    1.7863 H   0  0  0  0  0  0  0  0  0  0  0  0
    1.7876   -1.8453    2.5117 H   0  0  0  0  0  0  0  0  0  0  0  0
    0.0743   -1.3568    2.4688 H   0  0  0  0  0  0  0  0  0  0  0  0
    2.1713   -0.3260   -0.6637 H   0  0  0  0  0  0  0  0  0  0  0  0
   -1.0036    0.0029   -1.9382 C   0  0  0  0  0  0  0  0  0  0  0  0
   -1.0036    0.0029   -0.4277 C   0  0  0  0  0  0  0  0  0  0  0  0
   -1.0036    1.3288    0.2359 N   0  0  0  0  0  0  0  0  0  0  0  0
   -1.0036    2.2584   -0.5118 O   0  0  0  0  0  0  0  0  0  0  0  0
   -0.1235    0.5102   -2.3327 H   0  0  0  0  0  0  0  0  0  0  0  0
   -1.0036   -1.0243   -2.3035 H   0  0  0  0  0  0  0  0  0  0  0  0
   -1.8838    0.5102   -2.3327 H   0  0  0  0  0  0  0  0  0  0  0  0
    0.0418   -0.6059    0.0849 H   0  0  0  0  0  0  0  0  0  0  0  0
   -1.8748   -0.5045   -0.0006 H   0  0  0  0  0  0  0  0  0  0  0  0
  1  2  1  0
  1  4  1  0
  1  5  1  0
  1  6  1  0
  2  3  2  3
  3  7  1  0
  8  9  1  0
  8 12  1  0
  8 13  1  0
  8 14  1  0
  9 10  1  0
  9 15  1  0
  9 16  1  0
 10 11  2  0
M  RAD  1   2   2
M  END
>  <reaction>  (17) 
rmg_rxn_16555

>  <mol_properties>  (17) 
{"1": {"label": "*3", "atom_type": "Cd"}, "2": {"label": "*4", "atom_type": "N3d"}, "8": {"label": "*1", "atom_type": "Cs"}, "9": {"label": "*0", "atom_type": "N3d"}, "14": {"label": "*2", "atom_type": "H0"}}

>  <type>  (17) 
unop_13

>  <geom_source>  (17) 
Heuristics

$$$$

     RDKit          3D

 16 14  0  0  0  0  0  0  0  0999 V2000
    2.0181   -1.7056   -0.2753 C   0  0  0  0  0  0  0  0  0  0  0  0
    1.0510   -1.1424    0.7119 C   0  0  0  0  0  3  0  0  0  0  0  0
    1.2314   -1.2475    1.9580 N   0  0  0  0  0  0  0  0  0  0  0  0
    2.4017   -0.9126   -0.9224 H   0  0  0  0  0  0  0  0  0  0  0  0
    2.8469   -2.1882    0.2396 H   0  0  0  0  0  0  0  0  0  0  0  0
    1.5178   -2.4306   -0.9224 H   0  0  0  0  0  0  0  0  0  0  0  0
    0.4740   -0.8064    2.4754 H   0  0  0  0  0  0  0  0  0  0  0  0
   -1.0425    0.0767   -1.8251 C   0  0  0  0  0  0  0  0  0  0  0  0
   -1.0425    0.0767   -0.3146 C   0  0  0  0  0  0  0  0  0  0  0  0
   -1.0425    1.4026    0.3490 N   0  0  0  0  0  0  0  0  0  0  0  0
   -1.0425    2.3322   -0.3987 O   0  0  0  0  0  0  0  0  0  0  0  0
   -0.1624    0.5840   -2.2195 H   0  0  0  0  0  0  0  0  0  0  0  0
   -1.0425   -0.9505   -2.1903 H   0  0  0  0  0  0  0  0  0  0  0  0
   -1.9226    0.5840   -2.2195 H   0  0  0  0  0  0  0  0  0  0  0  0
    0.0029   -0.5321    0.1980 H   0  0  0  0  0  0  0  0  0  0  0  0
   -1.9137   -0.4307    0.1126 H   0  0  0  0  0  0  0  0  0  0  0  0
  1  2  1  0
  1  4  1  0
  1  5  1  0
  1  6  1  0
  2  3  2  3
  3  7  1  0
  8  9  1  0
  8 12  1  0
  8 13  1  0
  8 14  1  0
  9 10  1  0
  9 15  1  0
  9 16  1  0
 10 11  2  0
M  RAD  1   2   2
M  END
>  <reaction>  (18) 
rmg_rxn_16555

>  <mol_properties>  (18) 
{"1": {"label": "*3", "atom_type": "Cd"}, "2": {"label": "*4", "atom_type": "N3d"}, "8": {"label": "*1", "atom_type": "Cs"}, "9": {"label": "*0", "atom_type": "N3d"}, "14": {"label": "*2", "atom_type": "H0"}}

>  <type>  (18) 
unop_14

>  <geom_source>  (18) 
Heuristics

$$$$

     RDKit          3D

 16 14  0  0  0  0  0  0  0  0999 V2000
   -2.2890    1.4938   -1.6410 O   0  0  0  0  0  1  0  0  0  0  0  0
    1.4458    0.6566    1.4035 N   0  0  0  0  0  0  0  0  0  0  0  0
   -1.9302    0.3560   -1.6097 N   0  0  0  0  0  0  0  0  0  0  0  0
    2.5014   -0.3656   -0.5040 C   0  0  0  0  0  0  0  0  0  0  0  0
   -1.9679   -0.2275    0.7565 C   0  0  0  0  0  0  0  0  0  0  0  0
   -1.1320   -0.1275   -0.5125 C   0  0  0  0  0  0  0  0  0  0  0  0
    1.3305    0.2409    0.1961 C   0  0  0  0  0  0  0  0  0  0  0  0
    2.2077   -0.6620   -1.5324 H   0  0  0  0  0  0  0  0  0  0  0  0
    3.3291    0.3721   -0.5619 H   0  0  0  0  0  0  0  0  0  0  0  0
    2.8457   -1.2652    0.0480 H   0  0  0  0  0  0  0  0  0  0  0  0
   -2.8248   -0.9165    0.5985 H   0  0  0  0  0  0  0  0  0  0  0  0
   -1.3379   -0.6177    1.5827 H   0  0  0  0  0  0  0  0  0  0  0  0
   -2.3481    0.7757    1.0425 H   0  0  0  0  0  0  0  0  0  0  0  0
    0.2573    0.3407   -0.3865 H   0  0  0  0  0  0  0  0  0  0  0  0
   -0.7271   -1.1292   -0.7688 H   0  0  0  0  0  0  0  0  0  0  0  0
    0.6398    1.0755    1.8890 H   0  0  0  0  0  0  0  0  0  0  0  0
  1  3  1  0
  2  7  2  3
  2 16  1  0
  3  6  2  3
  4  7  1  0
  4  8  1  0
  4  9  1  0
  4 10  1  0
  5  6  1  0
  5 11  1  0
  5 12  1  0
  5 13  1  0
  6 15  1  0
  7 14  1  0
M  RAD  1   1   2
M  END
>  <reaction>  (19) 
rmg_rxn_16555

>  <mol_properties>  (19) 
{"1": {"label": "*3", "atom_type": "Cd"}, "2": {"label": "*4", "atom_type": "N3d"}, "8": {"label": "*1", "atom_type": "Cs"}, "9": {"label": "*0", "atom_type": "N3d"}, "14": {"label": "*2", "atom_type": "H0"}}

>  <type>  (19) 
unop_15

>  <geom_source>  (19) 
AutoTST

$$$$

     RDKit          3D

 16 14  0  0  0  0  0  0  0  0999 V2000
    2.2776   -1.1534   -0.1316 C   0  0  0  0  0  0  0  0  0  0  0  0
    1.0327   -1.2070    0.6896 C   0  0  0  0  0  3  0  0  0  0  0  0
    1.0559   -1.4968    1.9192 N   0  0  0  0  0  0  0  0  0  0  0  0
    2.4002   -0.1583   -0.5667 H   0  0  0  0  0  0  0  0  0  0  0  0
    3.1455   -1.3927    0.4804 H   0  0  0  0  0  0  0  0  0  0  0  0
    2.2114   -1.8588   -0.9638 H   0  0  0  0  0  0  0  0  0  0  0  0
    0.1182   -1.4852    2.3151 H   0  0  0  0  0  0  0  0  0  0  0  0
   -1.0607    0.0120   -1.8473 C   0  0  0  0  0  0  0  0  0  0  0  0
   -1.0607    0.0120   -0.3368 C   0  0  0  0  0  0  0  0  0  0  0  0
   -1.0607    1.3380    0.3268 N   0  0  0  0  0  0  0  0  0  0  0  0
   -1.0607    2.2676   -0.4209 O   0  0  0  0  0  0  0  0  0  0  0  0
   -0.1806    0.5194   -2.2418 H   0  0  0  0  0  0  0  0  0  0  0  0
   -1.0607   -1.0151   -2.2126 H   0  0  0  0  0  0  0  0  0  0  0  0
   -1.9409    0.5194   -2.2418 H   0  0  0  0  0  0  0  0  0  0  0  0
   -0.0153   -0.5967    0.1758 H   0  0  0  0  0  0  0  0  0  0  0  0
   -1.9319   -0.4953    0.0903 H   0  0  0  0  0  0  0  0  0  0  0  0
  1  2  1  0
  1  4  1  0
  1  5  1  0
  1  6  1  0
  2  3  2  3
  3  7  1  0
  8  9  1  0
  8 12  1  0
  8 13  1  0
  8 14  1  0
  9 10  1  0
  9 15  1  0
  9 16  1  0
 10 11  2  0
M  RAD  1   2   2
M  END
>  <reaction>  (20) 
rmg_rxn_16555

>  <mol_properties>  (20) 
{"1": {"label": "*3", "atom_type": "Cd"}, "2": {"label": "*4", "atom_type": "N3d"}, "8": {"label": "*1", "atom_type": "Cs"}, "9": {"label": "*0", "atom_type": "N3d"}, "14": {"label": "*2", "atom_type": "H0"}}

>  <type>  (20) 
unop_16

>  <geom_source>  (20) 
gaussian_log

$$$$
