
     RDKit          3D

 10  9  0  0  0  0  0  0  0  0999 V2000
    1.9281   -0.2104    0.0000 C   0  0  0  0  0  0  0  0  0  0  0  0
    0.6881    0.1708    0.0000 C   0  0  0  0  0  0  0  0  0  0  0  0
   -0.5547    0.5538   -0.0000 C   0  0  0  0  0  0  0  0  0  0  0  0
   -1.7319   -0.3629    0.0000 C   0  0  0  0  0  0  0  0  0  0  0  0
    2.4558   -0.3741   -0.9324 H   0  0  0  0  0  0  0  0  0  0  0  0
    2.4558   -0.3741    0.9324 H   0  0  0  0  0  0  0  0  0  0  0  0
   -0.7657    1.6194   -0.0000 H   0  0  0  0  0  0  0  0  0  0  0  0
   -2.3467   -0.1819    0.8869 H   0  0  0  0  0  0  0  0  0  0  0  0
   -1.4304   -1.4153    0.0000 H   0  0  0  0  0  0  0  0  0  0  0  0
   -2.3467   -0.1819   -0.8869 H   0  0  0  0  0  0  0  0  0  0  0  0
  1  2  2  0
  1  5  1  0
  1  6  1  0
  2  3  2  0
  3  4  1  0
  3  7  1  0
  4  8  1  0
  4  9  1  0
  4 10  1  0
M  END
>  <reaction>  (1) 
rmg_rxn_16806

>  <mol_properties>  (1) 
{"3": {"label": "donator", "atom_type": "Cs"}, "7": {"label": "d_hydrogen", "atom_type": "H0"}}

>  <type>  (1) 
r1h

$$$$

     RDKit          3D

  7  6  0  0  0  0  0  0  0  0999 V2000
    1.1980    0.1044   -0.0001 C   0  0  0  0  0  0  0  0  0  0  0  0
   -0.1891   -0.4252    0.0002 C   0  0  0  0  0  3  0  0  0  0  0  0
   -1.3234    0.0281   -0.0002 N   0  0  0  0  0  0  0  0  0  0  0  0
    1.7318   -0.2602   -0.8784 H   0  0  0  0  0  0  0  0  0  0  0  0
    1.2067    1.2008   -0.0009 H   0  0  0  0  0  0  0  0  0  0  0  0
    1.7300   -0.2581    0.8800 H   0  0  0  0  0  0  0  0  0  0  0  0
   -1.4574    1.0456    0.0003 H   0  0  0  0  0  0  0  0  0  0  0  0
  1  2  1  0
  1  4  1  0
  1  5  1  0
  1  6  1  0
  2  3  2  3
  3  7  1  0
M  RAD  1   2   2
M  END
>  <reaction>  (2) 
rmg_rxn_16806

>  <mol_properties>  (2) 
{"1": {"label": "acceptor", "atom_type": "Cd"}}

>  <type>  (2) 
r2

$$$$

     RDKit          3D

  8  7  0  0  0  0  0  0  0  0999 V2000
    1.2099   -0.1388    0.0025 C   0  0  0  0  0  0  0  0  0  0  0  0
   -0.1788    0.4141    0.0007 C   0  0  0  0  0  0  0  0  0  0  0  0
   -1.2100   -0.3603    0.0013 N   0  0  0  0  0  0  0  0  0  0  0  0
    1.7355    0.2223   -0.8851 H   0  0  0  0  0  0  0  0  0  0  0  0
    1.7521    0.1663    0.9007 H   0  0  0  0  0  0  0  0  0  0  0  0
    1.1564   -1.2296   -0.0424 H   0  0  0  0  0  0  0  0  0  0  0  0
   -0.2911    1.5112   -0.0010 H   0  0  0  0  0  0  0  0  0  0  0  0
   -2.0699    0.2005   -0.0002 H   0  0  0  0  0  0  0  0  0  0  0  0
  1  2  1  0
  1  4  1  0
  1  5  1  0
  1  6  1  0
  2  3  2  3
  2  7  1  0
  3  8  1  0
M  END
>  <reaction>  (3) 
rmg_rxn_16806

>  <mol_properties>  (3) 
{"1": {"label": "acceptor", "atom_type": "Cd"}, "7": {"label": "a_hydrogen", "atom_type": "H0"}}

>  <type>  (3) 
r2h

$$$$

     RDKit          3D

 17 15  0  0  0  0  0  0  0  0999 V2000
    3.1438   -0.5878   -0.4512 C   0  0  0  0  0  0  0  0  0  0  0  0
    1.9501    0.2079   -0.0314 C   0  0  0  0  0  3  0  0  0  0  0  0
    2.0272    1.4795    0.1692 N   0  0  0  0  0  0  0  0  0  0  0  0
    2.9833   -1.0490   -1.4286 H   0  0  0  0  0  0  0  0  0  0  0  0
    4.0125    0.0740   -0.4947 H   0  0  0  0  0  0  0  0  0  0  0  0
    3.3321   -1.3635    0.2953 H   0  0  0  0  0  0  0  0  0  0  0  0
    1.1104    1.8467    0.4497 H   0  0  0  0  0  0  0  0  0  0  0  0
   -3.5934    0.3079   -0.6136 C   0  0  0  0  0  0  0  0  0  0  0  0
   -2.4970    0.0879    0.0441 C   0  0  0  0  0  0  0  0  0  0  0  0
   -1.3980   -0.1327    0.7035 C   0  0  0  0  0  0  0  0  0  0  0  0
   -0.3265   -1.0835    0.2859 C   0  0  0  0  0  0  0  0  0  0  0  0
   -4.4815   -0.2825   -0.4205 H   0  0  0  0  0  0  0  0  0  0  0  0
   -3.6384    1.0840   -1.3687 H   0  0  0  0  0  0  0  0  0  0  0  0
   -1.2357    0.4092    1.6308 H   0  0  0  0  0  0  0  0  0  0  0  0
    0.8073   -0.4403    0.1279 H   0  0  0  0  0  0  0  0  0  0  0  0
   -0.5704   -1.5863   -0.6555 H   0  0  0  0  0  0  0  0  0  0  0  0
   -0.1837   -1.8474    1.0562 H   0  0  0  0  0  0  0  0  0  0  0  0
  1  2  1  0
  1  4  1  0
  1  5  1  0
  1  6  1  0
  2  3  2  3
  3  7  1  0
  8  9  2  0
  8 12  1  0
  8 13  1  0
  9 10  2  0
 10 11  1  0
 10 14  1  0
 11 15  1  0
 11 16  1  0
 11 17  1  0
M  RAD  1   2   2
M  END
>  <reaction>  (4) 
rmg_rxn_16806

>  <mol_properties>  (4) 
{"1": {"label": "*3", "atom_type": "Cd"}, "2": {"label": "*4", "atom_type": "N3d"}, "9": {"label": "*0", "atom_type": "Cd"}, "10": {"label": "*1", "atom_type": "Cs"}, "14": {"label": "*2", "atom_type": "H0"}}

>  <type>  (4) 
ts

$$$$

     RDKit          3D

 17 15  0  0  0  0  0  0  0  0999 V2000
    3.0964   -0.2736   -0.3932 C   0  0  0  0  0  0  0  0  0  0  0  0
    1.7614    0.2249    0.0053 C   0  0  0  0  0  0  0  0  0  0  0  0
    1.5318    1.3831    0.3951 N   0  0  0  0  0  0  0  0  0  0  0  0
    3.0543   -0.6304   -1.4214 H   0  0  0  0  0  0  0  0  0  0  0  0
    3.8527    0.5059   -0.3081 H   0  0  0  0  0  0  0  0  0  0  0  0
    3.3696   -1.1168    0.2399 H   0  0  0  0  0  0  0  0  0  0  0  0
    0.5750    1.6191    0.6423 H   0  0  0  0  0  0  0  0  0  0  0  0
   -3.0650    0.8498   -0.4844 C   0  0  0  0  0  0  0  0  0  0  0  0
   -2.2036    0.0524    0.0574 C   0  0  0  0  0  3  0  0  0  0  0  0
   -1.3393   -0.7766    0.6004 C   0  0  0  0  0  0  0  0  0  0  0  0
   -0.2867   -1.4609   -0.1183 C   0  0  0  0  0  0  0  0  0  0  0  0
   -4.0319    0.5075   -0.8256 H   0  0  0  0  0  0  0  0  0  0  0  0
   -2.8677    1.9042   -0.6200 H   0  0  0  0  0  0  0  0  0  0  0  0
   -1.3612   -0.9041    1.6776 H   0  0  0  0  0  0  0  0  0  0  0  0
    0.7888   -0.6692   -0.0758 H   0  0  0  0  0  0  0  0  0  0  0  0
   -0.4589   -1.5706   -1.1827 H   0  0  0  0  0  0  0  0  0  0  0  0
    0.0633   -2.3728    0.3494 H   0  0  0  0  0  0  0  0  0  0  0  0
  1  2  1  0
  1  4  1  0
  1  5  1  0
  1  6  1  0
  2  3  2  3
  2 15  1  0
  3  7  1  0
  8  9  2  3
  8 12  1  0
  8 13  1  0
  9 10  1  0
 10 11  2  3
 10 14  1  0
 11 16  1  0
 11 17  1  0
M  RAD  1   9   2
M  END
>  <reaction>  (5) 
rmg_rxn_16806

>  <mol_properties>  (5) 
{"1": {"label": "*3", "atom_type": "Cd"}, "2": {"label": "*4", "atom_type": "N3d"}, "9": {"label": "*0", "atom_type": "Cd"}, "10": {"label": "*1", "atom_type": "Cs"}, "14": {"label": "*2", "atom_type": "H0"}}

>  <type>  (5) 
unop_1

>  <geom_source>  (5) 
crest_best.xyz

$$$$

     RDKit          3D

 17 15  0  0  0  0  0  0  0  0999 V2000
    0.8794   -0.4052    3.0885 C   0  0  0  0  0  0  0  0  0  0  0  0
    1.0950   -0.3913    1.6095 C   0  0  0  0  0  3  0  0  0  0  0  0
    1.9924   -1.1328    1.0546 N   0  0  0  0  0  0  0  0  0  0  0  0
   -0.1313   -0.7400    3.3341 H   0  0  0  0  0  0  0  0  0  0  0  0
    1.6107   -1.0761    3.5463 H   0  0  0  0  0  0  0  0  0  0  0  0
    1.0379    0.6034    3.4786 H   0  0  0  0  0  0  0  0  0  0  0  0
    1.9900   -0.9856    0.0386 H   0  0  0  0  0  0  0  0  0  0  0  0
   -1.0419    0.8509   -3.3874 C   0  0  0  0  0  0  0  0  0  0  0  0
   -1.0419    0.8509   -2.0901 C   0  0  0  0  0  0  0  0  0  0  0  0
   -1.0419    0.8509   -0.7896 C   0  0  0  0  0  0  0  0  0  0  0  0
   -1.0419   -0.3719    0.0654 C   0  0  0  0  0  0  0  0  0  0  0  0
   -1.9743    0.8496   -3.9399 H   0  0  0  0  0  0  0  0  0  0  0  0
   -0.1096    0.8496   -3.9399 H   0  0  0  0  0  0  0  0  0  0  0  0
   -1.0431    1.8071   -0.2742 H   0  0  0  0  0  0  0  0  0  0  0  0
    0.0223   -0.3816    0.8344 H   0  0  0  0  0  0  0  0  0  0  0  0
   -1.0419   -1.2889   -0.5327 H   0  0  0  0  0  0  0  0  0  0  0  0
   -1.9288   -0.3800    0.7062 H   0  0  0  0  0  0  0  0  0  0  0  0
  1  2  1  0
  1  4  1  0
  1  5  1  0
  1  6  1  0
  2  3  2  3
  3  7  1  0
  8  9  2  0
  8 12  1  0
  8 13  1  0
  9 10  2  0
 10 11  1  0
 10 14  1  0
 11 15  1  0
 11 16  1  0
 11 17  1  0
M  RAD  1   2   2
M  END
>  <reaction>  (6) 
rmg_rxn_16806

>  <mol_properties>  (6) 
{"1": {"label": "*3", "atom_type": "Cd"}, "2": {"label": "*4", "atom_type": "N3d"}, "9": {"label": "*0", "atom_type": "Cd"}, "10": {"label": "*1", "atom_type": "Cs"}, "14": {"label": "*2", "atom_type": "H0"}}

>  <type>  (6) 
unop_2

>  <geom_source>  (6) 
Heuristics

$$$$

     RDKit          3D

 17 15  0  0  0  0  0  0  0  0999 V2000
    1.6281    0.7741    2.0116 C   0  0  0  0  0  0  0  0  0  0  0  0
    1.0649   -0.5459    1.5937 C   0  0  0  0  0  3  0  0  0  0  0  0
    1.3696   -1.6334    2.2162 N   0  0  0  0  0  0  0  0  0  0  0  0
    0.8344    1.4590    2.3197 H   0  0  0  0  0  0  0  0  0  0  0  0
    2.3207    0.6162    2.8421 H   0  0  0  0  0  0  0  0  0  0  0  0
    2.1804    1.2046    1.1725 H   0  0  0  0  0  0  0  0  0  0  0  0
    0.8876   -2.4310    1.7854 H   0  0  0  0  0  0  0  0  0  0  0  0
   -1.0721    0.6963   -3.4033 C   0  0  0  0  0  0  0  0  0  0  0  0
   -1.0721    0.6963   -2.1060 C   0  0  0  0  0  0  0  0  0  0  0  0
   -1.0721    0.6963   -0.8055 C   0  0  0  0  0  0  0  0  0  0  0  0
   -1.0721   -0.5266    0.0496 C   0  0  0  0  0  0  0  0  0  0  0  0
   -2.0045    0.6950   -3.9558 H   0  0  0  0  0  0  0  0  0  0  0  0
   -0.1397    0.6950   -3.9558 H   0  0  0  0  0  0  0  0  0  0  0  0
   -1.0733    1.6524   -0.2900 H   0  0  0  0  0  0  0  0  0  0  0  0
   -0.0078   -0.5362    0.8186 H   0  0  0  0  0  0  0  0  0  0  0  0
   -1.0721   -1.4435   -0.5485 H   0  0  0  0  0  0  0  0  0  0  0  0
   -1.9590   -0.5346    0.6904 H   0  0  0  0  0  0  0  0  0  0  0  0
  1  2  1  0
  1  4  1  0
  1  5  1  0
  1  6  1  0
  2  3  2  3
  3  7  1  0
  8  9  2  0
  8 12  1  0
  8 13  1  0
  9 10  2  0
 10 11  1  0
 10 14  1  0
 11 15  1  0
 11 16  1  0
 11 17  1  0
M  RAD  1   2   2
M  END
>  <reaction>  (7) 
rmg_rxn_16806

>  <mol_properties>  (7) 
{"1": {"label": "*3", "atom_type": "Cd"}, "2": {"label": "*4", "atom_type": "N3d"}, "9": {"label": "*0", "atom_type": "Cd"}, "10": {"label": "*1", "atom_type": "Cs"}, "14": {"label": "*2", "atom_type": "H0"}}

>  <type>  (7) 
unop_3

>  <geom_source>  (7) 
Heuristics

$$$$

     RDKit          3D

 17 15  0  0  0  0  0  0  0  0999 V2000
    0.9339   -1.0774    2.9782 C   0  0  0  0  0  0  0  0  0  0  0  0
    1.0469   -0.4022    1.6495 C   0  0  0  0  0  3  0  0  0  0  0  0
    2.1532   -0.4045    0.9869 N   0  0  0  0  0  0  0  0  0  0  0  0
    0.1953   -1.8820    2.9474 H   0  0  0  0  0  0  0  0  0  0  0  0
    1.9104   -1.4847    3.2522 H   0  0  0  0  0  0  0  0  0  0  0  0
    0.6409   -0.3375    3.7273 H   0  0  0  0  0  0  0  0  0  0  0  0
    2.0347    0.1065    0.1044 H   0  0  0  0  0  0  0  0  0  0  0  0
   -1.0901    0.8400   -3.3474 C   0  0  0  0  0  0  0  0  0  0  0  0
   -1.0901    0.8400   -2.0501 C   0  0  0  0  0  0  0  0  0  0  0  0
   -1.0901    0.8400   -0.7496 C   0  0  0  0  0  0  0  0  0  0  0  0
   -1.0901   -0.3829    0.1054 C   0  0  0  0  0  0  0  0  0  0  0  0
   -2.0225    0.8387   -3.8999 H   0  0  0  0  0  0  0  0  0  0  0  0
   -0.1577    0.8387   -3.8999 H   0  0  0  0  0  0  0  0  0  0  0  0
   -1.0913    1.7961   -0.2342 H   0  0  0  0  0  0  0  0  0  0  0  0
   -0.0258   -0.3925    0.8744 H   0  0  0  0  0  0  0  0  0  0  0  0
   -1.0901   -1.2998   -0.4927 H   0  0  0  0  0  0  0  0  0  0  0  0
   -1.9770   -0.3909    0.7462 H   0  0  0  0  0  0  0  0  0  0  0  0
  1  2  1  0
  1  4  1  0
  1  5  1  0
  1  6  1  0
  2  3  2  3
  3  7  1  0
  8  9  2  0
  8 12  1  0
  8 13  1  0
  9 10  2  0
 10 11  1  0
 10 14  1  0
 11 15  1  0
 11 16  1  0
 11 17  1  0
M  RAD  1   2   2
M  END
>  <reaction>  (8) 
rmg_rxn_16806

>  <mol_properties>  (8) 
{"1": {"label": "*3", "atom_type": "Cd"}, "2": {"label": "*4", "atom_type": "N3d"}, "9": {"label": "*0", "atom_type": "Cd"}, "10": {"label": "*1", "atom_type": "Cs"}, "14": {"label": "*2", "atom_type": "H0"}}

>  <type>  (8) 
unop_4

>  <geom_source>  (8) 
Heuristics

$$$$

     RDKit          3D

 17 15  0  0  0  0  0  0  0  0999 V2000
    2.3563   -0.4133    1.0156 C   0  0  0  0  0  0  0  0  0  0  0  0
    1.0196   -0.4171    1.6846 C   0  0  0  0  0  3  0  0  0  0  0  0
    0.8373   -1.0056    2.8175 N   0  0  0  0  0  0  0  0  0  0  0  0
    2.7358    0.6052    0.9041 H   0  0  0  0  0  0  0  0  0  0  0  0
    3.0541   -1.0023    1.6162 H   0  0  0  0  0  0  0  0  0  0  0  0
    2.2609   -0.8802    0.0320 H   0  0  0  0  0  0  0  0  0  0  0  0
   -0.1397   -0.8999    3.1145 H   0  0  0  0  0  0  0  0  0  0  0  0
   -1.1173    0.8251   -3.3124 C   0  0  0  0  0  0  0  0  0  0  0  0
   -1.1173    0.8251   -2.0151 C   0  0  0  0  0  0  0  0  0  0  0  0
   -1.1173    0.8251   -0.7146 C   0  0  0  0  0  0  0  0  0  0  0  0
   -1.1173   -0.3978    0.1404 C   0  0  0  0  0  0  0  0  0  0  0  0
   -2.0497    0.8237   -3.8649 H   0  0  0  0  0  0  0  0  0  0  0  0
   -0.1849    0.8238   -3.8649 H   0  0  0  0  0  0  0  0  0  0  0  0
   -1.1185    1.7812   -0.1991 H   0  0  0  0  0  0  0  0  0  0  0  0
   -0.0530   -0.4074    0.9095 H   0  0  0  0  0  0  0  0  0  0  0  0
   -1.1173   -1.3147   -0.4576 H   0  0  0  0  0  0  0  0  0  0  0  0
   -2.0042   -0.4058    0.7813 H   0  0  0  0  0  0  0  0  0  0  0  0
  1  2  1  0
  1  4  1  0
  1  5  1  0
  1  6  1  0
  2  3  2  3
  3  7  1  0
  8  9  2  0
  8 12  1  0
  8 13  1  0
  9 10  2  0
 10 11  1  0
 10 14  1  0
 11 15  1  0
 11 16  1  0
 11 17  1  0
M  RAD  1   2   2
M  END
>  <reaction>  (9) 
rmg_rxn_16806

>  <mol_properties>  (9) 
{"1": {"label": "*3", "atom_type": "Cd"}, "2": {"label": "*4", "atom_type": "N3d"}, "9": {"label": "*0", "atom_type": "Cd"}, "10": {"label": "*1", "atom_type": "Cs"}, "14": {"label": "*2", "atom_type": "H0"}}

>  <type>  (9) 
unop_5

>  <geom_source>  (9) 
Heuristics

$$$$

     RDKit          3D

 17 15  0  0  0  0  0  0  0  0999 V2000
    1.2104   -1.6318    2.5476 C   0  0  0  0  0  0  0  0  0  0  0  0
    1.0402   -0.4748    1.6167 C   0  0  0  0  0  3  0  0  0  0  0  0
    1.9049    0.4808    1.5680 N   0  0  0  0  0  0  0  0  0  0  0  0
    1.2969   -2.5702    1.9947 H   0  0  0  0  0  0  0  0  0  0  0  0
    2.1102   -1.4738    3.1475 H   0  0  0  0  0  0  0  0  0  0  0  0
    0.3474   -1.6772    3.2168 H   0  0  0  0  0  0  0  0  0  0  0  0
    1.6169    1.1795    0.8731 H   0  0  0  0  0  0  0  0  0  0  0  0
   -1.0967    0.7674   -3.3802 C   0  0  0  0  0  0  0  0  0  0  0  0
   -1.0967    0.7674   -2.0829 C   0  0  0  0  0  0  0  0  0  0  0  0
   -1.0967    0.7674   -0.7824 C   0  0  0  0  0  0  0  0  0  0  0  0
   -1.0967   -0.4554    0.0726 C   0  0  0  0  0  0  0  0  0  0  0  0
   -2.0291    0.7661   -3.9327 H   0  0  0  0  0  0  0  0  0  0  0  0
   -0.1643    0.7661   -3.9327 H   0  0  0  0  0  0  0  0  0  0  0  0
   -1.0979    1.7236   -0.2670 H   0  0  0  0  0  0  0  0  0  0  0  0
   -0.0324   -0.4651    0.8416 H   0  0  0  0  0  0  0  0  0  0  0  0
   -1.0967   -1.3724   -0.5255 H   0  0  0  0  0  0  0  0  0  0  0  0
   -1.9836   -0.4635    0.7135 H   0  0  0  0  0  0  0  0  0  0  0  0
  1  2  1  0
  1  4  1  0
  1  5  1  0
  1  6  1  0
  2  3  2  3
  3  7  1  0
  8  9  2  0
  8 12  1  0
  8 13  1  0
  9 10  2  0
 10 11  1  0
 10 14  1  0
 11 15  1  0
 11 16  1  0
 11 17  1  0
M  RAD  1   2   2
M  END
>  <reaction>  (10) 
rmg_rxn_16806

>  <mol_properties>  (10) 
{"1": {"label": "*3", "atom_type": "Cd"}, "2": {"label": "*4", "atom_type": "N3d"}, "9": {"label": "*0", "atom_type": "Cd"}, "10": {"label": "*1", "atom_type": "Cs"}, "14": {"label": "*2", "atom_type": "H0"}}

>  <type>  (10) 
unop_6

>  <geom_source>  (10) 
Heuristics

$$$$

     RDKit          3D

 17 15  0  0  0  0  0  0  0  0999 V2000
    2.2946   -1.0429    1.1163 C   0  0  0  0  0  0  0  0  0  0  0  0
    1.0633   -0.3830    1.6478 C   0  0  0  0  0  3  0  0  0  0  0  0
    0.7055   -0.5212    2.8791 N   0  0  0  0  0  0  0  0  0  0  0  0
    3.0154   -0.3014    0.7634 H   0  0  0  0  0  0  0  0  0  0  0  0
    2.7444   -1.6444    1.9103 H   0  0  0  0  0  0  0  0  0  0  0  0
    2.0140   -1.7043    0.2927 H   0  0  0  0  0  0  0  0  0  0  0  0
   -0.1596    0.0033    3.0540 H   0  0  0  0  0  0  0  0  0  0  0  0
   -1.0736    0.8592   -3.3491 C   0  0  0  0  0  0  0  0  0  0  0  0
   -1.0736    0.8592   -2.0518 C   0  0  0  0  0  0  0  0  0  0  0  0
   -1.0736    0.8592   -0.7513 C   0  0  0  0  0  0  0  0  0  0  0  0
   -1.0736   -0.3637    0.1037 C   0  0  0  0  0  0  0  0  0  0  0  0
   -2.0060    0.8579   -3.9016 H   0  0  0  0  0  0  0  0  0  0  0  0
   -0.1413    0.8579   -3.9016 H   0  0  0  0  0  0  0  0  0  0  0  0
   -1.0748    1.8153   -0.2359 H   0  0  0  0  0  0  0  0  0  0  0  0
   -0.0094   -0.3733    0.8727 H   0  0  0  0  0  0  0  0  0  0  0  0
   -1.0736   -1.2806   -0.4944 H   0  0  0  0  0  0  0  0  0  0  0  0
   -1.9605   -0.3717    0.7446 H   0  0  0  0  0  0  0  0  0  0  0  0
  1  2  1  0
  1  4  1  0
  1  5  1  0
  1  6  1  0
  2  3  2  3
  3  7  1  0
  8  9  2  0
  8 12  1  0
  8 13  1  0
  9 10  2  0
 10 11  1  0
 10 14  1  0
 11 15  1  0
 11 16  1  0
 11 17  1  0
M  RAD  1   2   2
M  END
>  <reaction>  (11) 
rmg_rxn_16806

>  <mol_properties>  (11) 
{"1": {"label": "*3", "atom_type": "Cd"}, "2": {"label": "*4", "atom_type": "N3d"}, "9": {"label": "*0", "atom_type": "Cd"}, "10": {"label": "*1", "atom_type": "Cs"}, "14": {"label": "*2", "atom_type": "H0"}}

>  <type>  (11) 
unop_7

>  <geom_source>  (11) 
Heuristics

$$$$

     RDKit          3D

 17 15  0  0  0  0  0  0  0  0999 V2000
    2.0500   -1.5469    1.4550 C   0  0  0  0  0  0  0  0  0  0  0  0
    1.1038   -0.3987    1.5981 C   0  0  0  0  0  3  0  0  0  0  0  0
    0.7731    0.0585    2.7577 N   0  0  0  0  0  0  0  0  0  0  0  0
    2.9478   -1.2490    0.9081 H   0  0  0  0  0  0  0  0  0  0  0  0
    2.3268   -1.9033    2.4504 H   0  0  0  0  0  0  0  0  0  0  0  0
    1.5457   -2.3565    0.9213 H   0  0  0  0  0  0  0  0  0  0  0  0
    0.1185    0.8424    2.6522 H   0  0  0  0  0  0  0  0  0  0  0  0
   -1.0332    0.8434   -3.3989 C   0  0  0  0  0  0  0  0  0  0  0  0
   -1.0332    0.8434   -2.1015 C   0  0  0  0  0  0  0  0  0  0  0  0
   -1.0332    0.8434   -0.8010 C   0  0  0  0  0  0  0  0  0  0  0  0
   -1.0332   -0.3794    0.0540 C   0  0  0  0  0  0  0  0  0  0  0  0
   -1.9656    0.8421   -3.9513 H   0  0  0  0  0  0  0  0  0  0  0  0
   -0.1008    0.8421   -3.9513 H   0  0  0  0  0  0  0  0  0  0  0  0
   -1.0344    1.7996   -0.2856 H   0  0  0  0  0  0  0  0  0  0  0  0
    0.0311   -0.3890    0.8230 H   0  0  0  0  0  0  0  0  0  0  0  0
   -1.0332   -1.2964   -0.5441 H   0  0  0  0  0  0  0  0  0  0  0  0
   -1.9201   -0.3874    0.6948 H   0  0  0  0  0  0  0  0  0  0  0  0
  1  2  1  0
  1  4  1  0
  1  5  1  0
  1  6  1  0
  2  3  2  3
  3  7  1  0
  8  9  2  0
  8 12  1  0
  8 13  1  0
  9 10  2  0
 10 11  1  0
 10 14  1  0
 11 15  1  0
 11 16  1  0
 11 17  1  0
M  RAD  1   2   2
M  END
>  <reaction>  (12) 
rmg_rxn_16806

>  <mol_properties>  (12) 
{"1": {"label": "*3", "atom_type": "Cd"}, "2": {"label": "*4", "atom_type": "N3d"}, "9": {"label": "*0", "atom_type": "Cd"}, "10": {"label": "*1", "atom_type": "Cs"}, "14": {"label": "*2", "atom_type": "H0"}}

>  <type>  (12) 
unop_8

>  <geom_source>  (12) 
Heuristics

$$$$

     RDKit          3D

 17 15  0  0  0  0  0  0  0  0999 V2000
    1.0083    0.2118    2.9114 C   0  0  0  0  0  0  0  0  0  0  0  0
    1.1187   -0.4380    1.5698 C   0  0  0  0  0  3  0  0  0  0  0  0
    1.7562   -1.5478    1.4115 N   0  0  0  0  0  0  0  0  0  0  0  0
   -0.0351    0.2836    3.2275 H   0  0  0  0  0  0  0  0  0  0  0  0
    1.5731   -0.3782    3.6377 H   0  0  0  0  0  0  0  0  0  0  0  0
    1.4460    1.2118    2.8571 H   0  0  0  0  0  0  0  0  0  0  0  0
    1.7220   -1.8345    0.4263 H   0  0  0  0  0  0  0  0  0  0  0  0
   -1.0183    0.8042   -3.4271 C   0  0  0  0  0  0  0  0  0  0  0  0
   -1.0183    0.8042   -2.1298 C   0  0  0  0  0  0  0  0  0  0  0  0
   -1.0183    0.8042   -0.8293 C   0  0  0  0  0  0  0  0  0  0  0  0
   -1.0183   -0.4187    0.0257 C   0  0  0  0  0  0  0  0  0  0  0  0
   -1.9507    0.8029   -3.9796 H   0  0  0  0  0  0  0  0  0  0  0  0
   -0.0859    0.8029   -3.9796 H   0  0  0  0  0  0  0  0  0  0  0  0
   -1.0195    1.7603   -0.3139 H   0  0  0  0  0  0  0  0  0  0  0  0
    0.0460   -0.4283    0.7947 H   0  0  0  0  0  0  0  0  0  0  0  0
   -1.0183   -1.3356   -0.5724 H   0  0  0  0  0  0  0  0  0  0  0  0
   -1.9052   -0.4267    0.6666 H   0  0  0  0  0  0  0  0  0  0  0  0
  1  2  1  0
  1  4  1  0
  1  5  1  0
  1  6  1  0
  2  3  2  3
  3  7  1  0
  8  9  2  0
  8 12  1  0
  8 13  1  0
  9 10  2  0
 10 11  1  0
 10 14  1  0
 11 15  1  0
 11 16  1  0
 11 17  1  0
M  RAD  1   2   2
M  END
>  <reaction>  (13) 
rmg_rxn_16806

>  <mol_properties>  (13) 
{"1": {"label": "*3", "atom_type": "Cd"}, "2": {"label": "*4", "atom_type": "N3d"}, "9": {"label": "*0", "atom_type": "Cd"}, "10": {"label": "*1", "atom_type": "Cs"}, "14": {"label": "*2", "atom_type": "H0"}}

>  <type>  (13) 
unop_9

>  <geom_source>  (13) 
Heuristics

$$$$

     RDKit          3D

 17 15  0  0  0  0  0  0  0  0999 V2000
    3.0964   -0.2736   -0.3932 C   0  0  0  0  0  0  0  0  0  0  0  0
    1.7614    0.2249    0.0053 C   0  0  0  0  0  0  0  0  0  0  0  0
    1.5318    1.3831    0.3951 N   0  0  0  0  0  0  0  0  0  0  0  0
    3.0543   -0.6304   -1.4214 H   0  0  0  0  0  0  0  0  0  0  0  0
    3.8527    0.5059   -0.3081 H   0  0  0  0  0  0  0  0  0  0  0  0
    3.3696   -1.1168    0.2399 H   0  0  0  0  0  0  0  0  0  0  0  0
    0.5750    1.6191    0.6423 H   0  0  0  0  0  0  0  0  0  0  0  0
   -3.0650    0.8498   -0.4844 C   0  0  0  0  0  0  0  0  0  0  0  0
   -2.2036    0.0524    0.0574 C   0  0  0  0  0  3  0  0  0  0  0  0
   -1.3393   -0.7766    0.6004 C   0  0  0  0  0  0  0  0  0  0  0  0
   -0.2867   -1.4609   -0.1183 C   0  0  0  0  0  0  0  0  0  0  0  0
   -4.0319    0.5075   -0.8256 H   0  0  0  0  0  0  0  0  0  0  0  0
   -2.8677    1.9042   -0.6200 H   0  0  0  0  0  0  0  0  0  0  0  0
   -1.3612   -0.9041    1.6776 H   0  0  0  0  0  0  0  0  0  0  0  0
    0.7888   -0.6692   -0.0758 H   0  0  0  0  0  0  0  0  0  0  0  0
   -0.4589   -1.5706   -1.1827 H   0  0  0  0  0  0  0  0  0  0  0  0
    0.0633   -2.3728    0.3494 H   0  0  0  0  0  0  0  0  0  0  0  0
  1  2  1  0
  1  4  1  0
  1  5  1  0
  1  6  1  0
  2  3  2  3
  2 15  1  0
  3  7  1  0
  8  9  2  3
  8 12  1  0
  8 13  1  0
  9 10  1  0
 10 11  2  3
 10 14  1  0
 11 16  1  0
 11 17  1  0
M  RAD  1   9   2
M  END
>  <reaction>  (14) 
rmg_rxn_16806

>  <mol_properties>  (14) 
{"1": {"label": "*3", "atom_type": "Cd"}, "2": {"label": "*4", "atom_type": "N3d"}, "9": {"label": "*0", "atom_type": "Cd"}, "10": {"label": "*1", "atom_type": "Cs"}, "14": {"label": "*2", "atom_type": "H0"}}

>  <type>  (14) 
unop_10

>  <geom_source>  (14) 
Heuristics

$$$$

     RDKit          3D

 17 15  0  0  0  0  0  0  0  0999 V2000
    2.2337    0.1834    1.1664 C   0  0  0  0  0  0  0  0  0  0  0  0
    0.9997   -0.4818    1.6850 C   0  0  0  0  0  3  0  0  0  0  0  0
    1.0495   -1.3205    2.6634 N   0  0  0  0  0  0  0  0  0  0  0  0
    2.1744    1.2677    1.2866 H   0  0  0  0  0  0  0  0  0  0  0  0
    3.0988   -0.2007    1.7129 H   0  0  0  0  0  0  0  0  0  0  0  0
    2.3505   -0.0638    0.1082 H   0  0  0  0  0  0  0  0  0  0  0  0
    0.1072   -1.6688    2.8752 H   0  0  0  0  0  0  0  0  0  0  0  0
   -1.1373    0.7604   -3.3119 C   0  0  0  0  0  0  0  0  0  0  0  0
   -1.1373    0.7604   -2.0146 C   0  0  0  0  0  0  0  0  0  0  0  0
   -1.1373    0.7604   -0.7141 C   0  0  0  0  0  0  0  0  0  0  0  0
   -1.1373   -0.4625    0.1409 C   0  0  0  0  0  0  0  0  0  0  0  0
   -2.0696    0.7591   -3.8644 H   0  0  0  0  0  0  0  0  0  0  0  0
   -0.2049    0.7591   -3.8644 H   0  0  0  0  0  0  0  0  0  0  0  0
   -1.1384    1.7165   -0.1987 H   0  0  0  0  0  0  0  0  0  0  0  0
   -0.0730   -0.4721    0.9099 H   0  0  0  0  0  0  0  0  0  0  0  0
   -1.1373   -1.3794   -0.4572 H   0  0  0  0  0  0  0  0  0  0  0  0
   -2.0242   -0.4705    0.7818 H   0  0  0  0  0  0  0  0  0  0  0  0
  1  2  1  0
  1  4  1  0
  1  5  1  0
  1  6  1  0
  2  3  2  3
  3  7  1  0
  8  9  2  0
  8 12  1  0
  8 13  1  0
  9 10  2  0
 10 11  1  0
 10 14  1  0
 11 15  1  0
 11 16  1  0
 11 17  1  0
M  RAD  1   2   2
M  END
>  <reaction>  (15) 
rmg_rxn_16806

>  <mol_properties>  (15) 
{"1": {"label": "*3", "atom_type": "Cd"}, "2": {"label": "*4", "atom_type": "N3d"}, "9": {"label": "*0", "atom_type": "Cd"}, "10": {"label": "*1", "atom_type": "Cs"}, "14": {"label": "*2", "atom_type": "H0"}}

>  <type>  (15) 
unop_11

>  <geom_source>  (15) 
Heuristics

$$$$

     RDKit          3D

 17 15  0  0  0  0  0  0  0  0999 V2000
    1.2813    0.6353    2.5158 C   0  0  0  0  0  0  0  0  0  0  0  0
    1.1066   -0.5027    1.5626 C   0  0  0  0  0  3  0  0  0  0  0  0
    1.5340   -1.6864    1.8443 N   0  0  0  0  0  0  0  0  0  0  0  0
    0.3143    1.0331    2.8327 H   0  0  0  0  0  0  0  0  0  0  0  0
    1.8384    0.2838    3.3880 H   0  0  0  0  0  0  0  0  0  0  0  0
    1.8599    1.4220    2.0250 H   0  0  0  0  0  0  0  0  0  0  0  0
    1.3230   -2.3287    1.0717 H   0  0  0  0  0  0  0  0  0  0  0  0
   -1.0304    0.7394   -3.4343 C   0  0  0  0  0  0  0  0  0  0  0  0
   -1.0304    0.7394   -2.1370 C   0  0  0  0  0  0  0  0  0  0  0  0
   -1.0304    0.7394   -0.8365 C   0  0  0  0  0  0  0  0  0  0  0  0
   -1.0304   -0.4834    0.0185 C   0  0  0  0  0  0  0  0  0  0  0  0
   -1.9628    0.7381   -3.9868 H   0  0  0  0  0  0  0  0  0  0  0  0
   -0.0980    0.7381   -3.9868 H   0  0  0  0  0  0  0  0  0  0  0  0
   -1.0316    1.6956   -0.3211 H   0  0  0  0  0  0  0  0  0  0  0  0
    0.0339   -0.4930    0.7875 H   0  0  0  0  0  0  0  0  0  0  0  0
   -1.0304   -1.4004   -0.5796 H   0  0  0  0  0  0  0  0  0  0  0  0
   -1.9173   -0.4914    0.6594 H   0  0  0  0  0  0  0  0  0  0  0  0
  1  2  1  0
  1  4  1  0
  1  5  1  0
  1  6  1  0
  2  3  2  3
  3  7  1  0
  8  9  2  0
  8 12  1  0
  8 13  1  0
  9 10  2  0
 10 11  1  0
 10 14  1  0
 11 15  1  0
 11 16  1  0
 11 17  1  0
M  RAD  1   2   2
M  END
>  <reaction>  (16) 
rmg_rxn_16806

>  <mol_properties>  (16) 
{"1": {"label": "*3", "atom_type": "Cd"}, "2": {"label": "*4", "atom_type": "N3d"}, "9": {"label": "*0", "atom_type": "Cd"}, "10": {"label": "*1", "atom_type": "Cs"}, "14": {"label": "*2", "atom_type": "H0"}}

>  <type>  (16) 
unop_12

>  <geom_source>  (16) 
Heuristics

$$$$

     RDKit          3D

 17 15  0  0  0  0  0  0  0  0999 V2000
    1.6613   -1.7868    1.9632 C   0  0  0  0  0  0  0  0  0  0  0  0
    1.1035   -0.4567    1.5710 C   0  0  0  0  0  3  0  0  0  0  0  0
    1.1675    0.5586    2.3637 N   0  0  0  0  0  0  0  0  0  0  0  0
    2.4625   -2.0910    1.2854 H   0  0  0  0  0  0  0  0  0  0  0  0
    2.0476   -1.7214    2.9835 H   0  0  0  0  0  0  0  0  0  0  0  0
    0.8584   -2.5279    1.9400 H   0  0  0  0  0  0  0  0  0  0  0  0
    0.7339    1.3772    1.9210 H   0  0  0  0  0  0  0  0  0  0  0  0
   -1.0334    0.7855   -3.4259 C   0  0  0  0  0  0  0  0  0  0  0  0
   -1.0334    0.7855   -2.1286 C   0  0  0  0  0  0  0  0  0  0  0  0
   -1.0334    0.7855   -0.8281 C   0  0  0  0  0  0  0  0  0  0  0  0
   -1.0334   -0.4374    0.0269 C   0  0  0  0  0  0  0  0  0  0  0  0
   -1.9658    0.7842   -3.9784 H   0  0  0  0  0  0  0  0  0  0  0  0
   -0.1011    0.7842   -3.9784 H   0  0  0  0  0  0  0  0  0  0  0  0
   -1.0346    1.7417   -0.3127 H   0  0  0  0  0  0  0  0  0  0  0  0
    0.0308   -0.4470    0.7959 H   0  0  0  0  0  0  0  0  0  0  0  0
   -1.0334   -1.3543   -0.5712 H   0  0  0  0  0  0  0  0  0  0  0  0
   -1.9203   -0.4454    0.6678 H   0  0  0  0  0  0  0  0  0  0  0  0
  1  2  1  0
  1  4  1  0
  1  5  1  0
  1  6  1  0
  2  3  2  3
  3  7  1  0
  8  9  2  0
  8 12  1  0
  8 13  1  0
  9 10  2  0
 10 11  1  0
 10 14  1  0
 11 15  1  0
 11 16  1  0
 11 17  1  0
M  RAD  1   2   2
M  END
>  <reaction>  (17) 
rmg_rxn_16806

>  <mol_properties>  (17) 
{"1": {"label": "*3", "atom_type": "Cd"}, "2": {"label": "*4", "atom_type": "N3d"}, "9": {"label": "*0", "atom_type": "Cd"}, "10": {"label": "*1", "atom_type": "Cs"}, "14": {"label": "*2", "atom_type": "H0"}}

>  <type>  (17) 
unop_13

>  <geom_source>  (17) 
Heuristics

$$$$

     RDKit          3D

 17 15  0  0  0  0  0  0  0  0999 V2000
    1.9693    0.6093    1.5253 C   0  0  0  0  0  0  0  0  0  0  0  0
    1.0184   -0.5376    1.6461 C   0  0  0  0  0  3  0  0  0  0  0  0
    1.2322   -1.5029    2.4742 N   0  0  0  0  0  0  0  0  0  0  0  0
    1.4827    1.5513    1.7891 H   0  0  0  0  0  0  0  0  0  0  0  0
    2.8194    0.4355    2.1899 H   0  0  0  0  0  0  0  0  0  0  0  0
    2.3344    0.6592    0.4963 H   0  0  0  0  0  0  0  0  0  0  0  0
    0.4738   -2.1921    2.4129 H   0  0  0  0  0  0  0  0  0  0  0  0
   -1.1185    0.7046   -3.3508 C   0  0  0  0  0  0  0  0  0  0  0  0
   -1.1185    0.7046   -2.0535 C   0  0  0  0  0  0  0  0  0  0  0  0
   -1.1185    0.7046   -0.7530 C   0  0  0  0  0  0  0  0  0  0  0  0
   -1.1185   -0.5183    0.1020 C   0  0  0  0  0  0  0  0  0  0  0  0
   -2.0509    0.7032   -3.9033 H   0  0  0  0  0  0  0  0  0  0  0  0
   -0.1861    0.7033   -3.9033 H   0  0  0  0  0  0  0  0  0  0  0  0
   -1.1197    1.6607   -0.2376 H   0  0  0  0  0  0  0  0  0  0  0  0
   -0.0542   -0.5279    0.8710 H   0  0  0  0  0  0  0  0  0  0  0  0
   -1.1185   -1.4352   -0.4961 H   0  0  0  0  0  0  0  0  0  0  0  0
   -2.0054   -0.5263    0.7429 H   0  0  0  0  0  0  0  0  0  0  0  0
  1  2  1  0
  1  4  1  0
  1  5  1  0
  1  6  1  0
  2  3  2  3
  3  7  1  0
  8  9  2  0
  8 12  1  0
  8 13  1  0
  9 10  2  0
 10 11  1  0
 10 14  1  0
 11 15  1  0
 11 16  1  0
 11 17  1  0
M  RAD  1   2   2
M  END
>  <reaction>  (18) 
rmg_rxn_16806

>  <mol_properties>  (18) 
{"1": {"label": "*3", "atom_type": "Cd"}, "2": {"label": "*4", "atom_type": "N3d"}, "9": {"label": "*0", "atom_type": "Cd"}, "10": {"label": "*1", "atom_type": "Cs"}, "14": {"label": "*2", "atom_type": "H0"}}

>  <type>  (18) 
unop_14

>  <geom_source>  (18) 
Heuristics

$$$$

     RDKit          3D

 17 14  0  0  0  0  0  0  0  0999 V2000
   -1.8161    0.2845    1.8246 N   0  0  0  0  0  0  0  0  0  0  0  0
   -2.8058    0.3360   -0.3698 C   0  0  0  0  0  0  0  0  0  0  0  0
   -1.6629    0.1097    0.5638 C   0  0  0  0  0  0  0  0  0  0  0  0
    1.8089   -0.4252   -1.0919 C   0  0  0  0  0  0  0  0  0  0  0  0
    0.3276   -0.2721   -1.0455 C   0  0  0  0  0  2  0  0  0  0  0  0
    3.2683    0.3178    0.9357 C   0  0  0  0  0  3  0  0  0  0  0  0
    2.5389   -0.0534   -0.0777 C   0  0  0  0  0  0  0  0  0  0  0  0
   -3.1512    1.3884   -0.2942 H   0  0  0  0  0  0  0  0  0  0  0  0
   -3.6426   -0.3471   -0.1132 H   0  0  0  0  0  0  0  0  0  0  0  0
   -2.4808    0.1353   -1.4117 H   0  0  0  0  0  0  0  0  0  0  0  0
   -0.5727   -0.2453    0.1202 H   0  0  0  0  0  0  0  0  0  0  0  0
    2.2875   -0.8177   -1.9796 H   0  0  0  0  0  0  0  0  0  0  0  0
   -0.1162   -0.5860   -2.0134 H   0  0  0  0  0  0  0  0  0  0  0  0
   -0.0952   -0.8978   -0.2309 H   0  0  0  0  0  0  0  0  0  0  0  0
    4.3446    0.3608    0.8403 H   0  0  0  0  0  0  0  0  0  0  0  0
    2.7972    0.5829    1.8723 H   0  0  0  0  0  0  0  0  0  0  0  0
   -1.0294    0.1292    2.4709 H   0  0  0  0  0  0  0  0  0  0  0  0
  1  3  2  3
  1 17  1  0
  2  3  1  0
  2  8  1  0
  2  9  1  0
  2 10  1  0
  3 11  1  0
  4  7  3  0
  4 12  1  0
  5 13  1  0
  5 14  1  0
  6  7  1  0
  6 15  1  0
  6 16  1  0
M  RAD  2   5   3   6   2
M  END
>  <reaction>  (19) 
rmg_rxn_16806

>  <mol_properties>  (19) 
{"1": {"label": "*3", "atom_type": "Cd"}, "2": {"label": "*4", "atom_type": "N3d"}, "9": {"label": "*0", "atom_type": "Cd"}, "10": {"label": "*1", "atom_type": "Cs"}, "14": {"label": "*2", "atom_type": "H0"}}

>  <type>  (19) 
unop_15

>  <geom_source>  (19) 
AutoTST

$$$$

     RDKit          3D

 17 15  0  0  0  0  0  0  0  0999 V2000
    1.6280    0.7741    2.0116 C   0  0  0  0  0  0  0  0  0  0  0  0
    1.0649   -0.5459    1.5937 C   0  0  0  0  0  3  0  0  0  0  0  0
    1.3696   -1.6335    2.2162 N   0  0  0  0  0  0  0  0  0  0  0  0
    0.8344    1.4590    2.3197 H   0  0  0  0  0  0  0  0  0  0  0  0
    2.3207    0.6162    2.8421 H   0  0  0  0  0  0  0  0  0  0  0  0
    2.1804    1.2046    1.1725 H   0  0  0  0  0  0  0  0  0  0  0  0
    0.8876   -2.4310    1.7854 H   0  0  0  0  0  0  0  0  0  0  0  0
   -1.0721    0.6963   -3.4033 C   0  0  0  0  0  0  0  0  0  0  0  0
   -1.0721    0.6963   -2.1060 C   0  0  0  0  0  0  0  0  0  0  0  0
   -1.0721    0.6963   -0.8055 C   0  0  0  0  0  0  0  0  0  0  0  0
   -1.0721   -0.5266    0.0496 C   0  0  0  0  0  0  0  0  0  0  0  0
   -2.0044    0.6950   -3.9558 H   0  0  0  0  0  0  0  0  0  0  0  0
   -0.1397    0.6950   -3.9558 H   0  0  0  0  0  0  0  0  0  0  0  0
   -1.0733    1.6524   -0.2900 H   0  0  0  0  0  0  0  0  0  0  0  0
   -0.0078   -0.5362    0.8186 H   0  0  0  0  0  0  0  0  0  0  0  0
   -1.0721   -1.4435   -0.5485 H   0  0  0  0  0  0  0  0  0  0  0  0
   -1.9590   -0.5346    0.6904 H   0  0  0  0  0  0  0  0  0  0  0  0
  1  2  1  0
  1  4  1  0
  1  5  1  0
  1  6  1  0
  2  3  2  3
  3  7  1  0
  8  9  2  0
  8 12  1  0
  8 13  1  0
  9 10  2  0
 10 11  1  0
 10 14  1  0
 11 15  1  0
 11 16  1  0
 11 17  1  0
M  RAD  1   2   2
M  END
>  <reaction>  (20) 
rmg_rxn_16806

>  <mol_properties>  (20) 
{"1": {"label": "*3", "atom_type": "Cd"}, "2": {"label": "*4", "atom_type": "N3d"}, "9": {"label": "*0", "atom_type": "Cd"}, "10": {"label": "*1", "atom_type": "Cs"}, "14": {"label": "*2", "atom_type": "H0"}}

>  <type>  (20) 
unop_16

>  <geom_source>  (20) 
gaussian_log

$$$$
