
     RDKit          3D

  9  8  0  0  0  0  0  0  0  0999 V2000
   -1.5470   -0.0755   -0.1976 C   0  0  0  0  0  0  0  0  0  0  0  0
   -0.2885    0.4507    0.1749 O   0  0  0  0  0  0  0  0  0  0  0  0
   -0.1502    1.7216   -0.3294 N   0  0  0  0  0  0  0  0  0  0  0  0
    0.9626    2.2353   -0.0219 C   0  0  0  0  0  0  0  0  0  0  0  0
   -1.6392   -0.1356   -1.2844 H   0  0  0  0  0  0  0  0  0  0  0  0
   -2.3597    0.5337    0.2044 H   0  0  0  0  0  0  0  0  0  0  0  0
   -1.5879   -1.0750    0.2318 H   0  0  0  0  0  0  0  0  0  0  0  0
    1.1497    3.2381   -0.3820 H   0  0  0  0  0  0  0  0  0  0  0  0
    1.7060    1.7101    0.5739 H   0  0  0  0  0  0  0  0  0  0  0  0
  1  2  1  0
  1  5  1  0
  1  6  1  0
  1  7  1  0
  2  3  1  0
  3  4  2  3
  4  8  1  0
  4  9  1  0
M  END
>  <reaction>  (1) 
rmg_rxn_15611

>  <mol_properties>  (1) 
{"0": {"label": "donator", "atom_type": "Cs"}, "4": {"label": "d_hydrogen", "atom_type": "H0"}}

>  <type>  (1) 
r1h

$$$$

     RDKit          3D

 17 16  0  0  0  0  0  0  0  0999 V2000
    3.3619    0.3511   -1.0290 C   0  0  0  0  0  3  0  0  0  0  0  0
    2.1806    1.0643   -0.5073 C   0  0  0  0  0  0  0  0  0  0  0  0
    1.4028    0.1998    0.2757 O   0  0  0  0  0  0  0  0  0  0  0  0
    0.2433    0.8081    0.7885 C   0  0  0  0  0  0  0  0  0  0  0  0
   -0.5040   -0.1878    1.6510 C   0  0  0  0  0  0  0  0  0  0  0  0
    0.2852   -0.6298    2.8762 C   0  0  0  0  0  0  0  0  0  0  0  0
    4.1174    0.8902   -1.5820 H   0  0  0  0  0  0  0  0  0  0  0  0
    3.4399   -0.7198   -0.9141 H   0  0  0  0  0  0  0  0  0  0  0  0
    1.5724    1.4684   -1.3398 H   0  0  0  0  0  0  0  0  0  0  0  0
    2.4896    1.9442    0.0856 H   0  0  0  0  0  0  0  0  0  0  0  0
    0.5169    1.6937    1.3835 H   0  0  0  0  0  0  0  0  0  0  0  0
   -0.3954    1.1528   -0.0379 H   0  0  0  0  0  0  0  0  0  0  0  0
   -0.7611   -1.0545    1.0367 H   0  0  0  0  0  0  0  0  0  0  0  0
   -1.4466    0.2743    1.9571 H   0  0  0  0  0  0  0  0  0  0  0  0
    0.5263    0.2245    3.5136 H   0  0  0  0  0  0  0  0  0  0  0  0
    1.2220   -1.1033    2.5825 H   0  0  0  0  0  0  0  0  0  0  0  0
   -0.2849   -1.3427    3.4737 H   0  0  0  0  0  0  0  0  0  0  0  0
  1  2  1  0
  1  7  1  0
  1  8  1  0
  2  3  1  0
  2  9  1  0
  2 10  1  0
  3  4  1  0
  4  5  1  0
  4 11  1  0
  4 12  1  0
  5  6  1  0
  5 13  1  0
  5 14  1  0
  6 15  1  0
  6 16  1  0
  6 17  1  0
M  RAD  1   1   2
M  END
>  <reaction>  (2) 
rmg_rxn_15611

>  <mol_properties>  (2) 
{"0": {"label": "acceptor", "atom_type": "Cs"}}

>  <type>  (2) 
r2

$$$$

     RDKit          3D

 18 17  0  0  0  0  0  0  0  0999 V2000
    2.2026   -0.7213   -0.2612 C   0  0  0  0  0  0  0  0  0  0  0  0
    1.5384    0.2638    0.6915 C   0  0  0  0  0  0  0  0  0  0  0  0
    2.2584    1.5946    0.7694 C   0  0  0  0  0  0  0  0  0  0  0  0
    2.2212    2.2185   -0.4893 O   0  0  0  0  0  0  0  0  0  0  0  0
    2.8988    3.4488   -0.5204 C   0  0  0  0  0  0  0  0  0  0  0  0
    2.7981    4.0296   -1.9118 C   0  0  0  0  0  0  0  0  0  0  0  0
    3.2294   -0.9309    0.0486 H   0  0  0  0  0  0  0  0  0  0  0  0
    2.2338   -0.3181   -1.2734 H   0  0  0  0  0  0  0  0  0  0  0  0
    1.6610   -1.6680   -0.2875 H   0  0  0  0  0  0  0  0  0  0  0  0
    1.4990   -0.1566    1.7002 H   0  0  0  0  0  0  0  0  0  0  0  0
    0.5055    0.4455    0.3835 H   0  0  0  0  0  0  0  0  0  0  0  0
    3.3038    1.4410    1.0808 H   0  0  0  0  0  0  0  0  0  0  0  0
    1.7844    2.2410    1.5226 H   0  0  0  0  0  0  0  0  0  0  0  0
    2.4596    4.1376    0.2164 H   0  0  0  0  0  0  0  0  0  0  0  0
    3.9524    3.3035   -0.2397 H   0  0  0  0  0  0  0  0  0  0  0  0
    1.7543    4.1869   -2.1856 H   0  0  0  0  0  0  0  0  0  0  0  0
    3.2472    3.3545   -2.6411 H   0  0  0  0  0  0  0  0  0  0  0  0
    3.3178    4.9878   -1.9600 H   0  0  0  0  0  0  0  0  0  0  0  0
  1  2  1  0
  1  7  1  0
  1  8  1  0
  1  9  1  0
  2  3  1  0
  2 10  1  0
  2 11  1  0
  3  4  1  0
  3 12  1  0
  3 13  1  0
  4  5  1  0
  5  6  1  0
  5 14  1  0
  5 15  1  0
  6 16  1  0
  6 17  1  0
  6 18  1  0
M  END
>  <reaction>  (3) 
rmg_rxn_15611

>  <mol_properties>  (3) 
{"0": {"label": "a_hydrogen", "atom_type": "H0"}, "1": {"label": "acceptor", "atom_type": "Cs"}}

>  <type>  (3) 
r2h

$$$$

     RDKit          3D

 26 24  0  0  0  0  0  0  0  0999 V2000
    1.2544   -0.9812    1.1608 C   0  0  0  0  0  0  0  0  0  0  0  0
    2.3920   -0.5950    0.4585 O   0  0  0  0  0  0  0  0  0  0  0  0
    2.1003    0.4285   -0.4131 N   0  0  0  0  0  0  0  0  0  0  0  0
    3.1103    0.7734   -1.0904 C   0  0  0  0  0  0  0  0  0  0  0  0
    0.4470   -1.6168    0.3337 H   0  0  0  0  0  0  0  0  0  0  0  0
    0.6685   -0.1413    1.5307 H   0  0  0  0  0  0  0  0  0  0  0  0
    1.5600   -1.6898    1.9259 H   0  0  0  0  0  0  0  0  0  0  0  0
    2.9662    1.5799   -1.7967 H   0  0  0  0  0  0  0  0  0  0  0  0
    4.0813    0.2961   -0.9798 H   0  0  0  0  0  0  0  0  0  0  0  0
   -0.3875   -2.1483   -0.6242 C   0  0  0  0  0  3  0  0  0  0  0  0
   -1.7825   -1.7742   -0.1958 C   0  0  0  0  0  0  0  0  0  0  0  0
   -1.9162   -0.4479    0.2612 O   0  0  0  0  0  0  0  0  0  0  0  0
   -1.6747    0.5351   -0.7196 C   0  0  0  0  0  0  0  0  0  0  0  0
   -1.9841    1.8986   -0.1354 C   0  0  0  0  0  0  0  0  0  0  0  0
   -1.0814    2.2595    1.0375 C   0  0  0  0  0  0  0  0  0  0  0  0
   -0.1924   -3.2185   -0.6117 H   0  0  0  0  0  0  0  0  0  0  0  0
   -0.0296   -1.6813   -1.5391 H   0  0  0  0  0  0  0  0  0  0  0  0
   -2.0979   -2.4015    0.6395 H   0  0  0  0  0  0  0  0  0  0  0  0
   -2.4920   -1.9490   -1.0225 H   0  0  0  0  0  0  0  0  0  0  0  0
   -0.6259    0.5068   -1.0424 H   0  0  0  0  0  0  0  0  0  0  0  0
   -2.3076    0.3434   -1.5990 H   0  0  0  0  0  0  0  0  0  0  0  0
   -3.0324    1.9219    0.1738 H   0  0  0  0  0  0  0  0  0  0  0  0
   -1.8706    2.6370   -0.9342 H   0  0  0  0  0  0  0  0  0  0  0  0
   -1.2996    3.2622    1.4083 H   0  0  0  0  0  0  0  0  0  0  0  0
   -0.0307    2.2260    0.7397 H   0  0  0  0  0  0  0  0  0  0  0  0
   -1.2211    1.5576    1.8605 H   0  0  0  0  0  0  0  0  0  0  0  0
  1  2  1  0
  1  5  1  0
  1  6  1  0
  1  7  1  0
  2  3  1  0
  3  4  2  3
  4  8  1  0
  4  9  1  0
 10 11  1  0
 10 16  1  0
 10 17  1  0
 11 12  1  0
 11 18  1  0
 11 19  1  0
 12 13  1  0
 13 14  1  0
 13 20  1  0
 13 21  1  0
 14 15  1  0
 14 22  1  0
 14 23  1  0
 15 24  1  0
 15 25  1  0
 15 26  1  0
M  RAD  1  10   2
M  END
>  <reaction>  (4) 
rmg_rxn_15611

>  <mol_properties>  (4) 
{"0": {"label": "*1", "atom_type": "Cs"}, "1": {"label": "*0", "atom_type": "O2s"}, "4": {"label": "*2", "atom_type": "H0"}, "9": {"label": "*3", "atom_type": "Cs"}, "10": {"label": "*4", "atom_type": "Cs"}}

>  <type>  (4) 
ts

$$$$

     RDKit          3D

 26 24  0  0  0  0  0  0  0  0999 V2000
   -2.1098   -0.3084   -1.1165 C   0  0  0  0  0  3  0  0  0  0  0  0
   -3.0665    0.4576   -0.4809 O   0  0  0  0  0  0  0  0  0  0  0  0
   -2.7284    1.4353    0.3913 N   0  0  0  0  0  0  0  0  0  0  0  0
   -1.5398    1.6050    0.7866 C   0  0  0  0  0  0  0  0  0  0  0  0
   -1.5830   -1.2177   -0.2677 H   0  0  0  0  0  0  0  0  0  0  0  0
   -1.2460    0.2479   -1.4767 H   0  0  0  0  0  0  0  0  0  0  0  0
   -2.6158   -0.8782   -1.8877 H   0  0  0  0  0  0  0  0  0  0  0  0
   -1.3989    2.4232    1.4720 H   0  0  0  0  0  0  0  0  0  0  0  0
   -0.6739    1.0050    0.5248 H   0  0  0  0  0  0  0  0  0  0  0  0
   -0.9964   -2.0487    0.5386 C   0  0  0  0  0  0  0  0  0  0  0  0
    0.4661   -2.0093    0.1851 C   0  0  0  0  0  0  0  0  0  0  0  0
    0.9065   -0.6677    0.2119 O   0  0  0  0  0  0  0  0  0  0  0  0
    2.2773   -0.5150   -0.0722 C   0  0  0  0  0  0  0  0  0  0  0  0
    2.6248    0.9687   -0.0279 C   0  0  0  0  0  0  0  0  0  0  0  0
    4.1018    1.2080   -0.3086 C   0  0  0  0  0  0  0  0  0  0  0  0
   -1.4387   -3.0228    0.3728 H   0  0  0  0  0  0  0  0  0  0  0  0
   -1.1927   -1.6799    1.5385 H   0  0  0  0  0  0  0  0  0  0  0  0
    0.6335   -2.4342   -0.8186 H   0  0  0  0  0  0  0  0  0  0  0  0
    1.0623   -2.6057    0.9007 H   0  0  0  0  0  0  0  0  0  0  0  0
    2.8784   -1.0690    0.6668 H   0  0  0  0  0  0  0  0  0  0  0  0
    2.5028   -0.9309   -1.0680 H   0  0  0  0  0  0  0  0  0  0  0  0
    2.3619    1.3561    0.9577 H   0  0  0  0  0  0  0  0  0  0  0  0
    2.0144    1.4923   -0.7658 H   0  0  0  0  0  0  0  0  0  0  0  0
    4.3705    0.8314   -1.2931 H   0  0  0  0  0  0  0  0  0  0  0  0
    4.7186    0.7029    0.4314 H   0  0  0  0  0  0  0  0  0  0  0  0
    4.3245    2.2712   -0.2742 H   0  0  0  0  0  0  0  0  0  0  0  0
  1  2  1  0
  1  6  1  0
  1  7  1  0
  2  3  1  0
  3  4  2  3
  4  8  1  0
  4  9  1  0
  5 10  1  0
 10 11  1  0
 10 16  1  0
 10 17  1  0
 11 12  1  0
 11 18  1  0
 11 19  1  0
 12 13  1  0
 13 14  1  0
 13 20  1  0
 13 21  1  0
 14 15  1  0
 14 22  1  0
 14 23  1  0
 15 24  1  0
 15 25  1  0
 15 26  1  0
M  RAD  1   1   2
M  END
>  <reaction>  (5) 
rmg_rxn_15611

>  <mol_properties>  (5) 
{"0": {"label": "*1", "atom_type": "Cs"}, "1": {"label": "*0", "atom_type": "O2s"}, "4": {"label": "*2", "atom_type": "H0"}, "9": {"label": "*3", "atom_type": "Cs"}, "10": {"label": "*4", "atom_type": "Cs"}}

>  <type>  (5) 
unop_1

>  <geom_source>  (5) 
crest_best.xyz

$$$$

     RDKit          3D

 26 24  0  0  0  0  0  0  0  0999 V2000
   -2.3112    0.8460   -1.2043 C   0  0  0  0  0  3  0  0  0  0  0  0
   -2.3112    0.9039   -2.6172 O   0  0  0  0  0  0  0  0  0  0  0  0
   -2.3112   -0.3700   -3.1330 N   0  0  0  0  0  0  0  0  0  0  0  0
   -2.3112   -0.3700   -4.3966 C   0  0  0  0  0  0  0  0  0  0  0  0
   -1.2406    0.2338   -0.7602 H   0  0  0  0  0  0  0  0  0  0  0  0
   -3.2033    0.3358   -0.8342 H   0  0  0  0  0  0  0  0  0  0  0  0
   -2.3112    1.8809   -0.8665 H   0  0  0  0  0  0  0  0  0  0  0  0
   -2.3112   -1.3370   -4.8814 H   0  0  0  0  0  0  0  0  0  0  0  0
   -2.3112    0.5465   -4.9827 H   0  0  0  0  0  0  0  0  0  0  0  0
   -0.1711   -0.3777   -0.3166 C   0  0  0  0  0  0  0  0  0  0  0  0
    0.6300    0.5462    0.5711 C   0  0  0  0  0  0  0  0  0  0  0  0
    1.1316   -0.1876    1.6590 O   0  0  0  0  0  0  0  0  0  0  0  0
    1.8962    0.5875    2.5477 C   0  0  0  0  0  0  0  0  0  0  0  0
    2.4225   -0.2966    3.6598 C   0  0  0  0  0  0  0  0  0  0  0  0
    3.3676   -1.3831    3.1643 C   0  0  0  0  0  0  0  0  0  0  0  0
    0.4560   -1.1882   -0.6895 H   0  0  0  0  0  0  0  0  0  0  0  0
   -1.0032   -0.8135    0.2375 H   0  0  0  0  0  0  0  0  0  0  0  0
    0.0004    1.3722    0.9341 H   0  0  0  0  0  0  0  0  0  0  0  0
    1.4608    0.9961    0.0077 H   0  0  0  0  0  0  0  0  0  0  0  0
    2.7347    1.0571    2.0093 H   0  0  0  0  0  0  0  0  0  0  0  0
    1.2801    1.3979    2.9641 H   0  0  0  0  0  0  0  0  0  0  0  0
    1.5716   -0.7468    4.1775 H   0  0  0  0  0  0  0  0  0  0  0  0
    2.9323    0.3435    4.3852 H   0  0  0  0  0  0  0  0  0  0  0  0
    4.2360   -0.9461    2.6650 H   0  0  0  0  0  0  0  0  0  0  0  0
    2.8648   -2.0364    2.4512 H   0  0  0  0  0  0  0  0  0  0  0  0
    3.7301   -1.9953    3.9914 H   0  0  0  0  0  0  0  0  0  0  0  0
  1  2  1  0
  1  6  1  0
  1  7  1  0
  2  3  1  0
  3  4  2  3
  4  8  1  0
  4  9  1  0
  5 10  1  0
 10 11  1  0
 10 16  1  0
 10 17  1  0
 11 12  1  0
 11 18  1  0
 11 19  1  0
 12 13  1  0
 13 14  1  0
 13 20  1  0
 13 21  1  0
 14 15  1  0
 14 22  1  0
 14 23  1  0
 15 24  1  0
 15 25  1  0
 15 26  1  0
M  RAD  1   1   2
M  END
>  <reaction>  (6) 
rmg_rxn_15611

>  <mol_properties>  (6) 
{"0": {"label": "*1", "atom_type": "Cs"}, "1": {"label": "*0", "atom_type": "O2s"}, "4": {"label": "*2", "atom_type": "H0"}, "9": {"label": "*3", "atom_type": "Cs"}, "10": {"label": "*4", "atom_type": "Cs"}}

>  <type>  (6) 
unop_2

>  <geom_source>  (6) 
Heuristics

$$$$

     RDKit          3D

 26 24  0  0  0  0  0  0  0  0999 V2000
    1.2850   -1.8092   -0.5896 C   0  0  0  0  0  3  0  0  0  0  0  0
    2.4534   -1.2295   -0.2997 O   0  0  0  0  0  0  0  0  0  0  0  0
    2.3676   -0.0278    0.3581 N   0  0  0  0  0  0  0  0  0  0  0  0
    3.4819    0.5213    0.6447 C   0  0  0  0  0  0  0  0  0  0  0  0
   -2.8202   -2.4210    0.6370 H   0  0  0  0  0  0  0  0  0  0  0  0
    0.3555   -1.3593   -0.2984 H   0  0  0  0  0  0  0  0  0  0  0  0
    1.3831   -2.7433   -1.1027 H   0  0  0  0  0  0  0  0  0  0  0  0
    3.4313    1.4636    1.1579 H   0  0  0  0  0  0  0  0  0  0  0  0
    4.4503    0.0966    0.4033 H   0  0  0  0  0  0  0  0  0  0  0  0
   -3.2202   -1.7040   -0.0814 C   0  0  0  0  0  0  0  0  0  0  0  0
   -2.8239   -0.2793    0.2425 C   0  0  0  0  0  0  0  0  0  0  0  0
   -1.4231   -0.2330    0.3986 O   0  0  0  0  0  0  0  0  0  0  0  0
   -0.9094    0.9862    0.8891 C   0  0  0  0  0  0  0  0  0  0  0  0
   -0.9385    2.1360   -0.1230 C   0  0  0  0  0  0  0  0  0  0  0  0
   -0.1461    1.7875   -1.3766 C   0  0  0  0  0  0  0  0  0  0  0  0
   -4.2883   -1.8173   -0.2062 H   0  0  0  0  0  0  0  0  0  0  0  0
   -2.6731   -2.1069   -0.9057 H   0  0  0  0  0  0  0  0  0  0  0  0
   -3.3135    0.0510    1.1729 H   0  0  0  0  0  0  0  0  0  0  0  0
   -3.1502    0.3882   -0.5688 H   0  0  0  0  0  0  0  0  0  0  0  0
   -1.4550    1.2795    1.7997 H   0  0  0  0  0  0  0  0  0  0  0  0
    0.1303    0.7655    1.1476 H   0  0  0  0  0  0  0  0  0  0  0  0
   -0.5082    3.0154    0.3595 H   0  0  0  0  0  0  0  0  0  0  0  0
   -1.9709    2.3746   -0.3886 H   0  0  0  0  0  0  0  0  0  0  0  0
   -0.5672    0.9053   -1.8527 H   0  0  0  0  0  0  0  0  0  0  0  0
    0.8871    1.5732   -1.1145 H   0  0  0  0  0  0  0  0  0  0  0  0
   -0.1674    2.6107   -2.0871 H   0  0  0  0  0  0  0  0  0  0  0  0
  1  2  1  0
  1  6  1  0
  1  7  1  0
  2  3  1  0
  3  4  2  3
  4  8  1  0
  4  9  1  0
  5 10  1  0
 10 11  1  0
 10 16  1  0
 10 17  1  0
 11 12  1  0
 11 18  1  0
 11 19  1  0
 12 13  1  0
 13 14  1  0
 13 20  1  0
 13 21  1  0
 14 15  1  0
 14 22  1  0
 14 23  1  0
 15 24  1  0
 15 25  1  0
 15 26  1  0
M  RAD  1   1   2
M  END
>  <reaction>  (7) 
rmg_rxn_15611

>  <mol_properties>  (7) 
{"0": {"label": "*1", "atom_type": "Cs"}, "1": {"label": "*0", "atom_type": "O2s"}, "4": {"label": "*2", "atom_type": "H0"}, "9": {"label": "*3", "atom_type": "Cs"}, "10": {"label": "*4", "atom_type": "Cs"}}

>  <type>  (7) 
unop_3

>  <geom_source>  (7) 
Heuristics

$$$$

     RDKit          3D

 26 24  0  0  0  0  0  0  0  0999 V2000
   -1.5041    0.0808   -1.7664 C   0  0  0  0  0  3  0  0  0  0  0  0
   -2.3375    0.4245   -0.7800 O   0  0  0  0  0  0  0  0  0  0  0  0
   -1.8898    0.1561    0.4900 N   0  0  0  0  0  0  0  0  0  0  0  0
   -2.6795    0.4940    1.4319 C   0  0  0  0  0  0  0  0  0  0  0  0
    0.0876   -1.8936    1.6178 H   0  0  0  0  0  0  0  0  0  0  0  0
   -0.5425   -0.3487   -1.5582 H   0  0  0  0  0  0  0  0  0  0  0  0
   -1.8753    0.3048   -2.7447 H   0  0  0  0  0  0  0  0  0  0  0  0
   -2.3466    0.2888    2.4325 H   0  0  0  0  0  0  0  0  0  0  0  0
   -3.6454    0.9625    1.2781 H   0  0  0  0  0  0  0  0  0  0  0  0
    0.2708   -2.5337    0.7529 C   0  0  0  0  0  0  0  0  0  0  0  0
    1.5018   -2.1408   -0.0484 C   0  0  0  0  0  0  0  0  0  0  0  0
    1.4545   -0.8436   -0.5950 O   0  0  0  0  0  0  0  0  0  0  0  0
    1.5346    0.2048    0.3523 C   0  0  0  0  0  0  0  0  0  0  0  0
    1.7842    1.5127   -0.3918 C   0  0  0  0  0  0  0  0  0  0  0  0
    1.8391    2.6951    0.5659 C   0  0  0  0  0  0  0  0  0  0  0  0
   -0.6478   -2.2782    0.2705 H   0  0  0  0  0  0  0  0  0  0  0  0
    0.2988   -3.5761    1.0407 H   0  0  0  0  0  0  0  0  0  0  0  0
    1.6026   -2.8020   -0.9141 H   0  0  0  0  0  0  0  0  0  0  0  0
    2.4002   -2.2483    0.5805 H   0  0  0  0  0  0  0  0  0  0  0  0
    0.5977    0.2792    0.9216 H   0  0  0  0  0  0  0  0  0  0  0  0
    2.3576    0.0064    1.0565 H   0  0  0  0  0  0  0  0  0  0  0  0
    0.9811    1.6568   -1.1162 H   0  0  0  0  0  0  0  0  0  0  0  0
    2.7208    1.4310   -0.9457 H   0  0  0  0  0  0  0  0  0  0  0  0
    0.9002    2.7889    1.1072 H   0  0  0  0  0  0  0  0  0  0  0  0
    2.0153    3.6178    0.0189 H   0  0  0  0  0  0  0  0  0  0  0  0
    2.6406    2.5658    1.2900 H   0  0  0  0  0  0  0  0  0  0  0  0
  1  2  1  0
  1  6  1  0
  1  7  1  0
  2  3  1  0
  3  4  2  3
  4  8  1  0
  4  9  1  0
  5 10  1  0
 10 11  1  0
 10 16  1  0
 10 17  1  0
 11 12  1  0
 11 18  1  0
 11 19  1  0
 12 13  1  0
 13 14  1  0
 13 20  1  0
 13 21  1  0
 14 15  1  0
 14 22  1  0
 14 23  1  0
 15 24  1  0
 15 25  1  0
 15 26  1  0
M  RAD  1   1   2
M  END
>  <reaction>  (8) 
rmg_rxn_15611

>  <mol_properties>  (8) 
{"0": {"label": "*1", "atom_type": "Cs"}, "1": {"label": "*0", "atom_type": "O2s"}, "4": {"label": "*2", "atom_type": "H0"}, "9": {"label": "*3", "atom_type": "Cs"}, "10": {"label": "*4", "atom_type": "Cs"}}

>  <type>  (8) 
unop_4

>  <geom_source>  (8) 
Heuristics

$$$$

     RDKit          3D

 26 24  0  0  0  0  0  0  0  0999 V2000
   -2.9292    1.1437    0.3613 C   0  0  0  0  0  3  0  0  0  0  0  0
   -2.9292    1.2016   -1.0516 O   0  0  0  0  0  0  0  0  0  0  0  0
   -2.9292   -0.0723   -1.5673 N   0  0  0  0  0  0  0  0  0  0  0  0
   -2.9292   -0.0723   -2.8309 C   0  0  0  0  0  0  0  0  0  0  0  0
   -1.8586    0.5315    0.8054 H   0  0  0  0  0  0  0  0  0  0  0  0
   -3.8213    0.6335    0.7314 H   0  0  0  0  0  0  0  0  0  0  0  0
   -2.9292    2.1786    0.6991 H   0  0  0  0  0  0  0  0  0  0  0  0
   -2.9292   -1.0394   -3.3157 H   0  0  0  0  0  0  0  0  0  0  0  0
   -2.9292    0.8442   -3.4171 H   0  0  0  0  0  0  0  0  0  0  0  0
   -0.7892   -0.0800    1.2491 C   0  0  0  0  0  0  0  0  0  0  0  0
    0.3661    0.1290    0.2977 C   0  0  0  0  0  0  0  0  0  0  0  0
    1.5668   -0.1598    0.9674 O   0  0  0  0  0  0  0  0  0  0  0  0
    2.7066    0.0048    0.1620 C   0  0  0  0  0  0  0  0  0  0  0  0
    3.9414   -0.3663    0.9575 C   0  0  0  0  0  0  0  0  0  0  0  0
    3.9622   -1.8283    1.3832 C   0  0  0  0  0  0  0  0  0  0  0  0
   -0.8136   -1.1125    1.5996 H   0  0  0  0  0  0  0  0  0  0  0  0
   -0.6941    0.5753    2.1155 H   0  0  0  0  0  0  0  0  0  0  0  0
    0.3805    1.1667   -0.0675 H   0  0  0  0  0  0  0  0  0  0  0  0
    0.2620   -0.5223   -0.5826 H   0  0  0  0  0  0  0  0  0  0  0  0
    2.6281   -0.6323   -0.7332 H   0  0  0  0  0  0  0  0  0  0  0  0
    2.7745    1.0469   -0.1834 H   0  0  0  0  0  0  0  0  0  0  0  0
    3.9956    0.2813    1.8364 H   0  0  0  0  0  0  0  0  0  0  0  0
    4.8174   -0.1407    0.3431 H   0  0  0  0  0  0  0  0  0  0  0  0
    3.9325   -2.4881    0.5124 H   0  0  0  0  0  0  0  0  0  0  0  0
    3.1004   -2.0606    2.0089 H   0  0  0  0  0  0  0  0  0  0  0  0
    4.8664   -2.0600    1.9479 H   0  0  0  0  0  0  0  0  0  0  0  0
  1  2  1  0
  1  6  1  0
  1  7  1  0
  2  3  1  0
  3  4  2  3
  4  8  1  0
  4  9  1  0
  5 10  1  0
 10 11  1  0
 10 16  1  0
 10 17  1  0
 11 12  1  0
 11 18  1  0
 11 19  1  0
 12 13  1  0
 13 14  1  0
 13 20  1  0
 13 21  1  0
 14 15  1  0
 14 22  1  0
 14 23  1  0
 15 24  1  0
 15 25  1  0
 15 26  1  0
M  RAD  1   1   2
M  END
>  <reaction>  (9) 
rmg_rxn_15611

>  <mol_properties>  (9) 
{"0": {"label": "*1", "atom_type": "Cs"}, "1": {"label": "*0", "atom_type": "O2s"}, "4": {"label": "*2", "atom_type": "H0"}, "9": {"label": "*3", "atom_type": "Cs"}, "10": {"label": "*4", "atom_type": "Cs"}}

>  <type>  (9) 
unop_5

>  <geom_source>  (9) 
Heuristics

$$$$

     RDKit          3D

 26 24  0  0  0  0  0  0  0  0999 V2000
   -2.1161   -0.3108    1.1141 C   0  0  0  0  0  3  0  0  0  0  0  0
   -3.0674    0.4596    0.4756 O   0  0  0  0  0  0  0  0  0  0  0  0
   -2.7222    1.4394   -0.3914 N   0  0  0  0  0  0  0  0  0  0  0  0
   -1.5310    1.6078   -0.7794 C   0  0  0  0  0  0  0  0  0  0  0  0
   -1.5864   -1.2187    0.2655 H   0  0  0  0  0  0  0  0  0  0  0  0
   -2.6279   -0.8820    1.8803 H   0  0  0  0  0  0  0  0  0  0  0  0
   -1.2532    0.2424    1.4813 H   0  0  0  0  0  0  0  0  0  0  0  0
   -1.3844    2.4280   -1.4612 H   0  0  0  0  0  0  0  0  0  0  0  0
   -0.6680    1.0050   -0.5148 H   0  0  0  0  0  0  0  0  0  0  0  0
   -0.9978   -2.0483   -0.5406 C   0  0  0  0  0  0  0  0  0  0  0  0
    0.4641   -2.0098   -0.1842 C   0  0  0  0  0  0  0  0  0  0  0  0
    0.9052   -0.6685   -0.2107 O   0  0  0  0  0  0  0  0  0  0  0  0
    2.2755   -0.5161    0.0761 C   0  0  0  0  0  0  0  0  0  0  0  0
    2.6247    0.9670    0.0256 C   0  0  0  0  0  0  0  0  0  0  0  0
    4.1015    1.2059    0.3080 C   0  0  0  0  0  0  0  0  0  0  0  0
   -1.1919   -1.6784   -1.5405 H   0  0  0  0  0  0  0  0  0  0  0  0
   -1.4405   -3.0226   -0.3769 H   0  0  0  0  0  0  0  0  0  0  0  0
    1.0612   -2.6068   -0.8986 H   0  0  0  0  0  0  0  0  0  0  0  0
    0.6292   -2.4345    0.8199 H   0  0  0  0  0  0  0  0  0  0  0  0
    2.4981   -0.9278    1.0742 H   0  0  0  0  0  0  0  0  0  0  0  0
    2.8777   -1.0740   -0.6591 H   0  0  0  0  0  0  0  0  0  0  0  0
    2.0135    1.4947    0.7598 H   0  0  0  0  0  0  0  0  0  0  0  0
    2.3642    1.3500   -0.9624 H   0  0  0  0  0  0  0  0  0  0  0  0
    4.7192    0.6952   -0.4274 H   0  0  0  0  0  0  0  0  0  0  0  0
    4.3675    0.8351    1.2954 H   0  0  0  0  0  0  0  0  0  0  0  0
    4.3258    2.2685    0.2675 H   0  0  0  0  0  0  0  0  0  0  0  0
  1  2  1  0
  1  6  1  0
  1  7  1  0
  2  3  1  0
  3  4  2  3
  4  8  1  0
  4  9  1  0
  5 10  1  0
 10 11  1  0
 10 16  1  0
 10 17  1  0
 11 12  1  0
 11 18  1  0
 11 19  1  0
 12 13  1  0
 13 14  1  0
 13 20  1  0
 13 21  1  0
 14 15  1  0
 14 22  1  0
 14 23  1  0
 15 24  1  0
 15 25  1  0
 15 26  1  0
M  RAD  1   1   2
M  END
>  <reaction>  (10) 
rmg_rxn_15611

>  <mol_properties>  (10) 
{"0": {"label": "*1", "atom_type": "Cs"}, "1": {"label": "*0", "atom_type": "O2s"}, "4": {"label": "*2", "atom_type": "H0"}, "9": {"label": "*3", "atom_type": "Cs"}, "10": {"label": "*4", "atom_type": "Cs"}}

>  <type>  (10) 
unop_6

>  <geom_source>  (10) 
Heuristics

$$$$

     RDKit          3D

 26 24  0  0  0  0  0  0  0  0999 V2000
   -2.1363    1.2384   -1.3009 C   0  0  0  0  0  3  0  0  0  0  0  0
   -2.1364    1.2964   -2.7138 O   0  0  0  0  0  0  0  0  0  0  0  0
   -2.1364    0.0225   -3.2295 N   0  0  0  0  0  0  0  0  0  0  0  0
   -2.1364    0.0225   -4.4931 C   0  0  0  0  0  0  0  0  0  0  0  0
   -1.0658    0.6263   -0.8568 H   0  0  0  0  0  0  0  0  0  0  0  0
   -3.0285    0.7283   -0.9308 H   0  0  0  0  0  0  0  0  0  0  0  0
   -2.1364    2.2733   -0.9631 H   0  0  0  0  0  0  0  0  0  0  0  0
   -2.1364   -0.9446   -4.9780 H   0  0  0  0  0  0  0  0  0  0  0  0
   -2.1364    0.9390   -5.0793 H   0  0  0  0  0  0  0  0  0  0  0  0
    0.0037    0.0148   -0.4131 C   0  0  0  0  0  0  0  0  0  0  0  0
    0.3910    0.5553    0.9438 C   0  0  0  0  0  0  0  0  0  0  0  0
    1.0518   -0.4529    1.6651 O   0  0  0  0  0  0  0  0  0  0  0  0
    1.4556   -0.0456    2.9481 C   0  0  0  0  0  0  0  0  0  0  0  0
    2.1895   -1.1832    3.6281 C   0  0  0  0  0  0  0  0  0  0  0  0
    3.4746   -1.5789    2.9130 C   0  0  0  0  0  0  0  0  0  0  0  0
    0.8894   -0.2998   -0.9662 H   0  0  0  0  0  0  0  0  0  0  0  0
   -0.6591   -0.8448   -0.3071 H   0  0  0  0  0  0  0  0  0  0  0  0
   -0.5018    0.8870    1.4946 H   0  0  0  0  0  0  0  0  0  0  0  0
    1.0481    1.4308    0.8357 H   0  0  0  0  0  0  0  0  0  0  0  0
    2.1119    0.8358    2.8723 H   0  0  0  0  0  0  0  0  0  0  0  0
    0.5778    0.2504    3.5412 H   0  0  0  0  0  0  0  0  0  0  0  0
    1.5161   -2.0418    3.6922 H   0  0  0  0  0  0  0  0  0  0  0  0
    2.4093   -0.8757    4.6543 H   0  0  0  0  0  0  0  0  0  0  0  0
    4.1680   -0.7356    2.8628 H   0  0  0  0  0  0  0  0  0  0  0  0
    3.2652   -1.9016    1.8932 H   0  0  0  0  0  0  0  0  0  0  0  0
    3.9778   -2.3954    3.4329 H   0  0  0  0  0  0  0  0  0  0  0  0
  1  2  1  0
  1  6  1  0
  1  7  1  0
  2  3  1  0
  3  4  2  3
  4  8  1  0
  4  9  1  0
  5 10  1  0
 10 11  1  0
 10 16  1  0
 10 17  1  0
 11 12  1  0
 11 18  1  0
 11 19  1  0
 12 13  1  0
 13 14  1  0
 13 20  1  0
 13 21  1  0
 14 15  1  0
 14 22  1  0
 14 23  1  0
 15 24  1  0
 15 25  1  0
 15 26  1  0
M  RAD  1   1   2
M  END
>  <reaction>  (11) 
rmg_rxn_15611

>  <mol_properties>  (11) 
{"0": {"label": "*1", "atom_type": "Cs"}, "1": {"label": "*0", "atom_type": "O2s"}, "4": {"label": "*2", "atom_type": "H0"}, "9": {"label": "*3", "atom_type": "Cs"}, "10": {"label": "*4", "atom_type": "Cs"}}

>  <type>  (11) 
unop_7

>  <geom_source>  (11) 
Heuristics

$$$$

     RDKit          3D

 26 24  0  0  0  0  0  0  0  0999 V2000
   -1.6325    2.5630   -0.2309 C   0  0  0  0  0  3  0  0  0  0  0  0
   -1.6325    2.6209   -1.6438 O   0  0  0  0  0  0  0  0  0  0  0  0
   -1.6325    1.3470   -2.1595 N   0  0  0  0  0  0  0  0  0  0  0  0
   -1.6325    1.3470   -3.4232 C   0  0  0  0  0  0  0  0  0  0  0  0
   -0.5619    1.9508    0.2132 H   0  0  0  0  0  0  0  0  0  0  0  0
   -2.5246    2.0528    0.1392 H   0  0  0  0  0  0  0  0  0  0  0  0
   -1.6325    3.5979    0.1069 H   0  0  0  0  0  0  0  0  0  0  0  0
   -1.6325    0.3800   -3.9080 H   0  0  0  0  0  0  0  0  0  0  0  0
   -1.6325    2.2635   -4.0093 H   0  0  0  0  0  0  0  0  0  0  0  0
    0.5075    1.3393    0.6568 C   0  0  0  0  0  0  0  0  0  0  0  0
    0.5617   -0.0737    0.1239 C   0  0  0  0  0  0  0  0  0  0  0  0
    1.1894   -0.8961    1.0743 O   0  0  0  0  0  0  0  0  0  0  0  0
    1.2880   -2.2384    0.6700 C   0  0  0  0  0  0  0  0  0  0  0  0
    1.9400   -3.0481    1.7720 C   0  0  0  0  0  0  0  0  0  0  0  0
    1.1226   -3.0780    3.0566 C   0  0  0  0  0  0  0  0  0  0  0  0
   -0.0563    1.3745    1.5897 H   0  0  0  0  0  0  0  0  0  0  0  0
    1.5135    1.7143    0.8485 H   0  0  0  0  0  0  0  0  0  0  0  0
    1.1172   -0.1056   -0.8251 H   0  0  0  0  0  0  0  0  0  0  0  0
   -0.4526   -0.4461   -0.0822 H   0  0  0  0  0  0  0  0  0  0  0  0
    0.2854   -2.6382    0.4499 H   0  0  0  0  0  0  0  0  0  0  0  0
    1.8784   -2.3091   -0.2553 H   0  0  0  0  0  0  0  0  0  0  0  0
    2.9318   -2.6324    1.9679 H   0  0  0  0  0  0  0  0  0  0  0  0
    2.0907   -4.0646    1.3982 H   0  0  0  0  0  0  0  0  0  0  0  0
    0.1359   -3.5139    2.8805 H   0  0  0  0  0  0  0  0  0  0  0  0
    0.9789   -2.0703    3.4463 H   0  0  0  0  0  0  0  0  0  0  0  0
    1.6192   -3.6733    3.8243 H   0  0  0  0  0  0  0  0  0  0  0  0
  1  2  1  0
  1  6  1  0
  1  7  1  0
  2  3  1  0
  3  4  2  3
  4  8  1  0
  4  9  1  0
  5 10  1  0
 10 11  1  0
 10 16  1  0
 10 17  1  0
 11 12  1  0
 11 18  1  0
 11 19  1  0
 12 13  1  0
 13 14  1  0
 13 20  1  0
 13 21  1  0
 14 15  1  0
 14 22  1  0
 14 23  1  0
 15 24  1  0
 15 25  1  0
 15 26  1  0
M  RAD  1   1   2
M  END
>  <reaction>  (12) 
rmg_rxn_15611

>  <mol_properties>  (12) 
{"0": {"label": "*1", "atom_type": "Cs"}, "1": {"label": "*0", "atom_type": "O2s"}, "4": {"label": "*2", "atom_type": "H0"}, "9": {"label": "*3", "atom_type": "Cs"}, "10": {"label": "*4", "atom_type": "Cs"}}

>  <type>  (12) 
unop_8

>  <geom_source>  (12) 
Heuristics

$$$$

     RDKit          3D

 26 24  0  0  0  0  0  0  0  0999 V2000
   -1.5108    0.3705    1.7171 C   0  0  0  0  0  3  0  0  0  0  0  0
   -2.4587    0.4250    0.7761 O   0  0  0  0  0  0  0  0  0  0  0  0
   -2.0693   -0.0067   -0.4680 N   0  0  0  0  0  0  0  0  0  0  0  0
   -2.9654    0.0443   -1.3729 C   0  0  0  0  0  0  0  0  0  0  0  0
   -0.5664   -2.0119   -0.3498 H   0  0  0  0  0  0  0  0  0  0  0  0
   -0.5246    0.0178    1.4828 H   0  0  0  0  0  0  0  0  0  0  0  0
   -1.8333    0.7147    2.6777 H   0  0  0  0  0  0  0  0  0  0  0  0
   -2.6747   -0.2927   -2.3505 H   0  0  0  0  0  0  0  0  0  0  0  0
   -3.9771    0.3994   -1.2091 H   0  0  0  0  0  0  0  0  0  0  0  0
    0.3890   -2.5316   -0.2659 C   0  0  0  0  0  0  0  0  0  0  0  0
    1.5613   -1.5829   -0.3896 C   0  0  0  0  0  0  0  0  0  0  0  0
    1.4200   -0.5726    0.5872 O   0  0  0  0  0  0  0  0  0  0  0  0
    2.4148    0.4228    0.5684 C   0  0  0  0  0  0  0  0  0  0  0  0
    2.2979    1.4131   -0.5963 C   0  0  0  0  0  0  0  0  0  0  0  0
    0.9222    2.0669   -0.6393 C   0  0  0  0  0  0  0  0  0  0  0  0
    0.4568   -3.3615   -0.9554 H   0  0  0  0  0  0  0  0  0  0  0  0
    0.2202   -2.8532    0.7385 H   0  0  0  0  0  0  0  0  0  0  0  0
    1.5781   -1.1504   -1.3991 H   0  0  0  0  0  0  0  0  0  0  0  0
    2.5123   -2.1183   -0.2308 H   0  0  0  0  0  0  0  0  0  0  0  0
    2.2879    0.9593    1.5135 H   0  0  0  0  0  0  0  0  0  0  0  0
    3.4133   -0.0422    0.5601 H   0  0  0  0  0  0  0  0  0  0  0  0
    2.4892    0.8989   -1.5402 H   0  0  0  0  0  0  0  0  0  0  0  0
    3.0740    2.1705   -0.4694 H   0  0  0  0  0  0  0  0  0  0  0  0
    0.7337    2.6134    0.2822 H   0  0  0  0  0  0  0  0  0  0  0  0
    0.1504    1.3094   -0.7537 H   0  0  0  0  0  0  0  0  0  0  0  0
    0.8558    2.7605   -1.4743 H   0  0  0  0  0  0  0  0  0  0  0  0
  1  2  1  0
  1  6  1  0
  1  7  1  0
  2  3  1  0
  3  4  2  3
  4  8  1  0
  4  9  1  0
  5 10  1  0
 10 11  1  0
 10 16  1  0
 10 17  1  0
 11 12  1  0
 11 18  1  0
 11 19  1  0
 12 13  1  0
 13 14  1  0
 13 20  1  0
 13 21  1  0
 14 15  1  0
 14 22  1  0
 14 23  1  0
 15 24  1  0
 15 25  1  0
 15 26  1  0
M  RAD  1   1   2
M  END
>  <reaction>  (13) 
rmg_rxn_15611

>  <mol_properties>  (13) 
{"0": {"label": "*1", "atom_type": "Cs"}, "1": {"label": "*0", "atom_type": "O2s"}, "4": {"label": "*2", "atom_type": "H0"}, "9": {"label": "*3", "atom_type": "Cs"}, "10": {"label": "*4", "atom_type": "Cs"}}

>  <type>  (13) 
unop_9

>  <geom_source>  (13) 
Heuristics

$$$$

     RDKit          3D

 26 24  0  0  0  0  0  0  0  0999 V2000
   -2.1444    1.3374   -1.2726 C   0  0  0  0  0  3  0  0  0  0  0  0
   -2.1444    1.3954   -2.6855 O   0  0  0  0  0  0  0  0  0  0  0  0
   -2.1444    0.1215   -3.2012 N   0  0  0  0  0  0  0  0  0  0  0  0
   -2.1444    0.1215   -4.4648 C   0  0  0  0  0  0  0  0  0  0  0  0
   -1.0738    0.7253   -0.8285 H   0  0  0  0  0  0  0  0  0  0  0  0
   -3.0365    0.8272   -0.9025 H   0  0  0  0  0  0  0  0  0  0  0  0
   -2.1444    2.3723   -0.9348 H   0  0  0  0  0  0  0  0  0  0  0  0
   -2.1444   -0.8456   -4.9497 H   0  0  0  0  0  0  0  0  0  0  0  0
   -2.1444    1.0380   -5.0510 H   0  0  0  0  0  0  0  0  0  0  0  0
   -0.0044    0.1138   -0.3848 C   0  0  0  0  0  0  0  0  0  0  0  0
   -0.0201    0.0606    1.1253 C   0  0  0  0  0  0  0  0  0  0  0  0
    1.1367   -0.6004    1.5708 O   0  0  0  0  0  0  0  0  0  0  0  0
    1.2161   -0.7007    2.9703 C   0  0  0  0  0  0  0  0  0  0  0  0
    2.5102   -1.3900    3.3516 C   0  0  0  0  0  0  0  0  0  0  0  0
    3.7496   -0.6080    2.9374 C   0  0  0  0  0  0  0  0  0  0  0  0
    0.8752    0.6524   -0.7391 H   0  0  0  0  0  0  0  0  0  0  0  0
    0.0177   -0.8934   -0.8024 H   0  0  0  0  0  0  0  0  0  0  0  0
   -0.9158   -0.4693    1.4820 H   0  0  0  0  0  0  0  0  0  0  0  0
   -0.0564    1.0766    1.5454 H   0  0  0  0  0  0  0  0  0  0  0  0
    1.1758    0.3036    3.4209 H   0  0  0  0  0  0  0  0  0  0  0  0
    0.3549   -1.2665    3.3552 H   0  0  0  0  0  0  0  0  0  0  0  0
    2.5226   -2.3827    2.8942 H   0  0  0  0  0  0  0  0  0  0  0  0
    2.5046   -1.5402    4.4348 H   0  0  0  0  0  0  0  0  0  0  0  0
    3.7625    0.3789    3.4068 H   0  0  0  0  0  0  0  0  0  0  0  0
    3.7729   -0.4653    1.8571 H   0  0  0  0  0  0  0  0  0  0  0  0
    4.6605   -1.1308    3.2324 H   0  0  0  0  0  0  0  0  0  0  0  0
  1  2  1  0
  1  6  1  0
  1  7  1  0
  2  3  1  0
  3  4  2  3
  4  8  1  0
  4  9  1  0
  5 10  1  0
 10 11  1  0
 10 16  1  0
 10 17  1  0
 11 12  1  0
 11 18  1  0
 11 19  1  0
 12 13  1  0
 13 14  1  0
 13 20  1  0
 13 21  1  0
 14 15  1  0
 14 22  1  0
 14 23  1  0
 15 24  1  0
 15 25  1  0
 15 26  1  0
M  RAD  1   1   2
M  END
>  <reaction>  (14) 
rmg_rxn_15611

>  <mol_properties>  (14) 
{"0": {"label": "*1", "atom_type": "Cs"}, "1": {"label": "*0", "atom_type": "O2s"}, "4": {"label": "*2", "atom_type": "H0"}, "9": {"label": "*3", "atom_type": "Cs"}, "10": {"label": "*4", "atom_type": "Cs"}}

>  <type>  (14) 
unop_10

>  <geom_source>  (14) 
Heuristics

$$$$

     RDKit          3D

 26 24  0  0  0  0  0  0  0  0999 V2000
    1.2660   -1.1548    1.1137 C   0  0  0  0  0  3  0  0  0  0  0  0
    2.3045   -0.6315    0.3709 O   0  0  0  0  0  0  0  0  0  0  0  0
    2.0047    0.5979   -0.1780 N   0  0  0  0  0  0  0  0  0  0  0  0
    2.8932    1.1038   -0.9215 C   0  0  0  0  0  0  0  0  0  0  0  0
    0.3994   -1.7692    0.2774 H   0  0  0  0  0  0  0  0  0  0  0  0
    0.6514   -0.4067    1.6051 H   0  0  0  0  0  0  0  0  0  0  0  0
    1.6632   -1.9243    1.7652 H   0  0  0  0  0  0  0  0  0  0  0  0
    2.6696    2.0648   -1.3491 H   0  0  0  0  0  0  0  0  0  0  0  0
    3.8469    0.6345   -1.1419 H   0  0  0  0  0  0  0  0  0  0  0  0
   -0.4551   -2.2644   -0.5614 C   0  0  0  0  0  0  0  0  0  0  0  0
   -1.8209   -1.7780   -0.1273 C   0  0  0  0  0  0  0  0  0  0  0  0
   -1.8650   -0.4278    0.2708 O   0  0  0  0  0  0  0  0  0  0  0  0
   -1.5669    0.5030   -0.7507 C   0  0  0  0  0  0  0  0  0  0  0  0
   -1.8532    1.9089   -0.2329 C   0  0  0  0  0  0  0  0  0  0  0  0
   -0.9313    2.2735    0.9237 C   0  0  0  0  0  0  0  0  0  0  0  0
   -0.3658   -3.3422   -0.5039 H   0  0  0  0  0  0  0  0  0  0  0  0
   -0.1542   -1.8993   -1.5375 H   0  0  0  0  0  0  0  0  0  0  0  0
   -2.1539   -2.3324    0.7544 H   0  0  0  0  0  0  0  0  0  0  0  0
   -2.5526   -1.9459   -0.9407 H   0  0  0  0  0  0  0  0  0  0  0  0
   -0.5093    0.4339   -1.0400 H   0  0  0  0  0  0  0  0  0  0  0  0
   -2.1876    0.2913   -1.6366 H   0  0  0  0  0  0  0  0  0  0  0  0
   -2.8928    1.9579    0.0951 H   0  0  0  0  0  0  0  0  0  0  0  0
   -1.7176    2.6118   -1.0572 H   0  0  0  0  0  0  0  0  0  0  0  0
   -1.1202    3.2918    1.2558 H   0  0  0  0  0  0  0  0  0  0  0  0
    0.1087    2.1873    0.6169 H   0  0  0  0  0  0  0  0  0  0  0  0
   -1.1074    1.5975    1.7558 H   0  0  0  0  0  0  0  0  0  0  0  0
  1  2  1  0
  1  6  1  0
  1  7  1  0
  2  3  1  0
  3  4  2  3
  4  8  1  0
  4  9  1  0
  5 10  1  0
 10 11  1  0
 10 16  1  0
 10 17  1  0
 11 12  1  0
 11 18  1  0
 11 19  1  0
 12 13  1  0
 13 14  1  0
 13 20  1  0
 13 21  1  0
 14 15  1  0
 14 22  1  0
 14 23  1  0
 15 24  1  0
 15 25  1  0
 15 26  1  0
M  RAD  1   1   2
M  END
>  <reaction>  (15) 
rmg_rxn_15611

>  <mol_properties>  (15) 
{"0": {"label": "*1", "atom_type": "Cs"}, "1": {"label": "*0", "atom_type": "O2s"}, "4": {"label": "*2", "atom_type": "H0"}, "9": {"label": "*3", "atom_type": "Cs"}, "10": {"label": "*4", "atom_type": "Cs"}}

>  <type>  (15) 
unop_11

>  <geom_source>  (15) 
Heuristics

$$$$

     RDKit          3D

 26 24  0  0  0  0  0  0  0  0999 V2000
   -1.4138    2.3155   -0.8647 C   0  0  0  0  0  3  0  0  0  0  0  0
   -1.4138    2.3735   -2.2775 O   0  0  0  0  0  0  0  0  0  0  0  0
   -1.4138    1.0996   -2.7933 N   0  0  0  0  0  0  0  0  0  0  0  0
   -1.4138    1.0996   -4.0569 C   0  0  0  0  0  0  0  0  0  0  0  0
   -0.3432    1.7034   -0.4205 H   0  0  0  0  0  0  0  0  0  0  0  0
   -2.3059    1.8053   -0.4945 H   0  0  0  0  0  0  0  0  0  0  0  0
   -1.4138    3.3504   -0.5268 H   0  0  0  0  0  0  0  0  0  0  0  0
   -1.4138    0.1325   -4.5417 H   0  0  0  0  0  0  0  0  0  0  0  0
   -1.4138    2.0161   -4.6430 H   0  0  0  0  0  0  0  0  0  0  0  0
    0.7262    1.0919    0.0231 C   0  0  0  0  0  0  0  0  0  0  0  0
    0.4666   -0.3914    0.1498 C   0  0  0  0  0  0  0  0  0  0  0  0
    1.0889   -0.8657    1.3165 O   0  0  0  0  0  0  0  0  0  0  0  0
    0.9038   -2.2430    1.5253 C   0  0  0  0  0  0  0  0  0  0  0  0
    1.5751   -2.6490    2.8213 C   0  0  0  0  0  0  0  0  0  0  0  0
    0.9695   -1.9756    4.0457 C   0  0  0  0  0  0  0  0  0  0  0  0
    0.3248    1.6251    0.8856 H   0  0  0  0  0  0  0  0  0  0  0  0
    1.7973    1.2887   -0.0352 H   0  0  0  0  0  0  0  0  0  0  0  0
    0.8580   -0.9265   -0.7282 H   0  0  0  0  0  0  0  0  0  0  0  0
   -0.6144   -0.5902    0.1944 H   0  0  0  0  0  0  0  0  0  0  0  0
   -0.1723   -2.4742    1.5685 H   0  0  0  0  0  0  0  0  0  0  0  0
    1.3265   -2.8102    0.6830 H   0  0  0  0  0  0  0  0  0  0  0  0
    2.6396   -2.4112    2.7503 H   0  0  0  0  0  0  0  0  0  0  0  0
    1.4987   -3.7360    2.9134 H   0  0  0  0  0  0  0  0  0  0  0  0
   -0.0902   -2.2243    4.1429 H   0  0  0  0  0  0  0  0  0  0  0  0
    1.0537   -0.8915    3.9713 H   0  0  0  0  0  0  0  0  0  0  0  0
    1.4734   -2.2952    4.9591 H   0  0  0  0  0  0  0  0  0  0  0  0
  1  2  1  0
  1  6  1  0
  1  7  1  0
  2  3  1  0
  3  4  2  3
  4  8  1  0
  4  9  1  0
  5 10  1  0
 10 11  1  0
 10 16  1  0
 10 17  1  0
 11 12  1  0
 11 18  1  0
 11 19  1  0
 12 13  1  0
 13 14  1  0
 13 20  1  0
 13 21  1  0
 14 15  1  0
 14 22  1  0
 14 23  1  0
 15 24  1  0
 15 25  1  0
 15 26  1  0
M  RAD  1   1   2
M  END
>  <reaction>  (16) 
rmg_rxn_15611

>  <mol_properties>  (16) 
{"0": {"label": "*1", "atom_type": "Cs"}, "1": {"label": "*0", "atom_type": "O2s"}, "4": {"label": "*2", "atom_type": "H0"}, "9": {"label": "*3", "atom_type": "Cs"}, "10": {"label": "*4", "atom_type": "Cs"}}

>  <type>  (16) 
unop_12

>  <geom_source>  (16) 
Heuristics

$$$$

     RDKit          3D

 26 24  0  0  0  0  0  0  0  0999 V2000
   -2.1109   -0.3095    1.1149 C   0  0  0  0  0  3  0  0  0  0  0  0
   -3.0656    0.4596    0.4799 O   0  0  0  0  0  0  0  0  0  0  0  0
   -2.7249    1.4382   -0.3903 N   0  0  0  0  0  0  0  0  0  0  0  0
   -1.5357    1.6061   -0.7847 C   0  0  0  0  0  0  0  0  0  0  0  0
   -1.5842   -1.2185    0.2656 H   0  0  0  0  0  0  0  0  0  0  0  0
   -2.6189   -0.8799    1.8843 H   0  0  0  0  0  0  0  0  0  0  0  0
   -1.2466    0.2446    1.4774 H   0  0  0  0  0  0  0  0  0  0  0  0
   -1.3927    2.4254   -1.4684 H   0  0  0  0  0  0  0  0  0  0  0  0
   -0.6713    1.0038   -0.5236 H   0  0  0  0  0  0  0  0  0  0  0  0
   -0.9966   -2.0505   -0.5389 C   0  0  0  0  0  0  0  0  0  0  0  0
    0.4654   -2.0108   -0.1834 C   0  0  0  0  0  0  0  0  0  0  0  0
    0.9061   -0.6693   -0.2139 O   0  0  0  0  0  0  0  0  0  0  0  0
    2.2760   -0.5154    0.0745 C   0  0  0  0  0  0  0  0  0  0  0  0
    2.6235    0.9680    0.0230 C   0  0  0  0  0  0  0  0  0  0  0  0
    4.0987    1.2094    0.3114 C   0  0  0  0  0  0  0  0  0  0  0  0
   -1.1915   -1.6835   -1.5397 H   0  0  0  0  0  0  0  0  0  0  0  0
   -1.4393   -3.0242   -0.3719 H   0  0  0  0  0  0  0  0  0  0  0  0
    1.0624   -2.6097   -0.8962 H   0  0  0  0  0  0  0  0  0  0  0  0
    0.6309   -2.4325    0.8220 H   0  0  0  0  0  0  0  0  0  0  0  0
    2.4976   -0.9256    1.0734 H   0  0  0  0  0  0  0  0  0  0  0  0
    2.8797   -1.0737   -0.6592 H   0  0  0  0  0  0  0  0  0  0  0  0
    2.0084    1.4961    0.7537 H   0  0  0  0  0  0  0  0  0  0  0  0
    2.3666    1.3491   -0.9667 H   0  0  0  0  0  0  0  0  0  0  0  0
    4.3608    0.8414    1.3010 H   0  0  0  0  0  0  0  0  0  0  0  0
    4.3216    2.2723    0.2695 H   0  0  0  0  0  0  0  0  0  0  0  0
    4.7205    0.6979   -0.4200 H   0  0  0  0  0  0  0  0  0  0  0  0
  1  2  1  0
  1  6  1  0
  1  7  1  0
  2  3  1  0
  3  4  2  3
  4  8  1  0
  4  9  1  0
  5 10  1  0
 10 11  1  0
 10 16  1  0
 10 17  1  0
 11 12  1  0
 11 18  1  0
 11 19  1  0
 12 13  1  0
 13 14  1  0
 13 20  1  0
 13 21  1  0
 14 15  1  0
 14 22  1  0
 14 23  1  0
 15 24  1  0
 15 25  1  0
 15 26  1  0
M  RAD  1   1   2
M  END
>  <reaction>  (17) 
rmg_rxn_15611

>  <mol_properties>  (17) 
{"0": {"label": "*1", "atom_type": "Cs"}, "1": {"label": "*0", "atom_type": "O2s"}, "4": {"label": "*2", "atom_type": "H0"}, "9": {"label": "*3", "atom_type": "Cs"}, "10": {"label": "*4", "atom_type": "Cs"}}

>  <type>  (17) 
unop_13

>  <geom_source>  (17) 
Heuristics

$$$$

     RDKit          3D

 26 24  0  0  0  0  0  0  0  0999 V2000
   -1.5095    1.8218   -1.3066 C   0  0  0  0  0  3  0  0  0  0  0  0
   -1.5096    1.8797   -2.7195 O   0  0  0  0  0  0  0  0  0  0  0  0
   -1.5096    0.6058   -3.2352 N   0  0  0  0  0  0  0  0  0  0  0  0
   -1.5096    0.6058   -4.4989 C   0  0  0  0  0  0  0  0  0  0  0  0
   -0.4390    1.2096   -0.8625 H   0  0  0  0  0  0  0  0  0  0  0  0
   -2.4017    1.3116   -0.9365 H   0  0  0  0  0  0  0  0  0  0  0  0
   -1.5096    2.8567   -0.9688 H   0  0  0  0  0  0  0  0  0  0  0  0
   -1.5096   -0.3612   -4.9837 H   0  0  0  0  0  0  0  0  0  0  0  0
   -1.5096    1.5223   -5.0850 H   0  0  0  0  0  0  0  0  0  0  0  0
    0.6305    0.5981   -0.4189 C   0  0  0  0  0  0  0  0  0  0  0  0
    0.2412   -0.6235    0.3809 C   0  0  0  0  0  0  0  0  0  0  0  0
    1.0920   -0.7306    1.4937 O   0  0  0  0  0  0  0  0  0  0  0  0
    0.8084   -1.8418    2.3060 C   0  0  0  0  0  0  0  0  0  0  0  0
    1.7486   -1.8482    3.4939 C   0  0  0  0  0  0  0  0  0  0  0  0
    1.5755   -0.6372    4.4010 C   0  0  0  0  0  0  0  0  0  0  0  0
    0.5395    1.4984    0.1899 H   0  0  0  0  0  0  0  0  0  0  0  0
    1.6626    0.5175   -0.7618 H   0  0  0  0  0  0  0  0  0  0  0  0
    0.3182   -1.5293   -0.2387 H   0  0  0  0  0  0  0  0  0  0  0  0
   -0.8042   -0.5476    0.7145 H   0  0  0  0  0  0  0  0  0  0  0  0
   -0.2366   -1.7966    2.6513 H   0  0  0  0  0  0  0  0  0  0  0  0
    0.9211   -2.7692    1.7255 H   0  0  0  0  0  0  0  0  0  0  0  0
    2.7758   -1.8958    3.1234 H   0  0  0  0  0  0  0  0  0  0  0  0
    1.5720   -2.7687    4.0574 H   0  0  0  0  0  0  0  0  0  0  0  0
    0.5584   -0.5902    4.7983 H   0  0  0  0  0  0  0  0  0  0  0  0
    1.7639    0.2858    3.8528 H   0  0  0  0  0  0  0  0  0  0  0  0
    2.2635   -0.6785    5.2466 H   0  0  0  0  0  0  0  0  0  0  0  0
  1  2  1  0
  1  6  1  0
  1  7  1  0
  2  3  1  0
  3  4  2  3
  4  8  1  0
  4  9  1  0
  5 10  1  0
 10 11  1  0
 10 16  1  0
 10 17  1  0
 11 12  1  0
 11 18  1  0
 11 19  1  0
 12 13  1  0
 13 14  1  0
 13 20  1  0
 13 21  1  0
 14 15  1  0
 14 22  1  0
 14 23  1  0
 15 24  1  0
 15 25  1  0
 15 26  1  0
M  RAD  1   1   2
M  END
>  <reaction>  (18) 
rmg_rxn_15611

>  <mol_properties>  (18) 
{"0": {"label": "*1", "atom_type": "Cs"}, "1": {"label": "*0", "atom_type": "O2s"}, "4": {"label": "*2", "atom_type": "H0"}, "9": {"label": "*3", "atom_type": "Cs"}, "10": {"label": "*4", "atom_type": "Cs"}}

>  <type>  (18) 
unop_14

>  <geom_source>  (18) 
Heuristics

$$$$

     RDKit          3D

 26 24  0  0  0  0  0  0  0  0999 V2000
   -1.5007   -0.1675   -1.7682 C   0  0  0  0  0  3  0  0  0  0  0  0
   -2.3302   -0.4916   -0.7720 O   0  0  0  0  0  0  0  0  0  0  0  0
   -1.8976   -0.1556    0.4872 N   0  0  0  0  0  0  0  0  0  0  0  0
   -2.6848   -0.4703    1.4391 C   0  0  0  0  0  0  0  0  0  0  0  0
   -0.7002    2.2317    0.2869 H   0  0  0  0  0  0  0  0  0  0  0  0
   -0.5539    0.2998   -1.5735 H   0  0  0  0  0  0  0  0  0  0  0  0
   -1.8577   -0.4467   -2.7375 H   0  0  0  0  0  0  0  0  0  0  0  0
   -2.3626   -0.2130    2.4312 H   0  0  0  0  0  0  0  0  0  0  0  0
   -3.6377   -0.9698    1.3019 H   0  0  0  0  0  0  0  0  0  0  0  0
    0.2419    2.5381    0.7443 C   0  0  0  0  0  0  0  0  0  0  0  0
    1.4564    2.1619   -0.0895 C   0  0  0  0  0  0  0  0  0  0  0  0
    1.4248    0.8545   -0.6125 O   0  0  0  0  0  0  0  0  0  0  0  0
    1.5422   -0.1746    0.3517 C   0  0  0  0  0  0  0  0  0  0  0  0
    1.8057   -1.4907   -0.3729 C   0  0  0  0  0  0  0  0  0  0  0  0
    1.9163   -2.6516    0.6060 C   0  0  0  0  0  0  0  0  0  0  0  0
    0.1049    1.9310    1.6128 H   0  0  0  0  0  0  0  0  0  0  0  0
    0.2377    3.5913    0.9907 H   0  0  0  0  0  0  0  0  0  0  0  0
    2.3705    2.3018    0.5102 H   0  0  0  0  0  0  0  0  0  0  0  0
    1.5153    2.8097   -0.9689 H   0  0  0  0  0  0  0  0  0  0  0  0
    2.3729    0.0529    1.0379 H   0  0  0  0  0  0  0  0  0  0  0  0
    0.6167   -0.2570    0.9384 H   0  0  0  0  0  0  0  0  0  0  0  0
    2.7253   -1.3963   -0.9526 H   0  0  0  0  0  0  0  0  0  0  0  0
    0.9882   -1.6699   -1.0730 H   0  0  0  0  0  0  0  0  0  0  0  0
    2.1008   -3.5807    0.0727 H   0  0  0  0  0  0  0  0  0  0  0  0
    0.9951   -2.7576    1.1748 H   0  0  0  0  0  0  0  0  0  0  0  0
    2.7337   -2.4881    1.3052 H   0  0  0  0  0  0  0  0  0  0  0  0
  1  2  1  0
  1  6  1  0
  1  7  1  0
  2  3  1  0
  3  4  2  3
  4  8  1  0
  4  9  1  0
  5 10  1  0
 10 11  1  0
 10 16  1  0
 10 17  1  0
 11 12  1  0
 11 18  1  0
 11 19  1  0
 12 13  1  0
 13 14  1  0
 13 20  1  0
 13 21  1  0
 14 15  1  0
 14 22  1  0
 14 23  1  0
 15 24  1  0
 15 25  1  0
 15 26  1  0
M  RAD  1   1   2
M  END
>  <reaction>  (19) 
rmg_rxn_15611

>  <mol_properties>  (19) 
{"0": {"label": "*1", "atom_type": "Cs"}, "1": {"label": "*0", "atom_type": "O2s"}, "4": {"label": "*2", "atom_type": "H0"}, "9": {"label": "*3", "atom_type": "Cs"}, "10": {"label": "*4", "atom_type": "Cs"}}

>  <type>  (19) 
unop_15

>  <geom_source>  (19) 
Heuristics

$$$$

     RDKit          3D

 26 24  0  0  0  0  0  0  0  0999 V2000
   -2.6376    0.5764   -0.7944 C   0  0  0  0  0  3  0  0  0  0  0  0
   -2.6376    0.6343   -2.2072 O   0  0  0  0  0  0  0  0  0  0  0  0
   -2.6376   -0.6395   -2.7230 N   0  0  0  0  0  0  0  0  0  0  0  0
   -2.6376   -0.6395   -3.9866 C   0  0  0  0  0  0  0  0  0  0  0  0
   -1.5670   -0.0358   -0.3502 H   0  0  0  0  0  0  0  0  0  0  0  0
   -3.5297    0.0662   -0.4242 H   0  0  0  0  0  0  0  0  0  0  0  0
   -2.6376    1.6113   -0.4565 H   0  0  0  0  0  0  0  0  0  0  0  0
   -2.6376   -1.6066   -4.4714 H   0  0  0  0  0  0  0  0  0  0  0  0
   -2.6376    0.2769   -4.5727 H   0  0  0  0  0  0  0  0  0  0  0  0
   -0.4976   -0.6473    0.0934 C   0  0  0  0  0  0  0  0  0  0  0  0
    0.6173    0.3469    0.3216 C   0  0  0  0  0  0  0  0  0  0  0  0
    1.3074   -0.0025    1.4943 O   0  0  0  0  0  0  0  0  0  0  0  0
    2.3703    0.8666    1.7942 C   0  0  0  0  0  0  0  0  0  0  0  0
    3.0731    0.3864    3.0475 C   0  0  0  0  0  0  0  0  0  0  0  0
    3.7139   -0.9857    2.8861 C   0  0  0  0  0  0  0  0  0  0  0  0
   -0.0949   -1.6550   -0.0144 H   0  0  0  0  0  0  0  0  0  0  0  0
   -1.1920   -0.6424    0.9343 H   0  0  0  0  0  0  0  0  0  0  0  0
    0.2114    1.3652    0.4144 H   0  0  0  0  0  0  0  0  0  0  0  0
    1.3095    0.3513   -0.5333 H   0  0  0  0  0  0  0  0  0  0  0  0
    3.0791    0.8966    0.9514 H   0  0  0  0  0  0  0  0  0  0  0  0
    1.9901    1.8886    1.9381 H   0  0  0  0  0  0  0  0  0  0  0  0
    2.3492    0.3685    3.8662 H   0  0  0  0  0  0  0  0  0  0  0  0
    3.8325    1.1275    3.3120 H   0  0  0  0  0  0  0  0  0  0  0  0
    4.4580   -0.9765    2.0858 H   0  0  0  0  0  0  0  0  0  0  0  0
    2.9631   -1.7355    2.6367 H   0  0  0  0  0  0  0  0  0  0  0  0
    4.2141   -1.2960    3.8046 H   0  0  0  0  0  0  0  0  0  0  0  0
  1  2  1  0
  1  6  1  0
  1  7  1  0
  2  3  1  0
  3  4  2  3
  4  8  1  0
  4  9  1  0
  5 10  1  0
 10 11  1  0
 10 16  1  0
 10 17  1  0
 11 12  1  0
 11 18  1  0
 11 19  1  0
 12 13  1  0
 13 14  1  0
 13 20  1  0
 13 21  1  0
 14 15  1  0
 14 22  1  0
 14 23  1  0
 15 24  1  0
 15 25  1  0
 15 26  1  0
M  RAD  1   1   2
M  END
>  <reaction>  (20) 
rmg_rxn_15611

>  <mol_properties>  (20) 
{"0": {"label": "*1", "atom_type": "Cs"}, "1": {"label": "*0", "atom_type": "O2s"}, "4": {"label": "*2", "atom_type": "H0"}, "9": {"label": "*3", "atom_type": "Cs"}, "10": {"label": "*4", "atom_type": "Cs"}}

>  <type>  (20) 
unop_16

>  <geom_source>  (20) 
Heuristics

$$$$

     RDKit          3D

 26 24  0  0  0  0  0  0  0  0999 V2000
   -2.1098   -0.3084   -1.1165 C   0  0  0  0  0  3  0  0  0  0  0  0
   -3.0665    0.4576   -0.4809 O   0  0  0  0  0  0  0  0  0  0  0  0
   -2.7284    1.4353    0.3913 N   0  0  0  0  0  0  0  0  0  0  0  0
   -1.5398    1.6050    0.7866 C   0  0  0  0  0  0  0  0  0  0  0  0
   -1.5830   -1.2177   -0.2677 H   0  0  0  0  0  0  0  0  0  0  0  0
   -1.2460    0.2479   -1.4767 H   0  0  0  0  0  0  0  0  0  0  0  0
   -2.6158   -0.8782   -1.8877 H   0  0  0  0  0  0  0  0  0  0  0  0
   -1.3989    2.4232    1.4720 H   0  0  0  0  0  0  0  0  0  0  0  0
   -0.6739    1.0050    0.5248 H   0  0  0  0  0  0  0  0  0  0  0  0
   -0.9964   -2.0487    0.5386 C   0  0  0  0  0  0  0  0  0  0  0  0
    0.4661   -2.0093    0.1851 C   0  0  0  0  0  0  0  0  0  0  0  0
    0.9065   -0.6677    0.2119 O   0  0  0  0  0  0  0  0  0  0  0  0
    2.2773   -0.5150   -0.0722 C   0  0  0  0  0  0  0  0  0  0  0  0
    2.6248    0.9687   -0.0279 C   0  0  0  0  0  0  0  0  0  0  0  0
    4.1018    1.2080   -0.3086 C   0  0  0  0  0  0  0  0  0  0  0  0
   -1.4387   -3.0228    0.3728 H   0  0  0  0  0  0  0  0  0  0  0  0
   -1.1927   -1.6799    1.5385 H   0  0  0  0  0  0  0  0  0  0  0  0
    0.6335   -2.4342   -0.8186 H   0  0  0  0  0  0  0  0  0  0  0  0
    1.0623   -2.6057    0.9007 H   0  0  0  0  0  0  0  0  0  0  0  0
    2.8784   -1.0690    0.6668 H   0  0  0  0  0  0  0  0  0  0  0  0
    2.5028   -0.9309   -1.0680 H   0  0  0  0  0  0  0  0  0  0  0  0
    2.3619    1.3561    0.9577 H   0  0  0  0  0  0  0  0  0  0  0  0
    2.0144    1.4923   -0.7658 H   0  0  0  0  0  0  0  0  0  0  0  0
    4.3705    0.8314   -1.2931 H   0  0  0  0  0  0  0  0  0  0  0  0
    4.7186    0.7029    0.4314 H   0  0  0  0  0  0  0  0  0  0  0  0
    4.3245    2.2712   -0.2742 H   0  0  0  0  0  0  0  0  0  0  0  0
  1  2  1  0
  1  6  1  0
  1  7  1  0
  2  3  1  0
  3  4  2  3
  4  8  1  0
  4  9  1  0
  5 10  1  0
 10 11  1  0
 10 16  1  0
 10 17  1  0
 11 12  1  0
 11 18  1  0
 11 19  1  0
 12 13  1  0
 13 14  1  0
 13 20  1  0
 13 21  1  0
 14 15  1  0
 14 22  1  0
 14 23  1  0
 15 24  1  0
 15 25  1  0
 15 26  1  0
M  RAD  1   1   2
M  END
>  <reaction>  (21) 
rmg_rxn_15611

>  <mol_properties>  (21) 
{"0": {"label": "*1", "atom_type": "Cs"}, "1": {"label": "*0", "atom_type": "O2s"}, "4": {"label": "*2", "atom_type": "H0"}, "9": {"label": "*3", "atom_type": "Cs"}, "10": {"label": "*4", "atom_type": "Cs"}}

>  <type>  (21) 
unop_17

>  <geom_source>  (21) 
Heuristics

$$$$

     RDKit          3D

 26 24  0  0  0  0  0  0  0  0999 V2000
   -2.1028    2.4034    0.3432 C   0  0  0  0  0  3  0  0  0  0  0  0
   -2.1028    2.4613   -1.0697 O   0  0  0  0  0  0  0  0  0  0  0  0
   -2.1028    1.1874   -1.5854 N   0  0  0  0  0  0  0  0  0  0  0  0
   -2.1028    1.1874   -2.8490 C   0  0  0  0  0  0  0  0  0  0  0  0
   -1.0322    1.7912    0.7873 H   0  0  0  0  0  0  0  0  0  0  0  0
   -2.9949    1.8932    0.7133 H   0  0  0  0  0  0  0  0  0  0  0  0
   -2.1028    3.4383    0.6810 H   0  0  0  0  0  0  0  0  0  0  0  0
   -2.1028    0.2204   -3.3338 H   0  0  0  0  0  0  0  0  0  0  0  0
   -2.1028    2.1039   -3.4352 H   0  0  0  0  0  0  0  0  0  0  0  0
    0.0372    1.1797    1.2310 C   0  0  0  0  0  0  0  0  0  0  0  0
    0.5053    0.1501    0.2289 C   0  0  0  0  0  0  0  0  0  0  0  0
    1.3642   -0.7561    0.8729 O   0  0  0  0  0  0  0  0  0  0  0  0
    1.8552   -1.7593    0.0200 C   0  0  0  0  0  0  0  0  0  0  0  0
    2.7356   -2.7046    0.8116 C   0  0  0  0  0  0  0  0  0  0  0  0
    1.9831   -3.4469    1.9079 C   0  0  0  0  0  0  0  0  0  0  0  0
   -0.4979    0.6993    2.0509 H   0  0  0  0  0  0  0  0  0  0  0  0
    0.8870    1.7227    1.6462 H   0  0  0  0  0  0  0  0  0  0  0  0
    1.0313    0.6371   -0.6057 H   0  0  0  0  0  0  0  0  0  0  0  0
   -0.3534   -0.3875   -0.1996 H   0  0  0  0  0  0  0  0  0  0  0  0
    1.0157   -2.3125   -0.4301 H   0  0  0  0  0  0  0  0  0  0  0  0
    2.4264   -1.3055   -0.8031 H   0  0  0  0  0  0  0  0  0  0  0  0
    3.5597   -2.1313    1.2441 H   0  0  0  0  0  0  0  0  0  0  0  0
    3.1791   -3.4173    0.1107 H   0  0  0  0  0  0  0  0  0  0  0  0
    1.1703   -4.0440    1.4870 H   0  0  0  0  0  0  0  0  0  0  0  0
    1.5493   -2.7459    2.6210 H   0  0  0  0  0  0  0  0  0  0  0  0
    2.6463   -4.1209    2.4522 H   0  0  0  0  0  0  0  0  0  0  0  0
  1  2  1  0
  1  6  1  0
  1  7  1  0
  2  3  1  0
  3  4  2  3
  4  8  1  0
  4  9  1  0
  5 10  1  0
 10 11  1  0
 10 16  1  0
 10 17  1  0
 11 12  1  0
 11 18  1  0
 11 19  1  0
 12 13  1  0
 13 14  1  0
 13 20  1  0
 13 21  1  0
 14 15  1  0
 14 22  1  0
 14 23  1  0
 15 24  1  0
 15 25  1  0
 15 26  1  0
M  RAD  1   1   2
M  END
>  <reaction>  (22) 
rmg_rxn_15611

>  <mol_properties>  (22) 
{"0": {"label": "*1", "atom_type": "Cs"}, "1": {"label": "*0", "atom_type": "O2s"}, "4": {"label": "*2", "atom_type": "H0"}, "9": {"label": "*3", "atom_type": "Cs"}, "10": {"label": "*4", "atom_type": "Cs"}}

>  <type>  (22) 
unop_18

>  <geom_source>  (22) 
Heuristics

$$$$

     RDKit          3D

 26 24  0  0  0  0  0  0  0  0999 V2000
   -2.9028    0.6619   -0.1910 C   0  0  0  0  0  3  0  0  0  0  0  0
   -2.9029    0.7198   -1.6038 O   0  0  0  0  0  0  0  0  0  0  0  0
   -2.9029   -0.5541   -2.1196 N   0  0  0  0  0  0  0  0  0  0  0  0
   -2.9029   -0.5541   -3.3832 C   0  0  0  0  0  0  0  0  0  0  0  0
   -1.8323    0.0497    0.2532 H   0  0  0  0  0  0  0  0  0  0  0  0
   -3.7950    0.1517    0.1792 H   0  0  0  0  0  0  0  0  0  0  0  0
   -2.9029    1.6968    0.1468 H   0  0  0  0  0  0  0  0  0  0  0  0
   -2.9029   -1.5212   -3.8680 H   0  0  0  0  0  0  0  0  0  0  0  0
   -2.9029    0.3624   -3.9693 H   0  0  0  0  0  0  0  0  0  0  0  0
   -0.7628   -0.5618    0.6968 C   0  0  0  0  0  0  0  0  0  0  0  0
    0.4817    0.1707    0.2518 C   0  0  0  0  0  0  0  0  0  0  0  0
    1.4777    0.0143    1.2302 O   0  0  0  0  0  0  0  0  0  0  0  0
    2.6820    0.6624    0.9066 C   0  0  0  0  0  0  0  0  0  0  0  0
    3.7002    0.4037    1.9982 C   0  0  0  0  0  0  0  0  0  0  0  0
    4.0654   -1.0679    2.1397 C   0  0  0  0  0  0  0  0  0  0  0  0
   -0.5542   -1.6240    0.8294 H   0  0  0  0  0  0  0  0  0  0  0  0
   -1.1238   -0.1611    1.6447 H   0  0  0  0  0  0  0  0  0  0  0  0
    0.2664    1.2393    0.1031 H   0  0  0  0  0  0  0  0  0  0  0  0
    0.8371   -0.2248   -0.7112 H   0  0  0  0  0  0  0  0  0  0  0  0
    3.0601    0.2904   -0.0588 H   0  0  0  0  0  0  0  0  0  0  0  0
    2.5084    1.7428    0.7954 H   0  0  0  0  0  0  0  0  0  0  0  0
    3.3013    0.7839    2.9422 H   0  0  0  0  0  0  0  0  0  0  0  0
    4.5932    0.9929    1.7714 H   0  0  0  0  0  0  0  0  0  0  0  0
    4.4883   -1.4557    1.2096 H   0  0  0  0  0  0  0  0  0  0  0  0
    3.1845   -1.6629    2.3807 H   0  0  0  0  0  0  0  0  0  0  0  0
    4.8033   -1.2152    2.9297 H   0  0  0  0  0  0  0  0  0  0  0  0
  1  2  1  0
  1  6  1  0
  1  7  1  0
  2  3  1  0
  3  4  2  3
  4  8  1  0
  4  9  1  0
  5 10  1  0
 10 11  1  0
 10 16  1  0
 10 17  1  0
 11 12  1  0
 11 18  1  0
 11 19  1  0
 12 13  1  0
 13 14  1  0
 13 20  1  0
 13 21  1  0
 14 15  1  0
 14 22  1  0
 14 23  1  0
 15 24  1  0
 15 25  1  0
 15 26  1  0
M  RAD  1   1   2
M  END
>  <reaction>  (23) 
rmg_rxn_15611

>  <mol_properties>  (23) 
{"0": {"label": "*1", "atom_type": "Cs"}, "1": {"label": "*0", "atom_type": "O2s"}, "4": {"label": "*2", "atom_type": "H0"}, "9": {"label": "*3", "atom_type": "Cs"}, "10": {"label": "*4", "atom_type": "Cs"}}

>  <type>  (23) 
unop_19

>  <geom_source>  (23) 
Heuristics

$$$$

     RDKit          3D

 26 24  0  0  0  0  0  0  0  0999 V2000
   -1.8618    1.3827   -1.4013 C   0  0  0  0  0  3  0  0  0  0  0  0
   -1.8618    1.4406   -2.8142 O   0  0  0  0  0  0  0  0  0  0  0  0
   -1.8618    0.1667   -3.3299 N   0  0  0  0  0  0  0  0  0  0  0  0
   -1.8618    0.1667   -4.5936 C   0  0  0  0  0  0  0  0  0  0  0  0
   -0.7912    0.7705   -0.9572 H   0  0  0  0  0  0  0  0  0  0  0  0
   -2.7539    0.8725   -1.0312 H   0  0  0  0  0  0  0  0  0  0  0  0
   -1.8618    2.4176   -1.0635 H   0  0  0  0  0  0  0  0  0  0  0  0
   -1.8618   -0.8004   -5.0784 H   0  0  0  0  0  0  0  0  0  0  0  0
   -1.8618    1.0832   -5.1797 H   0  0  0  0  0  0  0  0  0  0  0  0
    0.2782    0.1590   -0.5136 C   0  0  0  0  0  0  0  0  0  0  0  0
   -0.0218   -0.5392    0.7926 C   0  0  0  0  0  0  0  0  0  0  0  0
    1.1580   -0.6140    1.5515 O   0  0  0  0  0  0  0  0  0  0  0  0
    0.9819   -1.2496    2.7925 C   0  0  0  0  0  0  0  0  0  0  0  0
    2.2944   -1.2460    3.5492 C   0  0  0  0  0  0  0  0  0  0  0  0
    2.7876    0.1550    3.8856 C   0  0  0  0  0  0  0  0  0  0  0  0
    0.6516    1.1673   -0.3310 H   0  0  0  0  0  0  0  0  0  0  0  0
    1.0334   -0.3910   -1.0762 H   0  0  0  0  0  0  0  0  0  0  0  0
   -0.4132   -1.5504    0.6070 H   0  0  0  0  0  0  0  0  0  0  0  0
   -0.7936    0.0087    1.3530 H   0  0  0  0  0  0  0  0  0  0  0  0
    0.2081   -0.7255    3.3755 H   0  0  0  0  0  0  0  0  0  0  0  0
    0.6330   -2.2814    2.6393 H   0  0  0  0  0  0  0  0  0  0  0  0
    3.0417   -1.7732    2.9505 H   0  0  0  0  0  0  0  0  0  0  0  0
    2.1557   -1.8263    4.4656 H   0  0  0  0  0  0  0  0  0  0  0  0
    2.0601    0.6859    4.5047 H   0  0  0  0  0  0  0  0  0  0  0  0
    2.9436    0.7377    2.9778 H   0  0  0  0  0  0  0  0  0  0  0  0
    3.7301    0.1183    4.4338 H   0  0  0  0  0  0  0  0  0  0  0  0
  1  2  1  0
  1  6  1  0
  1  7  1  0
  2  3  1  0
  3  4  2  3
  4  8  1  0
  4  9  1  0
  5 10  1  0
 10 11  1  0
 10 16  1  0
 10 17  1  0
 11 12  1  0
 11 18  1  0
 11 19  1  0
 12 13  1  0
 13 14  1  0
 13 20  1  0
 13 21  1  0
 14 15  1  0
 14 22  1  0
 14 23  1  0
 15 24  1  0
 15 25  1  0
 15 26  1  0
M  RAD  1   1   2
M  END
>  <reaction>  (24) 
rmg_rxn_15611

>  <mol_properties>  (24) 
{"0": {"label": "*1", "atom_type": "Cs"}, "1": {"label": "*0", "atom_type": "O2s"}, "4": {"label": "*2", "atom_type": "H0"}, "9": {"label": "*3", "atom_type": "Cs"}, "10": {"label": "*4", "atom_type": "Cs"}}

>  <type>  (24) 
unop_20

>  <geom_source>  (24) 
Heuristics

$$$$

     RDKit          3D

 26 24  0  0  0  0  0  0  0  0999 V2000
   -2.6253    1.8441    0.5852 C   0  0  0  0  0  3  0  0  0  0  0  0
   -2.6254    1.9020   -0.8277 O   0  0  0  0  0  0  0  0  0  0  0  0
   -2.6254    0.6281   -1.3434 N   0  0  0  0  0  0  0  0  0  0  0  0
   -2.6254    0.6281   -2.6070 C   0  0  0  0  0  0  0  0  0  0  0  0
   -1.5548    1.2319    1.0293 H   0  0  0  0  0  0  0  0  0  0  0  0
   -3.5175    1.3339    0.9553 H   0  0  0  0  0  0  0  0  0  0  0  0
   -2.6254    2.8790    0.9230 H   0  0  0  0  0  0  0  0  0  0  0  0
   -2.6254   -0.3389   -3.0918 H   0  0  0  0  0  0  0  0  0  0  0  0
   -2.6254    1.5446   -3.1932 H   0  0  0  0  0  0  0  0  0  0  0  0
   -0.4853    0.6204    1.4730 C   0  0  0  0  0  0  0  0  0  0  0  0
    0.3857    0.1845    0.3177 C   0  0  0  0  0  0  0  0  0  0  0  0
    1.5231   -0.4664    0.8239 O   0  0  0  0  0  0  0  0  0  0  0  0
    2.4008   -0.9133   -0.1786 C   0  0  0  0  0  0  0  0  0  0  0  0
    3.5701   -1.6326    0.4620 C   0  0  0  0  0  0  0  0  0  0  0  0
    3.1584   -2.8880    1.2196 C   0  0  0  0  0  0  0  0  0  0  0  0
   -0.7984   -0.2422    2.0622 H   0  0  0  0  0  0  0  0  0  0  0  0
    0.0593    1.3036    2.1257 H   0  0  0  0  0  0  0  0  0  0  0  0
    0.6881    1.0536   -0.2852 H   0  0  0  0  0  0  0  0  0  0  0  0
   -0.1689   -0.4936   -0.3476 H   0  0  0  0  0  0  0  0  0  0  0  0
    1.8705   -1.5914   -0.8659 H   0  0  0  0  0  0  0  0  0  0  0  0
    2.7577   -0.0592   -0.7727 H   0  0  0  0  0  0  0  0  0  0  0  0
    4.0785   -0.9377    1.1354 H   0  0  0  0  0  0  0  0  0  0  0  0
    4.2823   -1.8865   -0.3280 H   0  0  0  0  0  0  0  0  0  0  0  0
    2.6697   -3.6028    0.5528 H   0  0  0  0  0  0  0  0  0  0  0  0
    2.4595   -2.6443    2.0196 H   0  0  0  0  0  0  0  0  0  0  0  0
    4.0250   -3.3816    1.6620 H   0  0  0  0  0  0  0  0  0  0  0  0
  1  2  1  0
  1  6  1  0
  1  7  1  0
  2  3  1  0
  3  4  2  3
  4  8  1  0
  4  9  1  0
  5 10  1  0
 10 11  1  0
 10 16  1  0
 10 17  1  0
 11 12  1  0
 11 18  1  0
 11 19  1  0
 12 13  1  0
 13 14  1  0
 13 20  1  0
 13 21  1  0
 14 15  1  0
 14 22  1  0
 14 23  1  0
 15 24  1  0
 15 25  1  0
 15 26  1  0
M  RAD  1   1   2
M  END
>  <reaction>  (25) 
rmg_rxn_15611

>  <mol_properties>  (25) 
{"0": {"label": "*1", "atom_type": "Cs"}, "1": {"label": "*0", "atom_type": "O2s"}, "4": {"label": "*2", "atom_type": "H0"}, "9": {"label": "*3", "atom_type": "Cs"}, "10": {"label": "*4", "atom_type": "Cs"}}

>  <type>  (25) 
unop_21

>  <geom_source>  (25) 
Heuristics

$$$$

     RDKit          3D

 26 24  0  0  0  0  0  0  0  0999 V2000
   -2.1106    0.3094   -1.1148 C   0  0  0  0  0  3  0  0  0  0  0  0
   -3.0650   -0.4597   -0.4795 O   0  0  0  0  0  0  0  0  0  0  0  0
   -2.7241   -1.4385    0.3904 N   0  0  0  0  0  0  0  0  0  0  0  0
   -1.5348   -1.6065    0.7843 C   0  0  0  0  0  0  0  0  0  0  0  0
   -1.5843    1.2188   -0.2658 H   0  0  0  0  0  0  0  0  0  0  0  0
   -2.6185    0.8793   -1.8846 H   0  0  0  0  0  0  0  0  0  0  0  0
   -1.2459   -0.2446   -1.4768 H   0  0  0  0  0  0  0  0  0  0  0  0
   -1.3915   -2.4259    1.4678 H   0  0  0  0  0  0  0  0  0  0  0  0
   -0.6704   -1.0041    0.5230 H   0  0  0  0  0  0  0  0  0  0  0  0
   -0.9972    2.0503    0.5396 C   0  0  0  0  0  0  0  0  0  0  0  0
    0.4650    2.0109    0.1843 C   0  0  0  0  0  0  0  0  0  0  0  0
    0.9053    0.6693    0.2124 O   0  0  0  0  0  0  0  0  0  0  0  0
    2.2752    0.5155   -0.0758 C   0  0  0  0  0  0  0  0  0  0  0  0
    2.6231   -0.9678   -0.0238 C   0  0  0  0  0  0  0  0  0  0  0  0
    4.0989   -1.2087   -0.3096 C   0  0  0  0  0  0  0  0  0  0  0  0
   -1.1922    1.6824    1.5400 H   0  0  0  0  0  0  0  0  0  0  0  0
   -1.4399    3.0242    0.3734 H   0  0  0  0  0  0  0  0  0  0  0  0
    1.0620    2.6082    0.8984 H   0  0  0  0  0  0  0  0  0  0  0  0
    0.6309    2.4344   -0.8201 H   0  0  0  0  0  0  0  0  0  0  0  0
    2.4968    0.9256   -1.0748 H   0  0  0  0  0  0  0  0  0  0  0  0
    2.8787    1.0741    0.6578 H   0  0  0  0  0  0  0  0  0  0  0  0
    2.0096   -1.4962   -0.7557 H   0  0  0  0  0  0  0  0  0  0  0  0
    2.3647   -1.3491    0.9654 H   0  0  0  0  0  0  0  0  0  0  0  0
    4.3220   -2.2715   -0.2688 H   0  0  0  0  0  0  0  0  0  0  0  0
    4.7189   -0.6982    0.4239 H   0  0  0  0  0  0  0  0  0  0  0  0
    4.3631   -0.8390   -1.2980 H   0  0  0  0  0  0  0  0  0  0  0  0
  1  2  1  0
  1  6  1  0
  1  7  1  0
  2  3  1  0
  3  4  2  3
  4  8  1  0
  4  9  1  0
  5 10  1  0
 10 11  1  0
 10 16  1  0
 10 17  1  0
 11 12  1  0
 11 18  1  0
 11 19  1  0
 12 13  1  0
 13 14  1  0
 13 20  1  0
 13 21  1  0
 14 15  1  0
 14 22  1  0
 14 23  1  0
 15 24  1  0
 15 25  1  0
 15 26  1  0
M  RAD  1   1   2
M  END
>  <reaction>  (26) 
rmg_rxn_15611

>  <mol_properties>  (26) 
{"0": {"label": "*1", "atom_type": "Cs"}, "1": {"label": "*0", "atom_type": "O2s"}, "4": {"label": "*2", "atom_type": "H0"}, "9": {"label": "*3", "atom_type": "Cs"}, "10": {"label": "*4", "atom_type": "Cs"}}

>  <type>  (26) 
unop_22

>  <geom_source>  (26) 
Heuristics

$$$$

     RDKit          3D

 26 24  0  0  0  0  0  0  0  0999 V2000
    1.5829   -1.5181   -0.3891 O   0  0  0  0  0  0  0  0  0  0  0  0
   -3.4057    1.2794    0.2386 O   0  0  0  0  0  0  0  0  0  0  0  0
   -4.6258    1.8031   -0.1237 N   0  0  0  0  0  0  0  0  0  0  0  0
    3.8035   -0.6548   -0.0520 C   0  0  0  0  0  0  0  0  0  0  0  0
    2.4674   -0.4856   -0.7757 C   0  0  0  0  0  0  0  0  0  0  0  0
    0.2883   -1.2841   -0.9099 C   0  0  0  0  0  0  0  0  0  0  0  0
    3.6577   -0.4718    1.4574 C   0  0  0  0  0  0  0  0  0  0  0  0
   -0.5883   -0.6103    0.1384 C   0  0  0  0  0  0  0  0  0  0  0  0
   -3.1015   -0.0794   -0.0283 C   0  0  0  0  0  3  0  0  0  0  0  0
   -4.9064    3.0409    0.1180 C   0  0  0  0  0  0  0  0  0  0  0  0
    4.5229    0.0996   -0.4378 H   0  0  0  0  0  0  0  0  0  0  0  0
    4.2158   -1.6653   -0.2633 H   0  0  0  0  0  0  0  0  0  0  0  0
   -0.1655   -2.2667   -1.1571 H   0  0  0  0  0  0  0  0  0  0  0  0
    0.2824   -0.6866   -1.8524 H   0  0  0  0  0  0  0  0  0  0  0  0
    2.6580   -0.5438   -1.8711 H   0  0  0  0  0  0  0  0  0  0  0  0
    2.0537    0.5211   -0.5356 H   0  0  0  0  0  0  0  0  0  0  0  0
   -0.1926    0.3970    0.3846 H   0  0  0  0  0  0  0  0  0  0  0  0
   -0.6178   -1.2260    1.0623 H   0  0  0  0  0  0  0  0  0  0  0  0
   -1.7921   -0.4849   -0.3219 H   0  0  0  0  0  0  0  0  0  0  0  0
    4.6510   -0.5803    1.9416 H   0  0  0  0  0  0  0  0  0  0  0  0
    2.9740   -1.2394    1.8781 H   0  0  0  0  0  0  0  0  0  0  0  0
    3.2595    0.5394    1.6872 H   0  0  0  0  0  0  0  0  0  0  0  0
   -3.8243   -0.7391    0.4961 H   0  0  0  0  0  0  0  0  0  0  0  0
   -3.1421   -0.2687   -1.1215 H   0  0  0  0  0  0  0  0  0  0  0  0
   -4.1864    3.6838    0.6086 H   0  0  0  0  0  0  0  0  0  0  0  0
   -5.8685    3.4406   -0.1715 H   0  0  0  0  0  0  0  0  0  0  0  0
  1  6  1  0
  1  5  1  0
  2  9  1  0
  2  3  1  0
  3 10  2  3
  4  7  1  0
  4  5  1  0
  4 11  1  0
  4 12  1  0
  5 15  1  0
  5 16  1  0
  6  8  1  0
  6 13  1  0
  6 14  1  0
  7 20  1  0
  7 21  1  0
  7 22  1  0
  8 17  1  0
  8 18  1  0
  8 19  1  0
  9 23  1  0
  9 24  1  0
 10 25  1  0
 10 26  1  0
M  RAD  1   9   2
M  END
>  <reaction>  (27) 
rmg_rxn_15611

>  <mol_properties>  (27) 
{"0": {"label": "*1", "atom_type": "Cs"}, "1": {"label": "*0", "atom_type": "O2s"}, "4": {"label": "*2", "atom_type": "H0"}, "9": {"label": "*3", "atom_type": "Cs"}, "10": {"label": "*4", "atom_type": "Cs"}}

>  <type>  (27) 
unop_23

>  <geom_source>  (27) 
AutoTST

$$$$

     RDKit          3D

 26 24  0  0  0  0  0  0  0  0999 V2000
   -2.9292    1.1437    0.3613 C   0  0  0  0  0  3  0  0  0  0  0  0
   -2.9292    1.2016   -1.0516 O   0  0  0  0  0  0  0  0  0  0  0  0
   -2.9292   -0.0723   -1.5673 N   0  0  0  0  0  0  0  0  0  0  0  0
   -2.9292   -0.0723   -2.8309 C   0  0  0  0  0  0  0  0  0  0  0  0
   -1.8586    0.5315    0.8054 H   0  0  0  0  0  0  0  0  0  0  0  0
   -3.8213    0.6335    0.7314 H   0  0  0  0  0  0  0  0  0  0  0  0
   -2.9292    2.1786    0.6991 H   0  0  0  0  0  0  0  0  0  0  0  0
   -2.9292   -1.0394   -3.3157 H   0  0  0  0  0  0  0  0  0  0  0  0
   -2.9292    0.8442   -3.4171 H   0  0  0  0  0  0  0  0  0  0  0  0
   -0.7892   -0.0800    1.2491 C   0  0  0  0  0  0  0  0  0  0  0  0
    0.3661    0.1290    0.2977 C   0  0  0  0  0  0  0  0  0  0  0  0
    1.5668   -0.1598    0.9674 O   0  0  0  0  0  0  0  0  0  0  0  0
    2.7066    0.0049    0.1620 C   0  0  0  0  0  0  0  0  0  0  0  0
    3.9414   -0.3663    0.9575 C   0  0  0  0  0  0  0  0  0  0  0  0
    3.9622   -1.8283    1.3832 C   0  0  0  0  0  0  0  0  0  0  0  0
   -0.8136   -1.1124    1.5996 H   0  0  0  0  0  0  0  0  0  0  0  0
   -0.6941    0.5753    2.1155 H   0  0  0  0  0  0  0  0  0  0  0  0
    0.3805    1.1667   -0.0675 H   0  0  0  0  0  0  0  0  0  0  0  0
    0.2620   -0.5223   -0.5826 H   0  0  0  0  0  0  0  0  0  0  0  0
    2.6281   -0.6323   -0.7332 H   0  0  0  0  0  0  0  0  0  0  0  0
    2.7745    1.0469   -0.1834 H   0  0  0  0  0  0  0  0  0  0  0  0
    3.9956    0.2813    1.8364 H   0  0  0  0  0  0  0  0  0  0  0  0
    4.8174   -0.1407    0.3432 H   0  0  0  0  0  0  0  0  0  0  0  0
    3.9325   -2.4881    0.5124 H   0  0  0  0  0  0  0  0  0  0  0  0
    3.1004   -2.0606    2.0089 H   0  0  0  0  0  0  0  0  0  0  0  0
    4.8664   -2.0600    1.9479 H   0  0  0  0  0  0  0  0  0  0  0  0
  1  2  1  0
  1  6  1  0
  1  7  1  0
  2  3  1  0
  3  4  2  3
  4  8  1  0
  4  9  1  0
  5 10  1  0
 10 11  1  0
 10 16  1  0
 10 17  1  0
 11 12  1  0
 11 18  1  0
 11 19  1  0
 12 13  1  0
 13 14  1  0
 13 20  1  0
 13 21  1  0
 14 15  1  0
 14 22  1  0
 14 23  1  0
 15 24  1  0
 15 25  1  0
 15 26  1  0
M  RAD  1   1   2
M  END
>  <reaction>  (28) 
rmg_rxn_15611

>  <mol_properties>  (28) 
{"0": {"label": "*1", "atom_type": "Cs"}, "1": {"label": "*0", "atom_type": "O2s"}, "4": {"label": "*2", "atom_type": "H0"}, "9": {"label": "*3", "atom_type": "Cs"}, "10": {"label": "*4", "atom_type": "Cs"}}

>  <type>  (28) 
unop_24

>  <geom_source>  (28) 
gaussian_log

$$$$
