
     RDKit          3D

 18 17  0  0  0  0  0  0  0  0999 V2000
    2.2026   -0.7213   -0.2612 C   0  0  0  0  0  0  0  0  0  0  0  0
    1.5384    0.2638    0.6915 C   0  0  0  0  0  0  0  0  0  0  0  0
    2.2584    1.5946    0.7694 C   0  0  0  0  0  0  0  0  0  0  0  0
    2.2212    2.2185   -0.4893 O   0  0  0  0  0  0  0  0  0  0  0  0
    2.8988    3.4488   -0.5204 C   0  0  0  0  0  0  0  0  0  0  0  0
    2.7981    4.0296   -1.9118 C   0  0  0  0  0  0  0  0  0  0  0  0
    3.2294   -0.9309    0.0486 H   0  0  0  0  0  0  0  0  0  0  0  0
    2.2338   -0.3181   -1.2734 H   0  0  0  0  0  0  0  0  0  0  0  0
    1.6610   -1.6680   -0.2875 H   0  0  0  0  0  0  0  0  0  0  0  0
    1.4990   -0.1566    1.7002 H   0  0  0  0  0  0  0  0  0  0  0  0
    0.5055    0.4455    0.3835 H   0  0  0  0  0  0  0  0  0  0  0  0
    3.3038    1.4410    1.0808 H   0  0  0  0  0  0  0  0  0  0  0  0
    1.7844    2.2410    1.5226 H   0  0  0  0  0  0  0  0  0  0  0  0
    2.4596    4.1376    0.2164 H   0  0  0  0  0  0  0  0  0  0  0  0
    3.9524    3.3035   -0.2397 H   0  0  0  0  0  0  0  0  0  0  0  0
    1.7543    4.1869   -2.1856 H   0  0  0  0  0  0  0  0  0  0  0  0
    3.2472    3.3545   -2.6411 H   0  0  0  0  0  0  0  0  0  0  0  0
    3.3178    4.9878   -1.9600 H   0  0  0  0  0  0  0  0  0  0  0  0
  1  2  1  0
  1  7  1  0
  1  8  1  0
  1  9  1  0
  2  3  1  0
  2 10  1  0
  2 11  1  0
  3  4  1  0
  3 12  1  0
  3 13  1  0
  4  5  1  0
  5  6  1  0
  5 14  1  0
  5 15  1  0
  6 16  1  0
  6 17  1  0
  6 18  1  0
M  END
>  <reaction>  (1) 
rmg_rxn_216

>  <mol_properties>  (1) 
{"1": {"label": "donator", "atom_type": "Cs"}, "9": {"label": "d_hydrogen", "atom_type": "H0"}}

>  <type>  (1) 
r1h

$$$$

     RDKit          3D

 13 12  0  0  0  0  0  0  0  0999 V2000
    2.0654   -0.2739   -0.0844 C   0  0  0  0  0  3  0  0  0  0  0  0
    0.6326   -0.4110   -0.4406 C   0  0  0  0  0  0  0  0  0  0  0  0
   -0.3055    0.4151    0.4359 C   0  0  0  0  0  0  0  0  0  0  0  0
   -1.7714    0.2357    0.0671 C   0  0  0  0  0  0  0  0  0  0  0  0
    2.3610    0.0676    0.8995 H   0  0  0  0  0  0  0  0  0  0  0  0
    2.8408   -0.6127   -0.7582 H   0  0  0  0  0  0  0  0  0  0  0  0
    0.3313   -1.4695   -0.3768 H   0  0  0  0  0  0  0  0  0  0  0  0
    0.4826   -0.1432   -1.4940 H   0  0  0  0  0  0  0  0  0  0  0  0
   -0.1518    0.1351    1.4826 H   0  0  0  0  0  0  0  0  0  0  0  0
   -0.0303    1.4705    0.3565 H   0  0  0  0  0  0  0  0  0  0  0  0
   -2.0768   -0.8084    0.1692 H   0  0  0  0  0  0  0  0  0  0  0  0
   -1.9546    0.5339   -0.9679 H   0  0  0  0  0  0  0  0  0  0  0  0
   -2.4194    0.8370    0.7066 H   0  0  0  0  0  0  0  0  0  0  0  0
  1  2  1  0
  1  5  1  0
  1  6  1  0
  2  3  1  0
  2  7  1  0
  2  8  1  0
  3  4  1  0
  3  9  1  0
  3 10  1  0
  4 11  1  0
  4 12  1  0
  4 13  1  0
M  RAD  1   1   2
M  END
>  <reaction>  (2) 
rmg_rxn_216

>  <mol_properties>  (2) 
{"0": {"label": "acceptor", "atom_type": "Cs"}}

>  <type>  (2) 
r2

$$$$

     RDKit          3D

 14 13  0  0  0  0  0  0  0  0999 V2000
    1.8106   -0.5953    0.5577 C   0  0  0  0  0  0  0  0  0  0  0  0
    0.5197    0.2064    0.6554 C   0  0  0  0  0  0  0  0  0  0  0  0
   -0.5206   -0.2080   -0.3788 C   0  0  0  0  0  0  0  0  0  0  0  0
   -1.8114    0.5937   -0.2812 C   0  0  0  0  0  0  0  0  0  0  0  0
    2.2725   -0.4752   -0.4251 H   0  0  0  0  0  0  0  0  0  0  0  0
    1.6214   -1.6612    0.7052 H   0  0  0  0  0  0  0  0  0  0  0  0
    2.5364   -0.2784    1.3084 H   0  0  0  0  0  0  0  0  0  0  0  0
    0.0930    0.0950    1.6574 H   0  0  0  0  0  0  0  0  0  0  0  0
    0.7393    1.2723    0.5354 H   0  0  0  0  0  0  0  0  0  0  0  0
   -0.7402   -1.2739   -0.2588 H   0  0  0  0  0  0  0  0  0  0  0  0
   -0.0938   -0.0965   -1.3808 H   0  0  0  0  0  0  0  0  0  0  0  0
   -1.6222    1.6596   -0.4287 H   0  0  0  0  0  0  0  0  0  0  0  0
   -2.2734    0.4736    0.7017 H   0  0  0  0  0  0  0  0  0  0  0  0
   -2.5373    0.2768   -1.0318 H   0  0  0  0  0  0  0  0  0  0  0  0
  1  2  1  0
  1  5  1  0
  1  6  1  0
  1  7  1  0
  2  3  1  0
  2  8  1  0
  2  9  1  0
  3  4  1  0
  3 10  1  0
  3 11  1  0
  4 12  1  0
  4 13  1  0
  4 14  1  0
M  END
>  <reaction>  (3) 
rmg_rxn_216

>  <mol_properties>  (3) 
{"0": {"label": "acceptor", "atom_type": "Cs"}, "13": {"label": "a_hydrogen", "atom_type": "H0"}}

>  <type>  (3) 
r2h

$$$$

     RDKit          3D

 31 29  0  0  0  0  0  0  0  0999 V2000
    0.9500   -2.1896    0.6949 C   0  0  0  0  0  3  0  0  0  0  0  0
    2.0448   -1.3246    0.1287 C   0  0  0  0  0  0  0  0  0  0  0  0
    3.4423   -1.9272    0.2839 C   0  0  0  0  0  0  0  0  0  0  0  0
    4.5351   -1.0371   -0.2936 C   0  0  0  0  0  0  0  0  0  0  0  0
    0.9609   -2.2929    1.7793 H   0  0  0  0  0  0  0  0  0  0  0  0
    0.8288   -3.1530    0.2005 H   0  0  0  0  0  0  0  0  0  0  0  0
    2.0275   -0.3434    0.6150 H   0  0  0  0  0  0  0  0  0  0  0  0
    1.8551   -1.1420   -0.9348 H   0  0  0  0  0  0  0  0  0  0  0  0
    3.6367   -2.1103    1.3449 H   0  0  0  0  0  0  0  0  0  0  0  0
    3.4654   -2.9057   -0.2050 H   0  0  0  0  0  0  0  0  0  0  0  0
    4.5487   -0.0630    0.2010 H   0  0  0  0  0  0  0  0  0  0  0  0
    4.3756   -0.8640   -1.3605 H   0  0  0  0  0  0  0  0  0  0  0  0
    5.5218   -1.4870   -0.1722 H   0  0  0  0  0  0  0  0  0  0  0  0
   -1.5529   -1.2283   -1.3790 C   0  0  0  0  0  0  0  0  0  0  0  0
   -1.3073   -0.8786    0.0650 C   0  0  0  0  0  0  0  0  0  0  0  0
   -0.9548    0.5534    0.3424 C   0  0  0  0  0  0  0  0  0  0  0  0
   -2.0629    1.3816    0.0650 O   0  0  0  0  0  0  0  0  0  0  0  0
   -1.7972    2.7460    0.2742 C   0  0  0  0  0  0  0  0  0  0  0  0
   -3.0390    3.5431   -0.0513 C   0  0  0  0  0  0  0  0  0  0  0  0
   -0.6974   -0.9455   -1.9986 H   0  0  0  0  0  0  0  0  0  0  0  0
   -2.4287   -0.7013   -1.7673 H   0  0  0  0  0  0  0  0  0  0  0  0
   -1.7213   -2.2992   -1.5043 H   0  0  0  0  0  0  0  0  0  0  0  0
   -0.2231   -1.5573    0.4325 H   0  0  0  0  0  0  0  0  0  0  0  0
   -2.0764   -1.2523    0.7415 H   0  0  0  0  0  0  0  0  0  0  0  0
   -0.1000    0.8569   -0.2822 H   0  0  0  0  0  0  0  0  0  0  0  0
   -0.6517    0.6758    1.3930 H   0  0  0  0  0  0  0  0  0  0  0  0
   -1.4955    2.9136    1.3189 H   0  0  0  0  0  0  0  0  0  0  0  0
   -0.9574    3.0659   -0.3603 H   0  0  0  0  0  0  0  0  0  0  0  0
   -3.8683    3.2360    0.5870 H   0  0  0  0  0  0  0  0  0  0  0  0
   -3.3300    3.3892   -1.0910 H   0  0  0  0  0  0  0  0  0  0  0  0
   -2.8569    4.6076    0.1042 H   0  0  0  0  0  0  0  0  0  0  0  0
  1  2  1  0
  1  5  1  0
  1  6  1  0
  2  3  1  0
  2  7  1  0
  2  8  1  0
  3  4  1  0
  3  9  1  0
  3 10  1  0
  4 11  1  0
  4 12  1  0
  4 13  1  0
 14 15  1  0
 14 20  1  0
 14 21  1  0
 14 22  1  0
 15 16  1  0
 15 23  1  0
 15 24  1  0
 16 17  1  0
 16 25  1  0
 16 26  1  0
 17 18  1  0
 18 19  1  0
 18 27  1  0
 18 28  1  0
 19 29  1  0
 19 30  1  0
 19 31  1  0
M  RAD  1   1   2
M  END
>  <reaction>  (4) 
rmg_rxn_216

>  <mol_properties>  (4) 
{"0": {"label": "*3", "atom_type": "Cs"}, "1": {"label": "*4", "atom_type": "Cs"}, "14": {"label": "*1", "atom_type": "Cs"}, "15": {"label": "*0", "atom_type": "Cs"}, "22": {"label": "*2", "atom_type": "H0"}}

>  <type>  (4) 
ts

$$$$

     RDKit          3D

 31 29  0  0  0  0  0  0  0  0999 V2000
    1.3262   -2.0886   -0.0726 C   0  0  0  0  0  0  0  0  0  0  0  0
    2.1964   -1.1794    0.7846 C   0  0  0  0  0  0  0  0  0  0  0  0
    2.7662   -1.8814    2.0119 C   0  0  0  0  0  0  0  0  0  0  0  0
    3.6363   -0.9722    2.8691 C   0  0  0  0  0  0  0  0  0  0  0  0
    0.4772   -2.4706    0.4992 H   0  0  0  0  0  0  0  0  0  0  0  0
    1.8952   -2.9490   -0.4328 H   0  0  0  0  0  0  0  0  0  0  0  0
    1.6135   -0.3106    1.1072 H   0  0  0  0  0  0  0  0  0  0  0  0
    3.0211   -0.7854    0.1820 H   0  0  0  0  0  0  0  0  0  0  0  0
    1.9414   -2.2754    2.6144 H   0  0  0  0  0  0  0  0  0  0  0  0
    3.3490   -2.7502    1.6893 H   0  0  0  0  0  0  0  0  0  0  0  0
    3.0673   -0.1118    3.2293 H   0  0  0  0  0  0  0  0  0  0  0  0
    4.4853   -0.5901    2.2973 H   0  0  0  0  0  0  0  0  0  0  0  0
    4.0305   -1.4994    3.7394 H   0  0  0  0  0  0  0  0  0  0  0  0
   -0.7872   -0.8264   -2.4976 C   0  0  0  0  0  0  0  0  0  0  0  0
   -0.7872   -0.8264   -0.9747 C   0  0  0  0  0  3  0  0  0  0  0  0
   -0.7872    0.5666   -0.3792 C   0  0  0  0  0  0  0  0  0  0  0  0
   -1.9702    1.2302   -0.7468 O   0  0  0  0  0  0  0  0  0  0  0  0
   -2.0409    2.5483   -0.2659 C   0  0  0  0  0  0  0  0  0  0  0  0
   -3.3442    3.1661   -0.7167 C   0  0  0  0  0  0  0  0  0  0  0  0
    0.0949   -0.3121   -2.8872 H   0  0  0  0  0  0  0  0  0  0  0  0
   -1.6699   -0.3167   -2.8837 H   0  0  0  0  0  0  0  0  0  0  0  0
   -0.7817   -1.8443   -2.8903 H   0  0  0  0  0  0  0  0  0  0  0  0
    0.2707   -1.4582   -0.5232 H   0  0  0  0  0  0  0  0  0  0  0  0
   -1.6615   -1.3644   -0.5994 H   0  0  0  0  0  0  0  0  0  0  0  0
    0.0870    1.1317   -0.7396 H   0  0  0  0  0  0  0  0  0  0  0  0
   -0.7124    0.5127    0.7168 H   0  0  0  0  0  0  0  0  0  0  0  0
   -1.9736    2.5512    0.8322 H   0  0  0  0  0  0  0  0  0  0  0  0
   -1.1880    3.1313   -0.6438 H   0  0  0  0  0  0  0  0  0  0  0  0
   -4.1906    2.5967   -0.3311 H   0  0  0  0  0  0  0  0  0  0  0  0
   -3.4050    3.1779   -1.8056 H   0  0  0  0  0  0  0  0  0  0  0  0
   -3.4218    4.1921   -0.3537 H   0  0  0  0  0  0  0  0  0  0  0  0
  1  2  1  0
  1  5  1  0
  1  6  1  0
  1 23  1  0
  2  3  1  0
  2  7  1  0
  2  8  1  0
  3  4  1  0
  3  9  1  0
  3 10  1  0
  4 11  1  0
  4 12  1  0
  4 13  1  0
 14 15  1  0
 14 20  1  0
 14 21  1  0
 14 22  1  0
 15 16  1  0
 15 24  1  0
 16 17  1  0
 16 25  1  0
 16 26  1  0
 17 18  1  0
 18 19  1  0
 18 27  1  0
 18 28  1  0
 19 29  1  0
 19 30  1  0
 19 31  1  0
M  RAD  1  15   2
M  END
>  <reaction>  (5) 
rmg_rxn_216

>  <mol_properties>  (5) 
{"0": {"label": "*3", "atom_type": "Cs"}, "1": {"label": "*4", "atom_type": "Cs"}, "14": {"label": "*1", "atom_type": "Cs"}, "15": {"label": "*0", "atom_type": "Cs"}, "22": {"label": "*2", "atom_type": "H0"}}

>  <type>  (5) 
unop_1

>  <geom_source>  (5) 
Heuristics

$$$$

     RDKit          3D

 31 29  0  0  0  0  0  0  0  0999 V2000
    1.0461   -1.8517    0.7720 C   0  0  0  0  0  0  0  0  0  0  0  0
    2.2220   -1.7290   -0.1876 C   0  0  0  0  0  0  0  0  0  0  0  0
    3.5614   -2.0523    0.4645 C   0  0  0  0  0  0  0  0  0  0  0  0
    4.7373   -1.9296   -0.4951 C   0  0  0  0  0  0  0  0  0  0  0  0
    1.1603   -1.1721    1.6199 H   0  0  0  0  0  0  0  0  0  0  0  0
    0.9702   -2.8662    1.1704 H   0  0  0  0  0  0  0  0  0  0  0  0
    2.2583   -0.7140   -0.5963 H   0  0  0  0  0  0  0  0  0  0  0  0
    2.0696   -2.3957   -1.0425 H   0  0  0  0  0  0  0  0  0  0  0  0
    3.7138   -1.3856    1.3194 H   0  0  0  0  0  0  0  0  0  0  0  0
    3.5251   -3.0673    0.8732 H   0  0  0  0  0  0  0  0  0  0  0  0
    4.8132   -0.9151   -0.8935 H   0  0  0  0  0  0  0  0  0  0  0  0
    4.6231   -2.6092   -1.3430 H   0  0  0  0  0  0  0  0  0  0  0  0
    5.6820   -2.1662   -0.0029 H   0  0  0  0  0  0  0  0  0  0  0  0
   -1.0673   -0.5895   -1.6530 C   0  0  0  0  0  0  0  0  0  0  0  0
   -1.0673   -0.5895   -0.1301 C   0  0  0  0  0  3  0  0  0  0  0  0
   -1.0673    0.8036    0.4654 C   0  0  0  0  0  0  0  0  0  0  0  0
   -2.2503    1.4672    0.0978 O   0  0  0  0  0  0  0  0  0  0  0  0
   -2.3210    2.7852    0.5787 C   0  0  0  0  0  0  0  0  0  0  0  0
   -3.6243    3.4030    0.1279 C   0  0  0  0  0  0  0  0  0  0  0  0
   -0.1852   -0.0752   -2.0426 H   0  0  0  0  0  0  0  0  0  0  0  0
   -1.9500   -0.0798   -2.0391 H   0  0  0  0  0  0  0  0  0  0  0  0
   -1.0618   -1.6074   -2.0457 H   0  0  0  0  0  0  0  0  0  0  0  0
   -0.0094   -1.2213    0.3214 H   0  0  0  0  0  0  0  0  0  0  0  0
   -1.9417   -1.1275    0.2452 H   0  0  0  0  0  0  0  0  0  0  0  0
   -0.1931    1.3686    0.1050 H   0  0  0  0  0  0  0  0  0  0  0  0
   -0.9925    0.7496    1.5614 H   0  0  0  0  0  0  0  0  0  0  0  0
   -2.2537    2.7881    1.6768 H   0  0  0  0  0  0  0  0  0  0  0  0
   -1.4681    3.3682    0.2008 H   0  0  0  0  0  0  0  0  0  0  0  0
   -4.4707    2.8336    0.5135 H   0  0  0  0  0  0  0  0  0  0  0  0
   -3.6851    3.4149   -0.9610 H   0  0  0  0  0  0  0  0  0  0  0  0
   -3.7019    4.4290    0.4909 H   0  0  0  0  0  0  0  0  0  0  0  0
  1  2  1  0
  1  5  1  0
  1  6  1  0
  1 23  1  0
  2  3  1  0
  2  7  1  0
  2  8  1  0
  3  4  1  0
  3  9  1  0
  3 10  1  0
  4 11  1  0
  4 12  1  0
  4 13  1  0
 14 15  1  0
 14 20  1  0
 14 21  1  0
 14 22  1  0
 15 16  1  0
 15 24  1  0
 16 17  1  0
 16 25  1  0
 16 26  1  0
 17 18  1  0
 18 19  1  0
 18 27  1  0
 18 28  1  0
 19 29  1  0
 19 30  1  0
 19 31  1  0
M  RAD  1  15   2
M  END
>  <reaction>  (6) 
rmg_rxn_216

>  <mol_properties>  (6) 
{"0": {"label": "*3", "atom_type": "Cs"}, "1": {"label": "*4", "atom_type": "Cs"}, "14": {"label": "*1", "atom_type": "Cs"}, "15": {"label": "*0", "atom_type": "Cs"}, "22": {"label": "*2", "atom_type": "H0"}}

>  <type>  (6) 
unop_2

>  <geom_source>  (6) 
Heuristics

$$$$

     RDKit          3D

 31 29  0  0  0  0  0  0  0  0999 V2000
    1.4685   -1.8780   -0.1948 C   0  0  0  0  0  0  0  0  0  0  0  0
    1.9196   -1.3225    1.1493 C   0  0  0  0  0  0  0  0  0  0  0  0
    2.6129   -2.3616    2.0229 C   0  0  0  0  0  0  0  0  0  0  0  0
    3.0640   -1.8061    3.3669 C   0  0  0  0  0  0  0  0  0  0  0  0
    0.7646   -2.7029   -0.0610 H   0  0  0  0  0  0  0  0  0  0  0  0
    2.3184   -2.2590   -0.7660 H   0  0  0  0  0  0  0  0  0  0  0  0
    1.0563   -0.9195    1.6886 H   0  0  0  0  0  0  0  0  0  0  0  0
    2.5987   -0.4788    0.9888 H   0  0  0  0  0  0  0  0  0  0  0  0
    1.9338   -3.2052    2.1833 H   0  0  0  0  0  0  0  0  0  0  0  0
    3.4762   -2.7646    1.4835 H   0  0  0  0  0  0  0  0  0  0  0  0
    2.2140   -1.4251    3.9381 H   0  0  0  0  0  0  0  0  0  0  0  0
    3.7678   -0.9812    3.2331 H   0  0  0  0  0  0  0  0  0  0  0  0
    3.5563   -2.5699    3.9710 H   0  0  0  0  0  0  0  0  0  0  0  0
   -0.6449   -0.6158   -2.6198 C   0  0  0  0  0  0  0  0  0  0  0  0
   -0.6449   -0.6158   -1.0969 C   0  0  0  0  0  3  0  0  0  0  0  0
   -0.6449    0.7772   -0.5014 C   0  0  0  0  0  0  0  0  0  0  0  0
   -1.8279    1.4408   -0.8690 O   0  0  0  0  0  0  0  0  0  0  0  0
   -1.8986    2.7589   -0.3881 C   0  0  0  0  0  0  0  0  0  0  0  0
   -3.2019    3.3767   -0.8389 C   0  0  0  0  0  0  0  0  0  0  0  0
    0.2372   -0.1015   -3.0094 H   0  0  0  0  0  0  0  0  0  0  0  0
   -1.5276   -0.1061   -3.0059 H   0  0  0  0  0  0  0  0  0  0  0  0
   -0.6394   -1.6337   -3.0125 H   0  0  0  0  0  0  0  0  0  0  0  0
    0.4129   -1.2476   -0.6454 H   0  0  0  0  0  0  0  0  0  0  0  0
   -1.5193   -1.1538   -0.7216 H   0  0  0  0  0  0  0  0  0  0  0  0
    0.2293    1.3423   -0.8618 H   0  0  0  0  0  0  0  0  0  0  0  0
   -0.5701    0.7233    0.5947 H   0  0  0  0  0  0  0  0  0  0  0  0
   -1.8313    2.7618    0.7100 H   0  0  0  0  0  0  0  0  0  0  0  0
   -1.0457    3.3419   -0.7660 H   0  0  0  0  0  0  0  0  0  0  0  0
   -4.0483    2.8073   -0.4532 H   0  0  0  0  0  0  0  0  0  0  0  0
   -3.2627    3.3885   -1.9277 H   0  0  0  0  0  0  0  0  0  0  0  0
   -3.2795    4.4027   -0.4759 H   0  0  0  0  0  0  0  0  0  0  0  0
  1  2  1  0
  1  5  1  0
  1  6  1  0
  1 23  1  0
  2  3  1  0
  2  7  1  0
  2  8  1  0
  3  4  1  0
  3  9  1  0
  3 10  1  0
  4 11  1  0
  4 12  1  0
  4 13  1  0
 14 15  1  0
 14 20  1  0
 14 21  1  0
 14 22  1  0
 15 16  1  0
 15 24  1  0
 16 17  1  0
 16 25  1  0
 16 26  1  0
 17 18  1  0
 18 19  1  0
 18 27  1  0
 18 28  1  0
 19 29  1  0
 19 30  1  0
 19 31  1  0
M  RAD  1  15   2
M  END
>  <reaction>  (7) 
rmg_rxn_216

>  <mol_properties>  (7) 
{"0": {"label": "*3", "atom_type": "Cs"}, "1": {"label": "*4", "atom_type": "Cs"}, "14": {"label": "*1", "atom_type": "Cs"}, "15": {"label": "*0", "atom_type": "Cs"}, "22": {"label": "*2", "atom_type": "H0"}}

>  <type>  (7) 
unop_3

>  <geom_source>  (7) 
Heuristics

$$$$

     RDKit          3D

 31 29  0  0  0  0  0  0  0  0999 V2000
    1.6438   -1.0970    0.5057 C   0  0  0  0  0  0  0  0  0  0  0  0
    1.6744   -2.5441    0.0329 C   0  0  0  0  0  0  0  0  0  0  0  0
    2.3331   -3.4859    1.0342 C   0  0  0  0  0  0  0  0  0  0  0  0
    2.3637   -4.9330    0.5615 C   0  0  0  0  0  0  0  0  0  0  0  0
    2.6546   -0.7207    0.6800 H   0  0  0  0  0  0  0  0  0  0  0  0
    1.0907   -1.0032    1.4433 H   0  0  0  0  0  0  0  0  0  0  0  0
    2.2062   -2.6074   -0.9219 H   0  0  0  0  0  0  0  0  0  0  0  0
    0.6538   -2.8878   -0.1643 H   0  0  0  0  0  0  0  0  0  0  0  0
    3.3537   -3.1422    1.2314 H   0  0  0  0  0  0  0  0  0  0  0  0
    1.8013   -3.4226    1.9891 H   0  0  0  0  0  0  0  0  0  0  0  0
    2.9168   -5.0268   -0.3761 H   0  0  0  0  0  0  0  0  0  0  0  0
    1.3529   -5.3092    0.3872 H   0  0  0  0  0  0  0  0  0  0  0  0
    2.8399   -5.5842    1.2962 H   0  0  0  0  0  0  0  0  0  0  0  0
   -0.4696    0.1652   -1.9194 C   0  0  0  0  0  0  0  0  0  0  0  0
   -0.4696    0.1652   -0.3965 C   0  0  0  0  0  3  0  0  0  0  0  0
   -0.4696    1.5582    0.1991 C   0  0  0  0  0  0  0  0  0  0  0  0
   -1.6526    2.2218   -0.1685 O   0  0  0  0  0  0  0  0  0  0  0  0
   -1.7233    3.5399    0.3124 C   0  0  0  0  0  0  0  0  0  0  0  0
   -3.0267    4.1577   -0.1385 C   0  0  0  0  0  0  0  0  0  0  0  0
    0.4124    0.6795   -2.3090 H   0  0  0  0  0  0  0  0  0  0  0  0
   -1.3524    0.6749   -2.3054 H   0  0  0  0  0  0  0  0  0  0  0  0
   -0.4642   -0.8527   -2.3120 H   0  0  0  0  0  0  0  0  0  0  0  0
    0.5882   -0.4666    0.0551 H   0  0  0  0  0  0  0  0  0  0  0  0
   -1.3440   -0.3728   -0.0212 H   0  0  0  0  0  0  0  0  0  0  0  0
    0.4046    2.1233   -0.1613 H   0  0  0  0  0  0  0  0  0  0  0  0
   -0.3948    1.5043    1.2951 H   0  0  0  0  0  0  0  0  0  0  0  0
   -1.6561    3.5428    1.4104 H   0  0  0  0  0  0  0  0  0  0  0  0
   -0.8705    4.1229   -0.0655 H   0  0  0  0  0  0  0  0  0  0  0  0
   -3.8730    3.5883    0.2472 H   0  0  0  0  0  0  0  0  0  0  0  0
   -3.0875    4.1695   -1.2273 H   0  0  0  0  0  0  0  0  0  0  0  0
   -3.1043    5.1837    0.2246 H   0  0  0  0  0  0  0  0  0  0  0  0
  1  2  1  0
  1  5  1  0
  1  6  1  0
  1 23  1  0
  2  3  1  0
  2  7  1  0
  2  8  1  0
  3  4  1  0
  3  9  1  0
  3 10  1  0
  4 11  1  0
  4 12  1  0
  4 13  1  0
 14 15  1  0
 14 20  1  0
 14 21  1  0
 14 22  1  0
 15 16  1  0
 15 24  1  0
 16 17  1  0
 16 25  1  0
 16 26  1  0
 17 18  1  0
 18 19  1  0
 18 27  1  0
 18 28  1  0
 19 29  1  0
 19 30  1  0
 19 31  1  0
M  RAD  1  15   2
M  END
>  <reaction>  (8) 
rmg_rxn_216

>  <mol_properties>  (8) 
{"0": {"label": "*3", "atom_type": "Cs"}, "1": {"label": "*4", "atom_type": "Cs"}, "14": {"label": "*1", "atom_type": "Cs"}, "15": {"label": "*0", "atom_type": "Cs"}, "22": {"label": "*2", "atom_type": "H0"}}

>  <type>  (8) 
unop_4

>  <geom_source>  (8) 
Heuristics

$$$$

     RDKit          3D

 31 29  0  0  0  0  0  0  0  0999 V2000
    1.5289   -1.7123   -0.2024 C   0  0  0  0  0  0  0  0  0  0  0  0
    1.5608   -1.7314    1.3199 C   0  0  0  0  0  0  0  0  0  0  0  0
    2.7770   -2.4577    1.8829 C   0  0  0  0  0  0  0  0  0  0  0  0
    2.8089   -2.4768    3.4051 C   0  0  0  0  0  0  0  0  0  0  0  0
    1.5093   -2.7274   -0.6061 H   0  0  0  0  0  0  0  0  0  0  0  0
    2.4133   -1.2138   -0.6061 H   0  0  0  0  0  0  0  0  0  0  0  0
    0.6513   -2.2074    1.7004 H   0  0  0  0  0  0  0  0  0  0  0  0
    1.5487   -0.7049    1.7004 H   0  0  0  0  0  0  0  0  0  0  0  0
    2.7892   -3.4842    1.5023 H   0  0  0  0  0  0  0  0  0  0  0  0
    3.6865   -1.9817    1.5023 H   0  0  0  0  0  0  0  0  0  0  0  0
    1.9245   -2.9753    3.8089 H   0  0  0  0  0  0  0  0  0  0  0  0
    2.8285   -1.4617    3.8089 H   0  0  0  0  0  0  0  0  0  0  0  0
    3.6885   -3.0021    3.7806 H   0  0  0  0  0  0  0  0  0  0  0  0
   -0.5845   -0.4502   -2.6274 C   0  0  0  0  0  0  0  0  0  0  0  0
   -0.5845   -0.4502   -1.1045 C   0  0  0  0  0  3  0  0  0  0  0  0
   -0.5845    0.9429   -0.5089 C   0  0  0  0  0  0  0  0  0  0  0  0
   -1.7675    1.6065   -0.8765 O   0  0  0  0  0  0  0  0  0  0  0  0
   -1.8382    2.9246   -0.3957 C   0  0  0  0  0  0  0  0  0  0  0  0
   -3.1415    3.5423   -0.8465 C   0  0  0  0  0  0  0  0  0  0  0  0
    0.2976    0.0642   -3.0170 H   0  0  0  0  0  0  0  0  0  0  0  0
   -1.4672    0.0595   -3.0134 H   0  0  0  0  0  0  0  0  0  0  0  0
   -0.5790   -1.4680   -3.0200 H   0  0  0  0  0  0  0  0  0  0  0  0
    0.4734   -1.0819   -0.6529 H   0  0  0  0  0  0  0  0  0  0  0  0
   -1.4588   -0.9881   -0.7292 H   0  0  0  0  0  0  0  0  0  0  0  0
    0.2897    1.5080   -0.8693 H   0  0  0  0  0  0  0  0  0  0  0  0
   -0.5097    0.8890    0.5871 H   0  0  0  0  0  0  0  0  0  0  0  0
   -1.7709    2.9274    0.7024 H   0  0  0  0  0  0  0  0  0  0  0  0
   -0.9853    3.5075   -0.7735 H   0  0  0  0  0  0  0  0  0  0  0  0
   -3.9879    2.9729   -0.4608 H   0  0  0  0  0  0  0  0  0  0  0  0
   -3.2023    3.5542   -1.9353 H   0  0  0  0  0  0  0  0  0  0  0  0
   -3.2191    4.5684   -0.4834 H   0  0  0  0  0  0  0  0  0  0  0  0
  1  2  1  0
  1  5  1  0
  1  6  1  0
  1 23  1  0
  2  3  1  0
  2  7  1  0
  2  8  1  0
  3  4  1  0
  3  9  1  0
  3 10  1  0
  4 11  1  0
  4 12  1  0
  4 13  1  0
 14 15  1  0
 14 20  1  0
 14 21  1  0
 14 22  1  0
 15 16  1  0
 15 24  1  0
 16 17  1  0
 16 25  1  0
 16 26  1  0
 17 18  1  0
 18 19  1  0
 18 27  1  0
 18 28  1  0
 19 29  1  0
 19 30  1  0
 19 31  1  0
M  RAD  1  15   2
M  END
>  <reaction>  (9) 
rmg_rxn_216

>  <mol_properties>  (9) 
{"0": {"label": "*3", "atom_type": "Cs"}, "1": {"label": "*4", "atom_type": "Cs"}, "14": {"label": "*1", "atom_type": "Cs"}, "15": {"label": "*0", "atom_type": "Cs"}, "22": {"label": "*2", "atom_type": "H0"}}

>  <type>  (9) 
unop_5

>  <geom_source>  (9) 
Heuristics

$$$$

     RDKit          3D

 31 29  0  0  0  0  0  0  0  0999 V2000
    1.7691   -1.1581    0.1871 C   0  0  0  0  0  0  0  0  0  0  0  0
    1.4931   -2.6432    0.3793 C   0  0  0  0  0  0  0  0  0  0  0  0
    2.1387   -3.2128    1.6372 C   0  0  0  0  0  0  0  0  0  0  0  0
    1.8628   -4.6979    1.8294 C   0  0  0  0  0  0  0  0  0  0  0  0
    2.8419   -0.9662    0.1098 H   0  0  0  0  0  0  0  0  0  0  0  0
    1.3900   -0.5771    1.0312 H   0  0  0  0  0  0  0  0  0  0  0  0
    1.8537   -3.1996   -0.4919 H   0  0  0  0  0  0  0  0  0  0  0  0
    0.4125   -2.8134    0.4227 H   0  0  0  0  0  0  0  0  0  0  0  0
    3.2194   -3.0426    1.5938 H   0  0  0  0  0  0  0  0  0  0  0  0
    1.7781   -2.6564    2.5084 H   0  0  0  0  0  0  0  0  0  0  0  0
    2.2419   -5.2789    0.9853 H   0  0  0  0  0  0  0  0  0  0  0  0
    0.7900   -4.8899    1.9067 H   0  0  0  0  0  0  0  0  0  0  0  0
    2.3359   -5.0790    2.7359 H   0  0  0  0  0  0  0  0  0  0  0  0
   -0.3443    0.1040   -2.2379 C   0  0  0  0  0  0  0  0  0  0  0  0
   -0.3443    0.1040   -0.7150 C   0  0  0  0  0  3  0  0  0  0  0  0
   -0.3443    1.4971   -0.1195 C   0  0  0  0  0  0  0  0  0  0  0  0
   -1.5273    2.1607   -0.4871 O   0  0  0  0  0  0  0  0  0  0  0  0
   -1.5980    3.4788   -0.0062 C   0  0  0  0  0  0  0  0  0  0  0  0
   -2.9014    4.0966   -0.4570 C   0  0  0  0  0  0  0  0  0  0  0  0
    0.5377    0.6184   -2.6276 H   0  0  0  0  0  0  0  0  0  0  0  0
   -1.2271    0.6137   -2.6240 H   0  0  0  0  0  0  0  0  0  0  0  0
   -0.3389   -0.9138   -2.6306 H   0  0  0  0  0  0  0  0  0  0  0  0
    0.7135   -0.5277   -0.2635 H   0  0  0  0  0  0  0  0  0  0  0  0
   -1.2187   -0.4339   -0.3398 H   0  0  0  0  0  0  0  0  0  0  0  0
    0.5299    2.0622   -0.4799 H   0  0  0  0  0  0  0  0  0  0  0  0
   -0.2695    1.4432    0.9765 H   0  0  0  0  0  0  0  0  0  0  0  0
   -1.5308    3.4816    1.0919 H   0  0  0  0  0  0  0  0  0  0  0  0
   -0.7452    4.0617   -0.3841 H   0  0  0  0  0  0  0  0  0  0  0  0
   -3.7477    3.5271   -0.0714 H   0  0  0  0  0  0  0  0  0  0  0  0
   -2.9622    4.1084   -1.5459 H   0  0  0  0  0  0  0  0  0  0  0  0
   -2.9790    5.1226   -0.0940 H   0  0  0  0  0  0  0  0  0  0  0  0
  1  2  1  0
  1  5  1  0
  1  6  1  0
  1 23  1  0
  2  3  1  0
  2  7  1  0
  2  8  1  0
  3  4  1  0
  3  9  1  0
  3 10  1  0
  4 11  1  0
  4 12  1  0
  4 13  1  0
 14 15  1  0
 14 20  1  0
 14 21  1  0
 14 22  1  0
 15 16  1  0
 15 24  1  0
 16 17  1  0
 16 25  1  0
 16 26  1  0
 17 18  1  0
 18 19  1  0
 18 27  1  0
 18 28  1  0
 19 29  1  0
 19 30  1  0
 19 31  1  0
M  RAD  1  15   2
M  END
>  <reaction>  (10) 
rmg_rxn_216

>  <mol_properties>  (10) 
{"0": {"label": "*3", "atom_type": "Cs"}, "1": {"label": "*4", "atom_type": "Cs"}, "14": {"label": "*1", "atom_type": "Cs"}, "15": {"label": "*0", "atom_type": "Cs"}, "22": {"label": "*2", "atom_type": "H0"}}

>  <type>  (10) 
unop_6

>  <geom_source>  (10) 
Heuristics

$$$$

     RDKit          3D

 31 29  0  0  0  0  0  0  0  0999 V2000
    1.7641   -1.3555   -0.0726 C   0  0  0  0  0  0  0  0  0  0  0  0
    1.3762   -2.5527    0.7846 C   0  0  0  0  0  0  0  0  0  0  0  0
    2.2644   -2.7215    2.0119 C   0  0  0  0  0  0  0  0  0  0  0  0
    1.8766   -3.9187    2.8691 C   0  0  0  0  0  0  0  0  0  0  0  0
    2.7914   -1.4484   -0.4328 H   0  0  0  0  0  0  0  0  0  0  0  0
    1.6978   -0.4268    0.4992 H   0  0  0  0  0  0  0  0  0  0  0  0
    1.4204   -3.4656    0.1820 H   0  0  0  0  0  0  0  0  0  0  0  0
    0.3349   -2.4515    1.1072 H   0  0  0  0  0  0  0  0  0  0  0  0
    3.3057   -2.8226    1.6893 H   0  0  0  0  0  0  0  0  0  0  0  0
    2.2202   -1.8085    2.6144 H   0  0  0  0  0  0  0  0  0  0  0  0
    1.9428   -4.8474    2.2973 H   0  0  0  0  0  0  0  0  0  0  0  0
    0.8493   -3.8257    3.2293 H   0  0  0  0  0  0  0  0  0  0  0  0
    2.5277   -4.0157    3.7394 H   0  0  0  0  0  0  0  0  0  0  0  0
   -0.3493   -0.0933   -2.4976 C   0  0  0  0  0  0  0  0  0  0  0  0
   -0.3493   -0.0933   -0.9747 C   0  0  0  0  0  3  0  0  0  0  0  0
   -0.3493    1.2998   -0.3792 C   0  0  0  0  0  0  0  0  0  0  0  0
   -1.5323    1.9634   -0.7468 O   0  0  0  0  0  0  0  0  0  0  0  0
   -1.6030    3.2814   -0.2659 C   0  0  0  0  0  0  0  0  0  0  0  0
   -2.9064    3.8992   -0.7167 C   0  0  0  0  0  0  0  0  0  0  0  0
    0.5327    0.4210   -2.8872 H   0  0  0  0  0  0  0  0  0  0  0  0
   -1.2320    0.4164   -2.8837 H   0  0  0  0  0  0  0  0  0  0  0  0
   -0.3438   -1.1112   -2.8903 H   0  0  0  0  0  0  0  0  0  0  0  0
    0.7085   -0.7250   -0.5232 H   0  0  0  0  0  0  0  0  0  0  0  0
   -1.2237   -0.6313   -0.5994 H   0  0  0  0  0  0  0  0  0  0  0  0
    0.5249    1.8649   -0.7396 H   0  0  0  0  0  0  0  0  0  0  0  0
   -0.2745    1.2459    0.7168 H   0  0  0  0  0  0  0  0  0  0  0  0
   -1.5358    3.2843    0.8322 H   0  0  0  0  0  0  0  0  0  0  0  0
   -0.7502    3.8644   -0.6438 H   0  0  0  0  0  0  0  0  0  0  0  0
   -3.7527    3.3298   -0.3311 H   0  0  0  0  0  0  0  0  0  0  0  0
   -2.9672    3.9111   -1.8056 H   0  0  0  0  0  0  0  0  0  0  0  0
   -2.9840    4.9252   -0.3537 H   0  0  0  0  0  0  0  0  0  0  0  0
  1  2  1  0
  1  5  1  0
  1  6  1  0
  1 23  1  0
  2  3  1  0
  2  7  1  0
  2  8  1  0
  3  4  1  0
  3  9  1  0
  3 10  1  0
  4 11  1  0
  4 12  1  0
  4 13  1  0
 14 15  1  0
 14 20  1  0
 14 21  1  0
 14 22  1  0
 15 16  1  0
 15 24  1  0
 16 17  1  0
 16 25  1  0
 16 26  1  0
 17 18  1  0
 18 19  1  0
 18 27  1  0
 18 28  1  0
 19 29  1  0
 19 30  1  0
 19 31  1  0
M  RAD  1  15   2
M  END
>  <reaction>  (11) 
rmg_rxn_216

>  <mol_properties>  (11) 
{"0": {"label": "*3", "atom_type": "Cs"}, "1": {"label": "*4", "atom_type": "Cs"}, "14": {"label": "*1", "atom_type": "Cs"}, "15": {"label": "*0", "atom_type": "Cs"}, "22": {"label": "*2", "atom_type": "H0"}}

>  <type>  (11) 
unop_7

>  <geom_source>  (11) 
Heuristics

$$$$

     RDKit          3D

 31 29  0  0  0  0  0  0  0  0999 V2000
    1.1549   -2.1865    0.1871 C   0  0  0  0  0  0  0  0  0  0  0  0
    2.3315   -1.2394    0.3793 C   0  0  0  0  0  0  0  0  0  0  0  0
    3.1392   -1.5377    1.6372 C   0  0  0  0  0  0  0  0  0  0  0  0
    4.3158   -0.5905    1.8294 C   0  0  0  0  0  0  0  0  0  0  0  0
    0.4636   -2.1283    1.0312 H   0  0  0  0  0  0  0  0  0  0  0  0
    1.4946   -3.2221    0.1098 H   0  0  0  0  0  0  0  0  0  0  0  0
    1.9690   -0.2073    0.4227 H   0  0  0  0  0  0  0  0  0  0  0  0
    2.9924   -1.2930   -0.4919 H   0  0  0  0  0  0  0  0  0  0  0  0
    2.4783   -1.4840    2.5084 H   0  0  0  0  0  0  0  0  0  0  0  0
    3.5017   -2.5698    1.5938 H   0  0  0  0  0  0  0  0  0  0  0  0
    3.9761    0.4450    1.9067 H   0  0  0  0  0  0  0  0  0  0  0  0
    5.0071   -0.6488    0.9853 H   0  0  0  0  0  0  0  0  0  0  0  0
    4.8757   -0.8264    2.7359 H   0  0  0  0  0  0  0  0  0  0  0  0
   -0.9585   -0.9244   -2.2379 C   0  0  0  0  0  0  0  0  0  0  0  0
   -0.9585   -0.9244   -0.7150 C   0  0  0  0  0  3  0  0  0  0  0  0
   -0.9585    0.4687   -0.1195 C   0  0  0  0  0  0  0  0  0  0  0  0
   -2.1415    1.1323   -0.4871 O   0  0  0  0  0  0  0  0  0  0  0  0
   -2.2123    2.4503   -0.0062 C   0  0  0  0  0  0  0  0  0  0  0  0
   -3.5156    3.0681   -0.4570 C   0  0  0  0  0  0  0  0  0  0  0  0
   -0.0765   -0.4101   -2.6276 H   0  0  0  0  0  0  0  0  0  0  0  0
   -1.8413   -0.4147   -2.6240 H   0  0  0  0  0  0  0  0  0  0  0  0
   -0.9531   -1.9422   -2.6306 H   0  0  0  0  0  0  0  0  0  0  0  0
    0.0993   -1.5561   -0.2635 H   0  0  0  0  0  0  0  0  0  0  0  0
   -1.8329   -1.4624   -0.3398 H   0  0  0  0  0  0  0  0  0  0  0  0
   -0.0843    1.0338   -0.4799 H   0  0  0  0  0  0  0  0  0  0  0  0
   -0.8838    0.4148    0.9765 H   0  0  0  0  0  0  0  0  0  0  0  0
   -2.1450    2.4532    1.0919 H   0  0  0  0  0  0  0  0  0  0  0  0
   -1.3594    3.0333   -0.3841 H   0  0  0  0  0  0  0  0  0  0  0  0
   -4.3619    2.4987   -0.0714 H   0  0  0  0  0  0  0  0  0  0  0  0
   -3.5764    3.0800   -1.5459 H   0  0  0  0  0  0  0  0  0  0  0  0
   -3.5932    4.0941   -0.0940 H   0  0  0  0  0  0  0  0  0  0  0  0
  1  2  1  0
  1  5  1  0
  1  6  1  0
  1 23  1  0
  2  3  1  0
  2  7  1  0
  2  8  1  0
  3  4  1  0
  3  9  1  0
  3 10  1  0
  4 11  1  0
  4 12  1  0
  4 13  1  0
 14 15  1  0
 14 20  1  0
 14 21  1  0
 14 22  1  0
 15 16  1  0
 15 24  1  0
 16 17  1  0
 16 25  1  0
 16 26  1  0
 17 18  1  0
 18 19  1  0
 18 27  1  0
 18 28  1  0
 19 29  1  0
 19 30  1  0
 19 31  1  0
M  RAD  1  15   2
M  END
>  <reaction>  (12) 
rmg_rxn_216

>  <mol_properties>  (12) 
{"0": {"label": "*3", "atom_type": "Cs"}, "1": {"label": "*4", "atom_type": "Cs"}, "14": {"label": "*1", "atom_type": "Cs"}, "15": {"label": "*0", "atom_type": "Cs"}, "22": {"label": "*2", "atom_type": "H0"}}

>  <type>  (12) 
unop_8

>  <geom_source>  (12) 
Heuristics

$$$$

     RDKit          3D

 31 29  0  0  0  0  0  0  0  0999 V2000
    1.4227   -1.2212    0.7720 C   0  0  0  0  0  0  0  0  0  0  0  0
    1.8723   -2.3146   -0.1876 C   0  0  0  0  0  0  0  0  0  0  0  0
    2.7920   -3.3405    0.4645 C   0  0  0  0  0  0  0  0  0  0  0  0
    3.2416   -4.4340   -0.4951 C   0  0  0  0  0  0  0  0  0  0  0  0
    2.2799   -0.6733    1.1704 H   0  0  0  0  0  0  0  0  0  0  0  0
    0.8785   -1.6440    1.6199 H   0  0  0  0  0  0  0  0  0  0  0  0
    2.3869   -1.8643   -1.0425 H   0  0  0  0  0  0  0  0  0  0  0  0
    0.9958   -2.8279   -0.5963 H   0  0  0  0  0  0  0  0  0  0  0  0
    3.6685   -2.8273    0.8732 H   0  0  0  0  0  0  0  0  0  0  0  0
    2.2773   -3.7909    1.3194 H   0  0  0  0  0  0  0  0  0  0  0  0
    3.7858   -4.0112   -1.3430 H   0  0  0  0  0  0  0  0  0  0  0  0
    2.3844   -4.9819   -0.8935 H   0  0  0  0  0  0  0  0  0  0  0  0
    3.8979   -5.1536   -0.0029 H   0  0  0  0  0  0  0  0  0  0  0  0
   -0.6907    0.0410   -1.6530 C   0  0  0  0  0  0  0  0  0  0  0  0
   -0.6907    0.0410   -0.1301 C   0  0  0  0  0  3  0  0  0  0  0  0
   -0.6907    1.4340    0.4654 C   0  0  0  0  0  0  0  0  0  0  0  0
   -1.8737    2.0976    0.0978 O   0  0  0  0  0  0  0  0  0  0  0  0
   -1.9445    3.4157    0.5787 C   0  0  0  0  0  0  0  0  0  0  0  0
   -3.2478    4.0335    0.1279 C   0  0  0  0  0  0  0  0  0  0  0  0
    0.1913    0.5553   -2.0426 H   0  0  0  0  0  0  0  0  0  0  0  0
   -1.5735    0.5507   -2.0391 H   0  0  0  0  0  0  0  0  0  0  0  0
   -0.6853   -0.9769   -2.0457 H   0  0  0  0  0  0  0  0  0  0  0  0
    0.3671   -0.5908    0.3214 H   0  0  0  0  0  0  0  0  0  0  0  0
   -1.5651   -0.4970    0.2452 H   0  0  0  0  0  0  0  0  0  0  0  0
    0.1835    1.9991    0.1050 H   0  0  0  0  0  0  0  0  0  0  0  0
   -0.6159    1.3801    1.5614 H   0  0  0  0  0  0  0  0  0  0  0  0
   -1.8772    3.4186    1.6768 H   0  0  0  0  0  0  0  0  0  0  0  0
   -1.0916    3.9987    0.2008 H   0  0  0  0  0  0  0  0  0  0  0  0
   -4.0941    3.4641    0.5135 H   0  0  0  0  0  0  0  0  0  0  0  0
   -3.3086    4.0453   -0.9610 H   0  0  0  0  0  0  0  0  0  0  0  0
   -3.3254    5.0595    0.4909 H   0  0  0  0  0  0  0  0  0  0  0  0
  1  2  1  0
  1  5  1  0
  1  6  1  0
  1 23  1  0
  2  3  1  0
  2  7  1  0
  2  8  1  0
  3  4  1  0
  3  9  1  0
  3 10  1  0
  4 11  1  0
  4 12  1  0
  4 13  1  0
 14 15  1  0
 14 20  1  0
 14 21  1  0
 14 22  1  0
 15 16  1  0
 15 24  1  0
 16 17  1  0
 16 25  1  0
 16 26  1  0
 17 18  1  0
 18 19  1  0
 18 27  1  0
 18 28  1  0
 19 29  1  0
 19 30  1  0
 19 31  1  0
M  RAD  1  15   2
M  END
>  <reaction>  (13) 
rmg_rxn_216

>  <mol_properties>  (13) 
{"0": {"label": "*3", "atom_type": "Cs"}, "1": {"label": "*4", "atom_type": "Cs"}, "14": {"label": "*1", "atom_type": "Cs"}, "15": {"label": "*0", "atom_type": "Cs"}, "22": {"label": "*2", "atom_type": "H0"}}

>  <type>  (13) 
unop_9

>  <geom_source>  (13) 
Heuristics

$$$$

     RDKit          3D

 31 29  0  0  0  0  0  0  0  0999 V2000
    1.0416   -2.1052    0.5057 C   0  0  0  0  0  0  0  0  0  0  0  0
    2.3302   -1.4459    0.0329 C   0  0  0  0  0  0  0  0  0  0  0  0
    3.4717   -1.5794    1.0342 C   0  0  0  0  0  0  0  0  0  0  0  0
    4.7603   -0.9201    0.5615 C   0  0  0  0  0  0  0  0  0  0  0  0
    0.6968   -1.6628    1.4433 H   0  0  0  0  0  0  0  0  0  0  0  0
    1.1897   -3.1736    0.6800 H   0  0  0  0  0  0  0  0  0  0  0  0
    2.1488   -0.3844   -0.1643 H   0  0  0  0  0  0  0  0  0  0  0  0
    2.6381   -1.8842   -0.9219 H   0  0  0  0  0  0  0  0  0  0  0  0
    3.1638   -1.1411    1.9891 H   0  0  0  0  0  0  0  0  0  0  0  0
    3.6531   -2.6409    1.2314 H   0  0  0  0  0  0  0  0  0  0  0  0
    4.6122    0.1483    0.3872 H   0  0  0  0  0  0  0  0  0  0  0  0
    5.1052   -1.3626   -0.3761 H   0  0  0  0  0  0  0  0  0  0  0  0
    5.5595   -1.0305    1.2962 H   0  0  0  0  0  0  0  0  0  0  0  0
   -1.0718   -0.8431   -1.9194 C   0  0  0  0  0  0  0  0  0  0  0  0
   -1.0718   -0.8431   -0.3965 C   0  0  0  0  0  3  0  0  0  0  0  0
   -1.0718    0.5500    0.1991 C   0  0  0  0  0  0  0  0  0  0  0  0
   -2.2548    1.2136   -0.1685 O   0  0  0  0  0  0  0  0  0  0  0  0
   -2.3255    2.5317    0.3124 C   0  0  0  0  0  0  0  0  0  0  0  0
   -3.6288    3.1494   -0.1385 C   0  0  0  0  0  0  0  0  0  0  0  0
   -0.1897   -0.3287   -2.3090 H   0  0  0  0  0  0  0  0  0  0  0  0
   -1.9545   -0.3334   -2.3054 H   0  0  0  0  0  0  0  0  0  0  0  0
   -1.0663   -1.8609   -2.3120 H   0  0  0  0  0  0  0  0  0  0  0  0
   -0.0139   -1.4748    0.0551 H   0  0  0  0  0  0  0  0  0  0  0  0
   -1.9462   -1.3810   -0.0212 H   0  0  0  0  0  0  0  0  0  0  0  0
   -0.1976    1.1151   -0.1613 H   0  0  0  0  0  0  0  0  0  0  0  0
   -0.9970    0.4961    1.2951 H   0  0  0  0  0  0  0  0  0  0  0  0
   -2.2582    2.5345    1.4104 H   0  0  0  0  0  0  0  0  0  0  0  0
   -1.4726    3.1146   -0.0655 H   0  0  0  0  0  0  0  0  0  0  0  0
   -4.4752    2.5800    0.2472 H   0  0  0  0  0  0  0  0  0  0  0  0
   -3.6896    3.1613   -1.2273 H   0  0  0  0  0  0  0  0  0  0  0  0
   -3.7064    4.1755    0.2246 H   0  0  0  0  0  0  0  0  0  0  0  0
  1  2  1  0
  1  5  1  0
  1  6  1  0
  1 23  1  0
  2  3  1  0
  2  7  1  0
  2  8  1  0
  3  4  1  0
  3  9  1  0
  3 10  1  0
  4 11  1  0
  4 12  1  0
  4 13  1  0
 14 15  1  0
 14 20  1  0
 14 21  1  0
 14 22  1  0
 15 16  1  0
 15 24  1  0
 16 17  1  0
 16 25  1  0
 16 26  1  0
 17 18  1  0
 18 19  1  0
 18 27  1  0
 18 28  1  0
 19 29  1  0
 19 30  1  0
 19 31  1  0
M  RAD  1  15   2
M  END
>  <reaction>  (14) 
rmg_rxn_216

>  <mol_properties>  (14) 
{"0": {"label": "*3", "atom_type": "Cs"}, "1": {"label": "*4", "atom_type": "Cs"}, "14": {"label": "*1", "atom_type": "Cs"}, "15": {"label": "*0", "atom_type": "Cs"}, "22": {"label": "*2", "atom_type": "H0"}}

>  <type>  (14) 
unop_10

>  <geom_source>  (14) 
Heuristics

$$$$

     RDKit          3D

 31 29  0  0  0  0  0  0  0  0999 V2000
    1.6461   -1.5806   -0.1948 C   0  0  0  0  0  0  0  0  0  0  0  0
    1.3709   -2.2412    1.1493 C   0  0  0  0  0  0  0  0  0  0  0  0
    2.6145   -2.3588    2.0229 C   0  0  0  0  0  0  0  0  0  0  0  0
    2.3393   -3.0194    3.3669 C   0  0  0  0  0  0  0  0  0  0  0  0
    2.3846   -2.1482   -0.7660 H   0  0  0  0  0  0  0  0  0  0  0  0
    2.0386   -0.5697   -0.0610 H   0  0  0  0  0  0  0  0  0  0  0  0
    0.9502   -3.2391    0.9888 H   0  0  0  0  0  0  0  0  0  0  0  0
    0.6067   -1.6722    1.6886 H   0  0  0  0  0  0  0  0  0  0  0  0
    3.3787   -2.9277    1.4835 H   0  0  0  0  0  0  0  0  0  0  0  0
    3.0353   -1.3609    2.1833 H   0  0  0  0  0  0  0  0  0  0  0  0
    1.9469   -4.0302    3.2331 H   0  0  0  0  0  0  0  0  0  0  0  0
    1.6009   -2.4517    3.9381 H   0  0  0  0  0  0  0  0  0  0  0  0
    3.2453   -3.0906    3.9710 H   0  0  0  0  0  0  0  0  0  0  0  0
   -0.4673   -0.3184   -2.6198 C   0  0  0  0  0  0  0  0  0  0  0  0
   -0.4673   -0.3184   -1.0969 C   0  0  0  0  0  3  0  0  0  0  0  0
   -0.4673    1.0746   -0.5014 C   0  0  0  0  0  0  0  0  0  0  0  0
   -1.6503    1.7382   -0.8690 O   0  0  0  0  0  0  0  0  0  0  0  0
   -1.7210    3.0563   -0.3881 C   0  0  0  0  0  0  0  0  0  0  0  0
   -3.0243    3.6741   -0.8389 C   0  0  0  0  0  0  0  0  0  0  0  0
    0.4148    0.1959   -3.0094 H   0  0  0  0  0  0  0  0  0  0  0  0
   -1.3500    0.1913   -3.0059 H   0  0  0  0  0  0  0  0  0  0  0  0
   -0.4618   -1.3363   -3.0125 H   0  0  0  0  0  0  0  0  0  0  0  0
    0.5906   -0.9502   -0.6454 H   0  0  0  0  0  0  0  0  0  0  0  0
   -1.3416   -0.8564   -0.7216 H   0  0  0  0  0  0  0  0  0  0  0  0
    0.4069    1.6397   -0.8618 H   0  0  0  0  0  0  0  0  0  0  0  0
   -0.3925    1.0207    0.5947 H   0  0  0  0  0  0  0  0  0  0  0  0
   -1.6537    3.0592    0.7100 H   0  0  0  0  0  0  0  0  0  0  0  0
   -0.8681    3.6393   -0.7660 H   0  0  0  0  0  0  0  0  0  0  0  0
   -3.8707    3.1047   -0.4532 H   0  0  0  0  0  0  0  0  0  0  0  0
   -3.0851    3.6859   -1.9277 H   0  0  0  0  0  0  0  0  0  0  0  0
   -3.1019    4.7001   -0.4759 H   0  0  0  0  0  0  0  0  0  0  0  0
  1  2  1  0
  1  5  1  0
  1  6  1  0
  1 23  1  0
  2  3  1  0
  2  7  1  0
  2  8  1  0
  3  4  1  0
  3  9  1  0
  3 10  1  0
  4 11  1  0
  4 12  1  0
  4 13  1  0
 14 15  1  0
 14 20  1  0
 14 21  1  0
 14 22  1  0
 15 16  1  0
 15 24  1  0
 16 17  1  0
 16 25  1  0
 16 26  1  0
 17 18  1  0
 18 19  1  0
 18 27  1  0
 18 28  1  0
 19 29  1  0
 19 30  1  0
 19 31  1  0
M  RAD  1  15   2
M  END
>  <reaction>  (15) 
rmg_rxn_216

>  <mol_properties>  (15) 
{"0": {"label": "*3", "atom_type": "Cs"}, "1": {"label": "*4", "atom_type": "Cs"}, "14": {"label": "*1", "atom_type": "Cs"}, "15": {"label": "*0", "atom_type": "Cs"}, "22": {"label": "*2", "atom_type": "H0"}}

>  <type>  (15) 
unop_11

>  <geom_source>  (15) 
Heuristics

$$$$

     RDKit          3D

 31 29  0  0  0  0  0  0  0  0999 V2000
    1.1892   -1.5094    0.8774 C   0  0  0  0  0  0  0  0  0  0  0  0
    2.0580   -2.0283   -0.2604 C   0  0  0  0  0  0  0  0  0  0  0  0
    3.2985   -2.7692    0.2253 C   0  0  0  0  0  0  0  0  0  0  0  0
    4.1674   -3.2881   -0.9125 C   0  0  0  0  0  0  0  0  0  0  0  0
    1.7472   -0.8159    1.5110 H   0  0  0  0  0  0  0  0  0  0  0  0
    0.8432   -2.3296    1.5110 H   0  0  0  0  0  0  0  0  0  0  0  0
    2.3661   -1.1931   -0.8976 H   0  0  0  0  0  0  0  0  0  0  0  0
    1.4688   -2.6956   -0.8976 H   0  0  0  0  0  0  0  0  0  0  0  0
    3.8878   -2.1019    0.8625 H   0  0  0  0  0  0  0  0  0  0  0  0
    2.9905   -3.6044    0.8625 H   0  0  0  0  0  0  0  0  0  0  0  0
    4.5133   -2.4679   -1.5461 H   0  0  0  0  0  0  0  0  0  0  0  0
    3.6094   -3.9816   -1.5461 H   0  0  0  0  0  0  0  0  0  0  0  0
    5.0470   -3.8134   -0.5370 H   0  0  0  0  0  0  0  0  0  0  0  0
   -0.9242   -0.2473   -1.5476 C   0  0  0  0  0  0  0  0  0  0  0  0
   -0.9242   -0.2473   -0.0247 C   0  0  0  0  0  3  0  0  0  0  0  0
   -0.9242    1.1458    0.5708 C   0  0  0  0  0  0  0  0  0  0  0  0
   -2.1072    1.8094    0.2032 O   0  0  0  0  0  0  0  0  0  0  0  0
   -2.1779    3.1274    0.6841 C   0  0  0  0  0  0  0  0  0  0  0  0
   -3.4812    3.7452    0.2333 C   0  0  0  0  0  0  0  0  0  0  0  0
   -0.0421    0.2671   -1.9373 H   0  0  0  0  0  0  0  0  0  0  0  0
   -1.8069    0.2624   -1.9337 H   0  0  0  0  0  0  0  0  0  0  0  0
   -0.9187   -1.2651   -1.9403 H   0  0  0  0  0  0  0  0  0  0  0  0
    0.1336   -0.8790    0.4268 H   0  0  0  0  0  0  0  0  0  0  0  0
   -1.7986   -0.7852    0.3505 H   0  0  0  0  0  0  0  0  0  0  0  0
   -0.0500    1.7109    0.2104 H   0  0  0  0  0  0  0  0  0  0  0  0
   -0.8494    1.0919    1.6668 H   0  0  0  0  0  0  0  0  0  0  0  0
   -2.1106    3.1303    1.7822 H   0  0  0  0  0  0  0  0  0  0  0  0
   -1.3250    3.7104    0.3062 H   0  0  0  0  0  0  0  0  0  0  0  0
   -4.3276    3.1758    0.6189 H   0  0  0  0  0  0  0  0  0  0  0  0
   -3.5420    3.7571   -0.8556 H   0  0  0  0  0  0  0  0  0  0  0  0
   -3.5588    4.7713    0.5963 H   0  0  0  0  0  0  0  0  0  0  0  0
  1  2  1  0
  1  5  1  0
  1  6  1  0
  1 23  1  0
  2  3  1  0
  2  7  1  0
  2  8  1  0
  3  4  1  0
  3  9  1  0
  3 10  1  0
  4 11  1  0
  4 12  1  0
  4 13  1  0
 14 15  1  0
 14 20  1  0
 14 21  1  0
 14 22  1  0
 15 16  1  0
 15 24  1  0
 16 17  1  0
 16 25  1  0
 16 26  1  0
 17 18  1  0
 18 19  1  0
 18 27  1  0
 18 28  1  0
 19 29  1  0
 19 30  1  0
 19 31  1  0
M  RAD  1  15   2
M  END
>  <reaction>  (16) 
rmg_rxn_216

>  <mol_properties>  (16) 
{"0": {"label": "*3", "atom_type": "Cs"}, "1": {"label": "*4", "atom_type": "Cs"}, "14": {"label": "*1", "atom_type": "Cs"}, "15": {"label": "*0", "atom_type": "Cs"}, "22": {"label": "*2", "atom_type": "H0"}}

>  <type>  (16) 
unop_12

>  <geom_source>  (16) 
Heuristics

$$$$

     RDKit          3D

 31 29  0  0  0  0  0  0  0  0999 V2000
   -2.3243    0.4904   -0.0770 O   0  0  0  0  0  0  0  0  0  0  0  0
    3.5840    0.2216   -0.6158 C   0  0  0  0  0  0  0  0  0  0  0  0
    2.1152    0.2612   -0.1802 C   0  0  0  0  0  0  0  0  0  0  0  0
   -3.6638    0.5980   -0.5096 C   0  0  0  0  0  0  0  0  0  0  0  0
   -2.1469   -0.7322    0.6047 C   0  0  0  0  0  0  0  0  0  0  0  0
    4.2340    1.5959   -0.4857 C   0  0  0  0  0  0  0  0  0  0  0  0
    1.4645   -1.1117   -0.3098 C   0  0  0  0  0  0  0  0  0  0  0  0
   -3.8460    1.9162   -1.2460 C   0  0  0  0  0  0  0  0  0  0  0  0
   -0.4162   -2.1481    1.7780 C   0  0  0  0  0  0  0  0  0  0  0  0
   -0.6978   -0.8275    1.0709 C   0  0  0  0  0  3  0  0  0  0  0  0
    4.1434   -0.5021    0.0165 H   0  0  0  0  0  0  0  0  0  0  0  0
    3.6523   -0.1097   -1.6751 H   0  0  0  0  0  0  0  0  0  0  0  0
    2.0456    0.5915    0.8789 H   0  0  0  0  0  0  0  0  0  0  0  0
    1.5547    0.9838   -0.8122 H   0  0  0  0  0  0  0  0  0  0  0  0
   -4.3628    0.5845    0.3578 H   0  0  0  0  0  0  0  0  0  0  0  0
   -3.9227   -0.2299   -1.2087 H   0  0  0  0  0  0  0  0  0  0  0  0
    4.2015    1.9397    0.5701 H   0  0  0  0  0  0  0  0  0  0  0  0
    5.2952    1.5372   -0.8074 H   0  0  0  0  0  0  0  0  0  0  0  0
    3.7083    2.3338   -1.1285 H   0  0  0  0  0  0  0  0  0  0  0  0
    1.9887   -1.8502    0.3336 H   0  0  0  0  0  0  0  0  0  0  0  0
    1.4955   -1.4560   -1.3656 H   0  0  0  0  0  0  0  0  0  0  0  0
    0.2230   -1.0367    0.0680 H   0  0  0  0  0  0  0  0  0  0  0  0
   -3.1724    1.9550   -2.1282 H   0  0  0  0  0  0  0  0  0  0  0  0
   -3.6103    2.7652   -0.5696 H   0  0  0  0  0  0  0  0  0  0  0  0
   -4.8972    2.0119   -1.5910 H   0  0  0  0  0  0  0  0  0  0  0  0
   -2.3568   -1.5904   -0.0741 H   0  0  0  0  0  0  0  0  0  0  0  0
   -2.8128   -0.7866    1.4969 H   0  0  0  0  0  0  0  0  0  0  0  0
    0.6499   -2.1796    2.0847 H   0  0  0  0  0  0  0  0  0  0  0  0
   -1.0534   -2.2460    2.6826 H   0  0  0  0  0  0  0  0  0  0  0  0
   -0.6128   -2.9990    1.0922 H   0  0  0  0  0  0  0  0  0  0  0  0
   -0.4595    0.0201    1.7496 H   0  0  0  0  0  0  0  0  0  0  0  0
  1  4  1  0
  1  5  1  0
  2  6  1  0
  2  3  1  0
  2 11  1  0
  2 12  1  0
  3  7  1  0
  3 13  1  0
  3 14  1  0
  4  8  1  0
  4 15  1  0
  4 16  1  0
  5 10  1  0
  5 26  1  0
  5 27  1  0
  6 17  1  0
  6 18  1  0
  6 19  1  0
  7 20  1  0
  7 21  1  0
  7 22  1  0
  8 23  1  0
  8 24  1  0
  8 25  1  0
  9 10  1  0
  9 28  1  0
  9 29  1  0
  9 30  1  0
 10 31  1  0
M  RAD  1  10   2
M  END
>  <reaction>  (17) 
rmg_rxn_216

>  <mol_properties>  (17) 
{"0": {"label": "*3", "atom_type": "Cs"}, "1": {"label": "*4", "atom_type": "Cs"}, "14": {"label": "*1", "atom_type": "Cs"}, "15": {"label": "*0", "atom_type": "Cs"}, "22": {"label": "*2", "atom_type": "H0"}}

>  <type>  (17) 
unop_13

>  <geom_source>  (17) 
AutoTST

$$$$

     RDKit          3D

 31 29  0  0  0  0  0  0  0  0999 V2000
    1.0461   -1.8517    0.7720 C   0  0  0  0  0  0  0  0  0  0  0  0
    2.2220   -1.7290   -0.1876 C   0  0  0  0  0  0  0  0  0  0  0  0
    3.5614   -2.0523    0.4645 C   0  0  0  0  0  0  0  0  0  0  0  0
    4.7373   -1.9296   -0.4951 C   0  0  0  0  0  0  0  0  0  0  0  0
    1.1603   -1.1721    1.6199 H   0  0  0  0  0  0  0  0  0  0  0  0
    0.9702   -2.8662    1.1704 H   0  0  0  0  0  0  0  0  0  0  0  0
    2.2583   -0.7140   -0.5963 H   0  0  0  0  0  0  0  0  0  0  0  0
    2.0696   -2.3957   -1.0425 H   0  0  0  0  0  0  0  0  0  0  0  0
    3.7138   -1.3856    1.3194 H   0  0  0  0  0  0  0  0  0  0  0  0
    3.5251   -3.0673    0.8732 H   0  0  0  0  0  0  0  0  0  0  0  0
    4.8132   -0.9151   -0.8935 H   0  0  0  0  0  0  0  0  0  0  0  0
    4.6231   -2.6092   -1.3430 H   0  0  0  0  0  0  0  0  0  0  0  0
    5.6820   -2.1662   -0.0029 H   0  0  0  0  0  0  0  0  0  0  0  0
   -1.0673   -0.5895   -1.6530 C   0  0  0  0  0  0  0  0  0  0  0  0
   -1.0673   -0.5895   -0.1301 C   0  0  0  0  0  3  0  0  0  0  0  0
   -1.0673    0.8036    0.4654 C   0  0  0  0  0  0  0  0  0  0  0  0
   -2.2503    1.4672    0.0978 O   0  0  0  0  0  0  0  0  0  0  0  0
   -2.3210    2.7852    0.5787 C   0  0  0  0  0  0  0  0  0  0  0  0
   -3.6243    3.4030    0.1279 C   0  0  0  0  0  0  0  0  0  0  0  0
   -0.1852   -0.0752   -2.0427 H   0  0  0  0  0  0  0  0  0  0  0  0
   -1.9500   -0.0798   -2.0391 H   0  0  0  0  0  0  0  0  0  0  0  0
   -1.0618   -1.6074   -2.0457 H   0  0  0  0  0  0  0  0  0  0  0  0
   -0.0095   -1.2213    0.3214 H   0  0  0  0  0  0  0  0  0  0  0  0
   -1.9417   -1.1275    0.2452 H   0  0  0  0  0  0  0  0  0  0  0  0
   -0.1931    1.3686    0.1050 H   0  0  0  0  0  0  0  0  0  0  0  0
   -0.9925    0.7497    1.5615 H   0  0  0  0  0  0  0  0  0  0  0  0
   -2.2537    2.7881    1.6768 H   0  0  0  0  0  0  0  0  0  0  0  0
   -1.4681    3.3682    0.2008 H   0  0  0  0  0  0  0  0  0  0  0  0
   -4.4707    2.8336    0.5135 H   0  0  0  0  0  0  0  0  0  0  0  0
   -3.6851    3.4149   -0.9610 H   0  0  0  0  0  0  0  0  0  0  0  0
   -3.7019    4.4290    0.4909 H   0  0  0  0  0  0  0  0  0  0  0  0
  1  2  1  0
  1  5  1  0
  1  6  1  0
  1 23  1  0
  2  3  1  0
  2  7  1  0
  2  8  1  0
  3  4  1  0
  3  9  1  0
  3 10  1  0
  4 11  1  0
  4 12  1  0
  4 13  1  0
 14 15  1  0
 14 20  1  0
 14 21  1  0
 14 22  1  0
 15 16  1  0
 15 24  1  0
 16 17  1  0
 16 25  1  0
 16 26  1  0
 17 18  1  0
 18 19  1  0
 18 27  1  0
 18 28  1  0
 19 29  1  0
 19 30  1  0
 19 31  1  0
M  RAD  1  15   2
M  END
>  <reaction>  (18) 
rmg_rxn_216

>  <mol_properties>  (18) 
{"0": {"label": "*3", "atom_type": "Cs"}, "1": {"label": "*4", "atom_type": "Cs"}, "14": {"label": "*1", "atom_type": "Cs"}, "15": {"label": "*0", "atom_type": "Cs"}, "22": {"label": "*2", "atom_type": "H0"}}

>  <type>  (18) 
unop_14

>  <geom_source>  (18) 
gaussian_log

$$$$
