
     RDKit          3D

  5  4  0  0  0  0  0  0  0  0999 V2000
   -0.4583    0.0384    0.1517 N   0  0  0  0  0  0  0  0  0  0  0  0
    0.7454   -0.3487    0.5322 N   0  0  0  0  0  0  0  0  0  0  0  0
    0.7566   -1.0388    1.5193 O   0  0  0  0  0  0  0  0  0  0  0  0
   -1.2688   -0.2521    0.6850 H   0  0  0  0  0  0  0  0  0  0  0  0
   -0.5137    0.6154   -0.6670 H   0  0  0  0  0  0  0  0  0  0  0  0
  1  2  1  0
  1  4  1  0
  1  5  1  0
  2  3  2  0
M  END
>  <reaction>  (1) 
rmg_rxn_1477

>  <mol_properties>  (1) 
{"0": {"label": "donator", "atom_type": "N3s"}, "3": {"label": "d_hydrogen", "atom_type": "H0"}}

>  <type>  (1) 
r1h

$$$$

     RDKit          3D

 17 16  0  0  0  0  0  0  0  0999 V2000
   -3.2378    0.0781    0.0468 C   0  0  0  0  0  0  0  0  0  0  0  0
   -1.9072   -0.5430    0.2348 C   0  0  0  0  0  3  0  0  0  0  0  0
   -1.5607   -0.7743    1.5229 O   0  0  0  0  0  0  0  0  0  0  0  0
   -0.2678   -1.3170    1.7206 C   0  0  0  0  0  0  0  0  0  0  0  0
    0.0055   -1.4164    3.2061 C   0  0  0  0  0  0  0  0  0  0  0  0
    0.0347   -0.0632    3.9042 C   0  0  0  0  0  0  0  0  0  0  0  0
   -3.2816    1.0982    0.4537 H   0  0  0  0  0  0  0  0  0  0  0  0
   -3.4818    0.1310   -1.0144 H   0  0  0  0  0  0  0  0  0  0  0  0
   -4.0139   -0.5033    0.5509 H   0  0  0  0  0  0  0  0  0  0  0  0
   -1.0896   -0.3480   -0.4562 H   0  0  0  0  0  0  0  0  0  0  0  0
   -0.2142   -2.3036    1.2476 H   0  0  0  0  0  0  0  0  0  0  0  0
    0.4751   -0.6679    1.2371 H   0  0  0  0  0  0  0  0  0  0  0  0
   -0.7555   -2.0574    3.6583 H   0  0  0  0  0  0  0  0  0  0  0  0
    0.9642   -1.9267    3.3334 H   0  0  0  0  0  0  0  0  0  0  0  0
   -0.9209    0.4499    3.7952 H   0  0  0  0  0  0  0  0  0  0  0  0
    0.2399   -0.1765    4.9695 H   0  0  0  0  0  0  0  0  0  0  0  0
    0.8109    0.5782    3.4796 H   0  0  0  0  0  0  0  0  0  0  0  0
  1  2  1  0
  1  7  1  0
  1  8  1  0
  1  9  1  0
  2  3  1  0
  2 10  1  0
  3  4  1  0
  4  5  1  0
  4 11  1  0
  4 12  1  0
  5  6  1  0
  5 13  1  0
  5 14  1  0
  6 15  1  0
  6 16  1  0
  6 17  1  0
M  RAD  1   2   2
M  END
>  <reaction>  (2) 
rmg_rxn_1477

>  <mol_properties>  (2) 
{"1": {"label": "acceptor", "atom_type": "Cs"}}

>  <type>  (2) 
r2

$$$$

     RDKit          3D

 18 17  0  0  0  0  0  0  0  0999 V2000
    2.2026   -0.7213   -0.2612 C   0  0  0  0  0  0  0  0  0  0  0  0
    1.5384    0.2638    0.6915 C   0  0  0  0  0  0  0  0  0  0  0  0
    2.2584    1.5946    0.7694 C   0  0  0  0  0  0  0  0  0  0  0  0
    2.2212    2.2185   -0.4893 O   0  0  0  0  0  0  0  0  0  0  0  0
    2.8988    3.4488   -0.5204 C   0  0  0  0  0  0  0  0  0  0  0  0
    2.7981    4.0296   -1.9118 C   0  0  0  0  0  0  0  0  0  0  0  0
    3.2294   -0.9309    0.0486 H   0  0  0  0  0  0  0  0  0  0  0  0
    2.2338   -0.3181   -1.2734 H   0  0  0  0  0  0  0  0  0  0  0  0
    1.6610   -1.6680   -0.2875 H   0  0  0  0  0  0  0  0  0  0  0  0
    1.4990   -0.1566    1.7002 H   0  0  0  0  0  0  0  0  0  0  0  0
    0.5055    0.4455    0.3835 H   0  0  0  0  0  0  0  0  0  0  0  0
    3.3038    1.4410    1.0808 H   0  0  0  0  0  0  0  0  0  0  0  0
    1.7844    2.2410    1.5226 H   0  0  0  0  0  0  0  0  0  0  0  0
    2.4596    4.1376    0.2164 H   0  0  0  0  0  0  0  0  0  0  0  0
    3.9524    3.3035   -0.2397 H   0  0  0  0  0  0  0  0  0  0  0  0
    1.7543    4.1869   -2.1856 H   0  0  0  0  0  0  0  0  0  0  0  0
    3.2472    3.3545   -2.6411 H   0  0  0  0  0  0  0  0  0  0  0  0
    3.3178    4.9878   -1.9600 H   0  0  0  0  0  0  0  0  0  0  0  0
  1  2  1  0
  1  7  1  0
  1  8  1  0
  1  9  1  0
  2  3  1  0
  2 10  1  0
  2 11  1  0
  3  4  1  0
  3 12  1  0
  3 13  1  0
  4  5  1  0
  5  6  1  0
  5 14  1  0
  5 15  1  0
  6 16  1  0
  6 17  1  0
  6 18  1  0
M  END
>  <reaction>  (3) 
rmg_rxn_1477

>  <mol_properties>  (3) 
{"0": {"label": "a_hydrogen", "atom_type": "H0"}, "2": {"label": "acceptor", "atom_type": "Cs"}}

>  <type>  (3) 
r2h

$$$$

     RDKit          3D

 22 20  0  0  0  0  0  0  0  0999 V2000
   -0.8798   -1.0299    2.1622 N   0  0  0  0  0  0  0  0  0  0  0  0
    0.0338   -1.8908    2.4168 N   0  0  0  0  0  0  0  0  0  0  0  0
    1.0357   -1.9160    1.7364 O   0  0  0  0  0  1  0  0  0  0  0  0
   -0.5137    0.0556    1.4572 H   0  0  0  0  0  0  0  0  0  0  0  0
   -1.5829   -1.0016    2.8924 H   0  0  0  0  0  0  0  0  0  0  0  0
   -1.1779    2.1728    1.1624 C   0  0  0  0  0  0  0  0  0  0  0  0
   -0.1522    1.1340    0.8086 C   0  0  0  0  0  0  0  0  0  0  0  0
   -0.1640    0.8367   -0.5195 O   0  0  0  0  0  0  0  0  0  0  0  0
    0.9316    0.0536   -0.9756 C   0  0  0  0  0  0  0  0  0  0  0  0
    0.7475   -0.2404   -2.4473 C   0  0  0  0  0  0  0  0  0  0  0  0
    0.7563    1.0070   -3.3211 C   0  0  0  0  0  0  0  0  0  0  0  0
   -2.1675    1.8655    0.8214 H   0  0  0  0  0  0  0  0  0  0  0  0
   -1.2071    2.3201    2.2425 H   0  0  0  0  0  0  0  0  0  0  0  0
   -0.9374    3.1291    0.6910 H   0  0  0  0  0  0  0  0  0  0  0  0
    0.8534    1.3221    1.2028 H   0  0  0  0  0  0  0  0  0  0  0  0
    1.8612    0.6120   -0.8033 H   0  0  0  0  0  0  0  0  0  0  0  0
    0.9794   -0.8657   -0.3816 H   0  0  0  0  0  0  0  0  0  0  0  0
    1.5519   -0.9166   -2.7483 H   0  0  0  0  0  0  0  0  0  0  0  0
   -0.1887   -0.7884   -2.5792 H   0  0  0  0  0  0  0  0  0  0  0  0
    1.6989    1.5499   -3.2168 H   0  0  0  0  0  0  0  0  0  0  0  0
    0.6342    0.7486   -4.3738 H   0  0  0  0  0  0  0  0  0  0  0  0
   -0.0528    1.6832   -3.0431 H   0  0  0  0  0  0  0  0  0  0  0  0
  1  2  2  3
  1  5  1  0
  2  3  1  0
  4  7  1  0
  6  7  1  0
  6 12  1  0
  6 13  1  0
  6 14  1  0
  7  8  1  0
  7 15  1  0
  8  9  1  0
  9 10  1  0
  9 16  1  0
  9 17  1  0
 10 11  1  0
 10 18  1  0
 10 19  1  0
 11 20  1  0
 11 21  1  0
 11 22  1  0
M  RAD  1   3   2
M  END
>  <reaction>  (4) 
rmg_rxn_1477

>  <mol_properties>  (4) 
{"0": {"label": "*3", "atom_type": "N3d"}, "1": {"label": "*4", "atom_type": "N3d"}, "3": {"label": "*2", "atom_type": "H0"}, "6": {"label": "*1", "atom_type": "Cs"}, "7": {"label": "*0", "atom_type": "O2s"}}

>  <type>  (4) 
ts

$$$$

     RDKit          3D

 22 20  0  0  0  0  0  0  0  0999 V2000
    2.0256   -0.5894   -0.7172 N   0  0  0  0  0  0  0  0  0  0  0  0
    1.7564   -1.6318   -0.0549 N   0  0  0  0  0  0  0  0  0  0  0  0
    1.0663   -1.6102    0.9525 O   0  0  0  0  0  0  0  0  0  0  0  0
    1.3736    0.4497   -0.6652 H   0  0  0  0  0  0  0  0  0  0  0  0
    2.5382   -0.7773   -1.5728 H   0  0  0  0  0  0  0  0  0  0  0  0
    1.1251    2.2912    0.6150 C   0  0  0  0  0  0  0  0  0  0  0  0
    0.6110    1.5199   -0.5837 C   0  0  0  0  0  3  0  0  0  0  0  0
   -0.7069    1.1005   -0.5694 O   0  0  0  0  0  0  0  0  0  0  0  0
   -1.1956    0.5186    0.6223 C   0  0  0  0  0  0  0  0  0  0  0  0
   -2.5325   -0.1508    0.3205 C   0  0  0  0  0  0  0  0  0  0  0  0
   -2.3546   -1.3618   -0.5867 C   0  0  0  0  0  0  0  0  0  0  0  0
    1.1533    1.6665    1.5052 H   0  0  0  0  0  0  0  0  0  0  0  0
    2.1317    2.6444    0.4081 H   0  0  0  0  0  0  0  0  0  0  0  0
    0.4892    3.1545    0.8198 H   0  0  0  0  0  0  0  0  0  0  0  0
    0.7507    2.0548   -1.5249 H   0  0  0  0  0  0  0  0  0  0  0  0
   -0.4807   -0.2347    0.9951 H   0  0  0  0  0  0  0  0  0  0  0  0
   -1.3217    1.2890    1.3949 H   0  0  0  0  0  0  0  0  0  0  0  0
   -2.9841   -0.4556    1.2658 H   0  0  0  0  0  0  0  0  0  0  0  0
   -3.1902    0.5769   -0.1582 H   0  0  0  0  0  0  0  0  0  0  0  0
   -1.7029   -2.0930   -0.1136 H   0  0  0  0  0  0  0  0  0  0  0  0
   -3.3136   -1.8311   -0.7914 H   0  0  0  0  0  0  0  0  0  0  0  0
   -1.9082   -1.0567   -1.5299 H   0  0  0  0  0  0  0  0  0  0  0  0
  1  2  1  0
  1  4  1  0
  1  5  1  0
  2  3  2  0
  6  7  1  0
  6 12  1  0
  6 13  1  0
  6 14  1  0
  7  8  1  0
  7 15  1  0
  8  9  1  0
  9 10  1  0
  9 16  1  0
  9 17  1  0
 10 11  1  0
 10 18  1  0
 10 19  1  0
 11 20  1  0
 11 21  1  0
 11 22  1  0
M  RAD  1   7   2
M  END
>  <reaction>  (5) 
rmg_rxn_1477

>  <mol_properties>  (5) 
{"0": {"label": "*3", "atom_type": "N3d"}, "1": {"label": "*4", "atom_type": "N3d"}, "3": {"label": "*2", "atom_type": "H0"}, "6": {"label": "*1", "atom_type": "Cs"}, "7": {"label": "*0", "atom_type": "O2s"}}

>  <type>  (5) 
unop_1

>  <geom_source>  (5) 
crest_best.xyz

$$$$

     RDKit          3D

 22 20  0  0  0  0  0  0  0  0999 V2000
    0.9401   -1.7515    1.2600 N   0  0  0  0  0  0  0  0  0  0  0  0
    0.9401   -2.9543    0.7153 N   0  0  0  0  0  0  0  0  0  0  0  0
    0.9401   -2.9543   -0.4892 O   0  0  0  0  0  0  0  0  0  0  0  0
    0.9401   -0.7689    0.5448 H   0  0  0  0  0  0  0  0  0  0  0  0
    0.9401   -1.7052    2.2621 H   0  0  0  0  0  0  0  0  0  0  0  0
    1.9905    0.6211    0.8053 C   0  0  0  0  0  0  0  0  0  0  0  0
    0.9401    0.2985   -0.2321 C   0  0  0  0  0  3  0  0  0  0  0  0
   -0.2036    1.0744    0.0199 O   0  0  0  0  0  0  0  0  0  0  0  0
   -1.2437    0.8463   -0.8972 C   0  0  0  0  0  0  0  0  0  0  0  0
   -2.4118    1.7529   -0.5672 C   0  0  0  0  0  0  0  0  0  0  0  0
   -2.0783    3.2325   -0.7032 C   0  0  0  0  0  0  0  0  0  0  0  0
    1.6192    0.3999    1.8066 H   0  0  0  0  0  0  0  0  0  0  0  0
    2.8897    0.0286    0.6298 H   0  0  0  0  0  0  0  0  0  0  0  0
    2.2576    1.6776    0.7630 H   0  0  0  0  0  0  0  0  0  0  0  0
    1.3204    0.5088   -1.2426 H   0  0  0  0  0  0  0  0  0  0  0  0
   -0.8901    1.0433   -1.9217 H   0  0  0  0  0  0  0  0  0  0  0  0
   -1.5556   -0.2077   -0.8560 H   0  0  0  0  0  0  0  0  0  0  0  0
   -3.2391    1.4909   -1.2326 H   0  0  0  0  0  0  0  0  0  0  0  0
   -2.7434    1.5350    0.4514 H   0  0  0  0  0  0  0  0  0  0  0  0
   -1.7678    3.4697   -1.7238 H   0  0  0  0  0  0  0  0  0  0  0  0
   -2.9426    3.8536   -0.4635 H   0  0  0  0  0  0  0  0  0  0  0  0
   -1.2641    3.5080   -0.0329 H   0  0  0  0  0  0  0  0  0  0  0  0
  1  2  1  0
  1  4  1  0
  1  5  1  0
  2  3  2  0
  6  7  1  0
  6 12  1  0
  6 13  1  0
  6 14  1  0
  7  8  1  0
  7 15  1  0
  8  9  1  0
  9 10  1  0
  9 16  1  0
  9 17  1  0
 10 11  1  0
 10 18  1  0
 10 19  1  0
 11 20  1  0
 11 21  1  0
 11 22  1  0
M  RAD  1   7   2
M  END
>  <reaction>  (6) 
rmg_rxn_1477

>  <mol_properties>  (6) 
{"0": {"label": "*3", "atom_type": "N3d"}, "1": {"label": "*4", "atom_type": "N3d"}, "3": {"label": "*2", "atom_type": "H0"}, "6": {"label": "*1", "atom_type": "Cs"}, "7": {"label": "*0", "atom_type": "O2s"}}

>  <type>  (6) 
unop_2

>  <geom_source>  (6) 
Heuristics

$$$$

     RDKit          3D

 22 20  0  0  0  0  0  0  0  0999 V2000
    2.0245   -0.5903   -0.7176 N   0  0  0  0  0  0  0  0  0  0  0  0
    1.7549   -1.6323   -0.0548 N   0  0  0  0  0  0  0  0  0  0  0  0
    1.0657   -1.6097    0.9531 O   0  0  0  0  0  0  0  0  0  0  0  0
    1.3734    0.4493   -0.6654 H   0  0  0  0  0  0  0  0  0  0  0  0
    2.5362   -0.7789   -1.5736 H   0  0  0  0  0  0  0  0  0  0  0  0
    1.1259    2.2907    0.6150 C   0  0  0  0  0  0  0  0  0  0  0  0
    0.6114    1.5199   -0.5838 C   0  0  0  0  0  3  0  0  0  0  0  0
   -0.7067    1.1012   -0.5695 O   0  0  0  0  0  0  0  0  0  0  0  0
   -1.1957    0.5195    0.6223 C   0  0  0  0  0  0  0  0  0  0  0  0
   -2.5321   -0.1506    0.3201 C   0  0  0  0  0  0  0  0  0  0  0  0
   -2.3530   -1.3620   -0.5865 C   0  0  0  0  0  0  0  0  0  0  0  0
    0.4906    3.1544    0.8200 H   0  0  0  0  0  0  0  0  0  0  0  0
    1.1538    1.6658    1.5051 H   0  0  0  0  0  0  0  0  0  0  0  0
    2.1327    2.6433    0.4082 H   0  0  0  0  0  0  0  0  0  0  0  0
    0.7513    2.0548   -1.5250 H   0  0  0  0  0  0  0  0  0  0  0  0
   -0.4806   -0.2333    0.9957 H   0  0  0  0  0  0  0  0  0  0  0  0
   -1.3225    1.2902    1.3945 H   0  0  0  0  0  0  0  0  0  0  0  0
   -2.9841   -0.4552    1.2652 H   0  0  0  0  0  0  0  0  0  0  0  0
   -3.1899    0.5765   -0.1593 H   0  0  0  0  0  0  0  0  0  0  0  0
   -1.9063   -1.0572   -1.5295 H   0  0  0  0  0  0  0  0  0  0  0  0
   -1.7011   -2.0925   -0.1126 H   0  0  0  0  0  0  0  0  0  0  0  0
   -3.3116   -1.8320   -0.7914 H   0  0  0  0  0  0  0  0  0  0  0  0
  1  2  1  0
  1  4  1  0
  1  5  1  0
  2  3  2  0
  6  7  1  0
  6 12  1  0
  6 13  1  0
  6 14  1  0
  7  8  1  0
  7 15  1  0
  8  9  1  0
  9 10  1  0
  9 16  1  0
  9 17  1  0
 10 11  1  0
 10 18  1  0
 10 19  1  0
 11 20  1  0
 11 21  1  0
 11 22  1  0
M  RAD  1   7   2
M  END
>  <reaction>  (7) 
rmg_rxn_1477

>  <mol_properties>  (7) 
{"0": {"label": "*3", "atom_type": "N3d"}, "1": {"label": "*4", "atom_type": "N3d"}, "3": {"label": "*2", "atom_type": "H0"}, "6": {"label": "*1", "atom_type": "Cs"}, "7": {"label": "*0", "atom_type": "O2s"}}

>  <type>  (7) 
unop_3

>  <geom_source>  (7) 
Heuristics

$$$$

     RDKit          3D

 22 20  0  0  0  0  0  0  0  0999 V2000
   -2.0253   -0.5892    0.7177 N   0  0  0  0  0  0  0  0  0  0  0  0
   -1.7568   -1.6315    0.0549 N   0  0  0  0  0  0  0  0  0  0  0  0
   -1.0674   -1.6095   -0.9529 O   0  0  0  0  0  0  0  0  0  0  0  0
   -1.3732    0.4498    0.6658 H   0  0  0  0  0  0  0  0  0  0  0  0
   -2.5374   -0.7773    1.5737 H   0  0  0  0  0  0  0  0  0  0  0  0
   -1.1248    2.2912   -0.6147 C   0  0  0  0  0  0  0  0  0  0  0  0
   -0.6105    1.5199    0.5838 C   0  0  0  0  0  3  0  0  0  0  0  0
    0.7073    1.1003    0.5692 O   0  0  0  0  0  0  0  0  0  0  0  0
    1.1955    0.5180   -0.6226 C   0  0  0  0  0  0  0  0  0  0  0  0
    2.5325   -0.1514   -0.3211 C   0  0  0  0  0  0  0  0  0  0  0  0
    2.3550   -1.3617    0.5872 C   0  0  0  0  0  0  0  0  0  0  0  0
   -2.1312    2.6448   -0.4075 H   0  0  0  0  0  0  0  0  0  0  0  0
   -0.4887    3.1543   -0.8199 H   0  0  0  0  0  0  0  0  0  0  0  0
   -1.1536    1.6664   -1.5048 H   0  0  0  0  0  0  0  0  0  0  0  0
   -0.7499    2.0547    1.5251 H   0  0  0  0  0  0  0  0  0  0  0  0
    0.4803   -0.2352   -0.9950 H   0  0  0  0  0  0  0  0  0  0  0  0
    1.3214    1.2883   -1.3954 H   0  0  0  0  0  0  0  0  0  0  0  0
    2.9834   -0.4571   -1.2664 H   0  0  0  0  0  0  0  0  0  0  0  0
    3.1906    0.5765    0.1566 H   0  0  0  0  0  0  0  0  0  0  0  0
    1.7028   -2.0931    0.1151 H   0  0  0  0  0  0  0  0  0  0  0  0
    3.3140   -1.8311    0.7916 H   0  0  0  0  0  0  0  0  0  0  0  0
    1.9092   -1.0558    1.5304 H   0  0  0  0  0  0  0  0  0  0  0  0
  1  2  1  0
  1  4  1  0
  1  5  1  0
  2  3  2  0
  6  7  1  0
  6 12  1  0
  6 13  1  0
  6 14  1  0
  7  8  1  0
  7 15  1  0
  8  9  1  0
  9 10  1  0
  9 16  1  0
  9 17  1  0
 10 11  1  0
 10 18  1  0
 10 19  1  0
 11 20  1  0
 11 21  1  0
 11 22  1  0
M  RAD  1   7   2
M  END
>  <reaction>  (8) 
rmg_rxn_1477

>  <mol_properties>  (8) 
{"0": {"label": "*3", "atom_type": "N3d"}, "1": {"label": "*4", "atom_type": "N3d"}, "3": {"label": "*2", "atom_type": "H0"}, "6": {"label": "*1", "atom_type": "Cs"}, "7": {"label": "*0", "atom_type": "O2s"}}

>  <type>  (8) 
unop_4

>  <geom_source>  (8) 
Heuristics

$$$$

     RDKit          3D

 22 20  0  0  0  0  0  0  0  0999 V2000
    0.3444   -0.8999    2.3313 N   0  0  0  0  0  0  0  0  0  0  0  0
    0.3444   -2.1027    1.7866 N   0  0  0  0  0  0  0  0  0  0  0  0
    0.3444   -2.1027    0.5821 O   0  0  0  0  0  0  0  0  0  0  0  0
    0.3444    0.0827    1.6161 H   0  0  0  0  0  0  0  0  0  0  0  0
    0.3444   -0.8536    3.3334 H   0  0  0  0  0  0  0  0  0  0  0  0
   -0.5747    1.9630    1.7213 C   0  0  0  0  0  0  0  0  0  0  0  0
    0.3444    1.1501    0.8392 C   0  0  0  0  0  3  0  0  0  0  0  0
   -0.3159    0.8644   -0.3674 O   0  0  0  0  0  0  0  0  0  0  0  0
    0.4613    0.1082   -1.2614 C   0  0  0  0  0  0  0  0  0  0  0  0
   -0.3187   -0.1135   -2.5411 C   0  0  0  0  0  0  0  0  0  0  0  0
   -0.6333    1.1793   -3.2820 C   0  0  0  0  0  0  0  0  0  0  0  0
   -1.4891    1.4083    1.9343 H   0  0  0  0  0  0  0  0  0  0  0  0
   -0.0823    2.1968    2.6665 H   0  0  0  0  0  0  0  0  0  0  0  0
   -0.8461    2.8985    1.2309 H   0  0  0  0  0  0  0  0  0  0  0  0
    1.2724    1.7047    0.6363 H   0  0  0  0  0  0  0  0  0  0  0  0
    1.4027    0.6369   -1.4793 H   0  0  0  0  0  0  0  0  0  0  0  0
    0.7264   -0.8566   -0.8045 H   0  0  0  0  0  0  0  0  0  0  0  0
    0.2664   -0.7806   -3.1802 H   0  0  0  0  0  0  0  0  0  0  0  0
   -1.2445   -0.6407   -2.2965 H   0  0  0  0  0  0  0  0  0  0  0  0
    0.2849    1.7057   -3.5543 H   0  0  0  0  0  0  0  0  0  0  0  0
   -1.1897    0.9808   -4.1992 H   0  0  0  0  0  0  0  0  0  0  0  0
   -1.2294    1.8460   -2.6590 H   0  0  0  0  0  0  0  0  0  0  0  0
  1  2  1  0
  1  4  1  0
  1  5  1  0
  2  3  2  0
  6  7  1  0
  6 12  1  0
  6 13  1  0
  6 14  1  0
  7  8  1  0
  7 15  1  0
  8  9  1  0
  9 10  1  0
  9 16  1  0
  9 17  1  0
 10 11  1  0
 10 18  1  0
 10 19  1  0
 11 20  1  0
 11 21  1  0
 11 22  1  0
M  RAD  1   7   2
M  END
>  <reaction>  (9) 
rmg_rxn_1477

>  <mol_properties>  (9) 
{"0": {"label": "*3", "atom_type": "N3d"}, "1": {"label": "*4", "atom_type": "N3d"}, "3": {"label": "*2", "atom_type": "H0"}, "6": {"label": "*1", "atom_type": "Cs"}, "7": {"label": "*0", "atom_type": "O2s"}}

>  <type>  (9) 
unop_5

>  <geom_source>  (9) 
Heuristics

$$$$

     RDKit          3D

 22 20  0  0  0  0  0  0  0  0999 V2000
   -2.0259    0.5888   -0.7173 N   0  0  0  0  0  0  0  0  0  0  0  0
   -1.7572    1.6313   -0.0549 N   0  0  0  0  0  0  0  0  0  0  0  0
   -1.0671    1.6099    0.9524 O   0  0  0  0  0  0  0  0  0  0  0  0
   -1.3736   -0.4500   -0.6653 H   0  0  0  0  0  0  0  0  0  0  0  0
   -2.5386    0.7766   -1.5729 H   0  0  0  0  0  0  0  0  0  0  0  0
   -1.1245   -2.2912    0.6150 C   0  0  0  0  0  0  0  0  0  0  0  0
   -0.6106   -1.5199   -0.5837 C   0  0  0  0  0  3  0  0  0  0  0  0
    0.7072   -1.1002   -0.5694 O   0  0  0  0  0  0  0  0  0  0  0  0
    1.1957   -0.5181    0.6223 C   0  0  0  0  0  0  0  0  0  0  0  0
    2.5327    0.1511    0.3207 C   0  0  0  0  0  0  0  0  0  0  0  0
    2.3552    1.3621   -0.5868 C   0  0  0  0  0  0  0  0  0  0  0  0
   -2.1309   -2.6448    0.4080 H   0  0  0  0  0  0  0  0  0  0  0  0
   -0.4883   -3.1542    0.8201 H   0  0  0  0  0  0  0  0  0  0  0  0
   -1.1532   -1.6663    1.5051 H   0  0  0  0  0  0  0  0  0  0  0  0
   -0.7501   -2.0549   -1.5249 H   0  0  0  0  0  0  0  0  0  0  0  0
    0.4807    0.2353    0.9948 H   0  0  0  0  0  0  0  0  0  0  0  0
    1.3215   -1.2884    1.3951 H   0  0  0  0  0  0  0  0  0  0  0  0
    2.9840    0.4561    1.2660 H   0  0  0  0  0  0  0  0  0  0  0  0
    3.1904   -0.5768   -0.1577 H   0  0  0  0  0  0  0  0  0  0  0  0
    1.9089    1.0568   -1.5299 H   0  0  0  0  0  0  0  0  0  0  0  0
    1.7035    2.0934   -0.1138 H   0  0  0  0  0  0  0  0  0  0  0  0
    3.3143    1.8312   -0.7913 H   0  0  0  0  0  0  0  0  0  0  0  0
  1  2  1  0
  1  4  1  0
  1  5  1  0
  2  3  2  0
  6  7  1  0
  6 12  1  0
  6 13  1  0
  6 14  1  0
  7  8  1  0
  7 15  1  0
  8  9  1  0
  9 10  1  0
  9 16  1  0
  9 17  1  0
 10 11  1  0
 10 18  1  0
 10 19  1  0
 11 20  1  0
 11 21  1  0
 11 22  1  0
M  RAD  1   7   2
M  END
>  <reaction>  (10) 
rmg_rxn_1477

>  <mol_properties>  (10) 
{"0": {"label": "*3", "atom_type": "N3d"}, "1": {"label": "*4", "atom_type": "N3d"}, "3": {"label": "*2", "atom_type": "H0"}, "6": {"label": "*1", "atom_type": "Cs"}, "7": {"label": "*0", "atom_type": "O2s"}}

>  <type>  (10) 
unop_6

>  <geom_source>  (10) 
Heuristics

$$$$

     RDKit          3D

 22 20  0  0  0  0  0  0  0  0999 V2000
    0.6563   -1.9709    0.9103 N   0  0  0  0  0  0  0  0  0  0  0  0
    0.6563   -3.1737    0.3655 N   0  0  0  0  0  0  0  0  0  0  0  0
    0.6563   -3.1737   -0.8390 O   0  0  0  0  0  0  0  0  0  0  0  0
    0.6563   -0.9883    0.1950 H   0  0  0  0  0  0  0  0  0  0  0  0
    0.6563   -1.9246    1.9124 H   0  0  0  0  0  0  0  0  0  0  0  0
    2.1367    0.1767   -0.2950 C   0  0  0  0  0  0  0  0  0  0  0  0
    0.6563    0.0791   -0.5818 C   0  0  0  0  0  3  0  0  0  0  0  0
   -0.0040    1.1395    0.0609 O   0  0  0  0  0  0  0  0  0  0  0  0
   -1.3939    1.1372   -0.1472 C   0  0  0  0  0  0  0  0  0  0  0  0
   -2.0078    2.3344    0.5493 C   0  0  0  0  0  0  0  0  0  0  0  0
   -1.5235    3.6656   -0.0098 C   0  0  0  0  0  0  0  0  0  0  0  0
    2.3227    0.1186    0.7780 H   0  0  0  0  0  0  0  0  0  0  0  0
    2.6713   -0.6388   -0.7846 H   0  0  0  0  0  0  0  0  0  0  0  0
    2.5356    1.1229   -0.6625 H   0  0  0  0  0  0  0  0  0  0  0  0
    0.4707    0.1239   -1.6652 H   0  0  0  0  0  0  0  0  0  0  0  0
   -1.6113    1.1753   -1.2264 H   0  0  0  0  0  0  0  0  0  0  0  0
   -1.8298    0.2051    0.2414 H   0  0  0  0  0  0  0  0  0  0  0  0
   -3.0944    2.2588    0.4529 H   0  0  0  0  0  0  0  0  0  0  0  0
   -1.7793    2.2701    1.6163 H   0  0  0  0  0  0  0  0  0  0  0  0
   -1.7668    3.7539   -1.0716 H   0  0  0  0  0  0  0  0  0  0  0  0
   -1.9896    4.5032    0.5110 H   0  0  0  0  0  0  0  0  0  0  0  0
   -0.4425    3.7579    0.0948 H   0  0  0  0  0  0  0  0  0  0  0  0
  1  2  1  0
  1  4  1  0
  1  5  1  0
  2  3  2  0
  6  7  1  0
  6 12  1  0
  6 13  1  0
  6 14  1  0
  7  8  1  0
  7 15  1  0
  8  9  1  0
  9 10  1  0
  9 16  1  0
  9 17  1  0
 10 11  1  0
 10 18  1  0
 10 19  1  0
 11 20  1  0
 11 21  1  0
 11 22  1  0
M  RAD  1   7   2
M  END
>  <reaction>  (11) 
rmg_rxn_1477

>  <mol_properties>  (11) 
{"0": {"label": "*3", "atom_type": "N3d"}, "1": {"label": "*4", "atom_type": "N3d"}, "3": {"label": "*2", "atom_type": "H0"}, "6": {"label": "*1", "atom_type": "Cs"}, "7": {"label": "*0", "atom_type": "O2s"}}

>  <type>  (11) 
unop_7

>  <geom_source>  (11) 
Heuristics

$$$$

     RDKit          3D

 22 20  0  0  0  0  0  0  0  0999 V2000
   -1.0524   -1.1252    1.7192 N   0  0  0  0  0  0  0  0  0  0  0  0
   -1.0524   -2.3280    1.1745 N   0  0  0  0  0  0  0  0  0  0  0  0
   -1.0524   -2.3280   -0.0300 O   0  0  0  0  0  0  0  0  0  0  0  0
   -1.0524   -0.1425    1.0040 H   0  0  0  0  0  0  0  0  0  0  0  0
   -1.0524   -1.0788    2.7213 H   0  0  0  0  0  0  0  0  0  0  0  0
   -2.1548    1.6840   -0.4742 C   0  0  0  0  0  0  0  0  0  0  0  0
   -1.0524    0.9249    0.2271 C   0  0  0  0  0  3  0  0  0  0  0  0
    0.0913    0.9236   -0.5887 O   0  0  0  0  0  0  0  0  0  0  0  0
    1.1791    0.2388   -0.0206 C   0  0  0  0  0  0  0  0  0  0  0  0
    2.3699    0.3266   -0.9532 C   0  0  0  0  0  0  0  0  0  0  0  0
    2.8623    1.7524   -1.1627 C   0  0  0  0  0  0  0  0  0  0  0  0
   -2.3946    1.2145   -1.4289 H   0  0  0  0  0  0  0  0  0  0  0  0
   -3.0554    1.6978    0.1417 H   0  0  0  0  0  0  0  0  0  0  0  0
   -1.8488    2.7134   -0.6642 H   0  0  0  0  0  0  0  0  0  0  0  0
   -0.8208    1.3910    1.1962 H   0  0  0  0  0  0  0  0  0  0  0  0
    1.4310    0.6804    0.9566 H   0  0  0  0  0  0  0  0  0  0  0  0
    0.9096   -0.8129    0.1556 H   0  0  0  0  0  0  0  0  0  0  0  0
    3.1703   -0.2903   -0.5353 H   0  0  0  0  0  0  0  0  0  0  0  0
    2.0937   -0.1198   -1.9119 H   0  0  0  0  0  0  0  0  0  0  0  0
    3.1649    2.2035   -0.2144 H   0  0  0  0  0  0  0  0  0  0  0  0
    3.7220    1.7763   -1.8340 H   0  0  0  0  0  0  0  0  0  0  0  0
    2.0763    2.3729   -1.5931 H   0  0  0  0  0  0  0  0  0  0  0  0
  1  2  1  0
  1  4  1  0
  1  5  1  0
  2  3  2  0
  6  7  1  0
  6 12  1  0
  6 13  1  0
  6 14  1  0
  7  8  1  0
  7 15  1  0
  8  9  1  0
  9 10  1  0
  9 16  1  0
  9 17  1  0
 10 11  1  0
 10 18  1  0
 10 19  1  0
 11 20  1  0
 11 21  1  0
 11 22  1  0
M  RAD  1   7   2
M  END
>  <reaction>  (12) 
rmg_rxn_1477

>  <mol_properties>  (12) 
{"0": {"label": "*3", "atom_type": "N3d"}, "1": {"label": "*4", "atom_type": "N3d"}, "3": {"label": "*2", "atom_type": "H0"}, "6": {"label": "*1", "atom_type": "Cs"}, "7": {"label": "*0", "atom_type": "O2s"}}

>  <type>  (12) 
unop_8

>  <geom_source>  (12) 
Heuristics

$$$$

     RDKit          3D

 22 20  0  0  0  0  0  0  0  0999 V2000
   -2.0257    0.5893   -0.7171 N   0  0  0  0  0  0  0  0  0  0  0  0
   -1.7565    1.6318   -0.0549 N   0  0  0  0  0  0  0  0  0  0  0  0
   -1.0663    1.6101    0.9524 O   0  0  0  0  0  0  0  0  0  0  0  0
   -1.3738   -0.4498   -0.6651 H   0  0  0  0  0  0  0  0  0  0  0  0
   -2.5383    0.7771   -1.5727 H   0  0  0  0  0  0  0  0  0  0  0  0
   -1.1250   -2.2911    0.6150 C   0  0  0  0  0  0  0  0  0  0  0  0
   -0.6110   -1.5198   -0.5837 C   0  0  0  0  0  3  0  0  0  0  0  0
    0.7068   -1.1005   -0.5694 O   0  0  0  0  0  0  0  0  0  0  0  0
    1.1956   -0.5186    0.6222 C   0  0  0  0  0  0  0  0  0  0  0  0
    2.5326    0.1506    0.3204 C   0  0  0  0  0  0  0  0  0  0  0  0
    2.3548    1.3619   -0.5866 C   0  0  0  0  0  0  0  0  0  0  0  0
   -0.4891   -3.1544    0.8199 H   0  0  0  0  0  0  0  0  0  0  0  0
   -1.1533   -1.6664    1.5052 H   0  0  0  0  0  0  0  0  0  0  0  0
   -2.1316   -2.6444    0.4082 H   0  0  0  0  0  0  0  0  0  0  0  0
   -0.7508   -2.0547   -1.5249 H   0  0  0  0  0  0  0  0  0  0  0  0
    0.4808    0.2348    0.9950 H   0  0  0  0  0  0  0  0  0  0  0  0
    1.3217   -1.2890    1.3949 H   0  0  0  0  0  0  0  0  0  0  0  0
    2.9843    0.4554    1.2657 H   0  0  0  0  0  0  0  0  0  0  0  0
    3.1901   -0.5771   -0.1584 H   0  0  0  0  0  0  0  0  0  0  0  0
    1.7033    2.0931   -0.1133 H   0  0  0  0  0  0  0  0  0  0  0  0
    3.3139    1.8310   -0.7913 H   0  0  0  0  0  0  0  0  0  0  0  0
    1.9082    1.0569   -1.5297 H   0  0  0  0  0  0  0  0  0  0  0  0
  1  2  1  0
  1  4  1  0
  1  5  1  0
  2  3  2  0
  6  7  1  0
  6 12  1  0
  6 13  1  0
  6 14  1  0
  7  8  1  0
  7 15  1  0
  8  9  1  0
  9 10  1  0
  9 16  1  0
  9 17  1  0
 10 11  1  0
 10 18  1  0
 10 19  1  0
 11 20  1  0
 11 21  1  0
 11 22  1  0
M  RAD  1   7   2
M  END
>  <reaction>  (13) 
rmg_rxn_1477

>  <mol_properties>  (13) 
{"0": {"label": "*3", "atom_type": "N3d"}, "1": {"label": "*4", "atom_type": "N3d"}, "3": {"label": "*2", "atom_type": "H0"}, "6": {"label": "*1", "atom_type": "Cs"}, "7": {"label": "*0", "atom_type": "O2s"}}

>  <type>  (13) 
unop_9

>  <geom_source>  (13) 
Heuristics

$$$$

     RDKit          3D

 22 20  0  0  0  0  0  0  0  0999 V2000
    0.2215   -2.0469    0.6501 N   0  0  0  0  0  0  0  0  0  0  0  0
    0.2215   -3.2497    0.1053 N   0  0  0  0  0  0  0  0  0  0  0  0
    0.2215   -3.2497   -1.0992 O   0  0  0  0  0  0  0  0  0  0  0  0
    0.2215   -1.0643   -0.0652 H   0  0  0  0  0  0  0  0  0  0  0  0
    0.2215   -2.0005    1.6521 H   0  0  0  0  0  0  0  0  0  0  0  0
    1.4443    0.0100   -1.7299 C   0  0  0  0  0  0  0  0  0  0  0  0
    0.2215    0.0031   -0.8421 C   0  0  0  0  0  3  0  0  0  0  0  0
    0.2215    1.1676   -0.0562 O   0  0  0  0  0  0  0  0  0  0  0  0
   -0.8832    1.2556    0.8080 C   0  0  0  0  0  0  0  0  0  0  0  0
   -0.8141    2.5572    1.5802 C   0  0  0  0  0  0  0  0  0  0  0  0
   -0.9073    3.7880    0.6882 C   0  0  0  0  0  0  0  0  0  0  0  0
    2.3533    0.0377   -1.1281 H   0  0  0  0  0  0  0  0  0  0  0  0
    1.4660   -0.8872   -2.3504 H   0  0  0  0  0  0  0  0  0  0  0  0
    1.4373    0.8833   -2.3831 H   0  0  0  0  0  0  0  0  0  0  0  0
   -0.6946   -0.0389   -1.4496 H   0  0  0  0  0  0  0  0  0  0  0  0
   -1.8180    1.2098    0.2272 H   0  0  0  0  0  0  0  0  0  0  0  0
   -0.8865    0.4011    1.5006 H   0  0  0  0  0  0  0  0  0  0  0  0
   -1.6286    2.5588    2.3099 H   0  0  0  0  0  0  0  0  0  0  0  0
    0.1198    2.5750    2.1479 H   0  0  0  0  0  0  0  0  0  0  0  0
   -1.8479    3.7957    0.1318 H   0  0  0  0  0  0  0  0  0  0  0  0
   -0.8597    4.7048    1.2777 H   0  0  0  0  0  0  0  0  0  0  0  0
   -0.0909    3.8042   -0.0339 H   0  0  0  0  0  0  0  0  0  0  0  0
  1  2  1  0
  1  4  1  0
  1  5  1  0
  2  3  2  0
  6  7  1  0
  6 12  1  0
  6 13  1  0
  6 14  1  0
  7  8  1  0
  7 15  1  0
  8  9  1  0
  9 10  1  0
  9 16  1  0
  9 17  1  0
 10 11  1  0
 10 18  1  0
 10 19  1  0
 11 20  1  0
 11 21  1  0
 11 22  1  0
M  RAD  1   7   2
M  END
>  <reaction>  (14) 
rmg_rxn_1477

>  <mol_properties>  (14) 
{"0": {"label": "*3", "atom_type": "N3d"}, "1": {"label": "*4", "atom_type": "N3d"}, "3": {"label": "*2", "atom_type": "H0"}, "6": {"label": "*1", "atom_type": "Cs"}, "7": {"label": "*0", "atom_type": "O2s"}}

>  <type>  (14) 
unop_10

>  <geom_source>  (14) 
Heuristics

$$$$

     RDKit          3D

 22 20  0  0  0  0  0  0  0  0999 V2000
    2.0259   -0.5885   -0.7177 N   0  0  0  0  0  0  0  0  0  0  0  0
    1.7579   -1.6309   -0.0550 N   0  0  0  0  0  0  0  0  0  0  0  0
    1.0682   -1.6094    0.9527 O   0  0  0  0  0  0  0  0  0  0  0  0
    1.3732    0.4502   -0.6657 H   0  0  0  0  0  0  0  0  0  0  0  0
    2.5383   -0.7763   -1.5735 H   0  0  0  0  0  0  0  0  0  0  0  0
    1.1242    2.2912    0.6148 C   0  0  0  0  0  0  0  0  0  0  0  0
    0.6100    1.5199   -0.5838 C   0  0  0  0  0  3  0  0  0  0  0  0
   -0.7076    1.0999   -0.5691 O   0  0  0  0  0  0  0  0  0  0  0  0
   -1.1956    0.5175    0.6226 C   0  0  0  0  0  0  0  0  0  0  0  0
   -2.5327   -0.1517    0.3213 C   0  0  0  0  0  0  0  0  0  0  0  0
   -2.3556   -1.3619   -0.5873 C   0  0  0  0  0  0  0  0  0  0  0  0
    1.1532    1.6663    1.5048 H   0  0  0  0  0  0  0  0  0  0  0  0
    2.1305    2.6450    0.4075 H   0  0  0  0  0  0  0  0  0  0  0  0
    0.4879    3.1541    0.8201 H   0  0  0  0  0  0  0  0  0  0  0  0
    0.7491    2.0549   -1.5251 H   0  0  0  0  0  0  0  0  0  0  0  0
   -0.4804   -0.2359    0.9947 H   0  0  0  0  0  0  0  0  0  0  0  0
   -1.3214    1.2876    1.3956 H   0  0  0  0  0  0  0  0  0  0  0  0
   -2.9834   -0.4576    1.2666 H   0  0  0  0  0  0  0  0  0  0  0  0
   -3.1909    0.5763   -0.1562 H   0  0  0  0  0  0  0  0  0  0  0  0
   -3.3147   -1.8311   -0.7916 H   0  0  0  0  0  0  0  0  0  0  0  0
   -1.9099   -1.0558   -1.5305 H   0  0  0  0  0  0  0  0  0  0  0  0
   -1.7034   -2.0935   -0.1154 H   0  0  0  0  0  0  0  0  0  0  0  0
  1  2  1  0
  1  4  1  0
  1  5  1  0
  2  3  2  0
  6  7  1  0
  6 12  1  0
  6 13  1  0
  6 14  1  0
  7  8  1  0
  7 15  1  0
  8  9  1  0
  9 10  1  0
  9 16  1  0
  9 17  1  0
 10 11  1  0
 10 18  1  0
 10 19  1  0
 11 20  1  0
 11 21  1  0
 11 22  1  0
M  RAD  1   7   2
M  END
>  <reaction>  (15) 
rmg_rxn_1477

>  <mol_properties>  (15) 
{"0": {"label": "*3", "atom_type": "N3d"}, "1": {"label": "*4", "atom_type": "N3d"}, "3": {"label": "*2", "atom_type": "H0"}, "6": {"label": "*1", "atom_type": "Cs"}, "7": {"label": "*0", "atom_type": "O2s"}}

>  <type>  (15) 
unop_11

>  <geom_source>  (15) 
Heuristics

$$$$

     RDKit          3D

 22 20  0  0  0  0  0  0  0  0999 V2000
   -1.0998   -1.4361    1.2489 N   0  0  0  0  0  0  0  0  0  0  0  0
   -1.0998   -2.6390    0.7042 N   0  0  0  0  0  0  0  0  0  0  0  0
   -1.0998   -2.6390   -0.5003 O   0  0  0  0  0  0  0  0  0  0  0  0
   -1.0998   -0.4535    0.5337 H   0  0  0  0  0  0  0  0  0  0  0  0
   -1.0998   -1.3898    2.2510 H   0  0  0  0  0  0  0  0  0  0  0  0
   -2.0193    1.2123   -1.2823 C   0  0  0  0  0  0  0  0  0  0  0  0
   -1.0998    0.6139   -0.2432 C   0  0  0  0  0  3  0  0  0  0  0  0
    0.2209    1.0012   -0.5251 O   0  0  0  0  0  0  0  0  0  0  0  0
    1.1574    0.4928    0.3910 C   0  0  0  0  0  0  0  0  0  0  0  0
    2.5395    0.9953    0.0271 C   0  0  0  0  0  0  0  0  0  0  0  0
    2.6703    2.5095    0.1227 C   0  0  0  0  0  0  0  0  0  0  0  0
   -1.7474    0.8639   -2.2793 H   0  0  0  0  0  0  0  0  0  0  0  0
   -3.0528    0.9239   -1.0837 H   0  0  0  0  0  0  0  0  0  0  0  0
   -1.9543    2.3009   -1.2686 H   0  0  0  0  0  0  0  0  0  0  0  0
   -1.3835    0.9549    0.7634 H   0  0  0  0  0  0  0  0  0  0  0  0
    0.8953    0.8134    1.4118 H   0  0  0  0  0  0  0  0  0  0  0  0
    1.1359   -0.6069    0.3782 H   0  0  0  0  0  0  0  0  0  0  0  0
    3.2592    0.5125    0.6942 H   0  0  0  0  0  0  0  0  0  0  0  0
    2.7744    0.6616   -0.9869 H   0  0  0  0  0  0  0  0  0  0  0  0
    2.4615    2.8553    1.1382 H   0  0  0  0  0  0  0  0  0  0  0  0
    3.6781    2.8340   -0.1406 H   0  0  0  0  0  0  0  0  0  0  0  0
    1.9673    3.0010   -0.5497 H   0  0  0  0  0  0  0  0  0  0  0  0
  1  2  1  0
  1  4  1  0
  1  5  1  0
  2  3  2  0
  6  7  1  0
  6 12  1  0
  6 13  1  0
  6 14  1  0
  7  8  1  0
  7 15  1  0
  8  9  1  0
  9 10  1  0
  9 16  1  0
  9 17  1  0
 10 11  1  0
 10 18  1  0
 10 19  1  0
 11 20  1  0
 11 21  1  0
 11 22  1  0
M  RAD  1   7   2
M  END
>  <reaction>  (16) 
rmg_rxn_1477

>  <mol_properties>  (16) 
{"0": {"label": "*3", "atom_type": "N3d"}, "1": {"label": "*4", "atom_type": "N3d"}, "3": {"label": "*2", "atom_type": "H0"}, "6": {"label": "*1", "atom_type": "Cs"}, "7": {"label": "*0", "atom_type": "O2s"}}

>  <type>  (16) 
unop_12

>  <geom_source>  (16) 
Heuristics

$$$$

     RDKit          3D

 22 20  0  0  0  0  0  0  0  0999 V2000
    2.0258   -0.5888   -0.7173 N   0  0  0  0  0  0  0  0  0  0  0  0
    1.7573   -1.6313   -0.0549 N   0  0  0  0  0  0  0  0  0  0  0  0
    1.0673   -1.6100    0.9524 O   0  0  0  0  0  0  0  0  0  0  0  0
    1.3733    0.4500   -0.6654 H   0  0  0  0  0  0  0  0  0  0  0  0
    2.5385   -0.7764   -1.5729 H   0  0  0  0  0  0  0  0  0  0  0  0
    1.1245    2.2915    0.6146 C   0  0  0  0  0  0  0  0  0  0  0  0
    0.6104    1.5199   -0.5838 C   0  0  0  0  0  3  0  0  0  0  0  0
   -0.7074    1.1002   -0.5691 O   0  0  0  0  0  0  0  0  0  0  0  0
   -1.1955    0.5178    0.6227 C   0  0  0  0  0  0  0  0  0  0  0  0
   -2.5325   -0.1516    0.3213 C   0  0  0  0  0  0  0  0  0  0  0  0
   -2.3552   -1.3615   -0.5876 C   0  0  0  0  0  0  0  0  0  0  0  0
    1.1532    1.6670    1.5049 H   0  0  0  0  0  0  0  0  0  0  0  0
    2.1309    2.6451    0.4074 H   0  0  0  0  0  0  0  0  0  0  0  0
    0.4883    3.1547    0.8196 H   0  0  0  0  0  0  0  0  0  0  0  0
    0.7496    2.0547   -1.5251 H   0  0  0  0  0  0  0  0  0  0  0  0
   -0.4803   -0.2355    0.9949 H   0  0  0  0  0  0  0  0  0  0  0  0
   -1.3212    1.2879    1.3956 H   0  0  0  0  0  0  0  0  0  0  0  0
   -2.9830   -0.4578    1.2666 H   0  0  0  0  0  0  0  0  0  0  0  0
   -3.1908    0.5764   -0.1559 H   0  0  0  0  0  0  0  0  0  0  0  0
   -1.9098   -1.0551   -1.5307 H   0  0  0  0  0  0  0  0  0  0  0  0
   -1.7028   -2.0930   -0.1160 H   0  0  0  0  0  0  0  0  0  0  0  0
   -3.3143   -1.8309   -0.7918 H   0  0  0  0  0  0  0  0  0  0  0  0
  1  2  1  0
  1  4  1  0
  1  5  1  0
  2  3  2  0
  6  7  1  0
  6 12  1  0
  6 13  1  0
  6 14  1  0
  7  8  1  0
  7 15  1  0
  8  9  1  0
  9 10  1  0
  9 16  1  0
  9 17  1  0
 10 11  1  0
 10 18  1  0
 10 19  1  0
 11 20  1  0
 11 21  1  0
 11 22  1  0
M  RAD  1   7   2
M  END
>  <reaction>  (17) 
rmg_rxn_1477

>  <mol_properties>  (17) 
{"0": {"label": "*3", "atom_type": "N3d"}, "1": {"label": "*4", "atom_type": "N3d"}, "3": {"label": "*2", "atom_type": "H0"}, "6": {"label": "*1", "atom_type": "Cs"}, "7": {"label": "*0", "atom_type": "O2s"}}

>  <type>  (17) 
unop_13

>  <geom_source>  (17) 
Heuristics

$$$$

     RDKit          3D

 22 20  0  0  0  0  0  0  0  0999 V2000
   -0.8502   -1.7432    0.8264 N   0  0  0  0  0  0  0  0  0  0  0  0
   -0.8502   -2.9460    0.2816 N   0  0  0  0  0  0  0  0  0  0  0  0
   -0.8502   -2.9460   -0.9229 O   0  0  0  0  0  0  0  0  0  0  0  0
   -0.8502   -0.7606    0.1112 H   0  0  0  0  0  0  0  0  0  0  0  0
   -0.8502   -1.6969    1.8285 H   0  0  0  0  0  0  0  0  0  0  0  0
   -1.4042    0.6751   -2.0226 C   0  0  0  0  0  0  0  0  0  0  0  0
   -0.8502    0.3068   -0.6657 C   0  0  0  0  0  3  0  0  0  0  0  0
    0.2935    1.0827   -0.4138 O   0  0  0  0  0  0  0  0  0  0  0  0
    0.8852    0.8133    0.8321 C   0  0  0  0  0  0  0  0  0  0  0  0
    2.0813    1.7224    1.0269 C   0  0  0  0  0  0  0  0  0  0  0  0
    1.7100    3.1986    1.0732 C   0  0  0  0  0  0  0  0  0  0  0  0
   -0.6639    0.4879   -2.8012 H   0  0  0  0  0  0  0  0  0  0  0  0
   -2.2946    0.0834   -2.2407 H   0  0  0  0  0  0  0  0  0  0  0  0
   -1.6741    1.7313   -2.0512 H   0  0  0  0  0  0  0  0  0  0  0  0
   -1.6024    0.4828    0.1174 H   0  0  0  0  0  0  0  0  0  0  0  0
    0.1521    0.9753    1.6381 H   0  0  0  0  0  0  0  0  0  0  0  0
    1.1958   -0.2408    0.8797 H   0  0  0  0  0  0  0  0  0  0  0  0
    2.5780    1.4300    1.9562 H   0  0  0  0  0  0  0  0  0  0  0  0
    2.7920    1.5395    0.2168 H   0  0  0  0  0  0  0  0  0  0  0  0
    1.0176    3.4006    1.8944 H   0  0  0  0  0  0  0  0  0  0  0  0
    2.5936    3.8214    1.2197 H   0  0  0  0  0  0  0  0  0  0  0  0
    1.2272    3.5046    0.1451 H   0  0  0  0  0  0  0  0  0  0  0  0
  1  2  1  0
  1  4  1  0
  1  5  1  0
  2  3  2  0
  6  7  1  0
  6 12  1  0
  6 13  1  0
  6 14  1  0
  7  8  1  0
  7 15  1  0
  8  9  1  0
  9 10  1  0
  9 16  1  0
  9 17  1  0
 10 11  1  0
 10 18  1  0
 10 19  1  0
 11 20  1  0
 11 21  1  0
 11 22  1  0
M  RAD  1   7   2
M  END
>  <reaction>  (18) 
rmg_rxn_1477

>  <mol_properties>  (18) 
{"0": {"label": "*3", "atom_type": "N3d"}, "1": {"label": "*4", "atom_type": "N3d"}, "3": {"label": "*2", "atom_type": "H0"}, "6": {"label": "*1", "atom_type": "Cs"}, "7": {"label": "*0", "atom_type": "O2s"}}

>  <type>  (18) 
unop_14

>  <geom_source>  (18) 
Heuristics

$$$$

     RDKit          3D

 22 20  0  0  0  0  0  0  0  0999 V2000
   -2.0254    0.5891   -0.7176 N   0  0  0  0  0  0  0  0  0  0  0  0
   -1.7570    1.6314   -0.0549 N   0  0  0  0  0  0  0  0  0  0  0  0
   -1.0673    1.6097    0.9527 O   0  0  0  0  0  0  0  0  0  0  0  0
   -1.3734   -0.4499   -0.6655 H   0  0  0  0  0  0  0  0  0  0  0  0
   -2.5379    0.7770   -1.5734 H   0  0  0  0  0  0  0  0  0  0  0  0
   -1.1248   -2.2911    0.6149 C   0  0  0  0  0  0  0  0  0  0  0  0
   -0.6106   -1.5200   -0.5837 C   0  0  0  0  0  3  0  0  0  0  0  0
    0.7072   -1.1004   -0.5693 O   0  0  0  0  0  0  0  0  0  0  0  0
    1.1957   -0.5181    0.6223 C   0  0  0  0  0  0  0  0  0  0  0  0
    2.5327    0.1512    0.3209 C   0  0  0  0  0  0  0  0  0  0  0  0
    2.3549    1.3619   -0.5869 C   0  0  0  0  0  0  0  0  0  0  0  0
   -2.1312   -2.6446    0.4079 H   0  0  0  0  0  0  0  0  0  0  0  0
   -0.4887   -3.1543    0.8201 H   0  0  0  0  0  0  0  0  0  0  0  0
   -1.1533   -1.6662    1.5050 H   0  0  0  0  0  0  0  0  0  0  0  0
   -0.7501   -2.0550   -1.5249 H   0  0  0  0  0  0  0  0  0  0  0  0
    0.4804    0.2351    0.9949 H   0  0  0  0  0  0  0  0  0  0  0  0
    1.3219   -1.2883    1.3951 H   0  0  0  0  0  0  0  0  0  0  0  0
    2.9839    0.4566    1.2662 H   0  0  0  0  0  0  0  0  0  0  0  0
    3.1905   -0.5766   -0.1573 H   0  0  0  0  0  0  0  0  0  0  0  0
    1.9088    1.0564   -1.5300 H   0  0  0  0  0  0  0  0  0  0  0  0
    1.7029    2.0932   -0.1143 H   0  0  0  0  0  0  0  0  0  0  0  0
    3.3138    1.8314   -0.7915 H   0  0  0  0  0  0  0  0  0  0  0  0
  1  2  1  0
  1  4  1  0
  1  5  1  0
  2  3  2  0
  6  7  1  0
  6 12  1  0
  6 13  1  0
  6 14  1  0
  7  8  1  0
  7 15  1  0
  8  9  1  0
  9 10  1  0
  9 16  1  0
  9 17  1  0
 10 11  1  0
 10 18  1  0
 10 19  1  0
 11 20  1  0
 11 21  1  0
 11 22  1  0
M  RAD  1   7   2
M  END
>  <reaction>  (19) 
rmg_rxn_1477

>  <mol_properties>  (19) 
{"0": {"label": "*3", "atom_type": "N3d"}, "1": {"label": "*4", "atom_type": "N3d"}, "3": {"label": "*2", "atom_type": "H0"}, "6": {"label": "*1", "atom_type": "Cs"}, "7": {"label": "*0", "atom_type": "O2s"}}

>  <type>  (19) 
unop_15

>  <geom_source>  (19) 
Heuristics

$$$$

     RDKit          3D

 22 20  0  0  0  0  0  0  0  0999 V2000
    1.0050   -1.4444    1.6815 N   0  0  0  0  0  0  0  0  0  0  0  0
    1.0050   -2.6472    1.1368 N   0  0  0  0  0  0  0  0  0  0  0  0
    1.0050   -2.6472   -0.0677 O   0  0  0  0  0  0  0  0  0  0  0  0
    1.0050   -0.4618    0.9663 H   0  0  0  0  0  0  0  0  0  0  0  0
    1.0050   -1.3981    2.6836 H   0  0  0  0  0  0  0  0  0  0  0  0
    1.4013    1.1584    1.5388 C   0  0  0  0  0  0  0  0  0  0  0  0
    1.0050    0.6056    0.1894 C   0  0  0  0  0  3  0  0  0  0  0  0
   -0.3156    0.9929   -0.0925 O   0  0  0  0  0  0  0  0  0  0  0  0
   -0.7794    0.5257   -1.3341 C   0  0  0  0  0  0  0  0  0  0  0  0
   -2.1911    1.0256   -1.5631 C   0  0  0  0  0  0  0  0  0  0  0  0
   -2.2821    2.5434   -1.6494 C   0  0  0  0  0  0  0  0  0  0  0  0
    0.7404    0.7761    2.3175 H   0  0  0  0  0  0  0  0  0  0  0  0
    2.4254    0.8692    1.7800 H   0  0  0  0  0  0  0  0  0  0  0  0
    1.3392    2.2473    1.5389 H   0  0  0  0  0  0  0  0  0  0  0  0
    1.6807    0.9808   -0.5933 H   0  0  0  0  0  0  0  0  0  0  0  0
   -0.1173    0.8812   -2.1394 H   0  0  0  0  0  0  0  0  0  0  0  0
   -0.7565   -0.5738   -1.3535 H   0  0  0  0  0  0  0  0  0  0  0  0
   -2.5622    0.5733   -2.4870 H   0  0  0  0  0  0  0  0  0  0  0  0
   -2.8256    0.6571   -0.7530 H   0  0  0  0  0  0  0  0  0  0  0  0
   -1.6707    2.9242   -2.4713 H   0  0  0  0  0  0  0  0  0  0  0  0
   -3.3102    2.8661   -1.8198 H   0  0  0  0  0  0  0  0  0  0  0  0
   -1.9283    3.0044   -0.7273 H   0  0  0  0  0  0  0  0  0  0  0  0
  1  2  1  0
  1  4  1  0
  1  5  1  0
  2  3  2  0
  6  7  1  0
  6 12  1  0
  6 13  1  0
  6 14  1  0
  7  8  1  0
  7 15  1  0
  8  9  1  0
  9 10  1  0
  9 16  1  0
  9 17  1  0
 10 11  1  0
 10 18  1  0
 10 19  1  0
 11 20  1  0
 11 21  1  0
 11 22  1  0
M  RAD  1   7   2
M  END
>  <reaction>  (20) 
rmg_rxn_1477

>  <mol_properties>  (20) 
{"0": {"label": "*3", "atom_type": "N3d"}, "1": {"label": "*4", "atom_type": "N3d"}, "3": {"label": "*2", "atom_type": "H0"}, "6": {"label": "*1", "atom_type": "Cs"}, "7": {"label": "*0", "atom_type": "O2s"}}

>  <type>  (20) 
unop_16

>  <geom_source>  (20) 
Heuristics

$$$$

     RDKit          3D

 22 20  0  0  0  0  0  0  0  0999 V2000
    2.0256   -0.5894   -0.7172 N   0  0  0  0  0  0  0  0  0  0  0  0
    1.7564   -1.6318   -0.0549 N   0  0  0  0  0  0  0  0  0  0  0  0
    1.0663   -1.6102    0.9525 O   0  0  0  0  0  0  0  0  0  0  0  0
    1.3736    0.4497   -0.6652 H   0  0  0  0  0  0  0  0  0  0  0  0
    2.5382   -0.7773   -1.5728 H   0  0  0  0  0  0  0  0  0  0  0  0
    1.1251    2.2912    0.6150 C   0  0  0  0  0  0  0  0  0  0  0  0
    0.6110    1.5199   -0.5837 C   0  0  0  0  0  3  0  0  0  0  0  0
   -0.7069    1.1005   -0.5694 O   0  0  0  0  0  0  0  0  0  0  0  0
   -1.1956    0.5186    0.6223 C   0  0  0  0  0  0  0  0  0  0  0  0
   -2.5325   -0.1508    0.3205 C   0  0  0  0  0  0  0  0  0  0  0  0
   -2.3546   -1.3618   -0.5867 C   0  0  0  0  0  0  0  0  0  0  0  0
    1.1533    1.6665    1.5052 H   0  0  0  0  0  0  0  0  0  0  0  0
    2.1317    2.6444    0.4081 H   0  0  0  0  0  0  0  0  0  0  0  0
    0.4892    3.1545    0.8198 H   0  0  0  0  0  0  0  0  0  0  0  0
    0.7507    2.0548   -1.5249 H   0  0  0  0  0  0  0  0  0  0  0  0
   -0.4807   -0.2347    0.9951 H   0  0  0  0  0  0  0  0  0  0  0  0
   -1.3217    1.2890    1.3949 H   0  0  0  0  0  0  0  0  0  0  0  0
   -2.9841   -0.4556    1.2658 H   0  0  0  0  0  0  0  0  0  0  0  0
   -3.1902    0.5769   -0.1582 H   0  0  0  0  0  0  0  0  0  0  0  0
   -1.7029   -2.0930   -0.1136 H   0  0  0  0  0  0  0  0  0  0  0  0
   -3.3136   -1.8311   -0.7914 H   0  0  0  0  0  0  0  0  0  0  0  0
   -1.9082   -1.0567   -1.5299 H   0  0  0  0  0  0  0  0  0  0  0  0
  1  2  1  0
  1  4  1  0
  1  5  1  0
  2  3  2  0
  6  7  1  0
  6 12  1  0
  6 13  1  0
  6 14  1  0
  7  8  1  0
  7 15  1  0
  8  9  1  0
  9 10  1  0
  9 16  1  0
  9 17  1  0
 10 11  1  0
 10 18  1  0
 10 19  1  0
 11 20  1  0
 11 21  1  0
 11 22  1  0
M  RAD  1   7   2
M  END
>  <reaction>  (21) 
rmg_rxn_1477

>  <mol_properties>  (21) 
{"0": {"label": "*3", "atom_type": "N3d"}, "1": {"label": "*4", "atom_type": "N3d"}, "3": {"label": "*2", "atom_type": "H0"}, "6": {"label": "*1", "atom_type": "Cs"}, "7": {"label": "*0", "atom_type": "O2s"}}

>  <type>  (21) 
unop_17

>  <geom_source>  (21) 
Heuristics

$$$$

     RDKit          3D

 22 20  0  0  0  0  0  0  0  0999 V2000
   -0.7326   -0.8959    2.1179 N   0  0  0  0  0  0  0  0  0  0  0  0
   -0.7326   -2.0987    1.5732 N   0  0  0  0  0  0  0  0  0  0  0  0
   -0.7326   -2.0987    0.3687 O   0  0  0  0  0  0  0  0  0  0  0  0
   -0.7326    0.0868    1.4027 H   0  0  0  0  0  0  0  0  0  0  0  0
   -0.7326   -0.8495    3.1200 H   0  0  0  0  0  0  0  0  0  0  0  0
   -1.9565    1.9896    0.3298 C   0  0  0  0  0  0  0  0  0  0  0  0
   -0.7326    1.1542    0.6258 C   0  0  0  0  0  3  0  0  0  0  0  0
   -0.0723    0.8685   -0.5808 O   0  0  0  0  0  0  0  0  0  0  0  0
    1.0866    0.0919   -0.4105 C   0  0  0  0  0  0  0  0  0  0  0  0
    1.7455   -0.1285   -1.7568 C   0  0  0  0  0  0  0  0  0  0  0  0
    2.2233    1.1626   -2.4079 C   0  0  0  0  0  0  0  0  0  0  0  0
   -2.6352    1.4516   -0.3329 H   0  0  0  0  0  0  0  0  0  0  0  0
   -2.4870    2.2238    1.2541 H   0  0  0  0  0  0  0  0  0  0  0  0
   -1.6729    2.9250   -0.1539 H   0  0  0  0  0  0  0  0  0  0  0  0
   -0.0552    1.6920    1.3054 H   0  0  0  0  0  0  0  0  0  0  0  0
    1.7835    0.6034    0.2722 H   0  0  0  0  0  0  0  0  0  0  0  0
    0.8273   -0.8729    0.0496 H   0  0  0  0  0  0  0  0  0  0  0  0
    2.5878   -0.8106   -1.6111 H   0  0  0  0  0  0  0  0  0  0  0  0
    1.0346   -0.6385   -2.4119 H   0  0  0  0  0  0  0  0  0  0  0  0
    2.9536    1.6717   -1.7740 H   0  0  0  0  0  0  0  0  0  0  0  0
    2.6963    0.9650   -3.3710 H   0  0  0  0  0  0  0  0  0  0  0  0
    1.3888    1.8444   -2.5714 H   0  0  0  0  0  0  0  0  0  0  0  0
  1  2  1  0
  1  4  1  0
  1  5  1  0
  2  3  2  0
  6  7  1  0
  6 12  1  0
  6 13  1  0
  6 14  1  0
  7  8  1  0
  7 15  1  0
  8  9  1  0
  9 10  1  0
  9 16  1  0
  9 17  1  0
 10 11  1  0
 10 18  1  0
 10 19  1  0
 11 20  1  0
 11 21  1  0
 11 22  1  0
M  RAD  1   7   2
M  END
>  <reaction>  (22) 
rmg_rxn_1477

>  <mol_properties>  (22) 
{"0": {"label": "*3", "atom_type": "N3d"}, "1": {"label": "*4", "atom_type": "N3d"}, "3": {"label": "*2", "atom_type": "H0"}, "6": {"label": "*1", "atom_type": "Cs"}, "7": {"label": "*0", "atom_type": "O2s"}}

>  <type>  (22) 
unop_18

>  <geom_source>  (22) 
Heuristics

$$$$

     RDKit          3D

 22 20  0  0  0  0  0  0  0  0999 V2000
    0.7952   -1.1320    2.0798 N   0  0  0  0  0  0  0  0  0  0  0  0
    0.7952   -2.3349    1.5351 N   0  0  0  0  0  0  0  0  0  0  0  0
    0.7952   -2.3349    0.3306 O   0  0  0  0  0  0  0  0  0  0  0  0
    0.7952   -0.1494    1.3646 H   0  0  0  0  0  0  0  0  0  0  0  0
    0.7952   -1.0857    3.0819 H   0  0  0  0  0  0  0  0  0  0  0  0
    0.4776    1.6391    1.8772 C   0  0  0  0  0  0  0  0  0  0  0  0
    0.7952    0.9180    0.5877 C   0  0  0  0  0  3  0  0  0  0  0  0
   -0.3485    0.9167   -0.2281 O   0  0  0  0  0  0  0  0  0  0  0  0
   -0.1535    0.2663   -1.4585 C   0  0  0  0  0  0  0  0  0  0  0  0
   -1.4245    0.3519   -2.2786 C   0  0  0  0  0  0  0  0  0  0  0  0
   -1.8088    1.7806   -2.6398 C   0  0  0  0  0  0  0  0  0  0  0  0
   -0.3383    1.1414    2.4024 H   0  0  0  0  0  0  0  0  0  0  0  0
    1.3529    1.6522    2.5285 H   0  0  0  0  0  0  0  0  0  0  0  0
    0.1797    2.6687    1.6758 H   0  0  0  0  0  0  0  0  0  0  0  0
    1.6274    1.4126    0.0654 H   0  0  0  0  0  0  0  0  0  0  0  0
    0.6802    0.7369   -2.0033 H   0  0  0  0  0  0  0  0  0  0  0  0
    0.1198   -0.7853   -1.2877 H   0  0  0  0  0  0  0  0  0  0  0  0
   -1.2791   -0.2397   -3.1867 H   0  0  0  0  0  0  0  0  0  0  0  0
   -2.2328   -0.1235   -1.7169 H   0  0  0  0  0  0  0  0  0  0  0  0
   -1.0190    2.2609   -3.2228 H   0  0  0  0  0  0  0  0  0  0  0  0
   -2.7237    1.8030   -3.2335 H   0  0  0  0  0  0  0  0  0  0  0  0
   -1.9708    2.3758   -1.7411 H   0  0  0  0  0  0  0  0  0  0  0  0
  1  2  1  0
  1  4  1  0
  1  5  1  0
  2  3  2  0
  6  7  1  0
  6 12  1  0
  6 13  1  0
  6 14  1  0
  7  8  1  0
  7 15  1  0
  8  9  1  0
  9 10  1  0
  9 16  1  0
  9 17  1  0
 10 11  1  0
 10 18  1  0
 10 19  1  0
 11 20  1  0
 11 21  1  0
 11 22  1  0
M  RAD  1   7   2
M  END
>  <reaction>  (23) 
rmg_rxn_1477

>  <mol_properties>  (23) 
{"0": {"label": "*3", "atom_type": "N3d"}, "1": {"label": "*4", "atom_type": "N3d"}, "3": {"label": "*2", "atom_type": "H0"}, "6": {"label": "*1", "atom_type": "Cs"}, "7": {"label": "*0", "atom_type": "O2s"}}

>  <type>  (23) 
unop_19

>  <geom_source>  (23) 
Heuristics

$$$$

     RDKit          3D

 22 20  0  0  0  0  0  0  0  0999 V2000
   -0.3524   -1.9647    0.5880 N   0  0  0  0  0  0  0  0  0  0  0  0
   -0.3524   -3.1676    0.0432 N   0  0  0  0  0  0  0  0  0  0  0  0
   -0.3524   -3.1676   -1.1613 O   0  0  0  0  0  0  0  0  0  0  0  0
   -0.3524   -0.9821   -0.1272 H   0  0  0  0  0  0  0  0  0  0  0  0
   -0.3524   -1.9184    1.5901 H   0  0  0  0  0  0  0  0  0  0  0  0
   -0.1554    0.2169   -2.3966 C   0  0  0  0  0  0  0  0  0  0  0  0
   -0.3524    0.0853   -0.9041 C   0  0  0  0  0  3  0  0  0  0  0  0
    0.3079    1.1456   -0.2614 O   0  0  0  0  0  0  0  0  0  0  0  0
    0.1823    1.1127    1.1380 C   0  0  0  0  0  0  0  0  0  0  0  0
    0.8909    2.3118    1.7340 C   0  0  0  0  0  0  0  0  0  0  0  0
    0.2789    3.6404    1.3103 C   0  0  0  0  0  0  0  0  0  0  0  0
    0.9056    0.1840   -2.6463 H   0  0  0  0  0  0  0  0  0  0  0  0
   -0.6602   -0.5980   -2.9179 H   0  0  0  0  0  0  0  0  0  0  0  0
   -0.5639    1.1628   -2.7540 H   0  0  0  0  0  0  0  0  0  0  0  0
   -1.4236    0.1046   -0.6545 H   0  0  0  0  0  0  0  0  0  0  0  0
   -0.8827    1.1248    1.4191 H   0  0  0  0  0  0  0  0  0  0  0  0
    0.6137    0.1805    1.5314 H   0  0  0  0  0  0  0  0  0  0  0  0
    0.8603    2.2135    2.8227 H   0  0  0  0  0  0  0  0  0  0  0  0
    1.9436    2.2735    1.4420 H   0  0  0  0  0  0  0  0  0  0  0  0
   -0.7682    3.7025    1.6173 H   0  0  0  0  0  0  0  0  0  0  0  0
    0.8103    4.4793    1.7620 H   0  0  0  0  0  0  0  0  0  0  0  0
    0.3177    3.7554    0.2271 H   0  0  0  0  0  0  0  0  0  0  0  0
  1  2  1  0
  1  4  1  0
  1  5  1  0
  2  3  2  0
  6  7  1  0
  6 12  1  0
  6 13  1  0
  6 14  1  0
  7  8  1  0
  7 15  1  0
  8  9  1  0
  9 10  1  0
  9 16  1  0
  9 17  1  0
 10 11  1  0
 10 18  1  0
 10 19  1  0
 11 20  1  0
 11 21  1  0
 11 22  1  0
M  RAD  1   7   2
M  END
>  <reaction>  (24) 
rmg_rxn_1477

>  <mol_properties>  (24) 
{"0": {"label": "*3", "atom_type": "N3d"}, "1": {"label": "*4", "atom_type": "N3d"}, "3": {"label": "*2", "atom_type": "H0"}, "6": {"label": "*1", "atom_type": "Cs"}, "7": {"label": "*0", "atom_type": "O2s"}}

>  <type>  (24) 
unop_20

>  <geom_source>  (24) 
Heuristics

$$$$

     RDKit          3D

 22 20  0  0  0  0  0  0  0  0999 V2000
   -0.2215   -0.8129    2.3455 N   0  0  0  0  0  0  0  0  0  0  0  0
   -0.2215   -2.0157    1.8007 N   0  0  0  0  0  0  0  0  0  0  0  0
   -0.2215   -2.0157    0.5962 O   0  0  0  0  0  0  0  0  0  0  0  0
   -0.2215    0.1697    1.6302 H   0  0  0  0  0  0  0  0  0  0  0  0
   -0.2215   -0.7665    3.3475 H   0  0  0  0  0  0  0  0  0  0  0  0
   -1.4443    2.0841    1.1197 C   0  0  0  0  0  0  0  0  0  0  0  0
   -0.2215    1.2371    0.8533 C   0  0  0  0  0  3  0  0  0  0  0  0
   -0.2215    0.8473   -0.4963 O   0  0  0  0  0  0  0  0  0  0  0  0
    0.8832    0.0519   -0.8457 C   0  0  0  0  0  0  0  0  0  0  0  0
    0.8141   -0.2827   -2.3216 C   0  0  0  0  0  0  0  0  0  0  0  0
    0.9073    0.9444   -3.2187 C   0  0  0  0  0  0  0  0  0  0  0  0
   -2.3533    1.5199    0.9083 H   0  0  0  0  0  0  0  0  0  0  0  0
   -1.4660    2.3988    2.1642 H   0  0  0  0  0  0  0  0  0  0  0  0
   -1.4373    2.9741    0.4895 H   0  0  0  0  0  0  0  0  0  0  0  0
    0.6946    1.8023    1.0801 H   0  0  0  0  0  0  0  0  0  0  0  0
    1.8180    0.5906   -0.6236 H   0  0  0  0  0  0  0  0  0  0  0  0
    0.8865   -0.8698   -0.2455 H   0  0  0  0  0  0  0  0  0  0  0  0
    1.6286   -0.9766   -2.5475 H   0  0  0  0  0  0  0  0  0  0  0  0
   -0.1198   -0.8175   -2.5130 H   0  0  0  0  0  0  0  0  0  0  0  0
    1.8479    1.4762   -3.0550 H   0  0  0  0  0  0  0  0  0  0  0  0
    0.8597    0.6652   -4.2723 H   0  0  0  0  0  0  0  0  0  0  0  0
    0.0909    1.6365   -3.0121 H   0  0  0  0  0  0  0  0  0  0  0  0
  1  2  1  0
  1  4  1  0
  1  5  1  0
  2  3  2  0
  6  7  1  0
  6 12  1  0
  6 13  1  0
  6 14  1  0
  7  8  1  0
  7 15  1  0
  8  9  1  0
  9 10  1  0
  9 16  1  0
  9 17  1  0
 10 11  1  0
 10 18  1  0
 10 19  1  0
 11 20  1  0
 11 21  1  0
 11 22  1  0
M  RAD  1   7   2
M  END
>  <reaction>  (25) 
rmg_rxn_1477

>  <mol_properties>  (25) 
{"0": {"label": "*3", "atom_type": "N3d"}, "1": {"label": "*4", "atom_type": "N3d"}, "3": {"label": "*2", "atom_type": "H0"}, "6": {"label": "*1", "atom_type": "Cs"}, "7": {"label": "*0", "atom_type": "O2s"}}

>  <type>  (25) 
unop_21

>  <geom_source>  (25) 
Heuristics

$$$$

     RDKit          3D

 22 20  0  0  0  0  0  0  0  0999 V2000
    0.3444   -0.8999    2.3313 N   0  0  0  0  0  0  0  0  0  0  0  0
    0.3444   -2.1027    1.7866 N   0  0  0  0  0  0  0  0  0  0  0  0
    0.3444   -2.1027    0.5821 O   0  0  0  0  0  0  0  0  0  0  0  0
    0.3444    0.0827    1.6161 H   0  0  0  0  0  0  0  0  0  0  0  0
    0.3444   -0.8536    3.3334 H   0  0  0  0  0  0  0  0  0  0  0  0
   -0.5747    1.9630    1.7212 C   0  0  0  0  0  0  0  0  0  0  0  0
    0.3444    1.1501    0.8392 C   0  0  0  0  0  3  0  0  0  0  0  0
   -0.3159    0.8644   -0.3674 O   0  0  0  0  0  0  0  0  0  0  0  0
    0.4613    0.1082   -1.2614 C   0  0  0  0  0  0  0  0  0  0  0  0
   -0.3187   -0.1135   -2.5411 C   0  0  0  0  0  0  0  0  0  0  0  0
   -0.6333    1.1793   -3.2820 C   0  0  0  0  0  0  0  0  0  0  0  0
   -1.4891    1.4083    1.9343 H   0  0  0  0  0  0  0  0  0  0  0  0
   -0.0823    2.1968    2.6665 H   0  0  0  0  0  0  0  0  0  0  0  0
   -0.8461    2.8985    1.2309 H   0  0  0  0  0  0  0  0  0  0  0  0
    1.2724    1.7047    0.6363 H   0  0  0  0  0  0  0  0  0  0  0  0
    1.4027    0.6369   -1.4793 H   0  0  0  0  0  0  0  0  0  0  0  0
    0.7264   -0.8566   -0.8045 H   0  0  0  0  0  0  0  0  0  0  0  0
    0.2664   -0.7806   -3.1802 H   0  0  0  0  0  0  0  0  0  0  0  0
   -1.2445   -0.6407   -2.2965 H   0  0  0  0  0  0  0  0  0  0  0  0
    0.2849    1.7057   -3.5543 H   0  0  0  0  0  0  0  0  0  0  0  0
   -1.1897    0.9808   -4.1992 H   0  0  0  0  0  0  0  0  0  0  0  0
   -1.2294    1.8460   -2.6590 H   0  0  0  0  0  0  0  0  0  0  0  0
  1  2  1  0
  1  4  1  0
  1  5  1  0
  2  3  2  0
  6  7  1  0
  6 12  1  0
  6 13  1  0
  6 14  1  0
  7  8  1  0
  7 15  1  0
  8  9  1  0
  9 10  1  0
  9 16  1  0
  9 17  1  0
 10 11  1  0
 10 18  1  0
 10 19  1  0
 11 20  1  0
 11 21  1  0
 11 22  1  0
M  RAD  1   7   2
M  END
>  <reaction>  (26) 
rmg_rxn_1477

>  <mol_properties>  (26) 
{"0": {"label": "*3", "atom_type": "N3d"}, "1": {"label": "*4", "atom_type": "N3d"}, "3": {"label": "*2", "atom_type": "H0"}, "6": {"label": "*1", "atom_type": "Cs"}, "7": {"label": "*0", "atom_type": "O2s"}}

>  <type>  (26) 
unop_22

>  <geom_source>  (26) 
gaussian_log

$$$$
