
     RDKit          3D

  9  8  0  0  0  0  0  0  0  0999 V2000
   -1.5470   -0.0755   -0.1976 C   0  0  0  0  0  0  0  0  0  0  0  0
   -0.2885    0.4507    0.1749 O   0  0  0  0  0  0  0  0  0  0  0  0
   -0.1502    1.7216   -0.3294 N   0  0  0  0  0  0  0  0  0  0  0  0
    0.9626    2.2353   -0.0219 C   0  0  0  0  0  0  0  0  0  0  0  0
   -1.6392   -0.1356   -1.2844 H   0  0  0  0  0  0  0  0  0  0  0  0
   -2.3597    0.5337    0.2044 H   0  0  0  0  0  0  0  0  0  0  0  0
   -1.5879   -1.0750    0.2318 H   0  0  0  0  0  0  0  0  0  0  0  0
    1.1497    3.2381   -0.3820 H   0  0  0  0  0  0  0  0  0  0  0  0
    1.7060    1.7101    0.5739 H   0  0  0  0  0  0  0  0  0  0  0  0
  1  2  1  0
  1  5  1  0
  1  6  1  0
  1  7  1  0
  2  3  1  0
  3  4  2  3
  4  8  1  0
  4  9  1  0
M  END
>  <reaction>  (1) 
rmg_rxn_15600

>  <mol_properties>  (1) 
{"0": {"label": "donator", "atom_type": "Cs"}, "4": {"label": "d_hydrogen", "atom_type": "H0"}}

>  <type>  (1) 
r1h

$$$$

     RDKit          3D

 13 12  0  0  0  0  0  0  0  0999 V2000
    1.9060    0.2628    0.3980 C   0  0  0  0  0  0  0  0  0  0  0  0
    0.6330   -0.4250    0.0685 C   0  0  0  0  0  3  0  0  0  0  0  0
   -0.2610   -0.9325    1.1416 C   0  0  0  0  0  0  0  0  0  0  0  0
   -1.4364   -1.7546    0.6268 C   0  0  0  0  0  0  0  0  0  0  0  0
    2.4899   -0.3070    1.1292 H   0  0  0  0  0  0  0  0  0  0  0  0
    1.7297    1.2496    0.8515 H   0  0  0  0  0  0  0  0  0  0  0  0
    2.5269    0.4197   -0.4845 H   0  0  0  0  0  0  0  0  0  0  0  0
    0.2597   -0.3936   -0.9489 H   0  0  0  0  0  0  0  0  0  0  0  0
   -0.6439   -0.0868    1.7356 H   0  0  0  0  0  0  0  0  0  0  0  0
    0.3260   -1.5277    1.8536 H   0  0  0  0  0  0  0  0  0  0  0  0
   -1.0872   -2.6320    0.0792 H   0  0  0  0  0  0  0  0  0  0  0  0
   -2.0701   -2.0976    1.4459 H   0  0  0  0  0  0  0  0  0  0  0  0
   -2.0561   -1.1637   -0.0512 H   0  0  0  0  0  0  0  0  0  0  0  0
  1  2  1  0
  1  5  1  0
  1  6  1  0
  1  7  1  0
  2  3  1  0
  2  8  1  0
  3  4  1  0
  3  9  1  0
  3 10  1  0
  4 11  1  0
  4 12  1  0
  4 13  1  0
M  RAD  1   2   2
M  END
>  <reaction>  (2) 
rmg_rxn_15600

>  <mol_properties>  (2) 
{"1": {"label": "acceptor", "atom_type": "Cs"}}

>  <type>  (2) 
r2

$$$$

     RDKit          3D

 14 13  0  0  0  0  0  0  0  0999 V2000
    1.8106   -0.5953    0.5577 C   0  0  0  0  0  0  0  0  0  0  0  0
    0.5197    0.2064    0.6554 C   0  0  0  0  0  0  0  0  0  0  0  0
   -0.5206   -0.2080   -0.3788 C   0  0  0  0  0  0  0  0  0  0  0  0
   -1.8114    0.5937   -0.2812 C   0  0  0  0  0  0  0  0  0  0  0  0
    2.2725   -0.4752   -0.4251 H   0  0  0  0  0  0  0  0  0  0  0  0
    1.6214   -1.6612    0.7052 H   0  0  0  0  0  0  0  0  0  0  0  0
    2.5364   -0.2784    1.3084 H   0  0  0  0  0  0  0  0  0  0  0  0
    0.0930    0.0950    1.6574 H   0  0  0  0  0  0  0  0  0  0  0  0
    0.7393    1.2723    0.5354 H   0  0  0  0  0  0  0  0  0  0  0  0
   -0.7402   -1.2739   -0.2588 H   0  0  0  0  0  0  0  0  0  0  0  0
   -0.0938   -0.0965   -1.3808 H   0  0  0  0  0  0  0  0  0  0  0  0
   -1.6222    1.6596   -0.4287 H   0  0  0  0  0  0  0  0  0  0  0  0
   -2.2734    0.4736    0.7017 H   0  0  0  0  0  0  0  0  0  0  0  0
   -2.5373    0.2768   -1.0318 H   0  0  0  0  0  0  0  0  0  0  0  0
  1  2  1  0
  1  5  1  0
  1  6  1  0
  1  7  1  0
  2  3  1  0
  2  8  1  0
  2  9  1  0
  3  4  1  0
  3 10  1  0
  3 11  1  0
  4 12  1  0
  4 13  1  0
  4 14  1  0
M  END
>  <reaction>  (3) 
rmg_rxn_15600

>  <mol_properties>  (3) 
{"0": {"label": "a_hydrogen", "atom_type": "H0"}, "2": {"label": "acceptor", "atom_type": "Cs"}}

>  <type>  (3) 
r2h

$$$$

     RDKit          3D

 22 20  0  0  0  0  0  0  0  0999 V2000
   -1.1484    1.1744    0.5721 C   0  0  0  0  0  3  0  0  0  0  0  0
   -1.1894    0.8834   -0.7887 O   0  0  0  0  0  0  0  0  0  0  0  0
   -1.5617   -0.4255   -0.9948 N   0  0  0  0  0  0  0  0  0  0  0  0
   -1.5414   -0.7318   -2.2210 C   0  0  0  0  0  0  0  0  0  0  0  0
   -0.0836    0.5242    1.1125 H   0  0  0  0  0  0  0  0  0  0  0  0
   -2.0222    0.8102    1.1121 H   0  0  0  0  0  0  0  0  0  0  0  0
   -0.9669    2.2403    0.6801 H   0  0  0  0  0  0  0  0  0  0  0  0
   -1.8303   -1.7439   -2.4709 H   0  0  0  0  0  0  0  0  0  0  0  0
   -1.2530   -0.0265   -2.9970 H   0  0  0  0  0  0  0  0  0  0  0  0
    0.2761   -1.4830    2.0923 C   0  0  0  0  0  0  0  0  0  0  0  0
    0.9328   -0.2526    1.5234 C   0  0  0  0  0  0  0  0  0  0  0  0
    1.7961   -0.4661    0.3051 C   0  0  0  0  0  0  0  0  0  0  0  0
    2.3583    0.8266   -0.2725 C   0  0  0  0  0  0  0  0  0  0  0  0
    1.0209   -2.2101    2.4353 H   0  0  0  0  0  0  0  0  0  0  0  0
   -0.3428   -1.9721    1.3363 H   0  0  0  0  0  0  0  0  0  0  0  0
   -0.3627   -1.2399    2.9434 H   0  0  0  0  0  0  0  0  0  0  0  0
    1.4177    0.3700    2.2791 H   0  0  0  0  0  0  0  0  0  0  0  0
    1.2112   -0.9889   -0.4583 H   0  0  0  0  0  0  0  0  0  0  0  0
    2.6230   -1.1409    0.5649 H   0  0  0  0  0  0  0  0  0  0  0  0
    2.9480    1.3643    0.4740 H   0  0  0  0  0  0  0  0  0  0  0  0
    3.0042    0.6306   -1.1299 H   0  0  0  0  0  0  0  0  0  0  0  0
    1.5538    1.4858   -0.6038 H   0  0  0  0  0  0  0  0  0  0  0  0
  1  2  1  0
  1  6  1  0
  1  7  1  0
  2  3  1  0
  3  4  2  3
  4  8  1  0
  4  9  1  0
  5 11  1  0
 10 11  1  0
 10 14  1  0
 10 15  1  0
 10 16  1  0
 11 12  1  0
 11 17  1  0
 12 13  1  0
 12 18  1  0
 12 19  1  0
 13 20  1  0
 13 21  1  0
 13 22  1  0
M  RAD  1   1   2
M  END
>  <reaction>  (4) 
rmg_rxn_15600

>  <mol_properties>  (4) 
{"0": {"label": "*3", "atom_type": "Cs"}, "1": {"label": "*4", "atom_type": "O2s"}, "4": {"label": "*2", "atom_type": "H0"}, "10": {"label": "*1", "atom_type": "Cs"}, "11": {"label": "*0", "atom_type": "Cs"}}

>  <type>  (4) 
ts

$$$$

     RDKit          3D

 22 20  0  0  0  0  0  0  0  0999 V2000
   -0.4270    1.4018   -0.8036 C   0  0  0  0  0  3  0  0  0  0  0  0
   -1.3755    1.0372    0.1371 O   0  0  0  0  0  0  0  0  0  0  0  0
   -2.0439   -0.1201   -0.2015 N   0  0  0  0  0  0  0  0  0  0  0  0
   -2.8794   -0.5453    0.6472 C   0  0  0  0  0  0  0  0  0  0  0  0
    0.7286    0.7703   -0.5450 H   0  0  0  0  0  0  0  0  0  0  0  0
   -0.2251    2.4608   -0.6855 H   0  0  0  0  0  0  0  0  0  0  0  0
   -0.6932    1.1128   -1.8171 H   0  0  0  0  0  0  0  0  0  0  0  0
   -3.4076   -1.4453    0.3889 H   0  0  0  0  0  0  0  0  0  0  0  0
   -3.0889   -0.0607    1.5957 H   0  0  0  0  0  0  0  0  0  0  0  0
    2.6385    1.1363    0.6004 C   0  0  0  0  0  0  0  0  0  0  0  0
    1.8630    0.1760   -0.2679 C   0  0  0  0  0  0  0  0  0  0  0  0
    1.5256   -1.1389    0.3958 C   0  0  0  0  0  0  0  0  0  0  0  0
    0.7267   -2.0641   -0.5150 C   0  0  0  0  0  0  0  0  0  0  0  0
    3.6161    0.7238    0.8595 H   0  0  0  0  0  0  0  0  0  0  0  0
    2.1029    1.3327    1.5273 H   0  0  0  0  0  0  0  0  0  0  0  0
    2.7987    2.0810    0.0851 H   0  0  0  0  0  0  0  0  0  0  0  0
    2.3307    0.0332   -1.2414 H   0  0  0  0  0  0  0  0  0  0  0  0
    0.9583   -0.9483    1.3108 H   0  0  0  0  0  0  0  0  0  0  0  0
    2.4551   -1.6418    0.6917 H   0  0  0  0  0  0  0  0  0  0  0  0
    0.5447   -3.0170   -0.0234 H   0  0  0  0  0  0  0  0  0  0  0  0
   -0.2342   -1.6186   -0.7629 H   0  0  0  0  0  0  0  0  0  0  0  0
    1.2705   -2.2527   -1.4383 H   0  0  0  0  0  0  0  0  0  0  0  0
  1  2  1  0
  1  6  1  0
  1  7  1  0
  2  3  1  0
  3  4  2  3
  4  8  1  0
  4  9  1  0
  5 11  1  0
 10 11  1  0
 10 14  1  0
 10 15  1  0
 10 16  1  0
 11 12  1  0
 11 17  1  0
 12 13  1  0
 12 18  1  0
 12 19  1  0
 13 20  1  0
 13 21  1  0
 13 22  1  0
M  RAD  1   1   2
M  END
>  <reaction>  (5) 
rmg_rxn_15600

>  <mol_properties>  (5) 
{"0": {"label": "*3", "atom_type": "Cs"}, "1": {"label": "*4", "atom_type": "O2s"}, "4": {"label": "*2", "atom_type": "H0"}, "10": {"label": "*1", "atom_type": "Cs"}, "11": {"label": "*0", "atom_type": "Cs"}}

>  <type>  (5) 
unop_1

>  <geom_source>  (5) 
crest_best.xyz

$$$$

     RDKit          3D

 22 20  0  0  0  0  0  0  0  0999 V2000
   -1.2555    0.6553    0.1446 C   0  0  0  0  0  0  0  0  0  0  0  0
   -1.2555    0.7132   -1.2683 O   0  0  0  0  0  0  0  0  0  0  0  0
   -1.2555   -0.5607   -1.7840 N   0  0  0  0  0  0  0  0  0  0  0  0
   -1.2555   -0.5607   -3.0476 C   0  0  0  0  0  0  0  0  0  0  0  0
   -0.1849    0.0431    0.5887 H   0  0  0  0  0  0  0  0  0  0  0  0
   -2.1476    0.1451    0.5147 H   0  0  0  0  0  0  0  0  0  0  0  0
   -1.2555    1.6902    0.4824 H   0  0  0  0  0  0  0  0  0  0  0  0
   -1.2555   -1.5277   -3.5325 H   0  0  0  0  0  0  0  0  0  0  0  0
   -1.2555    0.3558   -3.6338 H   0  0  0  0  0  0  0  0  0  0  0  0
    1.7221   -1.7402    0.5292 C   0  0  0  0  0  0  0  0  0  0  0  0
    0.8881   -0.5705    1.0339 C   0  0  0  0  0  3  0  0  0  0  0  0
    1.6750    0.3839    1.9246 C   0  0  0  0  0  0  0  0  0  0  0  0
    0.8410    1.5537    2.4293 C   0  0  0  0  0  0  0  0  0  0  0  0
    2.1129   -2.3302    1.3617 H   0  0  0  0  0  0  0  0  0  0  0  0
    2.5756   -1.3889   -0.0554 H   0  0  0  0  0  0  0  0  0  0  0  0
    1.1349   -2.4064   -0.1050 H   0  0  0  0  0  0  0  0  0  0  0  0
    0.0236   -0.9483    1.5893 H   0  0  0  0  0  0  0  0  0  0  0  0
    2.5395    0.7617    1.3692 H   0  0  0  0  0  0  0  0  0  0  0  0
    2.0802   -0.1726    2.7760 H   0  0  0  0  0  0  0  0  0  0  0  0
   -0.0125    1.2024    3.0139 H   0  0  0  0  0  0  0  0  0  0  0  0
    1.4282    2.2199    3.0634 H   0  0  0  0  0  0  0  0  0  0  0  0
    0.4502    2.1436    1.5968 H   0  0  0  0  0  0  0  0  0  0  0  0
  1  2  1  0
  1  5  1  0
  1  6  1  0
  1  7  1  0
  2  3  1  0
  3  4  2  3
  4  8  1  0
  4  9  1  0
 10 11  1  0
 10 14  1  0
 10 15  1  0
 10 16  1  0
 11 12  1  0
 11 17  1  0
 12 13  1  0
 12 18  1  0
 12 19  1  0
 13 20  1  0
 13 21  1  0
 13 22  1  0
M  RAD  1  11   2
M  END
>  <reaction>  (6) 
rmg_rxn_15600

>  <mol_properties>  (6) 
{"0": {"label": "*3", "atom_type": "Cs"}, "1": {"label": "*4", "atom_type": "O2s"}, "4": {"label": "*2", "atom_type": "H0"}, "10": {"label": "*1", "atom_type": "Cs"}, "11": {"label": "*0", "atom_type": "Cs"}}

>  <type>  (6) 
unop_2

>  <geom_source>  (6) 
Heuristics

$$$$

     RDKit          3D

 22 20  0  0  0  0  0  0  0  0999 V2000
   -0.4320    1.3888   -0.8275 C   0  0  0  0  0  3  0  0  0  0  0  0
   -1.3791    1.0385    0.1202 O   0  0  0  0  0  0  0  0  0  0  0  0
   -2.0368   -0.1323   -0.1918 N   0  0  0  0  0  0  0  0  0  0  0  0
   -2.8685   -0.5455    0.6664 C   0  0  0  0  0  0  0  0  0  0  0  0
    0.7263    0.7683   -0.5546 H   0  0  0  0  0  0  0  0  0  0  0  0
   -0.2359    2.4510   -0.7308 H   0  0  0  0  0  0  0  0  0  0  0  0
   -0.6959    1.0777   -1.8350 H   0  0  0  0  0  0  0  0  0  0  0  0
   -3.3884   -1.4560    0.4291 H   0  0  0  0  0  0  0  0  0  0  0  0
   -3.0826   -0.0410    1.6035 H   0  0  0  0  0  0  0  0  0  0  0  0
    2.6162    1.1488    0.6187 C   0  0  0  0  0  0  0  0  0  0  0  0
    1.8615    0.1832   -0.2618 C   0  0  0  0  0  0  0  0  0  0  0  0
    1.5267   -1.1357    0.3953 C   0  0  0  0  0  0  0  0  0  0  0  0
    0.7411   -2.0633   -0.5246 C   0  0  0  0  0  0  0  0  0  0  0  0
    3.5921    0.7429    0.8941 H   0  0  0  0  0  0  0  0  0  0  0  0
    2.0641    1.3420    1.5366 H   0  0  0  0  0  0  0  0  0  0  0  0
    2.7786    2.0945    0.1058 H   0  0  0  0  0  0  0  0  0  0  0  0
    2.3440    0.0460   -1.2289 H   0  0  0  0  0  0  0  0  0  0  0  0
    0.9505   -0.9513    1.3060 H   0  0  0  0  0  0  0  0  0  0  0  0
    2.4568   -1.6335    0.6976 H   0  0  0  0  0  0  0  0  0  0  0  0
    1.2913   -2.2417   -1.4462 H   0  0  0  0  0  0  0  0  0  0  0  0
    0.5657   -3.0206   -0.0392 H   0  0  0  0  0  0  0  0  0  0  0  0
   -0.2228   -1.6253   -0.7744 H   0  0  0  0  0  0  0  0  0  0  0  0
  1  2  1  0
  1  6  1  0
  1  7  1  0
  2  3  1  0
  3  4  2  3
  4  8  1  0
  4  9  1  0
  5 11  1  0
 10 11  1  0
 10 14  1  0
 10 15  1  0
 10 16  1  0
 11 12  1  0
 11 17  1  0
 12 13  1  0
 12 18  1  0
 12 19  1  0
 13 20  1  0
 13 21  1  0
 13 22  1  0
M  RAD  1   1   2
M  END
>  <reaction>  (7) 
rmg_rxn_15600

>  <mol_properties>  (7) 
{"0": {"label": "*3", "atom_type": "Cs"}, "1": {"label": "*4", "atom_type": "O2s"}, "4": {"label": "*2", "atom_type": "H0"}, "10": {"label": "*1", "atom_type": "Cs"}, "11": {"label": "*0", "atom_type": "Cs"}}

>  <type>  (7) 
unop_3

>  <geom_source>  (7) 
Heuristics

$$$$

     RDKit          3D

 22 20  0  0  0  0  0  0  0  0999 V2000
   -0.8815   -1.5023    0.8793 C   0  0  0  0  0  3  0  0  0  0  0  0
   -1.6465   -1.0019   -0.1079 O   0  0  0  0  0  0  0  0  0  0  0  0
   -2.1317    0.2619    0.1343 N   0  0  0  0  0  0  0  0  0  0  0  0
   -2.8121    0.7780   -0.8062 C   0  0  0  0  0  0  0  0  0  0  0  0
    0.9763   -0.7787    0.4473 H   0  0  0  0  0  0  0  0  0  0  0  0
   -0.9118   -1.0321    1.8464 H   0  0  0  0  0  0  0  0  0  0  0  0
   -0.6726   -2.5477    0.7587 H   0  0  0  0  0  0  0  0  0  0  0  0
   -3.1963    1.7657   -0.6296 H   0  0  0  0  0  0  0  0  0  0  0  0
   -3.0200    0.2849   -1.7500 H   0  0  0  0  0  0  0  0  0  0  0  0
    2.7964   -1.1875   -0.6941 C   0  0  0  0  0  0  0  0  0  0  0  0
    1.9533   -0.3138    0.2115 C   0  0  0  0  0  0  0  0  0  0  0  0
    1.7963    1.1151   -0.2753 C   0  0  0  0  0  0  0  0  0  0  0  0
    0.9270    1.9497    0.6570 C   0  0  0  0  0  0  0  0  0  0  0  0
    2.8689   -2.1980   -0.2992 H   0  0  0  0  0  0  0  0  0  0  0  0
    3.8025   -0.7813   -0.7856 H   0  0  0  0  0  0  0  0  0  0  0  0
    2.3581   -1.2369   -1.6888 H   0  0  0  0  0  0  0  0  0  0  0  0
    2.2497   -0.3695    1.2402 H   0  0  0  0  0  0  0  0  0  0  0  0
    1.3523    1.1055   -1.2738 H   0  0  0  0  0  0  0  0  0  0  0  0
    2.7857    1.5735   -0.3596 H   0  0  0  0  0  0  0  0  0  0  0  0
    1.3524    1.9689    1.6584 H   0  0  0  0  0  0  0  0  0  0  0  0
    0.8543    2.9733    0.2964 H   0  0  0  0  0  0  0  0  0  0  0  0
   -0.0777    1.5362    0.7157 H   0  0  0  0  0  0  0  0  0  0  0  0
  1  2  1  0
  1  6  1  0
  1  7  1  0
  2  3  1  0
  3  4  2  3
  4  8  1  0
  4  9  1  0
  5 11  1  0
 10 11  1  0
 10 14  1  0
 10 15  1  0
 10 16  1  0
 11 12  1  0
 11 17  1  0
 12 13  1  0
 12 18  1  0
 12 19  1  0
 13 20  1  0
 13 21  1  0
 13 22  1  0
M  RAD  1   1   2
M  END
>  <reaction>  (8) 
rmg_rxn_15600

>  <mol_properties>  (8) 
{"0": {"label": "*3", "atom_type": "Cs"}, "1": {"label": "*4", "atom_type": "O2s"}, "4": {"label": "*2", "atom_type": "H0"}, "10": {"label": "*1", "atom_type": "Cs"}, "11": {"label": "*0", "atom_type": "Cs"}}

>  <type>  (8) 
unop_4

>  <geom_source>  (8) 
Heuristics

$$$$

     RDKit          3D

 22 20  0  0  0  0  0  0  0  0999 V2000
   -0.4316   -1.3883    0.8184 C   0  0  0  0  0  3  0  0  0  0  0  0
   -1.3800   -1.0346   -0.1266 O   0  0  0  0  0  0  0  0  0  0  0  0
   -2.0450    0.1293    0.1958 N   0  0  0  0  0  0  0  0  0  0  0  0
   -2.8816    0.5430   -0.6573 C   0  0  0  0  0  0  0  0  0  0  0  0
    0.7265   -0.7658    0.5492 H   0  0  0  0  0  0  0  0  0  0  0  0
   -0.2338   -2.4497    0.7164 H   0  0  0  0  0  0  0  0  0  0  0  0
   -0.6954   -1.0828    1.8277 H   0  0  0  0  0  0  0  0  0  0  0  0
   -3.4076    1.4478   -0.4117 H   0  0  0  0  0  0  0  0  0  0  0  0
   -3.0940    0.0444   -1.5979 H   0  0  0  0  0  0  0  0  0  0  0  0
    2.6244   -1.1496   -0.6102 C   0  0  0  0  0  0  0  0  0  0  0  0
    1.8646   -0.1826    0.2643 C   0  0  0  0  0  0  0  0  0  0  0  0
    1.5363    1.1365   -0.3956 C   0  0  0  0  0  0  0  0  0  0  0  0
    0.7416    2.0636    0.5171 C   0  0  0  0  0  0  0  0  0  0  0  0
    2.7786   -2.0964   -0.0969 H   0  0  0  0  0  0  0  0  0  0  0  0
    3.6043   -0.7468   -0.8759 H   0  0  0  0  0  0  0  0  0  0  0  0
    2.0804   -1.3398   -1.5335 H   0  0  0  0  0  0  0  0  0  0  0  0
    2.3404   -0.0456    1.2348 H   0  0  0  0  0  0  0  0  0  0  0  0
    0.9692    0.9525   -1.3120 H   0  0  0  0  0  0  0  0  0  0  0  0
    2.4693    1.6346   -0.6882 H   0  0  0  0  0  0  0  0  0  0  0  0
   -0.2235    1.6243    0.7598 H   0  0  0  0  0  0  0  0  0  0  0  0
    1.2840    2.2439    1.4429 H   0  0  0  0  0  0  0  0  0  0  0  0
    0.5684    3.0202    0.0293 H   0  0  0  0  0  0  0  0  0  0  0  0
  1  2  1  0
  1  6  1  0
  1  7  1  0
  2  3  1  0
  3  4  2  3
  4  8  1  0
  4  9  1  0
  5 11  1  0
 10 11  1  0
 10 14  1  0
 10 15  1  0
 10 16  1  0
 11 12  1  0
 11 17  1  0
 12 13  1  0
 12 18  1  0
 12 19  1  0
 13 20  1  0
 13 21  1  0
 13 22  1  0
M  RAD  1   1   2
M  END
>  <reaction>  (9) 
rmg_rxn_15600

>  <mol_properties>  (9) 
{"0": {"label": "*3", "atom_type": "Cs"}, "1": {"label": "*4", "atom_type": "O2s"}, "4": {"label": "*2", "atom_type": "H0"}, "10": {"label": "*1", "atom_type": "Cs"}, "11": {"label": "*0", "atom_type": "Cs"}}

>  <type>  (9) 
unop_5

>  <geom_source>  (9) 
Heuristics

$$$$

     RDKit          3D

 22 20  0  0  0  0  0  0  0  0999 V2000
   -1.3502    0.8340    0.6150 C   0  0  0  0  0  0  0  0  0  0  0  0
   -1.3503    0.8919   -0.7979 O   0  0  0  0  0  0  0  0  0  0  0  0
   -1.3503   -0.3819   -1.3136 N   0  0  0  0  0  0  0  0  0  0  0  0
   -1.3503   -0.3819   -2.5772 C   0  0  0  0  0  0  0  0  0  0  0  0
   -0.2797    0.2218    1.0591 H   0  0  0  0  0  0  0  0  0  0  0  0
   -2.2424    0.3238    0.9851 H   0  0  0  0  0  0  0  0  0  0  0  0
   -1.3503    1.8689    0.9528 H   0  0  0  0  0  0  0  0  0  0  0  0
   -1.3503   -1.3490   -3.0620 H   0  0  0  0  0  0  0  0  0  0  0  0
   -1.3503    0.5345   -3.1634 H   0  0  0  0  0  0  0  0  0  0  0  0
    0.7608   -1.8065    2.0664 C   0  0  0  0  0  0  0  0  0  0  0  0
    0.7934   -0.3917    1.5043 C   0  0  0  0  0  3  0  0  0  0  0  0
    1.9402   -0.1638    0.5263 C   0  0  0  0  0  0  0  0  0  0  0  0
    1.9727    1.2510   -0.0358 C   0  0  0  0  0  0  0  0  0  0  0  0
    1.6858   -2.0369    2.6003 H   0  0  0  0  0  0  0  0  0  0  0  0
    0.6493   -2.5428    1.2669 H   0  0  0  0  0  0  0  0  0  0  0  0
   -0.0686   -1.9417    2.7625 H   0  0  0  0  0  0  0  0  0  0  0  0
    0.8743    0.3280    2.3253 H   0  0  0  0  0  0  0  0  0  0  0  0
    1.8593   -0.8835   -0.2947 H   0  0  0  0  0  0  0  0  0  0  0  0
    2.8882   -0.3813    1.0289 H   0  0  0  0  0  0  0  0  0  0  0  0
    2.0843    1.9873    0.7637 H   0  0  0  0  0  0  0  0  0  0  0  0
    2.8022    1.3862   -0.7319 H   0  0  0  0  0  0  0  0  0  0  0  0
    1.0477    1.4814   -0.5697 H   0  0  0  0  0  0  0  0  0  0  0  0
  1  2  1  0
  1  5  1  0
  1  6  1  0
  1  7  1  0
  2  3  1  0
  3  4  2  3
  4  8  1  0
  4  9  1  0
 10 11  1  0
 10 14  1  0
 10 15  1  0
 10 16  1  0
 11 12  1  0
 11 17  1  0
 12 13  1  0
 12 18  1  0
 12 19  1  0
 13 20  1  0
 13 21  1  0
 13 22  1  0
M  RAD  1  11   2
M  END
>  <reaction>  (10) 
rmg_rxn_15600

>  <mol_properties>  (10) 
{"0": {"label": "*3", "atom_type": "Cs"}, "1": {"label": "*4", "atom_type": "O2s"}, "4": {"label": "*2", "atom_type": "H0"}, "10": {"label": "*1", "atom_type": "Cs"}, "11": {"label": "*0", "atom_type": "Cs"}}

>  <type>  (10) 
unop_6

>  <geom_source>  (10) 
Heuristics

$$$$

     RDKit          3D

 22 20  0  0  0  0  0  0  0  0999 V2000
    0.4184   -1.3661    0.6025 C   0  0  0  0  0  3  0  0  0  0  0  0
    1.5522   -1.0452   -0.1247 O   0  0  0  0  0  0  0  0  0  0  0  0
    2.0988    0.1639    0.2503 N   0  0  0  0  0  0  0  0  0  0  0  0
    3.1043    0.5467   -0.4142 C   0  0  0  0  0  0  0  0  0  0  0  0
   -0.6519   -0.7650    0.0601 H   0  0  0  0  0  0  0  0  0  0  0  0
    0.4509   -1.0120    1.6299 H   0  0  0  0  0  0  0  0  0  0  0  0
    0.2503   -2.4333    0.5093 H   0  0  0  0  0  0  0  0  0  0  0  0
    3.5389    1.4866   -0.1254 H   0  0  0  0  0  0  0  0  0  0  0  0
    3.5417   -0.0099   -1.2369 H   0  0  0  0  0  0  0  0  0  0  0  0
   -2.8448   -1.1792   -0.2565 C   0  0  0  0  0  0  0  0  0  0  0  0
   -1.7184   -0.1918   -0.4399 C   0  0  0  0  0  0  0  0  0  0  0  0
   -1.9003    1.1138    0.2992 C   0  0  0  0  0  0  0  0  0  0  0  0
   -0.7398    2.0764    0.0750 C   0  0  0  0  0  0  0  0  0  0  0  0
   -3.0133   -1.3783    0.8003 H   0  0  0  0  0  0  0  0  0  0  0  0
   -2.6208   -2.1197   -0.7552 H   0  0  0  0  0  0  0  0  0  0  0  0
   -3.7749   -0.7896   -0.6760 H   0  0  0  0  0  0  0  0  0  0  0  0
   -1.4768   -0.0352   -1.4903 H   0  0  0  0  0  0  0  0  0  0  0  0
   -2.0106    0.9135    1.3684 H   0  0  0  0  0  0  0  0  0  0  0  0
   -2.8298    1.5910   -0.0361 H   0  0  0  0  0  0  0  0  0  0  0  0
   -0.6457    2.3173   -0.9820 H   0  0  0  0  0  0  0  0  0  0  0  0
   -0.9003    3.0017    0.6234 H   0  0  0  0  0  0  0  0  0  0  0  0
    0.1971    1.6352    0.4081 H   0  0  0  0  0  0  0  0  0  0  0  0
  1  2  1  0
  1  6  1  0
  1  7  1  0
  2  3  1  0
  3  4  2  3
  4  8  1  0
  4  9  1  0
  5 11  1  0
 10 11  1  0
 10 14  1  0
 10 15  1  0
 10 16  1  0
 11 12  1  0
 11 17  1  0
 12 13  1  0
 12 18  1  0
 12 19  1  0
 13 20  1  0
 13 21  1  0
 13 22  1  0
M  RAD  1   1   2
M  END
>  <reaction>  (11) 
rmg_rxn_15600

>  <mol_properties>  (11) 
{"0": {"label": "*3", "atom_type": "Cs"}, "1": {"label": "*4", "atom_type": "O2s"}, "4": {"label": "*2", "atom_type": "H0"}, "10": {"label": "*1", "atom_type": "Cs"}, "11": {"label": "*0", "atom_type": "Cs"}}

>  <type>  (11) 
unop_7

>  <geom_source>  (11) 
Heuristics

$$$$

     RDKit          3D

 22 20  0  0  0  0  0  0  0  0999 V2000
   -1.1514    0.7546    0.0277 C   0  0  0  0  0  0  0  0  0  0  0  0
   -1.1514    0.8125   -1.3851 O   0  0  0  0  0  0  0  0  0  0  0  0
   -1.1514   -0.4614   -1.9009 N   0  0  0  0  0  0  0  0  0  0  0  0
   -1.1514   -0.4614   -3.1645 C   0  0  0  0  0  0  0  0  0  0  0  0
   -0.0808    0.1424    0.4719 H   0  0  0  0  0  0  0  0  0  0  0  0
   -2.0435    0.2444    0.3979 H   0  0  0  0  0  0  0  0  0  0  0  0
   -1.1514    1.7895    0.3656 H   0  0  0  0  0  0  0  0  0  0  0  0
   -1.1514   -1.4285   -3.6493 H   0  0  0  0  0  0  0  0  0  0  0  0
   -1.1514    0.4551   -3.7506 H   0  0  0  0  0  0  0  0  0  0  0  0
    2.2006   -0.9603    0.1301 C   0  0  0  0  0  0  0  0  0  0  0  0
    0.9922   -0.4712    0.9170 C   0  0  0  0  0  3  0  0  0  0  0  0
    1.3586    0.0936    2.2846 C   0  0  0  0  0  0  0  0  0  0  0  0
    0.1502    0.5828    3.0714 C   0  0  0  0  0  0  0  0  0  0  0  0
    2.7262   -1.7508    0.6713 H   0  0  0  0  0  0  0  0  0  0  0  0
    2.9115   -0.1483   -0.0402 H   0  0  0  0  0  0  0  0  0  0  0  0
    1.9100   -1.3589   -0.8432 H   0  0  0  0  0  0  0  0  0  0  0  0
    0.2816   -1.2937    1.0477 H   0  0  0  0  0  0  0  0  0  0  0  0
    2.0692    0.9161    2.1538 H   0  0  0  0  0  0  0  0  0  0  0  0
    1.8852   -0.6745    2.8601 H   0  0  0  0  0  0  0  0  0  0  0  0
   -0.5607   -0.2292    3.2418 H   0  0  0  0  0  0  0  0  0  0  0  0
    0.4408    0.9813    4.0448 H   0  0  0  0  0  0  0  0  0  0  0  0
   -0.3753    1.3732    2.5303 H   0  0  0  0  0  0  0  0  0  0  0  0
  1  2  1  0
  1  5  1  0
  1  6  1  0
  1  7  1  0
  2  3  1  0
  3  4  2  3
  4  8  1  0
  4  9  1  0
 10 11  1  0
 10 14  1  0
 10 15  1  0
 10 16  1  0
 11 12  1  0
 11 17  1  0
 12 13  1  0
 12 18  1  0
 12 19  1  0
 13 20  1  0
 13 21  1  0
 13 22  1  0
M  RAD  1  11   2
M  END
>  <reaction>  (12) 
rmg_rxn_15600

>  <mol_properties>  (12) 
{"0": {"label": "*3", "atom_type": "Cs"}, "1": {"label": "*4", "atom_type": "O2s"}, "4": {"label": "*2", "atom_type": "H0"}, "10": {"label": "*1", "atom_type": "Cs"}, "11": {"label": "*0", "atom_type": "Cs"}}

>  <type>  (12) 
unop_8

>  <geom_source>  (12) 
Heuristics

$$$$

     RDKit          3D

 22 20  0  0  0  0  0  0  0  0999 V2000
   -1.0664    1.2501    0.5067 C   0  0  0  0  0  0  0  0  0  0  0  0
   -1.0664    1.3080   -0.9062 O   0  0  0  0  0  0  0  0  0  0  0  0
   -1.0664    0.0341   -1.4219 N   0  0  0  0  0  0  0  0  0  0  0  0
   -1.0664    0.0341   -2.6855 C   0  0  0  0  0  0  0  0  0  0  0  0
    0.0042    0.6379    0.9508 H   0  0  0  0  0  0  0  0  0  0  0  0
   -1.9585    0.7399    0.8768 H   0  0  0  0  0  0  0  0  0  0  0  0
   -1.0664    2.2850    0.8445 H   0  0  0  0  0  0  0  0  0  0  0  0
   -1.0664   -0.9330   -3.1704 H   0  0  0  0  0  0  0  0  0  0  0  0
   -1.0664    0.9506   -3.2717 H   0  0  0  0  0  0  0  0  0  0  0  0
    0.3596    0.1296    2.7348 C   0  0  0  0  0  0  0  0  0  0  0  0
    1.0772    0.0243    1.3960 C   0  0  0  0  0  3  0  0  0  0  0  0
    1.1052   -1.3959    0.8432 C   0  0  0  0  0  0  0  0  0  0  0  0
    1.8228   -1.5012   -0.4957 C   0  0  0  0  0  0  0  0  0  0  0  0
    0.8433   -0.4965    3.4884 H   0  0  0  0  0  0  0  0  0  0  0  0
   -0.6786   -0.1998    2.6493 H   0  0  0  0  0  0  0  0  0  0  0  0
    0.3545    1.1555    3.1068 H   0  0  0  0  0  0  0  0  0  0  0  0
    2.1044    0.3885    1.5001 H   0  0  0  0  0  0  0  0  0  0  0  0
    0.0780   -1.7601    0.7390 H   0  0  0  0  0  0  0  0  0  0  0  0
    1.5887   -2.0546    1.5719 H   0  0  0  0  0  0  0  0  0  0  0  0
    2.8610   -1.1718   -0.4102 H   0  0  0  0  0  0  0  0  0  0  0  0
    1.8279   -2.5271   -0.8676 H   0  0  0  0  0  0  0  0  0  0  0  0
    1.3391   -0.8752   -1.2492 H   0  0  0  0  0  0  0  0  0  0  0  0
  1  2  1  0
  1  5  1  0
  1  6  1  0
  1  7  1  0
  2  3  1  0
  3  4  2  3
  4  8  1  0
  4  9  1  0
 10 11  1  0
 10 14  1  0
 10 15  1  0
 10 16  1  0
 11 12  1  0
 11 17  1  0
 12 13  1  0
 12 18  1  0
 12 19  1  0
 13 20  1  0
 13 21  1  0
 13 22  1  0
M  RAD  1  11   2
M  END
>  <reaction>  (13) 
rmg_rxn_15600

>  <mol_properties>  (13) 
{"0": {"label": "*3", "atom_type": "Cs"}, "1": {"label": "*4", "atom_type": "O2s"}, "4": {"label": "*2", "atom_type": "H0"}, "10": {"label": "*1", "atom_type": "Cs"}, "11": {"label": "*0", "atom_type": "Cs"}}

>  <type>  (13) 
unop_9

>  <geom_source>  (13) 
Heuristics

$$$$

     RDKit          3D

 22 20  0  0  0  0  0  0  0  0999 V2000
   -0.8853    1.4933   -0.8937 C   0  0  0  0  0  3  0  0  0  0  0  0
   -1.6473    1.0009    0.0997 O   0  0  0  0  0  0  0  0  0  0  0  0
   -2.1283   -0.2672   -0.1284 N   0  0  0  0  0  0  0  0  0  0  0  0
   -2.8036   -0.7766    0.8195 C   0  0  0  0  0  0  0  0  0  0  0  0
    0.9743    0.7793   -0.4509 H   0  0  0  0  0  0  0  0  0  0  0  0
   -0.9140    1.0120   -1.8552 H   0  0  0  0  0  0  0  0  0  0  0  0
   -0.6804    2.5408   -0.7851 H   0  0  0  0  0  0  0  0  0  0  0  0
   -3.1850   -1.7672    0.6538 H   0  0  0  0  0  0  0  0  0  0  0  0
   -3.0106   -0.2748    1.7589 H   0  0  0  0  0  0  0  0  0  0  0  0
    2.7843    1.1928    0.7047 C   0  0  0  0  0  0  0  0  0  0  0  0
    1.9513    0.3178   -0.2089 C   0  0  0  0  0  0  0  0  0  0  0  0
    1.7969   -1.1129    0.2735 C   0  0  0  0  0  0  0  0  0  0  0  0
    0.9336   -1.9476   -0.6641 C   0  0  0  0  0  0  0  0  0  0  0  0
    3.7917    0.7911    0.8017 H   0  0  0  0  0  0  0  0  0  0  0  0
    2.3392    1.2373    1.6966 H   0  0  0  0  0  0  0  0  0  0  0  0
    2.8545    2.2049    0.3132 H   0  0  0  0  0  0  0  0  0  0  0  0
    2.2544    0.3774   -1.2354 H   0  0  0  0  0  0  0  0  0  0  0  0
    1.3491   -1.1073    1.2704 H   0  0  0  0  0  0  0  0  0  0  0  0
    2.7874   -1.5684    0.3603 H   0  0  0  0  0  0  0  0  0  0  0  0
    1.3608   -1.9602   -1.6648 H   0  0  0  0  0  0  0  0  0  0  0  0
    0.8654   -2.9731   -0.3083 H   0  0  0  0  0  0  0  0  0  0  0  0
   -0.0731   -1.5389   -0.7226 H   0  0  0  0  0  0  0  0  0  0  0  0
  1  2  1  0
  1  6  1  0
  1  7  1  0
  2  3  1  0
  3  4  2  3
  4  8  1  0
  4  9  1  0
  5 11  1  0
 10 11  1  0
 10 14  1  0
 10 15  1  0
 10 16  1  0
 11 12  1  0
 11 17  1  0
 12 13  1  0
 12 18  1  0
 12 19  1  0
 13 20  1  0
 13 21  1  0
 13 22  1  0
M  RAD  1   1   2
M  END
>  <reaction>  (14) 
rmg_rxn_15600

>  <mol_properties>  (14) 
{"0": {"label": "*3", "atom_type": "Cs"}, "1": {"label": "*4", "atom_type": "O2s"}, "4": {"label": "*2", "atom_type": "H0"}, "10": {"label": "*1", "atom_type": "Cs"}, "11": {"label": "*0", "atom_type": "Cs"}}

>  <type>  (14) 
unop_10

>  <geom_source>  (14) 
Heuristics

$$$$

     RDKit          3D

 22 20  0  0  0  0  0  0  0  0999 V2000
   -1.0522    0.9032   -0.0094 C   0  0  0  0  0  0  0  0  0  0  0  0
   -1.0522    0.9611   -1.4223 O   0  0  0  0  0  0  0  0  0  0  0  0
   -1.0522   -0.3128   -1.9380 N   0  0  0  0  0  0  0  0  0  0  0  0
   -1.0522   -0.3128   -3.2016 C   0  0  0  0  0  0  0  0  0  0  0  0
    0.0184    0.2910    0.4347 H   0  0  0  0  0  0  0  0  0  0  0  0
   -1.9443    0.3930    0.3607 H   0  0  0  0  0  0  0  0  0  0  0  0
   -1.0522    1.9381    0.3284 H   0  0  0  0  0  0  0  0  0  0  0  0
   -1.0522   -1.2798   -3.6865 H   0  0  0  0  0  0  0  0  0  0  0  0
   -1.0522    0.6037   -3.7878 H   0  0  0  0  0  0  0  0  0  0  0  0
    2.3361    0.3652    0.3353 C   0  0  0  0  0  0  0  0  0  0  0  0
    1.0914   -0.3225    0.8799 C   0  0  0  0  0  3  0  0  0  0  0  0
    1.0483   -0.3610    2.4031 C   0  0  0  0  0  0  0  0  0  0  0  0
   -0.1963   -1.0487    2.9476 C   0  0  0  0  0  0  0  0  0  0  0  0
    3.2427   -0.1463    0.6672 H   0  0  0  0  0  0  0  0  0  0  0  0
    2.3951    1.3996    0.6823 H   0  0  0  0  0  0  0  0  0  0  0  0
    2.3411    0.3786   -0.7558 H   0  0  0  0  0  0  0  0  0  0  0  0
    1.0386   -1.3457    0.4940 H   0  0  0  0  0  0  0  0  0  0  0  0
    1.1011    0.6622    2.7889 H   0  0  0  0  0  0  0  0  0  0  0  0
    1.9425   -0.8723    2.7740 H   0  0  0  0  0  0  0  0  0  0  0  0
   -0.2554   -2.0831    2.6006 H   0  0  0  0  0  0  0  0  0  0  0  0
   -0.2014   -1.0621    4.0387 H   0  0  0  0  0  0  0  0  0  0  0  0
   -1.1030   -0.5373    2.6157 H   0  0  0  0  0  0  0  0  0  0  0  0
  1  2  1  0
  1  5  1  0
  1  6  1  0
  1  7  1  0
  2  3  1  0
  3  4  2  3
  4  8  1  0
  4  9  1  0
 10 11  1  0
 10 14  1  0
 10 15  1  0
 10 16  1  0
 11 12  1  0
 11 17  1  0
 12 13  1  0
 12 18  1  0
 12 19  1  0
 13 20  1  0
 13 21  1  0
 13 22  1  0
M  RAD  1  11   2
M  END
>  <reaction>  (15) 
rmg_rxn_15600

>  <mol_properties>  (15) 
{"0": {"label": "*3", "atom_type": "Cs"}, "1": {"label": "*4", "atom_type": "O2s"}, "4": {"label": "*2", "atom_type": "H0"}, "10": {"label": "*1", "atom_type": "Cs"}, "11": {"label": "*0", "atom_type": "Cs"}}

>  <type>  (15) 
unop_11

>  <geom_source>  (15) 
Heuristics

$$$$

     RDKit          3D

 22 20  0  0  0  0  0  0  0  0999 V2000
   -0.4328   -1.3859    0.8250 C   0  0  0  0  0  3  0  0  0  0  0  0
   -1.3805   -1.0356   -0.1221 O   0  0  0  0  0  0  0  0  0  0  0  0
   -2.0421    0.1321    0.1932 N   0  0  0  0  0  0  0  0  0  0  0  0
   -2.8766    0.5437   -0.6631 C   0  0  0  0  0  0  0  0  0  0  0  0
    0.7259   -0.7662    0.5519 H   0  0  0  0  0  0  0  0  0  0  0  0
   -0.2368   -2.4482    0.7286 H   0  0  0  0  0  0  0  0  0  0  0  0
   -0.6961   -1.0746    1.8326 H   0  0  0  0  0  0  0  0  0  0  0  0
   -3.3998    1.4517   -0.4232 H   0  0  0  0  0  0  0  0  0  0  0  0
   -3.0900    0.0403   -1.6008 H   0  0  0  0  0  0  0  0  0  0  0  0
    2.6185   -1.1518   -0.6155 C   0  0  0  0  0  0  0  0  0  0  0  0
    1.8636   -0.1842    0.2626 C   0  0  0  0  0  0  0  0  0  0  0  0
    1.5343    1.1356   -0.3955 C   0  0  0  0  0  0  0  0  0  0  0  0
    0.7445    2.0634    0.5206 C   0  0  0  0  0  0  0  0  0  0  0  0
    3.5975   -0.7497   -0.8857 H   0  0  0  0  0  0  0  0  0  0  0  0
    2.0701   -1.3416   -1.5363 H   0  0  0  0  0  0  0  0  0  0  0  0
    2.7745   -2.0988   -0.1030 H   0  0  0  0  0  0  0  0  0  0  0  0
    2.3434   -0.0483    1.2312 H   0  0  0  0  0  0  0  0  0  0  0  0
    0.9633    0.9527   -1.3097 H   0  0  0  0  0  0  0  0  0  0  0  0
    2.4669    1.6325   -0.6917 H   0  0  0  0  0  0  0  0  0  0  0  0
    0.5727    3.0212    0.0347 H   0  0  0  0  0  0  0  0  0  0  0  0
   -0.2211    1.6264    0.7650 H   0  0  0  0  0  0  0  0  0  0  0  0
    1.2898    2.2408    1.4453 H   0  0  0  0  0  0  0  0  0  0  0  0
  1  2  1  0
  1  6  1  0
  1  7  1  0
  2  3  1  0
  3  4  2  3
  4  8  1  0
  4  9  1  0
  5 11  1  0
 10 11  1  0
 10 14  1  0
 10 15  1  0
 10 16  1  0
 11 12  1  0
 11 17  1  0
 12 13  1  0
 12 18  1  0
 12 19  1  0
 13 20  1  0
 13 21  1  0
 13 22  1  0
M  RAD  1   1   2
M  END
>  <reaction>  (16) 
rmg_rxn_15600

>  <mol_properties>  (16) 
{"0": {"label": "*3", "atom_type": "Cs"}, "1": {"label": "*4", "atom_type": "O2s"}, "4": {"label": "*2", "atom_type": "H0"}, "10": {"label": "*1", "atom_type": "Cs"}, "11": {"label": "*0", "atom_type": "Cs"}}

>  <type>  (16) 
unop_12

>  <geom_source>  (16) 
Heuristics

$$$$

     RDKit          3D

 22 20  0  0  0  0  0  0  0  0999 V2000
   -0.4349   -1.3807    0.8384 C   0  0  0  0  0  3  0  0  0  0  0  0
   -1.3810   -1.0374   -0.1128 O   0  0  0  0  0  0  0  0  0  0  0  0
   -2.0364    0.1376    0.1881 N   0  0  0  0  0  0  0  0  0  0  0  0
   -2.8663    0.5448   -0.6747 C   0  0  0  0  0  0  0  0  0  0  0  0
    0.7250   -0.7662    0.5584 H   0  0  0  0  0  0  0  0  0  0  0  0
   -0.2419   -2.4444    0.7530 H   0  0  0  0  0  0  0  0  0  0  0  0
   -0.6977   -1.0582    1.8426 H   0  0  0  0  0  0  0  0  0  0  0  0
   -3.3854    1.4579   -0.4456 H   0  0  0  0  0  0  0  0  0  0  0  0
   -3.0803    0.0325   -1.6076 H   0  0  0  0  0  0  0  0  0  0  0  0
    2.6058   -1.1566   -0.6262 C   0  0  0  0  0  0  0  0  0  0  0  0
    1.8617   -0.1873    0.2592 C   0  0  0  0  0  0  0  0  0  0  0  0
    1.5300    1.1337   -0.3955 C   0  0  0  0  0  0  0  0  0  0  0  0
    0.7505    2.0633    0.5275 C   0  0  0  0  0  0  0  0  0  0  0  0
    3.5830   -0.7566   -0.9058 H   0  0  0  0  0  0  0  0  0  0  0  0
    2.0480   -1.3450   -1.5416 H   0  0  0  0  0  0  0  0  0  0  0  0
    2.7647   -2.1040   -0.1153 H   0  0  0  0  0  0  0  0  0  0  0  0
    2.3506   -0.0530    1.2235 H   0  0  0  0  0  0  0  0  0  0  0  0
    0.9505    0.9525   -1.3047 H   0  0  0  0  0  0  0  0  0  0  0  0
    2.4612    1.6282   -0.6998 H   0  0  0  0  0  0  0  0  0  0  0  0
    0.5782    3.0221    0.0439 H   0  0  0  0  0  0  0  0  0  0  0  0
   -0.2148    1.6292    0.7787 H   0  0  0  0  0  0  0  0  0  0  0  0
    1.3036    2.2379    1.4482 H   0  0  0  0  0  0  0  0  0  0  0  0
  1  2  1  0
  1  6  1  0
  1  7  1  0
  2  3  1  0
  3  4  2  3
  4  8  1  0
  4  9  1  0
  5 11  1  0
 10 11  1  0
 10 14  1  0
 10 15  1  0
 10 16  1  0
 11 12  1  0
 11 17  1  0
 12 13  1  0
 12 18  1  0
 12 19  1  0
 13 20  1  0
 13 21  1  0
 13 22  1  0
M  RAD  1   1   2
M  END
>  <reaction>  (17) 
rmg_rxn_15600

>  <mol_properties>  (17) 
{"0": {"label": "*3", "atom_type": "Cs"}, "1": {"label": "*4", "atom_type": "O2s"}, "4": {"label": "*2", "atom_type": "H0"}, "10": {"label": "*1", "atom_type": "Cs"}, "11": {"label": "*0", "atom_type": "Cs"}}

>  <type>  (17) 
unop_13

>  <geom_source>  (17) 
Heuristics

$$$$

     RDKit          3D

 22 20  0  0  0  0  0  0  0  0999 V2000
   -0.9866    1.2656    0.3376 C   0  0  0  0  0  0  0  0  0  0  0  0
   -0.9866    1.3235   -1.0753 O   0  0  0  0  0  0  0  0  0  0  0  0
   -0.9866    0.0496   -1.5911 N   0  0  0  0  0  0  0  0  0  0  0  0
   -0.9866    0.0496   -2.8547 C   0  0  0  0  0  0  0  0  0  0  0  0
    0.0840    0.6534    0.7817 H   0  0  0  0  0  0  0  0  0  0  0  0
   -1.8787    0.7554    0.7077 H   0  0  0  0  0  0  0  0  0  0  0  0
   -0.9866    2.3005    0.6754 H   0  0  0  0  0  0  0  0  0  0  0  0
   -0.9866   -0.9174   -3.3395 H   0  0  0  0  0  0  0  0  0  0  0  0
   -0.9866    0.9661   -3.4408 H   0  0  0  0  0  0  0  0  0  0  0  0
    0.6855    0.8368    2.4356 C   0  0  0  0  0  0  0  0  0  0  0  0
    1.1570    0.0398    1.2268 C   0  0  0  0  0  3  0  0  0  0  0  0
    0.8661   -1.4518    1.3442 C   0  0  0  0  0  0  0  0  0  0  0  0
    1.3376   -2.2488    0.1354 C   0  0  0  0  0  0  0  0  0  0  0  0
    1.1731    0.4877    3.3489 H   0  0  0  0  0  0  0  0  0  0  0  0
   -0.3929    0.7323    2.5768 H   0  0  0  0  0  0  0  0  0  0  0  0
    0.9060    1.8997    2.3252 H   0  0  0  0  0  0  0  0  0  0  0  0
    2.2333    0.1851    1.0881 H   0  0  0  0  0  0  0  0  0  0  0  0
   -0.2101   -1.5971    1.4829 H   0  0  0  0  0  0  0  0  0  0  0  0
    1.3443   -1.8400    2.2494 H   0  0  0  0  0  0  0  0  0  0  0  0
    2.4160   -2.1443   -0.0058 H   0  0  0  0  0  0  0  0  0  0  0  0
    1.1171   -3.3117    0.2459 H   0  0  0  0  0  0  0  0  0  0  0  0
    0.8501   -1.8997   -0.7779 H   0  0  0  0  0  0  0  0  0  0  0  0
  1  2  1  0
  1  5  1  0
  1  6  1  0
  1  7  1  0
  2  3  1  0
  3  4  2  3
  4  8  1  0
  4  9  1  0
 10 11  1  0
 10 14  1  0
 10 15  1  0
 10 16  1  0
 11 12  1  0
 11 17  1  0
 12 13  1  0
 12 18  1  0
 12 19  1  0
 13 20  1  0
 13 21  1  0
 13 22  1  0
M  RAD  1  11   2
M  END
>  <reaction>  (18) 
rmg_rxn_15600

>  <mol_properties>  (18) 
{"0": {"label": "*3", "atom_type": "Cs"}, "1": {"label": "*4", "atom_type": "O2s"}, "4": {"label": "*2", "atom_type": "H0"}, "10": {"label": "*1", "atom_type": "Cs"}, "11": {"label": "*0", "atom_type": "Cs"}}

>  <type>  (18) 
unop_14

>  <geom_source>  (18) 
Heuristics

$$$$

     RDKit          3D

 22 20  0  0  0  0  0  0  0  0999 V2000
   -0.4316   -1.3880    0.8247 C   0  0  0  0  0  3  0  0  0  0  0  0
   -1.3787   -1.0367   -0.1226 O   0  0  0  0  0  0  0  0  0  0  0  0
   -2.0405    0.1307    0.1935 N   0  0  0  0  0  0  0  0  0  0  0  0
   -2.8734    0.5441   -0.6634 C   0  0  0  0  0  0  0  0  0  0  0  0
    0.7267   -0.7669    0.5531 H   0  0  0  0  0  0  0  0  0  0  0  0
   -0.2350   -2.4501    0.7266 H   0  0  0  0  0  0  0  0  0  0  0  0
   -0.6960   -1.0785    1.8326 H   0  0  0  0  0  0  0  0  0  0  0  0
   -3.3969    1.4517   -0.4227 H   0  0  0  0  0  0  0  0  0  0  0  0
   -3.0854    0.0424   -1.6025 H   0  0  0  0  0  0  0  0  0  0  0  0
    2.6191   -1.1492   -0.6157 C   0  0  0  0  0  0  0  0  0  0  0  0
    1.8630   -0.1827    0.2627 C   0  0  0  0  0  0  0  0  0  0  0  0
    1.5297    1.1359   -0.3957 C   0  0  0  0  0  0  0  0  0  0  0  0
    0.7414    2.0634    0.5219 C   0  0  0  0  0  0  0  0  0  0  0  0
    2.7779   -2.0955   -0.1028 H   0  0  0  0  0  0  0  0  0  0  0  0
    3.5968   -0.7450   -0.8873 H   0  0  0  0  0  0  0  0  0  0  0  0
    2.0699   -1.3407   -1.5357 H   0  0  0  0  0  0  0  0  0  0  0  0
    2.3435   -0.0452    1.2308 H   0  0  0  0  0  0  0  0  0  0  0  0
    0.9560    0.9511   -1.3078 H   0  0  0  0  0  0  0  0  0  0  0  0
    2.4605    1.6338   -0.6956 H   0  0  0  0  0  0  0  0  0  0  0  0
   -0.2225    1.6249    0.7703 H   0  0  0  0  0  0  0  0  0  0  0  0
    1.2896    2.2431    1.4444 H   0  0  0  0  0  0  0  0  0  0  0  0
    0.5660    3.0202    0.0354 H   0  0  0  0  0  0  0  0  0  0  0  0
  1  2  1  0
  1  6  1  0
  1  7  1  0
  2  3  1  0
  3  4  2  3
  4  8  1  0
  4  9  1  0
  5 11  1  0
 10 11  1  0
 10 14  1  0
 10 15  1  0
 10 16  1  0
 11 12  1  0
 11 17  1  0
 12 13  1  0
 12 18  1  0
 12 19  1  0
 13 20  1  0
 13 21  1  0
 13 22  1  0
M  RAD  1   1   2
M  END
>  <reaction>  (19) 
rmg_rxn_15600

>  <mol_properties>  (19) 
{"0": {"label": "*3", "atom_type": "Cs"}, "1": {"label": "*4", "atom_type": "O2s"}, "4": {"label": "*2", "atom_type": "H0"}, "10": {"label": "*1", "atom_type": "Cs"}, "11": {"label": "*0", "atom_type": "Cs"}}

>  <type>  (19) 
unop_15

>  <geom_source>  (19) 
Heuristics

$$$$

     RDKit          3D

 22 20  0  0  0  0  0  0  0  0999 V2000
   -0.9552    1.1966    0.1668 C   0  0  0  0  0  0  0  0  0  0  0  0
   -0.9552    1.2545   -1.2461 O   0  0  0  0  0  0  0  0  0  0  0  0
   -0.9552   -0.0193   -1.7618 N   0  0  0  0  0  0  0  0  0  0  0  0
   -0.9552   -0.0193   -3.0254 C   0  0  0  0  0  0  0  0  0  0  0  0
    0.1154    0.5844    0.6109 H   0  0  0  0  0  0  0  0  0  0  0  0
   -1.8473    0.6864    0.5369 H   0  0  0  0  0  0  0  0  0  0  0  0
   -0.9552    2.2315    0.5046 H   0  0  0  0  0  0  0  0  0  0  0  0
   -0.9552   -0.9864   -3.5103 H   0  0  0  0  0  0  0  0  0  0  0  0
   -0.9552    0.8971   -3.6116 H   0  0  0  0  0  0  0  0  0  0  0  0
    1.1609    1.2560    1.8722 C   0  0  0  0  0  0  0  0  0  0  0  0
    1.1884   -0.0291    1.0560 C   0  0  0  0  0  3  0  0  0  0  0  0
    0.7658   -1.2549    1.8575 C   0  0  0  0  0  0  0  0  0  0  0  0
    0.7933   -2.5401    1.0413 C   0  0  0  0  0  0  0  0  0  0  0  0
    1.8334    1.1889    2.7308 H   0  0  0  0  0  0  0  0  0  0  0  0
    0.1570    1.4555    2.2544 H   0  0  0  0  0  0  0  0  0  0  0  0
    1.4674    2.1163    1.2749 H   0  0  0  0  0  0  0  0  0  0  0  0
    2.1958   -0.1906    0.6589 H   0  0  0  0  0  0  0  0  0  0  0  0
   -0.2416   -1.0935    2.2546 H   0  0  0  0  0  0  0  0  0  0  0  0
    1.4225   -1.3581    2.7274 H   0  0  0  0  0  0  0  0  0  0  0  0
    1.7972   -2.7396    0.6591 H   0  0  0  0  0  0  0  0  0  0  0  0
    0.4868   -3.4004    1.6386 H   0  0  0  0  0  0  0  0  0  0  0  0
    0.1208   -2.4730    0.1828 H   0  0  0  0  0  0  0  0  0  0  0  0
  1  2  1  0
  1  5  1  0
  1  6  1  0
  1  7  1  0
  2  3  1  0
  3  4  2  3
  4  8  1  0
  4  9  1  0
 10 11  1  0
 10 14  1  0
 10 15  1  0
 10 16  1  0
 11 12  1  0
 11 17  1  0
 12 13  1  0
 12 18  1  0
 12 19  1  0
 13 20  1  0
 13 21  1  0
 13 22  1  0
M  RAD  1  11   2
M  END
>  <reaction>  (20) 
rmg_rxn_15600

>  <mol_properties>  (20) 
{"0": {"label": "*3", "atom_type": "Cs"}, "1": {"label": "*4", "atom_type": "O2s"}, "4": {"label": "*2", "atom_type": "H0"}, "10": {"label": "*1", "atom_type": "Cs"}, "11": {"label": "*0", "atom_type": "Cs"}}

>  <type>  (20) 
unop_16

>  <geom_source>  (20) 
Heuristics

$$$$

     RDKit          3D

 22 20  0  0  0  0  0  0  0  0999 V2000
   -0.4362   -1.3755    0.8474 C   0  0  0  0  0  3  0  0  0  0  0  0
   -1.3827   -1.0386   -0.1059 O   0  0  0  0  0  0  0  0  0  0  0  0
   -2.0326    0.1423    0.1835 N   0  0  0  0  0  0  0  0  0  0  0  0
   -2.8618    0.5444   -0.6823 C   0  0  0  0  0  0  0  0  0  0  0  0
    0.7241   -0.7650    0.5611 H   0  0  0  0  0  0  0  0  0  0  0  0
   -0.2454   -2.4403    0.7707 H   0  0  0  0  0  0  0  0  0  0  0  0
   -0.6974   -1.0442    1.8492 H   0  0  0  0  0  0  0  0  0  0  0  0
   -3.3752    1.4628   -0.4617 H   0  0  0  0  0  0  0  0  0  0  0  0
   -3.0799    0.0240   -1.6097 H   0  0  0  0  0  0  0  0  0  0  0  0
    2.5979   -1.1603   -0.6335 C   0  0  0  0  0  0  0  0  0  0  0  0
    1.8613   -0.1897    0.2567 C   0  0  0  0  0  0  0  0  0  0  0  0
    1.5313    1.1335   -0.3942 C   0  0  0  0  0  0  0  0  0  0  0  0
    0.7528    2.0616    0.5312 C   0  0  0  0  0  0  0  0  0  0  0  0
    2.0341   -1.3472   -1.5455 H   0  0  0  0  0  0  0  0  0  0  0  0
    2.7578   -2.1082   -0.1240 H   0  0  0  0  0  0  0  0  0  0  0  0
    3.5742   -0.7623   -0.9192 H   0  0  0  0  0  0  0  0  0  0  0  0
    2.3552   -0.0586    1.2190 H   0  0  0  0  0  0  0  0  0  0  0  0
    0.9517    0.9558   -1.3041 H   0  0  0  0  0  0  0  0  0  0  0  0
    2.4633    1.6276   -0.6969 H   0  0  0  0  0  0  0  0  0  0  0  0
   -0.2140    1.6291    0.7788 H   0  0  0  0  0  0  0  0  0  0  0  0
    1.3048    2.2311    1.4534 H   0  0  0  0  0  0  0  0  0  0  0  0
    0.5839    3.0227    0.0510 H   0  0  0  0  0  0  0  0  0  0  0  0
  1  2  1  0
  1  6  1  0
  1  7  1  0
  2  3  1  0
  3  4  2  3
  4  8  1  0
  4  9  1  0
  5 11  1  0
 10 11  1  0
 10 14  1  0
 10 15  1  0
 10 16  1  0
 11 12  1  0
 11 17  1  0
 12 13  1  0
 12 18  1  0
 12 19  1  0
 13 20  1  0
 13 21  1  0
 13 22  1  0
M  RAD  1   1   2
M  END
>  <reaction>  (21) 
rmg_rxn_15600

>  <mol_properties>  (21) 
{"0": {"label": "*3", "atom_type": "Cs"}, "1": {"label": "*4", "atom_type": "O2s"}, "4": {"label": "*2", "atom_type": "H0"}, "10": {"label": "*1", "atom_type": "Cs"}, "11": {"label": "*0", "atom_type": "Cs"}}

>  <type>  (21) 
unop_17

>  <geom_source>  (21) 
Heuristics

$$$$

     RDKit          3D

 22 20  0  0  0  0  0  0  0  0999 V2000
   -1.3365    0.6348    0.3117 C   0  0  0  0  0  0  0  0  0  0  0  0
   -1.3366    0.6928   -1.1012 O   0  0  0  0  0  0  0  0  0  0  0  0
   -1.3366   -0.5811   -1.6169 N   0  0  0  0  0  0  0  0  0  0  0  0
   -1.3366   -0.5811   -2.8805 C   0  0  0  0  0  0  0  0  0  0  0  0
   -0.2659    0.0227    0.7558 H   0  0  0  0  0  0  0  0  0  0  0  0
   -2.2287    0.1246    0.6818 H   0  0  0  0  0  0  0  0  0  0  0  0
   -1.3366    1.6697    0.6495 H   0  0  0  0  0  0  0  0  0  0  0  0
   -1.3366   -1.5482   -3.3654 H   0  0  0  0  0  0  0  0  0  0  0  0
   -1.3365    0.3354   -3.4667 H   0  0  0  0  0  0  0  0  0  0  0  0
    1.3288   -2.0176    1.0966 C   0  0  0  0  0  0  0  0  0  0  0  0
    0.8071   -0.5909    1.2010 C   0  0  0  0  0  3  0  0  0  0  0  0
    1.9128    0.4348    1.4216 C   0  0  0  0  0  0  0  0  0  0  0  0
    1.3912    1.8616    1.5260 C   0  0  0  0  0  0  0  0  0  0  0  0
    1.8568   -2.3089    2.0076 H   0  0  0  0  0  0  0  0  0  0  0  0
    2.0283   -2.1186    0.2633 H   0  0  0  0  0  0  0  0  0  0  0  0
    0.5174   -2.7301    0.9391 H   0  0  0  0  0  0  0  0  0  0  0  0
    0.0861   -0.5226    2.0220 H   0  0  0  0  0  0  0  0  0  0  0  0
    2.6339    0.3665    0.6005 H   0  0  0  0  0  0  0  0  0  0  0  0
    2.4637    0.1776    2.3320 H   0  0  0  0  0  0  0  0  0  0  0  0
    0.6917    1.9625    2.3592 H   0  0  0  0  0  0  0  0  0  0  0  0
    2.2025    2.5740    1.6834 H   0  0  0  0  0  0  0  0  0  0  0  0
    0.8631    2.1528    0.6149 H   0  0  0  0  0  0  0  0  0  0  0  0
  1  2  1  0
  1  5  1  0
  1  6  1  0
  1  7  1  0
  2  3  1  0
  3  4  2  3
  4  8  1  0
  4  9  1  0
 10 11  1  0
 10 14  1  0
 10 15  1  0
 10 16  1  0
 11 12  1  0
 11 17  1  0
 12 13  1  0
 12 18  1  0
 12 19  1  0
 13 20  1  0
 13 21  1  0
 13 22  1  0
M  RAD  1  11   2
M  END
>  <reaction>  (22) 
rmg_rxn_15600

>  <mol_properties>  (22) 
{"0": {"label": "*3", "atom_type": "Cs"}, "1": {"label": "*4", "atom_type": "O2s"}, "4": {"label": "*2", "atom_type": "H0"}, "10": {"label": "*1", "atom_type": "Cs"}, "11": {"label": "*0", "atom_type": "Cs"}}

>  <type>  (22) 
unop_18

>  <geom_source>  (22) 
Heuristics

$$$$

     RDKit          3D

 22 20  0  0  0  0  0  0  0  0999 V2000
   -0.4270    1.4018   -0.8036 C   0  0  0  0  0  3  0  0  0  0  0  0
   -1.3755    1.0372    0.1371 O   0  0  0  0  0  0  0  0  0  0  0  0
   -2.0439   -0.1201   -0.2015 N   0  0  0  0  0  0  0  0  0  0  0  0
   -2.8794   -0.5453    0.6472 C   0  0  0  0  0  0  0  0  0  0  0  0
    0.7286    0.7703   -0.5450 H   0  0  0  0  0  0  0  0  0  0  0  0
   -0.2251    2.4608   -0.6855 H   0  0  0  0  0  0  0  0  0  0  0  0
   -0.6932    1.1128   -1.8171 H   0  0  0  0  0  0  0  0  0  0  0  0
   -3.4076   -1.4453    0.3889 H   0  0  0  0  0  0  0  0  0  0  0  0
   -3.0889   -0.0607    1.5957 H   0  0  0  0  0  0  0  0  0  0  0  0
    2.6385    1.1363    0.6004 C   0  0  0  0  0  0  0  0  0  0  0  0
    1.8630    0.1760   -0.2679 C   0  0  0  0  0  0  0  0  0  0  0  0
    1.5256   -1.1389    0.3958 C   0  0  0  0  0  0  0  0  0  0  0  0
    0.7267   -2.0641   -0.5150 C   0  0  0  0  0  0  0  0  0  0  0  0
    3.6161    0.7238    0.8595 H   0  0  0  0  0  0  0  0  0  0  0  0
    2.1029    1.3327    1.5273 H   0  0  0  0  0  0  0  0  0  0  0  0
    2.7987    2.0810    0.0851 H   0  0  0  0  0  0  0  0  0  0  0  0
    2.3307    0.0332   -1.2414 H   0  0  0  0  0  0  0  0  0  0  0  0
    0.9583   -0.9483    1.3108 H   0  0  0  0  0  0  0  0  0  0  0  0
    2.4551   -1.6418    0.6917 H   0  0  0  0  0  0  0  0  0  0  0  0
    0.5447   -3.0170   -0.0234 H   0  0  0  0  0  0  0  0  0  0  0  0
   -0.2342   -1.6186   -0.7629 H   0  0  0  0  0  0  0  0  0  0  0  0
    1.2705   -2.2527   -1.4383 H   0  0  0  0  0  0  0  0  0  0  0  0
  1  2  1  0
  1  6  1  0
  1  7  1  0
  2  3  1  0
  3  4  2  3
  4  8  1  0
  4  9  1  0
  5 11  1  0
 10 11  1  0
 10 14  1  0
 10 15  1  0
 10 16  1  0
 11 12  1  0
 11 17  1  0
 12 13  1  0
 12 18  1  0
 12 19  1  0
 13 20  1  0
 13 21  1  0
 13 22  1  0
M  RAD  1   1   2
M  END
>  <reaction>  (23) 
rmg_rxn_15600

>  <mol_properties>  (23) 
{"0": {"label": "*3", "atom_type": "Cs"}, "1": {"label": "*4", "atom_type": "O2s"}, "4": {"label": "*2", "atom_type": "H0"}, "10": {"label": "*1", "atom_type": "Cs"}, "11": {"label": "*0", "atom_type": "Cs"}}

>  <type>  (23) 
unop_19

>  <geom_source>  (23) 
Heuristics

$$$$

     RDKit          3D

 22 20  0  0  0  0  0  0  0  0999 V2000
   -1.1732    1.1532    0.6281 C   0  0  0  0  0  0  0  0  0  0  0  0
   -1.1732    1.2111   -0.7848 O   0  0  0  0  0  0  0  0  0  0  0  0
   -1.1732   -0.0628   -1.3005 N   0  0  0  0  0  0  0  0  0  0  0  0
   -1.1732   -0.0628   -2.5641 C   0  0  0  0  0  0  0  0  0  0  0  0
   -0.1026    0.5410    1.0722 H   0  0  0  0  0  0  0  0  0  0  0  0
   -2.0653    0.6430    0.9982 H   0  0  0  0  0  0  0  0  0  0  0  0
   -1.1732    2.1881    0.9659 H   0  0  0  0  0  0  0  0  0  0  0  0
   -1.1732   -1.0298   -3.0490 H   0  0  0  0  0  0  0  0  0  0  0  0
   -1.1732    0.8537   -3.1503 H   0  0  0  0  0  0  0  0  0  0  0  0
    0.2718   -0.6943    2.7190 C   0  0  0  0  0  0  0  0  0  0  0  0
    0.9705   -0.0726    1.5173 C   0  0  0  0  0  3  0  0  0  0  0  0
    1.4189   -1.1033    0.4878 C   0  0  0  0  0  0  0  0  0  0  0  0
    2.1176   -0.4816   -0.7138 C   0  0  0  0  0  0  0  0  0  0  0  0
    0.9315   -1.3952    3.2359 H   0  0  0  0  0  0  0  0  0  0  0  0
   -0.6195   -1.2462    2.4111 H   0  0  0  0  0  0  0  0  0  0  0  0
   -0.0381    0.0649    3.4389 H   0  0  0  0  0  0  0  0  0  0  0  0
    1.8410    0.4996    1.8541 H   0  0  0  0  0  0  0  0  0  0  0  0
    0.5484   -1.6755    0.1510 H   0  0  0  0  0  0  0  0  0  0  0  0
    2.0881   -1.8234    0.9698 H   0  0  0  0  0  0  0  0  0  0  0  0
    3.0089    0.0703   -0.4060 H   0  0  0  0  0  0  0  0  0  0  0  0
    2.4275   -1.2408   -1.4338 H   0  0  0  0  0  0  0  0  0  0  0  0
    1.4578    0.2193   -1.2308 H   0  0  0  0  0  0  0  0  0  0  0  0
  1  2  1  0
  1  5  1  0
  1  6  1  0
  1  7  1  0
  2  3  1  0
  3  4  2  3
  4  8  1  0
  4  9  1  0
 10 11  1  0
 10 14  1  0
 10 15  1  0
 10 16  1  0
 11 12  1  0
 11 17  1  0
 12 13  1  0
 12 18  1  0
 12 19  1  0
 13 20  1  0
 13 21  1  0
 13 22  1  0
M  RAD  1  11   2
M  END
>  <reaction>  (24) 
rmg_rxn_15600

>  <mol_properties>  (24) 
{"0": {"label": "*3", "atom_type": "Cs"}, "1": {"label": "*4", "atom_type": "O2s"}, "4": {"label": "*2", "atom_type": "H0"}, "10": {"label": "*1", "atom_type": "Cs"}, "11": {"label": "*0", "atom_type": "Cs"}}

>  <type>  (24) 
unop_20

>  <geom_source>  (24) 
Heuristics

$$$$

     RDKit          3D

 22 20  0  0  0  0  0  0  0  0999 V2000
   -1.3715    0.7000    0.4842 C   0  0  0  0  0  0  0  0  0  0  0  0
   -1.3716    0.7580   -0.9287 O   0  0  0  0  0  0  0  0  0  0  0  0
   -1.3716   -0.5159   -1.4445 N   0  0  0  0  0  0  0  0  0  0  0  0
   -1.3716   -0.5159   -2.7081 C   0  0  0  0  0  0  0  0  0  0  0  0
   -0.3010    0.0879    0.9283 H   0  0  0  0  0  0  0  0  0  0  0  0
   -2.2637    0.1898    0.8543 H   0  0  0  0  0  0  0  0  0  0  0  0
   -1.3716    1.7349    0.8220 H   0  0  0  0  0  0  0  0  0  0  0  0
   -1.3716   -1.4830   -3.1929 H   0  0  0  0  0  0  0  0  0  0  0  0
   -1.3716    0.4006   -3.2942 H   0  0  0  0  0  0  0  0  0  0  0  0
    1.0388   -2.0036    1.6252 C   0  0  0  0  0  0  0  0  0  0  0  0
    0.7721   -0.5257    1.3734 C   0  0  0  0  0  3  0  0  0  0  0  0
    2.0096    0.2341    0.9100 C   0  0  0  0  0  0  0  0  0  0  0  0
    1.7428    1.7120    0.6582 C   0  0  0  0  0  0  0  0  0  0  0  0
    1.8024   -2.1378    2.3951 H   0  0  0  0  0  0  0  0  0  0  0  0
    1.3949   -2.4972    0.7178 H   0  0  0  0  0  0  0  0  0  0  0  0
    0.1374   -2.5225    1.9554 H   0  0  0  0  0  0  0  0  0  0  0  0
    0.3875   -0.0610    2.2871 H   0  0  0  0  0  0  0  0  0  0  0  0
    2.3941   -0.2306   -0.0037 H   0  0  0  0  0  0  0  0  0  0  0  0
    2.7986    0.1261    1.6613 H   0  0  0  0  0  0  0  0  0  0  0  0
    1.3867    2.2056    1.5656 H   0  0  0  0  0  0  0  0  0  0  0  0
    2.6442    2.2309    0.3281 H   0  0  0  0  0  0  0  0  0  0  0  0
    0.9793    1.8463   -0.1117 H   0  0  0  0  0  0  0  0  0  0  0  0
  1  2  1  0
  1  5  1  0
  1  6  1  0
  1  7  1  0
  2  3  1  0
  3  4  2  3
  4  8  1  0
  4  9  1  0
 10 11  1  0
 10 14  1  0
 10 15  1  0
 10 16  1  0
 11 12  1  0
 11 17  1  0
 12 13  1  0
 12 18  1  0
 12 19  1  0
 13 20  1  0
 13 21  1  0
 13 22  1  0
M  RAD  1  11   2
M  END
>  <reaction>  (25) 
rmg_rxn_15600

>  <mol_properties>  (25) 
{"0": {"label": "*3", "atom_type": "Cs"}, "1": {"label": "*4", "atom_type": "O2s"}, "4": {"label": "*2", "atom_type": "H0"}, "10": {"label": "*1", "atom_type": "Cs"}, "11": {"label": "*0", "atom_type": "Cs"}}

>  <type>  (25) 
unop_21

>  <geom_source>  (25) 
Heuristics

$$$$

     RDKit          3D

 22 20  0  0  0  0  0  0  0  0999 V2000
   -0.9801    1.0634    0.0404 C   0  0  0  0  0  0  0  0  0  0  0  0
   -0.9801    1.1213   -1.3725 O   0  0  0  0  0  0  0  0  0  0  0  0
   -0.9801   -0.1526   -1.8882 N   0  0  0  0  0  0  0  0  0  0  0  0
   -0.9801   -0.1526   -3.1518 C   0  0  0  0  0  0  0  0  0  0  0  0
    0.0905    0.4512    0.4845 H   0  0  0  0  0  0  0  0  0  0  0  0
   -1.8722    0.5532    0.4105 H   0  0  0  0  0  0  0  0  0  0  0  0
   -0.9801    2.0983    0.3782 H   0  0  0  0  0  0  0  0  0  0  0  0
   -0.9801   -1.1197   -3.6367 H   0  0  0  0  0  0  0  0  0  0  0  0
   -0.9801    0.7639   -3.7380 H   0  0  0  0  0  0  0  0  0  0  0  0
    1.7687    1.2217    1.1209 C   0  0  0  0  0  0  0  0  0  0  0  0
    1.1635   -0.1624    0.9297 C   0  0  0  0  0  3  0  0  0  0  0  0
    0.8316   -0.8563    2.2456 C   0  0  0  0  0  0  0  0  0  0  0  0
    0.2264   -2.2404    2.0544 C   0  0  0  0  0  0  0  0  0  0  0  0
    2.6964    1.1672    1.6956 H   0  0  0  0  0  0  0  0  0  0  0  0
    1.0830    1.8772    1.6630 H   0  0  0  0  0  0  0  0  0  0  0  0
    1.9963    1.6949    0.1643 H   0  0  0  0  0  0  0  0  0  0  0  0
    1.8551   -0.7899    0.3582 H   0  0  0  0  0  0  0  0  0  0  0  0
    0.1400   -0.2288    2.8171 H   0  0  0  0  0  0  0  0  0  0  0  0
    1.7416   -0.9335    2.8495 H   0  0  0  0  0  0  0  0  0  0  0  0
    0.9122   -2.8959    1.5123 H   0  0  0  0  0  0  0  0  0  0  0  0
   -0.0012   -2.7135    3.0110 H   0  0  0  0  0  0  0  0  0  0  0  0
   -0.7013   -2.1859    1.4797 H   0  0  0  0  0  0  0  0  0  0  0  0
  1  2  1  0
  1  5  1  0
  1  6  1  0
  1  7  1  0
  2  3  1  0
  3  4  2  3
  4  8  1  0
  4  9  1  0
 10 11  1  0
 10 14  1  0
 10 15  1  0
 10 16  1  0
 11 12  1  0
 11 17  1  0
 12 13  1  0
 12 18  1  0
 12 19  1  0
 13 20  1  0
 13 21  1  0
 13 22  1  0
M  RAD  1  11   2
M  END
>  <reaction>  (26) 
rmg_rxn_15600

>  <mol_properties>  (26) 
{"0": {"label": "*3", "atom_type": "Cs"}, "1": {"label": "*4", "atom_type": "O2s"}, "4": {"label": "*2", "atom_type": "H0"}, "10": {"label": "*1", "atom_type": "Cs"}, "11": {"label": "*0", "atom_type": "Cs"}}

>  <type>  (26) 
unop_22

>  <geom_source>  (26) 
Heuristics

$$$$

     RDKit          3D

 22 20  0  0  0  0  0  0  0  0999 V2000
   -1.2775    1.0005    0.6680 C   0  0  0  0  0  0  0  0  0  0  0  0
   -1.2776    1.0584   -0.7449 O   0  0  0  0  0  0  0  0  0  0  0  0
   -1.2776   -0.2155   -1.2606 N   0  0  0  0  0  0  0  0  0  0  0  0
   -1.2776   -0.2155   -2.5242 C   0  0  0  0  0  0  0  0  0  0  0  0
   -0.2069    0.3883    1.1121 H   0  0  0  0  0  0  0  0  0  0  0  0
   -2.1697    0.4903    1.0381 H   0  0  0  0  0  0  0  0  0  0  0  0
   -1.2776    2.0354    1.0058 H   0  0  0  0  0  0  0  0  0  0  0  0
   -1.2776   -1.1825   -3.0091 H   0  0  0  0  0  0  0  0  0  0  0  0
   -1.2776    0.7010   -3.1104 H   0  0  0  0  0  0  0  0  0  0  0  0
    0.4559   -1.3902    2.4480 C   0  0  0  0  0  0  0  0  0  0  0  0
    0.8661   -0.2253    1.5572 C   0  0  0  0  0  3  0  0  0  0  0  0
    1.7241   -0.6527    0.3720 C   0  0  0  0  0  0  0  0  0  0  0  0
    2.1342    0.5122   -0.5187 C   0  0  0  0  0  0  0  0  0  0  0  0
    1.3328   -1.8985    2.8559 H   0  0  0  0  0  0  0  0  0  0  0  0
   -0.1214   -2.1282    1.8860 H   0  0  0  0  0  0  0  0  0  0  0  0
   -0.1565   -1.0563    3.2871 H   0  0  0  0  0  0  0  0  0  0  0  0
    1.4154    0.5140    2.1491 H   0  0  0  0  0  0  0  0  0  0  0  0
    1.1747   -1.3920   -0.2198 H   0  0  0  0  0  0  0  0  0  0  0  0
    2.6182   -1.1640    0.7430 H   0  0  0  0  0  0  0  0  0  0  0  0
    2.7115    1.2502    0.0433 H   0  0  0  0  0  0  0  0  0  0  0  0
    2.7466    0.1783   -1.3578 H   0  0  0  0  0  0  0  0  0  0  0  0
    1.2573    1.0206   -0.9266 H   0  0  0  0  0  0  0  0  0  0  0  0
  1  2  1  0
  1  5  1  0
  1  6  1  0
  1  7  1  0
  2  3  1  0
  3  4  2  3
  4  8  1  0
  4  9  1  0
 10 11  1  0
 10 14  1  0
 10 15  1  0
 10 16  1  0
 11 12  1  0
 11 17  1  0
 12 13  1  0
 12 18  1  0
 12 19  1  0
 13 20  1  0
 13 21  1  0
 13 22  1  0
M  RAD  1  11   2
M  END
>  <reaction>  (27) 
rmg_rxn_15600

>  <mol_properties>  (27) 
{"0": {"label": "*3", "atom_type": "Cs"}, "1": {"label": "*4", "atom_type": "O2s"}, "4": {"label": "*2", "atom_type": "H0"}, "10": {"label": "*1", "atom_type": "Cs"}, "11": {"label": "*0", "atom_type": "Cs"}}

>  <type>  (27) 
unop_23

>  <geom_source>  (27) 
Heuristics

$$$$

     RDKit          3D

 22 20  0  0  0  0  0  0  0  0999 V2000
    0.4386   -1.3702   -0.8539 C   0  0  0  0  0  3  0  0  0  0  0  0
    1.3842   -1.0370    0.1015 O   0  0  0  0  0  0  0  0  0  0  0  0
    2.0328    0.1462   -0.1815 N   0  0  0  0  0  0  0  0  0  0  0  0
    2.8617    0.5442    0.6864 C   0  0  0  0  0  0  0  0  0  0  0  0
   -0.7231   -0.7640   -0.5639 H   0  0  0  0  0  0  0  0  0  0  0  0
    0.2498   -2.4358   -0.7835 H   0  0  0  0  0  0  0  0  0  0  0  0
    0.6993   -1.0324   -1.8536 H   0  0  0  0  0  0  0  0  0  0  0  0
    3.3748    1.4641    0.4715 H   0  0  0  0  0  0  0  0  0  0  0  0
    3.0802    0.0182    1.6107 H   0  0  0  0  0  0  0  0  0  0  0  0
   -2.5910   -1.1665    0.6373 C   0  0  0  0  0  0  0  0  0  0  0  0
   -1.8612   -0.1928   -0.2552 C   0  0  0  0  0  0  0  0  0  0  0  0
   -1.5333    1.1310    0.3956 C   0  0  0  0  0  0  0  0  0  0  0  0
   -0.7621    2.0625   -0.5325 C   0  0  0  0  0  0  0  0  0  0  0  0
   -2.0239   -1.3503    1.5480 H   0  0  0  0  0  0  0  0  0  0  0  0
   -2.7477   -2.1153    0.1285 H   0  0  0  0  0  0  0  0  0  0  0  0
   -3.5685   -0.7730    0.9252 H   0  0  0  0  0  0  0  0  0  0  0  0
   -2.3592   -0.0628   -1.2155 H   0  0  0  0  0  0  0  0  0  0  0  0
   -0.9491    0.9546    1.3028 H   0  0  0  0  0  0  0  0  0  0  0  0
   -2.4657    1.6215    0.7027 H   0  0  0  0  0  0  0  0  0  0  0  0
   -0.5973    3.0250   -0.0535 H   0  0  0  0  0  0  0  0  0  0  0  0
    0.2065    1.6350   -0.7820 H   0  0  0  0  0  0  0  0  0  0  0  0
   -1.3172    2.2283   -1.4535 H   0  0  0  0  0  0  0  0  0  0  0  0
  1  2  1  0
  1  6  1  0
  1  7  1  0
  2  3  1  0
  3  4  2  3
  4  8  1  0
  4  9  1  0
  5 11  1  0
 10 11  1  0
 10 14  1  0
 10 15  1  0
 10 16  1  0
 11 12  1  0
 11 17  1  0
 12 13  1  0
 12 18  1  0
 12 19  1  0
 13 20  1  0
 13 21  1  0
 13 22  1  0
M  RAD  1   1   2
M  END
>  <reaction>  (28) 
rmg_rxn_15600

>  <mol_properties>  (28) 
{"0": {"label": "*3", "atom_type": "Cs"}, "1": {"label": "*4", "atom_type": "O2s"}, "4": {"label": "*2", "atom_type": "H0"}, "10": {"label": "*1", "atom_type": "Cs"}, "11": {"label": "*0", "atom_type": "Cs"}}

>  <type>  (28) 
unop_24

>  <geom_source>  (28) 
Heuristics

$$$$

     RDKit          3D

 22 20  0  0  0  0  0  0  0  0999 V2000
    2.7683   -0.1959   -1.3232 O   0  0  0  0  0  0  0  0  0  0  0  0
    3.5732   -0.5944   -0.2683 N   0  0  0  0  0  0  0  0  0  0  0  0
   -0.5893   -0.2414   -0.2539 C   0  0  0  0  0  0  0  0  0  0  0  0
   -1.6634    0.8427   -0.0911 C   0  0  0  0  0  0  0  0  0  0  0  0
   -0.5369   -1.2032    0.9313 C   0  0  0  0  0  0  0  0  0  0  0  0
   -3.0828    0.2903   -0.2162 C   0  0  0  0  0  0  0  0  0  0  0  0
    1.6386    0.6556   -1.1644 C   0  0  0  0  0  3  0  0  0  0  0  0
    3.3623   -0.2813    0.9732 C   0  0  0  0  0  0  0  0  0  0  0  0
   -0.7594   -0.8128   -1.1923 H   0  0  0  0  0  0  0  0  0  0  0  0
    0.5863    0.3531   -0.3529 H   0  0  0  0  0  0  0  0  0  0  0  0
   -1.5124    1.6039   -0.8863 H   0  0  0  0  0  0  0  0  0  0  0  0
   -1.5457    1.3528    0.8895 H   0  0  0  0  0  0  0  0  0  0  0  0
    0.3264   -1.8897    0.8068 H   0  0  0  0  0  0  0  0  0  0  0  0
   -1.4620   -1.8137    0.9841 H   0  0  0  0  0  0  0  0  0  0  0  0
   -0.4069   -0.6415    1.8804 H   0  0  0  0  0  0  0  0  0  0  0  0
   -3.2034   -0.2578   -1.1748 H   0  0  0  0  0  0  0  0  0  0  0  0
   -3.8085    1.1305   -0.1962 H   0  0  0  0  0  0  0  0  0  0  0  0
   -3.3161   -0.3884    0.6301 H   0  0  0  0  0  0  0  0  0  0  0  0
    1.9725    1.6671   -0.8514 H   0  0  0  0  0  0  0  0  0  0  0  0
    1.0996    0.7354   -2.1306 H   0  0  0  0  0  0  0  0  0  0  0  0
    2.5166    0.3237    1.2712 H   0  0  0  0  0  0  0  0  0  0  0  0
    4.0430   -0.6352    1.7351 H   0  0  0  0  0  0  0  0  0  0  0  0
  1  7  1  0
  1  2  1  0
  2  8  2  3
  3  5  1  0
  3  4  1  0
  3  9  1  0
  3 10  1  0
  4  6  1  0
  4 11  1  0
  4 12  1  0
  5 13  1  0
  5 14  1  0
  5 15  1  0
  6 16  1  0
  6 17  1  0
  6 18  1  0
  7 19  1  0
  7 20  1  0
  8 21  1  0
  8 22  1  0
M  RAD  1   7   2
M  END
>  <reaction>  (29) 
rmg_rxn_15600

>  <mol_properties>  (29) 
{"0": {"label": "*3", "atom_type": "Cs"}, "1": {"label": "*4", "atom_type": "O2s"}, "4": {"label": "*2", "atom_type": "H0"}, "10": {"label": "*1", "atom_type": "Cs"}, "11": {"label": "*0", "atom_type": "Cs"}}

>  <type>  (29) 
unop_25

>  <geom_source>  (29) 
AutoTST

$$$$

     RDKit          3D

 22 20  0  0  0  0  0  0  0  0999 V2000
   -1.3502    0.8340    0.6150 C   0  0  0  0  0  0  0  0  0  0  0  0
   -1.3503    0.8919   -0.7979 O   0  0  0  0  0  0  0  0  0  0  0  0
   -1.3503   -0.3819   -1.3136 N   0  0  0  0  0  0  0  0  0  0  0  0
   -1.3503   -0.3819   -2.5772 C   0  0  0  0  0  0  0  0  0  0  0  0
   -0.2797    0.2218    1.0591 H   0  0  0  0  0  0  0  0  0  0  0  0
   -2.2424    0.3238    0.9851 H   0  0  0  0  0  0  0  0  0  0  0  0
   -1.3503    1.8689    0.9528 H   0  0  0  0  0  0  0  0  0  0  0  0
   -1.3503   -1.3490   -3.0621 H   0  0  0  0  0  0  0  0  0  0  0  0
   -1.3503    0.5345   -3.1634 H   0  0  0  0  0  0  0  0  0  0  0  0
    0.7608   -1.8065    2.0664 C   0  0  0  0  0  0  0  0  0  0  0  0
    0.7934   -0.3917    1.5043 C   0  0  0  0  0  3  0  0  0  0  0  0
    1.9402   -0.1638    0.5263 C   0  0  0  0  0  0  0  0  0  0  0  0
    1.9727    1.2510   -0.0358 C   0  0  0  0  0  0  0  0  0  0  0  0
    1.6858   -2.0369    2.6003 H   0  0  0  0  0  0  0  0  0  0  0  0
    0.6493   -2.5428    1.2669 H   0  0  0  0  0  0  0  0  0  0  0  0
   -0.0686   -1.9417    2.7625 H   0  0  0  0  0  0  0  0  0  0  0  0
    0.8743    0.3280    2.3253 H   0  0  0  0  0  0  0  0  0  0  0  0
    1.8593   -0.8835   -0.2947 H   0  0  0  0  0  0  0  0  0  0  0  0
    2.8882   -0.3813    1.0289 H   0  0  0  0  0  0  0  0  0  0  0  0
    2.0843    1.9873    0.7637 H   0  0  0  0  0  0  0  0  0  0  0  0
    2.8022    1.3862   -0.7319 H   0  0  0  0  0  0  0  0  0  0  0  0
    1.0477    1.4814   -0.5697 H   0  0  0  0  0  0  0  0  0  0  0  0
  1  2  1  0
  1  5  1  0
  1  6  1  0
  1  7  1  0
  2  3  1  0
  3  4  2  3
  4  8  1  0
  4  9  1  0
 10 11  1  0
 10 14  1  0
 10 15  1  0
 10 16  1  0
 11 12  1  0
 11 17  1  0
 12 13  1  0
 12 18  1  0
 12 19  1  0
 13 20  1  0
 13 21  1  0
 13 22  1  0
M  RAD  1  11   2
M  END
>  <reaction>  (30) 
rmg_rxn_15600

>  <mol_properties>  (30) 
{"0": {"label": "*3", "atom_type": "Cs"}, "1": {"label": "*4", "atom_type": "O2s"}, "4": {"label": "*2", "atom_type": "H0"}, "10": {"label": "*1", "atom_type": "Cs"}, "11": {"label": "*0", "atom_type": "Cs"}}

>  <type>  (30) 
unop_26

>  <geom_source>  (30) 
gaussian_log

$$$$
