
     RDKit          3D

  5  4  0  0  0  0  0  0  0  0999 V2000
   -0.4583    0.0384    0.1517 N   0  0  0  0  0  0  0  0  0  0  0  0
    0.7454   -0.3487    0.5322 N   0  0  0  0  0  0  0  0  0  0  0  0
    0.7566   -1.0388    1.5193 O   0  0  0  0  0  0  0  0  0  0  0  0
   -1.2688   -0.2521    0.6850 H   0  0  0  0  0  0  0  0  0  0  0  0
   -0.5137    0.6154   -0.6670 H   0  0  0  0  0  0  0  0  0  0  0  0
  1  2  1  0
  1  4  1  0
  1  5  1  0
  2  3  2  0
M  END
>  <reaction>  (1) 
rmg_rxn_1496

>  <mol_properties>  (1) 
{"0": {"label": "donator", "atom_type": "N3s"}, "3": {"label": "d_hydrogen", "atom_type": "H0"}}

>  <type>  (1) 
r1h

$$$$

     RDKit          3D

  9  8  0  0  0  0  0  0  0  0999 V2000
    1.3246   -0.8124   -0.0809 C   0  0  0  0  0  2  0  0  0  0  0  0
    0.4082    0.3080    0.1518 C   0  0  0  0  0  0  0  0  0  0  0  0
   -1.0545   -0.0277   -0.1520 C   0  0  0  0  0  0  0  0  0  0  0  0
    2.3933   -0.9471    0.0203 H   0  0  0  0  0  0  0  0  0  0  0  0
    0.4898    0.6406    1.1970 H   0  0  0  0  0  0  0  0  0  0  0  0
    0.7134    1.1680   -0.4624 H   0  0  0  0  0  0  0  0  0  0  0  0
   -1.4014   -0.8515    0.4727 H   0  0  0  0  0  0  0  0  0  0  0  0
   -1.1767   -0.3214   -1.1952 H   0  0  0  0  0  0  0  0  0  0  0  0
   -1.6915    0.8372    0.0370 H   0  0  0  0  0  0  0  0  0  0  0  0
  1  2  1  0
  1  4  1  0
  2  3  1  0
  2  5  1  0
  2  6  1  0
  3  7  1  0
  3  8  1  0
  3  9  1  0
M  RAD  1   1   3
M  END
>  <reaction>  (2) 
rmg_rxn_1496

>  <mol_properties>  (2) 
{"0": {"label": "acceptor", "atom_type": "Cs"}}

>  <type>  (2) 
r2

$$$$

     RDKit          3D

 10  9  0  0  0  0  0  0  0  0999 V2000
    1.4352    0.2660   -0.1351 C   0  0  0  0  0  3  0  0  0  0  0  0
    0.2236   -0.3243    0.4850 C   0  0  0  0  0  0  0  0  0  0  0  0
   -0.8893    0.6872    0.7364 C   0  0  0  0  0  0  0  0  0  0  0  0
    2.3577   -0.2958   -0.1940 H   0  0  0  0  0  0  0  0  0  0  0  0
    1.3935    1.2286   -0.6287 H   0  0  0  0  0  0  0  0  0  0  0  0
   -0.1633   -1.1318   -0.1556 H   0  0  0  0  0  0  0  0  0  0  0  0
    0.4945   -0.8215    1.4240 H   0  0  0  0  0  0  0  0  0  0  0  0
   -1.1991    1.1627   -0.1967 H   0  0  0  0  0  0  0  0  0  0  0  0
   -1.7660    0.2103    1.1768 H   0  0  0  0  0  0  0  0  0  0  0  0
   -0.5545    1.4732    1.4159 H   0  0  0  0  0  0  0  0  0  0  0  0
  1  2  1  0
  1  4  1  0
  1  5  1  0
  2  3  1  0
  2  6  1  0
  2  7  1  0
  3  8  1  0
  3  9  1  0
  3 10  1  0
M  RAD  1   1   2
M  END
>  <reaction>  (3) 
rmg_rxn_1496

>  <mol_properties>  (3) 
{"0": {"label": "a_hydrogen", "atom_type": "H0"}, "1": {"label": "acceptor", "atom_type": "Cs"}}

>  <type>  (3) 
r2h

$$$$

     RDKit          3D

 14 12  0  0  0  0  0  0  0  0999 V2000
   -1.2354   -0.8959    0.5218 N   0  0  0  0  0  0  0  0  0  0  0  0
   -1.9987   -0.1130   -0.1557 N   0  0  0  0  0  0  0  0  0  0  0  0
   -1.5047    0.6326   -0.9619 O   0  0  0  0  0  0  0  0  0  0  0  0
   -0.0898   -1.0416    0.1307 H   0  0  0  0  0  0  0  0  0  0  0  0
   -1.7315   -1.5950    1.0586 H   0  0  0  0  0  0  0  0  0  0  0  0
    1.1849   -1.1919   -0.3718 C   0  0  0  0  0  2  0  0  0  0  0  0
    2.0466    0.0009   -0.4350 C   0  0  0  0  0  0  0  0  0  0  0  0
    1.6601    1.1061    0.5470 C   0  0  0  0  0  0  0  0  0  0  0  0
    1.3881   -2.1833   -0.7596 H   0  0  0  0  0  0  0  0  0  0  0  0
    3.0863   -0.3052   -0.2582 H   0  0  0  0  0  0  0  0  0  0  0  0
    2.0179    0.4088   -1.4557 H   0  0  0  0  0  0  0  0  0  0  0  0
    2.3397    1.9539    0.4560 H   0  0  0  0  0  0  0  0  0  0  0  0
    1.6984    0.7460    1.5763 H   0  0  0  0  0  0  0  0  0  0  0  0
    0.6476    1.4560    0.3418 H   0  0  0  0  0  0  0  0  0  0  0  0
  1  2  1  0
  1  4  1  0
  1  5  1  0
  2  3  2  0
  6  7  1  0
  6  9  1  0
  7  8  1  0
  7 10  1  0
  7 11  1  0
  8 12  1  0
  8 13  1  0
  8 14  1  0
M  RAD  1   6   3
M  END
>  <reaction>  (4) 
rmg_rxn_1496

>  <mol_properties>  (4) 
{"0": {"label": "*1", "atom_type": "N3s"}, "1": {"label": "*0", "atom_type": "N3d"}, "3": {"label": "*2", "atom_type": "H0"}, "5": {"label": "*3", "atom_type": "Cs"}, "6": {"label": "*4", "atom_type": "Cs"}}

>  <type>  (4) 
ts

$$$$

     RDKit          3D

 14 12  0  0  0  0  0  0  0  0999 V2000
    1.2302    1.0173    0.2049 N   0  0  0  0  0  0  0  0  0  0  0  0
    1.9344   -0.0064    0.0118 N   0  0  0  0  0  0  0  0  0  0  0  0
    1.4788   -1.0971   -0.2605 O   0  0  0  0  0  0  0  0  0  0  0  0
    0.0095    1.1364    0.3120 H   0  0  0  0  0  0  0  0  0  0  0  0
    1.7499    1.8564    0.4317 H   0  0  0  0  0  0  0  0  0  0  0  0
   -1.2510    1.2907    0.0540 C   0  0  0  0  0  2  0  0  0  0  0  0
   -1.9742    0.0890   -0.3829 C   0  0  0  0  0  0  0  0  0  0  0  0
   -1.6572   -1.1727    0.4066 C   0  0  0  0  0  0  0  0  0  0  0  0
   -1.3920    2.1112   -0.6603 H   0  0  0  0  0  0  0  0  0  0  0  0
   -3.0285    0.3656   -0.2253 H   0  0  0  0  0  0  0  0  0  0  0  0
   -1.8926   -0.1073   -1.4628 H   0  0  0  0  0  0  0  0  0  0  0  0
   -0.6413   -1.5009    0.1882 H   0  0  0  0  0  0  0  0  0  0  0  0
   -2.3409   -1.9756    0.1410 H   0  0  0  0  0  0  0  0  0  0  0  0
   -1.7349   -0.9846    1.4746 H   0  0  0  0  0  0  0  0  0  0  0  0
  1  2  1  0
  1  4  1  0
  1  5  1  0
  2  3  2  0
  6  7  1  0
  6  9  1  0
  7  8  1  0
  7 10  1  0
  7 11  1  0
  8 12  1  0
  8 13  1  0
  8 14  1  0
M  RAD  1   6   3
M  END
>  <reaction>  (5) 
rmg_rxn_1496

>  <mol_properties>  (5) 
{"0": {"label": "*1", "atom_type": "N3s"}, "1": {"label": "*0", "atom_type": "N3d"}, "3": {"label": "*2", "atom_type": "H0"}, "5": {"label": "*3", "atom_type": "Cs"}, "6": {"label": "*4", "atom_type": "Cs"}}

>  <type>  (5) 
unop_1

>  <geom_source>  (5) 
crest_best.xyz

$$$$

     RDKit          3D

 14 12  0  0  0  0  0  0  0  0999 V2000
    0.2826   -1.1532    1.0344 N   0  0  0  0  0  0  0  0  0  0  0  0
    0.2826   -2.3560    0.4897 N   0  0  0  0  0  0  0  0  0  0  0  0
    0.2826   -2.3560   -0.7148 O   0  0  0  0  0  0  0  0  0  0  0  0
    0.2826   -0.1706    0.3192 H   0  0  0  0  0  0  0  0  0  0  0  0
    0.2826   -1.1069    2.0365 H   0  0  0  0  0  0  0  0  0  0  0  0
    0.2826    0.8790   -0.4447 C   0  0  0  0  0  2  0  0  0  0  0  0
   -0.8207    1.8686   -0.3772 C   0  0  0  0  0  0  0  0  0  0  0  0
   -0.3516    3.2874   -0.0739 C   0  0  0  0  0  0  0  0  0  0  0  0
    1.3085    1.1991   -0.5746 H   0  0  0  0  0  0  0  0  0  0  0  0
   -1.3751    1.8694   -1.3283 H   0  0  0  0  0  0  0  0  0  0  0  0
   -1.5559    1.5510    0.3717 H   0  0  0  0  0  0  0  0  0  0  0  0
    0.3514    3.6341   -0.8343 H   0  0  0  0  0  0  0  0  0  0  0  0
    0.1538    3.3319    0.8926 H   0  0  0  0  0  0  0  0  0  0  0  0
   -1.1900    3.9850   -0.0495 H   0  0  0  0  0  0  0  0  0  0  0  0
  1  2  1  0
  1  4  1  0
  1  5  1  0
  2  3  2  0
  6  7  1  0
  6  9  1  0
  7  8  1  0
  7 10  1  0
  7 11  1  0
  8 12  1  0
  8 13  1  0
  8 14  1  0
M  RAD  1   6   3
M  END
>  <reaction>  (6) 
rmg_rxn_1496

>  <mol_properties>  (6) 
{"0": {"label": "*1", "atom_type": "N3s"}, "1": {"label": "*0", "atom_type": "N3d"}, "3": {"label": "*2", "atom_type": "H0"}, "5": {"label": "*3", "atom_type": "Cs"}, "6": {"label": "*4", "atom_type": "Cs"}}

>  <type>  (6) 
unop_2

>  <geom_source>  (6) 
Heuristics

$$$$

     RDKit          3D

 14 12  0  0  0  0  0  0  0  0999 V2000
   -1.2302   -1.0172    0.2052 N   0  0  0  0  0  0  0  0  0  0  0  0
   -1.9344    0.0065    0.0120 N   0  0  0  0  0  0  0  0  0  0  0  0
   -1.4787    1.0970   -0.2610 O   0  0  0  0  0  0  0  0  0  0  0  0
   -0.0095   -1.1363    0.3120 H   0  0  0  0  0  0  0  0  0  0  0  0
   -1.7499   -1.8561    0.4327 H   0  0  0  0  0  0  0  0  0  0  0  0
    1.2509   -1.2908    0.0535 C   0  0  0  0  0  2  0  0  0  0  0  0
    1.9741   -0.0889   -0.3830 C   0  0  0  0  0  0  0  0  0  0  0  0
    1.6572    1.1726    0.4069 C   0  0  0  0  0  0  0  0  0  0  0  0
    1.3919   -2.1111   -0.6609 H   0  0  0  0  0  0  0  0  0  0  0  0
    3.0284   -0.3656   -0.2255 H   0  0  0  0  0  0  0  0  0  0  0  0
    1.8924    0.1078   -1.4627 H   0  0  0  0  0  0  0  0  0  0  0  0
    2.3410    1.9755    0.1416 H   0  0  0  0  0  0  0  0  0  0  0  0
    1.7350    0.9840    1.4749 H   0  0  0  0  0  0  0  0  0  0  0  0
    0.6413    1.5010    0.1887 H   0  0  0  0  0  0  0  0  0  0  0  0
  1  2  1  0
  1  4  1  0
  1  5  1  0
  2  3  2  0
  6  7  1  0
  6  9  1  0
  7  8  1  0
  7 10  1  0
  7 11  1  0
  8 12  1  0
  8 13  1  0
  8 14  1  0
M  RAD  1   6   3
M  END
>  <reaction>  (7) 
rmg_rxn_1496

>  <mol_properties>  (7) 
{"0": {"label": "*1", "atom_type": "N3s"}, "1": {"label": "*0", "atom_type": "N3d"}, "3": {"label": "*2", "atom_type": "H0"}, "5": {"label": "*3", "atom_type": "Cs"}, "6": {"label": "*4", "atom_type": "Cs"}}

>  <type>  (7) 
unop_3

>  <geom_source>  (7) 
Heuristics

$$$$

     RDKit          3D

 14 12  0  0  0  0  0  0  0  0999 V2000
    0.3051   -0.8013    1.6337 N   0  0  0  0  0  0  0  0  0  0  0  0
    0.3051   -2.0041    1.0889 N   0  0  0  0  0  0  0  0  0  0  0  0
    0.3051   -2.0041   -0.1156 O   0  0  0  0  0  0  0  0  0  0  0  0
    0.3051    0.1814    0.9184 H   0  0  0  0  0  0  0  0  0  0  0  0
    0.3051   -0.7549    2.6357 H   0  0  0  0  0  0  0  0  0  0  0  0
    0.3051    1.2309    0.1545 C   0  0  0  0  0  2  0  0  0  0  0  0
   -0.3319    1.1964   -1.1849 C   0  0  0  0  0  0  0  0  0  0  0  0
   -0.8768    2.5466   -1.6377 C   0  0  0  0  0  0  0  0  0  0  0  0
    0.6155    2.1685    0.5978 H   0  0  0  0  0  0  0  0  0  0  0  0
    0.3932    0.8339   -1.9297 H   0  0  0  0  0  0  0  0  0  0  0  0
   -1.1342    0.4491   -1.1929 H   0  0  0  0  0  0  0  0  0  0  0  0
   -0.0807    3.2934   -1.6743 H   0  0  0  0  0  0  0  0  0  0  0  0
   -1.6420    2.9085   -0.9485 H   0  0  0  0  0  0  0  0  0  0  0  0
   -1.3209    2.4813   -2.6320 H   0  0  0  0  0  0  0  0  0  0  0  0
  1  2  1  0
  1  4  1  0
  1  5  1  0
  2  3  2  0
  6  7  1  0
  6  9  1  0
  7  8  1  0
  7 10  1  0
  7 11  1  0
  8 12  1  0
  8 13  1  0
  8 14  1  0
M  RAD  1   6   3
M  END
>  <reaction>  (8) 
rmg_rxn_1496

>  <mol_properties>  (8) 
{"0": {"label": "*1", "atom_type": "N3s"}, "1": {"label": "*0", "atom_type": "N3d"}, "3": {"label": "*2", "atom_type": "H0"}, "5": {"label": "*3", "atom_type": "Cs"}, "6": {"label": "*4", "atom_type": "Cs"}}

>  <type>  (8) 
unop_4

>  <geom_source>  (8) 
Heuristics

$$$$

     RDKit          3D

 14 12  0  0  0  0  0  0  0  0999 V2000
    1.2302    1.0174    0.2051 N   0  0  0  0  0  0  0  0  0  0  0  0
    1.9342   -0.0064    0.0117 N   0  0  0  0  0  0  0  0  0  0  0  0
    1.4783   -1.0971   -0.2607 O   0  0  0  0  0  0  0  0  0  0  0  0
    0.0096    1.1369    0.3121 H   0  0  0  0  0  0  0  0  0  0  0  0
    1.7502    1.8564    0.4323 H   0  0  0  0  0  0  0  0  0  0  0  0
   -1.2509    1.2908    0.0535 C   0  0  0  0  0  2  0  0  0  0  0  0
   -1.9745    0.0889   -0.3824 C   0  0  0  0  0  0  0  0  0  0  0  0
   -1.6563   -1.1729    0.4064 C   0  0  0  0  0  0  0  0  0  0  0  0
   -1.3923    2.1114   -0.6605 H   0  0  0  0  0  0  0  0  0  0  0  0
   -3.0286    0.3657   -0.2238 H   0  0  0  0  0  0  0  0  0  0  0  0
   -1.8938   -0.1076   -1.4622 H   0  0  0  0  0  0  0  0  0  0  0  0
   -1.7331   -0.9844    1.4744 H   0  0  0  0  0  0  0  0  0  0  0  0
   -0.6405   -1.5014    0.1874 H   0  0  0  0  0  0  0  0  0  0  0  0
   -2.3403   -1.9759    0.1420 H   0  0  0  0  0  0  0  0  0  0  0  0
  1  2  1  0
  1  4  1  0
  1  5  1  0
  2  3  2  0
  6  7  1  0
  6  9  1  0
  7  8  1  0
  7 10  1  0
  7 11  1  0
  8 12  1  0
  8 13  1  0
  8 14  1  0
M  RAD  1   6   3
M  END
>  <reaction>  (9) 
rmg_rxn_1496

>  <mol_properties>  (9) 
{"0": {"label": "*1", "atom_type": "N3s"}, "1": {"label": "*0", "atom_type": "N3d"}, "3": {"label": "*2", "atom_type": "H0"}, "5": {"label": "*3", "atom_type": "Cs"}, "6": {"label": "*4", "atom_type": "Cs"}}

>  <type>  (9) 
unop_5

>  <geom_source>  (9) 
Heuristics

$$$$

     RDKit          3D

 14 12  0  0  0  0  0  0  0  0999 V2000
    0.0567   -1.2106    0.9980 N   0  0  0  0  0  0  0  0  0  0  0  0
    0.0567   -2.4134    0.4532 N   0  0  0  0  0  0  0  0  0  0  0  0
    0.0567   -2.4134   -0.7513 O   0  0  0  0  0  0  0  0  0  0  0  0
    0.0567   -0.2280    0.2828 H   0  0  0  0  0  0  0  0  0  0  0  0
    0.0567   -1.1643    2.0001 H   0  0  0  0  0  0  0  0  0  0  0  0
    0.0567    0.8216   -0.4811 C   0  0  0  0  0  2  0  0  0  0  0  0
   -0.5802    2.0855   -0.0367 C   0  0  0  0  0  0  0  0  0  0  0  0
    0.2989    3.3156   -0.2341 C   0  0  0  0  0  0  0  0  0  0  0  0
    0.9085    0.8340   -1.1492 H   0  0  0  0  0  0  0  0  0  0  0  0
   -1.5283    2.2315   -0.5768 H   0  0  0  0  0  0  0  0  0  0  0  0
   -0.8719    2.0012    1.0169 H   0  0  0  0  0  0  0  0  0  0  0  0
    0.5651    3.4370   -1.2863 H   0  0  0  0  0  0  0  0  0  0  0  0
    1.2255    3.2274    0.3361 H   0  0  0  0  0  0  0  0  0  0  0  0
   -0.2120    4.2237    0.0893 H   0  0  0  0  0  0  0  0  0  0  0  0
  1  2  1  0
  1  4  1  0
  1  5  1  0
  2  3  2  0
  6  7  1  0
  6  9  1  0
  7  8  1  0
  7 10  1  0
  7 11  1  0
  8 12  1  0
  8 13  1  0
  8 14  1  0
M  RAD  1   6   3
M  END
>  <reaction>  (10) 
rmg_rxn_1496

>  <mol_properties>  (10) 
{"0": {"label": "*1", "atom_type": "N3s"}, "1": {"label": "*0", "atom_type": "N3d"}, "3": {"label": "*2", "atom_type": "H0"}, "5": {"label": "*3", "atom_type": "Cs"}, "6": {"label": "*4", "atom_type": "Cs"}}

>  <type>  (10) 
unop_6

>  <geom_source>  (10) 
Heuristics

$$$$

     RDKit          3D

 14 12  0  0  0  0  0  0  0  0999 V2000
   -0.3897   -0.9107    1.5024 N   0  0  0  0  0  0  0  0  0  0  0  0
   -0.3897   -2.1136    0.9577 N   0  0  0  0  0  0  0  0  0  0  0  0
   -0.3897   -2.1136   -0.2469 O   0  0  0  0  0  0  0  0  0  0  0  0
   -0.3897    0.0719    0.7872 H   0  0  0  0  0  0  0  0  0  0  0  0
   -0.3897   -0.8644    2.5045 H   0  0  0  0  0  0  0  0  0  0  0  0
   -0.3897    1.1214    0.0233 C   0  0  0  0  0  2  0  0  0  0  0  0
    0.7135    1.3614   -0.9391 C   0  0  0  0  0  0  0  0  0  0  0  0
    0.8343    2.8159   -1.3806 C   0  0  0  0  0  0  0  0  0  0  0  0
   -0.8361    1.9410    0.5719 H   0  0  0  0  0  0  0  0  0  0  0  0
    1.6681    1.0408   -0.4944 H   0  0  0  0  0  0  0  0  0  0  0  0
    0.5855    0.7153   -1.8158 H   0  0  0  0  0  0  0  0  0  0  0  0
    1.0030    3.4689   -0.5216 H   0  0  0  0  0  0  0  0  0  0  0  0
   -0.0785    3.1486   -1.8782 H   0  0  0  0  0  0  0  0  0  0  0  0
    1.6658    2.9518   -2.0734 H   0  0  0  0  0  0  0  0  0  0  0  0
  1  2  1  0
  1  4  1  0
  1  5  1  0
  2  3  2  0
  6  7  1  0
  6  9  1  0
  7  8  1  0
  7 10  1  0
  7 11  1  0
  8 12  1  0
  8 13  1  0
  8 14  1  0
M  RAD  1   6   3
M  END
>  <reaction>  (11) 
rmg_rxn_1496

>  <mol_properties>  (11) 
{"0": {"label": "*1", "atom_type": "N3s"}, "1": {"label": "*0", "atom_type": "N3d"}, "3": {"label": "*2", "atom_type": "H0"}, "5": {"label": "*3", "atom_type": "Cs"}, "6": {"label": "*4", "atom_type": "Cs"}}

>  <type>  (11) 
unop_7

>  <geom_source>  (11) 
Heuristics

$$$$

     RDKit          3D

 14 12  0  0  0  0  0  0  0  0999 V2000
    1.2301    1.0174   -0.2046 N   0  0  0  0  0  0  0  0  0  0  0  0
    1.9345   -0.0063   -0.0118 N   0  0  0  0  0  0  0  0  0  0  0  0
    1.4790   -1.0971    0.2603 O   0  0  0  0  0  0  0  0  0  0  0  0
    0.0095    1.1364   -0.3121 H   0  0  0  0  0  0  0  0  0  0  0  0
    1.7498    1.8566   -0.4313 H   0  0  0  0  0  0  0  0  0  0  0  0
   -1.2511    1.2907   -0.0543 C   0  0  0  0  0  2  0  0  0  0  0  0
   -1.9744    0.0890    0.3828 C   0  0  0  0  0  0  0  0  0  0  0  0
   -1.6571   -1.1729   -0.4062 C   0  0  0  0  0  0  0  0  0  0  0  0
   -1.3925    2.1115    0.6595 H   0  0  0  0  0  0  0  0  0  0  0  0
   -1.8929   -0.1069    1.4628 H   0  0  0  0  0  0  0  0  0  0  0  0
   -3.0285    0.3656    0.2249 H   0  0  0  0  0  0  0  0  0  0  0  0
   -1.7347   -0.9852   -1.4744 H   0  0  0  0  0  0  0  0  0  0  0  0
   -2.3407   -1.9758   -0.1404 H   0  0  0  0  0  0  0  0  0  0  0  0
   -0.6410   -1.5009   -0.1877 H   0  0  0  0  0  0  0  0  0  0  0  0
  1  2  1  0
  1  4  1  0
  1  5  1  0
  2  3  2  0
  6  7  1  0
  6  9  1  0
  7  8  1  0
  7 10  1  0
  7 11  1  0
  8 12  1  0
  8 13  1  0
  8 14  1  0
M  RAD  1   6   3
M  END
>  <reaction>  (12) 
rmg_rxn_1496

>  <mol_properties>  (12) 
{"0": {"label": "*1", "atom_type": "N3s"}, "1": {"label": "*0", "atom_type": "N3d"}, "3": {"label": "*2", "atom_type": "H0"}, "5": {"label": "*3", "atom_type": "Cs"}, "6": {"label": "*4", "atom_type": "Cs"}}

>  <type>  (12) 
unop_8

>  <geom_source>  (12) 
Heuristics

$$$$

     RDKit          3D

 14 12  0  0  0  0  0  0  0  0999 V2000
   -0.0466   -1.2206    1.0953 N   0  0  0  0  0  0  0  0  0  0  0  0
   -0.0466   -2.4234    0.5506 N   0  0  0  0  0  0  0  0  0  0  0  0
   -0.0466   -2.4234   -0.6539 O   0  0  0  0  0  0  0  0  0  0  0  0
   -0.0466   -0.2380    0.3801 H   0  0  0  0  0  0  0  0  0  0  0  0
   -0.0466   -1.1742    2.0974 H   0  0  0  0  0  0  0  0  0  0  0  0
   -0.0466    0.8116   -0.3838 C   0  0  0  0  0  2  0  0  0  0  0  0
   -0.0466    2.1760    0.1987 C   0  0  0  0  0  0  0  0  0  0  0  0
    0.2350    3.2755   -0.8195 C   0  0  0  0  0  0  0  0  0  0  0  0
   -0.1474    0.6636   -1.4515 H   0  0  0  0  0  0  0  0  0  0  0  0
   -1.0171    2.3724    0.6798 H   0  0  0  0  0  0  0  0  0  0  0  0
    0.6831    2.2286    1.0154 H   0  0  0  0  0  0  0  0  0  0  0  0
   -0.5082    3.2625   -1.6197 H   0  0  0  0  0  0  0  0  0  0  0  0
    1.2179    3.1415   -1.2752 H   0  0  0  0  0  0  0  0  0  0  0  0
    0.2096    4.2620   -0.3545 H   0  0  0  0  0  0  0  0  0  0  0  0
  1  2  1  0
  1  4  1  0
  1  5  1  0
  2  3  2  0
  6  7  1  0
  6  9  1  0
  7  8  1  0
  7 10  1  0
  7 11  1  0
  8 12  1  0
  8 13  1  0
  8 14  1  0
M  RAD  1   6   3
M  END
>  <reaction>  (13) 
rmg_rxn_1496

>  <mol_properties>  (13) 
{"0": {"label": "*1", "atom_type": "N3s"}, "1": {"label": "*0", "atom_type": "N3d"}, "3": {"label": "*2", "atom_type": "H0"}, "5": {"label": "*3", "atom_type": "Cs"}, "6": {"label": "*4", "atom_type": "Cs"}}

>  <type>  (13) 
unop_9

>  <geom_source>  (13) 
Heuristics

$$$$

     RDKit          3D

 14 12  0  0  0  0  0  0  0  0999 V2000
    1.2299    1.0175   -0.2042 N   0  0  0  0  0  0  0  0  0  0  0  0
    1.9345   -0.0061   -0.0117 N   0  0  0  0  0  0  0  0  0  0  0  0
    1.4792   -1.0971    0.2599 O   0  0  0  0  0  0  0  0  0  0  0  0
    0.0093    1.1361   -0.3119 H   0  0  0  0  0  0  0  0  0  0  0  0
    1.7495    1.8568   -0.4308 H   0  0  0  0  0  0  0  0  0  0  0  0
   -1.2514    1.2906   -0.0547 C   0  0  0  0  0  2  0  0  0  0  0  0
   -1.9744    0.0890    0.3827 C   0  0  0  0  0  0  0  0  0  0  0  0
   -1.6569   -1.1731   -0.4059 C   0  0  0  0  0  0  0  0  0  0  0  0
   -1.3927    2.1115    0.6590 H   0  0  0  0  0  0  0  0  0  0  0  0
   -1.8929   -0.1066    1.4627 H   0  0  0  0  0  0  0  0  0  0  0  0
   -3.0286    0.3653    0.2248 H   0  0  0  0  0  0  0  0  0  0  0  0
   -2.3403   -1.9760   -0.1397 H   0  0  0  0  0  0  0  0  0  0  0  0
   -0.6409   -1.5011   -0.1873 H   0  0  0  0  0  0  0  0  0  0  0  0
   -1.7348   -0.9857   -1.4740 H   0  0  0  0  0  0  0  0  0  0  0  0
  1  2  1  0
  1  4  1  0
  1  5  1  0
  2  3  2  0
  6  7  1  0
  6  9  1  0
  7  8  1  0
  7 10  1  0
  7 11  1  0
  8 12  1  0
  8 13  1  0
  8 14  1  0
M  RAD  1   6   3
M  END
>  <reaction>  (14) 
rmg_rxn_1496

>  <mol_properties>  (14) 
{"0": {"label": "*1", "atom_type": "N3s"}, "1": {"label": "*0", "atom_type": "N3d"}, "3": {"label": "*2", "atom_type": "H0"}, "5": {"label": "*3", "atom_type": "Cs"}, "6": {"label": "*4", "atom_type": "Cs"}}

>  <type>  (14) 
unop_10

>  <geom_source>  (14) 
Heuristics

$$$$

     RDKit          3D

 14 12  0  0  0  0  0  0  0  0999 V2000
   -0.4071   -1.0441    1.2924 N   0  0  0  0  0  0  0  0  0  0  0  0
   -0.4071   -2.2469    0.7476 N   0  0  0  0  0  0  0  0  0  0  0  0
   -0.4071   -2.2469   -0.4569 O   0  0  0  0  0  0  0  0  0  0  0  0
   -0.4071   -0.0614    0.5772 H   0  0  0  0  0  0  0  0  0  0  0  0
   -0.4071   -0.9977    2.2945 H   0  0  0  0  0  0  0  0  0  0  0  0
   -0.4071    0.9881   -0.1867 C   0  0  0  0  0  2  0  0  0  0  0  0
    0.8668    1.6029   -0.6342 C   0  0  0  0  0  0  0  0  0  0  0  0
    0.7734    3.1081   -0.8591 C   0  0  0  0  0  0  0  0  0  0  0  0
   -1.2019    1.5958    0.2268 H   0  0  0  0  0  0  0  0  0  0  0  0
    1.6556    1.3988    0.1060 H   0  0  0  0  0  0  0  0  0  0  0  0
    1.2126    1.1099   -1.5505 H   0  0  0  0  0  0  0  0  0  0  0  0
    0.4690    3.6188    0.0571 H   0  0  0  0  0  0  0  0  0  0  0  0
    0.0378    3.3414   -1.6310 H   0  0  0  0  0  0  0  0  0  0  0  0
    1.7334    3.5224   -1.1705 H   0  0  0  0  0  0  0  0  0  0  0  0
  1  2  1  0
  1  4  1  0
  1  5  1  0
  2  3  2  0
  6  7  1  0
  6  9  1  0
  7  8  1  0
  7 10  1  0
  7 11  1  0
  8 12  1  0
  8 13  1  0
  8 14  1  0
M  RAD  1   6   3
M  END
>  <reaction>  (15) 
rmg_rxn_1496

>  <mol_properties>  (15) 
{"0": {"label": "*1", "atom_type": "N3s"}, "1": {"label": "*0", "atom_type": "N3d"}, "3": {"label": "*2", "atom_type": "H0"}, "5": {"label": "*3", "atom_type": "Cs"}, "6": {"label": "*4", "atom_type": "Cs"}}

>  <type>  (15) 
unop_11

>  <geom_source>  (15) 
Heuristics

$$$$

     RDKit          3D

 14 12  0  0  0  0  0  0  0  0999 V2000
    1.2301    1.0172   -0.2050 N   0  0  0  0  0  0  0  0  0  0  0  0
    1.9345   -0.0064   -0.0119 N   0  0  0  0  0  0  0  0  0  0  0  0
    1.4789   -1.0971    0.2607 O   0  0  0  0  0  0  0  0  0  0  0  0
    0.0095    1.1363   -0.3120 H   0  0  0  0  0  0  0  0  0  0  0  0
    1.7498    1.8563   -0.4321 H   0  0  0  0  0  0  0  0  0  0  0  0
   -1.2510    1.2907   -0.0538 C   0  0  0  0  0  2  0  0  0  0  0  0
   -1.9743    0.0889    0.3829 C   0  0  0  0  0  0  0  0  0  0  0  0
   -1.6572   -1.1727   -0.4066 C   0  0  0  0  0  0  0  0  0  0  0  0
   -1.3920    2.1111    0.6604 H   0  0  0  0  0  0  0  0  0  0  0  0
   -1.8928   -0.1075    1.4627 H   0  0  0  0  0  0  0  0  0  0  0  0
   -3.0285    0.3656    0.2252 H   0  0  0  0  0  0  0  0  0  0  0  0
   -0.6413   -1.5010   -0.1882 H   0  0  0  0  0  0  0  0  0  0  0  0
   -1.7348   -0.9844   -1.4747 H   0  0  0  0  0  0  0  0  0  0  0  0
   -2.3410   -1.9755   -0.1412 H   0  0  0  0  0  0  0  0  0  0  0  0
  1  2  1  0
  1  4  1  0
  1  5  1  0
  2  3  2  0
  6  7  1  0
  6  9  1  0
  7  8  1  0
  7 10  1  0
  7 11  1  0
  8 12  1  0
  8 13  1  0
  8 14  1  0
M  RAD  1   6   3
M  END
>  <reaction>  (16) 
rmg_rxn_1496

>  <mol_properties>  (16) 
{"0": {"label": "*1", "atom_type": "N3s"}, "1": {"label": "*0", "atom_type": "N3d"}, "3": {"label": "*2", "atom_type": "H0"}, "5": {"label": "*3", "atom_type": "Cs"}, "6": {"label": "*4", "atom_type": "Cs"}}

>  <type>  (16) 
unop_12

>  <geom_source>  (16) 
Heuristics

$$$$

     RDKit          3D

 14 12  0  0  0  0  0  0  0  0999 V2000
   -0.2860   -1.1557    1.1275 N   0  0  0  0  0  0  0  0  0  0  0  0
   -0.2860   -2.3585    0.5828 N   0  0  0  0  0  0  0  0  0  0  0  0
   -0.2860   -2.3585   -0.6217 O   0  0  0  0  0  0  0  0  0  0  0  0
   -0.2860   -0.1731    0.4123 H   0  0  0  0  0  0  0  0  0  0  0  0
   -0.2860   -1.1094    2.1296 H   0  0  0  0  0  0  0  0  0  0  0  0
   -0.2860    0.8764   -0.3516 C   0  0  0  0  0  2  0  0  0  0  0  0
    0.8172    1.8660   -0.2841 C   0  0  0  0  0  0  0  0  0  0  0  0
    0.3689    3.3002   -0.5435 C   0  0  0  0  0  0  0  0  0  0  0  0
   -1.3193    1.1911   -0.2801 H   0  0  0  0  0  0  0  0  0  0  0  0
    1.3003    1.8141    0.7037 H   0  0  0  0  0  0  0  0  0  0  0  0
    1.6061    1.5882   -0.9931 H   0  0  0  0  0  0  0  0  0  0  0  0
   -0.3888    3.6065    0.1810 H   0  0  0  0  0  0  0  0  0  0  0  0
   -0.0643    3.3982   -1.5406 H   0  0  0  0  0  0  0  0  0  0  0  0
    1.2054    3.9964   -0.4683 H   0  0  0  0  0  0  0  0  0  0  0  0
  1  2  1  0
  1  4  1  0
  1  5  1  0
  2  3  2  0
  6  7  1  0
  6  9  1  0
  7  8  1  0
  7 10  1  0
  7 11  1  0
  8 12  1  0
  8 13  1  0
  8 14  1  0
M  RAD  1   6   3
M  END
>  <reaction>  (17) 
rmg_rxn_1496

>  <mol_properties>  (17) 
{"0": {"label": "*1", "atom_type": "N3s"}, "1": {"label": "*0", "atom_type": "N3d"}, "3": {"label": "*2", "atom_type": "H0"}, "5": {"label": "*3", "atom_type": "Cs"}, "6": {"label": "*4", "atom_type": "Cs"}}

>  <type>  (17) 
unop_13

>  <geom_source>  (17) 
Heuristics

$$$$

     RDKit          3D

 14 12  0  0  0  0  0  0  0  0999 V2000
    0.4390   -1.0417    1.2049 N   0  0  0  0  0  0  0  0  0  0  0  0
    0.4390   -2.2445    0.6601 N   0  0  0  0  0  0  0  0  0  0  0  0
    0.4390   -2.2445   -0.5444 O   0  0  0  0  0  0  0  0  0  0  0  0
    0.4390   -0.0591    0.4897 H   0  0  0  0  0  0  0  0  0  0  0  0
    0.4390   -0.9953    2.2070 H   0  0  0  0  0  0  0  0  0  0  0  0
    0.4390    0.9905   -0.2743 C   0  0  0  0  0  2  0  0  0  0  0  0
   -0.8349    1.6052   -0.7217 C   0  0  0  0  0  0  0  0  0  0  0  0
   -0.9343    3.0961   -0.4175 C   0  0  0  0  0  0  0  0  0  0  0  0
    1.3028    1.6034   -0.0502 H   0  0  0  0  0  0  0  0  0  0  0  0
   -0.9594    1.4508   -1.8045 H   0  0  0  0  0  0  0  0  0  0  0  0
   -1.6802    1.0750   -0.2673 H   0  0  0  0  0  0  0  0  0  0  0  0
   -0.1211    3.6448   -0.8975 H   0  0  0  0  0  0  0  0  0  0  0  0
   -0.8715    3.2791    0.6568 H   0  0  0  0  0  0  0  0  0  0  0  0
   -1.8769    3.5116   -0.7767 H   0  0  0  0  0  0  0  0  0  0  0  0
  1  2  1  0
  1  4  1  0
  1  5  1  0
  2  3  2  0
  6  7  1  0
  6  9  1  0
  7  8  1  0
  7 10  1  0
  7 11  1  0
  8 12  1  0
  8 13  1  0
  8 14  1  0
M  RAD  1   6   3
M  END
>  <reaction>  (18) 
rmg_rxn_1496

>  <mol_properties>  (18) 
{"0": {"label": "*1", "atom_type": "N3s"}, "1": {"label": "*0", "atom_type": "N3d"}, "3": {"label": "*2", "atom_type": "H0"}, "5": {"label": "*3", "atom_type": "Cs"}, "6": {"label": "*4", "atom_type": "Cs"}}

>  <type>  (18) 
unop_14

>  <geom_source>  (18) 
Heuristics

$$$$

     RDKit          3D

 14 12  0  0  0  0  0  0  0  0999 V2000
    1.2302    1.0173    0.2049 N   0  0  0  0  0  0  0  0  0  0  0  0
    1.9344   -0.0064    0.0118 N   0  0  0  0  0  0  0  0  0  0  0  0
    1.4788   -1.0971   -0.2605 O   0  0  0  0  0  0  0  0  0  0  0  0
    0.0095    1.1364    0.3120 H   0  0  0  0  0  0  0  0  0  0  0  0
    1.7499    1.8564    0.4317 H   0  0  0  0  0  0  0  0  0  0  0  0
   -1.2510    1.2907    0.0540 C   0  0  0  0  0  2  0  0  0  0  0  0
   -1.9742    0.0890   -0.3829 C   0  0  0  0  0  0  0  0  0  0  0  0
   -1.6572   -1.1727    0.4066 C   0  0  0  0  0  0  0  0  0  0  0  0
   -1.3920    2.1112   -0.6603 H   0  0  0  0  0  0  0  0  0  0  0  0
   -3.0285    0.3656   -0.2253 H   0  0  0  0  0  0  0  0  0  0  0  0
   -1.8926   -0.1073   -1.4628 H   0  0  0  0  0  0  0  0  0  0  0  0
   -0.6413   -1.5009    0.1882 H   0  0  0  0  0  0  0  0  0  0  0  0
   -2.3409   -1.9756    0.1410 H   0  0  0  0  0  0  0  0  0  0  0  0
   -1.7349   -0.9846    1.4746 H   0  0  0  0  0  0  0  0  0  0  0  0
  1  2  1  0
  1  4  1  0
  1  5  1  0
  2  3  2  0
  6  7  1  0
  6  9  1  0
  7  8  1  0
  7 10  1  0
  7 11  1  0
  8 12  1  0
  8 13  1  0
  8 14  1  0
M  RAD  1   6   3
M  END
>  <reaction>  (19) 
rmg_rxn_1496

>  <mol_properties>  (19) 
{"0": {"label": "*1", "atom_type": "N3s"}, "1": {"label": "*0", "atom_type": "N3d"}, "3": {"label": "*2", "atom_type": "H0"}, "5": {"label": "*3", "atom_type": "Cs"}, "6": {"label": "*4", "atom_type": "Cs"}}

>  <type>  (19) 
unop_15

>  <geom_source>  (19) 
Heuristics

$$$$

     RDKit          3D

 14 12  0  0  0  0  0  0  0  0999 V2000
   -0.2209   -0.8024    1.6737 N   0  0  0  0  0  0  0  0  0  0  0  0
   -0.2209   -2.0052    1.1289 N   0  0  0  0  0  0  0  0  0  0  0  0
   -0.2209   -2.0052   -0.0756 O   0  0  0  0  0  0  0  0  0  0  0  0
   -0.2209    0.1803    0.9585 H   0  0  0  0  0  0  0  0  0  0  0  0
   -0.2209   -0.7560    2.6758 H   0  0  0  0  0  0  0  0  0  0  0  0
   -0.2209    1.2298    0.1946 C   0  0  0  0  0  2  0  0  0  0  0  0
    0.4160    1.1953   -1.1448 C   0  0  0  0  0  0  0  0  0  0  0  0
    0.4523    2.5521   -1.8397 C   0  0  0  0  0  0  0  0  0  0  0  0
   -0.3493    2.1650    0.7245 H   0  0  0  0  0  0  0  0  0  0  0  0
    1.4434    0.8101   -1.0557 H   0  0  0  0  0  0  0  0  0  0  0  0
   -0.0994    0.4651   -1.7799 H   0  0  0  0  0  0  0  0  0  0  0  0
    0.9984    3.2816   -1.2376 H   0  0  0  0  0  0  0  0  0  0  0  0
   -0.5573    2.9370   -1.9950 H   0  0  0  0  0  0  0  0  0  0  0  0
    0.9424    2.4862   -2.8121 H   0  0  0  0  0  0  0  0  0  0  0  0
  1  2  1  0
  1  4  1  0
  1  5  1  0
  2  3  2  0
  6  7  1  0
  6  9  1  0
  7  8  1  0
  7 10  1  0
  7 11  1  0
  8 12  1  0
  8 13  1  0
  8 14  1  0
M  RAD  1   6   3
M  END
>  <reaction>  (20) 
rmg_rxn_1496

>  <mol_properties>  (20) 
{"0": {"label": "*1", "atom_type": "N3s"}, "1": {"label": "*0", "atom_type": "N3d"}, "3": {"label": "*2", "atom_type": "H0"}, "5": {"label": "*3", "atom_type": "Cs"}, "6": {"label": "*4", "atom_type": "Cs"}}

>  <type>  (20) 
unop_16

>  <geom_source>  (20) 
Heuristics

$$$$

     RDKit          3D

 14 12  0  0  0  0  0  0  0  0999 V2000
    0.4512   -0.9088    1.4324 N   0  0  0  0  0  0  0  0  0  0  0  0
    0.4512   -2.1116    0.8877 N   0  0  0  0  0  0  0  0  0  0  0  0
    0.4512   -2.1116   -0.3168 O   0  0  0  0  0  0  0  0  0  0  0  0
    0.4512    0.0738    0.7172 H   0  0  0  0  0  0  0  0  0  0  0  0
    0.4512   -0.8625    2.4345 H   0  0  0  0  0  0  0  0  0  0  0  0
    0.4512    1.1233   -0.0467 C   0  0  0  0  0  2  0  0  0  0  0  0
   -0.6520    1.3633   -1.0091 C   0  0  0  0  0  0  0  0  0  0  0  0
   -1.1444    2.8063   -1.0274 C   0  0  0  0  0  0  0  0  0  0  0  0
    1.0307    1.9470    0.3504 H   0  0  0  0  0  0  0  0  0  0  0  0
   -0.3261    1.0824   -2.0224 H   0  0  0  0  0  0  0  0  0  0  0  0
   -1.4869    0.6874   -0.7895 H   0  0  0  0  0  0  0  0  0  0  0  0
   -0.3325    3.4897   -1.2851 H   0  0  0  0  0  0  0  0  0  0  0  0
   -1.5285    3.0988   -0.0485 H   0  0  0  0  0  0  0  0  0  0  0  0
   -1.9425    2.9432   -1.7585 H   0  0  0  0  0  0  0  0  0  0  0  0
  1  2  1  0
  1  4  1  0
  1  5  1  0
  2  3  2  0
  6  7  1  0
  6  9  1  0
  7  8  1  0
  7 10  1  0
  7 11  1  0
  8 12  1  0
  8 13  1  0
  8 14  1  0
M  RAD  1   6   3
M  END
>  <reaction>  (21) 
rmg_rxn_1496

>  <mol_properties>  (21) 
{"0": {"label": "*1", "atom_type": "N3s"}, "1": {"label": "*0", "atom_type": "N3d"}, "3": {"label": "*2", "atom_type": "H0"}, "5": {"label": "*3", "atom_type": "Cs"}, "6": {"label": "*4", "atom_type": "Cs"}}

>  <type>  (21) 
unop_17

>  <geom_source>  (21) 
Heuristics

$$$$

     RDKit          3D

 14 12  0  0  0  0  0  0  0  0999 V2000
   -0.1071   -1.2127    1.0763 N   0  0  0  0  0  0  0  0  0  0  0  0
   -0.1071   -2.4155    0.5315 N   0  0  0  0  0  0  0  0  0  0  0  0
   -0.1071   -2.4155   -0.6730 O   0  0  0  0  0  0  0  0  0  0  0  0
   -0.1071   -0.2301    0.3611 H   0  0  0  0  0  0  0  0  0  0  0  0
   -0.1071   -1.1664    2.0784 H   0  0  0  0  0  0  0  0  0  0  0  0
   -0.1071    0.8194   -0.4028 C   0  0  0  0  0  2  0  0  0  0  0  0
    0.5298    2.0834    0.0417 C   0  0  0  0  0  0  0  0  0  0  0  0
   -0.0445    3.3264   -0.6293 C   0  0  0  0  0  0  0  0  0  0  0  0
   -1.0680    0.8272   -0.9013 H   0  0  0  0  0  0  0  0  0  0  0  0
    0.4275    2.1849    1.1331 H   0  0  0  0  0  0  0  0  0  0  0  0
    1.6113    2.0325   -0.1315 H   0  0  0  0  0  0  0  0  0  0  0  0
   -1.1151    3.4138   -0.4320 H   0  0  0  0  0  0  0  0  0  0  0  0
    0.0928    3.2831   -1.7113 H   0  0  0  0  0  0  0  0  0  0  0  0
    0.4389    4.2333   -0.2632 H   0  0  0  0  0  0  0  0  0  0  0  0
  1  2  1  0
  1  4  1  0
  1  5  1  0
  2  3  2  0
  6  7  1  0
  6  9  1  0
  7  8  1  0
  7 10  1  0
  7 11  1  0
  8 12  1  0
  8 13  1  0
  8 14  1  0
M  RAD  1   6   3
M  END
>  <reaction>  (22) 
rmg_rxn_1496

>  <mol_properties>  (22) 
{"0": {"label": "*1", "atom_type": "N3s"}, "1": {"label": "*0", "atom_type": "N3d"}, "3": {"label": "*2", "atom_type": "H0"}, "5": {"label": "*3", "atom_type": "Cs"}, "6": {"label": "*4", "atom_type": "Cs"}}

>  <type>  (22) 
unop_18

>  <geom_source>  (22) 
Heuristics

$$$$

     RDKit          3D

 14 12  0  0  0  0  0  0  0  0999 V2000
    0.0466   -0.7602    1.7278 N   0  0  0  0  0  0  0  0  0  0  0  0
    0.0466   -1.9630    1.1831 N   0  0  0  0  0  0  0  0  0  0  0  0
    0.0466   -1.9630   -0.0214 O   0  0  0  0  0  0  0  0  0  0  0  0
    0.0466    0.2224    1.0126 H   0  0  0  0  0  0  0  0  0  0  0  0
    0.0466   -0.7139    2.7299 H   0  0  0  0  0  0  0  0  0  0  0  0
    0.0466    1.2719    0.2487 C   0  0  0  0  0  2  0  0  0  0  0  0
    0.0466    1.1371   -1.2287 C   0  0  0  0  0  0  0  0  0  0  0  0
   -0.2350    2.4440   -1.9620 C   0  0  0  0  0  0  0  0  0  0  0  0
    0.1474    2.2424    0.7177 H   0  0  0  0  0  0  0  0  0  0  0  0
    1.0171    0.7396   -1.5635 H   0  0  0  0  0  0  0  0  0  0  0  0
   -0.6831    0.3761   -1.5298 H   0  0  0  0  0  0  0  0  0  0  0  0
    0.5082    3.2014   -1.7037 H   0  0  0  0  0  0  0  0  0  0  0  0
   -1.2179    2.8364   -1.6944 H   0  0  0  0  0  0  0  0  0  0  0  0
   -0.2096    2.3047   -3.0437 H   0  0  0  0  0  0  0  0  0  0  0  0
  1  2  1  0
  1  4  1  0
  1  5  1  0
  2  3  2  0
  6  7  1  0
  6  9  1  0
  7  8  1  0
  7 10  1  0
  7 11  1  0
  8 12  1  0
  8 13  1  0
  8 14  1  0
M  RAD  1   6   3
M  END
>  <reaction>  (23) 
rmg_rxn_1496

>  <mol_properties>  (23) 
{"0": {"label": "*1", "atom_type": "N3s"}, "1": {"label": "*0", "atom_type": "N3d"}, "3": {"label": "*2", "atom_type": "H0"}, "5": {"label": "*3", "atom_type": "Cs"}, "6": {"label": "*4", "atom_type": "Cs"}}

>  <type>  (23) 
unop_19

>  <geom_source>  (23) 
Heuristics

$$$$

     RDKit          3D

 14 12  0  0  0  0  0  0  0  0999 V2000
    0.3050   -0.8013    1.6337 N   0  0  0  0  0  0  0  0  0  0  0  0
    0.3050   -2.0041    1.0889 N   0  0  0  0  0  0  0  0  0  0  0  0
    0.3050   -2.0041   -0.1156 O   0  0  0  0  0  0  0  0  0  0  0  0
    0.3050    0.1814    0.9184 H   0  0  0  0  0  0  0  0  0  0  0  0
    0.3050   -0.7549    2.6357 H   0  0  0  0  0  0  0  0  0  0  0  0
    0.3050    1.2309    0.1545 C   0  0  0  0  0  2  0  0  0  0  0  0
   -0.3319    1.1964   -1.1849 C   0  0  0  0  0  0  0  0  0  0  0  0
   -0.8768    2.5466   -1.6377 C   0  0  0  0  0  0  0  0  0  0  0  0
    0.6155    2.1685    0.5978 H   0  0  0  0  0  0  0  0  0  0  0  0
    0.3932    0.8339   -1.9297 H   0  0  0  0  0  0  0  0  0  0  0  0
   -1.1342    0.4491   -1.1929 H   0  0  0  0  0  0  0  0  0  0  0  0
   -0.0807    3.2934   -1.6743 H   0  0  0  0  0  0  0  0  0  0  0  0
   -1.6420    2.9085   -0.9485 H   0  0  0  0  0  0  0  0  0  0  0  0
   -1.3209    2.4813   -2.6320 H   0  0  0  0  0  0  0  0  0  0  0  0
  1  2  1  0
  1  4  1  0
  1  5  1  0
  2  3  2  0
  6  7  1  0
  6  9  1  0
  7  8  1  0
  7 10  1  0
  7 11  1  0
  8 12  1  0
  8 13  1  0
  8 14  1  0
M  RAD  1   6   3
M  END
>  <reaction>  (24) 
rmg_rxn_1496

>  <mol_properties>  (24) 
{"0": {"label": "*1", "atom_type": "N3s"}, "1": {"label": "*0", "atom_type": "N3d"}, "3": {"label": "*2", "atom_type": "H0"}, "5": {"label": "*3", "atom_type": "Cs"}, "6": {"label": "*4", "atom_type": "Cs"}}

>  <type>  (24) 
unop_20

>  <geom_source>  (24) 
gaussian_log

$$$$
