
     RDKit          3D

 10  9  0  0  0  0  0  0  0  0999 V2000
    2.0403   -0.0578    0.0120 C   0  0  0  0  0  0  0  0  0  0  0  0
    0.5945   -0.0169    0.1897 C   0  0  0  0  0  0  0  0  0  0  0  0
   -0.5945    0.0168    0.3359 C   0  0  0  0  0  0  0  0  0  0  0  0
   -2.0403    0.0578    0.5138 C   0  0  0  0  0  0  0  0  0  0  0  0
    2.4740    0.9380    0.1187 H   0  0  0  0  0  0  0  0  0  0  0  0
    2.3003   -0.4346   -0.9787 H   0  0  0  0  0  0  0  0  0  0  0  0
    2.5055   -0.7095    0.7535 H   0  0  0  0  0  0  0  0  0  0  0  0
   -2.3744    1.0682    0.7554 H   0  0  0  0  0  0  0  0  0  0  0  0
   -2.3518   -0.6033    1.3243 H   0  0  0  0  0  0  0  0  0  0  0  0
   -2.5536   -0.2588   -0.3958 H   0  0  0  0  0  0  0  0  0  0  0  0
  1  2  1  0
  1  5  1  0
  1  6  1  0
  1  7  1  0
  2  3  3  0
  3  4  1  0
  4  8  1  0
  4  9  1  0
  4 10  1  0
M  END
>  <reaction>  (1) 
rmg_rxn_15391

>  <mol_properties>  (1) 
{"3": {"label": "donator", "atom_type": "Cs"}, "9": {"label": "d_hydrogen", "atom_type": "H0"}}

>  <type>  (1) 
r1h

$$$$

     RDKit          3D

  5  4  0  0  0  0  0  0  0  0999 V2000
    0.8934    0.3742    0.4948 O   0  0  0  0  0  0  0  0  0  0  0  0
    0.1582   -0.1610   -0.5904 N   0  0  0  0  0  0  0  0  0  0  0  0
   -1.0297   -0.3739   -0.4689 C   0  0  0  0  0  3  0  0  0  0  0  0
    1.7804    0.4382    0.1306 H   0  0  0  0  0  0  0  0  0  0  0  0
   -1.8023   -0.2775    0.2859 H   0  0  0  0  0  0  0  0  0  0  0  0
  1  2  1  0
  1  4  1  0
  2  3  2  3
  3  5  1  0
M  RAD  1   3   2
M  END
>  <reaction>  (2) 
rmg_rxn_15391

>  <mol_properties>  (2) 
{"2": {"label": "acceptor", "atom_type": "Cd"}}

>  <type>  (2) 
r2

$$$$

     RDKit          3D

  6  5  0  0  0  0  0  0  0  0999 V2000
    1.2314    0.0428    0.5088 O   0  0  0  0  0  0  0  0  0  0  0  0
    0.2987    0.2341   -0.4915 N   0  0  0  0  0  0  0  0  0  0  0  0
   -0.8599   -0.1122   -0.1290 C   0  0  0  0  0  0  0  0  0  0  0  0
    2.0507    0.3401    0.1082 H   0  0  0  0  0  0  0  0  0  0  0  0
   -1.0700   -0.5112    0.8610 H   0  0  0  0  0  0  0  0  0  0  0  0
   -1.6509    0.0064   -0.8574 H   0  0  0  0  0  0  0  0  0  0  0  0
  1  2  1  0
  1  4  1  0
  2  3  2  3
  3  5  1  0
  3  6  1  0
M  END
>  <reaction>  (3) 
rmg_rxn_15391

>  <mol_properties>  (3) 
{"2": {"label": "acceptor", "atom_type": "Cd"}, "5": {"label": "a_hydrogen", "atom_type": "H0"}}

>  <type>  (3) 
r2h

$$$$

     RDKit          3D

 15 13  0  0  0  0  0  0  0  0999 V2000
   -0.6321    2.3714    2.9514 O   0  0  0  0  0  0  0  0  0  0  0  0
   -0.3729    1.0917    2.4412 N   0  0  0  0  0  0  0  0  0  0  0  0
   -0.2310    1.0447    1.2112 C   0  0  0  0  0  3  0  0  0  0  0  0
   -0.7096    2.2105    3.8947 H   0  0  0  0  0  0  0  0  0  0  0  0
   -0.2778    1.8453    0.4739 H   0  0  0  0  0  0  0  0  0  0  0  0
    0.6720   -1.2003   -3.7886 C   0  0  0  0  0  0  0  0  0  0  0  0
    0.5291   -1.2948   -2.3430 C   0  0  0  0  0  0  0  0  0  0  0  0
    0.4139   -1.3895   -1.1500 C   0  0  0  0  0  0  0  0  0  0  0  0
    0.2670   -1.4427    0.2729 C   0  0  0  0  0  0  0  0  0  0  0  0
    1.6602   -1.5383   -4.1048 H   0  0  0  0  0  0  0  0  0  0  0  0
    0.5448   -0.1695   -4.1248 H   0  0  0  0  0  0  0  0  0  0  0  0
   -0.0753   -1.8142   -4.2943 H   0  0  0  0  0  0  0  0  0  0  0  0
    1.1717   -1.7351    0.8035 H   0  0  0  0  0  0  0  0  0  0  0  0
   -0.5950   -2.0161    0.6105 H   0  0  0  0  0  0  0  0  0  0  0  0
    0.0380   -0.2905    0.6915 H   0  0  0  0  0  0  0  0  0  0  0  0
  1  2  1  0
  1  4  1  0
  2  3  2  3
  3  5  1  0
  6  7  1  0
  6 10  1  0
  6 11  1  0
  6 12  1  0
  7  8  3  0
  8  9  1  0
  9 13  1  0
  9 14  1  0
  9 15  1  0
M  RAD  1   3   2
M  END
>  <reaction>  (4) 
rmg_rxn_15391

>  <mol_properties>  (4) 
{"1": {"label": "*4", "atom_type": "N3d"}, "2": {"label": "*3", "atom_type": "Cd"}, "7": {"label": "*0", "atom_type": "Ct"}, "8": {"label": "*1", "atom_type": "Cs"}, "14": {"label": "*2", "atom_type": "H0"}}

>  <type>  (4) 
ts

$$$$

     RDKit          3D

 15 13  0  0  0  0  0  0  0  0999 V2000
   -3.7551    0.5866    0.0024 O   0  0  0  0  0  0  0  0  0  0  0  0
   -2.5818   -0.1930    0.0049 N   0  0  0  0  0  0  0  0  0  0  0  0
   -1.4745    0.3624   -0.0103 C   0  0  0  0  0  0  0  0  0  0  0  0
   -4.4734   -0.0608    0.0163 H   0  0  0  0  0  0  0  0  0  0  0  0
   -1.2359    1.4193   -0.0262 H   0  0  0  0  0  0  0  0  0  0  0  0
    3.9189    0.8878    0.0026 C   0  0  0  0  0  0  0  0  0  0  0  0
    2.7092    0.0988    0.0011 C   0  0  0  0  0  3  0  0  0  0  0  0
    1.7243   -0.6026    0.0001 C   0  0  0  0  0  0  0  0  0  0  0  0
    0.5309   -1.3345   -0.0017 C   0  0  0  0  0  0  0  0  0  0  0  0
    3.9558    1.5166    0.8926 H   0  0  0  0  0  0  0  0  0  0  0  0
    3.9540    1.5227   -0.8831 H   0  0  0  0  0  0  0  0  0  0  0  0
    4.7939    0.2358   -0.0006 H   0  0  0  0  0  0  0  0  0  0  0  0
    0.3400   -1.8980    0.9047 H   0  0  0  0  0  0  0  0  0  0  0  0
    0.3449   -1.9016   -0.9068 H   0  0  0  0  0  0  0  0  0  0  0  0
   -0.4818   -0.4548   -0.0061 H   0  0  0  0  0  0  0  0  0  0  0  0
  1  2  1  0
  1  4  1  0
  2  3  2  3
  3  5  1  0
  3 15  1  0
  6  7  1  0
  6 10  1  0
  6 11  1  0
  6 12  1  0
  7  8  2  0
  8  9  2  0
  9 13  1  0
  9 14  1  0
M  RAD  1   7   2
M  END
>  <reaction>  (5) 
rmg_rxn_15391

>  <mol_properties>  (5) 
{"1": {"label": "*4", "atom_type": "N3d"}, "2": {"label": "*3", "atom_type": "Cd"}, "7": {"label": "*0", "atom_type": "Ct"}, "8": {"label": "*1", "atom_type": "Cs"}, "14": {"label": "*2", "atom_type": "H0"}}

>  <type>  (5) 
unop_1

>  <geom_source>  (5) 
crest_best.xyz

$$$$

     RDKit          3D

 15 13  0  0  0  0  0  0  0  0999 V2000
   -0.7015    2.0703    3.0500 O   0  0  0  0  0  0  0  0  0  0  0  0
   -0.9721    1.2873    1.9451 N   0  0  0  0  0  0  0  0  0  0  0  0
    0.0467    1.1312    1.2163 C   0  0  0  0  0  0  0  0  0  0  0  0
   -1.5437    2.1073    3.5075 H   0  0  0  0  0  0  0  0  0  0  0  0
    1.0118    1.5731    1.4546 H   0  0  0  0  0  0  0  0  0  0  0  0
    0.4596   -1.2698   -3.8271 C   0  0  0  0  0  0  0  0  0  0  0  0
    0.4596   -1.2698   -2.3699 C   0  0  0  0  0  3  0  0  0  0  0  0
    0.4596   -1.2698   -1.1714 C   0  0  0  0  0  0  0  0  0  0  0  0
    0.4596   -1.2698    0.2859 C   0  0  0  0  0  0  0  0  0  0  0  0
    1.4296   -1.5838   -4.2164 H   0  0  0  0  0  0  0  0  0  0  0  0
    0.2466   -0.2727   -4.2165 H   0  0  0  0  0  0  0  0  0  0  0  0
   -0.2973   -1.9527   -4.2164 H   0  0  0  0  0  0  0  0  0  0  0  0
    1.4162   -1.6225    0.6752 H   0  0  0  0  0  0  0  0  0  0  0  0
   -0.3241   -1.9218    0.6752 H   0  0  0  0  0  0  0  0  0  0  0  0
    0.2523   -0.0640    0.7531 H   0  0  0  0  0  0  0  0  0  0  0  0
  1  2  1  0
  1  4  1  0
  2  3  2  3
  3  5  1  0
  3 15  1  0
  6  7  1  0
  6 10  1  0
  6 11  1  0
  6 12  1  0
  7  8  2  0
  8  9  2  0
  9 13  1  0
  9 14  1  0
M  RAD  1   7   2
M  END
>  <reaction>  (6) 
rmg_rxn_15391

>  <mol_properties>  (6) 
{"1": {"label": "*4", "atom_type": "N3d"}, "2": {"label": "*3", "atom_type": "Cd"}, "7": {"label": "*0", "atom_type": "Ct"}, "8": {"label": "*1", "atom_type": "Cs"}, "14": {"label": "*2", "atom_type": "H0"}}

>  <type>  (6) 
unop_2

>  <geom_source>  (6) 
Heuristics

$$$$

     RDKit          3D

 15 13  0  0  0  0  0  0  0  0999 V2000
    3.7526    0.5895   -0.0017 O   0  0  0  0  0  0  0  0  0  0  0  0
    2.5812   -0.1930   -0.0027 N   0  0  0  0  0  0  0  0  0  0  0  0
    1.4726    0.3598    0.0064 C   0  0  0  0  0  0  0  0  0  0  0  0
    4.4726   -0.0562   -0.0098 H   0  0  0  0  0  0  0  0  0  0  0  0
    1.2314    1.4162    0.0156 H   0  0  0  0  0  0  0  0  0  0  0  0
   -3.9148    0.8914   -0.0016 C   0  0  0  0  0  0  0  0  0  0  0  0
   -2.7071    0.0996   -0.0004 C   0  0  0  0  0  3  0  0  0  0  0  0
   -1.7242   -0.6047   -0.0005 C   0  0  0  0  0  0  0  0  0  0  0  0
   -0.5318   -1.3383    0.0010 C   0  0  0  0  0  0  0  0  0  0  0  0
   -3.9373    1.5429    0.8725 H   0  0  0  0  0  0  0  0  0  0  0  0
   -4.7912    0.2419    0.0249 H   0  0  0  0  0  0  0  0  0  0  0  0
   -3.9614    1.5036   -0.9026 H   0  0  0  0  0  0  0  0  0  0  0  0
   -0.3423   -1.9029   -0.9049 H   0  0  0  0  0  0  0  0  0  0  0  0
   -0.3457   -1.9047    0.9066 H   0  0  0  0  0  0  0  0  0  0  0  0
    0.4813   -0.4591    0.0038 H   0  0  0  0  0  0  0  0  0  0  0  0
  1  2  1  0
  1  4  1  0
  2  3  2  3
  3  5  1  0
  3 15  1  0
  6  7  1  0
  6 10  1  0
  6 11  1  0
  6 12  1  0
  7  8  2  0
  8  9  2  0
  9 13  1  0
  9 14  1  0
M  RAD  1   7   2
M  END
>  <reaction>  (7) 
rmg_rxn_15391

>  <mol_properties>  (7) 
{"1": {"label": "*4", "atom_type": "N3d"}, "2": {"label": "*3", "atom_type": "Cd"}, "7": {"label": "*0", "atom_type": "Ct"}, "8": {"label": "*1", "atom_type": "Cs"}, "14": {"label": "*2", "atom_type": "H0"}}

>  <type>  (7) 
unop_3

>  <geom_source>  (7) 
Heuristics

$$$$

     RDKit          3D

 15 13  0  0  0  0  0  0  0  0999 V2000
    3.7518    0.5903    0.0037 O   0  0  0  0  0  0  0  0  0  0  0  0
    2.5810   -0.1930    0.0064 N   0  0  0  0  0  0  0  0  0  0  0  0
    1.4720    0.3591   -0.0146 C   0  0  0  0  0  0  0  0  0  0  0  0
    4.4721   -0.0547    0.0229 H   0  0  0  0  0  0  0  0  0  0  0  0
    1.2302    1.4152   -0.0362 H   0  0  0  0  0  0  0  0  0  0  0  0
   -3.9134    0.8927    0.0036 C   0  0  0  0  0  0  0  0  0  0  0  0
   -2.7064    0.0998    0.0011 C   0  0  0  0  0  3  0  0  0  0  0  0
   -1.7243   -0.6056    0.0001 C   0  0  0  0  0  0  0  0  0  0  0  0
   -0.5321   -1.3394   -0.0019 C   0  0  0  0  0  0  0  0  0  0  0  0
   -4.7828    0.2551    0.1716 H   0  0  0  0  0  0  0  0  0  0  0  0
   -4.0315    1.4007   -0.9539 H   0  0  0  0  0  0  0  0  0  0  0  0
   -3.8700    1.6381    0.7985 H   0  0  0  0  0  0  0  0  0  0  0  0
   -0.3478   -1.9082   -0.9063 H   0  0  0  0  0  0  0  0  0  0  0  0
   -0.3407   -1.9018    0.9050 H   0  0  0  0  0  0  0  0  0  0  0  0
    0.4811   -0.4602   -0.0088 H   0  0  0  0  0  0  0  0  0  0  0  0
  1  2  1  0
  1  4  1  0
  2  3  2  3
  3  5  1  0
  3 15  1  0
  6  7  1  0
  6 10  1  0
  6 11  1  0
  6 12  1  0
  7  8  2  0
  8  9  2  0
  9 13  1  0
  9 14  1  0
M  RAD  1   7   2
M  END
>  <reaction>  (8) 
rmg_rxn_15391

>  <mol_properties>  (8) 
{"1": {"label": "*4", "atom_type": "N3d"}, "2": {"label": "*3", "atom_type": "Cd"}, "7": {"label": "*0", "atom_type": "Ct"}, "8": {"label": "*1", "atom_type": "Cs"}, "14": {"label": "*2", "atom_type": "H0"}}

>  <type>  (8) 
unop_4

>  <geom_source>  (8) 
Heuristics

$$$$

     RDKit          3D

 15 13  0  0  0  0  0  0  0  0999 V2000
   -3.7524   -0.5897    0.0006 O   0  0  0  0  0  0  0  0  0  0  0  0
   -2.5812    0.1931    0.0013 N   0  0  0  0  0  0  0  0  0  0  0  0
   -1.4725   -0.3596   -0.0027 C   0  0  0  0  0  0  0  0  0  0  0  0
   -4.4725    0.0558    0.0043 H   0  0  0  0  0  0  0  0  0  0  0  0
   -1.2311   -1.4160   -0.0065 H   0  0  0  0  0  0  0  0  0  0  0  0
    3.9145   -0.8917    0.0007 C   0  0  0  0  0  0  0  0  0  0  0  0
    2.7067   -0.0999    0.0001 C   0  0  0  0  0  3  0  0  0  0  0  0
    1.7243    0.6050    0.0002 C   0  0  0  0  0  0  0  0  0  0  0  0
    0.5319    1.3386   -0.0004 C   0  0  0  0  0  0  0  0  0  0  0  0
    3.9549   -1.5141    0.8951 H   0  0  0  0  0  0  0  0  0  0  0  0
    4.7910   -0.2419   -0.0122 H   0  0  0  0  0  0  0  0  0  0  0  0
    3.9431   -1.5332   -0.8805 H   0  0  0  0  0  0  0  0  0  0  0  0
    0.3449    1.9047   -0.9060 H   0  0  0  0  0  0  0  0  0  0  0  0
    0.3434    1.9036    0.9055 H   0  0  0  0  0  0  0  0  0  0  0  0
   -0.4813    0.4594   -0.0018 H   0  0  0  0  0  0  0  0  0  0  0  0
  1  2  1  0
  1  4  1  0
  2  3  2  3
  3  5  1  0
  3 15  1  0
  6  7  1  0
  6 10  1  0
  6 11  1  0
  6 12  1  0
  7  8  2  0
  8  9  2  0
  9 13  1  0
  9 14  1  0
M  RAD  1   7   2
M  END
>  <reaction>  (9) 
rmg_rxn_15391

>  <mol_properties>  (9) 
{"1": {"label": "*4", "atom_type": "N3d"}, "2": {"label": "*3", "atom_type": "Cd"}, "7": {"label": "*0", "atom_type": "Ct"}, "8": {"label": "*1", "atom_type": "Cs"}, "14": {"label": "*2", "atom_type": "H0"}}

>  <type>  (9) 
unop_5

>  <geom_source>  (9) 
Heuristics

$$$$

     RDKit          3D

 15 13  0  0  0  0  0  0  0  0999 V2000
    3.7523   -0.5899    0.0051 O   0  0  0  0  0  0  0  0  0  0  0  0
    2.5812    0.1931    0.0096 N   0  0  0  0  0  0  0  0  0  0  0  0
    1.4726   -0.3591   -0.0209 C   0  0  0  0  0  0  0  0  0  0  0  0
    4.4723    0.0550    0.0328 H   0  0  0  0  0  0  0  0  0  0  0  0
    1.2315   -1.4152   -0.0525 H   0  0  0  0  0  0  0  0  0  0  0  0
   -3.9146   -0.8916    0.0053 C   0  0  0  0  0  0  0  0  0  0  0  0
   -2.7064   -0.1004    0.0019 C   0  0  0  0  0  3  0  0  0  0  0  0
   -1.7243    0.6050    0.0005 C   0  0  0  0  0  0  0  0  0  0  0  0
   -0.5320    1.3387   -0.0032 C   0  0  0  0  0  0  0  0  0  0  0  0
   -3.9403   -1.5411   -0.8702 H   0  0  0  0  0  0  0  0  0  0  0  0
   -4.7907   -0.2416   -0.0169 H   0  0  0  0  0  0  0  0  0  0  0  0
   -3.9585   -1.5059    0.9050 H   0  0  0  0  0  0  0  0  0  0  0  0
   -0.3390    1.9004    0.9038 H   0  0  0  0  0  0  0  0  0  0  0  0
   -0.3494    1.9082   -0.9076 H   0  0  0  0  0  0  0  0  0  0  0  0
    0.4814    0.4597   -0.0124 H   0  0  0  0  0  0  0  0  0  0  0  0
  1  2  1  0
  1  4  1  0
  2  3  2  3
  3  5  1  0
  3 15  1  0
  6  7  1  0
  6 10  1  0
  6 11  1  0
  6 12  1  0
  7  8  2  0
  8  9  2  0
  9 13  1  0
  9 14  1  0
M  RAD  1   7   2
M  END
>  <reaction>  (10) 
rmg_rxn_15391

>  <mol_properties>  (10) 
{"1": {"label": "*4", "atom_type": "N3d"}, "2": {"label": "*3", "atom_type": "Cd"}, "7": {"label": "*0", "atom_type": "Ct"}, "8": {"label": "*1", "atom_type": "Cs"}, "14": {"label": "*2", "atom_type": "H0"}}

>  <type>  (10) 
unop_6

>  <geom_source>  (10) 
Heuristics

$$$$

     RDKit          3D

 15 13  0  0  0  0  0  0  0  0999 V2000
   -1.1088    2.7248    1.7522 O   0  0  0  0  0  0  0  0  0  0  0  0
   -0.6214    1.6540    1.0293 N   0  0  0  0  0  0  0  0  0  0  0  0
    0.0834    0.8857    1.7409 C   0  0  0  0  0  0  0  0  0  0  0  0
   -1.6162    3.2176    1.1043 H   0  0  0  0  0  0  0  0  0  0  0  0
    0.2685    1.0699    2.7970 H   0  0  0  0  0  0  0  0  0  0  0  0
    0.4964   -1.5153   -3.3025 C   0  0  0  0  0  0  0  0  0  0  0  0
    0.4964   -1.5153   -1.8452 C   0  0  0  0  0  3  0  0  0  0  0  0
    0.4964   -1.5153   -0.6467 C   0  0  0  0  0  0  0  0  0  0  0  0
    0.4964   -1.5153    0.8105 C   0  0  0  0  0  0  0  0  0  0  0  0
    1.4663   -1.8293   -3.6918 H   0  0  0  0  0  0  0  0  0  0  0  0
    0.2834   -0.5183   -3.6918 H   0  0  0  0  0  0  0  0  0  0  0  0
   -0.2605   -2.1982   -3.6918 H   0  0  0  0  0  0  0  0  0  0  0  0
    1.4530   -1.8680    1.1999 H   0  0  0  0  0  0  0  0  0  0  0  0
   -0.2873   -2.1673    1.1998 H   0  0  0  0  0  0  0  0  0  0  0  0
    0.2890   -0.3096    1.2778 H   0  0  0  0  0  0  0  0  0  0  0  0
  1  2  1  0
  1  4  1  0
  2  3  2  3
  3  5  1  0
  3 15  1  0
  6  7  1  0
  6 10  1  0
  6 11  1  0
  6 12  1  0
  7  8  2  0
  8  9  2  0
  9 13  1  0
  9 14  1  0
M  RAD  1   7   2
M  END
>  <reaction>  (11) 
rmg_rxn_15391

>  <mol_properties>  (11) 
{"1": {"label": "*4", "atom_type": "N3d"}, "2": {"label": "*3", "atom_type": "Cd"}, "7": {"label": "*0", "atom_type": "Ct"}, "8": {"label": "*1", "atom_type": "Cs"}, "14": {"label": "*2", "atom_type": "H0"}}

>  <type>  (11) 
unop_7

>  <geom_source>  (11) 
Heuristics

$$$$

     RDKit          3D

 15 13  0  0  0  0  0  0  0  0999 V2000
    3.7532    0.5888   -0.0029 O   0  0  0  0  0  0  0  0  0  0  0  0
    2.5814   -0.1930   -0.0053 N   0  0  0  0  0  0  0  0  0  0  0  0
    1.4731    0.3603    0.0117 C   0  0  0  0  0  0  0  0  0  0  0  0
    4.4728   -0.0571   -0.0183 H   0  0  0  0  0  0  0  0  0  0  0  0
    1.2325    1.4167    0.0297 H   0  0  0  0  0  0  0  0  0  0  0  0
   -3.9161    0.8903   -0.0030 C   0  0  0  0  0  0  0  0  0  0  0  0
   -2.7073    0.0999   -0.0005 C   0  0  0  0  0  3  0  0  0  0  0  0
   -1.7243   -0.6042    0.0000 C   0  0  0  0  0  0  0  0  0  0  0  0
   -0.5316   -1.3373    0.0015 C   0  0  0  0  0  0  0  0  0  0  0  0
   -4.0571    1.3648    0.9683 H   0  0  0  0  0  0  0  0  0  0  0  0
   -4.7797    0.2572   -0.2127 H   0  0  0  0  0  0  0  0  0  0  0  0
   -3.8569    1.6627   -0.7706 H   0  0  0  0  0  0  0  0  0  0  0  0
   -0.3410   -1.9004   -0.9052 H   0  0  0  0  0  0  0  0  0  0  0  0
   -0.3464   -1.9054    0.9062 H   0  0  0  0  0  0  0  0  0  0  0  0
    0.4815   -0.4582    0.0068 H   0  0  0  0  0  0  0  0  0  0  0  0
  1  2  1  0
  1  4  1  0
  2  3  2  3
  3  5  1  0
  3 15  1  0
  6  7  1  0
  6 10  1  0
  6 11  1  0
  6 12  1  0
  7  8  2  0
  8  9  2  0
  9 13  1  0
  9 14  1  0
M  RAD  1   7   2
M  END
>  <reaction>  (12) 
rmg_rxn_15391

>  <mol_properties>  (12) 
{"1": {"label": "*4", "atom_type": "N3d"}, "2": {"label": "*3", "atom_type": "Cd"}, "7": {"label": "*0", "atom_type": "Ct"}, "8": {"label": "*1", "atom_type": "Cs"}, "14": {"label": "*2", "atom_type": "H0"}}

>  <type>  (12) 
unop_8

>  <geom_source>  (12) 
Heuristics

$$$$

     RDKit          3D

 15 13  0  0  0  0  0  0  0  0999 V2000
   -0.2717    2.2673    3.0099 O   0  0  0  0  0  0  0  0  0  0  0  0
   -0.7061    1.1815    2.2754 N   0  0  0  0  0  0  0  0  0  0  0  0
   -0.1196    1.1006    1.1606 C   0  0  0  0  0  0  0  0  0  0  0  0
   -0.7878    2.2105    3.8164 H   0  0  0  0  0  0  0  0  0  0  0  0
    0.6355    1.8161    0.8417 H   0  0  0  0  0  0  0  0  0  0  0  0
    0.2934   -1.3003   -3.8828 C   0  0  0  0  0  0  0  0  0  0  0  0
    0.2934   -1.3003   -2.4255 C   0  0  0  0  0  3  0  0  0  0  0  0
    0.2934   -1.3003   -1.2270 C   0  0  0  0  0  0  0  0  0  0  0  0
    0.2934   -1.3003    0.2302 C   0  0  0  0  0  0  0  0  0  0  0  0
    1.2633   -1.6144   -4.2721 H   0  0  0  0  0  0  0  0  0  0  0  0
    0.0804   -0.3033   -4.2722 H   0  0  0  0  0  0  0  0  0  0  0  0
   -0.4635   -1.9833   -4.2721 H   0  0  0  0  0  0  0  0  0  0  0  0
    1.2500   -1.6531    0.6195 H   0  0  0  0  0  0  0  0  0  0  0  0
   -0.4903   -1.9523    0.6195 H   0  0  0  0  0  0  0  0  0  0  0  0
    0.0860   -0.0946    0.6974 H   0  0  0  0  0  0  0  0  0  0  0  0
  1  2  1  0
  1  4  1  0
  2  3  2  3
  3  5  1  0
  3 15  1  0
  6  7  1  0
  6 10  1  0
  6 11  1  0
  6 12  1  0
  7  8  2  0
  8  9  2  0
  9 13  1  0
  9 14  1  0
M  RAD  1   7   2
M  END
>  <reaction>  (13) 
rmg_rxn_15391

>  <mol_properties>  (13) 
{"1": {"label": "*4", "atom_type": "N3d"}, "2": {"label": "*3", "atom_type": "Cd"}, "7": {"label": "*0", "atom_type": "Ct"}, "8": {"label": "*1", "atom_type": "Cs"}, "14": {"label": "*2", "atom_type": "H0"}}

>  <type>  (13) 
unop_9

>  <geom_source>  (13) 
Heuristics

$$$$

     RDKit          3D

 15 13  0  0  0  0  0  0  0  0999 V2000
    0.4778    2.7048    2.2349 O   0  0  0  0  0  0  0  0  0  0  0  0
    0.3180    1.7551    1.2451 N   0  0  0  0  0  0  0  0  0  0  0  0
   -0.5218    0.8707    1.5708 C   0  0  0  0  0  0  0  0  0  0  0  0
    1.1293    3.3036    1.8648 H   0  0  0  0  0  0  0  0  0  0  0  0
   -1.0435    0.8803    2.5254 H   0  0  0  0  0  0  0  0  0  0  0  0
   -0.1089   -1.5303   -3.4726 C   0  0  0  0  0  0  0  0  0  0  0  0
   -0.1089   -1.5303   -2.0153 C   0  0  0  0  0  3  0  0  0  0  0  0
   -0.1089   -1.5303   -0.8168 C   0  0  0  0  0  0  0  0  0  0  0  0
   -0.1089   -1.5303    0.6404 C   0  0  0  0  0  0  0  0  0  0  0  0
    0.8611   -1.8443   -3.8619 H   0  0  0  0  0  0  0  0  0  0  0  0
   -0.3219   -0.5333   -3.8619 H   0  0  0  0  0  0  0  0  0  0  0  0
   -0.8658   -2.2132   -3.8619 H   0  0  0  0  0  0  0  0  0  0  0  0
    0.8477   -1.8830    1.0297 H   0  0  0  0  0  0  0  0  0  0  0  0
   -0.8926   -2.1823    1.0297 H   0  0  0  0  0  0  0  0  0  0  0  0
   -0.3163   -0.3246    1.1076 H   0  0  0  0  0  0  0  0  0  0  0  0
  1  2  1  0
  1  4  1  0
  2  3  2  3
  3  5  1  0
  3 15  1  0
  6  7  1  0
  6 10  1  0
  6 11  1  0
  6 12  1  0
  7  8  2  0
  8  9  2  0
  9 13  1  0
  9 14  1  0
M  RAD  1   7   2
M  END
>  <reaction>  (14) 
rmg_rxn_15391

>  <mol_properties>  (14) 
{"1": {"label": "*4", "atom_type": "N3d"}, "2": {"label": "*3", "atom_type": "Cd"}, "7": {"label": "*0", "atom_type": "Ct"}, "8": {"label": "*1", "atom_type": "Cs"}, "14": {"label": "*2", "atom_type": "H0"}}

>  <type>  (14) 
unop_10

>  <geom_source>  (14) 
Heuristics

$$$$

     RDKit          3D

 15 13  0  0  0  0  0  0  0  0999 V2000
    3.7525    0.5898    0.0018 O   0  0  0  0  0  0  0  0  0  0  0  0
    2.5814   -0.1931    0.0032 N   0  0  0  0  0  0  0  0  0  0  0  0
    1.4726    0.3594   -0.0071 C   0  0  0  0  0  0  0  0  0  0  0  0
    4.4727   -0.0556    0.0111 H   0  0  0  0  0  0  0  0  0  0  0  0
    1.2312    1.4158   -0.0177 H   0  0  0  0  0  0  0  0  0  0  0  0
   -3.9147    0.8917    0.0018 C   0  0  0  0  0  0  0  0  0  0  0  0
   -2.7073    0.0993    0.0011 C   0  0  0  0  0  3  0  0  0  0  0  0
   -1.7241   -0.6045    0.0000 C   0  0  0  0  0  0  0  0  0  0  0  0
   -0.5319   -1.3385   -0.0011 C   0  0  0  0  0  0  0  0  0  0  0  0
   -3.8713    1.6412   -0.7892 H   0  0  0  0  0  0  0  0  0  0  0  0
   -4.0337    1.3948    0.9617 H   0  0  0  0  0  0  0  0  0  0  0  0
   -4.7837    0.2546   -0.1700 H   0  0  0  0  0  0  0  0  0  0  0  0
   -0.3460   -1.9054   -0.9064 H   0  0  0  0  0  0  0  0  0  0  0  0
   -0.3426   -1.9028    0.9051 H   0  0  0  0  0  0  0  0  0  0  0  0
    0.4814   -0.4595   -0.0042 H   0  0  0  0  0  0  0  0  0  0  0  0
  1  2  1  0
  1  4  1  0
  2  3  2  3
  3  5  1  0
  3 15  1  0
  6  7  1  0
  6 10  1  0
  6 11  1  0
  6 12  1  0
  7  8  2  0
  8  9  2  0
  9 13  1  0
  9 14  1  0
M  RAD  1   7   2
M  END
>  <reaction>  (15) 
rmg_rxn_15391

>  <mol_properties>  (15) 
{"1": {"label": "*4", "atom_type": "N3d"}, "2": {"label": "*3", "atom_type": "Cd"}, "7": {"label": "*0", "atom_type": "Ct"}, "8": {"label": "*1", "atom_type": "Cs"}, "14": {"label": "*2", "atom_type": "H0"}}

>  <type>  (15) 
unop_11

>  <geom_source>  (15) 
Heuristics

$$$$

     RDKit          3D

 15 13  0  0  0  0  0  0  0  0999 V2000
   -0.4261    2.4774    2.8212 O   0  0  0  0  0  0  0  0  0  0  0  0
   -0.2014    1.1709    2.4344 N   0  0  0  0  0  0  0  0  0  0  0  0
   -0.1802    1.0475    1.1783 C   0  0  0  0  0  0  0  0  0  0  0  0
   -0.4179    2.4298    3.7792 H   0  0  0  0  0  0  0  0  0  0  0  0
   -0.3249    1.8887    0.5037 H   0  0  0  0  0  0  0  0  0  0  0  0
    0.2328   -1.3534   -3.8651 C   0  0  0  0  0  0  0  0  0  0  0  0
    0.2328   -1.3534   -2.4078 C   0  0  0  0  0  3  0  0  0  0  0  0
    0.2328   -1.3534   -1.2093 C   0  0  0  0  0  0  0  0  0  0  0  0
    0.2328   -1.3534    0.2479 C   0  0  0  0  0  0  0  0  0  0  0  0
    1.2027   -1.6675   -4.2544 H   0  0  0  0  0  0  0  0  0  0  0  0
    0.0198   -0.3564   -4.2544 H   0  0  0  0  0  0  0  0  0  0  0  0
   -0.5242   -2.0364   -4.2544 H   0  0  0  0  0  0  0  0  0  0  0  0
    1.1893   -1.7062    0.6372 H   0  0  0  0  0  0  0  0  0  0  0  0
   -0.5510   -2.0054    0.6372 H   0  0  0  0  0  0  0  0  0  0  0  0
    0.0254   -0.1477    0.7151 H   0  0  0  0  0  0  0  0  0  0  0  0
  1  2  1  0
  1  4  1  0
  2  3  2  3
  3  5  1  0
  3 15  1  0
  6  7  1  0
  6 10  1  0
  6 11  1  0
  6 12  1  0
  7  8  2  0
  8  9  2  0
  9 13  1  0
  9 14  1  0
M  RAD  1   7   2
M  END
>  <reaction>  (16) 
rmg_rxn_15391

>  <mol_properties>  (16) 
{"1": {"label": "*4", "atom_type": "N3d"}, "2": {"label": "*3", "atom_type": "Cd"}, "7": {"label": "*0", "atom_type": "Ct"}, "8": {"label": "*1", "atom_type": "Cs"}, "14": {"label": "*2", "atom_type": "H0"}}

>  <type>  (16) 
unop_12

>  <geom_source>  (16) 
Heuristics

$$$$

     RDKit          3D

 15 13  0  0  0  0  0  0  0  0999 V2000
    3.7514   -0.5908    0.0023 O   0  0  0  0  0  0  0  0  0  0  0  0
    2.5810    0.1932    0.0046 N   0  0  0  0  0  0  0  0  0  0  0  0
    1.4719   -0.3586   -0.0097 C   0  0  0  0  0  0  0  0  0  0  0  0
    4.4722    0.0538    0.0155 H   0  0  0  0  0  0  0  0  0  0  0  0
    1.2302   -1.4149   -0.0249 H   0  0  0  0  0  0  0  0  0  0  0  0
   -3.9131   -0.8929    0.0026 C   0  0  0  0  0  0  0  0  0  0  0  0
   -2.7059   -0.1002    0.0010 C   0  0  0  0  0  3  0  0  0  0  0  0
   -1.7243    0.6058   -0.0002 C   0  0  0  0  0  0  0  0  0  0  0  0
   -0.5322    1.3398   -0.0014 C   0  0  0  0  0  0  0  0  0  0  0  0
   -3.9273   -1.5561   -0.8629 H   0  0  0  0  0  0  0  0  0  0  0  0
   -4.7898   -0.2447   -0.0405 H   0  0  0  0  0  0  0  0  0  0  0  0
   -3.9670   -1.4932    0.9112 H   0  0  0  0  0  0  0  0  0  0  0  0
   -0.3425    1.9036    0.9050 H   0  0  0  0  0  0  0  0  0  0  0  0
   -0.3466    1.9073   -0.9064 H   0  0  0  0  0  0  0  0  0  0  0  0
    0.4811    0.4608   -0.0054 H   0  0  0  0  0  0  0  0  0  0  0  0
  1  2  1  0
  1  4  1  0
  2  3  2  3
  3  5  1  0
  3 15  1  0
  6  7  1  0
  6 10  1  0
  6 11  1  0
  6 12  1  0
  7  8  2  0
  8  9  2  0
  9 13  1  0
  9 14  1  0
M  RAD  1   7   2
M  END
>  <reaction>  (17) 
rmg_rxn_15391

>  <mol_properties>  (17) 
{"1": {"label": "*4", "atom_type": "N3d"}, "2": {"label": "*3", "atom_type": "Cd"}, "7": {"label": "*0", "atom_type": "Ct"}, "8": {"label": "*1", "atom_type": "Cs"}, "14": {"label": "*2", "atom_type": "H0"}}

>  <type>  (17) 
unop_13

>  <geom_source>  (17) 
Heuristics

$$$$

     RDKit          3D

 15 13  0  0  0  0  0  0  0  0999 V2000
    3.7523   -0.5899    0.0084 O   0  0  0  0  0  0  0  0  0  0  0  0
    2.5811    0.1929    0.0152 N   0  0  0  0  0  0  0  0  0  0  0  0
    1.4730   -0.3588   -0.0338 C   0  0  0  0  0  0  0  0  0  0  0  0
    4.4719    0.0547    0.0526 H   0  0  0  0  0  0  0  0  0  0  0  0
    1.2323   -1.4141   -0.0848 H   0  0  0  0  0  0  0  0  0  0  0  0
   -3.9147   -0.8917    0.0084 C   0  0  0  0  0  0  0  0  0  0  0  0
   -2.7072   -0.0995    0.0030 C   0  0  0  0  0  3  0  0  0  0  0  0
   -1.7240    0.6044    0.0001 C   0  0  0  0  0  0  0  0  0  0  0  0
   -0.5319    1.3384   -0.0047 C   0  0  0  0  0  0  0  0  0  0  0  0
   -3.8567   -1.6573    0.7828 H   0  0  0  0  0  0  0  0  0  0  0  0
   -4.0518   -1.3749   -0.9593 H   0  0  0  0  0  0  0  0  0  0  0  0
   -4.7800   -0.2583    0.2097 H   0  0  0  0  0  0  0  0  0  0  0  0
   -0.3364    1.8973    0.9035 H   0  0  0  0  0  0  0  0  0  0  0  0
   -0.3523    1.9108   -0.9078 H   0  0  0  0  0  0  0  0  0  0  0  0
    0.4816    0.4598   -0.0199 H   0  0  0  0  0  0  0  0  0  0  0  0
  1  2  1  0
  1  4  1  0
  2  3  2  3
  3  5  1  0
  3 15  1  0
  6  7  1  0
  6 10  1  0
  6 11  1  0
  6 12  1  0
  7  8  2  0
  8  9  2  0
  9 13  1  0
  9 14  1  0
M  RAD  1   7   2
M  END
>  <reaction>  (18) 
rmg_rxn_15391

>  <mol_properties>  (18) 
{"1": {"label": "*4", "atom_type": "N3d"}, "2": {"label": "*3", "atom_type": "Cd"}, "7": {"label": "*0", "atom_type": "Ct"}, "8": {"label": "*1", "atom_type": "Cs"}, "14": {"label": "*2", "atom_type": "H0"}}

>  <type>  (18) 
unop_14

>  <geom_source>  (18) 
Heuristics

$$$$

     RDKit          3D

 15 13  0  0  0  0  0  0  0  0999 V2000
    0.3927    2.4002    2.7455 O   0  0  0  0  0  0  0  0  0  0  0  0
    0.4892    1.6778    1.5726 N   0  0  0  0  0  0  0  0  0  0  0  0
   -0.5338    0.9662    1.3710 C   0  0  0  0  0  0  0  0  0  0  0  0
    1.2188    2.8867    2.7752 H   0  0  0  0  0  0  0  0  0  0  0  0
   -1.3776    0.9441    2.0574 H   0  0  0  0  0  0  0  0  0  0  0  0
   -0.1208   -1.4347   -3.6724 C   0  0  0  0  0  0  0  0  0  0  0  0
   -0.1208   -1.4347   -2.2152 C   0  0  0  0  0  3  0  0  0  0  0  0
   -0.1208   -1.4347   -1.0167 C   0  0  0  0  0  0  0  0  0  0  0  0
   -0.1208   -1.4347    0.4406 C   0  0  0  0  0  0  0  0  0  0  0  0
    0.8491   -1.7488   -4.0617 H   0  0  0  0  0  0  0  0  0  0  0  0
   -0.3339   -0.4377   -4.0618 H   0  0  0  0  0  0  0  0  0  0  0  0
   -0.8778   -2.1177   -4.0617 H   0  0  0  0  0  0  0  0  0  0  0  0
    0.8357   -1.7875    0.8299 H   0  0  0  0  0  0  0  0  0  0  0  0
   -0.9046   -2.0868    0.8299 H   0  0  0  0  0  0  0  0  0  0  0  0
   -0.3282   -0.2290    0.9078 H   0  0  0  0  0  0  0  0  0  0  0  0
  1  2  1  0
  1  4  1  0
  2  3  2  3
  3  5  1  0
  3 15  1  0
  6  7  1  0
  6 10  1  0
  6 11  1  0
  6 12  1  0
  7  8  2  0
  8  9  2  0
  9 13  1  0
  9 14  1  0
M  RAD  1   7   2
M  END
>  <reaction>  (19) 
rmg_rxn_15391

>  <mol_properties>  (19) 
{"1": {"label": "*4", "atom_type": "N3d"}, "2": {"label": "*3", "atom_type": "Cd"}, "7": {"label": "*0", "atom_type": "Ct"}, "8": {"label": "*1", "atom_type": "Cs"}, "14": {"label": "*2", "atom_type": "H0"}}

>  <type>  (19) 
unop_15

>  <geom_source>  (19) 
Heuristics

$$$$

     RDKit          3D

 15 13  0  0  0  0  0  0  0  0999 V2000
    3.7542    0.5883   -0.0027 O   0  0  0  0  0  0  0  0  0  0  0  0
    2.5822   -0.1933   -0.0072 N   0  0  0  0  0  0  0  0  0  0  0  0
    1.4739    0.3606    0.0132 C   0  0  0  0  0  0  0  0  0  0  0  0
    4.4738   -0.0580   -0.0210 H   0  0  0  0  0  0  0  0  0  0  0  0
    1.2338    1.4173    0.0356 H   0  0  0  0  0  0  0  0  0  0  0  0
   -3.9178    0.8890   -0.0035 C   0  0  0  0  0  0  0  0  0  0  0  0
   -2.7083    0.0997   -0.0010 C   0  0  0  0  0  3  0  0  0  0  0  0
   -1.7243   -0.6031    0.0000 C   0  0  0  0  0  0  0  0  0  0  0  0
   -0.5316   -1.3363    0.0023 C   0  0  0  0  0  0  0  0  0  0  0  0
   -4.7890    0.2431   -0.1271 H   0  0  0  0  0  0  0  0  0  0  0  0
   -3.8961    1.6054   -0.8258 H   0  0  0  0  0  0  0  0  0  0  0  0
   -4.0147    1.4310    0.9380 H   0  0  0  0  0  0  0  0  0  0  0  0
   -0.3407   -1.9000   -0.9040 H   0  0  0  0  0  0  0  0  0  0  0  0
   -0.3466   -1.9036    0.9076 H   0  0  0  0  0  0  0  0  0  0  0  0
    0.4818   -0.4573    0.0074 H   0  0  0  0  0  0  0  0  0  0  0  0
  1  2  1  0
  1  4  1  0
  2  3  2  3
  3  5  1  0
  3 15  1  0
  6  7  1  0
  6 10  1  0
  6 11  1  0
  6 12  1  0
  7  8  2  0
  8  9  2  0
  9 13  1  0
  9 14  1  0
M  RAD  1   7   2
M  END
>  <reaction>  (20) 
rmg_rxn_15391

>  <mol_properties>  (20) 
{"1": {"label": "*4", "atom_type": "N3d"}, "2": {"label": "*3", "atom_type": "Cd"}, "7": {"label": "*0", "atom_type": "Ct"}, "8": {"label": "*1", "atom_type": "Cs"}, "14": {"label": "*2", "atom_type": "H0"}}

>  <type>  (20) 
unop_16

>  <geom_source>  (20) 
Heuristics

$$$$

     RDKit          3D

 15 13  0  0  0  0  0  0  0  0999 V2000
   -0.0306    2.1857    3.0500 O   0  0  0  0  0  0  0  0  0  0  0  0
    0.4861    1.5381    1.9451 N   0  0  0  0  0  0  0  0  0  0  0  0
   -0.4219    1.0506    1.2163 C   0  0  0  0  0  0  0  0  0  0  0  0
    0.7509    2.5020    3.5075 H   0  0  0  0  0  0  0  0  0  0  0  0
   -1.4793    1.1447    1.4546 H   0  0  0  0  0  0  0  0  0  0  0  0
   -0.0090   -1.3504   -3.8271 C   0  0  0  0  0  0  0  0  0  0  0  0
   -0.0090   -1.3504   -2.3699 C   0  0  0  0  0  3  0  0  0  0  0  0
   -0.0090   -1.3504   -1.1714 C   0  0  0  0  0  0  0  0  0  0  0  0
   -0.0090   -1.3504    0.2859 C   0  0  0  0  0  0  0  0  0  0  0  0
    0.9610   -1.6644   -4.2164 H   0  0  0  0  0  0  0  0  0  0  0  0
   -0.2220   -0.3533   -4.2165 H   0  0  0  0  0  0  0  0  0  0  0  0
   -0.7659   -2.0333   -4.2164 H   0  0  0  0  0  0  0  0  0  0  0  0
    0.9476   -1.7031    0.6752 H   0  0  0  0  0  0  0  0  0  0  0  0
   -0.7927   -2.0024    0.6752 H   0  0  0  0  0  0  0  0  0  0  0  0
   -0.2164   -0.1446    0.7531 H   0  0  0  0  0  0  0  0  0  0  0  0
  1  2  1  0
  1  4  1  0
  2  3  2  3
  3  5  1  0
  3 15  1  0
  6  7  1  0
  6 10  1  0
  6 11  1  0
  6 12  1  0
  7  8  2  0
  8  9  2  0
  9 13  1  0
  9 14  1  0
M  RAD  1   7   2
M  END
>  <reaction>  (21) 
rmg_rxn_15391

>  <mol_properties>  (21) 
{"1": {"label": "*4", "atom_type": "N3d"}, "2": {"label": "*3", "atom_type": "Cd"}, "7": {"label": "*0", "atom_type": "Ct"}, "8": {"label": "*1", "atom_type": "Cs"}, "14": {"label": "*2", "atom_type": "H0"}}

>  <type>  (21) 
unop_17

>  <geom_source>  (21) 
Heuristics

$$$$

     RDKit          3D

 15 13  0  0  0  0  0  0  0  0999 V2000
    3.7526   -0.5893    0.0107 O   0  0  0  0  0  0  0  0  0  0  0  0
    2.5808    0.1925    0.0199 N   0  0  0  0  0  0  0  0  0  0  0  0
    1.4733   -0.3591   -0.0435 C   0  0  0  0  0  0  0  0  0  0  0  0
    4.4715    0.0551    0.0681 H   0  0  0  0  0  0  0  0  0  0  0  0
    1.2335   -1.4138   -0.1091 H   0  0  0  0  0  0  0  0  0  0  0  0
   -3.9152   -0.8911    0.0107 C   0  0  0  0  0  0  0  0  0  0  0  0
   -2.7070   -0.0998    0.0044 C   0  0  0  0  0  3  0  0  0  0  0  0
   -1.7241    0.6044   -0.0000 C   0  0  0  0  0  0  0  0  0  0  0  0
   -0.5317    1.3379   -0.0062 C   0  0  0  0  0  0  0  0  0  0  0  0
   -4.0152   -1.4320   -0.9306 H   0  0  0  0  0  0  0  0  0  0  0  0
   -4.7867   -0.2471    0.1385 H   0  0  0  0  0  0  0  0  0  0  0  0
   -3.8891   -1.6083    0.8318 H   0  0  0  0  0  0  0  0  0  0  0  0
   -0.3337    1.8948    0.9027 H   0  0  0  0  0  0  0  0  0  0  0  0
   -0.3541    1.9122   -0.9086 H   0  0  0  0  0  0  0  0  0  0  0  0
    0.4815    0.4591   -0.0255 H   0  0  0  0  0  0  0  0  0  0  0  0
  1  2  1  0
  1  4  1  0
  2  3  2  3
  3  5  1  0
  3 15  1  0
  6  7  1  0
  6 10  1  0
  6 11  1  0
  6 12  1  0
  7  8  2  0
  8  9  2  0
  9 13  1  0
  9 14  1  0
M  RAD  1   7   2
M  END
>  <reaction>  (22) 
rmg_rxn_15391

>  <mol_properties>  (22) 
{"1": {"label": "*4", "atom_type": "N3d"}, "2": {"label": "*3", "atom_type": "Cd"}, "7": {"label": "*0", "atom_type": "Ct"}, "8": {"label": "*1", "atom_type": "Cs"}, "14": {"label": "*2", "atom_type": "H0"}}

>  <type>  (22) 
unop_18

>  <geom_source>  (22) 
Heuristics

$$$$

     RDKit          3D

 15 13  0  0  0  0  0  0  0  0999 V2000
   -1.1720    2.1311    2.7455 O   0  0  0  0  0  0  0  0  0  0  0  0
   -1.0216    1.4179    1.5726 N   0  0  0  0  0  0  0  0  0  0  0  0
    0.1803    1.0890    1.3710 C   0  0  0  0  0  0  0  0  0  0  0  0
   -2.1132    2.3136    2.7752 H   0  0  0  0  0  0  0  0  0  0  0  0
    0.9830    1.3501    2.0574 H   0  0  0  0  0  0  0  0  0  0  0  0
    0.5932   -1.3119   -3.6724 C   0  0  0  0  0  0  0  0  0  0  0  0
    0.5932   -1.3119   -2.2152 C   0  0  0  0  0  3  0  0  0  0  0  0
    0.5932   -1.3119   -1.0167 C   0  0  0  0  0  0  0  0  0  0  0  0
    0.5932   -1.3119    0.4406 C   0  0  0  0  0  0  0  0  0  0  0  0
    1.5632   -1.6260   -4.0617 H   0  0  0  0  0  0  0  0  0  0  0  0
    0.3802   -0.3149   -4.0618 H   0  0  0  0  0  0  0  0  0  0  0  0
   -0.1637   -1.9949   -4.0617 H   0  0  0  0  0  0  0  0  0  0  0  0
    1.5498   -1.6647    0.8299 H   0  0  0  0  0  0  0  0  0  0  0  0
   -0.1905   -1.9640    0.8299 H   0  0  0  0  0  0  0  0  0  0  0  0
    0.3859   -0.1062    0.9078 H   0  0  0  0  0  0  0  0  0  0  0  0
  1  2  1  0
  1  4  1  0
  2  3  2  3
  3  5  1  0
  3 15  1  0
  6  7  1  0
  6 10  1  0
  6 11  1  0
  6 12  1  0
  7  8  2  0
  8  9  2  0
  9 13  1  0
  9 14  1  0
M  RAD  1   7   2
M  END
>  <reaction>  (23) 
rmg_rxn_15391

>  <mol_properties>  (23) 
{"1": {"label": "*4", "atom_type": "N3d"}, "2": {"label": "*3", "atom_type": "Cd"}, "7": {"label": "*0", "atom_type": "Ct"}, "8": {"label": "*1", "atom_type": "Cs"}, "14": {"label": "*2", "atom_type": "H0"}}

>  <type>  (23) 
unop_19

>  <geom_source>  (23) 
Heuristics

$$$$

     RDKit          3D

 15 13  0  0  0  0  0  0  0  0999 V2000
   -3.7551    0.5866    0.0024 O   0  0  0  0  0  0  0  0  0  0  0  0
   -2.5818   -0.1930    0.0049 N   0  0  0  0  0  0  0  0  0  0  0  0
   -1.4745    0.3624   -0.0103 C   0  0  0  0  0  0  0  0  0  0  0  0
   -4.4734   -0.0608    0.0163 H   0  0  0  0  0  0  0  0  0  0  0  0
   -1.2359    1.4193   -0.0262 H   0  0  0  0  0  0  0  0  0  0  0  0
    3.9189    0.8878    0.0026 C   0  0  0  0  0  0  0  0  0  0  0  0
    2.7092    0.0988    0.0011 C   0  0  0  0  0  3  0  0  0  0  0  0
    1.7243   -0.6026    0.0001 C   0  0  0  0  0  0  0  0  0  0  0  0
    0.5309   -1.3345   -0.0017 C   0  0  0  0  0  0  0  0  0  0  0  0
    3.9558    1.5166    0.8926 H   0  0  0  0  0  0  0  0  0  0  0  0
    3.9540    1.5227   -0.8831 H   0  0  0  0  0  0  0  0  0  0  0  0
    4.7939    0.2358   -0.0006 H   0  0  0  0  0  0  0  0  0  0  0  0
    0.3400   -1.8980    0.9047 H   0  0  0  0  0  0  0  0  0  0  0  0
    0.3449   -1.9016   -0.9068 H   0  0  0  0  0  0  0  0  0  0  0  0
   -0.4818   -0.4548   -0.0061 H   0  0  0  0  0  0  0  0  0  0  0  0
  1  2  1  0
  1  4  1  0
  2  3  2  3
  3  5  1  0
  3 15  1  0
  6  7  1  0
  6 10  1  0
  6 11  1  0
  6 12  1  0
  7  8  2  0
  8  9  2  0
  9 13  1  0
  9 14  1  0
M  RAD  1   7   2
M  END
>  <reaction>  (24) 
rmg_rxn_15391

>  <mol_properties>  (24) 
{"1": {"label": "*4", "atom_type": "N3d"}, "2": {"label": "*3", "atom_type": "Cd"}, "7": {"label": "*0", "atom_type": "Ct"}, "8": {"label": "*1", "atom_type": "Cs"}, "14": {"label": "*2", "atom_type": "H0"}}

>  <type>  (24) 
unop_20

>  <geom_source>  (24) 
Heuristics

$$$$

     RDKit          3D

 15 13  0  0  0  0  0  0  0  0999 V2000
    0.1347    2.9387    1.7522 O   0  0  0  0  0  0  0  0  0  0  0  0
    0.0331    1.7665    1.0293 N   0  0  0  0  0  0  0  0  0  0  0  0
   -0.3746    0.8069    1.7409 C   0  0  0  0  0  0  0  0  0  0  0  0
    0.4483    3.5727    1.1043 H   0  0  0  0  0  0  0  0  0  0  0  0
   -0.6106    0.9187    2.7970 H   0  0  0  0  0  0  0  0  0  0  0  0
    0.0384   -1.5940   -3.3025 C   0  0  0  0  0  0  0  0  0  0  0  0
    0.0384   -1.5940   -1.8452 C   0  0  0  0  0  3  0  0  0  0  0  0
    0.0384   -1.5940   -0.6467 C   0  0  0  0  0  0  0  0  0  0  0  0
    0.0384   -1.5940    0.8105 C   0  0  0  0  0  0  0  0  0  0  0  0
    1.0083   -1.9081   -3.6918 H   0  0  0  0  0  0  0  0  0  0  0  0
   -0.1746   -0.5970   -3.6918 H   0  0  0  0  0  0  0  0  0  0  0  0
   -0.7186   -2.2770   -3.6918 H   0  0  0  0  0  0  0  0  0  0  0  0
    0.9949   -1.9468    1.1999 H   0  0  0  0  0  0  0  0  0  0  0  0
   -0.7454   -2.2461    1.1998 H   0  0  0  0  0  0  0  0  0  0  0  0
   -0.1690   -0.3883    1.2778 H   0  0  0  0  0  0  0  0  0  0  0  0
  1  2  1  0
  1  4  1  0
  2  3  2  3
  3  5  1  0
  3 15  1  0
  6  7  1  0
  6 10  1  0
  6 11  1  0
  6 12  1  0
  7  8  2  0
  8  9  2  0
  9 13  1  0
  9 14  1  0
M  RAD  1   7   2
M  END
>  <reaction>  (25) 
rmg_rxn_15391

>  <mol_properties>  (25) 
{"1": {"label": "*4", "atom_type": "N3d"}, "2": {"label": "*3", "atom_type": "Cd"}, "7": {"label": "*0", "atom_type": "Ct"}, "8": {"label": "*1", "atom_type": "Cs"}, "14": {"label": "*2", "atom_type": "H0"}}

>  <type>  (25) 
unop_21

>  <geom_source>  (25) 
Heuristics

$$$$

     RDKit          3D

 15 13  0  0  0  0  0  0  0  0999 V2000
   -1.3540    2.3897    2.2349 O   0  0  0  0  0  0  0  0  0  0  0  0
   -0.8861    1.5480    1.2451 N   0  0  0  0  0  0  0  0  0  0  0  0
    0.2009    0.9950    1.5708 C   0  0  0  0  0  0  0  0  0  0  0  0
   -2.1682    2.7365    1.8648 H   0  0  0  0  0  0  0  0  0  0  0  0
    0.6895    1.1783    2.5254 H   0  0  0  0  0  0  0  0  0  0  0  0
    0.6139   -1.4059   -3.4726 C   0  0  0  0  0  0  0  0  0  0  0  0
    0.6139   -1.4059   -2.0153 C   0  0  0  0  0  3  0  0  0  0  0  0
    0.6139   -1.4059   -0.8168 C   0  0  0  0  0  0  0  0  0  0  0  0
    0.6139   -1.4059    0.6404 C   0  0  0  0  0  0  0  0  0  0  0  0
    1.5838   -1.7200   -3.8619 H   0  0  0  0  0  0  0  0  0  0  0  0
    0.4009   -0.4089   -3.8619 H   0  0  0  0  0  0  0  0  0  0  0  0
   -0.1430   -2.0889   -3.8619 H   0  0  0  0  0  0  0  0  0  0  0  0
    1.5705   -1.7587    1.0297 H   0  0  0  0  0  0  0  0  0  0  0  0
   -0.1698   -2.0580    1.0297 H   0  0  0  0  0  0  0  0  0  0  0  0
    0.4065   -0.2002    1.1076 H   0  0  0  0  0  0  0  0  0  0  0  0
  1  2  1  0
  1  4  1  0
  2  3  2  3
  3  5  1  0
  3 15  1  0
  6  7  1  0
  6 10  1  0
  6 11  1  0
  6 12  1  0
  7  8  2  0
  8  9  2  0
  9 13  1  0
  9 14  1  0
M  RAD  1   7   2
M  END
>  <reaction>  (26) 
rmg_rxn_15391

>  <mol_properties>  (26) 
{"1": {"label": "*4", "atom_type": "N3d"}, "2": {"label": "*3", "atom_type": "Cd"}, "7": {"label": "*0", "atom_type": "Ct"}, "8": {"label": "*1", "atom_type": "Cs"}, "14": {"label": "*2", "atom_type": "H0"}}

>  <type>  (26) 
unop_22

>  <geom_source>  (26) 
Heuristics

$$$$

     RDKit          3D

 15 13  0  0  0  0  0  0  0  0999 V2000
   -0.5014    2.2278    3.0099 O   0  0  0  0  0  0  0  0  0  0  0  0
    0.2708    1.3495    2.2754 N   0  0  0  0  0  0  0  0  0  0  0  0
   -0.2551    1.0773    1.1606 C   0  0  0  0  0  0  0  0  0  0  0  0
    0.0040    2.3467    3.8164 H   0  0  0  0  0  0  0  0  0  0  0  0
   -1.2057    1.4994    0.8417 H   0  0  0  0  0  0  0  0  0  0  0  0
    0.1579   -1.3236   -3.8828 C   0  0  0  0  0  0  0  0  0  0  0  0
    0.1579   -1.3236   -2.4255 C   0  0  0  0  0  3  0  0  0  0  0  0
    0.1579   -1.3236   -1.2270 C   0  0  0  0  0  0  0  0  0  0  0  0
    0.1579   -1.3236    0.2302 C   0  0  0  0  0  0  0  0  0  0  0  0
    1.1278   -1.6377   -4.2721 H   0  0  0  0  0  0  0  0  0  0  0  0
   -0.0551   -0.3266   -4.2722 H   0  0  0  0  0  0  0  0  0  0  0  0
   -0.5990   -2.0066   -4.2721 H   0  0  0  0  0  0  0  0  0  0  0  0
    1.1145   -1.6764    0.6195 H   0  0  0  0  0  0  0  0  0  0  0  0
   -0.6258   -1.9757    0.6195 H   0  0  0  0  0  0  0  0  0  0  0  0
   -0.0495   -0.1179    0.6974 H   0  0  0  0  0  0  0  0  0  0  0  0
  1  2  1  0
  1  4  1  0
  2  3  2  3
  3  5  1  0
  3 15  1  0
  6  7  1  0
  6 10  1  0
  6 11  1  0
  6 12  1  0
  7  8  2  0
  8  9  2  0
  9 13  1  0
  9 14  1  0
M  RAD  1   7   2
M  END
>  <reaction>  (27) 
rmg_rxn_15391

>  <mol_properties>  (27) 
{"1": {"label": "*4", "atom_type": "N3d"}, "2": {"label": "*3", "atom_type": "Cd"}, "7": {"label": "*0", "atom_type": "Ct"}, "8": {"label": "*1", "atom_type": "Cs"}, "14": {"label": "*2", "atom_type": "H0"}}

>  <type>  (27) 
unop_23

>  <geom_source>  (27) 
Heuristics

$$$$

     RDKit          3D

 15 13  0  0  0  0  0  0  0  0999 V2000
   -0.5083    2.9555    1.5510 O   0  0  0  0  0  0  0  0  0  0  0  0
   -0.2971    1.7275    0.9556 N   0  0  0  0  0  0  0  0  0  0  0  0
   -0.1394    0.8103    1.8086 C   0  0  0  0  0  0  0  0  0  0  0  0
   -0.6105    3.5493    0.8047 H   0  0  0  0  0  0  0  0  0  0  0  0
   -0.1710    0.9942    2.8804 H   0  0  0  0  0  0  0  0  0  0  0  0
    0.2736   -1.5906   -3.2348 C   0  0  0  0  0  0  0  0  0  0  0  0
    0.2736   -1.5906   -1.7776 C   0  0  0  0  0  3  0  0  0  0  0  0
    0.2736   -1.5906   -0.5791 C   0  0  0  0  0  0  0  0  0  0  0  0
    0.2736   -1.5906    0.8782 C   0  0  0  0  0  0  0  0  0  0  0  0
    1.2435   -1.9047   -3.6242 H   0  0  0  0  0  0  0  0  0  0  0  0
    0.0606   -0.5936   -3.6242 H   0  0  0  0  0  0  0  0  0  0  0  0
   -0.4834   -2.2736   -3.6241 H   0  0  0  0  0  0  0  0  0  0  0  0
    1.2301   -1.9434    1.2675 H   0  0  0  0  0  0  0  0  0  0  0  0
   -0.5102   -2.2427    1.2675 H   0  0  0  0  0  0  0  0  0  0  0  0
    0.0662   -0.3849    1.3454 H   0  0  0  0  0  0  0  0  0  0  0  0
  1  2  1  0
  1  4  1  0
  2  3  2  3
  3  5  1  0
  3 15  1  0
  6  7  1  0
  6 10  1  0
  6 11  1  0
  6 12  1  0
  7  8  2  0
  8  9  2  0
  9 13  1  0
  9 14  1  0
M  RAD  1   7   2
M  END
>  <reaction>  (28) 
rmg_rxn_15391

>  <mol_properties>  (28) 
{"1": {"label": "*4", "atom_type": "N3d"}, "2": {"label": "*3", "atom_type": "Cd"}, "7": {"label": "*0", "atom_type": "Ct"}, "8": {"label": "*1", "atom_type": "Cs"}, "14": {"label": "*2", "atom_type": "H0"}}

>  <type>  (28) 
unop_24

>  <geom_source>  (28) 
Heuristics

$$$$

     RDKit          3D

 15 13  0  0  0  0  0  0  0  0999 V2000
    3.7538    0.5878    0.0104 O   0  0  0  0  0  0  0  0  0  0  0  0
    2.5810   -0.1925    0.0195 N   0  0  0  0  0  0  0  0  0  0  0  0
    1.4741    0.3604   -0.0425 C   0  0  0  0  0  0  0  0  0  0  0  0
    4.4719   -0.0575    0.0666 H   0  0  0  0  0  0  0  0  0  0  0  0
    1.2356    1.4155   -0.1069 H   0  0  0  0  0  0  0  0  0  0  0  0
   -3.9172    0.8891    0.0106 C   0  0  0  0  0  0  0  0  0  0  0  0
   -2.7077    0.0999    0.0041 C   0  0  0  0  0  3  0  0  0  0  0  0
   -1.7243   -0.6037    0.0001 C   0  0  0  0  0  0  0  0  0  0  0  0
   -0.5313   -1.3361   -0.0062 C   0  0  0  0  0  0  0  0  0  0  0  0
   -4.7884    0.2424    0.1267 H   0  0  0  0  0  0  0  0  0  0  0  0
   -4.0124    1.4388   -0.9262 H   0  0  0  0  0  0  0  0  0  0  0  0
   -3.8976    1.5985    0.8386 H   0  0  0  0  0  0  0  0  0  0  0  0
   -0.3531   -1.9099   -0.9087 H   0  0  0  0  0  0  0  0  0  0  0  0
   -0.3329   -1.8931    0.9025 H   0  0  0  0  0  0  0  0  0  0  0  0
    0.4816   -0.4568   -0.0250 H   0  0  0  0  0  0  0  0  0  0  0  0
  1  2  1  0
  1  4  1  0
  2  3  2  3
  3  5  1  0
  3 15  1  0
  6  7  1  0
  6 10  1  0
  6 11  1  0
  6 12  1  0
  7  8  2  0
  8  9  2  0
  9 13  1  0
  9 14  1  0
M  RAD  1   7   2
M  END
>  <reaction>  (29) 
rmg_rxn_15391

>  <mol_properties>  (29) 
{"1": {"label": "*4", "atom_type": "N3d"}, "2": {"label": "*3", "atom_type": "Cd"}, "7": {"label": "*0", "atom_type": "Ct"}, "8": {"label": "*1", "atom_type": "Cs"}, "14": {"label": "*2", "atom_type": "H0"}}

>  <type>  (29) 
unop_25

>  <geom_source>  (29) 
Heuristics

$$$$

     RDKit          3D

 15 13  0  0  0  0  0  0  0  0999 V2000
    3.8305    0.2925    0.3394 O   0  0  0  0  0  0  0  0  0  0  0  0
    3.4641   -0.5652   -0.6758 N   0  0  0  0  0  0  0  0  0  0  0  0
   -3.5243   -0.0071   -0.0995 C   0  0  0  0  0  0  0  0  0  0  0  0
    0.5335    0.4739    0.5103 C   0  0  0  0  0  0  0  0  0  0  0  0
    2.2412   -0.9618   -0.8212 C   0  0  0  0  0  0  0  0  0  0  0  0
   -2.0874    0.1632    0.1165 C   0  0  0  0  0  3  0  0  0  0  0  0
   -0.9034    0.3036    0.2944 C   0  0  0  0  0  0  0  0  0  0  0  0
   -3.8089   -1.0577    0.1153 H   0  0  0  0  0  0  0  0  0  0  0  0
   -3.7713    0.2346   -1.1538 H   0  0  0  0  0  0  0  0  0  0  0  0
   -4.0831    0.6727    0.5762 H   0  0  0  0  0  0  0  0  0  0  0  0
    1.9872   -1.6351   -1.6283 H   0  0  0  0  0  0  0  0  0  0  0  0
    1.3386   -0.5723   -0.0313 H   0  0  0  0  0  0  0  0  0  0  0  0
    0.9081    1.3009   -0.1273 H   0  0  0  0  0  0  0  0  0  0  0  0
    0.7215    0.7150    1.5768 H   0  0  0  0  0  0  0  0  0  0  0  0
    3.1536    0.6428    1.0083 H   0  0  0  0  0  0  0  0  0  0  0  0
  1  2  1  0
  1 15  1  0
  2  5  2  3
  3  6  1  0
  3  8  1  0
  3  9  1  0
  3 10  1  0
  4  7  2  0
  4 13  1  0
  4 14  1  0
  5 11  1  0
  5 12  1  0
  6  7  2  0
M  RAD  1   6   2
M  END
>  <reaction>  (30) 
rmg_rxn_15391

>  <mol_properties>  (30) 
{"1": {"label": "*4", "atom_type": "N3d"}, "2": {"label": "*3", "atom_type": "Cd"}, "7": {"label": "*0", "atom_type": "Ct"}, "8": {"label": "*1", "atom_type": "Cs"}, "14": {"label": "*2", "atom_type": "H0"}}

>  <type>  (30) 
unop_26

>  <geom_source>  (30) 
AutoTST

$$$$

     RDKit          3D

 15 13  0  0  0  0  0  0  0  0999 V2000
   -1.1088    2.7248    1.7523 O   0  0  0  0  0  0  0  0  0  0  0  0
   -0.6214    1.6540    1.0293 N   0  0  0  0  0  0  0  0  0  0  0  0
    0.0834    0.8857    1.7409 C   0  0  0  0  0  0  0  0  0  0  0  0
   -1.6162    3.2176    1.1043 H   0  0  0  0  0  0  0  0  0  0  0  0
    0.2685    1.0698    2.7970 H   0  0  0  0  0  0  0  0  0  0  0  0
    0.4964   -1.5153   -3.3025 C   0  0  0  0  0  0  0  0  0  0  0  0
    0.4964   -1.5153   -1.8452 C   0  0  0  0  0  3  0  0  0  0  0  0
    0.4964   -1.5153   -0.6467 C   0  0  0  0  0  0  0  0  0  0  0  0
    0.4964   -1.5153    0.8105 C   0  0  0  0  0  0  0  0  0  0  0  0
    1.4663   -1.8293   -3.6918 H   0  0  0  0  0  0  0  0  0  0  0  0
    0.2834   -0.5182   -3.6918 H   0  0  0  0  0  0  0  0  0  0  0  0
   -0.2606   -2.1982   -3.6918 H   0  0  0  0  0  0  0  0  0  0  0  0
    1.4529   -1.8680    1.1999 H   0  0  0  0  0  0  0  0  0  0  0  0
   -0.2873   -2.1673    1.1999 H   0  0  0  0  0  0  0  0  0  0  0  0
    0.2890   -0.3095    1.2777 H   0  0  0  0  0  0  0  0  0  0  0  0
  1  2  1  0
  1  4  1  0
  2  3  2  3
  3  5  1  0
  3 15  1  0
  6  7  1  0
  6 10  1  0
  6 11  1  0
  6 12  1  0
  7  8  2  0
  8  9  2  0
  9 13  1  0
  9 14  1  0
M  RAD  1   7   2
M  END
>  <reaction>  (31) 
rmg_rxn_15391

>  <mol_properties>  (31) 
{"1": {"label": "*4", "atom_type": "N3d"}, "2": {"label": "*3", "atom_type": "Cd"}, "7": {"label": "*0", "atom_type": "Ct"}, "8": {"label": "*1", "atom_type": "Cs"}, "14": {"label": "*2", "atom_type": "H0"}}

>  <type>  (31) 
unop_27

>  <geom_source>  (31) 
gaussian_log

$$$$
