
     RDKit          3D

 18 17  0  0  0  0  0  0  0  0999 V2000
    2.2026   -0.7213   -0.2612 C   0  0  0  0  0  0  0  0  0  0  0  0
    1.5384    0.2638    0.6915 C   0  0  0  0  0  0  0  0  0  0  0  0
    2.2584    1.5946    0.7694 C   0  0  0  0  0  0  0  0  0  0  0  0
    2.2212    2.2185   -0.4893 O   0  0  0  0  0  0  0  0  0  0  0  0
    2.8988    3.4488   -0.5204 C   0  0  0  0  0  0  0  0  0  0  0  0
    2.7981    4.0296   -1.9118 C   0  0  0  0  0  0  0  0  0  0  0  0
    3.2294   -0.9309    0.0486 H   0  0  0  0  0  0  0  0  0  0  0  0
    2.2338   -0.3181   -1.2734 H   0  0  0  0  0  0  0  0  0  0  0  0
    1.6610   -1.6680   -0.2875 H   0  0  0  0  0  0  0  0  0  0  0  0
    1.4990   -0.1566    1.7002 H   0  0  0  0  0  0  0  0  0  0  0  0
    0.5055    0.4455    0.3835 H   0  0  0  0  0  0  0  0  0  0  0  0
    3.3038    1.4410    1.0808 H   0  0  0  0  0  0  0  0  0  0  0  0
    1.7844    2.2410    1.5226 H   0  0  0  0  0  0  0  0  0  0  0  0
    2.4596    4.1376    0.2164 H   0  0  0  0  0  0  0  0  0  0  0  0
    3.9524    3.3035   -0.2397 H   0  0  0  0  0  0  0  0  0  0  0  0
    1.7543    4.1869   -2.1856 H   0  0  0  0  0  0  0  0  0  0  0  0
    3.2472    3.3545   -2.6411 H   0  0  0  0  0  0  0  0  0  0  0  0
    3.3178    4.9878   -1.9600 H   0  0  0  0  0  0  0  0  0  0  0  0
  1  2  1  0
  1  7  1  0
  1  8  1  0
  1  9  1  0
  2  3  1  0
  2 10  1  0
  2 11  1  0
  3  4  1  0
  3 12  1  0
  3 13  1  0
  4  5  1  0
  5  6  1  0
  5 14  1  0
  5 15  1  0
  6 16  1  0
  6 17  1  0
  6 18  1  0
M  END
>  <reaction>  (1) 
rmg_rxn_247

>  <mol_properties>  (1) 
{"1": {"label": "donator", "atom_type": "Cs"}, "9": {"label": "d_hydrogen", "atom_type": "H0"}}

>  <type>  (1) 
r1h

$$$$

     RDKit          3D

 17 16  0  0  0  0  0  0  0  0999 V2000
    2.3128   -0.1525    1.1777 C   0  0  0  0  0  3  0  0  0  0  0  0
    1.7469    0.7266    0.1254 C   0  0  0  0  0  0  0  0  0  0  0  0
    1.6374    2.1830    0.5408 C   0  0  0  0  0  0  0  0  0  0  0  0
    2.9245    2.6874    0.7877 O   0  0  0  0  0  0  0  0  0  0  0  0
    2.9227    4.0197    1.2361 C   0  0  0  0  0  0  0  0  0  0  0  0
    4.3491    4.4603    1.4693 C   0  0  0  0  0  0  0  0  0  0  0  0
    2.1393   -1.2196    1.1557 H   0  0  0  0  0  0  0  0  0  0  0  0
    3.0313    0.2400    1.8838 H   0  0  0  0  0  0  0  0  0  0  0  0
    0.7555    0.3746   -0.1764 H   0  0  0  0  0  0  0  0  0  0  0  0
    2.3678    0.6841   -0.7826 H   0  0  0  0  0  0  0  0  0  0  0  0
    1.0170    2.2718    1.4449 H   0  0  0  0  0  0  0  0  0  0  0  0
    1.1499    2.7653   -0.2546 H   0  0  0  0  0  0  0  0  0  0  0  0
    2.4379    4.6655    0.4891 H   0  0  0  0  0  0  0  0  0  0  0  0
    2.3377    4.1015    2.1638 H   0  0  0  0  0  0  0  0  0  0  0  0
    4.9261    4.3920    0.5465 H   0  0  0  0  0  0  0  0  0  0  0  0
    4.3728    5.4939    1.8180 H   0  0  0  0  0  0  0  0  0  0  0  0
    4.8260    3.8299    2.2206 H   0  0  0  0  0  0  0  0  0  0  0  0
  1  2  1  0
  1  7  1  0
  1  8  1  0
  2  3  1  0
  2  9  1  0
  2 10  1  0
  3  4  1  0
  3 11  1  0
  3 12  1  0
  4  5  1  0
  5  6  1  0
  5 13  1  0
  5 14  1  0
  6 15  1  0
  6 16  1  0
  6 17  1  0
M  RAD  1   1   2
M  END
>  <reaction>  (2) 
rmg_rxn_247

>  <mol_properties>  (2) 
{"0": {"label": "acceptor", "atom_type": "Cs"}}

>  <type>  (2) 
r2

$$$$

     RDKit          3D

 18 17  0  0  0  0  0  0  0  0999 V2000
    2.2026   -0.7213   -0.2612 C   0  0  0  0  0  0  0  0  0  0  0  0
    1.5384    0.2638    0.6915 C   0  0  0  0  0  0  0  0  0  0  0  0
    2.2584    1.5946    0.7694 C   0  0  0  0  0  0  0  0  0  0  0  0
    2.2212    2.2185   -0.4893 O   0  0  0  0  0  0  0  0  0  0  0  0
    2.8988    3.4488   -0.5204 C   0  0  0  0  0  0  0  0  0  0  0  0
    2.7981    4.0296   -1.9118 C   0  0  0  0  0  0  0  0  0  0  0  0
    3.2294   -0.9309    0.0486 H   0  0  0  0  0  0  0  0  0  0  0  0
    2.2338   -0.3181   -1.2734 H   0  0  0  0  0  0  0  0  0  0  0  0
    1.6610   -1.6680   -0.2875 H   0  0  0  0  0  0  0  0  0  0  0  0
    1.4990   -0.1566    1.7002 H   0  0  0  0  0  0  0  0  0  0  0  0
    0.5055    0.4455    0.3835 H   0  0  0  0  0  0  0  0  0  0  0  0
    3.3038    1.4410    1.0808 H   0  0  0  0  0  0  0  0  0  0  0  0
    1.7844    2.2410    1.5226 H   0  0  0  0  0  0  0  0  0  0  0  0
    2.4596    4.1376    0.2164 H   0  0  0  0  0  0  0  0  0  0  0  0
    3.9524    3.3035   -0.2397 H   0  0  0  0  0  0  0  0  0  0  0  0
    1.7543    4.1869   -2.1856 H   0  0  0  0  0  0  0  0  0  0  0  0
    3.2472    3.3545   -2.6411 H   0  0  0  0  0  0  0  0  0  0  0  0
    3.3178    4.9878   -1.9600 H   0  0  0  0  0  0  0  0  0  0  0  0
  1  2  1  0
  1  7  1  0
  1  8  1  0
  1  9  1  0
  2  3  1  0
  2 10  1  0
  2 11  1  0
  3  4  1  0
  3 12  1  0
  3 13  1  0
  4  5  1  0
  5  6  1  0
  5 14  1  0
  5 15  1  0
  6 16  1  0
  6 17  1  0
  6 18  1  0
M  END
>  <reaction>  (3) 
rmg_rxn_247

>  <mol_properties>  (3) 
{"0": {"label": "acceptor", "atom_type": "Cs"}, "17": {"label": "a_hydrogen", "atom_type": "H0"}}

>  <type>  (3) 
r2h

$$$$

     RDKit          3D

 35 33  0  0  0  0  0  0  0  0999 V2000
   -0.1029   -0.2382    1.4985 C   0  0  0  0  0  3  0  0  0  0  0  0
    1.1347   -0.4501    0.6669 C   0  0  0  0  0  0  0  0  0  0  0  0
    2.2380   -1.1977    1.3978 C   0  0  0  0  0  0  0  0  0  0  0  0
    1.7917   -2.4927    1.7063 O   0  0  0  0  0  0  0  0  0  0  0  0
    2.7376   -3.2527    2.4150 C   0  0  0  0  0  0  0  0  0  0  0  0
    2.1584   -4.6203    2.6935 C   0  0  0  0  0  0  0  0  0  0  0  0
   -0.6060   -1.1540    1.7992 H   0  0  0  0  0  0  0  0  0  0  0  0
    0.0189    0.4542    2.3309 H   0  0  0  0  0  0  0  0  0  0  0  0
    1.5411    0.5129    0.3441 H   0  0  0  0  0  0  0  0  0  0  0  0
    0.8857   -1.0107   -0.2388 H   0  0  0  0  0  0  0  0  0  0  0  0
    2.5107   -0.6618    2.3199 H   0  0  0  0  0  0  0  0  0  0  0  0
    3.1391   -1.2498    0.7683 H   0  0  0  0  0  0  0  0  0  0  0  0
    3.6643   -3.3397    1.8286 H   0  0  0  0  0  0  0  0  0  0  0  0
    2.9962   -2.7456    3.3562 H   0  0  0  0  0  0  0  0  0  0  0  0
    1.9143   -5.1292    1.7603 H   0  0  0  0  0  0  0  0  0  0  0  0
    2.8766   -5.2300    3.2438 H   0  0  0  0  0  0  0  0  0  0  0  0
    1.2479   -4.5357    3.2877 H   0  0  0  0  0  0  0  0  0  0  0  0
   -2.3638   -0.2427   -1.0264 C   0  0  0  0  0  0  0  0  0  0  0  0
   -1.8330    0.9043   -0.2075 C   0  0  0  0  0  0  0  0  0  0  0  0
   -0.9814    1.8971   -0.9431 C   0  0  0  0  0  0  0  0  0  0  0  0
   -1.7657    2.5995   -1.8821 O   0  0  0  0  0  0  0  0  0  0  0  0
   -1.0259    3.5294   -2.6328 C   0  0  0  0  0  0  0  0  0  0  0  0
   -1.9517    4.2221   -3.6057 C   0  0  0  0  0  0  0  0  0  0  0  0
   -1.5490   -0.7749   -1.5249 H   0  0  0  0  0  0  0  0  0  0  0  0
   -3.0486    0.1119   -1.8015 H   0  0  0  0  0  0  0  0  0  0  0  0
   -2.9015   -0.9587   -0.4028 H   0  0  0  0  0  0  0  0  0  0  0  0
   -1.0104    0.3711    0.6890 H   0  0  0  0  0  0  0  0  0  0  0  0
   -2.5914    1.3890    0.4078 H   0  0  0  0  0  0  0  0  0  0  0  0
   -0.1615    1.3758   -1.4623 H   0  0  0  0  0  0  0  0  0  0  0  0
   -0.5232    2.6054   -0.2365 H   0  0  0  0  0  0  0  0  0  0  0  0
   -0.5543    4.2630   -1.9620 H   0  0  0  0  0  0  0  0  0  0  0  0
   -0.2157    3.0162   -3.1718 H   0  0  0  0  0  0  0  0  0  0  0  0
   -2.7470    4.7430   -3.0715 H   0  0  0  0  0  0  0  0  0  0  0  0
   -2.4082    3.4971   -4.2805 H   0  0  0  0  0  0  0  0  0  0  0  0
   -1.3987    4.9503   -4.2012 H   0  0  0  0  0  0  0  0  0  0  0  0
  1  2  1  0
  1  7  1  0
  1  8  1  0
  2  3  1  0
  2  9  1  0
  2 10  1  0
  3  4  1  0
  3 11  1  0
  3 12  1  0
  4  5  1  0
  5  6  1  0
  5 13  1  0
  5 14  1  0
  6 15  1  0
  6 16  1  0
  6 17  1  0
 18 19  1  0
 18 24  1  0
 18 25  1  0
 18 26  1  0
 19 20  1  0
 19 27  1  0
 19 28  1  0
 20 21  1  0
 20 29  1  0
 20 30  1  0
 21 22  1  0
 22 23  1  0
 22 31  1  0
 22 32  1  0
 23 33  1  0
 23 34  1  0
 23 35  1  0
M  RAD  1   1   2
M  END
>  <reaction>  (4) 
rmg_rxn_247

>  <mol_properties>  (4) 
{"0": {"label": "*3", "atom_type": "Cs"}, "1": {"label": "*4", "atom_type": "Cs"}, "18": {"label": "*1", "atom_type": "Cs"}, "19": {"label": "*0", "atom_type": "Cs"}, "26": {"label": "*2", "atom_type": "H0"}}

>  <type>  (4) 
ts

$$$$

     RDKit          3D

 35 33  0  0  0  0  0  0  0  0999 V2000
    0.5447   -1.2188   -0.3779 C   0  0  0  0  0  0  0  0  0  0  0  0
    1.4076   -0.3010    0.4778 C   0  0  0  0  0  0  0  0  0  0  0  0
    1.9741   -0.9880    1.7034 C   0  0  0  0  0  0  0  0  0  0  0  0
    2.8301   -2.0273    1.3008 O   0  0  0  0  0  0  0  0  0  0  0  0
    3.3764   -2.7463    2.3770 C   0  0  0  0  0  0  0  0  0  0  0  0
    4.2749   -3.8338    1.8352 C   0  0  0  0  0  0  0  0  0  0  0  0
    1.1225   -2.0726   -0.7318 H   0  0  0  0  0  0  0  0  0  0  0  0
   -0.3037   -1.6017    0.1949 H   0  0  0  0  0  0  0  0  0  0  0  0
    0.8225    0.5592    0.8149 H   0  0  0  0  0  0  0  0  0  0  0  0
    2.2377    0.0931   -0.1141 H   0  0  0  0  0  0  0  0  0  0  0  0
    1.1570   -1.3935    2.3210 H   0  0  0  0  0  0  0  0  0  0  0  0
    2.5259   -0.2667    2.3240 H   0  0  0  0  0  0  0  0  0  0  0  0
    3.9448   -2.0684    3.0311 H   0  0  0  0  0  0  0  0  0  0  0  0
    2.5696   -3.1815    2.9850 H   0  0  0  0  0  0  0  0  0  0  0  0
    5.0831   -3.4024    1.2437 H   0  0  0  0  0  0  0  0  0  0  0  0
    4.7120   -4.4064    2.6548 H   0  0  0  0  0  0  0  0  0  0  0  0
    3.7090   -4.5154    1.1991 H   0  0  0  0  0  0  0  0  0  0  0  0
   -1.5685    0.0432   -2.8028 C   0  0  0  0  0  0  0  0  0  0  0  0
   -1.5685    0.0432   -1.2799 C   0  0  0  0  0  3  0  0  0  0  0  0
   -1.5685    1.4363   -0.6844 C   0  0  0  0  0  0  0  0  0  0  0  0
   -2.7515    2.0999   -1.0520 O   0  0  0  0  0  0  0  0  0  0  0  0
   -2.8222    3.4179   -0.5711 C   0  0  0  0  0  0  0  0  0  0  0  0
   -4.1255    4.0357   -1.0219 C   0  0  0  0  0  0  0  0  0  0  0  0
   -0.6864    0.5575   -3.1924 H   0  0  0  0  0  0  0  0  0  0  0  0
   -2.4512    0.5529   -3.1889 H   0  0  0  0  0  0  0  0  0  0  0  0
   -1.5630   -0.9747   -3.1955 H   0  0  0  0  0  0  0  0  0  0  0  0
   -0.5107   -0.5886   -0.8284 H   0  0  0  0  0  0  0  0  0  0  0  0
   -2.4429   -0.4948   -0.9046 H   0  0  0  0  0  0  0  0  0  0  0  0
   -0.6943    2.0014   -1.0448 H   0  0  0  0  0  0  0  0  0  0  0  0
   -1.4937    1.3824    0.4117 H   0  0  0  0  0  0  0  0  0  0  0  0
   -2.7550    3.4208    0.5270 H   0  0  0  0  0  0  0  0  0  0  0  0
   -1.9693    4.0009   -0.9490 H   0  0  0  0  0  0  0  0  0  0  0  0
   -4.9719    3.4663   -0.6362 H   0  0  0  0  0  0  0  0  0  0  0  0
   -4.1863    4.0476   -2.1107 H   0  0  0  0  0  0  0  0  0  0  0  0
   -4.2031    5.0617   -0.6589 H   0  0  0  0  0  0  0  0  0  0  0  0
  1  2  1  0
  1  7  1  0
  1  8  1  0
  1 27  1  0
  2  3  1  0
  2  9  1  0
  2 10  1  0
  3  4  1  0
  3 11  1  0
  3 12  1  0
  4  5  1  0
  5  6  1  0
  5 13  1  0
  5 14  1  0
  6 15  1  0
  6 16  1  0
  6 17  1  0
 18 19  1  0
 18 24  1  0
 18 25  1  0
 18 26  1  0
 19 20  1  0
 19 28  1  0
 20 21  1  0
 20 29  1  0
 20 30  1  0
 21 22  1  0
 22 23  1  0
 22 31  1  0
 22 32  1  0
 23 33  1  0
 23 34  1  0
 23 35  1  0
M  RAD  1  19   2
M  END
>  <reaction>  (5) 
rmg_rxn_247

>  <mol_properties>  (5) 
{"0": {"label": "*3", "atom_type": "Cs"}, "1": {"label": "*4", "atom_type": "Cs"}, "18": {"label": "*1", "atom_type": "Cs"}, "19": {"label": "*0", "atom_type": "Cs"}, "26": {"label": "*2", "atom_type": "H0"}}

>  <type>  (5) 
unop_1

>  <geom_source>  (5) 
Heuristics

$$$$

     RDKit          3D

 35 33  0  0  0  0  0  0  0  0999 V2000
    0.3396   -0.9709    0.3674 C   0  0  0  0  0  0  0  0  0  0  0  0
    1.5093   -0.8419   -0.5993 C   0  0  0  0  0  0  0  0  0  0  0  0
    2.8473   -1.1517    0.0401 C   0  0  0  0  0  0  0  0  0  0  0  0
    2.8635   -2.4928    0.4599 O   0  0  0  0  0  0  0  0  0  0  0  0
    4.0589   -2.8609    1.0995 C   0  0  0  0  0  0  0  0  0  0  0  0
    3.9699   -4.3130    1.5083 C   0  0  0  0  0  0  0  0  0  0  0  0
    0.2750   -1.9848    0.7622 H   0  0  0  0  0  0  0  0  0  0  0  0
    0.4558   -0.2881    1.2128 H   0  0  0  0  0  0  0  0  0  0  0  0
    1.5556    0.1743   -1.0004 H   0  0  0  0  0  0  0  0  0  0  0  0
    1.3679   -1.5124   -1.4509 H   0  0  0  0  0  0  0  0  0  0  0  0
    3.0172   -0.4871    0.9020 H   0  0  0  0  0  0  0  0  0  0  0  0
    3.6627   -0.9730   -0.6762 H   0  0  0  0  0  0  0  0  0  0  0  0
    4.9109   -2.7040    0.4215 H   0  0  0  0  0  0  0  0  0  0  0  0
    4.2245   -2.2230    1.9802 H   0  0  0  0  0  0  0  0  0  0  0  0
    3.8195   -4.9475    0.6342 H   0  0  0  0  0  0  0  0  0  0  0  0
    4.8894   -4.6223    2.0077 H   0  0  0  0  0  0  0  0  0  0  0  0
    3.1349   -4.4668    2.1928 H   0  0  0  0  0  0  0  0  0  0  0  0
   -1.7736    0.2912   -2.0575 C   0  0  0  0  0  0  0  0  0  0  0  0
   -1.7736    0.2912   -0.5346 C   0  0  0  0  0  3  0  0  0  0  0  0
   -1.7736    1.6842    0.0609 C   0  0  0  0  0  0  0  0  0  0  0  0
   -2.9566    2.3478   -0.3067 O   0  0  0  0  0  0  0  0  0  0  0  0
   -3.0273    3.6659    0.1742 C   0  0  0  0  0  0  0  0  0  0  0  0
   -4.3306    4.2837   -0.2766 C   0  0  0  0  0  0  0  0  0  0  0  0
   -0.8915    0.8055   -2.4471 H   0  0  0  0  0  0  0  0  0  0  0  0
   -2.6563    0.8009   -2.4436 H   0  0  0  0  0  0  0  0  0  0  0  0
   -1.7681   -0.7267   -2.4502 H   0  0  0  0  0  0  0  0  0  0  0  0
   -0.7157   -0.3406   -0.0831 H   0  0  0  0  0  0  0  0  0  0  0  0
   -2.6479   -0.2468   -0.1593 H   0  0  0  0  0  0  0  0  0  0  0  0
   -0.8994    2.2493   -0.2995 H   0  0  0  0  0  0  0  0  0  0  0  0
   -1.6988    1.6303    1.1570 H   0  0  0  0  0  0  0  0  0  0  0  0
   -2.9600    3.6688    1.2723 H   0  0  0  0  0  0  0  0  0  0  0  0
   -2.1744    4.2489   -0.2037 H   0  0  0  0  0  0  0  0  0  0  0  0
   -5.1770    3.7143    0.1091 H   0  0  0  0  0  0  0  0  0  0  0  0
   -4.3914    4.2955   -1.3654 H   0  0  0  0  0  0  0  0  0  0  0  0
   -4.4082    5.3097    0.0864 H   0  0  0  0  0  0  0  0  0  0  0  0
  1  2  1  0
  1  7  1  0
  1  8  1  0
  1 27  1  0
  2  3  1  0
  2  9  1  0
  2 10  1  0
  3  4  1  0
  3 11  1  0
  3 12  1  0
  4  5  1  0
  5  6  1  0
  5 13  1  0
  5 14  1  0
  6 15  1  0
  6 16  1  0
  6 17  1  0
 18 19  1  0
 18 24  1  0
 18 25  1  0
 18 26  1  0
 19 20  1  0
 19 28  1  0
 20 21  1  0
 20 29  1  0
 20 30  1  0
 21 22  1  0
 22 23  1  0
 22 31  1  0
 22 32  1  0
 23 33  1  0
 23 34  1  0
 23 35  1  0
M  RAD  1  19   2
M  END
>  <reaction>  (6) 
rmg_rxn_247

>  <mol_properties>  (6) 
{"0": {"label": "*3", "atom_type": "Cs"}, "1": {"label": "*4", "atom_type": "Cs"}, "18": {"label": "*1", "atom_type": "Cs"}, "19": {"label": "*0", "atom_type": "Cs"}, "26": {"label": "*2", "atom_type": "H0"}}

>  <type>  (6) 
unop_2

>  <geom_source>  (6) 
Heuristics

$$$$

     RDKit          3D

 35 33  0  0  0  0  0  0  0  0999 V2000
    0.5421   -1.1238   -0.3292 C   0  0  0  0  0  0  0  0  0  0  0  0
    0.9847   -0.5607    1.0148 C   0  0  0  0  0  0  0  0  0  0  0  0
    1.6721   -1.5862    1.8930 C   0  0  0  0  0  0  0  0  0  0  0  0
    2.8545   -2.0171    1.2676 O   0  0  0  0  0  0  0  0  0  0  0  0
    3.5433   -3.0001    1.9976 C   0  0  0  0  0  0  0  0  0  0  0  0
    4.7908   -3.3905    1.2394 C   0  0  0  0  0  0  0  0  0  0  0  0
    1.3973   -1.4997   -0.8908 H   0  0  0  0  0  0  0  0  0  0  0  0
   -0.1599   -1.9503   -0.1931 H   0  0  0  0  0  0  0  0  0  0  0  0
    0.1215   -0.1731    1.5630 H   0  0  0  0  0  0  0  0  0  0  0  0
    1.6670    0.2797    0.8632 H   0  0  0  0  0  0  0  0  0  0  0  0
    1.0042   -2.4452    2.0645 H   0  0  0  0  0  0  0  0  0  0  0  0
    1.9047   -1.1515    2.8762 H   0  0  0  0  0  0  0  0  0  0  0  0
    3.8041   -2.6136    2.9940 H   0  0  0  0  0  0  0  0  0  0  0  0
    2.8958   -3.8763    2.1497 H   0  0  0  0  0  0  0  0  0  0  0  0
    5.4398   -2.5252    1.1002 H   0  0  0  0  0  0  0  0  0  0  0  0
    5.3436   -4.1542    1.7888 H   0  0  0  0  0  0  0  0  0  0  0  0
    4.5324   -3.7884    0.2574 H   0  0  0  0  0  0  0  0  0  0  0  0
   -1.5711    0.1382   -2.7541 C   0  0  0  0  0  0  0  0  0  0  0  0
   -1.5711    0.1382   -1.2312 C   0  0  0  0  0  3  0  0  0  0  0  0
   -1.5711    1.5313   -0.6357 C   0  0  0  0  0  0  0  0  0  0  0  0
   -2.7541    2.1949   -1.0033 O   0  0  0  0  0  0  0  0  0  0  0  0
   -2.8248    3.5130   -0.5224 C   0  0  0  0  0  0  0  0  0  0  0  0
   -4.1281    4.1307   -0.9732 C   0  0  0  0  0  0  0  0  0  0  0  0
   -0.6890    0.6526   -3.1437 H   0  0  0  0  0  0  0  0  0  0  0  0
   -2.4538    0.6479   -3.1402 H   0  0  0  0  0  0  0  0  0  0  0  0
   -1.5656   -0.8796   -3.1467 H   0  0  0  0  0  0  0  0  0  0  0  0
   -0.5133   -0.4935   -0.7796 H   0  0  0  0  0  0  0  0  0  0  0  0
   -2.4455   -0.3997   -0.8559 H   0  0  0  0  0  0  0  0  0  0  0  0
   -0.6969    2.0964   -0.9960 H   0  0  0  0  0  0  0  0  0  0  0  0
   -1.4963    1.4774    0.4604 H   0  0  0  0  0  0  0  0  0  0  0  0
   -2.7575    3.5158    0.5757 H   0  0  0  0  0  0  0  0  0  0  0  0
   -1.9719    4.0959   -0.9002 H   0  0  0  0  0  0  0  0  0  0  0  0
   -4.9745    3.5613   -0.5875 H   0  0  0  0  0  0  0  0  0  0  0  0
   -4.1889    4.1426   -2.0620 H   0  0  0  0  0  0  0  0  0  0  0  0
   -4.2057    5.1568   -0.6101 H   0  0  0  0  0  0  0  0  0  0  0  0
  1  2  1  0
  1  7  1  0
  1  8  1  0
  1 27  1  0
  2  3  1  0
  2  9  1  0
  2 10  1  0
  3  4  1  0
  3 11  1  0
  3 12  1  0
  4  5  1  0
  5  6  1  0
  5 13  1  0
  5 14  1  0
  6 15  1  0
  6 16  1  0
  6 17  1  0
 18 19  1  0
 18 24  1  0
 18 25  1  0
 18 26  1  0
 19 20  1  0
 19 28  1  0
 20 21  1  0
 20 29  1  0
 20 30  1  0
 21 22  1  0
 22 23  1  0
 22 31  1  0
 22 32  1  0
 23 33  1  0
 23 34  1  0
 23 35  1  0
M  RAD  1  19   2
M  END
>  <reaction>  (7) 
rmg_rxn_247

>  <mol_properties>  (7) 
{"0": {"label": "*3", "atom_type": "Cs"}, "1": {"label": "*4", "atom_type": "Cs"}, "18": {"label": "*1", "atom_type": "Cs"}, "19": {"label": "*0", "atom_type": "Cs"}, "26": {"label": "*2", "atom_type": "H0"}}

>  <type>  (7) 
unop_3

>  <geom_source>  (7) 
Heuristics

$$$$

     RDKit          3D

 35 33  0  0  0  0  0  0  0  0999 V2000
    1.4182   -0.4828   -0.2801 C   0  0  0  0  0  0  0  0  0  0  0  0
    1.4390   -1.9285   -0.7585 C   0  0  0  0  0  0  0  0  0  0  0  0
    2.0963   -2.8726    0.2273 C   0  0  0  0  0  0  0  0  0  0  0  0
    1.3540   -2.8909    1.4205 O   0  0  0  0  0  0  0  0  0  0  0  0
    1.9122   -3.7170    2.4101 C   0  0  0  0  0  0  0  0  0  0  0  0
    1.0410   -3.6629    3.6436 C   0  0  0  0  0  0  0  0  0  0  0  0
    0.8695   -0.3943    0.6576 H   0  0  0  0  0  0  0  0  0  0  0  0
    2.4329   -0.1136   -0.1115 H   0  0  0  0  0  0  0  0  0  0  0  0
    1.9786   -2.0033   -1.7066 H   0  0  0  0  0  0  0  0  0  0  0  0
    0.4199   -2.2765   -0.9458 H   0  0  0  0  0  0  0  0  0  0  0  0
    3.1281   -2.5461    0.4328 H   0  0  0  0  0  0  0  0  0  0  0  0
    2.1523   -3.8866   -0.1952 H   0  0  0  0  0  0  0  0  0  0  0  0
    1.9881   -4.7496    2.0381 H   0  0  0  0  0  0  0  0  0  0  0  0
    2.9333   -3.3822    2.6456 H   0  0  0  0  0  0  0  0  0  0  0  0
    0.0321   -4.0078    3.4143 H   0  0  0  0  0  0  0  0  0  0  0  0
    1.4554   -4.2988    4.4275 H   0  0  0  0  0  0  0  0  0  0  0  0
    0.9778   -2.6421    4.0223 H   0  0  0  0  0  0  0  0  0  0  0  0
   -0.6950    0.7792   -2.7050 C   0  0  0  0  0  0  0  0  0  0  0  0
   -0.6950    0.7792   -1.1821 C   0  0  0  0  0  3  0  0  0  0  0  0
   -0.6950    2.1723   -0.5866 C   0  0  0  0  0  0  0  0  0  0  0  0
   -1.8780    2.8359   -0.9542 O   0  0  0  0  0  0  0  0  0  0  0  0
   -1.9487    4.1539   -0.4733 C   0  0  0  0  0  0  0  0  0  0  0  0
   -3.2520    4.7717   -0.9241 C   0  0  0  0  0  0  0  0  0  0  0  0
    0.1871    1.2935   -3.0946 H   0  0  0  0  0  0  0  0  0  0  0  0
   -1.5777    1.2889   -3.0911 H   0  0  0  0  0  0  0  0  0  0  0  0
   -0.6895   -0.2387   -3.0977 H   0  0  0  0  0  0  0  0  0  0  0  0
    0.3628    0.1474   -0.7305 H   0  0  0  0  0  0  0  0  0  0  0  0
   -1.5694    0.2412   -0.8068 H   0  0  0  0  0  0  0  0  0  0  0  0
    0.1792    2.7373   -0.9470 H   0  0  0  0  0  0  0  0  0  0  0  0
   -0.6202    2.1183    0.5095 H   0  0  0  0  0  0  0  0  0  0  0  0
   -1.8815    4.1568    0.6248 H   0  0  0  0  0  0  0  0  0  0  0  0
   -1.0958    4.7369   -0.8511 H   0  0  0  0  0  0  0  0  0  0  0  0
   -4.0984    4.2023   -0.5384 H   0  0  0  0  0  0  0  0  0  0  0  0
   -3.3128    4.7836   -2.0129 H   0  0  0  0  0  0  0  0  0  0  0  0
   -3.3296    5.7977   -0.5610 H   0  0  0  0  0  0  0  0  0  0  0  0
  1  2  1  0
  1  7  1  0
  1  8  1  0
  1 27  1  0
  2  3  1  0
  2  9  1  0
  2 10  1  0
  3  4  1  0
  3 11  1  0
  3 12  1  0
  4  5  1  0
  5  6  1  0
  5 13  1  0
  5 14  1  0
  6 15  1  0
  6 16  1  0
  6 17  1  0
 18 19  1  0
 18 24  1  0
 18 25  1  0
 18 26  1  0
 19 20  1  0
 19 28  1  0
 20 21  1  0
 20 29  1  0
 20 30  1  0
 21 22  1  0
 22 23  1  0
 22 31  1  0
 22 32  1  0
 23 33  1  0
 23 34  1  0
 23 35  1  0
M  RAD  1  19   2
M  END
>  <reaction>  (8) 
rmg_rxn_247

>  <mol_properties>  (8) 
{"0": {"label": "*3", "atom_type": "Cs"}, "1": {"label": "*4", "atom_type": "Cs"}, "18": {"label": "*1", "atom_type": "Cs"}, "19": {"label": "*0", "atom_type": "Cs"}, "26": {"label": "*2", "atom_type": "H0"}}

>  <type>  (8) 
unop_4

>  <geom_source>  (8) 
Heuristics

$$$$

     RDKit          3D

 35 33  0  0  0  0  0  0  0  0999 V2000
    0.4665   -1.4273   -0.3406 C   0  0  0  0  0  0  0  0  0  0  0  0
    0.4886   -1.4405    1.1821 C   0  0  0  0  0  0  0  0  0  0  0  0
    1.6892   -2.1662    1.7539 C   0  0  0  0  0  0  0  0  0  0  0  0
    2.8637   -1.4939    1.3751 O   0  0  0  0  0  0  0  0  0  0  0  0
    4.0351   -2.1194    1.8336 C   0  0  0  0  0  0  0  0  0  0  0  0
    5.2314   -1.3197    1.3723 C   0  0  0  0  0  0  0  0  0  0  0  0
    1.3537   -0.9321   -0.7353 H   0  0  0  0  0  0  0  0  0  0  0  0
    0.4446   -2.4448   -0.7388 H   0  0  0  0  0  0  0  0  0  0  0  0
   -0.4125   -1.9258    1.5673 H   0  0  0  0  0  0  0  0  0  0  0  0
    0.4861   -0.4172    1.5663 H   0  0  0  0  0  0  0  0  0  0  0  0
    1.7152   -3.2035    1.3841 H   0  0  0  0  0  0  0  0  0  0  0  0
    1.6203   -2.2118    2.8508 H   0  0  0  0  0  0  0  0  0  0  0  0
    4.0187   -2.1879    2.9315 H   0  0  0  0  0  0  0  0  0  0  0  0
    4.0872   -3.1475    1.4460 H   0  0  0  0  0  0  0  0  0  0  0  0
    5.1877   -0.3042    1.7675 H   0  0  0  0  0  0  0  0  0  0  0  0
    6.1548   -1.7872    1.7179 H   0  0  0  0  0  0  0  0  0  0  0  0
    5.2572   -1.2644    0.2834 H   0  0  0  0  0  0  0  0  0  0  0  0
   -1.6467   -0.1652   -2.7656 C   0  0  0  0  0  0  0  0  0  0  0  0
   -1.6467   -0.1652   -1.2427 C   0  0  0  0  0  3  0  0  0  0  0  0
   -1.6467    1.2278   -0.6471 C   0  0  0  0  0  0  0  0  0  0  0  0
   -2.8297    1.8914   -1.0147 O   0  0  0  0  0  0  0  0  0  0  0  0
   -2.9004    3.2095   -0.5338 C   0  0  0  0  0  0  0  0  0  0  0  0
   -4.2037    3.8273   -0.9847 C   0  0  0  0  0  0  0  0  0  0  0  0
   -0.7646    0.3491   -3.1552 H   0  0  0  0  0  0  0  0  0  0  0  0
   -2.5294    0.3445   -3.1516 H   0  0  0  0  0  0  0  0  0  0  0  0
   -1.6412   -1.1831   -3.1582 H   0  0  0  0  0  0  0  0  0  0  0  0
   -0.5889   -0.7970   -0.7911 H   0  0  0  0  0  0  0  0  0  0  0  0
   -2.5211   -0.7032   -0.8674 H   0  0  0  0  0  0  0  0  0  0  0  0
   -0.7725    1.7929   -1.0075 H   0  0  0  0  0  0  0  0  0  0  0  0
   -1.5719    1.1739    0.4489 H   0  0  0  0  0  0  0  0  0  0  0  0
   -2.8331    3.2124    0.5642 H   0  0  0  0  0  0  0  0  0  0  0  0
   -2.0475    3.7925   -0.9117 H   0  0  0  0  0  0  0  0  0  0  0  0
   -5.0501    3.2579   -0.5990 H   0  0  0  0  0  0  0  0  0  0  0  0
   -4.2645    3.8391   -2.0735 H   0  0  0  0  0  0  0  0  0  0  0  0
   -4.2813    4.8533   -0.6216 H   0  0  0  0  0  0  0  0  0  0  0  0
  1  2  1  0
  1  7  1  0
  1  8  1  0
  1 27  1  0
  2  3  1  0
  2  9  1  0
  2 10  1  0
  3  4  1  0
  3 11  1  0
  3 12  1  0
  4  5  1  0
  5  6  1  0
  5 13  1  0
  5 14  1  0
  6 15  1  0
  6 16  1  0
  6 17  1  0
 18 19  1  0
 18 24  1  0
 18 25  1  0
 18 26  1  0
 19 20  1  0
 19 28  1  0
 20 21  1  0
 20 29  1  0
 20 30  1  0
 21 22  1  0
 22 23  1  0
 22 31  1  0
 22 32  1  0
 23 33  1  0
 23 34  1  0
 23 35  1  0
M  RAD  1  19   2
M  END
>  <reaction>  (9) 
rmg_rxn_247

>  <mol_properties>  (9) 
{"0": {"label": "*3", "atom_type": "Cs"}, "1": {"label": "*4", "atom_type": "Cs"}, "18": {"label": "*1", "atom_type": "Cs"}, "19": {"label": "*0", "atom_type": "Cs"}, "26": {"label": "*2", "atom_type": "H0"}}

>  <type>  (9) 
unop_5

>  <geom_source>  (9) 
Heuristics

$$$$

     RDKit          3D

 35 33  0  0  0  0  0  0  0  0999 V2000
    1.4798   -0.8773   -0.6617 C   0  0  0  0  0  0  0  0  0  0  0  0
    1.1931   -2.3610   -0.4731 C   0  0  0  0  0  0  0  0  0  0  0  0
    1.8360   -2.9383    0.7713 C   0  0  0  0  0  0  0  0  0  0  0  0
    1.2960   -2.3122    1.9077 O   0  0  0  0  0  0  0  0  0  0  0  0
    1.8620   -2.7620    3.1123 C   0  0  0  0  0  0  0  0  0  0  0  0
    1.2142   -2.0278    4.2633 C   0  0  0  0  0  0  0  0  0  0  0  0
    1.1057   -0.3012    0.1846 H   0  0  0  0  0  0  0  0  0  0  0  0
    2.5543   -0.6953   -0.7432 H   0  0  0  0  0  0  0  0  0  0  0  0
    1.5589   -2.9273   -1.3341 H   0  0  0  0  0  0  0  0  0  0  0  0
    0.1147   -2.5308   -0.4173 H   0  0  0  0  0  0  0  0  0  0  0  0
    2.9261   -2.7829    0.7403 H   0  0  0  0  0  0  0  0  0  0  0  0
    1.6617   -4.0231    0.8223 H   0  0  0  0  0  0  0  0  0  0  0  0
    1.7119   -3.8470    3.2152 H   0  0  0  0  0  0  0  0  0  0  0  0
    2.9476   -2.5848    3.1053 H   0  0  0  0  0  0  0  0  0  0  0  0
    0.1398   -2.2141    4.2792 H   0  0  0  0  0  0  0  0  0  0  0  0
    1.6384   -2.3619    5.2115 H   0  0  0  0  0  0  0  0  0  0  0  0
    1.3758   -0.9533    4.1705 H   0  0  0  0  0  0  0  0  0  0  0  0
   -0.6334    0.3848   -3.0866 C   0  0  0  0  0  0  0  0  0  0  0  0
   -0.6334    0.3848   -1.5637 C   0  0  0  0  0  3  0  0  0  0  0  0
   -0.6334    1.7778   -0.9682 C   0  0  0  0  0  0  0  0  0  0  0  0
   -1.8164    2.4414   -1.3358 O   0  0  0  0  0  0  0  0  0  0  0  0
   -1.8871    3.7595   -0.8549 C   0  0  0  0  0  0  0  0  0  0  0  0
   -3.1904    4.3773   -1.3057 C   0  0  0  0  0  0  0  0  0  0  0  0
    0.2487    0.8991   -3.4763 H   0  0  0  0  0  0  0  0  0  0  0  0
   -1.5161    0.8945   -3.4727 H   0  0  0  0  0  0  0  0  0  0  0  0
   -0.6279   -0.6331   -3.4793 H   0  0  0  0  0  0  0  0  0  0  0  0
    0.4244   -0.2470   -1.1122 H   0  0  0  0  0  0  0  0  0  0  0  0
   -1.5078   -0.1532   -1.1885 H   0  0  0  0  0  0  0  0  0  0  0  0
    0.2408    2.3429   -1.3286 H   0  0  0  0  0  0  0  0  0  0  0  0
   -0.5586    1.7239    0.1278 H   0  0  0  0  0  0  0  0  0  0  0  0
   -1.8199    3.7623    0.2432 H   0  0  0  0  0  0  0  0  0  0  0  0
   -1.0343    4.3425   -1.2328 H   0  0  0  0  0  0  0  0  0  0  0  0
   -4.0368    3.8079   -0.9201 H   0  0  0  0  0  0  0  0  0  0  0  0
   -3.2513    4.3891   -2.3946 H   0  0  0  0  0  0  0  0  0  0  0  0
   -3.2681    5.4033   -0.9427 H   0  0  0  0  0  0  0  0  0  0  0  0
  1  2  1  0
  1  7  1  0
  1  8  1  0
  1 27  1  0
  2  3  1  0
  2  9  1  0
  2 10  1  0
  3  4  1  0
  3 11  1  0
  3 12  1  0
  4  5  1  0
  5  6  1  0
  5 13  1  0
  5 14  1  0
  6 15  1  0
  6 16  1  0
  6 17  1  0
 18 19  1  0
 18 24  1  0
 18 25  1  0
 18 26  1  0
 19 20  1  0
 19 28  1  0
 20 21  1  0
 20 29  1  0
 20 30  1  0
 21 22  1  0
 22 23  1  0
 22 31  1  0
 22 32  1  0
 23 33  1  0
 23 34  1  0
 23 35  1  0
M  RAD  1  19   2
M  END
>  <reaction>  (10) 
rmg_rxn_247

>  <mol_properties>  (10) 
{"0": {"label": "*3", "atom_type": "Cs"}, "1": {"label": "*4", "atom_type": "Cs"}, "18": {"label": "*1", "atom_type": "Cs"}, "19": {"label": "*0", "atom_type": "Cs"}, "26": {"label": "*2", "atom_type": "H0"}}

>  <type>  (10) 
unop_6

>  <geom_source>  (10) 
Heuristics

$$$$

     RDKit          3D

 35 33  0  0  0  0  0  0  0  0999 V2000
    1.2632   -1.3656   -0.8188 C   0  0  0  0  0  0  0  0  0  0  0  0
    0.8643   -2.5606    0.0368 C   0  0  0  0  0  0  0  0  0  0  0  0
    1.7471   -2.7423    1.2546 C   0  0  0  0  0  0  0  0  0  0  0  0
    1.6135   -1.6257    2.0974 O   0  0  0  0  0  0  0  0  0  0  0  0
    2.4271   -1.6915    3.2408 C   0  0  0  0  0  0  0  0  0  0  0  0
    2.2074   -0.4486    4.0718 C   0  0  0  0  0  0  0  0  0  0  0  0
    1.2037   -0.4417   -0.2435 H   0  0  0  0  0  0  0  0  0  0  0  0
    2.2892   -1.4705   -1.1804 H   0  0  0  0  0  0  0  0  0  0  0  0
    0.9132   -3.4795   -0.5540 H   0  0  0  0  0  0  0  0  0  0  0  0
   -0.1709   -2.4537    0.3713 H   0  0  0  0  0  0  0  0  0  0  0  0
    2.7984   -2.8551    0.9458 H   0  0  0  0  0  0  0  0  0  0  0  0
    1.4656   -3.6571    1.7965 H   0  0  0  0  0  0  0  0  0  0  0  0
    2.1827   -2.5918    3.8238 H   0  0  0  0  0  0  0  0  0  0  0  0
    3.4833   -1.7744    2.9448 H   0  0  0  0  0  0  0  0  0  0  0  0
    1.1633   -0.3728    4.3773 H   0  0  0  0  0  0  0  0  0  0  0  0
    2.8298   -0.4777    4.9675 H   0  0  0  0  0  0  0  0  0  0  0  0
    2.4642    0.4438    3.4998 H   0  0  0  0  0  0  0  0  0  0  0  0
   -0.8500   -0.1036   -3.2437 C   0  0  0  0  0  0  0  0  0  0  0  0
   -0.8500   -0.1036   -1.7208 C   0  0  0  0  0  3  0  0  0  0  0  0
   -0.8500    1.2895   -1.1253 C   0  0  0  0  0  0  0  0  0  0  0  0
   -2.0330    1.9531   -1.4929 O   0  0  0  0  0  0  0  0  0  0  0  0
   -2.1037    3.2712   -1.0120 C   0  0  0  0  0  0  0  0  0  0  0  0
   -3.4070    3.8890   -1.4628 C   0  0  0  0  0  0  0  0  0  0  0  0
    0.0321    0.4108   -3.6334 H   0  0  0  0  0  0  0  0  0  0  0  0
   -1.7327    0.4061   -3.6298 H   0  0  0  0  0  0  0  0  0  0  0  0
   -0.8445   -1.1214   -3.6364 H   0  0  0  0  0  0  0  0  0  0  0  0
    0.2079   -0.7353   -1.2693 H   0  0  0  0  0  0  0  0  0  0  0  0
   -1.7243   -0.6415   -1.3455 H   0  0  0  0  0  0  0  0  0  0  0  0
    0.0242    1.8546   -1.4857 H   0  0  0  0  0  0  0  0  0  0  0  0
   -0.7752    1.2356   -0.0293 H   0  0  0  0  0  0  0  0  0  0  0  0
   -2.0364    3.2740    0.0861 H   0  0  0  0  0  0  0  0  0  0  0  0
   -1.2508    3.8542   -1.3899 H   0  0  0  0  0  0  0  0  0  0  0  0
   -4.2534    3.3195   -1.0772 H   0  0  0  0  0  0  0  0  0  0  0  0
   -3.4678    3.9008   -2.5517 H   0  0  0  0  0  0  0  0  0  0  0  0
   -3.4846    4.9150   -1.0998 H   0  0  0  0  0  0  0  0  0  0  0  0
  1  2  1  0
  1  7  1  0
  1  8  1  0
  1 27  1  0
  2  3  1  0
  2  9  1  0
  2 10  1  0
  3  4  1  0
  3 11  1  0
  3 12  1  0
  4  5  1  0
  5  6  1  0
  5 13  1  0
  5 14  1  0
  6 15  1  0
  6 16  1  0
  6 17  1  0
 18 19  1  0
 18 24  1  0
 18 25  1  0
 18 26  1  0
 19 20  1  0
 19 28  1  0
 20 21  1  0
 20 29  1  0
 20 30  1  0
 21 22  1  0
 22 23  1  0
 22 31  1  0
 22 32  1  0
 23 33  1  0
 23 34  1  0
 23 35  1  0
M  RAD  1  19   2
M  END
>  <reaction>  (11) 
rmg_rxn_247

>  <mol_properties>  (11) 
{"0": {"label": "*3", "atom_type": "Cs"}, "1": {"label": "*4", "atom_type": "Cs"}, "18": {"label": "*1", "atom_type": "Cs"}, "19": {"label": "*0", "atom_type": "Cs"}, "26": {"label": "*2", "atom_type": "H0"}}

>  <type>  (11) 
unop_7

>  <geom_source>  (11) 
Heuristics

$$$$

     RDKit          3D

 35 33  0  0  0  0  0  0  0  0999 V2000
    0.3998   -1.3481   -0.2248 C   0  0  0  0  0  0  0  0  0  0  0  0
    1.5702   -0.3921   -0.0362 C   0  0  0  0  0  0  0  0  0  0  0  0
    2.3745   -0.6752    1.2161 C   0  0  0  0  0  0  0  0  0  0  0  0
    2.9545   -1.9515    1.1184 O   0  0  0  0  0  0  0  0  0  0  0  0
    3.6937   -2.3150    2.2564 C   0  0  0  0  0  0  0  0  0  0  0  0
    4.2692   -3.6965    2.0473 C   0  0  0  0  0  0  0  0  0  0  0  0
    0.7503   -2.3775   -0.2992 H   0  0  0  0  0  0  0  0  0  0  0  0
   -0.2916   -1.2889    0.6195 H   0  0  0  0  0  0  0  0  0  0  0  0
    1.2088    0.6383    0.0221 H   0  0  0  0  0  0  0  0  0  0  0  0
    2.2402   -0.4444   -0.8983 H   0  0  0  0  0  0  0  0  0  0  0  0
    1.7229   -0.6264    2.1028 H   0  0  0  0  0  0  0  0  0  0  0  0
    3.1593    0.0846    1.3450 H   0  0  0  0  0  0  0  0  0  0  0  0
    4.4987   -1.5854    2.4297 H   0  0  0  0  0  0  0  0  0  0  0  0
    3.0456   -2.2989    3.1451 H   0  0  0  0  0  0  0  0  0  0  0  0
    4.9228   -3.7101    1.1745 H   0  0  0  0  0  0  0  0  0  0  0  0
    4.8493   -4.0005    2.9201 H   0  0  0  0  0  0  0  0  0  0  0  0
    3.4712   -4.4233    1.8910 H   0  0  0  0  0  0  0  0  0  0  0  0
   -1.7133   -0.0860   -2.6498 C   0  0  0  0  0  0  0  0  0  0  0  0
   -1.7133   -0.0860   -1.1269 C   0  0  0  0  0  3  0  0  0  0  0  0
   -1.7133    1.3070   -0.5313 C   0  0  0  0  0  0  0  0  0  0  0  0
   -2.8963    1.9706   -0.8989 O   0  0  0  0  0  0  0  0  0  0  0  0
   -2.9671    3.2887   -0.4180 C   0  0  0  0  0  0  0  0  0  0  0  0
   -4.2704    3.9065   -0.8689 C   0  0  0  0  0  0  0  0  0  0  0  0
   -0.8313    0.4283   -3.0394 H   0  0  0  0  0  0  0  0  0  0  0  0
   -2.5961    0.4237   -3.0358 H   0  0  0  0  0  0  0  0  0  0  0  0
   -1.7079   -1.1039   -3.0424 H   0  0  0  0  0  0  0  0  0  0  0  0
   -0.6555   -0.7178   -0.6753 H   0  0  0  0  0  0  0  0  0  0  0  0
   -2.5877   -0.6240   -0.7516 H   0  0  0  0  0  0  0  0  0  0  0  0
   -0.8392    1.8721   -0.8917 H   0  0  0  0  0  0  0  0  0  0  0  0
   -1.6386    1.2531    0.5647 H   0  0  0  0  0  0  0  0  0  0  0  0
   -2.8998    3.2915    0.6800 H   0  0  0  0  0  0  0  0  0  0  0  0
   -2.1142    3.8717   -0.7959 H   0  0  0  0  0  0  0  0  0  0  0  0
   -5.1167    3.3371   -0.4832 H   0  0  0  0  0  0  0  0  0  0  0  0
   -4.3312    3.9183   -1.9577 H   0  0  0  0  0  0  0  0  0  0  0  0
   -4.3480    4.9325   -0.5058 H   0  0  0  0  0  0  0  0  0  0  0  0
  1  2  1  0
  1  7  1  0
  1  8  1  0
  1 27  1  0
  2  3  1  0
  2  9  1  0
  2 10  1  0
  3  4  1  0
  3 11  1  0
  3 12  1  0
  4  5  1  0
  5  6  1  0
  5 13  1  0
  5 14  1  0
  6 15  1  0
  6 16  1  0
  6 17  1  0
 18 19  1  0
 18 24  1  0
 18 25  1  0
 18 26  1  0
 19 20  1  0
 19 28  1  0
 20 21  1  0
 20 29  1  0
 20 30  1  0
 21 22  1  0
 22 23  1  0
 22 31  1  0
 22 32  1  0
 23 33  1  0
 23 34  1  0
 23 35  1  0
M  RAD  1  19   2
M  END
>  <reaction>  (12) 
rmg_rxn_247

>  <mol_properties>  (12) 
{"0": {"label": "*3", "atom_type": "Cs"}, "1": {"label": "*4", "atom_type": "Cs"}, "18": {"label": "*1", "atom_type": "Cs"}, "19": {"label": "*0", "atom_type": "Cs"}, "26": {"label": "*2", "atom_type": "H0"}}

>  <type>  (12) 
unop_8

>  <geom_source>  (12) 
Heuristics

$$$$

     RDKit          3D

 35 33  0  0  0  0  0  0  0  0999 V2000
    1.0973   -0.3568    0.1536 C   0  0  0  0  0  0  0  0  0  0  0  0
    1.5384   -1.4477   -0.8131 C   0  0  0  0  0  0  0  0  0  0  0  0
    2.4576   -2.4706   -0.1775 C   0  0  0  0  0  0  0  0  0  0  0  0
    1.7687   -3.1432    0.8462 O   0  0  0  0  0  0  0  0  0  0  0  0
    2.5584   -4.0909    1.5184 C   0  0  0  0  0  0  0  0  0  0  0  0
    1.7255   -4.7505    2.5929 C   0  0  0  0  0  0  0  0  0  0  0  0
    0.5587   -0.7848    0.9990 H   0  0  0  0  0  0  0  0  0  0  0  0
    1.9596    0.1882    0.5459 H   0  0  0  0  0  0  0  0  0  0  0  0
    2.0642   -1.0061   -1.6642 H   0  0  0  0  0  0  0  0  0  0  0  0
    0.6654   -1.9680   -1.2155 H   0  0  0  0  0  0  0  0  0  0  0  0
    3.3493   -1.9727    0.2351 H   0  0  0  0  0  0  0  0  0  0  0  0
    2.8055   -3.1915   -0.9320 H   0  0  0  0  0  0  0  0  0  0  0  0
    2.9314   -4.8416    0.8059 H   0  0  0  0  0  0  0  0  0  0  0  0
    3.4378   -3.5998    1.9607 H   0  0  0  0  0  0  0  0  0  0  0  0
    0.8609   -5.2494    2.1538 H   0  0  0  0  0  0  0  0  0  0  0  0
    2.3191   -5.4926    3.1292 H   0  0  0  0  0  0  0  0  0  0  0  0
    1.3683   -4.0092    3.3085 H   0  0  0  0  0  0  0  0  0  0  0  0
   -1.0159    0.9053   -2.2713 C   0  0  0  0  0  0  0  0  0  0  0  0
   -1.0159    0.9053   -0.7484 C   0  0  0  0  0  3  0  0  0  0  0  0
   -1.0159    2.2983   -0.1529 C   0  0  0  0  0  0  0  0  0  0  0  0
   -2.1989    2.9619   -0.5205 O   0  0  0  0  0  0  0  0  0  0  0  0
   -2.2696    4.2800   -0.0396 C   0  0  0  0  0  0  0  0  0  0  0  0
   -3.5729    4.8978   -0.4904 C   0  0  0  0  0  0  0  0  0  0  0  0
   -0.1338    1.4196   -2.6610 H   0  0  0  0  0  0  0  0  0  0  0  0
   -1.8986    1.4150   -2.6574 H   0  0  0  0  0  0  0  0  0  0  0  0
   -1.0104   -0.1126   -2.6640 H   0  0  0  0  0  0  0  0  0  0  0  0
    0.0420    0.2735   -0.2969 H   0  0  0  0  0  0  0  0  0  0  0  0
   -1.8902    0.3673   -0.3732 H   0  0  0  0  0  0  0  0  0  0  0  0
   -0.1417    2.8634   -0.5133 H   0  0  0  0  0  0  0  0  0  0  0  0
   -0.9411    2.2444    0.9431 H   0  0  0  0  0  0  0  0  0  0  0  0
   -2.2023    4.2829    1.0585 H   0  0  0  0  0  0  0  0  0  0  0  0
   -1.4167    4.8630   -0.4175 H   0  0  0  0  0  0  0  0  0  0  0  0
   -4.4193    4.3284   -0.1048 H   0  0  0  0  0  0  0  0  0  0  0  0
   -3.6337    4.9096   -1.5793 H   0  0  0  0  0  0  0  0  0  0  0  0
   -3.6505    5.9238   -0.1274 H   0  0  0  0  0  0  0  0  0  0  0  0
  1  2  1  0
  1  7  1  0
  1  8  1  0
  1 27  1  0
  2  3  1  0
  2  9  1  0
  2 10  1  0
  3  4  1  0
  3 11  1  0
  3 12  1  0
  4  5  1  0
  5  6  1  0
  5 13  1  0
  5 14  1  0
  6 15  1  0
  6 16  1  0
  6 17  1  0
 18 19  1  0
 18 24  1  0
 18 25  1  0
 18 26  1  0
 19 20  1  0
 19 28  1  0
 20 21  1  0
 20 29  1  0
 20 30  1  0
 21 22  1  0
 22 23  1  0
 22 31  1  0
 22 32  1  0
 23 33  1  0
 23 34  1  0
 23 35  1  0
M  RAD  1  19   2
M  END
>  <reaction>  (13) 
rmg_rxn_247

>  <mol_properties>  (13) 
{"0": {"label": "*3", "atom_type": "Cs"}, "1": {"label": "*4", "atom_type": "Cs"}, "18": {"label": "*1", "atom_type": "Cs"}, "19": {"label": "*0", "atom_type": "Cs"}, "26": {"label": "*2", "atom_type": "H0"}}

>  <type>  (13) 
unop_9

>  <geom_source>  (13) 
Heuristics

$$$$

     RDKit          3D

 35 33  0  0  0  0  0  0  0  0999 V2000
    0.2782   -1.2818    0.0825 C   0  0  0  0  0  0  0  0  0  0  0  0
    1.5609   -0.6146   -0.3959 C   0  0  0  0  0  0  0  0  0  0  0  0
    2.6995   -0.7328    0.5964 C   0  0  0  0  0  0  0  0  0  0  0  0
    3.0311   -2.0879    0.7655 O   0  0  0  0  0  0  0  0  0  0  0  0
    4.0591   -2.2965    1.6999 C   0  0  0  0  0  0  0  0  0  0  0  0
    4.3340   -3.7788    1.8047 C   0  0  0  0  0  0  0  0  0  0  0  0
    0.4381   -2.3459    0.2561 H   0  0  0  0  0  0  0  0  0  0  0  0
   -0.0665   -0.8367    1.0193 H   0  0  0  0  0  0  0  0  0  0  0  0
    1.3854    0.4488   -0.5812 H   0  0  0  0  0  0  0  0  0  0  0  0
    1.8805   -1.0529   -1.3449 H   0  0  0  0  0  0  0  0  0  0  0  0
    2.4049   -0.2955    1.5635 H   0  0  0  0  0  0  0  0  0  0  0  0
    3.5767   -0.1738    0.2385 H   0  0  0  0  0  0  0  0  0  0  0  0
    4.9661   -1.7586    1.3863 H   0  0  0  0  0  0  0  0  0  0  0  0
    3.7641   -1.8900    2.6786 H   0  0  0  0  0  0  0  0  0  0  0  0
    4.6399   -4.1799    0.8379 H   0  0  0  0  0  0  0  0  0  0  0  0
    5.1311   -3.9654    2.5260 H   0  0  0  0  0  0  0  0  0  0  0  0
    3.4397   -4.3111    2.1307 H   0  0  0  0  0  0  0  0  0  0  0  0
   -1.8350   -0.0197   -2.3424 C   0  0  0  0  0  0  0  0  0  0  0  0
   -1.8350   -0.0197   -0.8195 C   0  0  0  0  0  3  0  0  0  0  0  0
   -1.8350    1.3733   -0.2240 C   0  0  0  0  0  0  0  0  0  0  0  0
   -3.0180    2.0369   -0.5916 O   0  0  0  0  0  0  0  0  0  0  0  0
   -3.0887    3.3550   -0.1107 C   0  0  0  0  0  0  0  0  0  0  0  0
   -4.3920    3.9728   -0.5615 C   0  0  0  0  0  0  0  0  0  0  0  0
   -0.9529    0.4946   -2.7321 H   0  0  0  0  0  0  0  0  0  0  0  0
   -2.7177    0.4900   -2.7285 H   0  0  0  0  0  0  0  0  0  0  0  0
   -1.8295   -1.0376   -2.7351 H   0  0  0  0  0  0  0  0  0  0  0  0
   -0.7771   -0.6515   -0.3680 H   0  0  0  0  0  0  0  0  0  0  0  0
   -2.7094   -0.5577   -0.4443 H   0  0  0  0  0  0  0  0  0  0  0  0
   -0.9608    1.9384   -0.5844 H   0  0  0  0  0  0  0  0  0  0  0  0
   -1.7602    1.3194    0.8720 H   0  0  0  0  0  0  0  0  0  0  0  0
   -3.0214    3.3579    0.9874 H   0  0  0  0  0  0  0  0  0  0  0  0
   -2.2358    3.9380   -0.4886 H   0  0  0  0  0  0  0  0  0  0  0  0
   -5.2384    3.4034   -0.1759 H   0  0  0  0  0  0  0  0  0  0  0  0
   -4.4528    3.9846   -1.6504 H   0  0  0  0  0  0  0  0  0  0  0  0
   -4.4696    4.9988   -0.1985 H   0  0  0  0  0  0  0  0  0  0  0  0
  1  2  1  0
  1  7  1  0
  1  8  1  0
  1 27  1  0
  2  3  1  0
  2  9  1  0
  2 10  1  0
  3  4  1  0
  3 11  1  0
  3 12  1  0
  4  5  1  0
  5  6  1  0
  5 13  1  0
  5 14  1  0
  6 15  1  0
  6 16  1  0
  6 17  1  0
 18 19  1  0
 18 24  1  0
 18 25  1  0
 18 26  1  0
 19 20  1  0
 19 28  1  0
 20 21  1  0
 20 29  1  0
 20 30  1  0
 21 22  1  0
 22 23  1  0
 22 31  1  0
 22 32  1  0
 23 33  1  0
 23 34  1  0
 23 35  1  0
M  RAD  1  19   2
M  END
>  <reaction>  (14) 
rmg_rxn_247

>  <mol_properties>  (14) 
{"0": {"label": "*3", "atom_type": "Cs"}, "1": {"label": "*4", "atom_type": "Cs"}, "18": {"label": "*1", "atom_type": "Cs"}, "19": {"label": "*0", "atom_type": "Cs"}, "26": {"label": "*2", "atom_type": "H0"}}

>  <type>  (14) 
unop_10

>  <geom_source>  (14) 
Heuristics

$$$$

     RDKit          3D

 35 33  0  0  0  0  0  0  0  0999 V2000
    0.8232   -1.6701   -0.6613 C   0  0  0  0  0  0  0  0  0  0  0  0
    0.5373   -2.3268    0.6826 C   0  0  0  0  0  0  0  0  0  0  0  0
    1.7689   -2.4591    1.5548 C   0  0  0  0  0  0  0  0  0  0  0  0
    2.2577   -1.1792    1.8677 O   0  0  0  0  0  0  0  0  0  0  0  0
    3.4254   -1.2053    2.6483 C   0  0  0  0  0  0  0  0  0  0  0  0
    3.8632    0.2144    2.9243 C   0  0  0  0  0  0  0  0  0  0  0  0
    1.2229   -0.6655   -0.5229 H   0  0  0  0  0  0  0  0  0  0  0  0
    1.5566   -2.2480   -1.2292 H   0  0  0  0  0  0  0  0  0  0  0  0
    0.1230   -3.3275    0.5319 H   0  0  0  0  0  0  0  0  0  0  0  0
   -0.2148   -1.7517    1.2289 H   0  0  0  0  0  0  0  0  0  0  0  0
    2.5443   -3.0381    1.0285 H   0  0  0  0  0  0  0  0  0  0  0  0
    1.5251   -3.0037    2.4788 H   0  0  0  0  0  0  0  0  0  0  0  0
    3.2345   -1.7390    3.5912 H   0  0  0  0  0  0  0  0  0  0  0  0
    4.2174   -1.7560    2.1195 H   0  0  0  0  0  0  0  0  0  0  0  0
    3.0841    0.7571    3.4608 H   0  0  0  0  0  0  0  0  0  0  0  0
    4.7701    0.2192    3.5310 H   0  0  0  0  0  0  0  0  0  0  0  0
    4.0678    0.7396    1.9906 H   0  0  0  0  0  0  0  0  0  0  0  0
   -1.2900   -0.4080   -3.0862 C   0  0  0  0  0  0  0  0  0  0  0  0
   -1.2900   -0.4080   -1.5633 C   0  0  0  0  0  3  0  0  0  0  0  0
   -1.2900    0.9850   -0.9678 C   0  0  0  0  0  0  0  0  0  0  0  0
   -2.4730    1.6486   -1.3354 O   0  0  0  0  0  0  0  0  0  0  0  0
   -2.5437    2.9667   -0.8545 C   0  0  0  0  0  0  0  0  0  0  0  0
   -3.8470    3.5845   -1.3054 C   0  0  0  0  0  0  0  0  0  0  0  0
   -0.4079    0.1063   -3.4759 H   0  0  0  0  0  0  0  0  0  0  0  0
   -2.1727    0.1016   -3.4723 H   0  0  0  0  0  0  0  0  0  0  0  0
   -1.2845   -1.4259   -3.4789 H   0  0  0  0  0  0  0  0  0  0  0  0
   -0.2322   -1.0398   -1.1118 H   0  0  0  0  0  0  0  0  0  0  0  0
   -2.1644   -0.9460   -1.1881 H   0  0  0  0  0  0  0  0  0  0  0  0
   -0.4158    1.5501   -1.3282 H   0  0  0  0  0  0  0  0  0  0  0  0
   -1.2152    0.9311    0.1282 H   0  0  0  0  0  0  0  0  0  0  0  0
   -2.4765    2.9695    0.2435 H   0  0  0  0  0  0  0  0  0  0  0  0
   -1.6909    3.5497   -1.2324 H   0  0  0  0  0  0  0  0  0  0  0  0
   -4.6934    3.0151   -0.9197 H   0  0  0  0  0  0  0  0  0  0  0  0
   -3.9079    3.5963   -2.3942 H   0  0  0  0  0  0  0  0  0  0  0  0
   -3.9247    4.6105   -0.9423 H   0  0  0  0  0  0  0  0  0  0  0  0
  1  2  1  0
  1  7  1  0
  1  8  1  0
  1 27  1  0
  2  3  1  0
  2  9  1  0
  2 10  1  0
  3  4  1  0
  3 11  1  0
  3 12  1  0
  4  5  1  0
  5  6  1  0
  5 13  1  0
  5 14  1  0
  6 15  1  0
  6 16  1  0
  6 17  1  0
 18 19  1  0
 18 24  1  0
 18 25  1  0
 18 26  1  0
 19 20  1  0
 19 28  1  0
 20 21  1  0
 20 29  1  0
 20 30  1  0
 21 22  1  0
 22 23  1  0
 22 31  1  0
 22 32  1  0
 23 33  1  0
 23 34  1  0
 23 35  1  0
M  RAD  1  19   2
M  END
>  <reaction>  (15) 
rmg_rxn_247

>  <mol_properties>  (15) 
{"0": {"label": "*3", "atom_type": "Cs"}, "1": {"label": "*4", "atom_type": "Cs"}, "18": {"label": "*1", "atom_type": "Cs"}, "19": {"label": "*0", "atom_type": "Cs"}, "26": {"label": "*2", "atom_type": "H0"}}

>  <type>  (15) 
unop_11

>  <geom_source>  (15) 
Heuristics

$$$$

     RDKit          3D

 35 33  0  0  0  0  0  0  0  0999 V2000
    0.6561   -0.5678    0.4177 C   0  0  0  0  0  0  0  0  0  0  0  0
    1.5177   -1.0823   -0.7278 C   0  0  0  0  0  0  0  0  0  0  0  0
    2.7580   -1.8144   -0.2577 C   0  0  0  0  0  0  0  0  0  0  0  0
    2.3780   -2.9611    0.4603 O   0  0  0  0  0  0  0  0  0  0  0  0
    3.4688   -3.6867    0.9674 C   0  0  0  0  0  0  0  0  0  0  0  0
    2.9507   -4.8914    1.7182 C   0  0  0  0  0  0  0  0  0  0  0  0
    0.3187   -1.3912    1.0471 H   0  0  0  0  0  0  0  0  0  0  0  0
    1.2184    0.1270    1.0466 H   0  0  0  0  0  0  0  0  0  0  0  0
    1.8381   -0.2502   -1.3608 H   0  0  0  0  0  0  0  0  0  0  0  0
    0.9358   -1.7567   -1.3614 H   0  0  0  0  0  0  0  0  0  0  0  0
    3.3658   -1.1556    0.3826 H   0  0  0  0  0  0  0  0  0  0  0  0
    3.3813   -2.0998   -1.1179 H   0  0  0  0  0  0  0  0  0  0  0  0
    4.1262   -4.0009    0.1431 H   0  0  0  0  0  0  0  0  0  0  0  0
    4.0674   -3.0472    1.6328 H   0  0  0  0  0  0  0  0  0  0  0  0
    2.3686   -5.5332    1.0559 H   0  0  0  0  0  0  0  0  0  0  0  0
    3.7819   -5.4718    2.1215 H   0  0  0  0  0  0  0  0  0  0  0  0
    2.3114   -4.5804    2.5452 H   0  0  0  0  0  0  0  0  0  0  0  0
   -1.4571    0.6943   -2.0072 C   0  0  0  0  0  0  0  0  0  0  0  0
   -1.4571    0.6943   -0.4843 C   0  0  0  0  0  3  0  0  0  0  0  0
   -1.4571    2.0873    0.1112 C   0  0  0  0  0  0  0  0  0  0  0  0
   -2.6401    2.7509   -0.2564 O   0  0  0  0  0  0  0  0  0  0  0  0
   -2.7108    4.0690    0.2245 C   0  0  0  0  0  0  0  0  0  0  0  0
   -4.0141    4.6868   -0.2263 C   0  0  0  0  0  0  0  0  0  0  0  0
   -0.5750    1.2086   -2.3968 H   0  0  0  0  0  0  0  0  0  0  0  0
   -2.3398    1.2040   -2.3933 H   0  0  0  0  0  0  0  0  0  0  0  0
   -1.4516   -0.3236   -2.3999 H   0  0  0  0  0  0  0  0  0  0  0  0
   -0.3993    0.0625   -0.0328 H   0  0  0  0  0  0  0  0  0  0  0  0
   -2.3315    0.1563   -0.1090 H   0  0  0  0  0  0  0  0  0  0  0  0
   -0.5829    2.6524   -0.2492 H   0  0  0  0  0  0  0  0  0  0  0  0
   -1.3823    2.0334    1.2073 H   0  0  0  0  0  0  0  0  0  0  0  0
   -2.6436    4.0718    1.3226 H   0  0  0  0  0  0  0  0  0  0  0  0
   -1.8579    4.6520   -0.1534 H   0  0  0  0  0  0  0  0  0  0  0  0
   -4.8605    4.1174    0.1594 H   0  0  0  0  0  0  0  0  0  0  0  0
   -4.0749    4.6986   -1.3151 H   0  0  0  0  0  0  0  0  0  0  0  0
   -4.0917    5.7128    0.1367 H   0  0  0  0  0  0  0  0  0  0  0  0
  1  2  1  0
  1  7  1  0
  1  8  1  0
  1 27  1  0
  2  3  1  0
  2  9  1  0
  2 10  1  0
  3  4  1  0
  3 11  1  0
  3 12  1  0
  4  5  1  0
  5  6  1  0
  5 13  1  0
  5 14  1  0
  6 15  1  0
  6 16  1  0
  6 17  1  0
 18 19  1  0
 18 24  1  0
 18 25  1  0
 18 26  1  0
 19 20  1  0
 19 28  1  0
 20 21  1  0
 20 29  1  0
 20 30  1  0
 21 22  1  0
 22 23  1  0
 22 31  1  0
 22 32  1  0
 23 33  1  0
 23 34  1  0
 23 35  1  0
M  RAD  1  19   2
M  END
>  <reaction>  (16) 
rmg_rxn_247

>  <mol_properties>  (16) 
{"0": {"label": "*3", "atom_type": "Cs"}, "1": {"label": "*4", "atom_type": "Cs"}, "18": {"label": "*1", "atom_type": "Cs"}, "19": {"label": "*0", "atom_type": "Cs"}, "26": {"label": "*2", "atom_type": "H0"}}

>  <type>  (16) 
unop_12

>  <geom_source>  (16) 
Heuristics

$$$$

     RDKit          3D

 35 33  0  0  0  0  0  0  0  0999 V2000
    3.2437    0.9613    0.6930 O   0  0  0  0  0  0  0  0  0  0  0  0
   -2.7182    0.6120    0.5065 O   0  0  0  0  0  0  0  0  0  0  0  0
    1.4351   -0.5940    1.0089 C   0  0  0  0  0  0  0  0  0  0  0  0
    2.9500   -0.3889    0.9908 C   0  0  0  0  0  0  0  0  0  0  0  0
    4.6343    1.1361    0.4986 C   0  0  0  0  0  0  0  0  0  0  0  0
   -3.8963    1.0256    1.1733 C   0  0  0  0  0  0  0  0  0  0  0  0
   -2.8787   -0.6866   -0.0239 C   0  0  0  0  0  0  0  0  0  0  0  0
    0.8164   -0.3764   -0.3694 C   0  0  0  0  0  0  0  0  0  0  0  0
    4.9680    1.0939   -0.9884 C   0  0  0  0  0  0  0  0  0  0  0  0
   -4.7494    1.8895    0.2512 C   0  0  0  0  0  0  0  0  0  0  0  0
   -1.7232   -2.4485   -1.4147 C   0  0  0  0  0  0  0  0  0  0  0  0
   -1.6462   -1.0343   -0.8519 C   0  0  0  0  0  3  0  0  0  0  0  0
    0.9719    0.1088    1.7347 H   0  0  0  0  0  0  0  0  0  0  0  0
    1.2122   -1.6307    1.3412 H   0  0  0  0  0  0  0  0  0  0  0  0
    3.3455   -0.6466    1.9991 H   0  0  0  0  0  0  0  0  0  0  0  0
    3.3973   -1.0818    0.2411 H   0  0  0  0  0  0  0  0  0  0  0  0
    5.2626    0.3984    1.0526 H   0  0  0  0  0  0  0  0  0  0  0  0
    4.9110    2.1391    0.8866 H   0  0  0  0  0  0  0  0  0  0  0  0
   -3.5969    1.6433    2.0461 H   0  0  0  0  0  0  0  0  0  0  0  0
   -4.5060    0.1825    1.5775 H   0  0  0  0  0  0  0  0  0  0  0  0
    6.0480    1.3059   -1.1357 H   0  0  0  0  0  0  0  0  0  0  0  0
    4.3739    1.8583   -1.5328 H   0  0  0  0  0  0  0  0  0  0  0  0
    4.7410    0.0914   -1.4074 H   0  0  0  0  0  0  0  0  0  0  0  0
    0.9855    0.6665   -0.7121 H   0  0  0  0  0  0  0  0  0  0  0  0
    1.2564   -1.0813   -1.1067 H   0  0  0  0  0  0  0  0  0  0  0  0
   -0.4644   -0.5888   -0.3033 H   0  0  0  0  0  0  0  0  0  0  0  0
   -5.6320    2.2710    0.8067 H   0  0  0  0  0  0  0  0  0  0  0  0
   -4.1559    2.7529   -0.1173 H   0  0  0  0  0  0  0  0  0  0  0  0
   -5.1043    1.2951   -0.6164 H   0  0  0  0  0  0  0  0  0  0  0  0
   -2.9708   -1.4258    0.8038 H   0  0  0  0  0  0  0  0  0  0  0  0
   -3.7776   -0.7434   -0.6801 H   0  0  0  0  0  0  0  0  0  0  0  0
   -1.8010   -3.1858   -0.5880 H   0  0  0  0  0  0  0  0  0  0  0  0
   -2.6022   -2.5503   -2.0862 H   0  0  0  0  0  0  0  0  0  0  0  0
   -0.8016   -2.6630   -1.9947 H   0  0  0  0  0  0  0  0  0  0  0  0
   -1.5280   -0.3053   -1.6828 H   0  0  0  0  0  0  0  0  0  0  0  0
  1  5  1  0
  1  4  1  0
  2  6  1  0
  2  7  1  0
  3  8  1  0
  3  4  1  0
  3 13  1  0
  3 14  1  0
  4 15  1  0
  4 16  1  0
  5  9  1  0
  5 17  1  0
  5 18  1  0
  6 10  1  0
  6 19  1  0
  6 20  1  0
  7 12  1  0
  7 30  1  0
  7 31  1  0
  8 24  1  0
  8 25  1  0
  8 26  1  0
  9 21  1  0
  9 22  1  0
  9 23  1  0
 10 27  1  0
 10 28  1  0
 10 29  1  0
 11 12  1  0
 11 32  1  0
 11 33  1  0
 11 34  1  0
 12 35  1  0
M  RAD  1  12   2
M  END
>  <reaction>  (17) 
rmg_rxn_247

>  <mol_properties>  (17) 
{"0": {"label": "*3", "atom_type": "Cs"}, "1": {"label": "*4", "atom_type": "Cs"}, "18": {"label": "*1", "atom_type": "Cs"}, "19": {"label": "*0", "atom_type": "Cs"}, "26": {"label": "*2", "atom_type": "H0"}}

>  <type>  (17) 
unop_13

>  <geom_source>  (17) 
AutoTST

$$$$

     RDKit          3D

 35 33  0  0  0  0  0  0  0  0999 V2000
    0.3396   -0.9709    0.3674 C   0  0  0  0  0  0  0  0  0  0  0  0
    1.5092   -0.8419   -0.5993 C   0  0  0  0  0  0  0  0  0  0  0  0
    2.8473   -1.1517    0.0401 C   0  0  0  0  0  0  0  0  0  0  0  0
    2.8635   -2.4928    0.4599 O   0  0  0  0  0  0  0  0  0  0  0  0
    4.0589   -2.8609    1.0995 C   0  0  0  0  0  0  0  0  0  0  0  0
    3.9699   -4.3130    1.5083 C   0  0  0  0  0  0  0  0  0  0  0  0
    0.2750   -1.9848    0.7622 H   0  0  0  0  0  0  0  0  0  0  0  0
    0.4558   -0.2880    1.2128 H   0  0  0  0  0  0  0  0  0  0  0  0
    1.5556    0.1743   -1.0005 H   0  0  0  0  0  0  0  0  0  0  0  0
    1.3679   -1.5124   -1.4509 H   0  0  0  0  0  0  0  0  0  0  0  0
    3.0172   -0.4871    0.9020 H   0  0  0  0  0  0  0  0  0  0  0  0
    3.6627   -0.9730   -0.6762 H   0  0  0  0  0  0  0  0  0  0  0  0
    4.9109   -2.7040    0.4215 H   0  0  0  0  0  0  0  0  0  0  0  0
    4.2245   -2.2230    1.9802 H   0  0  0  0  0  0  0  0  0  0  0  0
    3.8195   -4.9475    0.6342 H   0  0  0  0  0  0  0  0  0  0  0  0
    4.8894   -4.6223    2.0077 H   0  0  0  0  0  0  0  0  0  0  0  0
    3.1349   -4.4668    2.1928 H   0  0  0  0  0  0  0  0  0  0  0  0
   -1.7735    0.2912   -2.0575 C   0  0  0  0  0  0  0  0  0  0  0  0
   -1.7735    0.2912   -0.5346 C   0  0  0  0  0  3  0  0  0  0  0  0
   -1.7735    1.6842    0.0609 C   0  0  0  0  0  0  0  0  0  0  0  0
   -2.9566    2.3478   -0.3067 O   0  0  0  0  0  0  0  0  0  0  0  0
   -3.0273    3.6659    0.1742 C   0  0  0  0  0  0  0  0  0  0  0  0
   -4.3306    4.2837   -0.2766 C   0  0  0  0  0  0  0  0  0  0  0  0
   -0.8915    0.8055   -2.4471 H   0  0  0  0  0  0  0  0  0  0  0  0
   -2.6563    0.8009   -2.4436 H   0  0  0  0  0  0  0  0  0  0  0  0
   -1.7681   -0.7267   -2.4502 H   0  0  0  0  0  0  0  0  0  0  0  0
   -0.7157   -0.3406   -0.0831 H   0  0  0  0  0  0  0  0  0  0  0  0
   -2.6479   -0.2468   -0.1593 H   0  0  0  0  0  0  0  0  0  0  0  0
   -0.8994    2.2493   -0.2995 H   0  0  0  0  0  0  0  0  0  0  0  0
   -1.6988    1.6303    1.1570 H   0  0  0  0  0  0  0  0  0  0  0  0
   -2.9600    3.6688    1.2723 H   0  0  0  0  0  0  0  0  0  0  0  0
   -2.1744    4.2489   -0.2037 H   0  0  0  0  0  0  0  0  0  0  0  0
   -5.1769    3.7143    0.1091 H   0  0  0  0  0  0  0  0  0  0  0  0
   -4.3914    4.2955   -1.3654 H   0  0  0  0  0  0  0  0  0  0  0  0
   -4.4082    5.3097    0.0864 H   0  0  0  0  0  0  0  0  0  0  0  0
  1  2  1  0
  1  7  1  0
  1  8  1  0
  1 27  1  0
  2  3  1  0
  2  9  1  0
  2 10  1  0
  3  4  1  0
  3 11  1  0
  3 12  1  0
  4  5  1  0
  5  6  1  0
  5 13  1  0
  5 14  1  0
  6 15  1  0
  6 16  1  0
  6 17  1  0
 18 19  1  0
 18 24  1  0
 18 25  1  0
 18 26  1  0
 19 20  1  0
 19 28  1  0
 20 21  1  0
 20 29  1  0
 20 30  1  0
 21 22  1  0
 22 23  1  0
 22 31  1  0
 22 32  1  0
 23 33  1  0
 23 34  1  0
 23 35  1  0
M  RAD  1  19   2
M  END
>  <reaction>  (18) 
rmg_rxn_247

>  <mol_properties>  (18) 
{"0": {"label": "*3", "atom_type": "Cs"}, "1": {"label": "*4", "atom_type": "Cs"}, "18": {"label": "*1", "atom_type": "Cs"}, "19": {"label": "*0", "atom_type": "Cs"}, "26": {"label": "*2", "atom_type": "H0"}}

>  <type>  (18) 
unop_14

>  <geom_source>  (18) 
gaussian_log

$$$$
