
     RDKit          3D

 18 17  0  0  0  0  0  0  0  0999 V2000
    2.2026   -0.7213   -0.2612 C   0  0  0  0  0  0  0  0  0  0  0  0
    1.5384    0.2638    0.6915 C   0  0  0  0  0  0  0  0  0  0  0  0
    2.2584    1.5946    0.7694 C   0  0  0  0  0  0  0  0  0  0  0  0
    2.2212    2.2185   -0.4893 O   0  0  0  0  0  0  0  0  0  0  0  0
    2.8988    3.4488   -0.5204 C   0  0  0  0  0  0  0  0  0  0  0  0
    2.7981    4.0296   -1.9118 C   0  0  0  0  0  0  0  0  0  0  0  0
    3.2294   -0.9309    0.0486 H   0  0  0  0  0  0  0  0  0  0  0  0
    2.2338   -0.3181   -1.2734 H   0  0  0  0  0  0  0  0  0  0  0  0
    1.6610   -1.6680   -0.2875 H   0  0  0  0  0  0  0  0  0  0  0  0
    1.4990   -0.1566    1.7002 H   0  0  0  0  0  0  0  0  0  0  0  0
    0.5055    0.4455    0.3835 H   0  0  0  0  0  0  0  0  0  0  0  0
    3.3038    1.4410    1.0808 H   0  0  0  0  0  0  0  0  0  0  0  0
    1.7844    2.2410    1.5226 H   0  0  0  0  0  0  0  0  0  0  0  0
    2.4596    4.1376    0.2164 H   0  0  0  0  0  0  0  0  0  0  0  0
    3.9524    3.3035   -0.2397 H   0  0  0  0  0  0  0  0  0  0  0  0
    1.7543    4.1869   -2.1856 H   0  0  0  0  0  0  0  0  0  0  0  0
    3.2472    3.3545   -2.6411 H   0  0  0  0  0  0  0  0  0  0  0  0
    3.3178    4.9878   -1.9600 H   0  0  0  0  0  0  0  0  0  0  0  0
  1  2  1  0
  1  7  1  0
  1  8  1  0
  1  9  1  0
  2  3  1  0
  2 10  1  0
  2 11  1  0
  3  4  1  0
  3 12  1  0
  3 13  1  0
  4  5  1  0
  5  6  1  0
  5 14  1  0
  5 15  1  0
  6 16  1  0
  6 17  1  0
  6 18  1  0
M  END
>  <reaction>  (1) 
rmg_rxn_376

>  <mol_properties>  (1) 
{"5": {"label": "donator", "atom_type": "Cs"}, "15": {"label": "d_hydrogen", "atom_type": "H0"}}

>  <type>  (1) 
r1h

$$$$

     RDKit          3D

  8  7  0  0  0  0  0  0  0  0999 V2000
   -0.7873    0.0891   -0.0873 C   0  0  0  0  0  0  0  0  0  0  0  0
    0.7223   -0.0637   -0.0109 C   0  0  0  0  0  0  0  0  0  0  0  0
    1.2867   -0.8404   -0.9706 O   0  0  0  0  0  1  0  0  0  0  0  0
   -1.2724   -0.8840   -0.0044 H   0  0  0  0  0  0  0  0  0  0  0  0
   -1.1517    0.7274    0.7201 H   0  0  0  0  0  0  0  0  0  0  0  0
   -1.0763    0.5365   -1.0389 H   0  0  0  0  0  0  0  0  0  0  0  0
    1.2329    0.9169   -0.0453 H   0  0  0  0  0  0  0  0  0  0  0  0
    1.0411   -0.4722    0.9662 H   0  0  0  0  0  0  0  0  0  0  0  0
  1  2  1  0
  1  4  1  0
  1  5  1  0
  1  6  1  0
  2  3  1  0
  2  7  1  0
  2  8  1  0
M  RAD  1   3   2
M  END
>  <reaction>  (2) 
rmg_rxn_376

>  <mol_properties>  (2) 
{"2": {"label": "acceptor", "atom_type": "O2s"}}

>  <type>  (2) 
r2

$$$$

     RDKit          3D

  9  8  0  0  0  0  0  0  0  0999 V2000
   -0.9895    0.3048    0.1041 C   0  0  0  0  0  0  0  0  0  0  0  0
    0.3761   -0.3562    0.0721 C   0  0  0  0  0  0  0  0  0  0  0  0
    0.3441   -1.6564   -0.4834 O   0  0  0  0  0  0  0  0  0  0  0  0
   -1.6997   -0.3114    0.6572 H   0  0  0  0  0  0  0  0  0  0  0  0
   -0.9320    1.2848    0.5822 H   0  0  0  0  0  0  0  0  0  0  0  0
   -1.3774    0.4507   -0.9077 H   0  0  0  0  0  0  0  0  0  0  0  0
    0.7581   -0.4813    1.0862 H   0  0  0  0  0  0  0  0  0  0  0  0
    1.0900    0.2787   -0.4681 H   0  0  0  0  0  0  0  0  0  0  0  0
    0.0089   -1.5959   -1.3792 H   0  0  0  0  0  0  0  0  0  0  0  0
  1  2  1  0
  1  4  1  0
  1  5  1  0
  1  6  1  0
  2  3  1  0
  2  7  1  0
  2  8  1  0
  3  9  1  0
M  END
>  <reaction>  (3) 
rmg_rxn_376

>  <mol_properties>  (3) 
{"2": {"label": "acceptor", "atom_type": "O2s"}, "8": {"label": "a_hydrogen", "atom_type": "H0"}}

>  <type>  (3) 
r2h

$$$$

     RDKit          3D

 26 24  0  0  0  0  0  0  0  0999 V2000
   -2.3732    0.2412    0.2045 C   0  0  0  0  0  0  0  0  0  0  0  0
   -2.4572    1.5645    0.9437 C   0  0  0  0  0  0  0  0  0  0  0  0
   -1.5341    1.6947    1.9844 O   0  0  0  0  0  0  0  0  0  0  0  0
   -2.5029   -0.5892    0.9006 H   0  0  0  0  0  0  0  0  0  0  0  0
   -3.1511    0.1795   -0.5602 H   0  0  0  0  0  0  0  0  0  0  0  0
   -1.3982    0.1338   -0.2731 H   0  0  0  0  0  0  0  0  0  0  0  0
   -2.3754    2.4060    0.2420 H   0  0  0  0  0  0  0  0  0  0  0  0
   -3.4368    1.6696    1.4282 H   0  0  0  0  0  0  0  0  0  0  0  0
    1.0991   -1.5594   -2.4473 C   0  0  0  0  0  0  0  0  0  0  0  0
    1.0349   -2.0983   -1.0245 C   0  0  0  0  0  0  0  0  0  0  0  0
    1.6975   -1.1888   -0.0105 C   0  0  0  0  0  0  0  0  0  0  0  0
    1.0233    0.0460    0.0083 O   0  0  0  0  0  0  0  0  0  0  0  0
    1.5287    0.9514    0.9498 C   0  0  0  0  0  0  0  0  0  0  0  0
    0.6900    2.1902    0.9496 C   0  0  0  0  0  3  0  0  0  0  0  0
    2.1351   -1.4195   -2.7656 H   0  0  0  0  0  0  0  0  0  0  0  0
    0.5937   -0.5963   -2.5202 H   0  0  0  0  0  0  0  0  0  0  0  0
    0.6234   -2.2469   -3.1480 H   0  0  0  0  0  0  0  0  0  0  0  0
    1.5240   -3.0746   -0.9692 H   0  0  0  0  0  0  0  0  0  0  0  0
   -0.0061   -2.2482   -0.7265 H   0  0  0  0  0  0  0  0  0  0  0  0
    2.7560   -1.0330   -0.2706 H   0  0  0  0  0  0  0  0  0  0  0  0
    1.6662   -1.6456    0.9885 H   0  0  0  0  0  0  0  0  0  0  0  0
    1.5416    0.4991    1.9521 H   0  0  0  0  0  0  0  0  0  0  0  0
    2.5725    1.2104    0.7018 H   0  0  0  0  0  0  0  0  0  0  0  0
   -0.4282    1.9122    1.4875 H   0  0  0  0  0  0  0  0  0  0  0  0
    0.4408    2.5531   -0.0463 H   0  0  0  0  0  0  0  0  0  0  0  0
    1.0713    2.9771    1.5974 H   0  0  0  0  0  0  0  0  0  0  0  0
  1  2  1  0
  1  4  1  0
  1  5  1  0
  1  6  1  0
  2  3  1  0
  2  7  1  0
  2  8  1  0
  3 24  1  0
  9 10  1  0
  9 15  1  0
  9 16  1  0
  9 17  1  0
 10 11  1  0
 10 18  1  0
 10 19  1  0
 11 12  1  0
 11 20  1  0
 11 21  1  0
 12 13  1  0
 13 14  1  0
 13 22  1  0
 13 23  1  0
 14 25  1  0
 14 26  1  0
M  RAD  1  14   2
M  END
>  <reaction>  (4) 
rmg_rxn_376

>  <mol_properties>  (4) 
{"1": {"label": "*0", "atom_type": "Cs"}, "2": {"label": "*1", "atom_type": "O2s"}, "12": {"label": "*4", "atom_type": "Cs"}, "13": {"label": "*3", "atom_type": "Cs"}, "23": {"label": "*2", "atom_type": "H0"}}

>  <type>  (4) 
ts

$$$$

     RDKit          3D

 26 24  0  0  0  0  0  0  0  0999 V2000
   -2.7328    2.5566    1.1467 C   0  0  0  0  0  0  0  0  0  0  0  0
   -3.0406    1.0876    1.3707 C   0  0  0  0  0  0  0  0  0  0  0  0
   -2.2559    0.2325    0.5625 O   0  0  0  0  0  0  0  0  0  0  0  0
   -2.8687    2.8199    0.0969 H   0  0  0  0  0  0  0  0  0  0  0  0
   -3.3902    3.1845    1.7516 H   0  0  0  0  0  0  0  0  0  0  0  0
   -1.7016    2.7874    1.4274 H   0  0  0  0  0  0  0  0  0  0  0  0
   -2.9216    0.8348    2.4321 H   0  0  0  0  0  0  0  0  0  0  0  0
   -4.0761    0.8743    1.1019 H   0  0  0  0  0  0  0  0  0  0  0  0
    2.2093   -2.4762   -2.0879 C   0  0  0  0  0  0  0  0  0  0  0  0
    2.2093   -2.4762   -0.5650 C   0  0  0  0  0  0  0  0  0  0  0  0
    2.2093   -1.0832    0.0305 C   0  0  0  0  0  0  0  0  0  0  0  0
    1.0263   -0.4196   -0.3371 O   0  0  0  0  0  0  0  0  0  0  0  0
    0.9556    0.8985    0.1438 C   0  0  0  0  0  0  0  0  0  0  0  0
   -0.3477    1.5163   -0.3071 C   0  0  0  0  0  3  0  0  0  0  0  0
    3.0914   -1.9619   -2.4776 H   0  0  0  0  0  0  0  0  0  0  0  0
    1.3266   -1.9665   -2.4740 H   0  0  0  0  0  0  0  0  0  0  0  0
    2.2148   -3.4941   -2.4806 H   0  0  0  0  0  0  0  0  0  0  0  0
    3.0908   -3.0027   -0.1888 H   0  0  0  0  0  0  0  0  0  0  0  0
    1.3349   -3.0142   -0.1898 H   0  0  0  0  0  0  0  0  0  0  0  0
    3.0835   -0.5181   -0.3299 H   0  0  0  0  0  0  0  0  0  0  0  0
    2.2841   -1.1371    1.1265 H   0  0  0  0  0  0  0  0  0  0  0  0
    1.0229    0.9013    1.2418 H   0  0  0  0  0  0  0  0  0  0  0  0
    1.8085    1.4815   -0.2341 H   0  0  0  0  0  0  0  0  0  0  0  0
   -1.3634    0.8330    0.1558 H   0  0  0  0  0  0  0  0  0  0  0  0
   -0.4085    1.5281   -1.3959 H   0  0  0  0  0  0  0  0  0  0  0  0
   -0.4253    2.5423    0.0560 H   0  0  0  0  0  0  0  0  0  0  0  0
  1  2  1  0
  1  4  1  0
  1  5  1  0
  1  6  1  0
  2  3  1  0
  2  7  1  0
  2  8  1  0
  3 24  1  0
  9 10  1  0
  9 15  1  0
  9 16  1  0
  9 17  1  0
 10 11  1  0
 10 18  1  0
 10 19  1  0
 11 12  1  0
 11 20  1  0
 11 21  1  0
 12 13  1  0
 13 14  1  0
 13 22  1  0
 13 23  1  0
 14 25  1  0
 14 26  1  0
M  RAD  1  14   2
M  END
>  <reaction>  (5) 
rmg_rxn_376

>  <mol_properties>  (5) 
{"1": {"label": "*0", "atom_type": "Cs"}, "2": {"label": "*1", "atom_type": "O2s"}, "12": {"label": "*4", "atom_type": "Cs"}, "13": {"label": "*3", "atom_type": "Cs"}, "23": {"label": "*2", "atom_type": "H0"}}

>  <type>  (5) 
unop_1

>  <geom_source>  (5) 
Heuristics

$$$$

     RDKit          3D

 26 24  0  0  0  0  0  0  0  0999 V2000
   -1.3494    0.9546    2.4308 C   0  0  0  0  0  0  0  0  0  0  0  0
   -2.2011    0.0329    1.5776 C   0  0  0  0  0  0  0  0  0  0  0  0
   -2.5776    0.6167    0.3457 O   0  0  0  0  0  0  0  0  0  0  0  0
   -1.8711    1.8945    2.6163 H   0  0  0  0  0  0  0  0  0  0  0  0
   -1.1199    0.4879    3.3909 H   0  0  0  0  0  0  0  0  0  0  0  0
   -0.4011    1.1807    1.9358 H   0  0  0  0  0  0  0  0  0  0  0  0
   -1.6786   -0.9180    1.4123 H   0  0  0  0  0  0  0  0  0  0  0  0
   -3.1365   -0.1972    2.0896 H   0  0  0  0  0  0  0  0  0  0  0  0
    1.8877   -2.0920   -2.3047 C   0  0  0  0  0  0  0  0  0  0  0  0
    1.8877   -2.0920   -0.7818 C   0  0  0  0  0  0  0  0  0  0  0  0
    1.8877   -0.6989   -0.1863 C   0  0  0  0  0  0  0  0  0  0  0  0
    0.7047   -0.0353   -0.5539 O   0  0  0  0  0  0  0  0  0  0  0  0
    0.6340    1.2827   -0.0730 C   0  0  0  0  0  0  0  0  0  0  0  0
   -0.6694    1.9005   -0.5238 C   0  0  0  0  0  3  0  0  0  0  0  0
    2.7697   -1.5776   -2.6944 H   0  0  0  0  0  0  0  0  0  0  0  0
    1.0050   -1.5823   -2.6908 H   0  0  0  0  0  0  0  0  0  0  0  0
    1.8932   -3.1098   -2.6974 H   0  0  0  0  0  0  0  0  0  0  0  0
    2.7692   -2.6184   -0.4055 H   0  0  0  0  0  0  0  0  0  0  0  0
    1.0133   -2.6299   -0.4065 H   0  0  0  0  0  0  0  0  0  0  0  0
    2.7619   -0.1338   -0.5467 H   0  0  0  0  0  0  0  0  0  0  0  0
    1.9625   -0.7528    0.9097 H   0  0  0  0  0  0  0  0  0  0  0  0
    0.7012    1.2856    1.0251 H   0  0  0  0  0  0  0  0  0  0  0  0
    1.4868    1.8657   -0.4509 H   0  0  0  0  0  0  0  0  0  0  0  0
   -1.6850    1.2172   -0.0610 H   0  0  0  0  0  0  0  0  0  0  0  0
   -0.7302    1.9124   -1.6127 H   0  0  0  0  0  0  0  0  0  0  0  0
   -0.7470    2.9266   -0.1608 H   0  0  0  0  0  0  0  0  0  0  0  0
  1  2  1  0
  1  4  1  0
  1  5  1  0
  1  6  1  0
  2  3  1  0
  2  7  1  0
  2  8  1  0
  3 24  1  0
  9 10  1  0
  9 15  1  0
  9 16  1  0
  9 17  1  0
 10 11  1  0
 10 18  1  0
 10 19  1  0
 11 12  1  0
 11 20  1  0
 11 21  1  0
 12 13  1  0
 13 14  1  0
 13 22  1  0
 13 23  1  0
 14 25  1  0
 14 26  1  0
M  RAD  1  14   2
M  END
>  <reaction>  (6) 
rmg_rxn_376

>  <mol_properties>  (6) 
{"1": {"label": "*0", "atom_type": "Cs"}, "2": {"label": "*1", "atom_type": "O2s"}, "12": {"label": "*4", "atom_type": "Cs"}, "13": {"label": "*3", "atom_type": "Cs"}, "23": {"label": "*2", "atom_type": "H0"}}

>  <type>  (6) 
unop_2

>  <geom_source>  (6) 
Heuristics

$$$$

     RDKit          3D

 26 24  0  0  0  0  0  0  0  0999 V2000
   -3.2053    2.3314    0.0265 C   0  0  0  0  0  0  0  0  0  0  0  0
   -3.2462    1.1417    0.9677 C   0  0  0  0  0  0  0  0  0  0  0  0
   -2.1578    0.2577    0.7832 O   0  0  0  0  0  0  0  0  0  0  0  0
   -3.1782    1.9970   -1.0115 H   0  0  0  0  0  0  0  0  0  0  0  0
   -4.0846    2.9636    0.1662 H   0  0  0  0  0  0  0  0  0  0  0  0
   -2.3206    2.9466    0.2118 H   0  0  0  0  0  0  0  0  0  0  0  0
   -3.2939    1.4858    2.0088 H   0  0  0  0  0  0  0  0  0  0  0  0
   -4.1410    0.5457    0.7830 H   0  0  0  0  0  0  0  0  0  0  0  0
    2.3074   -2.4511   -1.8673 C   0  0  0  0  0  0  0  0  0  0  0  0
    2.3074   -2.4511   -0.3444 C   0  0  0  0  0  0  0  0  0  0  0  0
    2.3074   -1.0580    0.2511 C   0  0  0  0  0  0  0  0  0  0  0  0
    1.1244   -0.3944   -0.1165 O   0  0  0  0  0  0  0  0  0  0  0  0
    1.0537    0.9237    0.3644 C   0  0  0  0  0  0  0  0  0  0  0  0
   -0.2496    1.5414   -0.0864 C   0  0  0  0  0  3  0  0  0  0  0  0
    3.1895   -1.9367   -2.2569 H   0  0  0  0  0  0  0  0  0  0  0  0
    1.4247   -1.9414   -2.2534 H   0  0  0  0  0  0  0  0  0  0  0  0
    2.3129   -3.4689   -2.2600 H   0  0  0  0  0  0  0  0  0  0  0  0
    3.1890   -2.9775    0.0319 H   0  0  0  0  0  0  0  0  0  0  0  0
    1.4331   -2.9890    0.0309 H   0  0  0  0  0  0  0  0  0  0  0  0
    3.1816   -0.4929   -0.1093 H   0  0  0  0  0  0  0  0  0  0  0  0
    2.3822   -1.1119    1.3472 H   0  0  0  0  0  0  0  0  0  0  0  0
    1.1210    0.9265    1.4625 H   0  0  0  0  0  0  0  0  0  0  0  0
    1.9066    1.5066   -0.0135 H   0  0  0  0  0  0  0  0  0  0  0  0
   -1.2652    0.8582    0.3764 H   0  0  0  0  0  0  0  0  0  0  0  0
   -0.3104    1.5533   -1.1752 H   0  0  0  0  0  0  0  0  0  0  0  0
   -0.3272    2.5675    0.2766 H   0  0  0  0  0  0  0  0  0  0  0  0
  1  2  1  0
  1  4  1  0
  1  5  1  0
  1  6  1  0
  2  3  1  0
  2  7  1  0
  2  8  1  0
  3 24  1  0
  9 10  1  0
  9 15  1  0
  9 16  1  0
  9 17  1  0
 10 11  1  0
 10 18  1  0
 10 19  1  0
 11 12  1  0
 11 20  1  0
 11 21  1  0
 12 13  1  0
 13 14  1  0
 13 22  1  0
 13 23  1  0
 14 25  1  0
 14 26  1  0
M  RAD  1  14   2
M  END
>  <reaction>  (7) 
rmg_rxn_376

>  <mol_properties>  (7) 
{"1": {"label": "*0", "atom_type": "Cs"}, "2": {"label": "*1", "atom_type": "O2s"}, "12": {"label": "*4", "atom_type": "Cs"}, "13": {"label": "*3", "atom_type": "Cs"}, "23": {"label": "*2", "atom_type": "H0"}}

>  <type>  (7) 
unop_3

>  <geom_source>  (7) 
Heuristics

$$$$

     RDKit          3D

 26 24  0  0  0  0  0  0  0  0999 V2000
   -1.7010   -1.2697    1.1891 C   0  0  0  0  0  0  0  0  0  0  0  0
   -2.4079   -0.3309    0.2290 C   0  0  0  0  0  0  0  0  0  0  0  0
   -2.4967    0.9924    0.7201 O   0  0  0  0  0  0  0  0  0  0  0  0
   -2.2009   -1.2727    2.1586 H   0  0  0  0  0  0  0  0  0  0  0  0
   -1.6948   -2.2888    0.7969 H   0  0  0  0  0  0  0  0  0  0  0  0
   -0.6618   -0.9652    1.3400 H   0  0  0  0  0  0  0  0  0  0  0  0
   -1.9119   -0.3486   -0.7499 H   0  0  0  0  0  0  0  0  0  0  0  0
   -3.4381   -0.6549    0.0751 H   0  0  0  0  0  0  0  0  0  0  0  0
    1.9685   -1.7163   -1.9303 C   0  0  0  0  0  0  0  0  0  0  0  0
    1.9685   -1.7163   -0.4074 C   0  0  0  0  0  0  0  0  0  0  0  0
    1.9685   -0.3233    0.1881 C   0  0  0  0  0  0  0  0  0  0  0  0
    0.7855    0.3403   -0.1795 O   0  0  0  0  0  0  0  0  0  0  0  0
    0.7148    1.6584    0.3014 C   0  0  0  0  0  0  0  0  0  0  0  0
   -0.5885    2.2762   -0.1494 C   0  0  0  0  0  3  0  0  0  0  0  0
    2.8506   -1.2020   -2.3200 H   0  0  0  0  0  0  0  0  0  0  0  0
    1.0858   -1.2066   -2.3164 H   0  0  0  0  0  0  0  0  0  0  0  0
    1.9740   -2.7342   -2.3230 H   0  0  0  0  0  0  0  0  0  0  0  0
    2.8500   -2.2428   -0.0311 H   0  0  0  0  0  0  0  0  0  0  0  0
    1.0941   -2.2543   -0.0322 H   0  0  0  0  0  0  0  0  0  0  0  0
    2.8427    0.2418   -0.1723 H   0  0  0  0  0  0  0  0  0  0  0  0
    2.0433   -0.3772    1.2841 H   0  0  0  0  0  0  0  0  0  0  0  0
    0.7821    1.6612    1.3995 H   0  0  0  0  0  0  0  0  0  0  0  0
    1.5677    2.2414   -0.0765 H   0  0  0  0  0  0  0  0  0  0  0  0
   -1.6042    1.5929    0.3134 H   0  0  0  0  0  0  0  0  0  0  0  0
   -0.6493    2.2880   -1.2383 H   0  0  0  0  0  0  0  0  0  0  0  0
   -0.6661    3.3022    0.2136 H   0  0  0  0  0  0  0  0  0  0  0  0
  1  2  1  0
  1  4  1  0
  1  5  1  0
  1  6  1  0
  2  3  1  0
  2  7  1  0
  2  8  1  0
  3 24  1  0
  9 10  1  0
  9 15  1  0
  9 16  1  0
  9 17  1  0
 10 11  1  0
 10 18  1  0
 10 19  1  0
 11 12  1  0
 11 20  1  0
 11 21  1  0
 12 13  1  0
 13 14  1  0
 13 22  1  0
 13 23  1  0
 14 25  1  0
 14 26  1  0
M  RAD  1  14   2
M  END
>  <reaction>  (8) 
rmg_rxn_376

>  <mol_properties>  (8) 
{"1": {"label": "*0", "atom_type": "Cs"}, "2": {"label": "*1", "atom_type": "O2s"}, "12": {"label": "*4", "atom_type": "Cs"}, "13": {"label": "*3", "atom_type": "Cs"}, "23": {"label": "*2", "atom_type": "H0"}}

>  <type>  (8) 
unop_4

>  <geom_source>  (8) 
Heuristics

$$$$

     RDKit          3D

 26 24  0  0  0  0  0  0  0  0999 V2000
   -3.4127    1.1213   -0.9703 C   0  0  0  0  0  0  0  0  0  0  0  0
   -3.3119    1.0589    0.5426 C   0  0  0  0  0  0  0  0  0  0  0  0
   -2.1183    0.4455    0.9888 O   0  0  0  0  0  0  0  0  0  0  0  0
   -3.3327    0.1220   -1.4003 H   0  0  0  0  0  0  0  0  0  0  0  0
   -4.3666    1.5567   -1.2752 H   0  0  0  0  0  0  0  0  0  0  0  0
   -2.6153    1.7403   -1.3903 H   0  0  0  0  0  0  0  0  0  0  0  0
   -3.4137    2.0649    0.9693 H   0  0  0  0  0  0  0  0  0  0  0  0
   -4.1218    0.4519    0.9495 H   0  0  0  0  0  0  0  0  0  0  0  0
    2.3470   -2.2632   -1.6617 C   0  0  0  0  0  0  0  0  0  0  0  0
    2.3470   -2.2632   -0.1388 C   0  0  0  0  0  0  0  0  0  0  0  0
    2.3470   -0.8702    0.4567 C   0  0  0  0  0  0  0  0  0  0  0  0
    1.1640   -0.2066    0.0891 O   0  0  0  0  0  0  0  0  0  0  0  0
    1.0933    1.1115    0.5700 C   0  0  0  0  0  0  0  0  0  0  0  0
   -0.2101    1.7293    0.1192 C   0  0  0  0  0  3  0  0  0  0  0  0
    3.2291   -1.7489   -2.0513 H   0  0  0  0  0  0  0  0  0  0  0  0
    1.4643   -1.7536   -2.0478 H   0  0  0  0  0  0  0  0  0  0  0  0
    2.3525   -3.2811   -2.0544 H   0  0  0  0  0  0  0  0  0  0  0  0
    3.2285   -2.7897    0.2375 H   0  0  0  0  0  0  0  0  0  0  0  0
    1.4726   -2.8012    0.2365 H   0  0  0  0  0  0  0  0  0  0  0  0
    3.2212   -0.3051    0.0963 H   0  0  0  0  0  0  0  0  0  0  0  0
    2.4218   -0.9241    1.5528 H   0  0  0  0  0  0  0  0  0  0  0  0
    1.1605    1.1143    1.6681 H   0  0  0  0  0  0  0  0  0  0  0  0
    1.9461    1.6945    0.1922 H   0  0  0  0  0  0  0  0  0  0  0  0
   -1.2257    1.0460    0.5820 H   0  0  0  0  0  0  0  0  0  0  0  0
   -0.2709    1.7411   -0.9696 H   0  0  0  0  0  0  0  0  0  0  0  0
   -0.2877    2.7553    0.4823 H   0  0  0  0  0  0  0  0  0  0  0  0
  1  2  1  0
  1  4  1  0
  1  5  1  0
  1  6  1  0
  2  3  1  0
  2  7  1  0
  2  8  1  0
  3 24  1  0
  9 10  1  0
  9 15  1  0
  9 16  1  0
  9 17  1  0
 10 11  1  0
 10 18  1  0
 10 19  1  0
 11 12  1  0
 11 20  1  0
 11 21  1  0
 12 13  1  0
 13 14  1  0
 13 22  1  0
 13 23  1  0
 14 25  1  0
 14 26  1  0
M  RAD  1  14   2
M  END
>  <reaction>  (9) 
rmg_rxn_376

>  <mol_properties>  (9) 
{"1": {"label": "*0", "atom_type": "Cs"}, "2": {"label": "*1", "atom_type": "O2s"}, "12": {"label": "*4", "atom_type": "Cs"}, "13": {"label": "*3", "atom_type": "Cs"}, "23": {"label": "*2", "atom_type": "H0"}}

>  <type>  (9) 
unop_5

>  <geom_source>  (9) 
Heuristics

$$$$

     RDKit          3D

 26 24  0  0  0  0  0  0  0  0999 V2000
   -2.2004   -1.4058    0.3397 C   0  0  0  0  0  0  0  0  0  0  0  0
   -2.7123   -0.0332   -0.0562 C   0  0  0  0  0  0  0  0  0  0  0  0
   -2.3804    0.9693    0.8845 O   0  0  0  0  0  0  0  0  0  0  0  0
   -2.5808   -1.6868    1.3226 H   0  0  0  0  0  0  0  0  0  0  0  0
   -2.5168   -2.1588   -0.3850 H   0  0  0  0  0  0  0  0  0  0  0  0
   -1.1078   -1.4197    0.3781 H   0  0  0  0  0  0  0  0  0  0  0  0
   -2.3423    0.2340   -1.0544 H   0  0  0  0  0  0  0  0  0  0  0  0
   -3.8021   -0.0374   -0.1062 H   0  0  0  0  0  0  0  0  0  0  0  0
    2.0848   -1.7394   -1.7660 C   0  0  0  0  0  0  0  0  0  0  0  0
    2.0848   -1.7394   -0.2431 C   0  0  0  0  0  0  0  0  0  0  0  0
    2.0848   -0.3464    0.3525 C   0  0  0  0  0  0  0  0  0  0  0  0
    0.9018    0.3172   -0.0151 O   0  0  0  0  0  0  0  0  0  0  0  0
    0.8311    1.6353    0.4658 C   0  0  0  0  0  0  0  0  0  0  0  0
   -0.4722    2.2531    0.0149 C   0  0  0  0  0  3  0  0  0  0  0  0
    2.9669   -1.2251   -2.1556 H   0  0  0  0  0  0  0  0  0  0  0  0
    1.2021   -1.2297   -2.1520 H   0  0  0  0  0  0  0  0  0  0  0  0
    2.0903   -2.7573   -2.1586 H   0  0  0  0  0  0  0  0  0  0  0  0
    2.9663   -2.2659    0.1332 H   0  0  0  0  0  0  0  0  0  0  0  0
    1.2104   -2.2774    0.1322 H   0  0  0  0  0  0  0  0  0  0  0  0
    2.9590    0.2187   -0.0079 H   0  0  0  0  0  0  0  0  0  0  0  0
    2.1596   -0.4003    1.4485 H   0  0  0  0  0  0  0  0  0  0  0  0
    0.8984    1.6381    1.5638 H   0  0  0  0  0  0  0  0  0  0  0  0
    1.6840    2.2183    0.0879 H   0  0  0  0  0  0  0  0  0  0  0  0
   -1.4878    1.5698    0.4777 H   0  0  0  0  0  0  0  0  0  0  0  0
   -0.5330    2.2649   -1.0739 H   0  0  0  0  0  0  0  0  0  0  0  0
   -0.5498    3.2791    0.3780 H   0  0  0  0  0  0  0  0  0  0  0  0
  1  2  1  0
  1  4  1  0
  1  5  1  0
  1  6  1  0
  2  3  1  0
  2  7  1  0
  2  8  1  0
  3 24  1  0
  9 10  1  0
  9 15  1  0
  9 16  1  0
  9 17  1  0
 10 11  1  0
 10 18  1  0
 10 19  1  0
 11 12  1  0
 11 20  1  0
 11 21  1  0
 12 13  1  0
 13 14  1  0
 13 22  1  0
 13 23  1  0
 14 25  1  0
 14 26  1  0
M  RAD  1  14   2
M  END
>  <reaction>  (10) 
rmg_rxn_376

>  <mol_properties>  (10) 
{"1": {"label": "*0", "atom_type": "Cs"}, "2": {"label": "*1", "atom_type": "O2s"}, "12": {"label": "*4", "atom_type": "Cs"}, "13": {"label": "*3", "atom_type": "Cs"}, "23": {"label": "*2", "atom_type": "H0"}}

>  <type>  (10) 
unop_6

>  <geom_source>  (10) 
Heuristics

$$$$

     RDKit          3D

 26 24  0  0  0  0  0  0  0  0999 V2000
   -2.7630   -1.0813   -0.3945 C   0  0  0  0  0  0  0  0  0  0  0  0
   -3.0125    0.3861   -0.0986 C   0  0  0  0  0  0  0  0  0  0  0  0
   -2.2556    0.8619    0.9971 O   0  0  0  0  0  0  0  0  0  0  0  0
   -2.9728   -1.6899    0.4860 H   0  0  0  0  0  0  0  0  0  0  0  0
   -3.3991   -1.4226   -1.2138 H   0  0  0  0  0  0  0  0  0  0  0  0
   -1.7234   -1.2499   -0.6883 H   0  0  0  0  0  0  0  0  0  0  0  0
   -2.8192    0.9898   -0.9946 H   0  0  0  0  0  0  0  0  0  0  0  0
   -4.0562    0.5427    0.1774 H   0  0  0  0  0  0  0  0  0  0  0  0
    2.2097   -1.8469   -1.6533 C   0  0  0  0  0  0  0  0  0  0  0  0
    2.2097   -1.8469   -0.1304 C   0  0  0  0  0  0  0  0  0  0  0  0
    2.2097   -0.4538    0.4651 C   0  0  0  0  0  0  0  0  0  0  0  0
    1.0267    0.2098    0.0975 O   0  0  0  0  0  0  0  0  0  0  0  0
    0.9560    1.5279    0.5784 C   0  0  0  0  0  0  0  0  0  0  0  0
   -0.3474    2.1456    0.1276 C   0  0  0  0  0  3  0  0  0  0  0  0
    3.0918   -1.3325   -2.0429 H   0  0  0  0  0  0  0  0  0  0  0  0
    1.3270   -1.3372   -2.0394 H   0  0  0  0  0  0  0  0  0  0  0  0
    2.2152   -2.8647   -2.0460 H   0  0  0  0  0  0  0  0  0  0  0  0
    3.0912   -2.3733    0.2459 H   0  0  0  0  0  0  0  0  0  0  0  0
    1.3353   -2.3848    0.2449 H   0  0  0  0  0  0  0  0  0  0  0  0
    3.0839    0.1113    0.1047 H   0  0  0  0  0  0  0  0  0  0  0  0
    2.2845   -0.5077    1.5612 H   0  0  0  0  0  0  0  0  0  0  0  0
    1.0232    1.5307    1.6765 H   0  0  0  0  0  0  0  0  0  0  0  0
    1.8088    2.1108    0.2005 H   0  0  0  0  0  0  0  0  0  0  0  0
   -1.3630    1.4624    0.5904 H   0  0  0  0  0  0  0  0  0  0  0  0
   -0.4082    2.1575   -0.9612 H   0  0  0  0  0  0  0  0  0  0  0  0
   -0.4250    3.1717    0.4906 H   0  0  0  0  0  0  0  0  0  0  0  0
  1  2  1  0
  1  4  1  0
  1  5  1  0
  1  6  1  0
  2  3  1  0
  2  7  1  0
  2  8  1  0
  3 24  1  0
  9 10  1  0
  9 15  1  0
  9 16  1  0
  9 17  1  0
 10 11  1  0
 10 18  1  0
 10 19  1  0
 11 12  1  0
 11 20  1  0
 11 21  1  0
 12 13  1  0
 13 14  1  0
 13 22  1  0
 13 23  1  0
 14 25  1  0
 14 26  1  0
M  RAD  1  14   2
M  END
>  <reaction>  (11) 
rmg_rxn_376

>  <mol_properties>  (11) 
{"1": {"label": "*0", "atom_type": "Cs"}, "2": {"label": "*1", "atom_type": "O2s"}, "12": {"label": "*4", "atom_type": "Cs"}, "13": {"label": "*3", "atom_type": "Cs"}, "23": {"label": "*2", "atom_type": "H0"}}

>  <type>  (11) 
unop_7

>  <geom_source>  (11) 
Heuristics

$$$$

     RDKit          3D

 26 24  0  0  0  0  0  0  0  0999 V2000
   -2.1709    2.2325    1.9075 C   0  0  0  0  0  0  0  0  0  0  0  0
   -2.7441    0.8481    1.6670 C   0  0  0  0  0  0  0  0  0  0  0  0
   -2.3801    0.3138    0.4092 O   0  0  0  0  0  0  0  0  0  0  0  0
   -2.4802    2.9171    1.1166 H   0  0  0  0  0  0  0  0  0  0  0  0
   -2.5125    2.6297    2.8656 H   0  0  0  0  0  0  0  0  0  0  0  0
   -1.0781    2.2051    1.9295 H   0  0  0  0  0  0  0  0  0  0  0  0
   -2.4458    0.1703    2.4771 H   0  0  0  0  0  0  0  0  0  0  0  0
   -3.8343    0.8871    1.6633 H   0  0  0  0  0  0  0  0  0  0  0  0
    2.0851   -2.3949   -2.2412 C   0  0  0  0  0  0  0  0  0  0  0  0
    2.0851   -2.3949   -0.7183 C   0  0  0  0  0  0  0  0  0  0  0  0
    2.0851   -1.0018   -0.1228 C   0  0  0  0  0  0  0  0  0  0  0  0
    0.9021   -0.3382   -0.4904 O   0  0  0  0  0  0  0  0  0  0  0  0
    0.8314    0.9798   -0.0095 C   0  0  0  0  0  0  0  0  0  0  0  0
   -0.4719    1.5976   -0.4603 C   0  0  0  0  0  3  0  0  0  0  0  0
    2.9672   -1.8806   -2.6309 H   0  0  0  0  0  0  0  0  0  0  0  0
    1.2024   -1.8852   -2.6273 H   0  0  0  0  0  0  0  0  0  0  0  0
    2.0906   -3.4127   -2.6339 H   0  0  0  0  0  0  0  0  0  0  0  0
    2.9666   -2.9214   -0.3420 H   0  0  0  0  0  0  0  0  0  0  0  0
    1.2107   -2.9329   -0.3430 H   0  0  0  0  0  0  0  0  0  0  0  0
    2.9593   -0.4367   -0.4832 H   0  0  0  0  0  0  0  0  0  0  0  0
    2.1599   -1.0557    0.9732 H   0  0  0  0  0  0  0  0  0  0  0  0
    0.8986    0.9827    1.0886 H   0  0  0  0  0  0  0  0  0  0  0  0
    1.6843    1.5628   -0.3874 H   0  0  0  0  0  0  0  0  0  0  0  0
   -1.4876    0.9143    0.0025 H   0  0  0  0  0  0  0  0  0  0  0  0
   -0.5327    1.6095   -1.5492 H   0  0  0  0  0  0  0  0  0  0  0  0
   -0.5495    2.6236   -0.0973 H   0  0  0  0  0  0  0  0  0  0  0  0
  1  2  1  0
  1  4  1  0
  1  5  1  0
  1  6  1  0
  2  3  1  0
  2  7  1  0
  2  8  1  0
  3 24  1  0
  9 10  1  0
  9 15  1  0
  9 16  1  0
  9 17  1  0
 10 11  1  0
 10 18  1  0
 10 19  1  0
 11 12  1  0
 11 20  1  0
 11 21  1  0
 12 13  1  0
 13 14  1  0
 13 22  1  0
 13 23  1  0
 14 25  1  0
 14 26  1  0
M  RAD  1  14   2
M  END
>  <reaction>  (12) 
rmg_rxn_376

>  <mol_properties>  (12) 
{"1": {"label": "*0", "atom_type": "Cs"}, "2": {"label": "*1", "atom_type": "O2s"}, "12": {"label": "*4", "atom_type": "Cs"}, "13": {"label": "*3", "atom_type": "Cs"}, "23": {"label": "*2", "atom_type": "H0"}}

>  <type>  (12) 
unop_8

>  <geom_source>  (12) 
Heuristics

$$$$

     RDKit          3D

 26 24  0  0  0  0  0  0  0  0999 V2000
   -1.3688   -0.6869    1.9333 C   0  0  0  0  0  0  0  0  0  0  0  0
   -2.1847   -0.4302    0.6797 C   0  0  0  0  0  0  0  0  0  0  0  0
   -2.5771    0.9220    0.5471 O   0  0  0  0  0  0  0  0  0  0  0  0
   -1.9238   -0.3790    2.8204 H   0  0  0  0  0  0  0  0  0  0  0  0
   -1.1263   -1.7477    2.0245 H   0  0  0  0  0  0  0  0  0  0  0  0
   -0.4273   -0.1316    1.9078 H   0  0  0  0  0  0  0  0  0  0  0  0
   -1.6285   -0.7611   -0.2067 H   0  0  0  0  0  0  0  0  0  0  0  0
   -3.1131   -1.0020    0.7107 H   0  0  0  0  0  0  0  0  0  0  0  0
    1.8881   -1.7867   -2.1033 C   0  0  0  0  0  0  0  0  0  0  0  0
    1.8881   -1.7867   -0.5804 C   0  0  0  0  0  0  0  0  0  0  0  0
    1.8881   -0.3936    0.0151 C   0  0  0  0  0  0  0  0  0  0  0  0
    0.7051    0.2700   -0.3525 O   0  0  0  0  0  0  0  0  0  0  0  0
    0.6344    1.5880    0.1284 C   0  0  0  0  0  0  0  0  0  0  0  0
   -0.6689    2.2058   -0.3224 C   0  0  0  0  0  3  0  0  0  0  0  0
    2.7702   -1.2724   -2.4929 H   0  0  0  0  0  0  0  0  0  0  0  0
    1.0054   -1.2770   -2.4894 H   0  0  0  0  0  0  0  0  0  0  0  0
    1.8936   -2.8045   -2.4960 H   0  0  0  0  0  0  0  0  0  0  0  0
    2.7696   -2.3132   -0.2041 H   0  0  0  0  0  0  0  0  0  0  0  0
    1.0137   -2.3247   -0.2051 H   0  0  0  0  0  0  0  0  0  0  0  0
    2.7623    0.1715   -0.3453 H   0  0  0  0  0  0  0  0  0  0  0  0
    1.9629   -0.4475    1.1112 H   0  0  0  0  0  0  0  0  0  0  0  0
    0.7017    1.5909    1.2265 H   0  0  0  0  0  0  0  0  0  0  0  0
    1.4873    2.1710   -0.2495 H   0  0  0  0  0  0  0  0  0  0  0  0
   -1.6845    1.5225    0.1404 H   0  0  0  0  0  0  0  0  0  0  0  0
   -0.7297    2.2177   -1.4112 H   0  0  0  0  0  0  0  0  0  0  0  0
   -0.7465    3.2318    0.0406 H   0  0  0  0  0  0  0  0  0  0  0  0
  1  2  1  0
  1  4  1  0
  1  5  1  0
  1  6  1  0
  2  3  1  0
  2  7  1  0
  2  8  1  0
  3 24  1  0
  9 10  1  0
  9 15  1  0
  9 16  1  0
  9 17  1  0
 10 11  1  0
 10 18  1  0
 10 19  1  0
 11 12  1  0
 11 20  1  0
 11 21  1  0
 12 13  1  0
 13 14  1  0
 13 22  1  0
 13 23  1  0
 14 25  1  0
 14 26  1  0
M  RAD  1  14   2
M  END
>  <reaction>  (13) 
rmg_rxn_376

>  <mol_properties>  (13) 
{"1": {"label": "*0", "atom_type": "Cs"}, "2": {"label": "*1", "atom_type": "O2s"}, "12": {"label": "*4", "atom_type": "Cs"}, "13": {"label": "*3", "atom_type": "Cs"}, "23": {"label": "*2", "atom_type": "H0"}}

>  <type>  (13) 
unop_9

>  <geom_source>  (13) 
Heuristics

$$$$

     RDKit          3D

 26 24  0  0  0  0  0  0  0  0999 V2000
   -1.6732    1.6522    2.3029 C   0  0  0  0  0  0  0  0  0  0  0  0
   -2.4358    0.4613    1.7522 C   0  0  0  0  0  0  0  0  0  0  0  0
   -2.4968    0.4537    0.3393 O   0  0  0  0  0  0  0  0  0  0  0  0
   -2.1156    2.5852    1.9513 H   0  0  0  0  0  0  0  0  0  0  0  0
   -1.6891    1.6485    3.3947 H   0  0  0  0  0  0  0  0  0  0  0  0
   -0.6272    1.6276    1.9854 H   0  0  0  0  0  0  0  0  0  0  0  0
   -1.9978   -0.4729    2.1264 H   0  0  0  0  0  0  0  0  0  0  0  0
   -3.4729    0.4895    2.0891 H   0  0  0  0  0  0  0  0  0  0  0  0
    1.9685   -2.2550   -2.3111 C   0  0  0  0  0  0  0  0  0  0  0  0
    1.9685   -2.2550   -0.7882 C   0  0  0  0  0  0  0  0  0  0  0  0
    1.9685   -0.8619   -0.1927 C   0  0  0  0  0  0  0  0  0  0  0  0
    0.7855   -0.1984   -0.5603 O   0  0  0  0  0  0  0  0  0  0  0  0
    0.7147    1.1197   -0.0794 C   0  0  0  0  0  0  0  0  0  0  0  0
   -0.5886    1.7375   -0.5302 C   0  0  0  0  0  3  0  0  0  0  0  0
    2.8505   -1.7407   -2.7007 H   0  0  0  0  0  0  0  0  0  0  0  0
    1.0857   -1.7453   -2.6972 H   0  0  0  0  0  0  0  0  0  0  0  0
    1.9739   -3.2729   -2.7038 H   0  0  0  0  0  0  0  0  0  0  0  0
    2.8500   -2.7815   -0.4119 H   0  0  0  0  0  0  0  0  0  0  0  0
    1.0941   -2.7930   -0.4129 H   0  0  0  0  0  0  0  0  0  0  0  0
    2.8427   -0.2969   -0.5531 H   0  0  0  0  0  0  0  0  0  0  0  0
    2.0432   -0.9159    0.9034 H   0  0  0  0  0  0  0  0  0  0  0  0
    0.7820    1.1226    1.0187 H   0  0  0  0  0  0  0  0  0  0  0  0
    1.5676    1.7027   -0.4573 H   0  0  0  0  0  0  0  0  0  0  0  0
   -1.6042    1.0542   -0.0674 H   0  0  0  0  0  0  0  0  0  0  0  0
   -0.6494    1.7493   -1.6190 H   0  0  0  0  0  0  0  0  0  0  0  0
   -0.6662    2.7635   -0.1672 H   0  0  0  0  0  0  0  0  0  0  0  0
  1  2  1  0
  1  4  1  0
  1  5  1  0
  1  6  1  0
  2  3  1  0
  2  7  1  0
  2  8  1  0
  3 24  1  0
  9 10  1  0
  9 15  1  0
  9 16  1  0
  9 17  1  0
 10 11  1  0
 10 18  1  0
 10 19  1  0
 11 12  1  0
 11 20  1  0
 11 21  1  0
 12 13  1  0
 13 14  1  0
 13 22  1  0
 13 23  1  0
 14 25  1  0
 14 26  1  0
M  RAD  1  14   2
M  END
>  <reaction>  (14) 
rmg_rxn_376

>  <mol_properties>  (14) 
{"1": {"label": "*0", "atom_type": "Cs"}, "2": {"label": "*1", "atom_type": "O2s"}, "12": {"label": "*4", "atom_type": "Cs"}, "13": {"label": "*3", "atom_type": "Cs"}, "23": {"label": "*2", "atom_type": "H0"}}

>  <type>  (14) 
unop_10

>  <geom_source>  (14) 
Heuristics

$$$$

     RDKit          3D

 26 24  0  0  0  0  0  0  0  0999 V2000
   -3.2319   -0.2955   -0.9201 C   0  0  0  0  0  0  0  0  0  0  0  0
   -3.2288    0.8035    0.1263 C   0  0  0  0  0  0  0  0  0  0  0  0
   -2.1564    0.6878    1.0411 O   0  0  0  0  0  0  0  0  0  0  0  0
   -3.2620   -1.2765   -0.4442 H   0  0  0  0  0  0  0  0  0  0  0  0
   -4.0992   -0.1998   -1.5767 H   0  0  0  0  0  0  0  0  0  0  0  0
   -2.3354   -0.2442   -1.5439 H   0  0  0  0  0  0  0  0  0  0  0  0
   -3.2191    1.7874   -0.3599 H   0  0  0  0  0  0  0  0  0  0  0  0
   -4.1353    0.7507    0.7309 H   0  0  0  0  0  0  0  0  0  0  0  0
    2.3088   -2.0209   -1.6093 C   0  0  0  0  0  0  0  0  0  0  0  0
    2.3088   -2.0209   -0.0864 C   0  0  0  0  0  0  0  0  0  0  0  0
    2.3088   -0.6278    0.5091 C   0  0  0  0  0  0  0  0  0  0  0  0
    1.1258    0.0358    0.1415 O   0  0  0  0  0  0  0  0  0  0  0  0
    1.0551    1.3538    0.6224 C   0  0  0  0  0  0  0  0  0  0  0  0
   -0.2482    1.9716    0.1716 C   0  0  0  0  0  3  0  0  0  0  0  0
    3.1909   -1.5066   -1.9990 H   0  0  0  0  0  0  0  0  0  0  0  0
    1.4261   -1.5112   -1.9954 H   0  0  0  0  0  0  0  0  0  0  0  0
    2.3143   -3.0388   -2.0020 H   0  0  0  0  0  0  0  0  0  0  0  0
    3.1903   -2.5474    0.2899 H   0  0  0  0  0  0  0  0  0  0  0  0
    1.4344   -2.5589    0.2888 H   0  0  0  0  0  0  0  0  0  0  0  0
    3.1830   -0.0628    0.1487 H   0  0  0  0  0  0  0  0  0  0  0  0
    2.3836   -0.6818    1.6051 H   0  0  0  0  0  0  0  0  0  0  0  0
    1.1224    1.3567    1.7205 H   0  0  0  0  0  0  0  0  0  0  0  0
    1.9080    1.9368    0.2445 H   0  0  0  0  0  0  0  0  0  0  0  0
   -1.2639    1.2883    0.6344 H   0  0  0  0  0  0  0  0  0  0  0  0
   -0.3090    1.9835   -0.9173 H   0  0  0  0  0  0  0  0  0  0  0  0
   -0.3258    2.9976    0.5346 H   0  0  0  0  0  0  0  0  0  0  0  0
  1  2  1  0
  1  4  1  0
  1  5  1  0
  1  6  1  0
  2  3  1  0
  2  7  1  0
  2  8  1  0
  3 24  1  0
  9 10  1  0
  9 15  1  0
  9 16  1  0
  9 17  1  0
 10 11  1  0
 10 18  1  0
 10 19  1  0
 11 12  1  0
 11 20  1  0
 11 21  1  0
 12 13  1  0
 13 14  1  0
 13 22  1  0
 13 23  1  0
 14 25  1  0
 14 26  1  0
M  RAD  1  14   2
M  END
>  <reaction>  (15) 
rmg_rxn_376

>  <mol_properties>  (15) 
{"1": {"label": "*0", "atom_type": "Cs"}, "2": {"label": "*1", "atom_type": "O2s"}, "12": {"label": "*4", "atom_type": "Cs"}, "13": {"label": "*3", "atom_type": "Cs"}, "23": {"label": "*2", "atom_type": "H0"}}

>  <type>  (15) 
unop_11

>  <geom_source>  (15) 
Heuristics

$$$$

     RDKit          3D

 26 24  0  0  0  0  0  0  0  0999 V2000
   -1.2476    0.1489    2.3454 C   0  0  0  0  0  0  0  0  0  0  0  0
   -2.1080   -0.2998    1.1787 C   0  0  0  0  0  0  0  0  0  0  0  0
   -2.6058    0.7818    0.4154 O   0  0  0  0  0  0  0  0  0  0  0  0
   -1.8050    0.8270    2.9930 H   0  0  0  0  0  0  0  0  0  0  0  0
   -0.9226   -0.7096    2.9369 H   0  0  0  0  0  0  0  0  0  0  0  0
   -0.3522    0.6687    1.9940 H   0  0  0  0  0  0  0  0  0  0  0  0
   -1.5477   -0.9974    0.5431 H   0  0  0  0  0  0  0  0  0  0  0  0
   -2.9890   -0.8304    1.5423 H   0  0  0  0  0  0  0  0  0  0  0  0
    1.8595   -1.9269   -2.2350 C   0  0  0  0  0  0  0  0  0  0  0  0
    1.8595   -1.9269   -0.7121 C   0  0  0  0  0  0  0  0  0  0  0  0
    1.8595   -0.5339   -0.1166 C   0  0  0  0  0  0  0  0  0  0  0  0
    0.6765    0.1297   -0.4842 O   0  0  0  0  0  0  0  0  0  0  0  0
    0.6058    1.4478   -0.0033 C   0  0  0  0  0  0  0  0  0  0  0  0
   -0.6976    2.0656   -0.4541 C   0  0  0  0  0  3  0  0  0  0  0  0
    2.7415   -1.4126   -2.6246 H   0  0  0  0  0  0  0  0  0  0  0  0
    0.9768   -1.4172   -2.6211 H   0  0  0  0  0  0  0  0  0  0  0  0
    1.8650   -2.9448   -2.6277 H   0  0  0  0  0  0  0  0  0  0  0  0
    2.7410   -2.4534   -0.3358 H   0  0  0  0  0  0  0  0  0  0  0  0
    0.9851   -2.4649   -0.3368 H   0  0  0  0  0  0  0  0  0  0  0  0
    2.7337    0.0312   -0.4770 H   0  0  0  0  0  0  0  0  0  0  0  0
    1.9343   -0.5878    0.9795 H   0  0  0  0  0  0  0  0  0  0  0  0
    0.6730    1.4506    1.0948 H   0  0  0  0  0  0  0  0  0  0  0  0
    1.4586    2.0308   -0.3812 H   0  0  0  0  0  0  0  0  0  0  0  0
   -1.7132    1.3823    0.0087 H   0  0  0  0  0  0  0  0  0  0  0  0
   -0.7584    2.0774   -1.5429 H   0  0  0  0  0  0  0  0  0  0  0  0
   -0.7752    3.0916   -0.0911 H   0  0  0  0  0  0  0  0  0  0  0  0
  1  2  1  0
  1  4  1  0
  1  5  1  0
  1  6  1  0
  2  3  1  0
  2  7  1  0
  2  8  1  0
  3 24  1  0
  9 10  1  0
  9 15  1  0
  9 16  1  0
  9 17  1  0
 10 11  1  0
 10 18  1  0
 10 19  1  0
 11 12  1  0
 11 20  1  0
 11 21  1  0
 12 13  1  0
 13 14  1  0
 13 22  1  0
 13 23  1  0
 14 25  1  0
 14 26  1  0
M  RAD  1  14   2
M  END
>  <reaction>  (16) 
rmg_rxn_376

>  <mol_properties>  (16) 
{"1": {"label": "*0", "atom_type": "Cs"}, "2": {"label": "*1", "atom_type": "O2s"}, "12": {"label": "*4", "atom_type": "Cs"}, "13": {"label": "*3", "atom_type": "Cs"}, "23": {"label": "*2", "atom_type": "H0"}}

>  <type>  (16) 
unop_12

>  <geom_source>  (16) 
Heuristics

$$$$

     RDKit          3D

 26 24  0  0  0  0  0  0  0  0999 V2000
    1.5031    0.8551   -0.1852 O   0  0  0  0  0  0  0  0  0  0  0  0
   -2.6103   -0.8525   -0.2013 O   0  0  0  0  0  0  0  0  0  0  0  0
    3.2768   -0.8094   -0.1616 C   0  0  0  0  0  0  0  0  0  0  0  0
    2.3111    0.0305   -1.0065 C   0  0  0  0  0  0  0  0  0  0  0  0
   -3.9231   -0.3702   -0.1697 C   0  0  0  0  0  0  0  0  0  0  0  0
    0.2882    0.2134    0.1560 C   0  0  0  0  0  0  0  0  0  0  0  0
    4.2288    0.0637    0.6529 C   0  0  0  0  0  0  0  0  0  0  0  0
   -4.2271    0.2369    1.1930 C   0  0  0  0  0  0  0  0  0  0  0  0
   -0.8100    0.5999   -0.8253 C   0  0  0  0  0  3  0  0  0  0  0  0
    2.7048   -1.4687    0.5256 H   0  0  0  0  0  0  0  0  0  0  0  0
    3.8749   -1.4580   -0.8375 H   0  0  0  0  0  0  0  0  0  0  0  0
   -4.6208   -1.2128   -0.3596 H   0  0  0  0  0  0  0  0  0  0  0  0
   -4.0691    0.3921   -0.9660 H   0  0  0  0  0  0  0  0  0  0  0  0
    2.9036    0.6871   -1.6789 H   0  0  0  0  0  0  0  0  0  0  0  0
    1.7177   -0.6347   -1.6767 H   0  0  0  0  0  0  0  0  0  0  0  0
   -5.2777    0.5957    1.2166 H   0  0  0  0  0  0  0  0  0  0  0  0
   -3.5502    1.0954    1.3885 H   0  0  0  0  0  0  0  0  0  0  0  0
   -4.0890   -0.5259    1.9884 H   0  0  0  0  0  0  0  0  0  0  0  0
   -0.0158    0.5640    1.1641 H   0  0  0  0  0  0  0  0  0  0  0  0
    0.3699   -0.8964    0.2186 H   0  0  0  0  0  0  0  0  0  0  0  0
    4.8197    0.7222   -0.0188 H   0  0  0  0  0  0  0  0  0  0  0  0
    3.6612    0.6888    1.3745 H   0  0  0  0  0  0  0  0  0  0  0  0
    4.9296   -0.5829    1.2218 H   0  0  0  0  0  0  0  0  0  0  0  0
   -0.9327    1.7033   -0.8531 H   0  0  0  0  0  0  0  0  0  0  0  0
   -0.5782    0.2235   -1.8435 H   0  0  0  0  0  0  0  0  0  0  0  0
   -1.8854    0.1398   -0.3162 H   0  0  0  0  0  0  0  0  0  0  0  0
  1  6  1  0
  1  4  1  0
  2  5  1  0
  2 26  1  0
  3  7  1  0
  3  4  1  0
  3 10  1  0
  3 11  1  0
  4 14  1  0
  4 15  1  0
  5  8  1  0
  5 12  1  0
  5 13  1  0
  6  9  1  0
  6 19  1  0
  6 20  1  0
  7 21  1  0
  7 22  1  0
  7 23  1  0
  8 16  1  0
  8 17  1  0
  8 18  1  0
  9 24  1  0
  9 25  1  0
M  RAD  1   9   2
M  END
>  <reaction>  (17) 
rmg_rxn_376

>  <mol_properties>  (17) 
{"1": {"label": "*0", "atom_type": "Cs"}, "2": {"label": "*1", "atom_type": "O2s"}, "12": {"label": "*4", "atom_type": "Cs"}, "13": {"label": "*3", "atom_type": "Cs"}, "23": {"label": "*2", "atom_type": "H0"}}

>  <type>  (17) 
unop_13

>  <geom_source>  (17) 
AutoTST

$$$$

     RDKit          3D

 26 24  0  0  0  0  0  0  0  0999 V2000
   -1.3495    0.9546    2.4308 C   0  0  0  0  0  0  0  0  0  0  0  0
   -2.2011    0.0329    1.5776 C   0  0  0  0  0  0  0  0  0  0  0  0
   -2.5776    0.6168    0.3457 O   0  0  0  0  0  0  0  0  0  0  0  0
   -1.8711    1.8945    2.6163 H   0  0  0  0  0  0  0  0  0  0  0  0
   -1.1199    0.4879    3.3910 H   0  0  0  0  0  0  0  0  0  0  0  0
   -0.4011    1.1807    1.9358 H   0  0  0  0  0  0  0  0  0  0  0  0
   -1.6786   -0.9180    1.4123 H   0  0  0  0  0  0  0  0  0  0  0  0
   -3.1365   -0.1971    2.0896 H   0  0  0  0  0  0  0  0  0  0  0  0
    1.8877   -2.0920   -2.3047 C   0  0  0  0  0  0  0  0  0  0  0  0
    1.8877   -2.0920   -0.7818 C   0  0  0  0  0  0  0  0  0  0  0  0
    1.8877   -0.6989   -0.1863 C   0  0  0  0  0  0  0  0  0  0  0  0
    0.7047   -0.0353   -0.5539 O   0  0  0  0  0  0  0  0  0  0  0  0
    0.6340    1.2828   -0.0730 C   0  0  0  0  0  0  0  0  0  0  0  0
   -0.6694    1.9005   -0.5238 C   0  0  0  0  0  3  0  0  0  0  0  0
    2.7697   -1.5776   -2.6944 H   0  0  0  0  0  0  0  0  0  0  0  0
    1.0050   -1.5823   -2.6908 H   0  0  0  0  0  0  0  0  0  0  0  0
    1.8932   -3.1098   -2.6974 H   0  0  0  0  0  0  0  0  0  0  0  0
    2.7692   -2.6184   -0.4056 H   0  0  0  0  0  0  0  0  0  0  0  0
    1.0133   -2.6299   -0.4066 H   0  0  0  0  0  0  0  0  0  0  0  0
    2.7619   -0.1338   -0.5467 H   0  0  0  0  0  0  0  0  0  0  0  0
    1.9625   -0.7528    0.9097 H   0  0  0  0  0  0  0  0  0  0  0  0
    0.7012    1.2856    1.0251 H   0  0  0  0  0  0  0  0  0  0  0  0
    1.4868    1.8657   -0.4509 H   0  0  0  0  0  0  0  0  0  0  0  0
   -1.6850    1.2172   -0.0610 H   0  0  0  0  0  0  0  0  0  0  0  0
   -0.7302    1.9124   -1.6127 H   0  0  0  0  0  0  0  0  0  0  0  0
   -0.7470    2.9266   -0.1608 H   0  0  0  0  0  0  0  0  0  0  0  0
  1  2  1  0
  1  4  1  0
  1  5  1  0
  1  6  1  0
  2  3  1  0
  2  7  1  0
  2  8  1  0
  3 24  1  0
  9 10  1  0
  9 15  1  0
  9 16  1  0
  9 17  1  0
 10 11  1  0
 10 18  1  0
 10 19  1  0
 11 12  1  0
 11 20  1  0
 11 21  1  0
 12 13  1  0
 13 14  1  0
 13 22  1  0
 13 23  1  0
 14 25  1  0
 14 26  1  0
M  RAD  1  14   2
M  END
>  <reaction>  (18) 
rmg_rxn_376

>  <mol_properties>  (18) 
{"1": {"label": "*0", "atom_type": "Cs"}, "2": {"label": "*1", "atom_type": "O2s"}, "12": {"label": "*4", "atom_type": "Cs"}, "13": {"label": "*3", "atom_type": "Cs"}, "23": {"label": "*2", "atom_type": "H0"}}

>  <type>  (18) 
unop_14

>  <geom_source>  (18) 
gaussian_log

$$$$
