
     RDKit          3D

 14 14  0  0  0  0  0  0  0  0999 V2000
   -1.1778    0.2241    0.1818 C   0  0  0  0  0  0  0  0  0  0  0  0
   -0.5633   -1.1636    0.0678 C   0  0  0  0  0  0  0  0  0  0  0  0
    0.6943   -1.1996    0.7146 O   0  0  0  0  0  0  0  0  0  0  0  0
    1.5547   -0.2288    0.2011 C   0  0  0  0  0  0  0  0  0  0  0  0
    1.0729    1.0696    0.3698 O   0  0  0  0  0  0  0  0  0  0  0  0
   -0.1607    1.2493   -0.2989 C   0  0  0  0  0  0  0  0  0  0  0  0
   -2.0927    0.2866   -0.4117 H   0  0  0  0  0  0  0  0  0  0  0  0
   -1.4303    0.4248    1.2248 H   0  0  0  0  0  0  0  0  0  0  0  0
   -1.1822   -1.9235    0.5431 H   0  0  0  0  0  0  0  0  0  0  0  0
   -0.4389   -1.4347   -0.9919 H   0  0  0  0  0  0  0  0  0  0  0  0
    1.7250   -0.4207   -0.8742 H   0  0  0  0  0  0  0  0  0  0  0  0
    2.4896   -0.3010    0.7524 H   0  0  0  0  0  0  0  0  0  0  0  0
   -0.0080    1.1481   -1.3844 H   0  0  0  0  0  0  0  0  0  0  0  0
   -0.4826    2.2695   -0.0942 H   0  0  0  0  0  0  0  0  0  0  0  0
  1  2  1  0
  1  6  1  0
  1  7  1  0
  1  8  1  0
  2  3  1  0
  2  9  1  0
  2 10  1  0
  3  4  1  0
  4  5  1  0
  4 11  1  0
  4 12  1  0
  5  6  1  0
  6 13  1  0
  6 14  1  0
M  END
>  <reaction>  (1) 
rmg_rxn_313

>  <mol_properties>  (1) 
{"0": {"label": "donator", "atom_type": "Cs"}, "6": {"label": "d_hydrogen", "atom_type": "H0"}}

>  <type>  (1) 
r1h

$$$$

     RDKit          3D

 11 10  0  0  0  0  0  0  0  0999 V2000
   -1.2230    0.3768   -0.0849 C   0  0  0  0  0  0  0  0  0  0  0  0
   -0.0734   -0.5533    0.2746 C   0  0  0  0  0  0  0  0  0  0  0  0
   -0.0853   -1.8426   -0.5372 C   0  0  0  0  0  0  0  0  0  0  0  0
    0.0319   -1.6944   -1.8815 O   0  0  0  0  0  1  0  0  0  0  0  0
   -2.1874   -0.0885    0.1341 H   0  0  0  0  0  0  0  0  0  0  0  0
   -1.1670    1.3099    0.4765 H   0  0  0  0  0  0  0  0  0  0  0  0
   -1.2014    0.6189   -1.1483 H   0  0  0  0  0  0  0  0  0  0  0  0
    0.8834   -0.0518    0.1071 H   0  0  0  0  0  0  0  0  0  0  0  0
   -0.1104   -0.8149    1.3362 H   0  0  0  0  0  0  0  0  0  0  0  0
    0.6767   -2.5604   -0.1861 H   0  0  0  0  0  0  0  0  0  0  0  0
   -1.0401   -2.3871   -0.3877 H   0  0  0  0  0  0  0  0  0  0  0  0
  1  2  1  0
  1  5  1  0
  1  6  1  0
  1  7  1  0
  2  3  1  0
  2  8  1  0
  2  9  1  0
  3  4  1  0
  3 10  1  0
  3 11  1  0
M  RAD  1   4   2
M  END
>  <reaction>  (2) 
rmg_rxn_313

>  <mol_properties>  (2) 
{"3": {"label": "acceptor", "atom_type": "O2s"}}

>  <type>  (2) 
r2

$$$$

     RDKit          3D

 12 11  0  0  0  0  0  0  0  0999 V2000
   -1.4643   -0.2505   -0.5284 C   0  0  0  0  0  0  0  0  0  0  0  0
   -0.3946    0.4302    0.3143 C   0  0  0  0  0  0  0  0  0  0  0  0
   -0.5959    0.2382    1.8102 C   0  0  0  0  0  0  0  0  0  0  0  0
   -0.5633   -1.1190    2.2092 O   0  0  0  0  0  0  0  0  0  0  0  0
   -2.4511    0.1644   -0.3109 H   0  0  0  0  0  0  0  0  0  0  0  0
   -1.5019   -1.3198   -0.3181 H   0  0  0  0  0  0  0  0  0  0  0  0
   -1.2720   -0.1182   -1.5941 H   0  0  0  0  0  0  0  0  0  0  0  0
    0.5965    0.0515    0.0385 H   0  0  0  0  0  0  0  0  0  0  0  0
   -0.3776    1.5047    0.1078 H   0  0  0  0  0  0  0  0  0  0  0  0
   -1.5821    0.6048    2.1034 H   0  0  0  0  0  0  0  0  0  0  0  0
    0.1495    0.8220    2.3649 H   0  0  0  0  0  0  0  0  0  0  0  0
    0.3017   -1.4750    1.9997 H   0  0  0  0  0  0  0  0  0  0  0  0
  1  2  1  0
  1  5  1  0
  1  6  1  0
  1  7  1  0
  2  3  1  0
  2  8  1  0
  2  9  1  0
  3  4  1  0
  3 10  1  0
  3 11  1  0
  4 12  1  0
M  END
>  <reaction>  (3) 
rmg_rxn_313

>  <mol_properties>  (3) 
{"3": {"label": "acceptor", "atom_type": "O2s"}, "11": {"label": "a_hydrogen", "atom_type": "H0"}}

>  <type>  (3) 
r2h

$$$$

     RDKit          3D

 25 24  0  0  0  0  0  0  0  0999 V2000
    1.6386   -2.5453    1.5766 C   0  0  0  0  0  0  0  0  0  0  0  0
    1.6436   -2.5420    0.0551 C   0  0  0  0  0  0  0  0  0  0  0  0
    0.2901   -2.8892   -0.5534 C   0  0  0  0  0  0  0  0  0  0  0  0
   -0.7646   -2.0891   -0.1086 O   0  0  0  0  0  0  0  0  0  0  0  0
    1.3808   -3.5336    1.9642 H   0  0  0  0  0  0  0  0  0  0  0  0
    2.6173   -2.2735    1.9741 H   0  0  0  0  0  0  0  0  0  0  0  0
    0.9038   -1.8386    1.9640 H   0  0  0  0  0  0  0  0  0  0  0  0
    1.9522   -1.5593   -0.3160 H   0  0  0  0  0  0  0  0  0  0  0  0
    2.3795   -3.2565   -0.3249 H   0  0  0  0  0  0  0  0  0  0  0  0
    0.3544   -2.8898   -1.6497 H   0  0  0  0  0  0  0  0  0  0  0  0
    0.0022   -3.9062   -0.2532 H   0  0  0  0  0  0  0  0  0  0  0  0
   -0.2513    0.2531   -0.8183 C   0  0  0  0  0  3  0  0  0  0  0  0
   -1.5551    0.8914   -1.2372 C   0  0  0  0  0  0  0  0  0  0  0  0
   -1.3652    2.2918   -1.3773 O   0  0  0  0  0  0  0  0  0  0  0  0
   -0.8669    2.8533   -0.2004 C   0  0  0  0  0  0  0  0  0  0  0  0
    0.3816    2.3414    0.1594 O   0  0  0  0  0  0  0  0  0  0  0  0
    0.3114    0.9447    0.4014 C   0  0  0  0  0  0  0  0  0  0  0  0
   -0.5328   -0.9349   -0.4720 H   0  0  0  0  0  0  0  0  0  0  0  0
    0.4660    0.1596   -1.6335 H   0  0  0  0  0  0  0  0  0  0  0  0
   -1.9062    0.5204   -2.1977 H   0  0  0  0  0  0  0  0  0  0  0  0
   -2.3299    0.6963   -0.4825 H   0  0  0  0  0  0  0  0  0  0  0  0
   -1.5849    2.6832    0.6216 H   0  0  0  0  0  0  0  0  0  0  0  0
   -0.7380    3.9181   -0.3810 H   0  0  0  0  0  0  0  0  0  0  0  0
   -0.3306    0.7500    1.2723 H   0  0  0  0  0  0  0  0  0  0  0  0
    1.3206    0.6116    0.6369 H   0  0  0  0  0  0  0  0  0  0  0  0
  1  2  1  0
  1  5  1  0
  1  6  1  0
  1  7  1  0
  2  3  1  0
  2  8  1  0
  2  9  1  0
  3  4  1  0
  3 10  1  0
  3 11  1  0
  4 18  1  0
 12 13  1  0
 12 17  1  0
 12 19  1  0
 13 14  1  0
 13 20  1  0
 13 21  1  0
 14 15  1  0
 15 16  1  0
 15 22  1  0
 15 23  1  0
 16 17  1  0
 17 24  1  0
 17 25  1  0
M  RAD  1  12   2
M  END
>  <reaction>  (4) 
rmg_rxn_313

>  <mol_properties>  (4) 
{"2": {"label": "*0", "atom_type": "Cs"}, "3": {"label": "*1", "atom_type": "O2s"}, "11": {"label": "*3", "atom_type": "Cs"}, "12": {"label": "*4", "atom_type": "Cs"}, "17": {"label": "*2", "atom_type": "H0"}}

>  <type>  (4) 
ts

$$$$

     RDKit          3D

 25 24  0  0  0  0  0  0  0  0999 V2000
    0.8528   -0.4075    2.6859 C   0  0  0  0  0  0  0  0  0  0  0  0
    1.6802   -1.3472    1.8197 C   0  0  0  0  0  0  0  0  0  0  0  0
    0.9094   -2.5763    1.3610 C   0  0  0  0  0  0  0  0  0  0  0  0
   -0.2257   -2.2638    0.5760 O   0  0  0  0  0  0  0  0  0  0  0  0
    0.5297   -0.9081    3.6015 H   0  0  0  0  0  0  0  0  0  0  0  0
    1.4263    0.4757    2.9708 H   0  0  0  0  0  0  0  0  0  0  0  0
   -0.0416   -0.0780    2.1563 H   0  0  0  0  0  0  0  0  0  0  0  0
    2.0528   -0.8130    0.9380 H   0  0  0  0  0  0  0  0  0  0  0  0
    2.5654   -1.6848    2.3672 H   0  0  0  0  0  0  0  0  0  0  0  0
    1.5790   -3.2557    0.8188 H   0  0  0  0  0  0  0  0  0  0  0  0
    0.5244   -3.1192    2.2271 H   0  0  0  0  0  0  0  0  0  0  0  0
    0.0326    0.0275   -0.2844 C   0  0  0  0  0  3  0  0  0  0  0  0
    0.0326    0.0275   -1.8065 C   0  0  0  0  0  0  0  0  0  0  0  0
    0.0326    1.3539   -2.2986 O   0  0  0  0  0  0  0  0  0  0  0  0
   -1.0502    2.0782   -1.7992 C   0  0  0  0  0  0  0  0  0  0  0  0
   -1.0389    2.1845   -0.4082 O   0  0  0  0  0  0  0  0  0  0  0  0
   -1.1068    0.9108    0.2037 C   0  0  0  0  0  0  0  0  0  0  0  0
   -0.1049   -1.1928    0.1738 H   0  0  0  0  0  0  0  0  0  0  0  0
    0.9820    0.4260    0.0786 H   0  0  0  0  0  0  0  0  0  0  0  0
    0.9184   -0.4580   -2.2138 H   0  0  0  0  0  0  0  0  0  0  0  0
   -0.8549   -0.5037   -2.1832 H   0  0  0  0  0  0  0  0  0  0  0  0
   -1.9928    1.6001   -2.1234 H   0  0  0  0  0  0  0  0  0  0  0  0
   -0.9779    3.0864   -2.2012 H   0  0  0  0  0  0  0  0  0  0  0  0
   -2.0745    0.4417   -0.0316 H   0  0  0  0  0  0  0  0  0  0  0  0
   -1.0615    1.0768    1.2791 H   0  0  0  0  0  0  0  0  0  0  0  0
  1  2  1  0
  1  5  1  0
  1  6  1  0
  1  7  1  0
  2  3  1  0
  2  8  1  0
  2  9  1  0
  3  4  1  0
  3 10  1  0
  3 11  1  0
  4 18  1  0
 12 13  1  0
 12 17  1  0
 12 19  1  0
 13 14  1  0
 13 20  1  0
 13 21  1  0
 14 15  1  0
 15 16  1  0
 15 22  1  0
 15 23  1  0
 16 17  1  0
 17 24  1  0
 17 25  1  0
M  RAD  1  12   2
M  END
>  <reaction>  (5) 
rmg_rxn_313

>  <mol_properties>  (5) 
{"2": {"label": "*0", "atom_type": "Cs"}, "3": {"label": "*1", "atom_type": "O2s"}, "11": {"label": "*3", "atom_type": "Cs"}, "12": {"label": "*4", "atom_type": "Cs"}, "17": {"label": "*2", "atom_type": "H0"}}

>  <type>  (5) 
unop_1

>  <geom_source>  (5) 
Heuristics

$$$$

     RDKit          3D

 25 24  0  0  0  0  0  0  0  0999 V2000
    2.6087   -2.0623    0.8213 C   0  0  0  0  0  0  0  0  0  0  0  0
    1.5323   -2.2694   -0.2353 C   0  0  0  0  0  0  0  0  0  0  0  0
    0.2137   -2.7653    0.3396 C   0  0  0  0  0  0  0  0  0  0  0  0
   -0.3611   -1.8706    1.2731 O   0  0  0  0  0  0  0  0  0  0  0  0
    2.8446   -3.0032    1.3236 H   0  0  0  0  0  0  0  0  0  0  0  0
    3.5289   -1.6783    0.3786 H   0  0  0  0  0  0  0  0  0  0  0  0
    2.2749   -1.3563    1.5823 H   0  0  0  0  0  0  0  0  0  0  0  0
    1.3533   -1.3327   -0.7759 H   0  0  0  0  0  0  0  0  0  0  0  0
    1.8712   -2.9922   -0.9836 H   0  0  0  0  0  0  0  0  0  0  0  0
   -0.4906   -2.9801   -0.4739 H   0  0  0  0  0  0  0  0  0  0  0  0
    0.3732   -3.6963    0.8881 H   0  0  0  0  0  0  0  0  0  0  0  0
   -0.1028    0.4207    0.4127 C   0  0  0  0  0  3  0  0  0  0  0  0
   -0.1028    0.4207   -1.1093 C   0  0  0  0  0  0  0  0  0  0  0  0
   -0.1028    1.7471   -1.6014 O   0  0  0  0  0  0  0  0  0  0  0  0
   -1.1856    2.4714   -1.1021 C   0  0  0  0  0  0  0  0  0  0  0  0
   -1.1743    2.5777    0.2890 O   0  0  0  0  0  0  0  0  0  0  0  0
   -1.2422    1.3039    0.9008 C   0  0  0  0  0  0  0  0  0  0  0  0
   -0.2404   -0.7997    0.8710 H   0  0  0  0  0  0  0  0  0  0  0  0
    0.8465    0.8192    0.7757 H   0  0  0  0  0  0  0  0  0  0  0  0
    0.7829   -0.0648   -1.5166 H   0  0  0  0  0  0  0  0  0  0  0  0
   -0.9903   -0.1106   -1.4860 H   0  0  0  0  0  0  0  0  0  0  0  0
   -2.1282    1.9933   -1.4263 H   0  0  0  0  0  0  0  0  0  0  0  0
   -1.1133    3.4795   -1.5041 H   0  0  0  0  0  0  0  0  0  0  0  0
   -2.2099    0.8348    0.6655 H   0  0  0  0  0  0  0  0  0  0  0  0
   -1.1969    1.4699    1.9763 H   0  0  0  0  0  0  0  0  0  0  0  0
  1  2  1  0
  1  5  1  0
  1  6  1  0
  1  7  1  0
  2  3  1  0
  2  8  1  0
  2  9  1  0
  3  4  1  0
  3 10  1  0
  3 11  1  0
  4 18  1  0
 12 13  1  0
 12 17  1  0
 12 19  1  0
 13 14  1  0
 13 20  1  0
 13 21  1  0
 14 15  1  0
 15 16  1  0
 15 22  1  0
 15 23  1  0
 16 17  1  0
 17 24  1  0
 17 25  1  0
M  RAD  1  12   2
M  END
>  <reaction>  (6) 
rmg_rxn_313

>  <mol_properties>  (6) 
{"2": {"label": "*0", "atom_type": "Cs"}, "3": {"label": "*1", "atom_type": "O2s"}, "11": {"label": "*3", "atom_type": "Cs"}, "12": {"label": "*4", "atom_type": "Cs"}, "17": {"label": "*2", "atom_type": "H0"}}

>  <type>  (6) 
unop_2

>  <geom_source>  (6) 
Heuristics

$$$$

     RDKit          3D

 25 24  0  0  0  0  0  0  0  0999 V2000
   -0.5956   -0.5671    2.7830 C   0  0  0  0  0  0  0  0  0  0  0  0
    0.7986   -1.0776    2.4460 C   0  0  0  0  0  0  0  0  0  0  0  0
    0.7880   -2.3905    1.6770 C   0  0  0  0  0  0  0  0  0  0  0  0
    0.1221   -2.3038    0.4315 O   0  0  0  0  0  0  0  0  0  0  0  0
   -1.1236   -1.2767    3.4241 H   0  0  0  0  0  0  0  0  0  0  0  0
   -0.5509    0.3891    3.3063 H   0  0  0  0  0  0  0  0  0  0  0  0
   -1.1895   -0.4342    1.8782 H   0  0  0  0  0  0  0  0  0  0  0  0
    1.3402   -0.3271    1.8585 H   0  0  0  0  0  0  0  0  0  0  0  0
    1.3793   -1.2236    3.3618 H   0  0  0  0  0  0  0  0  0  0  0  0
    1.8152   -2.7519    1.5417 H   0  0  0  0  0  0  0  0  0  0  0  0
    0.2465   -3.1504    2.2449 H   0  0  0  0  0  0  0  0  0  0  0  0
    0.3804   -0.0125   -0.4289 C   0  0  0  0  0  3  0  0  0  0  0  0
    0.3804   -0.0125   -1.9509 C   0  0  0  0  0  0  0  0  0  0  0  0
    0.3804    1.3139   -2.4430 O   0  0  0  0  0  0  0  0  0  0  0  0
   -0.7024    2.0382   -1.9437 C   0  0  0  0  0  0  0  0  0  0  0  0
   -0.6911    2.1445   -0.5526 O   0  0  0  0  0  0  0  0  0  0  0  0
   -0.7590    0.8708    0.0592 C   0  0  0  0  0  0  0  0  0  0  0  0
    0.2429   -1.2328    0.0294 H   0  0  0  0  0  0  0  0  0  0  0  0
    1.3298    0.3860   -0.0658 H   0  0  0  0  0  0  0  0  0  0  0  0
    1.2662   -0.4980   -2.3582 H   0  0  0  0  0  0  0  0  0  0  0  0
   -0.5071   -0.5437   -2.3276 H   0  0  0  0  0  0  0  0  0  0  0  0
   -1.6450    1.5601   -2.2679 H   0  0  0  0  0  0  0  0  0  0  0  0
   -0.6301    3.0464   -2.3457 H   0  0  0  0  0  0  0  0  0  0  0  0
   -1.7267    0.4016   -0.1760 H   0  0  0  0  0  0  0  0  0  0  0  0
   -0.7137    1.0368    1.1347 H   0  0  0  0  0  0  0  0  0  0  0  0
  1  2  1  0
  1  5  1  0
  1  6  1  0
  1  7  1  0
  2  3  1  0
  2  8  1  0
  2  9  1  0
  3  4  1  0
  3 10  1  0
  3 11  1  0
  4 18  1  0
 12 13  1  0
 12 17  1  0
 12 19  1  0
 13 14  1  0
 13 20  1  0
 13 21  1  0
 14 15  1  0
 15 16  1  0
 15 22  1  0
 15 23  1  0
 16 17  1  0
 17 24  1  0
 17 25  1  0
M  RAD  1  12   2
M  END
>  <reaction>  (7) 
rmg_rxn_313

>  <mol_properties>  (7) 
{"2": {"label": "*0", "atom_type": "Cs"}, "3": {"label": "*1", "atom_type": "O2s"}, "11": {"label": "*3", "atom_type": "Cs"}, "12": {"label": "*4", "atom_type": "Cs"}, "17": {"label": "*2", "atom_type": "H0"}}

>  <type>  (7) 
unop_3

>  <geom_source>  (7) 
Heuristics

$$$$

     RDKit          3D

 25 24  0  0  0  0  0  0  0  0999 V2000
    0.2332   -4.1630   -0.1625 C   0  0  0  0  0  0  0  0  0  0  0  0
   -0.6526   -2.9420   -0.3687 C   0  0  0  0  0  0  0  0  0  0  0  0
   -0.8015   -2.0897    0.8830 C   0  0  0  0  0  0  0  0  0  0  0  0
    0.4272   -1.5712    1.3560 O   0  0  0  0  0  0  0  0  0  0  0  0
   -0.1917   -4.8267    0.5940 H   0  0  0  0  0  0  0  0  0  0  0  0
    0.3422   -4.7332   -1.0861 H   0  0  0  0  0  0  0  0  0  0  0  0
    1.2269   -3.8688    0.1769 H   0  0  0  0  0  0  0  0  0  0  0  0
   -0.2497   -2.3192   -1.1757 H   0  0  0  0  0  0  0  0  0  0  0  0
   -1.6514   -3.2500   -0.6922 H   0  0  0  0  0  0  0  0  0  0  0  0
   -1.5178   -1.2790    0.6991 H   0  0  0  0  0  0  0  0  0  0  0  0
   -1.1967   -2.6955    1.7013 H   0  0  0  0  0  0  0  0  0  0  0  0
    0.6854    0.7201    0.4956 C   0  0  0  0  0  3  0  0  0  0  0  0
    0.6854    0.7201   -1.0265 C   0  0  0  0  0  0  0  0  0  0  0  0
    0.6854    2.0465   -1.5186 O   0  0  0  0  0  0  0  0  0  0  0  0
   -0.3973    2.7708   -1.0192 C   0  0  0  0  0  0  0  0  0  0  0  0
   -0.3861    2.8771    0.3718 O   0  0  0  0  0  0  0  0  0  0  0  0
   -0.4540    1.6033    0.9837 C   0  0  0  0  0  0  0  0  0  0  0  0
    0.5479   -0.5003    0.9538 H   0  0  0  0  0  0  0  0  0  0  0  0
    1.6348    1.1186    0.8586 H   0  0  0  0  0  0  0  0  0  0  0  0
    1.5712    0.2346   -1.4338 H   0  0  0  0  0  0  0  0  0  0  0  0
   -0.2021    0.1889   -1.4032 H   0  0  0  0  0  0  0  0  0  0  0  0
   -1.3399    2.2927   -1.3435 H   0  0  0  0  0  0  0  0  0  0  0  0
   -0.3251    3.7789   -1.4212 H   0  0  0  0  0  0  0  0  0  0  0  0
   -1.4216    1.1342    0.7484 H   0  0  0  0  0  0  0  0  0  0  0  0
   -0.4087    1.7694    2.0591 H   0  0  0  0  0  0  0  0  0  0  0  0
  1  2  1  0
  1  5  1  0
  1  6  1  0
  1  7  1  0
  2  3  1  0
  2  8  1  0
  2  9  1  0
  3  4  1  0
  3 10  1  0
  3 11  1  0
  4 18  1  0
 12 13  1  0
 12 17  1  0
 12 19  1  0
 13 14  1  0
 13 20  1  0
 13 21  1  0
 14 15  1  0
 15 16  1  0
 15 22  1  0
 15 23  1  0
 16 17  1  0
 17 24  1  0
 17 25  1  0
M  RAD  1  12   2
M  END
>  <reaction>  (8) 
rmg_rxn_313

>  <mol_properties>  (8) 
{"2": {"label": "*0", "atom_type": "Cs"}, "3": {"label": "*1", "atom_type": "O2s"}, "11": {"label": "*3", "atom_type": "Cs"}, "12": {"label": "*4", "atom_type": "Cs"}, "17": {"label": "*2", "atom_type": "H0"}}

>  <type>  (8) 
unop_4

>  <geom_source>  (8) 
Heuristics

$$$$

     RDKit          3D

 25 24  0  0  0  0  0  0  0  0999 V2000
   -1.9685   -1.8219    2.1164 C   0  0  0  0  0  0  0  0  0  0  0  0
   -0.5968   -1.2718    2.4820 C   0  0  0  0  0  0  0  0  0  0  0  0
    0.5508   -2.0875    1.9049 C   0  0  0  0  0  0  0  0  0  0  0  0
    0.5451   -2.1384    0.4909 O   0  0  0  0  0  0  0  0  0  0  0  0
   -2.0994   -2.8314    2.5129 H   0  0  0  0  0  0  0  0  0  0  0  0
   -2.7660   -1.1966    2.5204 H   0  0  0  0  0  0  0  0  0  0  0  0
   -2.0900   -1.8739    1.0341 H   0  0  0  0  0  0  0  0  0  0  0  0
   -0.5044   -0.2358    2.1358 H   0  0  0  0  0  0  0  0  0  0  0  0
   -0.4796   -1.2404    3.5695 H   0  0  0  0  0  0  0  0  0  0  0  0
    1.5079   -1.6976    2.2737 H   0  0  0  0  0  0  0  0  0  0  0  0
    0.4723   -3.1259    2.2345 H   0  0  0  0  0  0  0  0  0  0  0  0
    0.8033    0.1529   -0.3695 C   0  0  0  0  0  3  0  0  0  0  0  0
    0.8033    0.1529   -1.8915 C   0  0  0  0  0  0  0  0  0  0  0  0
    0.8033    1.4793   -2.3836 O   0  0  0  0  0  0  0  0  0  0  0  0
   -0.2795    2.2036   -1.8843 C   0  0  0  0  0  0  0  0  0  0  0  0
   -0.2682    2.3099   -0.4933 O   0  0  0  0  0  0  0  0  0  0  0  0
   -0.3361    1.0361    0.1186 C   0  0  0  0  0  0  0  0  0  0  0  0
    0.6658   -1.0675    0.0888 H   0  0  0  0  0  0  0  0  0  0  0  0
    1.7527    0.5514   -0.0065 H   0  0  0  0  0  0  0  0  0  0  0  0
    1.6891   -0.3326   -2.2989 H   0  0  0  0  0  0  0  0  0  0  0  0
   -0.0842   -0.3784   -2.2682 H   0  0  0  0  0  0  0  0  0  0  0  0
   -1.2220    1.7255   -2.2085 H   0  0  0  0  0  0  0  0  0  0  0  0
   -0.2072    3.2117   -2.2863 H   0  0  0  0  0  0  0  0  0  0  0  0
   -1.3037    0.5670   -0.1167 H   0  0  0  0  0  0  0  0  0  0  0  0
   -0.2908    1.2021    1.1941 H   0  0  0  0  0  0  0  0  0  0  0  0
  1  2  1  0
  1  5  1  0
  1  6  1  0
  1  7  1  0
  2  3  1  0
  2  8  1  0
  2  9  1  0
  3  4  1  0
  3 10  1  0
  3 11  1  0
  4 18  1  0
 12 13  1  0
 12 17  1  0
 12 19  1  0
 13 14  1  0
 13 20  1  0
 13 21  1  0
 14 15  1  0
 15 16  1  0
 15 22  1  0
 15 23  1  0
 16 17  1  0
 17 24  1  0
 17 25  1  0
M  RAD  1  12   2
M  END
>  <reaction>  (9) 
rmg_rxn_313

>  <mol_properties>  (9) 
{"2": {"label": "*0", "atom_type": "Cs"}, "3": {"label": "*1", "atom_type": "O2s"}, "11": {"label": "*3", "atom_type": "Cs"}, "12": {"label": "*4", "atom_type": "Cs"}, "17": {"label": "*2", "atom_type": "H0"}}

>  <type>  (9) 
unop_5

>  <geom_source>  (9) 
Heuristics

$$$$

     RDKit          3D

 25 24  0  0  0  0  0  0  0  0999 V2000
   -0.6524   -4.1592    0.1817 C   0  0  0  0  0  0  0  0  0  0  0  0
   -1.3105   -2.7872    0.2298 C   0  0  0  0  0  0  0  0  0  0  0  0
   -0.7443   -1.8871    1.3180 C   0  0  0  0  0  0  0  0  0  0  0  0
    0.6369   -1.6220    1.1620 O   0  0  0  0  0  0  0  0  0  0  0  0
   -0.8112   -4.6982    1.1185 H   0  0  0  0  0  0  0  0  0  0  0  0
   -1.0608   -4.7657   -0.6279 H   0  0  0  0  0  0  0  0  0  0  0  0
    0.4238   -4.0684    0.0313 H   0  0  0  0  0  0  0  0  0  0  0  0
   -1.2005   -2.2850   -0.7384 H   0  0  0  0  0  0  0  0  0  0  0  0
   -2.3868   -2.8900    0.3982 H   0  0  0  0  0  0  0  0  0  0  0  0
   -1.3149   -0.9509    1.3622 H   0  0  0  0  0  0  0  0  0  0  0  0
   -0.8397   -2.3739    2.2911 H   0  0  0  0  0  0  0  0  0  0  0  0
    0.8952    0.6693    0.3016 C   0  0  0  0  0  3  0  0  0  0  0  0
    0.8952    0.6693   -1.2204 C   0  0  0  0  0  0  0  0  0  0  0  0
    0.8952    1.9957   -1.7125 O   0  0  0  0  0  0  0  0  0  0  0  0
   -0.1876    2.7200   -1.2132 C   0  0  0  0  0  0  0  0  0  0  0  0
   -0.1764    2.8263    0.1779 O   0  0  0  0  0  0  0  0  0  0  0  0
   -0.2442    1.5526    0.7897 C   0  0  0  0  0  0  0  0  0  0  0  0
    0.7576   -0.5510    0.7599 H   0  0  0  0  0  0  0  0  0  0  0  0
    1.8445    1.0678    0.6647 H   0  0  0  0  0  0  0  0  0  0  0  0
    1.7809    0.1838   -1.6277 H   0  0  0  0  0  0  0  0  0  0  0  0
    0.0076    0.1381   -1.5971 H   0  0  0  0  0  0  0  0  0  0  0  0
   -1.1302    2.2419   -1.5374 H   0  0  0  0  0  0  0  0  0  0  0  0
   -0.1154    3.7282   -1.6152 H   0  0  0  0  0  0  0  0  0  0  0  0
   -1.2119    1.0835    0.5545 H   0  0  0  0  0  0  0  0  0  0  0  0
   -0.1990    1.7186    1.8652 H   0  0  0  0  0  0  0  0  0  0  0  0
  1  2  1  0
  1  5  1  0
  1  6  1  0
  1  7  1  0
  2  3  1  0
  2  8  1  0
  2  9  1  0
  3  4  1  0
  3 10  1  0
  3 11  1  0
  4 18  1  0
 12 13  1  0
 12 17  1  0
 12 19  1  0
 13 14  1  0
 13 20  1  0
 13 21  1  0
 14 15  1  0
 15 16  1  0
 15 22  1  0
 15 23  1  0
 16 17  1  0
 17 24  1  0
 17 25  1  0
M  RAD  1  12   2
M  END
>  <reaction>  (10) 
rmg_rxn_313

>  <mol_properties>  (10) 
{"2": {"label": "*0", "atom_type": "Cs"}, "3": {"label": "*1", "atom_type": "O2s"}, "11": {"label": "*3", "atom_type": "Cs"}, "12": {"label": "*4", "atom_type": "Cs"}, "17": {"label": "*2", "atom_type": "H0"}}

>  <type>  (10) 
unop_6

>  <geom_source>  (10) 
Heuristics

$$$$

     RDKit          3D

 25 24  0  0  0  0  0  0  0  0999 V2000
   -1.3097   -3.9154    0.6586 C   0  0  0  0  0  0  0  0  0  0  0  0
   -1.6057   -2.4653    1.0155 C   0  0  0  0  0  0  0  0  0  0  0  0
   -0.4466   -1.7699    1.7141 C   0  0  0  0  0  0  0  0  0  0  0  0
    0.7295   -1.7179    0.9291 O   0  0  0  0  0  0  0  0  0  0  0  0
   -1.1155   -4.5040    1.5582 H   0  0  0  0  0  0  0  0  0  0  0  0
   -2.1492   -4.3728    0.1331 H   0  0  0  0  0  0  0  0  0  0  0  0
   -0.4279   -3.9861    0.0211 H   0  0  0  0  0  0  0  0  0  0  0  0
   -1.8635   -1.9023    0.1109 H   0  0  0  0  0  0  0  0  0  0  0  0
   -2.4814   -2.4080    1.6690 H   0  0  0  0  0  0  0  0  0  0  0  0
   -0.7488   -0.7618    2.0246 H   0  0  0  0  0  0  0  0  0  0  0  0
   -0.1709   -2.3207    2.6162 H   0  0  0  0  0  0  0  0  0  0  0  0
    0.9878    0.5734    0.0687 C   0  0  0  0  0  3  0  0  0  0  0  0
    0.9878    0.5734   -1.4533 C   0  0  0  0  0  0  0  0  0  0  0  0
    0.9878    1.8998   -1.9454 O   0  0  0  0  0  0  0  0  0  0  0  0
   -0.0950    2.6241   -1.4461 C   0  0  0  0  0  0  0  0  0  0  0  0
   -0.0837    2.7304   -0.0551 O   0  0  0  0  0  0  0  0  0  0  0  0
   -0.1516    1.4566    0.5568 C   0  0  0  0  0  0  0  0  0  0  0  0
    0.8502   -0.6470    0.5270 H   0  0  0  0  0  0  0  0  0  0  0  0
    1.9371    0.9719    0.4317 H   0  0  0  0  0  0  0  0  0  0  0  0
    1.8736    0.0879   -1.8607 H   0  0  0  0  0  0  0  0  0  0  0  0
    0.1003    0.0421   -1.8301 H   0  0  0  0  0  0  0  0  0  0  0  0
   -1.0376    2.1460   -1.7703 H   0  0  0  0  0  0  0  0  0  0  0  0
   -0.0227    3.6322   -1.8481 H   0  0  0  0  0  0  0  0  0  0  0  0
   -1.1193    0.9875    0.3215 H   0  0  0  0  0  0  0  0  0  0  0  0
   -0.1063    1.6226    1.6323 H   0  0  0  0  0  0  0  0  0  0  0  0
  1  2  1  0
  1  5  1  0
  1  6  1  0
  1  7  1  0
  2  3  1  0
  2  8  1  0
  2  9  1  0
  3  4  1  0
  3 10  1  0
  3 11  1  0
  4 18  1  0
 12 13  1  0
 12 17  1  0
 12 19  1  0
 13 14  1  0
 13 20  1  0
 13 21  1  0
 14 15  1  0
 15 16  1  0
 15 22  1  0
 15 23  1  0
 16 17  1  0
 17 24  1  0
 17 25  1  0
M  RAD  1  12   2
M  END
>  <reaction>  (11) 
rmg_rxn_313

>  <mol_properties>  (11) 
{"2": {"label": "*0", "atom_type": "Cs"}, "3": {"label": "*1", "atom_type": "O2s"}, "11": {"label": "*3", "atom_type": "Cs"}, "12": {"label": "*4", "atom_type": "Cs"}, "17": {"label": "*2", "atom_type": "H0"}}

>  <type>  (11) 
unop_7

>  <geom_source>  (11) 
Heuristics

$$$$

     RDKit          3D

 25 24  0  0  0  0  0  0  0  0999 V2000
    1.8441   -0.7135    2.1956 C   0  0  0  0  0  0  0  0  0  0  0  0
    1.9898   -1.6805    1.0288 C   0  0  0  0  0  0  0  0  0  0  0  0
    0.8798   -2.7193    0.9672 C   0  0  0  0  0  0  0  0  0  0  0  0
   -0.4077   -2.1534    0.8112 O   0  0  0  0  0  0  0  0  0  0  0  0
    1.8895   -1.2461    3.1483 H   0  0  0  0  0  0  0  0  0  0  0  0
    2.6383    0.0344    2.1911 H   0  0  0  0  0  0  0  0  0  0  0  0
    0.8859   -0.1948    2.1525 H   0  0  0  0  0  0  0  0  0  0  0  0
    2.0093   -1.1262    0.0833 H   0  0  0  0  0  0  0  0  0  0  0  0
    2.9467   -2.2075    1.0918 H   0  0  0  0  0  0  0  0  0  0  0  0
    1.0858   -3.4383    0.1643 H   0  0  0  0  0  0  0  0  0  0  0  0
    0.8408   -3.2788    1.9046 H   0  0  0  0  0  0  0  0  0  0  0  0
   -0.1495    0.1379   -0.0492 C   0  0  0  0  0  3  0  0  0  0  0  0
   -0.1495    0.1379   -1.5712 C   0  0  0  0  0  0  0  0  0  0  0  0
   -0.1495    1.4642   -2.0633 O   0  0  0  0  0  0  0  0  0  0  0  0
   -1.2323    2.1886   -1.5640 C   0  0  0  0  0  0  0  0  0  0  0  0
   -1.2210    2.2948   -0.1729 O   0  0  0  0  0  0  0  0  0  0  0  0
   -1.2889    1.0211    0.4389 C   0  0  0  0  0  0  0  0  0  0  0  0
   -0.2870   -1.0825    0.4091 H   0  0  0  0  0  0  0  0  0  0  0  0
    0.7999    0.5364    0.3139 H   0  0  0  0  0  0  0  0  0  0  0  0
    0.7363   -0.3477   -1.9785 H   0  0  0  0  0  0  0  0  0  0  0  0
   -1.0370   -0.3934   -1.9479 H   0  0  0  0  0  0  0  0  0  0  0  0
   -2.1748    1.7105   -1.8882 H   0  0  0  0  0  0  0  0  0  0  0  0
   -1.1600    3.1967   -1.9660 H   0  0  0  0  0  0  0  0  0  0  0  0
   -2.2565    0.5520    0.2037 H   0  0  0  0  0  0  0  0  0  0  0  0
   -1.2436    1.1871    1.5144 H   0  0  0  0  0  0  0  0  0  0  0  0
  1  2  1  0
  1  5  1  0
  1  6  1  0
  1  7  1  0
  2  3  1  0
  2  8  1  0
  2  9  1  0
  3  4  1  0
  3 10  1  0
  3 11  1  0
  4 18  1  0
 12 13  1  0
 12 17  1  0
 12 19  1  0
 13 14  1  0
 13 20  1  0
 13 21  1  0
 14 15  1  0
 15 16  1  0
 15 22  1  0
 15 23  1  0
 16 17  1  0
 17 24  1  0
 17 25  1  0
M  RAD  1  12   2
M  END
>  <reaction>  (12) 
rmg_rxn_313

>  <mol_properties>  (12) 
{"2": {"label": "*0", "atom_type": "Cs"}, "3": {"label": "*1", "atom_type": "O2s"}, "11": {"label": "*3", "atom_type": "Cs"}, "12": {"label": "*4", "atom_type": "Cs"}, "17": {"label": "*2", "atom_type": "H0"}}

>  <type>  (12) 
unop_8

>  <geom_source>  (12) 
Heuristics

$$$$

     RDKit          3D

 25 24  0  0  0  0  0  0  0  0999 V2000
    1.3112   -3.8141   -0.2044 C   0  0  0  0  0  0  0  0  0  0  0  0
    0.1983   -2.8720   -0.6422 C   0  0  0  0  0  0  0  0  0  0  0  0
   -0.6293   -2.3396    0.5183 C   0  0  0  0  0  0  0  0  0  0  0  0
    0.1302   -1.5954    1.4518 O   0  0  0  0  0  0  0  0  0  0  0  0
    0.8994   -4.6971    0.2899 H   0  0  0  0  0  0  0  0  0  0  0  0
    1.9020   -4.1518   -1.0570 H   0  0  0  0  0  0  0  0  0  0  0  0
    1.9807   -3.3223    0.5020 H   0  0  0  0  0  0  0  0  0  0  0  0
    0.6208   -2.0246   -1.1944 H   0  0  0  0  0  0  0  0  0  0  0  0
   -0.4766   -3.3813   -1.3368 H   0  0  0  0  0  0  0  0  0  0  0  0
   -1.4660   -1.7412    0.1362 H   0  0  0  0  0  0  0  0  0  0  0  0
   -1.0544   -3.1710    1.0850 H   0  0  0  0  0  0  0  0  0  0  0  0
    0.3885    0.6960    0.5914 C   0  0  0  0  0  3  0  0  0  0  0  0
    0.3885    0.6960   -0.9307 C   0  0  0  0  0  0  0  0  0  0  0  0
    0.3885    2.0223   -1.4228 O   0  0  0  0  0  0  0  0  0  0  0  0
   -0.6943    2.7466   -0.9234 C   0  0  0  0  0  0  0  0  0  0  0  0
   -0.6830    2.8529    0.4676 O   0  0  0  0  0  0  0  0  0  0  0  0
   -0.7509    1.5792    1.0795 C   0  0  0  0  0  0  0  0  0  0  0  0
    0.2509   -0.5244    1.0496 H   0  0  0  0  0  0  0  0  0  0  0  0
    1.3378    1.0945    0.9544 H   0  0  0  0  0  0  0  0  0  0  0  0
    1.2742    0.2104   -1.3380 H   0  0  0  0  0  0  0  0  0  0  0  0
   -0.4990    0.1647   -1.3074 H   0  0  0  0  0  0  0  0  0  0  0  0
   -1.6369    2.2686   -1.2477 H   0  0  0  0  0  0  0  0  0  0  0  0
   -0.6221    3.7548   -1.3254 H   0  0  0  0  0  0  0  0  0  0  0  0
   -1.7186    1.1101    0.8442 H   0  0  0  0  0  0  0  0  0  0  0  0
   -0.7057    1.7452    2.1549 H   0  0  0  0  0  0  0  0  0  0  0  0
  1  2  1  0
  1  5  1  0
  1  6  1  0
  1  7  1  0
  2  3  1  0
  2  8  1  0
  2  9  1  0
  3  4  1  0
  3 10  1  0
  3 11  1  0
  4 18  1  0
 12 13  1  0
 12 17  1  0
 12 19  1  0
 13 14  1  0
 13 20  1  0
 13 21  1  0
 14 15  1  0
 15 16  1  0
 15 22  1  0
 15 23  1  0
 16 17  1  0
 17 24  1  0
 17 25  1  0
M  RAD  1  12   2
M  END
>  <reaction>  (13) 
rmg_rxn_313

>  <mol_properties>  (13) 
{"2": {"label": "*0", "atom_type": "Cs"}, "3": {"label": "*1", "atom_type": "O2s"}, "11": {"label": "*3", "atom_type": "Cs"}, "12": {"label": "*4", "atom_type": "Cs"}, "17": {"label": "*2", "atom_type": "H0"}}

>  <type>  (13) 
unop_9

>  <geom_source>  (13) 
Heuristics

$$$$

     RDKit          3D

 25 24  0  0  0  0  0  0  0  0999 V2000
    2.4305   -1.2672    1.5361 C   0  0  0  0  0  0  0  0  0  0  0  0
    1.8894   -1.9815    0.3052 C   0  0  0  0  0  0  0  0  0  0  0  0
    0.6378   -2.7995    0.5871 C   0  0  0  0  0  0  0  0  0  0  0  0
   -0.4447   -2.0205    1.0601 O   0  0  0  0  0  0  0  0  0  0  0  0
    2.7190   -1.9866    2.3059 H   0  0  0  0  0  0  0  0  0  0  0  0
    3.3083   -0.6674    1.2914 H   0  0  0  0  0  0  0  0  0  0  0  0
    1.6754   -0.6085    1.9659 H   0  0  0  0  0  0  0  0  0  0  0  0
    1.6666   -1.2527   -0.4827 H   0  0  0  0  0  0  0  0  0  0  0  0
    2.6493   -2.6522   -0.1072 H   0  0  0  0  0  0  0  0  0  0  0  0
    0.3477   -3.3590   -0.3111 H   0  0  0  0  0  0  0  0  0  0  0  0
    0.8388   -3.5284    1.3753 H   0  0  0  0  0  0  0  0  0  0  0  0
   -0.1864    0.2708    0.1997 C   0  0  0  0  0  3  0  0  0  0  0  0
   -0.1864    0.2708   -1.3223 C   0  0  0  0  0  0  0  0  0  0  0  0
   -0.1864    1.5972   -1.8144 O   0  0  0  0  0  0  0  0  0  0  0  0
   -1.2692    2.3215   -1.3151 C   0  0  0  0  0  0  0  0  0  0  0  0
   -1.2579    2.4278    0.0759 O   0  0  0  0  0  0  0  0  0  0  0  0
   -1.3258    1.1541    0.6878 C   0  0  0  0  0  0  0  0  0  0  0  0
   -0.3240   -0.9495    0.6580 H   0  0  0  0  0  0  0  0  0  0  0  0
    0.7629    0.6693    0.5627 H   0  0  0  0  0  0  0  0  0  0  0  0
    0.6994   -0.2147   -1.7297 H   0  0  0  0  0  0  0  0  0  0  0  0
   -1.0739   -0.2604   -1.6991 H   0  0  0  0  0  0  0  0  0  0  0  0
   -2.2118    1.8434   -1.6393 H   0  0  0  0  0  0  0  0  0  0  0  0
   -1.1969    3.3297   -1.7171 H   0  0  0  0  0  0  0  0  0  0  0  0
   -2.2935    0.6850    0.4525 H   0  0  0  0  0  0  0  0  0  0  0  0
   -1.2805    1.3201    1.7633 H   0  0  0  0  0  0  0  0  0  0  0  0
  1  2  1  0
  1  5  1  0
  1  6  1  0
  1  7  1  0
  2  3  1  0
  2  8  1  0
  2  9  1  0
  3  4  1  0
  3 10  1  0
  3 11  1  0
  4 18  1  0
 12 13  1  0
 12 17  1  0
 12 19  1  0
 13 14  1  0
 13 20  1  0
 13 21  1  0
 14 15  1  0
 15 16  1  0
 15 22  1  0
 15 23  1  0
 16 17  1  0
 17 24  1  0
 17 25  1  0
M  RAD  1  12   2
M  END
>  <reaction>  (14) 
rmg_rxn_313

>  <mol_properties>  (14) 
{"2": {"label": "*0", "atom_type": "Cs"}, "3": {"label": "*1", "atom_type": "O2s"}, "11": {"label": "*3", "atom_type": "Cs"}, "12": {"label": "*4", "atom_type": "Cs"}, "17": {"label": "*2", "atom_type": "H0"}}

>  <type>  (14) 
unop_10

>  <geom_source>  (14) 
Heuristics

$$$$

     RDKit          3D

 25 24  0  0  0  0  0  0  0  0999 V2000
   -1.8764   -3.2992    1.2287 C   0  0  0  0  0  0  0  0  0  0  0  0
   -1.4571   -1.9645    1.8293 C   0  0  0  0  0  0  0  0  0  0  0  0
    0.0516   -1.8065    1.9478 C   0  0  0  0  0  0  0  0  0  0  0  0
    0.7200   -1.8701    0.7023 O   0  0  0  0  0  0  0  0  0  0  0  0
   -1.5443   -4.1285    1.8576 H   0  0  0  0  0  0  0  0  0  0  0  0
   -2.9608   -3.3657    1.1307 H   0  0  0  0  0  0  0  0  0  0  0  0
   -1.4349   -3.4362    0.2411 H   0  0  0  0  0  0  0  0  0  0  0  0
   -1.8534   -1.1407    1.2244 H   0  0  0  0  0  0  0  0  0  0  0  0
   -1.8917   -1.8456    2.8265 H   0  0  0  0  0  0  0  0  0  0  0  0
    0.2889   -0.8689    2.4662 H   0  0  0  0  0  0  0  0  0  0  0  0
    0.4660   -2.6230    2.5433 H   0  0  0  0  0  0  0  0  0  0  0  0
    0.9783    0.4212   -0.1581 C   0  0  0  0  0  3  0  0  0  0  0  0
    0.9783    0.4212   -1.6802 C   0  0  0  0  0  0  0  0  0  0  0  0
    0.9783    1.7476   -2.1723 O   0  0  0  0  0  0  0  0  0  0  0  0
   -0.1045    2.4719   -1.6729 C   0  0  0  0  0  0  0  0  0  0  0  0
   -0.0932    2.5782   -0.2819 O   0  0  0  0  0  0  0  0  0  0  0  0
   -0.1611    1.3044    0.3300 C   0  0  0  0  0  0  0  0  0  0  0  0
    0.8407   -0.7992    0.3001 H   0  0  0  0  0  0  0  0  0  0  0  0
    1.9276    0.8197    0.2049 H   0  0  0  0  0  0  0  0  0  0  0  0
    1.8641   -0.0643   -2.0875 H   0  0  0  0  0  0  0  0  0  0  0  0
    0.0908   -0.1101   -2.0569 H   0  0  0  0  0  0  0  0  0  0  0  0
   -1.0471    1.9938   -1.9971 H   0  0  0  0  0  0  0  0  0  0  0  0
   -0.0322    3.4800   -2.0749 H   0  0  0  0  0  0  0  0  0  0  0  0
   -1.1288    0.8353    0.0947 H   0  0  0  0  0  0  0  0  0  0  0  0
   -0.1158    1.4704    1.4054 H   0  0  0  0  0  0  0  0  0  0  0  0
  1  2  1  0
  1  5  1  0
  1  6  1  0
  1  7  1  0
  2  3  1  0
  2  8  1  0
  2  9  1  0
  3  4  1  0
  3 10  1  0
  3 11  1  0
  4 18  1  0
 12 13  1  0
 12 17  1  0
 12 19  1  0
 13 14  1  0
 13 20  1  0
 13 21  1  0
 14 15  1  0
 15 16  1  0
 15 22  1  0
 15 23  1  0
 16 17  1  0
 17 24  1  0
 17 25  1  0
M  RAD  1  12   2
M  END
>  <reaction>  (15) 
rmg_rxn_313

>  <mol_properties>  (15) 
{"2": {"label": "*0", "atom_type": "Cs"}, "3": {"label": "*1", "atom_type": "O2s"}, "11": {"label": "*3", "atom_type": "Cs"}, "12": {"label": "*4", "atom_type": "Cs"}, "17": {"label": "*2", "atom_type": "H0"}}

>  <type>  (15) 
unop_11

>  <geom_source>  (15) 
Heuristics

$$$$

     RDKit          3D

 25 24  0  0  0  0  0  0  0  0999 V2000
    2.2377   -3.0279    0.1671 C   0  0  0  0  0  0  0  0  0  0  0  0
    0.9768   -2.5944   -0.5678 C   0  0  0  0  0  0  0  0  0  0  0  0
   -0.2625   -2.5928    0.3149 C   0  0  0  0  0  0  0  0  0  0  0  0
   -0.1631   -1.7109    1.4170 O   0  0  0  0  0  0  0  0  0  0  0  0
    2.1394   -4.0521    0.5342 H   0  0  0  0  0  0  0  0  0  0  0  0
    3.1101   -2.9881   -0.4866 H   0  0  0  0  0  0  0  0  0  0  0  0
    2.4258   -2.3853    1.0277 H   0  0  0  0  0  0  0  0  0  0  0  0
    1.1144   -1.5910   -0.9874 H   0  0  0  0  0  0  0  0  0  0  0  0
    0.7886   -3.2563   -1.4185 H   0  0  0  0  0  0  0  0  0  0  0  0
   -1.1494   -2.3598   -0.2877 H   0  0  0  0  0  0  0  0  0  0  0  0
   -0.4129   -3.5844    0.7476 H   0  0  0  0  0  0  0  0  0  0  0  0
    0.0952    0.5804    0.5566 C   0  0  0  0  0  3  0  0  0  0  0  0
    0.0952    0.5804   -0.9655 C   0  0  0  0  0  0  0  0  0  0  0  0
    0.0952    1.9068   -1.4576 O   0  0  0  0  0  0  0  0  0  0  0  0
   -0.9876    2.6311   -0.9582 C   0  0  0  0  0  0  0  0  0  0  0  0
   -0.9763    2.7374    0.4328 O   0  0  0  0  0  0  0  0  0  0  0  0
   -1.0442    1.4637    1.0447 C   0  0  0  0  0  0  0  0  0  0  0  0
   -0.0424   -0.6399    1.0148 H   0  0  0  0  0  0  0  0  0  0  0  0
    1.0445    0.9790    0.9196 H   0  0  0  0  0  0  0  0  0  0  0  0
    0.9809    0.0949   -1.3728 H   0  0  0  0  0  0  0  0  0  0  0  0
   -0.7923    0.0492   -1.3422 H   0  0  0  0  0  0  0  0  0  0  0  0
   -1.9302    2.1531   -1.2825 H   0  0  0  0  0  0  0  0  0  0  0  0
   -0.9153    3.6393   -1.3602 H   0  0  0  0  0  0  0  0  0  0  0  0
   -2.0119    0.9946    0.8094 H   0  0  0  0  0  0  0  0  0  0  0  0
   -0.9990    1.6297    2.1201 H   0  0  0  0  0  0  0  0  0  0  0  0
  1  2  1  0
  1  5  1  0
  1  6  1  0
  1  7  1  0
  2  3  1  0
  2  8  1  0
  2  9  1  0
  3  4  1  0
  3 10  1  0
  3 11  1  0
  4 18  1  0
 12 13  1  0
 12 17  1  0
 12 19  1  0
 13 14  1  0
 13 20  1  0
 13 21  1  0
 14 15  1  0
 15 16  1  0
 15 22  1  0
 15 23  1  0
 16 17  1  0
 17 24  1  0
 17 25  1  0
M  RAD  1  12   2
M  END
>  <reaction>  (16) 
rmg_rxn_313

>  <mol_properties>  (16) 
{"2": {"label": "*0", "atom_type": "Cs"}, "3": {"label": "*1", "atom_type": "O2s"}, "11": {"label": "*3", "atom_type": "Cs"}, "12": {"label": "*4", "atom_type": "Cs"}, "17": {"label": "*2", "atom_type": "H0"}}

>  <type>  (16) 
unop_12

>  <geom_source>  (16) 
Heuristics

$$$$

     RDKit          3D

 25 22  0  0  0  0  0  0  0  0999 V2000
    3.0459    1.2933   -0.8113 O   0  0  0  0  0  0  0  0  0  0  0  0
    2.8465    0.6782    1.4985 O   0  0  0  0  0  3  0  0  0  0  0  0
   -0.5677   -1.6254   -0.5473 O   0  0  0  0  0  0  0  0  0  0  0  0
   -2.6591   -0.4557   -0.6957 C   0  0  0  0  0  0  0  0  0  0  0  0
   -1.7696   -1.3876    0.1285 C   0  0  0  0  0  0  0  0  0  0  0  0
    2.5082    0.0040   -1.0088 C   0  0  0  0  0  3  0  0  0  0  0  0
    1.4761    0.6118    1.1708 C   0  0  0  0  0  0  0  0  0  0  0  0
   -3.9900   -0.1988    0.0049 C   0  0  0  0  0  0  0  0  0  0  0  0
    3.5572    1.4216    0.5125 C   0  0  0  0  0  0  0  0  0  0  0  0
    1.2888   -0.1945   -0.1118 C   0  0  0  0  0  1  0  0  0  0  0  0
   -2.8537   -0.9136   -1.6898 H   0  0  0  0  0  0  0  0  0  0  0  0
   -2.1384    0.5140   -0.8514 H   0  0  0  0  0  0  0  0  0  0  0  0
   -1.5598   -0.9405    1.1256 H   0  0  0  0  0  0  0  0  0  0  0  0
   -2.2868   -2.3585    0.2830 H   0  0  0  0  0  0  0  0  0  0  0  0
   -3.8198    0.2798    0.9929 H   0  0  0  0  0  0  0  0  0  0  0  0
   -4.6119    0.4799   -0.6161 H   0  0  0  0  0  0  0  0  0  0  0  0
   -4.5408   -1.1527    0.1489 H   0  0  0  0  0  0  0  0  0  0  0  0
    2.2071   -0.1062   -2.0718 H   0  0  0  0  0  0  0  0  0  0  0  0
    3.2700   -0.7794   -0.7937 H   0  0  0  0  0  0  0  0  0  0  0  0
    0.9311    0.1034    1.9926 H   0  0  0  0  0  0  0  0  0  0  0  0
    1.0476    1.6349    1.0611 H   0  0  0  0  0  0  0  0  0  0  0  0
    3.5443    2.4958    0.7945 H   0  0  0  0  0  0  0  0  0  0  0  0
    4.6188    1.0953    0.5202 H   0  0  0  0  0  0  0  0  0  0  0  0
    0.3590    0.1302   -0.6274 H   0  0  0  0  0  0  0  0  0  0  0  0
    0.0970   -0.6291   -0.4087 H   0  0  0  0  0  0  0  0  0  0  0  0
  1  6  1  0
  1  9  1  0
  2  7  2  3
  2  9  1  0
  3  5  1  0
  3 25  1  0
  4  8  1  0
  4  5  1  0
  4 11  1  0
  4 12  1  0
  5 13  1  0
  5 14  1  0
  6 18  1  0
  6 19  1  0
  7 20  1  0
  7 21  1  0
  8 15  1  0
  8 16  1  0
  8 17  1  0
  9 22  1  0
  9 23  1  0
 10 24  1  0
M  CHG  2   2   1   6  -1
M  RAD  1  10   2
M  END
>  <reaction>  (17) 
rmg_rxn_313

>  <mol_properties>  (17) 
{"2": {"label": "*0", "atom_type": "Cs"}, "3": {"label": "*1", "atom_type": "O2s"}, "11": {"label": "*3", "atom_type": "Cs"}, "12": {"label": "*4", "atom_type": "Cs"}, "17": {"label": "*2", "atom_type": "H0"}}

>  <type>  (17) 
unop_13

>  <geom_source>  (17) 
AutoTST

$$$$

     RDKit          3D

 25 24  0  0  0  0  0  0  0  0999 V2000
    2.6087   -2.0623    0.8213 C   0  0  0  0  0  0  0  0  0  0  0  0
    1.5323   -2.2694   -0.2353 C   0  0  0  0  0  0  0  0  0  0  0  0
    0.2137   -2.7653    0.3396 C   0  0  0  0  0  0  0  0  0  0  0  0
   -0.3611   -1.8706    1.2731 O   0  0  0  0  0  0  0  0  0  0  0  0
    2.8446   -3.0032    1.3236 H   0  0  0  0  0  0  0  0  0  0  0  0
    3.5289   -1.6783    0.3786 H   0  0  0  0  0  0  0  0  0  0  0  0
    2.2749   -1.3563    1.5823 H   0  0  0  0  0  0  0  0  0  0  0  0
    1.3533   -1.3327   -0.7760 H   0  0  0  0  0  0  0  0  0  0  0  0
    1.8712   -2.9922   -0.9836 H   0  0  0  0  0  0  0  0  0  0  0  0
   -0.4906   -2.9802   -0.4739 H   0  0  0  0  0  0  0  0  0  0  0  0
    0.3732   -3.6963    0.8881 H   0  0  0  0  0  0  0  0  0  0  0  0
   -0.1028    0.4207    0.4127 C   0  0  0  0  0  3  0  0  0  0  0  0
   -0.1028    0.4207   -1.1093 C   0  0  0  0  0  0  0  0  0  0  0  0
   -0.1028    1.7471   -1.6014 O   0  0  0  0  0  0  0  0  0  0  0  0
   -1.1856    2.4714   -1.1021 C   0  0  0  0  0  0  0  0  0  0  0  0
   -1.1743    2.5777    0.2889 O   0  0  0  0  0  0  0  0  0  0  0  0
   -1.2422    1.3039    0.9008 C   0  0  0  0  0  0  0  0  0  0  0  0
   -0.2404   -0.7997    0.8710 H   0  0  0  0  0  0  0  0  0  0  0  0
    0.8465    0.8192    0.7757 H   0  0  0  0  0  0  0  0  0  0  0  0
    0.7830   -0.0648   -1.5167 H   0  0  0  0  0  0  0  0  0  0  0  0
   -0.9903   -0.1106   -1.4860 H   0  0  0  0  0  0  0  0  0  0  0  0
   -2.1282    1.9933   -1.4263 H   0  0  0  0  0  0  0  0  0  0  0  0
   -1.1133    3.4795   -1.5041 H   0  0  0  0  0  0  0  0  0  0  0  0
   -2.2099    0.8348    0.6655 H   0  0  0  0  0  0  0  0  0  0  0  0
   -1.1969    1.4700    1.9763 H   0  0  0  0  0  0  0  0  0  0  0  0
  1  2  1  0
  1  5  1  0
  1  6  1  0
  1  7  1  0
  2  3  1  0
  2  8  1  0
  2  9  1  0
  3  4  1  0
  3 10  1  0
  3 11  1  0
  4 18  1  0
 12 13  1  0
 12 17  1  0
 12 19  1  0
 13 14  1  0
 13 20  1  0
 13 21  1  0
 14 15  1  0
 15 16  1  0
 15 22  1  0
 15 23  1  0
 16 17  1  0
 17 24  1  0
 17 25  1  0
M  RAD  1  12   2
M  END
>  <reaction>  (18) 
rmg_rxn_313

>  <mol_properties>  (18) 
{"2": {"label": "*0", "atom_type": "Cs"}, "3": {"label": "*1", "atom_type": "O2s"}, "11": {"label": "*3", "atom_type": "Cs"}, "12": {"label": "*4", "atom_type": "Cs"}, "17": {"label": "*2", "atom_type": "H0"}}

>  <type>  (18) 
unop_14

>  <geom_source>  (18) 
gaussian_log

$$$$
