
     RDKit          3D

 15 14  0  0  0  0  0  0  0  0999 V2000
   -2.0554    0.0723   -0.4910 C   0  0  0  0  0  0  0  0  0  0  0  0
   -0.7461   -0.6266   -0.8178 C   0  0  0  0  0  0  0  0  0  0  0  0
    0.3249    0.2591   -1.9782 S   0  0  0  0  0  0  0  0  0  0  0  0
   -0.7172    0.3642   -3.4551 C   0  0  0  0  0  0  0  0  0  0  0  0
   -1.1375   -0.9737   -4.0409 C   0  0  0  0  0  0  0  0  0  0  0  0
   -2.7005    0.1427   -1.3684 H   0  0  0  0  0  0  0  0  0  0  0  0
   -2.6016   -0.4848    0.2733 H   0  0  0  0  0  0  0  0  0  0  0  0
   -1.8758    1.0825   -0.1213 H   0  0  0  0  0  0  0  0  0  0  0  0
   -0.1320   -0.7246    0.0789 H   0  0  0  0  0  0  0  0  0  0  0  0
   -0.9254   -1.6374   -1.1879 H   0  0  0  0  0  0  0  0  0  0  0  0
   -1.5873    0.9874   -3.2422 H   0  0  0  0  0  0  0  0  0  0  0  0
   -0.1021    0.9161   -4.1678 H   0  0  0  0  0  0  0  0  0  0  0  0
   -1.7876   -1.5224   -3.3574 H   0  0  0  0  0  0  0  0  0  0  0  0
   -0.2676   -1.5962   -4.2534 H   0  0  0  0  0  0  0  0  0  0  0  0
   -1.6916   -0.8229   -4.9700 H   0  0  0  0  0  0  0  0  0  0  0  0
  1  2  1  0
  1  6  1  0
  1  7  1  0
  1  8  1  0
  2  3  1  0
  2  9  1  0
  2 10  1  0
  3  4  1  0
  4  5  1  0
  4 11  1  0
  4 12  1  0
  5 13  1  0
  5 14  1  0
  5 15  1  0
M  END
>  <reaction>  (1) 
rmg_rxn_64

>  <mol_properties>  (1) 
{"1": {"label": "donator", "atom_type": "Cs"}, "8": {"label": "d_hydrogen", "atom_type": "H0"}}

>  <type>  (1) 
r1h

$$$$

     RDKit          3D

 13 12  0  0  0  0  0  0  0  0999 V2000
    2.0654   -0.2739   -0.0844 C   0  0  0  0  0  3  0  0  0  0  0  0
    0.6326   -0.4110   -0.4406 C   0  0  0  0  0  0  0  0  0  0  0  0
   -0.3055    0.4151    0.4359 C   0  0  0  0  0  0  0  0  0  0  0  0
   -1.7714    0.2357    0.0671 C   0  0  0  0  0  0  0  0  0  0  0  0
    2.3610    0.0676    0.8995 H   0  0  0  0  0  0  0  0  0  0  0  0
    2.8408   -0.6127   -0.7582 H   0  0  0  0  0  0  0  0  0  0  0  0
    0.3313   -1.4695   -0.3768 H   0  0  0  0  0  0  0  0  0  0  0  0
    0.4826   -0.1432   -1.4940 H   0  0  0  0  0  0  0  0  0  0  0  0
   -0.1518    0.1351    1.4826 H   0  0  0  0  0  0  0  0  0  0  0  0
   -0.0303    1.4705    0.3565 H   0  0  0  0  0  0  0  0  0  0  0  0
   -2.0768   -0.8084    0.1692 H   0  0  0  0  0  0  0  0  0  0  0  0
   -1.9546    0.5339   -0.9679 H   0  0  0  0  0  0  0  0  0  0  0  0
   -2.4194    0.8370    0.7066 H   0  0  0  0  0  0  0  0  0  0  0  0
  1  2  1  0
  1  5  1  0
  1  6  1  0
  2  3  1  0
  2  7  1  0
  2  8  1  0
  3  4  1  0
  3  9  1  0
  3 10  1  0
  4 11  1  0
  4 12  1  0
  4 13  1  0
M  RAD  1   1   2
M  END
>  <reaction>  (2) 
rmg_rxn_64

>  <mol_properties>  (2) 
{"0": {"label": "acceptor", "atom_type": "Cs"}}

>  <type>  (2) 
r2

$$$$

     RDKit          3D

 14 13  0  0  0  0  0  0  0  0999 V2000
    1.8106   -0.5953    0.5577 C   0  0  0  0  0  0  0  0  0  0  0  0
    0.5197    0.2064    0.6554 C   0  0  0  0  0  0  0  0  0  0  0  0
   -0.5206   -0.2080   -0.3788 C   0  0  0  0  0  0  0  0  0  0  0  0
   -1.8114    0.5937   -0.2812 C   0  0  0  0  0  0  0  0  0  0  0  0
    2.2725   -0.4752   -0.4251 H   0  0  0  0  0  0  0  0  0  0  0  0
    1.6214   -1.6612    0.7052 H   0  0  0  0  0  0  0  0  0  0  0  0
    2.5364   -0.2784    1.3084 H   0  0  0  0  0  0  0  0  0  0  0  0
    0.0930    0.0950    1.6574 H   0  0  0  0  0  0  0  0  0  0  0  0
    0.7393    1.2723    0.5354 H   0  0  0  0  0  0  0  0  0  0  0  0
   -0.7402   -1.2739   -0.2588 H   0  0  0  0  0  0  0  0  0  0  0  0
   -0.0938   -0.0965   -1.3808 H   0  0  0  0  0  0  0  0  0  0  0  0
   -1.6222    1.6596   -0.4287 H   0  0  0  0  0  0  0  0  0  0  0  0
   -2.2734    0.4736    0.7017 H   0  0  0  0  0  0  0  0  0  0  0  0
   -2.5373    0.2768   -1.0318 H   0  0  0  0  0  0  0  0  0  0  0  0
  1  2  1  0
  1  5  1  0
  1  6  1  0
  1  7  1  0
  2  3  1  0
  2  8  1  0
  2  9  1  0
  3  4  1  0
  3 10  1  0
  3 11  1  0
  4 12  1  0
  4 13  1  0
  4 14  1  0
M  END
>  <reaction>  (3) 
rmg_rxn_64

>  <mol_properties>  (3) 
{"0": {"label": "acceptor", "atom_type": "Cs"}, "13": {"label": "a_hydrogen", "atom_type": "H0"}}

>  <type>  (3) 
r2h

$$$$

     RDKit          3D

 28 26  0  0  0  0  0  0  0  0999 V2000
   -0.9261   -1.7342    0.9487 C   0  0  0  0  0  3  0  0  0  0  0  0
   -1.9005   -1.4782   -0.1685 C   0  0  0  0  0  0  0  0  0  0  0  0
   -3.2883   -2.0690    0.0909 C   0  0  0  0  0  0  0  0  0  0  0  0
   -4.2617   -1.8014   -1.0496 C   0  0  0  0  0  0  0  0  0  0  0  0
   -0.5910   -2.7656    1.0511 H   0  0  0  0  0  0  0  0  0  0  0  0
   -1.2015   -1.2974    1.9079 H   0  0  0  0  0  0  0  0  0  0  0  0
   -1.5079   -1.8927   -1.1027 H   0  0  0  0  0  0  0  0  0  0  0  0
   -1.9962   -0.3986   -0.3258 H   0  0  0  0  0  0  0  0  0  0  0  0
   -3.1958   -3.1471    0.2530 H   0  0  0  0  0  0  0  0  0  0  0  0
   -3.6852   -1.6514    1.0209 H   0  0  0  0  0  0  0  0  0  0  0  0
   -3.8988   -2.2356   -1.9842 H   0  0  0  0  0  0  0  0  0  0  0  0
   -4.3889   -0.7285   -1.2108 H   0  0  0  0  0  0  0  0  0  0  0  0
   -5.2447   -2.2276   -0.8429 H   0  0  0  0  0  0  0  0  0  0  0  0
    1.3996   -0.7107   -1.2603 C   0  0  0  0  0  0  0  0  0  0  0  0
    1.2419   -0.3456    0.1924 C   0  0  0  0  0  0  0  0  0  0  0  0
    0.7436    1.3249    0.5693 S   0  0  0  0  0  0  0  0  0  0  0  0
    2.0019    2.3156   -0.2866 C   0  0  0  0  0  0  0  0  0  0  0  0
    3.4190    2.0996    0.2157 C   0  0  0  0  0  0  0  0  0  0  0  0
    2.2803   -0.2389   -1.7068 H   0  0  0  0  0  0  0  0  0  0  0  0
    1.5203   -1.7913   -1.3685 H   0  0  0  0  0  0  0  0  0  0  0  0
    0.5258   -0.4006   -1.8358 H   0  0  0  0  0  0  0  0  0  0  0  0
    0.2035   -1.0465    0.6300 H   0  0  0  0  0  0  0  0  0  0  0  0
    2.0538   -0.6992    0.8273 H   0  0  0  0  0  0  0  0  0  0  0  0
    1.9331    2.1297   -1.3596 H   0  0  0  0  0  0  0  0  0  0  0  0
    1.6850    3.3468   -0.1210 H   0  0  0  0  0  0  0  0  0  0  0  0
    3.7429    1.0704    0.0506 H   0  0  0  0  0  0  0  0  0  0  0  0
    3.4888    2.3068    1.2840 H   0  0  0  0  0  0  0  0  0  0  0  0
    4.1151    2.7562   -0.3115 H   0  0  0  0  0  0  0  0  0  0  0  0
  1  2  1  0
  1  5  1  0
  1  6  1  0
  2  3  1  0
  2  7  1  0
  2  8  1  0
  3  4  1  0
  3  9  1  0
  3 10  1  0
  4 11  1  0
  4 12  1  0
  4 13  1  0
 14 15  1  0
 14 19  1  0
 14 20  1  0
 14 21  1  0
 15 16  1  0
 15 22  1  0
 15 23  1  0
 16 17  1  0
 17 18  1  0
 17 24  1  0
 17 25  1  0
 18 26  1  0
 18 27  1  0
 18 28  1  0
M  RAD  1   1   2
M  END
>  <reaction>  (4) 
rmg_rxn_64

>  <mol_properties>  (4) 
{"0": {"label": "*3", "atom_type": "Cs"}, "1": {"label": "*4", "atom_type": "Cs"}, "14": {"label": "*1", "atom_type": "Cs"}, "15": {"label": "*0", "atom_type": "S2s"}, "21": {"label": "*2", "atom_type": "H0"}}

>  <type>  (4) 
ts

$$$$

     RDKit          3D

 28 26  0  0  0  0  0  0  0  0999 V2000
   -1.7181   -0.9191   -0.1000 C   0  0  0  0  0  0  0  0  0  0  0  0
   -1.4076   -2.1375    0.7588 C   0  0  0  0  0  0  0  0  0  0  0  0
   -2.2990   -2.2429    1.9908 C   0  0  0  0  0  0  0  0  0  0  0  0
   -1.9884   -3.4613    2.8496 C   0  0  0  0  0  0  0  0  0  0  0  0
   -1.5865    0.0045    0.4688 H   0  0  0  0  0  0  0  0  0  0  0  0
   -2.7512   -0.9435   -0.4550 H   0  0  0  0  0  0  0  0  0  0  0  0
   -0.3602   -2.1060    1.0760 H   0  0  0  0  0  0  0  0  0  0  0  0
   -1.5163   -3.0470    0.1591 H   0  0  0  0  0  0  0  0  0  0  0  0
   -2.1903   -1.3334    2.5905 H   0  0  0  0  0  0  0  0  0  0  0  0
   -3.3463   -2.2744    1.6736 H   0  0  0  0  0  0  0  0  0  0  0  0
   -0.9554   -3.4369    3.2046 H   0  0  0  0  0  0  0  0  0  0  0  0
   -2.1200   -4.3849    2.2809 H   0  0  0  0  0  0  0  0  0  0  0  0
   -2.6402   -3.5120    3.7233 H   0  0  0  0  0  0  0  0  0  0  0  0
    0.4687    0.1941   -2.5348 C   0  0  0  0  0  0  0  0  0  0  0  0
    0.4687    0.1941   -1.0151 C   0  0  0  0  0  3  0  0  0  0  0  0
    0.4687    1.8352   -0.2502 S   0  0  0  0  0  0  0  0  0  0  0  0
    2.0093    2.5492   -0.8788 C   0  0  0  0  0  0  0  0  0  0  0  0
    3.2702    1.7903   -0.4996 C   0  0  0  0  0  0  0  0  0  0  0  0
    1.3917    0.6177   -2.9342 H   0  0  0  0  0  0  0  0  0  0  0  0
    0.3862   -0.8270   -2.9135 H   0  0  0  0  0  0  0  0  0  0  0  0
   -0.3670    0.7766   -2.9242 H   0  0  0  0  0  0  0  0  0  0  0  0
   -0.6247   -0.3625   -0.5575 H   0  0  0  0  0  0  0  0  0  0  0  0
    1.3049   -0.3885   -0.6250 H   0  0  0  0  0  0  0  0  0  0  0  0
    1.9381    2.6714   -1.9608 H   0  0  0  0  0  0  0  0  0  0  0  0
    2.0244    3.5523   -0.4495 H   0  0  0  0  0  0  0  0  0  0  0  0
    3.2914    0.7985   -0.9543 H   0  0  0  0  0  0  0  0  0  0  0  0
    3.3409    1.6683    0.5818 H   0  0  0  0  0  0  0  0  0  0  0  0
    4.1550    2.3287   -0.8465 H   0  0  0  0  0  0  0  0  0  0  0  0
  1  2  1  0
  1  5  1  0
  1  6  1  0
  1 22  1  0
  2  3  1  0
  2  7  1  0
  2  8  1  0
  3  4  1  0
  3  9  1  0
  3 10  1  0
  4 11  1  0
  4 12  1  0
  4 13  1  0
 14 15  1  0
 14 19  1  0
 14 20  1  0
 14 21  1  0
 15 16  1  0
 15 23  1  0
 16 17  1  0
 17 18  1  0
 17 24  1  0
 17 25  1  0
 18 26  1  0
 18 27  1  0
 18 28  1  0
M  RAD  1  15   2
M  END
>  <reaction>  (5) 
rmg_rxn_64

>  <mol_properties>  (5) 
{"0": {"label": "*3", "atom_type": "Cs"}, "1": {"label": "*4", "atom_type": "Cs"}, "14": {"label": "*1", "atom_type": "Cs"}, "15": {"label": "*0", "atom_type": "S2s"}, "21": {"label": "*2", "atom_type": "H0"}}

>  <type>  (5) 
unop_1

>  <geom_source>  (5) 
Heuristics

$$$$

     RDKit          3D

 28 26  0  0  0  0  0  0  0  0999 V2000
   -1.3689   -0.8075    0.7313 C   0  0  0  0  0  0  0  0  0  0  0  0
   -1.8961   -1.8706   -0.2229 C   0  0  0  0  0  0  0  0  0  0  0  0
   -2.8796   -2.8304    0.4366 C   0  0  0  0  0  0  0  0  0  0  0  0
   -3.4068   -3.8935   -0.5176 C   0  0  0  0  0  0  0  0  0  0  0  0
   -0.8502   -1.2639    1.5777 H   0  0  0  0  0  0  0  0  0  0  0  0
   -2.1852   -0.2020    1.1322 H   0  0  0  0  0  0  0  0  0  0  0  0
   -1.0583   -2.4428   -0.6344 H   0  0  0  0  0  0  0  0  0  0  0  0
   -2.3835   -1.3887   -1.0766 H   0  0  0  0  0  0  0  0  0  0  0  0
   -2.3922   -3.3123    1.2903 H   0  0  0  0  0  0  0  0  0  0  0  0
   -3.7174   -2.2582    0.8481 H   0  0  0  0  0  0  0  0  0  0  0  0
   -2.5905   -4.4990   -0.9186 H   0  0  0  0  0  0  0  0  0  0  0  0
   -3.9255   -3.4372   -1.3641 H   0  0  0  0  0  0  0  0  0  0  0  0
   -4.1076   -4.5659   -0.0202 H   0  0  0  0  0  0  0  0  0  0  0  0
    0.8179    0.3057   -1.7035 C   0  0  0  0  0  0  0  0  0  0  0  0
    0.8179    0.3057   -0.1838 C   0  0  0  0  0  3  0  0  0  0  0  0
    0.8179    1.9468    0.5811 S   0  0  0  0  0  0  0  0  0  0  0  0
    2.3585    2.6607   -0.0475 C   0  0  0  0  0  0  0  0  0  0  0  0
    3.6194    1.9019    0.3317 C   0  0  0  0  0  0  0  0  0  0  0  0
    1.7410    0.7293   -2.1029 H   0  0  0  0  0  0  0  0  0  0  0  0
    0.7354   -0.7154   -2.0822 H   0  0  0  0  0  0  0  0  0  0  0  0
   -0.0178    0.8882   -2.0929 H   0  0  0  0  0  0  0  0  0  0  0  0
   -0.2755   -0.2509    0.2738 H   0  0  0  0  0  0  0  0  0  0  0  0
    1.6541   -0.2769    0.2063 H   0  0  0  0  0  0  0  0  0  0  0  0
    2.2874    2.7830   -1.1295 H   0  0  0  0  0  0  0  0  0  0  0  0
    2.3736    3.6639    0.3818 H   0  0  0  0  0  0  0  0  0  0  0  0
    3.6407    0.9100   -0.1230 H   0  0  0  0  0  0  0  0  0  0  0  0
    3.6901    1.7799    1.4131 H   0  0  0  0  0  0  0  0  0  0  0  0
    4.5042    2.4403   -0.0152 H   0  0  0  0  0  0  0  0  0  0  0  0
  1  2  1  0
  1  5  1  0
  1  6  1  0
  1 22  1  0
  2  3  1  0
  2  7  1  0
  2  8  1  0
  3  4  1  0
  3  9  1  0
  3 10  1  0
  4 11  1  0
  4 12  1  0
  4 13  1  0
 14 15  1  0
 14 19  1  0
 14 20  1  0
 14 21  1  0
 15 16  1  0
 15 23  1  0
 16 17  1  0
 17 18  1  0
 17 24  1  0
 17 25  1  0
 18 26  1  0
 18 27  1  0
 18 28  1  0
M  RAD  1  15   2
M  END
>  <reaction>  (6) 
rmg_rxn_64

>  <mol_properties>  (6) 
{"0": {"label": "*3", "atom_type": "Cs"}, "1": {"label": "*4", "atom_type": "Cs"}, "14": {"label": "*1", "atom_type": "Cs"}, "15": {"label": "*0", "atom_type": "S2s"}, "21": {"label": "*2", "atom_type": "H0"}}

>  <type>  (6) 
unop_2

>  <geom_source>  (6) 
Heuristics

$$$$

     RDKit          3D

 28 26  0  0  0  0  0  0  0  0999 V2000
   -1.6176   -1.1489   -0.2205 C   0  0  0  0  0  0  0  0  0  0  0  0
   -1.3808   -1.8231    1.1241 C   0  0  0  0  0  0  0  0  0  0  0  0
   -2.6251   -1.8543    2.0041 C   0  0  0  0  0  0  0  0  0  0  0  0
   -2.3883   -2.5285    3.3487 C   0  0  0  0  0  0  0  0  0  0  0  0
   -1.9404   -0.1135   -0.0877 H   0  0  0  0  0  0  0  0  0  0  0  0
   -2.3956   -1.6669   -0.7864 H   0  0  0  0  0  0  0  0  0  0  0  0
   -0.5773   -1.3056    1.6581 H   0  0  0  0  0  0  0  0  0  0  0  0
   -1.0291   -2.8475    0.9645 H   0  0  0  0  0  0  0  0  0  0  0  0
   -2.9768   -0.8298    2.1637 H   0  0  0  0  0  0  0  0  0  0  0  0
   -3.4287   -2.3718    1.4702 H   0  0  0  0  0  0  0  0  0  0  0  0
   -1.6104   -2.0105    3.9146 H   0  0  0  0  0  0  0  0  0  0  0  0
   -2.0656   -3.5638    3.2159 H   0  0  0  0  0  0  0  0  0  0  0  0
   -3.2940   -2.5369    3.9574 H   0  0  0  0  0  0  0  0  0  0  0  0
    0.5692   -0.0356   -2.6553 C   0  0  0  0  0  0  0  0  0  0  0  0
    0.5692   -0.0356   -1.1356 C   0  0  0  0  0  3  0  0  0  0  0  0
    0.5692    1.6054   -0.3707 S   0  0  0  0  0  0  0  0  0  0  0  0
    2.1098    2.3194   -0.9993 C   0  0  0  0  0  0  0  0  0  0  0  0
    3.3707    1.5605   -0.6200 C   0  0  0  0  0  0  0  0  0  0  0  0
    1.4923    0.3879   -3.0547 H   0  0  0  0  0  0  0  0  0  0  0  0
    0.4867   -1.0568   -3.0340 H   0  0  0  0  0  0  0  0  0  0  0  0
   -0.2665    0.5468   -3.0447 H   0  0  0  0  0  0  0  0  0  0  0  0
   -0.5242   -0.5923   -0.6780 H   0  0  0  0  0  0  0  0  0  0  0  0
    1.4054   -0.6183   -0.7455 H   0  0  0  0  0  0  0  0  0  0  0  0
    2.0387    2.4416   -2.0813 H   0  0  0  0  0  0  0  0  0  0  0  0
    2.1249    3.3225   -0.5700 H   0  0  0  0  0  0  0  0  0  0  0  0
    3.3919    0.5687   -1.0747 H   0  0  0  0  0  0  0  0  0  0  0  0
    3.4414    1.4385    0.4614 H   0  0  0  0  0  0  0  0  0  0  0  0
    4.2555    2.0989   -0.9670 H   0  0  0  0  0  0  0  0  0  0  0  0
  1  2  1  0
  1  5  1  0
  1  6  1  0
  1 22  1  0
  2  3  1  0
  2  7  1  0
  2  8  1  0
  3  4  1  0
  3  9  1  0
  3 10  1  0
  4 11  1  0
  4 12  1  0
  4 13  1  0
 14 15  1  0
 14 19  1  0
 14 20  1  0
 14 21  1  0
 15 16  1  0
 15 23  1  0
 16 17  1  0
 17 18  1  0
 17 24  1  0
 17 25  1  0
 18 26  1  0
 18 27  1  0
 18 28  1  0
M  RAD  1  15   2
M  END
>  <reaction>  (7) 
rmg_rxn_64

>  <mol_properties>  (7) 
{"0": {"label": "*3", "atom_type": "Cs"}, "1": {"label": "*4", "atom_type": "Cs"}, "14": {"label": "*1", "atom_type": "Cs"}, "15": {"label": "*0", "atom_type": "S2s"}, "21": {"label": "*2", "atom_type": "H0"}}

>  <type>  (7) 
unop_3

>  <geom_source>  (7) 
Heuristics

$$$$

     RDKit          3D

 28 26  0  0  0  0  0  0  0  0999 V2000
   -1.0540   -1.7038    0.4692 C   0  0  0  0  0  0  0  0  0  0  0  0
   -2.2975   -0.9603    0.0008 C   0  0  0  0  0  0  0  0  0  0  0  0
   -3.4404   -1.0139    1.0081 C   0  0  0  0  0  0  0  0  0  0  0  0
   -4.6839   -0.2704    0.5397 C   0  0  0  0  0  0  0  0  0  0  0  0
   -1.2729   -2.7593    0.6473 H   0  0  0  0  0  0  0  0  0  0  0  0
   -0.6753   -1.2832    1.4038 H   0  0  0  0  0  0  0  0  0  0  0  0
   -2.6391   -1.3792   -0.9512 H   0  0  0  0  0  0  0  0  0  0  0  0
   -2.0460    0.0860   -0.2003 H   0  0  0  0  0  0  0  0  0  0  0  0
   -3.6920   -2.0602    1.2092 H   0  0  0  0  0  0  0  0  0  0  0  0
   -3.0988   -0.5950    1.9601 H   0  0  0  0  0  0  0  0  0  0  0  0
   -5.0626   -0.6910   -0.3950 H   0  0  0  0  0  0  0  0  0  0  0  0
   -4.4650    0.7851    0.3615 H   0  0  0  0  0  0  0  0  0  0  0  0
   -5.4850   -0.3248    1.2786 H   0  0  0  0  0  0  0  0  0  0  0  0
    1.1329   -0.5906   -1.9656 C   0  0  0  0  0  0  0  0  0  0  0  0
    1.1329   -0.5906   -0.4459 C   0  0  0  0  0  3  0  0  0  0  0  0
    1.1329    1.0505    0.3190 S   0  0  0  0  0  0  0  0  0  0  0  0
    2.6735    1.7644   -0.3096 C   0  0  0  0  0  0  0  0  0  0  0  0
    3.9344    1.0056    0.0697 C   0  0  0  0  0  0  0  0  0  0  0  0
    2.0559   -0.1670   -2.3650 H   0  0  0  0  0  0  0  0  0  0  0  0
    1.0503   -1.6117   -2.3443 H   0  0  0  0  0  0  0  0  0  0  0  0
    0.2972   -0.0081   -2.3550 H   0  0  0  0  0  0  0  0  0  0  0  0
    0.0394   -1.1472    0.0117 H   0  0  0  0  0  0  0  0  0  0  0  0
    1.9691   -1.1732   -0.0558 H   0  0  0  0  0  0  0  0  0  0  0  0
    2.6023    1.8867   -1.3916 H   0  0  0  0  0  0  0  0  0  0  0  0
    2.6885    2.7676    0.1197 H   0  0  0  0  0  0  0  0  0  0  0  0
    3.9556    0.0137   -0.3850 H   0  0  0  0  0  0  0  0  0  0  0  0
    4.0050    0.8836    1.1511 H   0  0  0  0  0  0  0  0  0  0  0  0
    4.8191    1.5440   -0.2773 H   0  0  0  0  0  0  0  0  0  0  0  0
  1  2  1  0
  1  5  1  0
  1  6  1  0
  1 22  1  0
  2  3  1  0
  2  7  1  0
  2  8  1  0
  3  4  1  0
  3  9  1  0
  3 10  1  0
  4 11  1  0
  4 12  1  0
  4 13  1  0
 14 15  1  0
 14 19  1  0
 14 20  1  0
 14 21  1  0
 15 16  1  0
 15 23  1  0
 16 17  1  0
 17 18  1  0
 17 24  1  0
 17 25  1  0
 18 26  1  0
 18 27  1  0
 18 28  1  0
M  RAD  1  15   2
M  END
>  <reaction>  (8) 
rmg_rxn_64

>  <mol_properties>  (8) 
{"0": {"label": "*3", "atom_type": "Cs"}, "1": {"label": "*4", "atom_type": "Cs"}, "14": {"label": "*1", "atom_type": "Cs"}, "15": {"label": "*0", "atom_type": "S2s"}, "21": {"label": "*2", "atom_type": "H0"}}

>  <type>  (8) 
unop_4

>  <geom_source>  (8) 
Heuristics

$$$$

     RDKit          3D

 28 26  0  0  0  0  0  0  0  0999 V2000
   -1.5111   -1.2864   -0.2281 C   0  0  0  0  0  0  0  0  0  0  0  0
   -1.5365   -1.2993    1.2943 C   0  0  0  0  0  0  0  0  0  0  0  0
   -2.7960   -1.9405    1.8653 C   0  0  0  0  0  0  0  0  0  0  0  0
   -2.8214   -1.9535    3.3877 C   0  0  0  0  0  0  0  0  0  0  0  0
   -2.3619   -0.7303   -0.6290 H   0  0  0  0  0  0  0  0  0  0  0  0
   -1.5620   -2.3015   -0.6290 H   0  0  0  0  0  0  0  0  0  0  0  0
   -1.4532   -0.2750    1.6718 H   0  0  0  0  0  0  0  0  0  0  0  0
   -0.6593   -1.8347    1.6718 H   0  0  0  0  0  0  0  0  0  0  0  0
   -3.6732   -1.4052    1.4878 H   0  0  0  0  0  0  0  0  0  0  0  0
   -2.8793   -2.9648    1.4878 H   0  0  0  0  0  0  0  0  0  0  0  0
   -2.7705   -0.9383    3.7886 H   0  0  0  0  0  0  0  0  0  0  0  0
   -1.9707   -2.5095    3.7886 H   0  0  0  0  0  0  0  0  0  0  0  0
   -3.7326   -2.4173    3.7690 H   0  0  0  0  0  0  0  0  0  0  0  0
    0.6758   -0.1732   -2.6629 C   0  0  0  0  0  0  0  0  0  0  0  0
    0.6758   -0.1732   -1.1432 C   0  0  0  0  0  3  0  0  0  0  0  0
    0.6758    1.4679   -0.3783 S   0  0  0  0  0  0  0  0  0  0  0  0
    2.2164    2.1819   -1.0069 C   0  0  0  0  0  0  0  0  0  0  0  0
    3.4773    1.4230   -0.6277 C   0  0  0  0  0  0  0  0  0  0  0  0
    1.5988    0.2504   -3.0624 H   0  0  0  0  0  0  0  0  0  0  0  0
    0.5932   -1.1943   -3.0416 H   0  0  0  0  0  0  0  0  0  0  0  0
   -0.1599    0.4093   -3.0523 H   0  0  0  0  0  0  0  0  0  0  0  0
   -0.4177   -0.7298   -0.6857 H   0  0  0  0  0  0  0  0  0  0  0  0
    1.5120   -0.7558   -0.7532 H   0  0  0  0  0  0  0  0  0  0  0  0
    2.1452    2.3041   -2.0890 H   0  0  0  0  0  0  0  0  0  0  0  0
    2.2314    3.1850   -0.5776 H   0  0  0  0  0  0  0  0  0  0  0  0
    3.4985    0.4312   -1.0824 H   0  0  0  0  0  0  0  0  0  0  0  0
    3.5480    1.3010    0.4537 H   0  0  0  0  0  0  0  0  0  0  0  0
    4.3620    1.9614   -0.9746 H   0  0  0  0  0  0  0  0  0  0  0  0
  1  2  1  0
  1  5  1  0
  1  6  1  0
  1 22  1  0
  2  3  1  0
  2  7  1  0
  2  8  1  0
  3  4  1  0
  3  9  1  0
  3 10  1  0
  4 11  1  0
  4 12  1  0
  4 13  1  0
 14 15  1  0
 14 19  1  0
 14 20  1  0
 14 21  1  0
 15 16  1  0
 15 23  1  0
 16 17  1  0
 17 18  1  0
 17 24  1  0
 17 25  1  0
 18 26  1  0
 18 27  1  0
 18 28  1  0
M  RAD  1  15   2
M  END
>  <reaction>  (9) 
rmg_rxn_64

>  <mol_properties>  (9) 
{"0": {"label": "*3", "atom_type": "Cs"}, "1": {"label": "*4", "atom_type": "Cs"}, "14": {"label": "*1", "atom_type": "Cs"}, "15": {"label": "*0", "atom_type": "S2s"}, "21": {"label": "*2", "atom_type": "H0"}}

>  <type>  (9) 
unop_5

>  <geom_source>  (9) 
Heuristics

$$$$

     RDKit          3D

 28 26  0  0  0  0  0  0  0  0999 V2000
   -1.1724   -1.7771    0.1557 C   0  0  0  0  0  0  0  0  0  0  0  0
   -2.2816   -0.7523    0.3509 C   0  0  0  0  0  0  0  0  0  0  0  0
   -3.1011   -0.9922    1.6135 C   0  0  0  0  0  0  0  0  0  0  0  0
   -4.2103    0.0327    1.8087 C   0  0  0  0  0  0  0  0  0  0  0  0
   -1.5816   -2.7876    0.0831 H   0  0  0  0  0  0  0  0  0  0  0  0
   -0.4746   -1.7635    0.9963 H   0  0  0  0  0  0  0  0  0  0  0  0
   -2.9489   -0.7634   -0.5169 H   0  0  0  0  0  0  0  0  0  0  0  0
   -1.8500    0.2532    0.3895 H   0  0  0  0  0  0  0  0  0  0  0  0
   -3.5327   -1.9976    1.5749 H   0  0  0  0  0  0  0  0  0  0  0  0
   -2.4338   -0.9810    2.4813 H   0  0  0  0  0  0  0  0  0  0  0  0
   -4.9081    0.0191    0.9681 H   0  0  0  0  0  0  0  0  0  0  0  0
   -3.8011    1.0432    1.8813 H   0  0  0  0  0  0  0  0  0  0  0  0
   -4.7802   -0.1625    2.7186 H   0  0  0  0  0  0  0  0  0  0  0  0
    1.0144   -0.6639   -2.2791 C   0  0  0  0  0  0  0  0  0  0  0  0
    1.0144   -0.6639   -0.7594 C   0  0  0  0  0  3  0  0  0  0  0  0
    1.0144    0.9772    0.0055 S   0  0  0  0  0  0  0  0  0  0  0  0
    2.5550    1.6911   -0.6231 C   0  0  0  0  0  0  0  0  0  0  0  0
    3.8159    0.9323   -0.2439 C   0  0  0  0  0  0  0  0  0  0  0  0
    1.9374   -0.2403   -2.6786 H   0  0  0  0  0  0  0  0  0  0  0  0
    0.9319   -1.6851   -2.6578 H   0  0  0  0  0  0  0  0  0  0  0  0
    0.1787   -0.0814   -2.6685 H   0  0  0  0  0  0  0  0  0  0  0  0
   -0.0790   -1.2205   -0.3019 H   0  0  0  0  0  0  0  0  0  0  0  0
    1.8506   -1.2465   -0.3694 H   0  0  0  0  0  0  0  0  0  0  0  0
    2.4838    1.8133   -1.7052 H   0  0  0  0  0  0  0  0  0  0  0  0
    2.5701    2.6943   -0.1938 H   0  0  0  0  0  0  0  0  0  0  0  0
    3.8371   -0.0596   -0.6986 H   0  0  0  0  0  0  0  0  0  0  0  0
    3.8866    0.8102    0.8375 H   0  0  0  0  0  0  0  0  0  0  0  0
    4.7007    1.4707   -0.5908 H   0  0  0  0  0  0  0  0  0  0  0  0
  1  2  1  0
  1  5  1  0
  1  6  1  0
  1 22  1  0
  2  3  1  0
  2  7  1  0
  2  8  1  0
  3  4  1  0
  3  9  1  0
  3 10  1  0
  4 11  1  0
  4 12  1  0
  4 13  1  0
 14 15  1  0
 14 19  1  0
 14 20  1  0
 14 21  1  0
 15 16  1  0
 15 23  1  0
 16 17  1  0
 17 18  1  0
 17 24  1  0
 17 25  1  0
 18 26  1  0
 18 27  1  0
 18 28  1  0
M  RAD  1  15   2
M  END
>  <reaction>  (10) 
rmg_rxn_64

>  <mol_properties>  (10) 
{"0": {"label": "*3", "atom_type": "Cs"}, "1": {"label": "*4", "atom_type": "Cs"}, "14": {"label": "*1", "atom_type": "Cs"}, "15": {"label": "*0", "atom_type": "S2s"}, "21": {"label": "*2", "atom_type": "H0"}}

>  <type>  (10) 
unop_6

>  <geom_source>  (10) 
Heuristics

$$$$

     RDKit          3D

 28 26  0  0  0  0  0  0  0  0999 V2000
   -1.3359   -1.6699   -0.1000 C   0  0  0  0  0  0  0  0  0  0  0  0
   -2.1384   -0.7019    0.7588 C   0  0  0  0  0  0  0  0  0  0  0  0
   -2.7481   -1.3607    1.9908 C   0  0  0  0  0  0  0  0  0  0  0  0
   -3.5506   -0.3927    2.8496 C   0  0  0  0  0  0  0  0  0  0  0  0
   -1.9635   -2.4909   -0.4550 H   0  0  0  0  0  0  0  0  0  0  0  0
   -0.5117   -2.1069    0.4688 H   0  0  0  0  0  0  0  0  0  0  0  0
   -2.9378   -0.2547    0.1591 H   0  0  0  0  0  0  0  0  0  0  0  0
   -1.4967    0.1264    1.0760 H   0  0  0  0  0  0  0  0  0  0  0  0
   -3.3898   -2.1890    1.6736 H   0  0  0  0  0  0  0  0  0  0  0  0
   -1.9487   -1.8079    2.5905 H   0  0  0  0  0  0  0  0  0  0  0  0
   -4.3748    0.0443    2.2809 H   0  0  0  0  0  0  0  0  0  0  0  0
   -2.9230    0.4283    3.2046 H   0  0  0  0  0  0  0  0  0  0  0  0
   -3.9750   -0.8899    3.7233 H   0  0  0  0  0  0  0  0  0  0  0  0
    0.8509   -0.5567   -2.5348 C   0  0  0  0  0  0  0  0  0  0  0  0
    0.8509   -0.5567   -1.0151 C   0  0  0  0  0  3  0  0  0  0  0  0
    0.8509    1.0844   -0.2502 S   0  0  0  0  0  0  0  0  0  0  0  0
    2.3915    1.7983   -0.8788 C   0  0  0  0  0  0  0  0  0  0  0  0
    3.6524    1.0395   -0.4996 C   0  0  0  0  0  0  0  0  0  0  0  0
    1.7740   -0.1331   -2.9342 H   0  0  0  0  0  0  0  0  0  0  0  0
    0.7684   -1.5779   -2.9135 H   0  0  0  0  0  0  0  0  0  0  0  0
    0.0152    0.0258   -2.9242 H   0  0  0  0  0  0  0  0  0  0  0  0
   -0.2425   -1.1133   -0.5575 H   0  0  0  0  0  0  0  0  0  0  0  0
    1.6871   -1.1393   -0.6250 H   0  0  0  0  0  0  0  0  0  0  0  0
    2.3204    1.9205   -1.9608 H   0  0  0  0  0  0  0  0  0  0  0  0
    2.4066    2.8015   -0.4495 H   0  0  0  0  0  0  0  0  0  0  0  0
    3.6737    0.0476   -0.9543 H   0  0  0  0  0  0  0  0  0  0  0  0
    3.7231    0.9174    0.5818 H   0  0  0  0  0  0  0  0  0  0  0  0
    4.5372    1.5779   -0.8465 H   0  0  0  0  0  0  0  0  0  0  0  0
  1  2  1  0
  1  5  1  0
  1  6  1  0
  1 22  1  0
  2  3  1  0
  2  7  1  0
  2  8  1  0
  3  4  1  0
  3  9  1  0
  3 10  1  0
  4 11  1  0
  4 12  1  0
  4 13  1  0
 14 15  1  0
 14 19  1  0
 14 20  1  0
 14 21  1  0
 15 16  1  0
 15 23  1  0
 16 17  1  0
 17 18  1  0
 17 24  1  0
 17 25  1  0
 18 26  1  0
 18 27  1  0
 18 28  1  0
M  RAD  1  15   2
M  END
>  <reaction>  (11) 
rmg_rxn_64

>  <mol_properties>  (11) 
{"0": {"label": "*3", "atom_type": "Cs"}, "1": {"label": "*4", "atom_type": "Cs"}, "14": {"label": "*1", "atom_type": "Cs"}, "15": {"label": "*0", "atom_type": "S2s"}, "21": {"label": "*2", "atom_type": "H0"}}

>  <type>  (11) 
unop_7

>  <geom_source>  (11) 
Heuristics

$$$$

     RDKit          3D

 28 26  0  0  0  0  0  0  0  0999 V2000
   -1.7086   -0.7238    0.1557 C   0  0  0  0  0  0  0  0  0  0  0  0
   -1.5325   -2.2237    0.3509 C   0  0  0  0  0  0  0  0  0  0  0  0
   -2.2087   -2.7452    1.6135 C   0  0  0  0  0  0  0  0  0  0  0  0
   -2.0326   -4.2450    1.8087 C   0  0  0  0  0  0  0  0  0  0  0  0
   -1.2870   -0.1676    0.9963 H   0  0  0  0  0  0  0  0  0  0  0  0
   -2.7664   -0.4602    0.0831 H   0  0  0  0  0  0  0  0  0  0  0  0
   -0.4656   -2.4663    0.3895 H   0  0  0  0  0  0  0  0  0  0  0  0
   -1.9342   -2.7567   -0.5169 H   0  0  0  0  0  0  0  0  0  0  0  0
   -1.8070   -2.2122    2.4813 H   0  0  0  0  0  0  0  0  0  0  0  0
   -3.2756   -2.5026    1.5749 H   0  0  0  0  0  0  0  0  0  0  0  0
   -0.9748   -4.5087    1.8813 H   0  0  0  0  0  0  0  0  0  0  0  0
   -2.4543   -4.8013    0.9681 H   0  0  0  0  0  0  0  0  0  0  0  0
   -2.5258   -4.5910    2.7186 H   0  0  0  0  0  0  0  0  0  0  0  0
    0.4782    0.3894   -2.2791 C   0  0  0  0  0  0  0  0  0  0  0  0
    0.4782    0.3894   -0.7594 C   0  0  0  0  0  3  0  0  0  0  0  0
    0.4782    2.0305    0.0055 S   0  0  0  0  0  0  0  0  0  0  0  0
    2.0188    2.7444   -0.6231 C   0  0  0  0  0  0  0  0  0  0  0  0
    3.2797    1.9856   -0.2439 C   0  0  0  0  0  0  0  0  0  0  0  0
    1.4013    0.8130   -2.6786 H   0  0  0  0  0  0  0  0  0  0  0  0
    0.3957   -0.6318   -2.6578 H   0  0  0  0  0  0  0  0  0  0  0  0
   -0.3575    0.9719   -2.6685 H   0  0  0  0  0  0  0  0  0  0  0  0
   -0.6152   -0.1672   -0.3019 H   0  0  0  0  0  0  0  0  0  0  0  0
    1.3144   -0.1933   -0.3694 H   0  0  0  0  0  0  0  0  0  0  0  0
    1.9477    2.8666   -1.7052 H   0  0  0  0  0  0  0  0  0  0  0  0
    2.0339    3.7476   -0.1938 H   0  0  0  0  0  0  0  0  0  0  0  0
    3.3009    0.9937   -0.6986 H   0  0  0  0  0  0  0  0  0  0  0  0
    3.3504    1.8635    0.8375 H   0  0  0  0  0  0  0  0  0  0  0  0
    4.1645    2.5240   -0.5908 H   0  0  0  0  0  0  0  0  0  0  0  0
  1  2  1  0
  1  5  1  0
  1  6  1  0
  1 22  1  0
  2  3  1  0
  2  7  1  0
  2  8  1  0
  3  4  1  0
  3  9  1  0
  3 10  1  0
  4 11  1  0
  4 12  1  0
  4 13  1  0
 14 15  1  0
 14 19  1  0
 14 20  1  0
 14 21  1  0
 15 16  1  0
 15 23  1  0
 16 17  1  0
 17 18  1  0
 17 24  1  0
 17 25  1  0
 18 26  1  0
 18 27  1  0
 18 28  1  0
M  RAD  1  15   2
M  END
>  <reaction>  (12) 
rmg_rxn_64

>  <mol_properties>  (12) 
{"0": {"label": "*3", "atom_type": "Cs"}, "1": {"label": "*4", "atom_type": "Cs"}, "14": {"label": "*1", "atom_type": "Cs"}, "15": {"label": "*0", "atom_type": "S2s"}, "21": {"label": "*2", "atom_type": "H0"}}

>  <type>  (12) 
unop_8

>  <geom_source>  (12) 
Heuristics

$$$$

     RDKit          3D

 28 26  0  0  0  0  0  0  0  0999 V2000
   -1.0402   -1.4532    0.7313 C   0  0  0  0  0  0  0  0  0  0  0  0
   -2.2100   -1.2540   -0.2229 C   0  0  0  0  0  0  0  0  0  0  0  0
   -3.5648   -1.4845    0.4366 C   0  0  0  0  0  0  0  0  0  0  0  0
   -4.7346   -1.2853   -0.5176 C   0  0  0  0  0  0  0  0  0  0  0  0
   -1.0309   -2.4696    1.1322 H   0  0  0  0  0  0  0  0  0  0  0  0
   -1.1040   -0.7653    1.5777 H   0  0  0  0  0  0  0  0  0  0  0  0
   -2.1072   -1.9316   -1.0766 H   0  0  0  0  0  0  0  0  0  0  0  0
   -2.1797   -0.2399   -0.6344 H   0  0  0  0  0  0  0  0  0  0  0  0
   -3.5950   -2.4986    0.8481 H   0  0  0  0  0  0  0  0  0  0  0  0
   -3.6676   -0.8069    1.2903 H   0  0  0  0  0  0  0  0  0  0  0  0
   -4.6707   -1.9732   -1.3641 H   0  0  0  0  0  0  0  0  0  0  0  0
   -4.7439   -0.2689   -0.9186 H   0  0  0  0  0  0  0  0  0  0  0  0
   -5.6906   -1.4563   -0.0202 H   0  0  0  0  0  0  0  0  0  0  0  0
    1.1466   -0.3400   -1.7035 C   0  0  0  0  0  0  0  0  0  0  0  0
    1.1466   -0.3400   -0.1838 C   0  0  0  0  0  3  0  0  0  0  0  0
    1.1466    1.3011    0.5811 S   0  0  0  0  0  0  0  0  0  0  0  0
    2.6872    2.0150   -0.0475 C   0  0  0  0  0  0  0  0  0  0  0  0
    3.9482    1.2562    0.3317 C   0  0  0  0  0  0  0  0  0  0  0  0
    2.0697    0.0836   -2.1029 H   0  0  0  0  0  0  0  0  0  0  0  0
    1.0641   -1.3612   -2.0822 H   0  0  0  0  0  0  0  0  0  0  0  0
    0.3109    0.2425   -2.0929 H   0  0  0  0  0  0  0  0  0  0  0  0
    0.0532   -0.8966    0.2738 H   0  0  0  0  0  0  0  0  0  0  0  0
    1.9828   -0.9226    0.2063 H   0  0  0  0  0  0  0  0  0  0  0  0
    2.6161    2.1372   -1.1295 H   0  0  0  0  0  0  0  0  0  0  0  0
    2.7023    3.0182    0.3818 H   0  0  0  0  0  0  0  0  0  0  0  0
    3.9694    0.2643   -0.1230 H   0  0  0  0  0  0  0  0  0  0  0  0
    4.0188    1.1341    1.4131 H   0  0  0  0  0  0  0  0  0  0  0  0
    4.8329    1.7946   -0.0152 H   0  0  0  0  0  0  0  0  0  0  0  0
  1  2  1  0
  1  5  1  0
  1  6  1  0
  1 22  1  0
  2  3  1  0
  2  7  1  0
  2  8  1  0
  3  4  1  0
  3  9  1  0
  3 10  1  0
  4 11  1  0
  4 12  1  0
  4 13  1  0
 14 15  1  0
 14 19  1  0
 14 20  1  0
 14 21  1  0
 15 16  1  0
 15 23  1  0
 16 17  1  0
 17 18  1  0
 17 24  1  0
 17 25  1  0
 18 26  1  0
 18 27  1  0
 18 28  1  0
M  RAD  1  15   2
M  END
>  <reaction>  (13) 
rmg_rxn_64

>  <mol_properties>  (13) 
{"0": {"label": "*3", "atom_type": "Cs"}, "1": {"label": "*4", "atom_type": "Cs"}, "14": {"label": "*1", "atom_type": "Cs"}, "15": {"label": "*0", "atom_type": "S2s"}, "21": {"label": "*2", "atom_type": "H0"}}

>  <type>  (13) 
unop_9

>  <geom_source>  (13) 
Heuristics

$$$$

     RDKit          3D

 28 26  0  0  0  0  0  0  0  0999 V2000
   -1.5796   -0.6712    0.4692 C   0  0  0  0  0  0  0  0  0  0  0  0
   -1.7101   -2.1142    0.0008 C   0  0  0  0  0  0  0  0  0  0  0  0
   -2.4259   -3.0068    1.0081 C   0  0  0  0  0  0  0  0  0  0  0  0
   -2.5564   -4.4497    0.5397 C   0  0  0  0  0  0  0  0  0  0  0  0
   -1.0168   -0.6125    1.4038 H   0  0  0  0  0  0  0  0  0  0  0  0
   -2.5619   -0.2272    0.6473 H   0  0  0  0  0  0  0  0  0  0  0  0
   -0.7161   -2.5264   -0.2003 H   0  0  0  0  0  0  0  0  0  0  0  0
   -2.2499   -2.1439   -0.9512 H   0  0  0  0  0  0  0  0  0  0  0  0
   -1.8862   -2.9770    1.9601 H   0  0  0  0  0  0  0  0  0  0  0  0
   -3.4200   -2.5945    1.2092 H   0  0  0  0  0  0  0  0  0  0  0  0
   -1.5741   -4.8938    0.3615 H   0  0  0  0  0  0  0  0  0  0  0  0
   -3.1193   -4.5084   -0.3950 H   0  0  0  0  0  0  0  0  0  0  0  0
   -3.0717   -5.0655    1.2786 H   0  0  0  0  0  0  0  0  0  0  0  0
    0.6072    0.4420   -1.9656 C   0  0  0  0  0  0  0  0  0  0  0  0
    0.6072    0.4420   -0.4459 C   0  0  0  0  0  3  0  0  0  0  0  0
    0.6072    2.0831    0.3190 S   0  0  0  0  0  0  0  0  0  0  0  0
    2.1478    2.7970   -0.3096 C   0  0  0  0  0  0  0  0  0  0  0  0
    3.4087    2.0382    0.0697 C   0  0  0  0  0  0  0  0  0  0  0  0
    1.5303    0.8656   -2.3650 H   0  0  0  0  0  0  0  0  0  0  0  0
    0.5247   -0.5791   -2.3443 H   0  0  0  0  0  0  0  0  0  0  0  0
   -0.2285    1.0245   -2.3550 H   0  0  0  0  0  0  0  0  0  0  0  0
   -0.4862   -0.1146    0.0117 H   0  0  0  0  0  0  0  0  0  0  0  0
    1.4434   -0.1406   -0.0558 H   0  0  0  0  0  0  0  0  0  0  0  0
    2.0767    2.9193   -1.3916 H   0  0  0  0  0  0  0  0  0  0  0  0
    2.1629    3.8002    0.1197 H   0  0  0  0  0  0  0  0  0  0  0  0
    3.4299    1.0463   -0.3850 H   0  0  0  0  0  0  0  0  0  0  0  0
    3.4794    1.9162    1.1511 H   0  0  0  0  0  0  0  0  0  0  0  0
    4.2935    2.5766   -0.2773 H   0  0  0  0  0  0  0  0  0  0  0  0
  1  2  1  0
  1  5  1  0
  1  6  1  0
  1 22  1  0
  2  3  1  0
  2  7  1  0
  2  8  1  0
  3  4  1  0
  3  9  1  0
  3 10  1  0
  4 11  1  0
  4 12  1  0
  4 13  1  0
 14 15  1  0
 14 19  1  0
 14 20  1  0
 14 21  1  0
 15 16  1  0
 15 23  1  0
 16 17  1  0
 17 18  1  0
 17 24  1  0
 17 25  1  0
 18 26  1  0
 18 27  1  0
 18 28  1  0
M  RAD  1  15   2
M  END
>  <reaction>  (14) 
rmg_rxn_64

>  <mol_properties>  (14) 
{"0": {"label": "*3", "atom_type": "Cs"}, "1": {"label": "*4", "atom_type": "Cs"}, "14": {"label": "*1", "atom_type": "Cs"}, "15": {"label": "*0", "atom_type": "S2s"}, "21": {"label": "*2", "atom_type": "H0"}}

>  <type>  (14) 
unop_10

>  <geom_source>  (14) 
Heuristics

$$$$

     RDKit          3D

 28 26  0  0  0  0  0  0  0  0999 V2000
   -1.4626   -1.4535   -0.2205 C   0  0  0  0  0  0  0  0  0  0  0  0
   -1.8684   -0.8653    1.1241 C   0  0  0  0  0  0  0  0  0  0  0  0
   -2.6257   -1.8531    2.0041 C   0  0  0  0  0  0  0  0  0  0  0  0
   -3.0316   -1.2649    3.3487 C   0  0  0  0  0  0  0  0  0  0  0  0
   -2.3391   -1.7777   -0.7864 H   0  0  0  0  0  0  0  0  0  0  0  0
   -0.8153   -2.3236   -0.0877 H   0  0  0  0  0  0  0  0  0  0  0  0
   -2.4898    0.0218    0.9645 H   0  0  0  0  0  0  0  0  0  0  0  0
   -0.9772   -0.5201    1.6581 H   0  0  0  0  0  0  0  0  0  0  0  0
   -3.5170   -2.1983    1.4702 H   0  0  0  0  0  0  0  0  0  0  0  0
   -2.0043   -2.7402    2.1637 H   0  0  0  0  0  0  0  0  0  0  0  0
   -3.6788   -0.3948    3.2159 H   0  0  0  0  0  0  0  0  0  0  0  0
   -2.1550   -0.9407    3.9146 H   0  0  0  0  0  0  0  0  0  0  0  0
   -3.5712   -1.9923    3.9574 H   0  0  0  0  0  0  0  0  0  0  0  0
    0.7243   -0.3402   -2.6553 C   0  0  0  0  0  0  0  0  0  0  0  0
    0.7243   -0.3402   -1.1356 C   0  0  0  0  0  3  0  0  0  0  0  0
    0.7243    1.3008   -0.3707 S   0  0  0  0  0  0  0  0  0  0  0  0
    2.2649    2.0148   -0.9993 C   0  0  0  0  0  0  0  0  0  0  0  0
    3.5258    1.2559   -0.6200 C   0  0  0  0  0  0  0  0  0  0  0  0
    1.6473    0.0833   -3.0547 H   0  0  0  0  0  0  0  0  0  0  0  0
    0.6417   -1.3614   -3.0340 H   0  0  0  0  0  0  0  0  0  0  0  0
   -0.1114    0.2422   -3.0447 H   0  0  0  0  0  0  0  0  0  0  0  0
   -0.3692   -0.8969   -0.6780 H   0  0  0  0  0  0  0  0  0  0  0  0
    1.5605   -0.9229   -0.7455 H   0  0  0  0  0  0  0  0  0  0  0  0
    2.1937    2.1370   -2.0813 H   0  0  0  0  0  0  0  0  0  0  0  0
    2.2799    3.0179   -0.5700 H   0  0  0  0  0  0  0  0  0  0  0  0
    3.5470    0.2641   -1.0747 H   0  0  0  0  0  0  0  0  0  0  0  0
    3.5965    1.1339    0.4614 H   0  0  0  0  0  0  0  0  0  0  0  0
    4.4105    1.7943   -0.9670 H   0  0  0  0  0  0  0  0  0  0  0  0
  1  2  1  0
  1  5  1  0
  1  6  1  0
  1 22  1  0
  2  3  1  0
  2  7  1  0
  2  8  1  0
  3  4  1  0
  3  9  1  0
  3 10  1  0
  4 11  1  0
  4 12  1  0
  4 13  1  0
 14 15  1  0
 14 19  1  0
 14 20  1  0
 14 21  1  0
 15 16  1  0
 15 23  1  0
 16 17  1  0
 17 18  1  0
 17 24  1  0
 17 25  1  0
 18 26  1  0
 18 27  1  0
 18 28  1  0
M  RAD  1  15   2
M  END
>  <reaction>  (15) 
rmg_rxn_64

>  <mol_properties>  (15) 
{"0": {"label": "*3", "atom_type": "Cs"}, "1": {"label": "*4", "atom_type": "Cs"}, "14": {"label": "*1", "atom_type": "Cs"}, "15": {"label": "*0", "atom_type": "S2s"}, "21": {"label": "*2", "atom_type": "H0"}}

>  <type>  (15) 
unop_11

>  <geom_source>  (15) 
Heuristics

$$$$

     RDKit          3D

 28 26  0  0  0  0  0  0  0  0999 V2000
   -1.1578   -1.1065    0.8350 C   0  0  0  0  0  0  0  0  0  0  0  0
   -2.0653   -1.5686   -0.2970 C   0  0  0  0  0  0  0  0  0  0  0  0
   -3.3505   -2.2228    0.1968 C   0  0  0  0  0  0  0  0  0  0  0  0
   -4.2581   -2.6848   -0.9352 C   0  0  0  0  0  0  0  0  0  0  0  0
   -0.8647   -1.9465    1.4693 H   0  0  0  0  0  0  0  0  0  0  0  0
   -1.6645   -0.3753    1.4693 H   0  0  0  0  0  0  0  0  0  0  0  0
   -1.5256   -2.2757   -0.9352 H   0  0  0  0  0  0  0  0  0  0  0  0
   -2.3196   -0.7161   -0.9352 H   0  0  0  0  0  0  0  0  0  0  0  0
   -3.0963   -3.0752    0.8350 H   0  0  0  0  0  0  0  0  0  0  0  0
   -3.8902   -1.5156    0.8350 H   0  0  0  0  0  0  0  0  0  0  0  0
   -3.7513   -3.4160   -1.5695 H   0  0  0  0  0  0  0  0  0  0  0  0
   -4.5511   -1.8448   -1.5695 H   0  0  0  0  0  0  0  0  0  0  0  0
   -5.1692   -3.1486   -0.5539 H   0  0  0  0  0  0  0  0  0  0  0  0
    1.0291    0.0067   -1.5998 C   0  0  0  0  0  0  0  0  0  0  0  0
    1.0291    0.0067   -0.0801 C   0  0  0  0  0  3  0  0  0  0  0  0
    1.0291    1.6478    0.6848 S   0  0  0  0  0  0  0  0  0  0  0  0
    2.5697    2.3617    0.0562 C   0  0  0  0  0  0  0  0  0  0  0  0
    3.8306    1.6029    0.4354 C   0  0  0  0  0  0  0  0  0  0  0  0
    1.9521    0.4303   -1.9992 H   0  0  0  0  0  0  0  0  0  0  0  0
    0.9465   -1.0145   -1.9785 H   0  0  0  0  0  0  0  0  0  0  0  0
    0.1934    0.5892   -1.9892 H   0  0  0  0  0  0  0  0  0  0  0  0
   -0.0644   -0.5499    0.3775 H   0  0  0  0  0  0  0  0  0  0  0  0
    1.8653   -0.5759    0.3100 H   0  0  0  0  0  0  0  0  0  0  0  0
    2.4985    2.4839   -1.0258 H   0  0  0  0  0  0  0  0  0  0  0  0
    2.5847    3.3649    0.4855 H   0  0  0  0  0  0  0  0  0  0  0  0
    3.8518    0.6110   -0.0193 H   0  0  0  0  0  0  0  0  0  0  0  0
    3.9013    1.4808    1.5168 H   0  0  0  0  0  0  0  0  0  0  0  0
    4.7153    2.1413    0.0885 H   0  0  0  0  0  0  0  0  0  0  0  0
  1  2  1  0
  1  5  1  0
  1  6  1  0
  1 22  1  0
  2  3  1  0
  2  7  1  0
  2  8  1  0
  3  4  1  0
  3  9  1  0
  3 10  1  0
  4 11  1  0
  4 12  1  0
  4 13  1  0
 14 15  1  0
 14 19  1  0
 14 20  1  0
 14 21  1  0
 15 16  1  0
 15 23  1  0
 16 17  1  0
 17 18  1  0
 17 24  1  0
 17 25  1  0
 18 26  1  0
 18 27  1  0
 18 28  1  0
M  RAD  1  15   2
M  END
>  <reaction>  (16) 
rmg_rxn_64

>  <mol_properties>  (16) 
{"0": {"label": "*3", "atom_type": "Cs"}, "1": {"label": "*4", "atom_type": "Cs"}, "14": {"label": "*1", "atom_type": "Cs"}, "15": {"label": "*0", "atom_type": "S2s"}, "21": {"label": "*2", "atom_type": "H0"}}

>  <type>  (16) 
unop_12

>  <geom_source>  (16) 
Heuristics

$$$$

     RDKit          3D

 28 26  0  0  0  0  0  0  0  0999 V2000
    1.6117    0.4147    0.5820 S   0  0  0  0  0  0  0  0  0  0  0  0
   -2.6590    0.8162    0.7720 C   0  0  0  0  0  0  0  0  0  0  0  0
   -2.3205   -0.6198    1.1976 C   0  0  0  0  0  0  0  0  0  0  0  0
    3.0980    0.9180   -0.3517 C   0  0  0  0  0  0  0  0  0  0  0  0
   -3.6330    0.8683   -0.4047 C   0  0  0  0  0  0  0  0  0  0  0  0
   -1.4494   -1.3455    0.1740 C   0  0  0  0  0  0  0  0  0  0  0  0
    4.0383    1.6981    0.5543 C   0  0  0  0  0  0  0  0  0  0  0  0
    1.2622   -1.9049   -0.8940 C   0  0  0  0  0  0  0  0  0  0  0  0
    0.8063   -0.4565   -0.8074 C   0  0  0  0  0  3  0  0  0  0  0  0
   -1.7296    1.3677    0.5113 H   0  0  0  0  0  0  0  0  0  0  0  0
   -3.1274    1.3368    1.6352 H   0  0  0  0  0  0  0  0  0  0  0  0
   -1.7649   -0.5790    2.1593 H   0  0  0  0  0  0  0  0  0  0  0  0
   -3.2536   -1.1986    1.3714 H   0  0  0  0  0  0  0  0  0  0  0  0
    3.6267    0.0210   -0.7363 H   0  0  0  0  0  0  0  0  0  0  0  0
    2.8017    1.5609   -1.2078 H   0  0  0  0  0  0  0  0  0  0  0  0
   -3.9236    1.9228   -0.5963 H   0  0  0  0  0  0  0  0  0  0  0  0
   -4.5504    0.2853   -0.1760 H   0  0  0  0  0  0  0  0  0  0  0  0
   -3.1594    0.4678   -1.3248 H   0  0  0  0  0  0  0  0  0  0  0  0
   -2.0105   -1.5189   -0.7675 H   0  0  0  0  0  0  0  0  0  0  0  0
   -1.1442   -2.3321    0.5820 H   0  0  0  0  0  0  0  0  0  0  0  0
   -0.4062   -0.6706   -0.0729 H   0  0  0  0  0  0  0  0  0  0  0  0
    4.9396    2.0037   -0.0178 H   0  0  0  0  0  0  0  0  0  0  0  0
    3.5318    2.6092    0.9377 H   0  0  0  0  0  0  0  0  0  0  0  0
    4.3554    1.0662    1.4109 H   0  0  0  0  0  0  0  0  0  0  0  0
    2.3436   -1.9604   -1.1350 H   0  0  0  0  0  0  0  0  0  0  0  0
    1.0712   -2.4200    0.0707 H   0  0  0  0  0  0  0  0  0  0  0  0
    0.6905   -2.4214   -1.6926 H   0  0  0  0  0  0  0  0  0  0  0  0
    0.9550    0.0711   -1.7735 H   0  0  0  0  0  0  0  0  0  0  0  0
  1  9  1  0
  1  4  1  0
  2  5  1  0
  2  3  1  0
  2 10  1  0
  2 11  1  0
  3  6  1  0
  3 12  1  0
  3 13  1  0
  4  7  1  0
  4 14  1  0
  4 15  1  0
  5 16  1  0
  5 17  1  0
  5 18  1  0
  6 19  1  0
  6 20  1  0
  6 21  1  0
  7 22  1  0
  7 23  1  0
  7 24  1  0
  8  9  1  0
  8 25  1  0
  8 26  1  0
  8 27  1  0
  9 28  1  0
M  RAD  1   9   2
M  END
>  <reaction>  (17) 
rmg_rxn_64

>  <mol_properties>  (17) 
{"0": {"label": "*3", "atom_type": "Cs"}, "1": {"label": "*4", "atom_type": "Cs"}, "14": {"label": "*1", "atom_type": "Cs"}, "15": {"label": "*0", "atom_type": "S2s"}, "21": {"label": "*2", "atom_type": "H0"}}

>  <type>  (17) 
unop_13

>  <geom_source>  (17) 
AutoTST

$$$$

     RDKit          3D

 28 26  0  0  0  0  0  0  0  0999 V2000
   -1.3689   -0.8075    0.7313 C   0  0  0  0  0  0  0  0  0  0  0  0
   -1.8961   -1.8706   -0.2229 C   0  0  0  0  0  0  0  0  0  0  0  0
   -2.8796   -2.8304    0.4366 C   0  0  0  0  0  0  0  0  0  0  0  0
   -3.4068   -3.8935   -0.5176 C   0  0  0  0  0  0  0  0  0  0  0  0
   -0.8502   -1.2639    1.5777 H   0  0  0  0  0  0  0  0  0  0  0  0
   -2.1852   -0.2020    1.1322 H   0  0  0  0  0  0  0  0  0  0  0  0
   -1.0583   -2.4428   -0.6344 H   0  0  0  0  0  0  0  0  0  0  0  0
   -2.3835   -1.3887   -1.0766 H   0  0  0  0  0  0  0  0  0  0  0  0
   -2.3922   -3.3123    1.2903 H   0  0  0  0  0  0  0  0  0  0  0  0
   -3.7174   -2.2582    0.8481 H   0  0  0  0  0  0  0  0  0  0  0  0
   -2.5905   -4.4990   -0.9186 H   0  0  0  0  0  0  0  0  0  0  0  0
   -3.9255   -3.4372   -1.3641 H   0  0  0  0  0  0  0  0  0  0  0  0
   -4.1076   -4.5659   -0.0202 H   0  0  0  0  0  0  0  0  0  0  0  0
    0.8179    0.3057   -1.7035 C   0  0  0  0  0  0  0  0  0  0  0  0
    0.8179    0.3057   -0.1838 C   0  0  0  0  0  3  0  0  0  0  0  0
    0.8179    1.9468    0.5811 S   0  0  0  0  0  0  0  0  0  0  0  0
    2.3585    2.6608   -0.0475 C   0  0  0  0  0  0  0  0  0  0  0  0
    3.6194    1.9019    0.3317 C   0  0  0  0  0  0  0  0  0  0  0  0
    1.7410    0.7293   -2.1029 H   0  0  0  0  0  0  0  0  0  0  0  0
    0.7354   -0.7155   -2.0822 H   0  0  0  0  0  0  0  0  0  0  0  0
   -0.0178    0.8882   -2.0929 H   0  0  0  0  0  0  0  0  0  0  0  0
   -0.2755   -0.2509    0.2738 H   0  0  0  0  0  0  0  0  0  0  0  0
    1.6541   -0.2769    0.2063 H   0  0  0  0  0  0  0  0  0  0  0  0
    2.2874    2.7830   -1.1295 H   0  0  0  0  0  0  0  0  0  0  0  0
    2.3736    3.6639    0.3818 H   0  0  0  0  0  0  0  0  0  0  0  0
    3.6407    0.9101   -0.1230 H   0  0  0  0  0  0  0  0  0  0  0  0
    3.6901    1.7798    1.4131 H   0  0  0  0  0  0  0  0  0  0  0  0
    4.5042    2.4403   -0.0152 H   0  0  0  0  0  0  0  0  0  0  0  0
  1  2  1  0
  1  5  1  0
  1  6  1  0
  1 22  1  0
  2  3  1  0
  2  7  1  0
  2  8  1  0
  3  4  1  0
  3  9  1  0
  3 10  1  0
  4 11  1  0
  4 12  1  0
  4 13  1  0
 14 15  1  0
 14 19  1  0
 14 20  1  0
 14 21  1  0
 15 16  1  0
 15 23  1  0
 16 17  1  0
 17 18  1  0
 17 24  1  0
 17 25  1  0
 18 26  1  0
 18 27  1  0
 18 28  1  0
M  RAD  1  15   2
M  END
>  <reaction>  (18) 
rmg_rxn_64

>  <mol_properties>  (18) 
{"0": {"label": "*3", "atom_type": "Cs"}, "1": {"label": "*4", "atom_type": "Cs"}, "14": {"label": "*1", "atom_type": "Cs"}, "15": {"label": "*0", "atom_type": "S2s"}, "21": {"label": "*2", "atom_type": "H0"}}

>  <type>  (18) 
unop_14

>  <geom_source>  (18) 
gaussian_log

$$$$
