
     RDKit          3D

  8  7  0  0  0  0  0  0  0  0999 V2000
    0.9548    0.1194   -0.0790 C   0  0  0  0  0  0  0  0  0  0  0  0
   -0.4838   -0.2649    0.0193 C   0  0  0  0  0  0  0  0  0  0  0  0
   -0.8933   -1.1081    0.8664 N   0  0  0  0  0  0  0  0  0  0  0  0
    1.3360   -0.0983   -1.0800 H   0  0  0  0  0  0  0  0  0  0  0  0
    1.0698    1.1948    0.0786 H   0  0  0  0  0  0  0  0  0  0  0  0
    1.5426   -0.4219    0.6602 H   0  0  0  0  0  0  0  0  0  0  0  0
   -1.1575    0.2324   -0.6905 H   0  0  0  0  0  0  0  0  0  0  0  0
   -1.8989   -1.2455    0.7886 H   0  0  0  0  0  0  0  0  0  0  0  0
  1  2  1  0
  1  4  1  0
  1  5  1  0
  1  6  1  0
  2  3  2  3
  2  7  1  0
  3  8  1  0
M  END
>  <reaction>  (1) 
rmg_rxn_16515

>  <mol_properties>  (1) 
{"2": {"label": "donator", "atom_type": "N3d"}, "7": {"label": "d_hydrogen", "atom_type": "H0"}}

>  <type>  (1) 
r1h

$$$$

     RDKit          3D

  8  7  0  0  0  0  0  0  0  0999 V2000
    0.9383    0.2996   -0.2216 C   0  0  0  0  0  3  0  0  0  0  0  0
   -0.2599   -0.3612    0.3424 C   0  0  0  0  0  0  0  0  0  0  0  0
   -1.4623    0.3337    0.0690 O   0  0  0  0  0  0  0  0  0  0  0  0
    1.8278   -0.2698   -0.4548 H   0  0  0  0  0  0  0  0  0  0  0  0
    0.9841    1.3806   -0.2544 H   0  0  0  0  0  0  0  0  0  0  0  0
   -0.3172   -1.4027   -0.0032 H   0  0  0  0  0  0  0  0  0  0  0  0
   -0.1994   -0.4050    1.4381 H   0  0  0  0  0  0  0  0  0  0  0  0
   -1.5169    0.4672   -0.8790 H   0  0  0  0  0  0  0  0  0  0  0  0
  1  2  1  0
  1  4  1  0
  1  5  1  0
  2  3  1  0
  2  6  1  0
  2  7  1  0
  3  8  1  0
M  RAD  1   1   2
M  END
>  <reaction>  (2) 
rmg_rxn_16515

>  <mol_properties>  (2) 
{"0": {"label": "acceptor", "atom_type": "Cs"}}

>  <type>  (2) 
r2

$$$$

     RDKit          3D

  9  8  0  0  0  0  0  0  0  0999 V2000
   -0.9895    0.3048    0.1041 C   0  0  0  0  0  0  0  0  0  0  0  0
    0.3761   -0.3562    0.0721 C   0  0  0  0  0  0  0  0  0  0  0  0
    0.3441   -1.6564   -0.4834 O   0  0  0  0  0  0  0  0  0  0  0  0
   -1.6997   -0.3114    0.6572 H   0  0  0  0  0  0  0  0  0  0  0  0
   -0.9320    1.2848    0.5822 H   0  0  0  0  0  0  0  0  0  0  0  0
   -1.3774    0.4507   -0.9077 H   0  0  0  0  0  0  0  0  0  0  0  0
    0.7581   -0.4813    1.0862 H   0  0  0  0  0  0  0  0  0  0  0  0
    1.0900    0.2787   -0.4681 H   0  0  0  0  0  0  0  0  0  0  0  0
    0.0089   -1.5959   -1.3792 H   0  0  0  0  0  0  0  0  0  0  0  0
  1  2  1  0
  1  4  1  0
  1  5  1  0
  1  6  1  0
  2  3  1  0
  2  7  1  0
  2  8  1  0
  3  9  1  0
M  END
>  <reaction>  (3) 
rmg_rxn_16515

>  <mol_properties>  (3) 
{"0": {"label": "acceptor", "atom_type": "Cs"}, "8": {"label": "a_hydrogen", "atom_type": "H0"}}

>  <type>  (3) 
r2h

$$$$

     RDKit          3D

 16 14  0  0  0  0  0  0  0  0999 V2000
    0.5840    0.2973    1.5897 C   0  0  0  0  0  3  0  0  0  0  0  0
   -0.3343   -0.6790    2.2683 C   0  0  0  0  0  0  0  0  0  0  0  0
   -1.6911   -0.4341    1.9708 O   0  0  0  0  0  0  0  0  0  0  0  0
    1.6458    0.0651    1.6443 H   0  0  0  0  0  0  0  0  0  0  0  0
    0.3517    1.3453    1.7674 H   0  0  0  0  0  0  0  0  0  0  0  0
   -0.0504   -1.7048    1.9984 H   0  0  0  0  0  0  0  0  0  0  0  0
   -0.2426   -0.5977    3.3564 H   0  0  0  0  0  0  0  0  0  0  0  0
   -1.7967   -0.4953    1.0171 H   0  0  0  0  0  0  0  0  0  0  0  0
    0.3795    0.2726   -3.1501 C   0  0  0  0  0  0  0  0  0  0  0  0
    0.5971    0.3687   -1.6717 C   0  0  0  0  0  0  0  0  0  0  0  0
   -0.2043   -0.1270   -0.8403 N   0  0  0  0  0  0  0  0  0  0  0  0
    0.3250    1.2741   -3.5829 H   0  0  0  0  0  0  0  0  0  0  0  0
    1.2251   -0.2372   -3.6176 H   0  0  0  0  0  0  0  0  0  0  0  0
   -0.5385   -0.2691   -3.3700 H   0  0  0  0  0  0  0  0  0  0  0  0
    1.5024    0.9009   -1.3518 H   0  0  0  0  0  0  0  0  0  0  0  0
    0.2207    0.1040    0.2813 H   0  0  0  0  0  0  0  0  0  0  0  0
  1  2  1  0
  1  4  1  0
  1  5  1  0
  2  3  1  0
  2  6  1  0
  2  7  1  0
  3  8  1  0
  9 10  1  0
  9 12  1  0
  9 13  1  0
  9 14  1  0
 10 11  2  3
 10 15  1  0
 11 16  1  0
M  RAD  1   1   2
M  END
>  <reaction>  (4) 
rmg_rxn_16515

>  <mol_properties>  (4) 
{"0": {"label": "*3", "atom_type": "Cs"}, "1": {"label": "*4", "atom_type": "Cs"}, "9": {"label": "*0", "atom_type": "Cd"}, "10": {"label": "*1", "atom_type": "N3d"}, "15": {"label": "*2", "atom_type": "H0"}}

>  <type>  (4) 
ts

$$$$

     RDKit          3D

 16 14  0  0  0  0  0  0  0  0999 V2000
    1.2271    1.1325    0.2226 C   0  0  0  0  0  3  0  0  0  0  0  0
    2.2816    0.2499   -0.3935 C   0  0  0  0  0  0  0  0  0  0  0  0
    2.3282   -1.0265    0.1973 O   0  0  0  0  0  0  0  0  0  0  0  0
    1.0881    2.0714   -0.2992 H   0  0  0  0  0  0  0  0  0  0  0  0
    1.3534    1.2666    1.2910 H   0  0  0  0  0  0  0  0  0  0  0  0
    2.1085    0.1628   -1.4778 H   0  0  0  0  0  0  0  0  0  0  0  0
    3.2824    0.6764   -0.2459 H   0  0  0  0  0  0  0  0  0  0  0  0
    1.4337   -1.3905    0.1805 H   0  0  0  0  0  0  0  0  0  0  0  0
   -3.2970   -0.3382   -0.0703 C   0  0  0  0  0  0  0  0  0  0  0  0
   -1.9727    0.3524    0.0509 C   0  0  0  0  0  0  0  0  0  0  0  0
   -0.8951   -0.2549   -0.0237 N   0  0  0  0  0  0  0  0  0  0  0  0
   -3.8711   -0.1746    0.8403 H   0  0  0  0  0  0  0  0  0  0  0  0
   -3.8505    0.0895   -0.9046 H   0  0  0  0  0  0  0  0  0  0  0  0
   -3.1561   -1.4034   -0.2296 H   0  0  0  0  0  0  0  0  0  0  0  0
   -2.0538    1.4375    0.2112 H   0  0  0  0  0  0  0  0  0  0  0  0
    0.1328    0.4593    0.0995 H   0  0  0  0  0  0  0  0  0  0  0  0
  1  2  1  0
  1  4  1  0
  1  5  1  0
  2  3  1  0
  2  6  1  0
  2  7  1  0
  3  8  1  0
  9 10  1  0
  9 12  1  0
  9 13  1  0
  9 14  1  0
 10 11  2  3
 10 15  1  0
 11 16  1  0
M  RAD  1   1   2
M  END
>  <reaction>  (5) 
rmg_rxn_16515

>  <mol_properties>  (5) 
{"0": {"label": "*3", "atom_type": "Cs"}, "1": {"label": "*4", "atom_type": "Cs"}, "9": {"label": "*0", "atom_type": "Cd"}, "10": {"label": "*1", "atom_type": "N3d"}, "15": {"label": "*2", "atom_type": "H0"}}

>  <type>  (5) 
unop_1

>  <geom_source>  (5) 
crest_best.xyz

$$$$

     RDKit          3D

 16 14  0  0  0  0  0  0  0  0999 V2000
   -0.6144    0.0910    1.3864 C   0  0  0  0  0  3  0  0  0  0  0  0
    0.6128    0.6845    2.0531 C   0  0  0  0  0  0  0  0  0  0  0  0
    1.6027   -0.2831    2.3426 O   0  0  0  0  0  0  0  0  0  0  0  0
   -1.3733    0.8589    1.2228 H   0  0  0  0  0  0  0  0  0  0  0  0
   -1.0438   -0.6963    2.0074 H   0  0  0  0  0  0  0  0  0  0  0  0
    1.0272    1.4894    1.4325 H   0  0  0  0  0  0  0  0  0  0  0  0
    0.3439    1.1239    3.0147 H   0  0  0  0  0  0  0  0  0  0  0  0
    1.8684   -0.7008    1.5220 H   0  0  0  0  0  0  0  0  0  0  0  0
   -0.6144   -0.5042   -3.2618 C   0  0  0  0  0  0  0  0  0  0  0  0
   -0.6144   -0.5042   -1.7695 C   0  0  0  0  0  0  0  0  0  0  0  0
   -0.6144    0.5684   -1.1018 N   0  0  0  0  0  0  0  0  0  0  0  0
    0.2639   -1.0342   -3.6392 H   0  0  0  0  0  0  0  0  0  0  0  0
   -1.4927   -1.0342   -3.6392 H   0  0  0  0  0  0  0  0  0  0  0  0
   -0.6144    0.5164   -3.6404 H   0  0  0  0  0  0  0  0  0  0  0  0
   -0.6144   -1.4939   -1.2948 H   0  0  0  0  0  0  0  0  0  0  0  0
   -0.6144    0.3382    0.0978 H   0  0  0  0  0  0  0  0  0  0  0  0
  1  2  1  0
  1  4  1  0
  1  5  1  0
  2  3  1  0
  2  6  1  0
  2  7  1  0
  3  8  1  0
  9 10  1  0
  9 12  1  0
  9 13  1  0
  9 14  1  0
 10 11  2  3
 10 15  1  0
 11 16  1  0
M  RAD  1   1   2
M  END
>  <reaction>  (6) 
rmg_rxn_16515

>  <mol_properties>  (6) 
{"0": {"label": "*3", "atom_type": "Cs"}, "1": {"label": "*4", "atom_type": "Cs"}, "9": {"label": "*0", "atom_type": "Cd"}, "10": {"label": "*1", "atom_type": "N3d"}, "15": {"label": "*2", "atom_type": "H0"}}

>  <type>  (6) 
unop_2

>  <geom_source>  (6) 
Heuristics

$$$$

     RDKit          3D

 16 14  0  0  0  0  0  0  0  0999 V2000
   -0.0982    0.7919    1.6060 C   0  0  0  0  0  3  0  0  0  0  0  0
    0.6103   -0.5156    1.9079 C   0  0  0  0  0  0  0  0  0  0  0  0
   -0.2132   -1.6468    1.7026 O   0  0  0  0  0  0  0  0  0  0  0  0
    0.5528    1.6416    1.8218 H   0  0  0  0  0  0  0  0  0  0  0  0
   -1.0029    0.8845    2.2084 H   0  0  0  0  0  0  0  0  0  0  0  0
    1.5298   -0.5924    1.3136 H   0  0  0  0  0  0  0  0  0  0  0  0
    0.9008   -0.5528    2.9588 H   0  0  0  0  0  0  0  0  0  0  0  0
   -0.4975   -1.6535    0.7873 H   0  0  0  0  0  0  0  0  0  0  0  0
   -0.0982    0.1967   -3.0422 C   0  0  0  0  0  0  0  0  0  0  0  0
   -0.0982    0.1967   -1.5498 C   0  0  0  0  0  0  0  0  0  0  0  0
   -0.0982    1.2693   -0.8822 N   0  0  0  0  0  0  0  0  0  0  0  0
    0.7800   -0.3333   -3.4196 H   0  0  0  0  0  0  0  0  0  0  0  0
   -0.9765   -0.3333   -3.4196 H   0  0  0  0  0  0  0  0  0  0  0  0
   -0.0982    1.2173   -3.4208 H   0  0  0  0  0  0  0  0  0  0  0  0
   -0.0982   -0.7930   -1.0752 H   0  0  0  0  0  0  0  0  0  0  0  0
   -0.0982    1.0392    0.3174 H   0  0  0  0  0  0  0  0  0  0  0  0
  1  2  1  0
  1  4  1  0
  1  5  1  0
  2  3  1  0
  2  6  1  0
  2  7  1  0
  3  8  1  0
  9 10  1  0
  9 12  1  0
  9 13  1  0
  9 14  1  0
 10 11  2  3
 10 15  1  0
 11 16  1  0
M  RAD  1   1   2
M  END
>  <reaction>  (7) 
rmg_rxn_16515

>  <mol_properties>  (7) 
{"0": {"label": "*3", "atom_type": "Cs"}, "1": {"label": "*4", "atom_type": "Cs"}, "9": {"label": "*0", "atom_type": "Cd"}, "10": {"label": "*1", "atom_type": "N3d"}, "15": {"label": "*2", "atom_type": "H0"}}

>  <type>  (7) 
unop_3

>  <geom_source>  (7) 
Heuristics

$$$$

     RDKit          3D

 16 14  0  0  0  0  0  0  0  0999 V2000
   -0.5028   -0.2181    1.3702 C   0  0  0  0  0  3  0  0  0  0  0  0
    0.2057    0.8848    2.1346 C   0  0  0  0  0  0  0  0  0  0  0  0
    1.5827    0.6242    2.3249 O   0  0  0  0  0  0  0  0  0  0  0  0
   -1.5702   -0.0039    1.2855 H   0  0  0  0  0  0  0  0  0  0  0  0
   -0.3790   -1.1756    1.8779 H   0  0  0  0  0  0  0  0  0  0  0  0
    0.0597    1.8480    1.6292 H   0  0  0  0  0  0  0  0  0  0  0  0
   -0.2148    0.9788    3.1368 H   0  0  0  0  0  0  0  0  0  0  0  0
    1.9956    0.5295    1.4652 H   0  0  0  0  0  0  0  0  0  0  0  0
   -0.5028   -0.8134   -3.2780 C   0  0  0  0  0  0  0  0  0  0  0  0
   -0.5028   -0.8134   -1.7857 C   0  0  0  0  0  0  0  0  0  0  0  0
   -0.5028    0.2593   -1.1180 N   0  0  0  0  0  0  0  0  0  0  0  0
    0.3755   -1.3434   -3.6554 H   0  0  0  0  0  0  0  0  0  0  0  0
   -1.3810   -1.3434   -3.6554 H   0  0  0  0  0  0  0  0  0  0  0  0
   -0.5028    0.2073   -3.6566 H   0  0  0  0  0  0  0  0  0  0  0  0
   -0.5028   -1.8031   -1.3110 H   0  0  0  0  0  0  0  0  0  0  0  0
   -0.5028    0.0291    0.0816 H   0  0  0  0  0  0  0  0  0  0  0  0
  1  2  1  0
  1  4  1  0
  1  5  1  0
  2  3  1  0
  2  6  1  0
  2  7  1  0
  3  8  1  0
  9 10  1  0
  9 12  1  0
  9 13  1  0
  9 14  1  0
 10 11  2  3
 10 15  1  0
 11 16  1  0
M  RAD  1   1   2
M  END
>  <reaction>  (8) 
rmg_rxn_16515

>  <mol_properties>  (8) 
{"0": {"label": "*3", "atom_type": "Cs"}, "1": {"label": "*4", "atom_type": "Cs"}, "9": {"label": "*0", "atom_type": "Cd"}, "10": {"label": "*1", "atom_type": "N3d"}, "15": {"label": "*2", "atom_type": "H0"}}

>  <type>  (8) 
unop_4

>  <geom_source>  (8) 
Heuristics

$$$$

     RDKit          3D

 16 14  0  0  0  0  0  0  0  0999 V2000
    0.6414    0.3493    1.6814 C   0  0  0  0  0  3  0  0  0  0  0  0
   -0.5858   -0.4488    2.0811 C   0  0  0  0  0  0  0  0  0  0  0  0
   -1.7151   -0.1576    1.2811 O   0  0  0  0  0  0  0  0  0  0  0  0
    1.4766    0.1327    2.3506 H   0  0  0  0  0  0  0  0  0  0  0  0
    0.4315    1.4190    1.7214 H   0  0  0  0  0  0  0  0  0  0  0  0
   -0.3612   -1.5229    2.0583 H   0  0  0  0  0  0  0  0  0  0  0  0
   -0.8799   -0.2019    3.1022 H   0  0  0  0  0  0  0  0  0  0  0  0
   -1.5005   -0.3569    0.3685 H   0  0  0  0  0  0  0  0  0  0  0  0
    0.6414   -0.2459   -2.9668 C   0  0  0  0  0  0  0  0  0  0  0  0
    0.6414   -0.2459   -1.4745 C   0  0  0  0  0  0  0  0  0  0  0  0
    0.6414    0.8267   -0.8068 N   0  0  0  0  0  0  0  0  0  0  0  0
    1.5196   -0.7759   -3.3442 H   0  0  0  0  0  0  0  0  0  0  0  0
   -0.2369   -0.7759   -3.3442 H   0  0  0  0  0  0  0  0  0  0  0  0
    0.6414    0.7747   -3.3454 H   0  0  0  0  0  0  0  0  0  0  0  0
    0.6414   -1.2356   -0.9998 H   0  0  0  0  0  0  0  0  0  0  0  0
    0.6414    0.5966    0.3928 H   0  0  0  0  0  0  0  0  0  0  0  0
  1  2  1  0
  1  4  1  0
  1  5  1  0
  2  3  1  0
  2  6  1  0
  2  7  1  0
  3  8  1  0
  9 10  1  0
  9 12  1  0
  9 13  1  0
  9 14  1  0
 10 11  2  3
 10 15  1  0
 11 16  1  0
M  RAD  1   1   2
M  END
>  <reaction>  (9) 
rmg_rxn_16515

>  <mol_properties>  (9) 
{"0": {"label": "*3", "atom_type": "Cs"}, "1": {"label": "*4", "atom_type": "Cs"}, "9": {"label": "*0", "atom_type": "Cd"}, "10": {"label": "*1", "atom_type": "N3d"}, "15": {"label": "*2", "atom_type": "H0"}}

>  <type>  (9) 
unop_5

>  <geom_source>  (9) 
Heuristics

$$$$

     RDKit          3D

 16 14  0  0  0  0  0  0  0  0999 V2000
   -0.2147   -0.4745    1.4312 C   0  0  0  0  0  3  0  0  0  0  0  0
   -0.2147    0.8148    2.2314 C   0  0  0  0  0  0  0  0  0  0  0  0
    0.9486    1.5913    2.0220 O   0  0  0  0  0  0  0  0  0  0  0  0
   -1.1039   -1.0672    1.6556 H   0  0  0  0  0  0  0  0  0  0  0  0
    0.6689   -1.0698    1.6653 H   0  0  0  0  0  0  0  0  0  0  0  0
   -1.1163    1.3988    2.0060 H   0  0  0  0  0  0  0  0  0  0  0  0
   -0.2308    0.5953    3.2998 H   0  0  0  0  0  0  0  0  0  0  0  0
    1.0069    1.8061    1.0898 H   0  0  0  0  0  0  0  0  0  0  0  0
   -0.2147   -1.0698   -3.2170 C   0  0  0  0  0  0  0  0  0  0  0  0
   -0.2147   -1.0698   -1.7247 C   0  0  0  0  0  0  0  0  0  0  0  0
   -0.2147    0.0029   -1.0570 N   0  0  0  0  0  0  0  0  0  0  0  0
    0.6636   -1.5997   -3.5944 H   0  0  0  0  0  0  0  0  0  0  0  0
   -1.0929   -1.5997   -3.5944 H   0  0  0  0  0  0  0  0  0  0  0  0
   -0.2147   -0.0491   -3.5956 H   0  0  0  0  0  0  0  0  0  0  0  0
   -0.2147   -2.0594   -1.2500 H   0  0  0  0  0  0  0  0  0  0  0  0
   -0.2147   -0.2273    0.1426 H   0  0  0  0  0  0  0  0  0  0  0  0
  1  2  1  0
  1  4  1  0
  1  5  1  0
  2  3  1  0
  2  6  1  0
  2  7  1  0
  3  8  1  0
  9 10  1  0
  9 12  1  0
  9 13  1  0
  9 14  1  0
 10 11  2  3
 10 15  1  0
 11 16  1  0
M  RAD  1   1   2
M  END
>  <reaction>  (10) 
rmg_rxn_16515

>  <mol_properties>  (10) 
{"0": {"label": "*3", "atom_type": "Cs"}, "1": {"label": "*4", "atom_type": "Cs"}, "9": {"label": "*0", "atom_type": "Cd"}, "10": {"label": "*1", "atom_type": "N3d"}, "15": {"label": "*2", "atom_type": "H0"}}

>  <type>  (10) 
unop_6

>  <geom_source>  (10) 
Heuristics

$$$$

     RDKit          3D

 16 14  0  0  0  0  0  0  0  0999 V2000
    0.6726    0.0296    1.6342 C   0  0  0  0  0  3  0  0  0  0  0  0
   -0.7445   -0.0727    2.1674 C   0  0  0  0  0  0  0  0  0  0  0  0
   -1.6834    0.6202    1.3684 O   0  0  0  0  0  0  0  0  0  0  0  0
    1.3730   -0.4760    2.3022 H   0  0  0  0  0  0  0  0  0  0  0  0
    0.9719    1.0745    1.5420 H   0  0  0  0  0  0  0  0  0  0  0  0
   -1.0312   -1.1264    2.2768 H   0  0  0  0  0  0  0  0  0  0  0  0
   -0.8090    0.3840    3.1560 H   0  0  0  0  0  0  0  0  0  0  0  0
   -1.6589    0.2530    0.4835 H   0  0  0  0  0  0  0  0  0  0  0  0
    0.6726   -0.5656   -3.0139 C   0  0  0  0  0  0  0  0  0  0  0  0
    0.6726   -0.5656   -1.5216 C   0  0  0  0  0  0  0  0  0  0  0  0
    0.6726    0.5070   -0.8539 N   0  0  0  0  0  0  0  0  0  0  0  0
    1.5509   -1.0956   -3.3913 H   0  0  0  0  0  0  0  0  0  0  0  0
   -0.2056   -1.0956   -3.3913 H   0  0  0  0  0  0  0  0  0  0  0  0
    0.6726    0.4550   -3.3925 H   0  0  0  0  0  0  0  0  0  0  0  0
    0.6726   -1.5553   -1.0469 H   0  0  0  0  0  0  0  0  0  0  0  0
    0.6726    0.2769    0.3457 H   0  0  0  0  0  0  0  0  0  0  0  0
  1  2  1  0
  1  4  1  0
  1  5  1  0
  2  3  1  0
  2  6  1  0
  2  7  1  0
  3  8  1  0
  9 10  1  0
  9 12  1  0
  9 13  1  0
  9 14  1  0
 10 11  2  3
 10 15  1  0
 11 16  1  0
M  RAD  1   1   2
M  END
>  <reaction>  (11) 
rmg_rxn_16515

>  <mol_properties>  (11) 
{"0": {"label": "*3", "atom_type": "Cs"}, "1": {"label": "*4", "atom_type": "Cs"}, "9": {"label": "*0", "atom_type": "Cd"}, "10": {"label": "*1", "atom_type": "N3d"}, "15": {"label": "*2", "atom_type": "H0"}}

>  <type>  (11) 
unop_7

>  <geom_source>  (11) 
Heuristics

$$$$

     RDKit          3D

 16 14  0  0  0  0  0  0  0  0999 V2000
    0.5339   -0.2866    1.5742 C   0  0  0  0  0  3  0  0  0  0  0  0
   -0.6934    0.3070    2.2409 C   0  0  0  0  0  0  0  0  0  0  0  0
   -1.2468    1.3854    1.5125 O   0  0  0  0  0  0  0  0  0  0  0  0
    0.9591   -1.0827    2.1888 H   0  0  0  0  0  0  0  0  0  0  0  0
    1.2947    0.4801    1.4221 H   0  0  0  0  0  0  0  0  0  0  0  0
   -1.4461   -0.4739    2.4093 H   0  0  0  0  0  0  0  0  0  0  0  0
   -0.4305    0.7180    3.2166 H   0  0  0  0  0  0  0  0  0  0  0  0
   -1.4906    1.0700    0.6409 H   0  0  0  0  0  0  0  0  0  0  0  0
    0.5339   -0.8818   -3.0740 C   0  0  0  0  0  0  0  0  0  0  0  0
    0.5339   -0.8818   -1.5816 C   0  0  0  0  0  0  0  0  0  0  0  0
    0.5339    0.1908   -0.9139 N   0  0  0  0  0  0  0  0  0  0  0  0
    1.4121   -1.4118   -3.4514 H   0  0  0  0  0  0  0  0  0  0  0  0
   -0.3444   -1.4118   -3.4514 H   0  0  0  0  0  0  0  0  0  0  0  0
    0.5339    0.1388   -3.4525 H   0  0  0  0  0  0  0  0  0  0  0  0
    0.5339   -1.8715   -1.1070 H   0  0  0  0  0  0  0  0  0  0  0  0
    0.5339   -0.0393    0.2857 H   0  0  0  0  0  0  0  0  0  0  0  0
  1  2  1  0
  1  4  1  0
  1  5  1  0
  2  3  1  0
  2  6  1  0
  2  7  1  0
  3  8  1  0
  9 10  1  0
  9 12  1  0
  9 13  1  0
  9 14  1  0
 10 11  2  3
 10 15  1  0
 11 16  1  0
M  RAD  1   1   2
M  END
>  <reaction>  (12) 
rmg_rxn_16515

>  <mol_properties>  (12) 
{"0": {"label": "*3", "atom_type": "Cs"}, "1": {"label": "*4", "atom_type": "Cs"}, "9": {"label": "*0", "atom_type": "Cd"}, "10": {"label": "*1", "atom_type": "N3d"}, "15": {"label": "*2", "atom_type": "H0"}}

>  <type>  (12) 
unop_8

>  <geom_source>  (12) 
Heuristics

$$$$

     RDKit          3D

 16 14  0  0  0  0  0  0  0  0999 V2000
   -0.5755    0.4041    1.4480 C   0  0  0  0  0  3  0  0  0  0  0  0
    0.8416    0.3018    1.9812 C   0  0  0  0  0  0  0  0  0  0  0  0
    1.2542   -1.0345    2.1916 O   0  0  0  0  0  0  0  0  0  0  0  0
   -0.8735    1.4494    1.3442 H   0  0  0  0  0  0  0  0  0  0  0  0
   -1.2745   -0.0921    2.1225 H   0  0  0  0  0  0  0  0  0  0  0  0
    1.5363    0.8205    1.3082 H   0  0  0  0  0  0  0  0  0  0  0  0
    0.9134    0.7865    2.9558 H   0  0  0  0  0  0  0  0  0  0  0  0
    1.2033   -1.5032    1.3572 H   0  0  0  0  0  0  0  0  0  0  0  0
   -0.5755   -0.1912   -3.2002 C   0  0  0  0  0  0  0  0  0  0  0  0
   -0.5755   -0.1912   -1.7079 C   0  0  0  0  0  0  0  0  0  0  0  0
   -0.5755    0.8815   -1.0402 N   0  0  0  0  0  0  0  0  0  0  0  0
    0.3028   -0.7212   -3.5776 H   0  0  0  0  0  0  0  0  0  0  0  0
   -1.4537   -0.7212   -3.5776 H   0  0  0  0  0  0  0  0  0  0  0  0
   -0.5755    0.8295   -3.5788 H   0  0  0  0  0  0  0  0  0  0  0  0
   -0.5755   -1.1809   -1.2332 H   0  0  0  0  0  0  0  0  0  0  0  0
   -0.5755    0.6513    0.1594 H   0  0  0  0  0  0  0  0  0  0  0  0
  1  2  1  0
  1  4  1  0
  1  5  1  0
  2  3  1  0
  2  6  1  0
  2  7  1  0
  3  8  1  0
  9 10  1  0
  9 12  1  0
  9 13  1  0
  9 14  1  0
 10 11  2  3
 10 15  1  0
 11 16  1  0
M  RAD  1   1   2
M  END
>  <reaction>  (13) 
rmg_rxn_16515

>  <mol_properties>  (13) 
{"0": {"label": "*3", "atom_type": "Cs"}, "1": {"label": "*4", "atom_type": "Cs"}, "9": {"label": "*0", "atom_type": "Cd"}, "10": {"label": "*1", "atom_type": "N3d"}, "15": {"label": "*2", "atom_type": "H0"}}

>  <type>  (13) 
unop_9

>  <geom_source>  (13) 
Heuristics

$$$$

     RDKit          3D

 16 14  0  0  0  0  0  0  0  0999 V2000
    1.2271    1.1325    0.2226 C   0  0  0  0  0  3  0  0  0  0  0  0
    2.2816    0.2499   -0.3935 C   0  0  0  0  0  0  0  0  0  0  0  0
    2.3282   -1.0265    0.1973 O   0  0  0  0  0  0  0  0  0  0  0  0
    1.0881    2.0714   -0.2992 H   0  0  0  0  0  0  0  0  0  0  0  0
    1.3534    1.2666    1.2910 H   0  0  0  0  0  0  0  0  0  0  0  0
    2.1085    0.1628   -1.4778 H   0  0  0  0  0  0  0  0  0  0  0  0
    3.2824    0.6764   -0.2459 H   0  0  0  0  0  0  0  0  0  0  0  0
    1.4337   -1.3905    0.1805 H   0  0  0  0  0  0  0  0  0  0  0  0
   -3.2970   -0.3382   -0.0703 C   0  0  0  0  0  0  0  0  0  0  0  0
   -1.9727    0.3524    0.0509 C   0  0  0  0  0  0  0  0  0  0  0  0
   -0.8951   -0.2549   -0.0237 N   0  0  0  0  0  0  0  0  0  0  0  0
   -3.8711   -0.1746    0.8403 H   0  0  0  0  0  0  0  0  0  0  0  0
   -3.8505    0.0895   -0.9046 H   0  0  0  0  0  0  0  0  0  0  0  0
   -3.1561   -1.4034   -0.2296 H   0  0  0  0  0  0  0  0  0  0  0  0
   -2.0538    1.4375    0.2112 H   0  0  0  0  0  0  0  0  0  0  0  0
    0.1328    0.4593    0.0995 H   0  0  0  0  0  0  0  0  0  0  0  0
  1  2  1  0
  1  4  1  0
  1  5  1  0
  2  3  1  0
  2  6  1  0
  2  7  1  0
  3  8  1  0
  9 10  1  0
  9 12  1  0
  9 13  1  0
  9 14  1  0
 10 11  2  3
 10 15  1  0
 11 16  1  0
M  RAD  1   1   2
M  END
>  <reaction>  (14) 
rmg_rxn_16515

>  <mol_properties>  (14) 
{"0": {"label": "*3", "atom_type": "Cs"}, "1": {"label": "*4", "atom_type": "Cs"}, "9": {"label": "*0", "atom_type": "Cd"}, "10": {"label": "*1", "atom_type": "N3d"}, "15": {"label": "*2", "atom_type": "H0"}}

>  <type>  (14) 
unop_10

>  <geom_source>  (14) 
Heuristics

$$$$

     RDKit          3D

 16 14  0  0  0  0  0  0  0  0999 V2000
    0.4756    0.6085    1.6972 C   0  0  0  0  0  3  0  0  0  0  0  0
   -0.2330   -0.6990    1.9992 C   0  0  0  0  0  0  0  0  0  0  0  0
   -1.4542   -0.8364    1.2994 O   0  0  0  0  0  0  0  0  0  0  0  0
    1.3876    0.6986    2.2910 H   0  0  0  0  0  0  0  0  0  0  0  0
   -0.1727    1.4560    1.9241 H   0  0  0  0  0  0  0  0  0  0  0  0
    0.4322   -1.5461    1.7881 H   0  0  0  0  0  0  0  0  0  0  0  0
   -0.4952   -0.7500    3.0569 H   0  0  0  0  0  0  0  0  0  0  0  0
   -1.2722   -0.7934    0.3594 H   0  0  0  0  0  0  0  0  0  0  0  0
    0.4756    0.0133   -2.9509 C   0  0  0  0  0  0  0  0  0  0  0  0
    0.4756    0.0133   -1.4586 C   0  0  0  0  0  0  0  0  0  0  0  0
    0.4756    1.0859   -0.7909 N   0  0  0  0  0  0  0  0  0  0  0  0
    1.3538   -0.5167   -3.3283 H   0  0  0  0  0  0  0  0  0  0  0  0
   -0.4027   -0.5167   -3.3283 H   0  0  0  0  0  0  0  0  0  0  0  0
    0.4756    1.0339   -3.3295 H   0  0  0  0  0  0  0  0  0  0  0  0
    0.4756   -0.9764   -0.9839 H   0  0  0  0  0  0  0  0  0  0  0  0
    0.4756    0.8558    0.4087 H   0  0  0  0  0  0  0  0  0  0  0  0
  1  2  1  0
  1  4  1  0
  1  5  1  0
  2  3  1  0
  2  6  1  0
  2  7  1  0
  3  8  1  0
  9 10  1  0
  9 12  1  0
  9 13  1  0
  9 14  1  0
 10 11  2  3
 10 15  1  0
 11 16  1  0
M  RAD  1   1   2
M  END
>  <reaction>  (15) 
rmg_rxn_16515

>  <mol_properties>  (15) 
{"0": {"label": "*3", "atom_type": "Cs"}, "1": {"label": "*4", "atom_type": "Cs"}, "9": {"label": "*0", "atom_type": "Cd"}, "10": {"label": "*1", "atom_type": "N3d"}, "15": {"label": "*2", "atom_type": "H0"}}

>  <type>  (15) 
unop_11

>  <geom_source>  (15) 
Heuristics

$$$$

     RDKit          3D

 16 14  0  0  0  0  0  0  0  0999 V2000
   -0.3888    0.6602    1.5267 C   0  0  0  0  0  3  0  0  0  0  0  0
    0.8384   -0.1380    1.9264 C   0  0  0  0  0  0  0  0  0  0  0  0
    0.5991   -1.5313    1.9645 O   0  0  0  0  0  0  0  0  0  0  0  0
   -0.1779    1.7312    1.5553 H   0  0  0  0  0  0  0  0  0  0  0  0
   -1.2184    0.4504    2.2033 H   0  0  0  0  0  0  0  0  0  0  0  0
    1.6744    0.0935    1.2540 H   0  0  0  0  0  0  0  0  0  0  0  0
    1.1513    0.1323    2.9359 H   0  0  0  0  0  0  0  0  0  0  0  0
    0.3160   -1.8149    1.0939 H   0  0  0  0  0  0  0  0  0  0  0  0
   -0.3888    0.0650   -3.1215 C   0  0  0  0  0  0  0  0  0  0  0  0
   -0.3888    0.0650   -1.6291 C   0  0  0  0  0  0  0  0  0  0  0  0
   -0.3888    1.1376   -0.9614 N   0  0  0  0  0  0  0  0  0  0  0  0
    0.4894   -0.4650   -3.4989 H   0  0  0  0  0  0  0  0  0  0  0  0
   -1.2671   -0.4650   -3.4989 H   0  0  0  0  0  0  0  0  0  0  0  0
   -0.3888    1.0856   -3.5000 H   0  0  0  0  0  0  0  0  0  0  0  0
   -0.3888   -0.9247   -1.1545 H   0  0  0  0  0  0  0  0  0  0  0  0
   -0.3888    0.9074    0.2382 H   0  0  0  0  0  0  0  0  0  0  0  0
  1  2  1  0
  1  4  1  0
  1  5  1  0
  2  3  1  0
  2  6  1  0
  2  7  1  0
  3  8  1  0
  9 10  1  0
  9 12  1  0
  9 13  1  0
  9 14  1  0
 10 11  2  3
 10 15  1  0
 11 16  1  0
M  RAD  1   1   2
M  END
>  <reaction>  (16) 
rmg_rxn_16515

>  <mol_properties>  (16) 
{"0": {"label": "*3", "atom_type": "Cs"}, "1": {"label": "*4", "atom_type": "Cs"}, "9": {"label": "*0", "atom_type": "Cd"}, "10": {"label": "*1", "atom_type": "N3d"}, "15": {"label": "*2", "atom_type": "H0"}}

>  <type>  (16) 
unop_12

>  <geom_source>  (16) 
Heuristics

$$$$

     RDKit          3D

 16 14  0  0  0  0  0  0  0  0999 V2000
    0.2133   -0.5020    1.5114 C   0  0  0  0  0  3  0  0  0  0  0  0
   -0.4952    0.6009    2.2759 C   0  0  0  0  0  0  0  0  0  0  0  0
   -0.3034    1.8786    1.7007 O   0  0  0  0  0  0  0  0  0  0  0  0
    0.0815   -1.4636    2.0118 H   0  0  0  0  0  0  0  0  0  0  0  0
    1.2810   -0.2912    1.4378 H   0  0  0  0  0  0  0  0  0  0  0  0
   -1.5651    0.3720    2.3635 H   0  0  0  0  0  0  0  0  0  0  0  0
   -0.0964    0.6737    3.2886 H   0  0  0  0  0  0  0  0  0  0  0  0
   -0.6378    1.8609    0.8027 H   0  0  0  0  0  0  0  0  0  0  0  0
    0.2133   -1.0972   -3.1368 C   0  0  0  0  0  0  0  0  0  0  0  0
    0.2133   -1.0972   -1.6444 C   0  0  0  0  0  0  0  0  0  0  0  0
    0.2133   -0.0246   -0.9767 N   0  0  0  0  0  0  0  0  0  0  0  0
    1.0915   -1.6272   -3.5142 H   0  0  0  0  0  0  0  0  0  0  0  0
   -0.6650   -1.6272   -3.5142 H   0  0  0  0  0  0  0  0  0  0  0  0
    0.2133   -0.0766   -3.5154 H   0  0  0  0  0  0  0  0  0  0  0  0
    0.2133   -2.0869   -1.1698 H   0  0  0  0  0  0  0  0  0  0  0  0
    0.2133   -0.2548    0.2228 H   0  0  0  0  0  0  0  0  0  0  0  0
  1  2  1  0
  1  4  1  0
  1  5  1  0
  2  3  1  0
  2  6  1  0
  2  7  1  0
  3  8  1  0
  9 10  1  0
  9 12  1  0
  9 13  1  0
  9 14  1  0
 10 11  2  3
 10 15  1  0
 11 16  1  0
M  RAD  1   1   2
M  END
>  <reaction>  (17) 
rmg_rxn_16515

>  <mol_properties>  (17) 
{"0": {"label": "*3", "atom_type": "Cs"}, "1": {"label": "*4", "atom_type": "Cs"}, "9": {"label": "*0", "atom_type": "Cd"}, "10": {"label": "*1", "atom_type": "N3d"}, "15": {"label": "*2", "atom_type": "H0"}}

>  <type>  (17) 
unop_13

>  <geom_source>  (17) 
Heuristics

$$$$

     RDKit          3D

 16 14  0  0  0  0  0  0  0  0999 V2000
    0.2147    0.7680    1.6696 C   0  0  0  0  0  3  0  0  0  0  0  0
    0.2147   -0.7260    1.9358 C   0  0  0  0  0  0  0  0  0  0  0  0
   -0.9486   -1.3698    1.4539 O   0  0  0  0  0  0  0  0  0  0  0  0
    1.1039    1.2355    2.0974 H   0  0  0  0  0  0  0  0  0  0  0  0
   -0.6689    1.2344    2.1075 H   0  0  0  0  0  0  0  0  0  0  0  0
    1.1163   -1.1850    1.5102 H   0  0  0  0  0  0  0  0  0  0  0  0
    0.2308   -0.9174    3.0096 H   0  0  0  0  0  0  0  0  0  0  0  0
   -1.0069   -1.2243    0.5084 H   0  0  0  0  0  0  0  0  0  0  0  0
    0.2147    0.1728   -2.9786 C   0  0  0  0  0  0  0  0  0  0  0  0
    0.2147    0.1728   -1.4863 C   0  0  0  0  0  0  0  0  0  0  0  0
    0.2147    1.2454   -0.8186 N   0  0  0  0  0  0  0  0  0  0  0  0
    1.0929   -0.3572   -3.3560 H   0  0  0  0  0  0  0  0  0  0  0  0
   -0.6636   -0.3572   -3.3560 H   0  0  0  0  0  0  0  0  0  0  0  0
    0.2147    1.1934   -3.3572 H   0  0  0  0  0  0  0  0  0  0  0  0
    0.2147   -0.8169   -1.0116 H   0  0  0  0  0  0  0  0  0  0  0  0
    0.2147    1.0152    0.3810 H   0  0  0  0  0  0  0  0  0  0  0  0
  1  2  1  0
  1  4  1  0
  1  5  1  0
  2  3  1  0
  2  6  1  0
  2  7  1  0
  3  8  1  0
  9 10  1  0
  9 12  1  0
  9 13  1  0
  9 14  1  0
 10 11  2  3
 10 15  1  0
 11 16  1  0
M  RAD  1   1   2
M  END
>  <reaction>  (18) 
rmg_rxn_16515

>  <mol_properties>  (18) 
{"0": {"label": "*3", "atom_type": "Cs"}, "1": {"label": "*4", "atom_type": "Cs"}, "9": {"label": "*0", "atom_type": "Cd"}, "10": {"label": "*1", "atom_type": "N3d"}, "15": {"label": "*2", "atom_type": "H0"}}

>  <type>  (18) 
unop_14

>  <geom_source>  (18) 
Heuristics

$$$$

     RDKit          3D

 16 14  0  0  0  0  0  0  0  0999 V2000
   -0.0982    0.7919    1.6060 C   0  0  0  0  0  3  0  0  0  0  0  0
    0.6103   -0.5156    1.9080 C   0  0  0  0  0  0  0  0  0  0  0  0
   -0.2132   -1.6468    1.7026 O   0  0  0  0  0  0  0  0  0  0  0  0
    0.5527    1.6417    1.8218 H   0  0  0  0  0  0  0  0  0  0  0  0
   -1.0029    0.8845    2.2084 H   0  0  0  0  0  0  0  0  0  0  0  0
    1.5298   -0.5925    1.3136 H   0  0  0  0  0  0  0  0  0  0  0  0
    0.9008   -0.5528    2.9588 H   0  0  0  0  0  0  0  0  0  0  0  0
   -0.4975   -1.6535    0.7873 H   0  0  0  0  0  0  0  0  0  0  0  0
   -0.0982    0.1967   -3.0422 C   0  0  0  0  0  0  0  0  0  0  0  0
   -0.0982    0.1967   -1.5498 C   0  0  0  0  0  0  0  0  0  0  0  0
   -0.0982    1.2693   -0.8821 N   0  0  0  0  0  0  0  0  0  0  0  0
    0.7800   -0.3333   -3.4196 H   0  0  0  0  0  0  0  0  0  0  0  0
   -0.9765   -0.3333   -3.4196 H   0  0  0  0  0  0  0  0  0  0  0  0
   -0.0982    1.2173   -3.4208 H   0  0  0  0  0  0  0  0  0  0  0  0
   -0.0982   -0.7930   -1.0752 H   0  0  0  0  0  0  0  0  0  0  0  0
   -0.0982    1.0392    0.3174 H   0  0  0  0  0  0  0  0  0  0  0  0
  1  2  1  0
  1  4  1  0
  1  5  1  0
  2  3  1  0
  2  6  1  0
  2  7  1  0
  3  8  1  0
  9 10  1  0
  9 12  1  0
  9 13  1  0
  9 14  1  0
 10 11  2  3
 10 15  1  0
 11 16  1  0
M  RAD  1   1   2
M  END
>  <reaction>  (19) 
rmg_rxn_16515

>  <mol_properties>  (19) 
{"0": {"label": "*3", "atom_type": "Cs"}, "1": {"label": "*4", "atom_type": "Cs"}, "9": {"label": "*0", "atom_type": "Cd"}, "10": {"label": "*1", "atom_type": "N3d"}, "15": {"label": "*2", "atom_type": "H0"}}

>  <type>  (19) 
unop_15

>  <geom_source>  (19) 
gaussian_log

$$$$
