
     RDKit          3D

 15 14  0  0  0  0  0  0  0  0999 V2000
    2.4145    0.0817    0.4065 C   0  0  0  0  0  0  0  0  0  0  0  0
    1.1257   -0.2220   -0.3219 C   0  0  0  0  0  0  0  0  0  0  0  0
    1.0983   -1.5879   -0.6512 O   0  0  0  0  0  0  0  0  0  0  0  0
   -0.0685   -1.9694   -1.3352 C   0  0  0  0  0  0  0  0  0  0  0  0
    0.0024   -3.4478   -1.6403 C   0  0  0  0  0  0  0  0  0  0  0  0
    3.2736   -0.1534   -0.2229 H   0  0  0  0  0  0  0  0  0  0  0  0
    2.4581    1.1389    0.6728 H   0  0  0  0  0  0  0  0  0  0  0  0
    2.4855   -0.5095    1.3201 H   0  0  0  0  0  0  0  0  0  0  0  0
    0.2597    0.0294    0.3083 H   0  0  0  0  0  0  0  0  0  0  0  0
    1.0482    0.3858   -1.2356 H   0  0  0  0  0  0  0  0  0  0  0  0
   -0.9535   -1.7457   -0.7211 H   0  0  0  0  0  0  0  0  0  0  0  0
   -0.1650   -1.3894   -2.2650 H   0  0  0  0  0  0  0  0  0  0  0  0
    0.0831   -4.0247   -0.7183 H   0  0  0  0  0  0  0  0  0  0  0  0
   -0.8950   -3.7674   -2.1724 H   0  0  0  0  0  0  0  0  0  0  0  0
    0.8712   -3.6686   -2.2613 H   0  0  0  0  0  0  0  0  0  0  0  0
  1  2  1  0
  1  6  1  0
  1  7  1  0
  1  8  1  0
  2  3  1  0
  2  9  1  0
  2 10  1  0
  3  4  1  0
  4  5  1  0
  4 11  1  0
  4 12  1  0
  5 13  1  0
  5 14  1  0
  5 15  1  0
M  END
>  <reaction>  (1) 
rmg_rxn_647

>  <mol_properties>  (1) 
{"0": {"label": "donator", "atom_type": "Cs"}, "5": {"label": "d_hydrogen", "atom_type": "H0"}}

>  <type>  (1) 
r1h

$$$$

     RDKit          3D

  8  7  0  0  0  0  0  0  0  0999 V2000
    1.3778   -0.6812    0.2772 C   0  0  0  0  0  3  0  0  0  0  0  0
    0.4890    0.2108   -0.0590 C   0  0  0  0  0  0  0  0  0  0  0  0
   -1.0010    0.0286   -0.0323 C   0  0  0  0  0  0  0  0  0  0  0  0
    2.4535   -0.7507    0.3287 H   0  0  0  0  0  0  0  0  0  0  0  0
    0.8447    1.1899   -0.3945 H   0  0  0  0  0  0  0  0  0  0  0  0
   -1.4635    0.7638    0.6301 H   0  0  0  0  0  0  0  0  0  0  0  0
   -1.2709   -0.9687    0.3117 H   0  0  0  0  0  0  0  0  0  0  0  0
   -1.4218    0.1801   -1.0289 H   0  0  0  0  0  0  0  0  0  0  0  0
  1  2  2  3
  1  4  1  0
  2  3  1  0
  2  5  1  0
  3  6  1  0
  3  7  1  0
  3  8  1  0
M  RAD  1   1   2
M  END
>  <reaction>  (2) 
rmg_rxn_647

>  <mol_properties>  (2) 
{"0": {"label": "acceptor", "atom_type": "Cd"}}

>  <type>  (2) 
r2

$$$$

     RDKit          3D

  9  8  0  0  0  0  0  0  0  0999 V2000
    1.1303   -0.2933   -0.7510 C   0  0  0  0  0  0  0  0  0  0  0  0
    0.2866    0.4560   -0.0588 C   0  0  0  0  0  0  0  0  0  0  0  0
   -0.9719   -0.0331    0.5823 C   0  0  0  0  0  0  0  0  0  0  0  0
    2.0274    0.1230   -1.1916 H   0  0  0  0  0  0  0  0  0  0  0  0
    0.9532   -1.3530   -0.9023 H   0  0  0  0  0  0  0  0  0  0  0  0
    0.5065    1.5132    0.0659 H   0  0  0  0  0  0  0  0  0  0  0  0
   -0.9526    0.1426    1.6610 H   0  0  0  0  0  0  0  0  0  0  0  0
   -1.1182   -1.1002    0.4106 H   0  0  0  0  0  0  0  0  0  0  0  0
   -1.8412    0.5010    0.1901 H   0  0  0  0  0  0  0  0  0  0  0  0
  1  2  2  3
  1  4  1  0
  1  5  1  0
  2  3  1  0
  2  6  1  0
  3  7  1  0
  3  8  1  0
  3  9  1  0
M  END
>  <reaction>  (3) 
rmg_rxn_647

>  <mol_properties>  (3) 
{"0": {"label": "acceptor", "atom_type": "Cd"}, "8": {"label": "a_hydrogen", "atom_type": "H0"}}

>  <type>  (3) 
r2h

$$$$

     RDKit          3D

 23 21  0  0  0  0  0  0  0  0999 V2000
   -1.0640    1.8917    0.9140 C   0  0  0  0  0  3  0  0  0  0  0  0
   -1.5513    1.3924   -0.2009 C   0  0  0  0  0  0  0  0  0  0  0  0
   -2.8822    1.7422   -0.8001 C   0  0  0  0  0  0  0  0  0  0  0  0
   -1.5213    2.6199    1.5761 H   0  0  0  0  0  0  0  0  0  0  0  0
   -0.9473    0.6671   -0.7429 H   0  0  0  0  0  0  0  0  0  0  0  0
   -2.7541    2.1536   -1.8045 H   0  0  0  0  0  0  0  0  0  0  0  0
   -3.4166    2.4737   -0.1933 H   0  0  0  0  0  0  0  0  0  0  0  0
   -3.5069    0.8504   -0.8963 H   0  0  0  0  0  0  0  0  0  0  0  0
    1.3020    0.8763    1.6242 C   0  0  0  0  0  0  0  0  0  0  0  0
    1.1931   -0.5797    1.2865 C   0  0  0  0  0  0  0  0  0  0  0  0
    1.0982   -0.7263   -0.1094 O   0  0  0  0  0  0  0  0  0  0  0  0
    0.9301   -2.0613   -0.5161 C   0  0  0  0  0  0  0  0  0  0  0  0
    0.8268   -2.1035   -2.0231 C   0  0  0  0  0  0  0  0  0  0  0  0
    0.1817    1.4295    1.3032 H   0  0  0  0  0  0  0  0  0  0  0  0
    1.4008    1.0597    2.6929 H   0  0  0  0  0  0  0  0  0  0  0  0
    2.0618    1.4007    1.0477 H   0  0  0  0  0  0  0  0  0  0  0  0
    2.0714   -1.1326    1.6585 H   0  0  0  0  0  0  0  0  0  0  0  0
    0.3080   -1.0163    1.7730 H   0  0  0  0  0  0  0  0  0  0  0  0
    1.7800   -2.6684   -0.1713 H   0  0  0  0  0  0  0  0  0  0  0  0
    0.0236   -2.4813   -0.0562 H   0  0  0  0  0  0  0  0  0  0  0  0
    1.7280   -1.6932   -2.4798 H   0  0  0  0  0  0  0  0  0  0  0  0
    0.7011   -3.1319   -2.3650 H   0  0  0  0  0  0  0  0  0  0  0  0
   -0.0284   -1.5189   -2.3651 H   0  0  0  0  0  0  0  0  0  0  0  0
  1  2  2  3
  1  4  1  0
  2  3  1  0
  2  5  1  0
  3  6  1  0
  3  7  1  0
  3  8  1  0
  9 10  1  0
  9 14  1  0
  9 15  1  0
  9 16  1  0
 10 11  1  0
 10 17  1  0
 10 18  1  0
 11 12  1  0
 12 13  1  0
 12 19  1  0
 12 20  1  0
 13 21  1  0
 13 22  1  0
 13 23  1  0
M  RAD  1   1   2
M  END
>  <reaction>  (4) 
rmg_rxn_647

>  <mol_properties>  (4) 
{"0": {"label": "*3", "atom_type": "Cd"}, "1": {"label": "*4", "atom_type": "Cd"}, "8": {"label": "*1", "atom_type": "Cs"}, "9": {"label": "*0", "atom_type": "Cs"}, "13": {"label": "*2", "atom_type": "H0"}}

>  <type>  (4) 
ts

$$$$

     RDKit          3D

 23 21  0  0  0  0  0  0  0  0999 V2000
   -1.0646    1.5725    0.2767 C   0  0  0  0  0  0  0  0  0  0  0  0
   -1.9440    2.1608    1.0723 C   0  0  0  0  0  0  0  0  0  0  0  0
   -2.5314    3.5174    0.8517 C   0  0  0  0  0  0  0  0  0  0  0  0
   -0.7007    2.0588   -0.6223 H   0  0  0  0  0  0  0  0  0  0  0  0
   -2.2794    1.6341    1.9621 H   0  0  0  0  0  0  0  0  0  0  0  0
   -3.6202    3.4616    0.7731 H   0  0  0  0  0  0  0  0  0  0  0  0
   -2.1443    3.9762   -0.0589 H   0  0  0  0  0  0  0  0  0  0  0  0
   -2.3083    4.1792    1.6925 H   0  0  0  0  0  0  0  0  0  0  0  0
    1.0503    0.3785    1.2268 C   0  0  0  0  0  3  0  0  0  0  0  0
    1.0503   -1.0832    0.8432 C   0  0  0  0  0  0  0  0  0  0  0  0
    1.0503   -1.1874   -0.5583 O   0  0  0  0  0  0  0  0  0  0  0  0
    1.0503   -2.5165   -1.0149 C   0  0  0  0  0  0  0  0  0  0  0  0
    1.0503   -2.5165   -2.5260 C   0  0  0  0  0  0  0  0  0  0  0  0
   -0.0110    0.9776    0.7500 H   0  0  0  0  0  0  0  0  0  0  0  0
    1.0503    0.4843    2.3128 H   0  0  0  0  0  0  0  0  0  0  0  0
    1.9347    0.8778    0.8295 H   0  0  0  0  0  0  0  0  0  0  0  0
    1.9352   -1.5891    1.2570 H   0  0  0  0  0  0  0  0  0  0  0  0
    0.1654   -1.5891    1.2570 H   0  0  0  0  0  0  0  0  0  0  0  0
    1.9352   -3.0452   -0.6305 H   0  0  0  0  0  0  0  0  0  0  0  0
    0.1654   -3.0452   -0.6305 H   0  0  0  0  0  0  0  0  0  0  0  0
    1.9347   -2.0055   -2.9081 H   0  0  0  0  0  0  0  0  0  0  0  0
    1.0503   -3.5401   -2.9040 H   0  0  0  0  0  0  0  0  0  0  0  0
    0.1659   -2.0055   -2.9081 H   0  0  0  0  0  0  0  0  0  0  0  0
  1  2  2  3
  1  4  1  0
  1 14  1  0
  2  3  1  0
  2  5  1  0
  3  6  1  0
  3  7  1  0
  3  8  1  0
  9 10  1  0
  9 15  1  0
  9 16  1  0
 10 11  1  0
 10 17  1  0
 10 18  1  0
 11 12  1  0
 12 13  1  0
 12 19  1  0
 12 20  1  0
 13 21  1  0
 13 22  1  0
 13 23  1  0
M  RAD  1   9   2
M  END
>  <reaction>  (5) 
rmg_rxn_647

>  <mol_properties>  (5) 
{"0": {"label": "*3", "atom_type": "Cd"}, "1": {"label": "*4", "atom_type": "Cd"}, "8": {"label": "*1", "atom_type": "Cs"}, "9": {"label": "*0", "atom_type": "Cs"}, "13": {"label": "*2", "atom_type": "H0"}}

>  <type>  (5) 
unop_1

>  <geom_source>  (5) 
Heuristics

$$$$

     RDKit          3D

 23 21  0  0  0  0  0  0  0  0999 V2000
   -0.8982    1.9716    0.5070 C   0  0  0  0  0  0  0  0  0  0  0  0
   -2.0384    1.3231    0.3291 C   0  0  0  0  0  0  0  0  0  0  0  0
   -3.3767    1.9665    0.1584 C   0  0  0  0  0  0  0  0  0  0  0  0
   -0.8628    3.0554    0.5413 H   0  0  0  0  0  0  0  0  0  0  0  0
   -2.0239    0.2365    0.3017 H   0  0  0  0  0  0  0  0  0  0  0  0
   -3.8239    1.6859   -0.7987 H   0  0  0  0  0  0  0  0  0  0  0  0
   -3.3042    3.0540    0.1981 H   0  0  0  0  0  0  0  0  0  0  0  0
   -4.0681    1.6388    0.9390 H   0  0  0  0  0  0  0  0  0  0  0  0
    1.2168    0.7775    1.4571 C   0  0  0  0  0  3  0  0  0  0  0  0
    1.2168   -0.6841    1.0735 C   0  0  0  0  0  0  0  0  0  0  0  0
    1.2168   -0.7883   -0.3280 O   0  0  0  0  0  0  0  0  0  0  0  0
    1.2168   -2.1175   -0.7846 C   0  0  0  0  0  0  0  0  0  0  0  0
    1.2168   -2.1175   -2.2957 C   0  0  0  0  0  0  0  0  0  0  0  0
    0.1555    1.3767    0.9803 H   0  0  0  0  0  0  0  0  0  0  0  0
    1.2168    0.8833    2.5431 H   0  0  0  0  0  0  0  0  0  0  0  0
    2.1012    1.2768    1.0598 H   0  0  0  0  0  0  0  0  0  0  0  0
    2.1017   -1.1901    1.4873 H   0  0  0  0  0  0  0  0  0  0  0  0
    0.3319   -1.1901    1.4873 H   0  0  0  0  0  0  0  0  0  0  0  0
    2.1017   -2.6461   -0.4002 H   0  0  0  0  0  0  0  0  0  0  0  0
    0.3319   -2.6461   -0.4002 H   0  0  0  0  0  0  0  0  0  0  0  0
    2.1012   -1.6064   -2.6778 H   0  0  0  0  0  0  0  0  0  0  0  0
    1.2168   -3.1410   -2.6737 H   0  0  0  0  0  0  0  0  0  0  0  0
    0.3324   -1.6064   -2.6778 H   0  0  0  0  0  0  0  0  0  0  0  0
  1  2  2  3
  1  4  1  0
  1 14  1  0
  2  3  1  0
  2  5  1  0
  3  6  1  0
  3  7  1  0
  3  8  1  0
  9 10  1  0
  9 15  1  0
  9 16  1  0
 10 11  1  0
 10 17  1  0
 10 18  1  0
 11 12  1  0
 12 13  1  0
 12 19  1  0
 12 20  1  0
 13 21  1  0
 13 22  1  0
 13 23  1  0
M  RAD  1   9   2
M  END
>  <reaction>  (6) 
rmg_rxn_647

>  <mol_properties>  (6) 
{"0": {"label": "*3", "atom_type": "Cd"}, "1": {"label": "*4", "atom_type": "Cd"}, "8": {"label": "*1", "atom_type": "Cs"}, "9": {"label": "*0", "atom_type": "Cs"}, "13": {"label": "*2", "atom_type": "H0"}}

>  <type>  (6) 
unop_2

>  <geom_source>  (6) 
Heuristics

$$$$

     RDKit          3D

 23 21  0  0  0  0  0  0  0  0999 V2000
   -1.1439    1.4867    0.3828 C   0  0  0  0  0  0  0  0  0  0  0  0
   -1.6914    2.5214    1.0008 C   0  0  0  0  0  0  0  0  0  0  0  0
   -2.2906    3.7107    0.3220 C   0  0  0  0  0  0  0  0  0  0  0  0
   -1.0941    1.4355   -0.6998 H   0  0  0  0  0  0  0  0  0  0  0  0
   -1.7182    2.5279    2.0874 H   0  0  0  0  0  0  0  0  0  0  0  0
   -3.3431    3.8244    0.5940 H   0  0  0  0  0  0  0  0  0  0  0  0
   -2.2234    3.6261   -0.7634 H   0  0  0  0  0  0  0  0  0  0  0  0
   -1.7835    4.6295    0.6277 H   0  0  0  0  0  0  0  0  0  0  0  0
    0.9711    0.2927    1.3329 C   0  0  0  0  0  3  0  0  0  0  0  0
    0.9711   -1.1690    0.9493 C   0  0  0  0  0  0  0  0  0  0  0  0
    0.9711   -1.2732   -0.4522 O   0  0  0  0  0  0  0  0  0  0  0  0
    0.9711   -2.6023   -0.9088 C   0  0  0  0  0  0  0  0  0  0  0  0
    0.9711   -2.6023   -2.4200 C   0  0  0  0  0  0  0  0  0  0  0  0
   -0.0902    0.8918    0.8561 H   0  0  0  0  0  0  0  0  0  0  0  0
    0.9711    0.3985    2.4189 H   0  0  0  0  0  0  0  0  0  0  0  0
    1.8554    0.7920    0.9356 H   0  0  0  0  0  0  0  0  0  0  0  0
    1.8560   -1.6749    1.3631 H   0  0  0  0  0  0  0  0  0  0  0  0
    0.0862   -1.6749    1.3631 H   0  0  0  0  0  0  0  0  0  0  0  0
    1.8560   -3.1310   -0.5245 H   0  0  0  0  0  0  0  0  0  0  0  0
    0.0862   -3.1310   -0.5245 H   0  0  0  0  0  0  0  0  0  0  0  0
    1.8554   -2.0913   -2.8020 H   0  0  0  0  0  0  0  0  0  0  0  0
    0.9711   -3.6259   -2.7980 H   0  0  0  0  0  0  0  0  0  0  0  0
    0.0867   -2.0913   -2.8020 H   0  0  0  0  0  0  0  0  0  0  0  0
  1  2  2  3
  1  4  1  0
  1 14  1  0
  2  3  1  0
  2  5  1  0
  3  6  1  0
  3  7  1  0
  3  8  1  0
  9 10  1  0
  9 15  1  0
  9 16  1  0
 10 11  1  0
 10 17  1  0
 10 18  1  0
 11 12  1  0
 12 13  1  0
 12 19  1  0
 12 20  1  0
 13 21  1  0
 13 22  1  0
 13 23  1  0
M  RAD  1   9   2
M  END
>  <reaction>  (7) 
rmg_rxn_647

>  <mol_properties>  (7) 
{"0": {"label": "*3", "atom_type": "Cd"}, "1": {"label": "*4", "atom_type": "Cd"}, "8": {"label": "*1", "atom_type": "Cs"}, "9": {"label": "*0", "atom_type": "Cs"}, "13": {"label": "*2", "atom_type": "H0"}}

>  <type>  (7) 
unop_3

>  <geom_source>  (7) 
Heuristics

$$$$

     RDKit          3D

 23 21  0  0  0  0  0  0  0  0999 V2000
   -1.2054    1.7368    0.8539 C   0  0  0  0  0  0  0  0  0  0  0  0
   -1.4494    1.7827   -0.4463 C   0  0  0  0  0  0  0  0  0  0  0  0
   -2.1388    2.9047   -1.1534 C   0  0  0  0  0  0  0  0  0  0  0  0
   -1.5032    2.5443    1.5145 H   0  0  0  0  0  0  0  0  0  0  0  0
   -1.1321    0.9496   -1.0683 H   0  0  0  0  0  0  0  0  0  0  0  0
   -1.4924    3.3354   -1.9225 H   0  0  0  0  0  0  0  0  0  0  0  0
   -2.4236    3.6975   -0.4605 H   0  0  0  0  0  0  0  0  0  0  0  0
   -3.0402    2.5499   -1.6598 H   0  0  0  0  0  0  0  0  0  0  0  0
    0.9095    0.5428    1.8040 C   0  0  0  0  0  3  0  0  0  0  0  0
    0.9095   -0.9189    1.4204 C   0  0  0  0  0  0  0  0  0  0  0  0
    0.9095   -1.0231    0.0189 O   0  0  0  0  0  0  0  0  0  0  0  0
    0.9095   -2.3522   -0.4376 C   0  0  0  0  0  0  0  0  0  0  0  0
    0.9095   -2.3522   -1.9488 C   0  0  0  0  0  0  0  0  0  0  0  0
   -0.1518    1.1419    1.3273 H   0  0  0  0  0  0  0  0  0  0  0  0
    0.9095    0.6486    2.8900 H   0  0  0  0  0  0  0  0  0  0  0  0
    1.7939    1.0421    1.4067 H   0  0  0  0  0  0  0  0  0  0  0  0
    1.7944   -1.4248    1.8342 H   0  0  0  0  0  0  0  0  0  0  0  0
    0.0246   -1.4248    1.8342 H   0  0  0  0  0  0  0  0  0  0  0  0
    1.7944   -2.8809   -0.0533 H   0  0  0  0  0  0  0  0  0  0  0  0
    0.0246   -2.8809   -0.0533 H   0  0  0  0  0  0  0  0  0  0  0  0
    1.7939   -1.8412   -2.3309 H   0  0  0  0  0  0  0  0  0  0  0  0
    0.9095   -3.3758   -2.3268 H   0  0  0  0  0  0  0  0  0  0  0  0
    0.0251   -1.8412   -2.3309 H   0  0  0  0  0  0  0  0  0  0  0  0
  1  2  2  3
  1  4  1  0
  1 14  1  0
  2  3  1  0
  2  5  1  0
  3  6  1  0
  3  7  1  0
  3  8  1  0
  9 10  1  0
  9 15  1  0
  9 16  1  0
 10 11  1  0
 10 17  1  0
 10 18  1  0
 11 12  1  0
 12 13  1  0
 12 19  1  0
 12 20  1  0
 13 21  1  0
 13 22  1  0
 13 23  1  0
M  RAD  1   9   2
M  END
>  <reaction>  (8) 
rmg_rxn_647

>  <mol_properties>  (8) 
{"0": {"label": "*3", "atom_type": "Cd"}, "1": {"label": "*4", "atom_type": "Cd"}, "8": {"label": "*1", "atom_type": "Cs"}, "9": {"label": "*0", "atom_type": "Cs"}, "13": {"label": "*2", "atom_type": "H0"}}

>  <type>  (8) 
unop_4

>  <geom_source>  (8) 
Heuristics

$$$$

     RDKit          3D

 23 21  0  0  0  0  0  0  0  0999 V2000
   -1.1440    1.4831    0.4590 C   0  0  0  0  0  0  0  0  0  0  0  0
   -1.3634    2.7720    0.6662 C   0  0  0  0  0  0  0  0  0  0  0  0
   -2.5447    3.5359    0.1610 C   0  0  0  0  0  0  0  0  0  0  0  0
   -1.8368    0.8760   -0.1142 H   0  0  0  0  0  0  0  0  0  0  0  0
   -0.6406    3.3394    1.2469 H   0  0  0  0  0  0  0  0  0  0  0  0
   -3.1063    3.9760    0.9890 H   0  0  0  0  0  0  0  0  0  0  0  0
   -3.2189    2.8960   -0.4097 H   0  0  0  0  0  0  0  0  0  0  0  0
   -2.2281    4.3618   -0.4811 H   0  0  0  0  0  0  0  0  0  0  0  0
    0.9709    0.2891    1.4092 C   0  0  0  0  0  3  0  0  0  0  0  0
    0.9709   -1.1726    1.0256 C   0  0  0  0  0  0  0  0  0  0  0  0
    0.9709   -1.2768   -0.3759 O   0  0  0  0  0  0  0  0  0  0  0  0
    0.9709   -2.6059   -0.8325 C   0  0  0  0  0  0  0  0  0  0  0  0
    0.9709   -2.6059   -2.3437 C   0  0  0  0  0  0  0  0  0  0  0  0
   -0.0903    0.8882    0.9324 H   0  0  0  0  0  0  0  0  0  0  0  0
    0.9709    0.3949    2.4951 H   0  0  0  0  0  0  0  0  0  0  0  0
    1.8553    0.7884    1.0119 H   0  0  0  0  0  0  0  0  0  0  0  0
    1.8558   -1.6785    1.4393 H   0  0  0  0  0  0  0  0  0  0  0  0
    0.0860   -1.6785    1.4393 H   0  0  0  0  0  0  0  0  0  0  0  0
    1.8558   -3.1346   -0.4482 H   0  0  0  0  0  0  0  0  0  0  0  0
    0.0860   -3.1346   -0.4482 H   0  0  0  0  0  0  0  0  0  0  0  0
    1.8553   -2.0949   -2.7258 H   0  0  0  0  0  0  0  0  0  0  0  0
    0.9709   -3.6295   -2.7217 H   0  0  0  0  0  0  0  0  0  0  0  0
    0.0866   -2.0949   -2.7258 H   0  0  0  0  0  0  0  0  0  0  0  0
  1  2  2  3
  1  4  1  0
  1 14  1  0
  2  3  1  0
  2  5  1  0
  3  6  1  0
  3  7  1  0
  3  8  1  0
  9 10  1  0
  9 15  1  0
  9 16  1  0
 10 11  1  0
 10 17  1  0
 10 18  1  0
 11 12  1  0
 12 13  1  0
 12 19  1  0
 12 20  1  0
 13 21  1  0
 13 22  1  0
 13 23  1  0
M  RAD  1   9   2
M  END
>  <reaction>  (9) 
rmg_rxn_647

>  <mol_properties>  (9) 
{"0": {"label": "*3", "atom_type": "Cd"}, "1": {"label": "*4", "atom_type": "Cd"}, "8": {"label": "*1", "atom_type": "Cs"}, "9": {"label": "*0", "atom_type": "Cs"}, "13": {"label": "*2", "atom_type": "H0"}}

>  <type>  (9) 
unop_5

>  <geom_source>  (9) 
Heuristics

$$$$

     RDKit          3D

 23 21  0  0  0  0  0  0  0  0999 V2000
   -1.2759    1.5828    0.7769 C   0  0  0  0  0  0  0  0  0  0  0  0
   -1.2731    2.1479   -0.4202 C   0  0  0  0  0  0  0  0  0  0  0  0
   -1.8871    3.4704   -0.7489 C   0  0  0  0  0  0  0  0  0  0  0  0
   -1.7434    2.0647    1.6292 H   0  0  0  0  0  0  0  0  0  0  0  0
   -0.7920    1.6268   -1.2439 H   0  0  0  0  0  0  0  0  0  0  0  0
   -1.1362    4.1610   -1.1413 H   0  0  0  0  0  0  0  0  0  0  0  0
   -2.3471    3.9257    0.1291 H   0  0  0  0  0  0  0  0  0  0  0  0
   -2.6525    3.3625   -1.5217 H   0  0  0  0  0  0  0  0  0  0  0  0
    0.8390    0.3888    1.7270 C   0  0  0  0  0  3  0  0  0  0  0  0
    0.8390   -1.0728    1.3434 C   0  0  0  0  0  0  0  0  0  0  0  0
    0.8390   -1.1770   -0.0581 O   0  0  0  0  0  0  0  0  0  0  0  0
    0.8390   -2.5062   -0.5146 C   0  0  0  0  0  0  0  0  0  0  0  0
    0.8390   -2.5062   -2.0258 C   0  0  0  0  0  0  0  0  0  0  0  0
   -0.2222    0.9880    1.2503 H   0  0  0  0  0  0  0  0  0  0  0  0
    0.8390    0.4946    2.8130 H   0  0  0  0  0  0  0  0  0  0  0  0
    1.7234    0.8881    1.3297 H   0  0  0  0  0  0  0  0  0  0  0  0
    1.7240   -1.5788    1.7572 H   0  0  0  0  0  0  0  0  0  0  0  0
   -0.0459   -1.5788    1.7572 H   0  0  0  0  0  0  0  0  0  0  0  0
    1.7240   -3.0349   -0.1303 H   0  0  0  0  0  0  0  0  0  0  0  0
   -0.0459   -3.0349   -0.1303 H   0  0  0  0  0  0  0  0  0  0  0  0
    1.7234   -1.9952   -2.4079 H   0  0  0  0  0  0  0  0  0  0  0  0
    0.8390   -3.5297   -2.4038 H   0  0  0  0  0  0  0  0  0  0  0  0
   -0.0453   -1.9952   -2.4079 H   0  0  0  0  0  0  0  0  0  0  0  0
  1  2  2  3
  1  4  1  0
  1 14  1  0
  2  3  1  0
  2  5  1  0
  3  6  1  0
  3  7  1  0
  3  8  1  0
  9 10  1  0
  9 15  1  0
  9 16  1  0
 10 11  1  0
 10 17  1  0
 10 18  1  0
 11 12  1  0
 12 13  1  0
 12 19  1  0
 12 20  1  0
 13 21  1  0
 13 22  1  0
 13 23  1  0
M  RAD  1   9   2
M  END
>  <reaction>  (10) 
rmg_rxn_647

>  <mol_properties>  (10) 
{"0": {"label": "*3", "atom_type": "Cd"}, "1": {"label": "*4", "atom_type": "Cd"}, "8": {"label": "*1", "atom_type": "Cs"}, "9": {"label": "*0", "atom_type": "Cs"}, "13": {"label": "*2", "atom_type": "H0"}}

>  <type>  (10) 
unop_6

>  <geom_source>  (10) 
Heuristics

$$$$

     RDKit          3D

 23 21  0  0  0  0  0  0  0  0999 V2000
   -1.2769    1.4793    0.6319 C   0  0  0  0  0  0  0  0  0  0  0  0
   -1.1786    2.4970   -0.2089 C   0  0  0  0  0  0  0  0  0  0  0  0
   -1.9552    3.7705   -0.1129 C   0  0  0  0  0  0  0  0  0  0  0  0
   -1.9554    1.5076    1.4780 H   0  0  0  0  0  0  0  0  0  0  0  0
   -0.4846    2.4225   -1.0422 H   0  0  0  0  0  0  0  0  0  0  0  0
   -1.2847    4.6289   -0.0208 H   0  0  0  0  0  0  0  0  0  0  0  0
   -2.6259    3.7647    0.7472 H   0  0  0  0  0  0  0  0  0  0  0  0
   -2.5525    3.9307   -1.0142 H   0  0  0  0  0  0  0  0  0  0  0  0
    0.8381    0.2853    1.5820 C   0  0  0  0  0  3  0  0  0  0  0  0
    0.8381   -1.1764    1.1984 C   0  0  0  0  0  0  0  0  0  0  0  0
    0.8381   -1.2806   -0.2031 O   0  0  0  0  0  0  0  0  0  0  0  0
    0.8381   -2.6097   -0.6596 C   0  0  0  0  0  0  0  0  0  0  0  0
    0.8381   -2.6097   -2.1708 C   0  0  0  0  0  0  0  0  0  0  0  0
   -0.2232    0.8844    1.1053 H   0  0  0  0  0  0  0  0  0  0  0  0
    0.8381    0.3911    2.6680 H   0  0  0  0  0  0  0  0  0  0  0  0
    1.7225    0.7846    1.1847 H   0  0  0  0  0  0  0  0  0  0  0  0
    1.7230   -1.6823    1.6122 H   0  0  0  0  0  0  0  0  0  0  0  0
   -0.0468   -1.6823    1.6122 H   0  0  0  0  0  0  0  0  0  0  0  0
    1.7230   -3.1384   -0.2753 H   0  0  0  0  0  0  0  0  0  0  0  0
   -0.0468   -3.1384   -0.2753 H   0  0  0  0  0  0  0  0  0  0  0  0
    1.7225   -2.0987   -2.5529 H   0  0  0  0  0  0  0  0  0  0  0  0
    0.8381   -3.6333   -2.5488 H   0  0  0  0  0  0  0  0  0  0  0  0
   -0.0463   -2.0987   -2.5529 H   0  0  0  0  0  0  0  0  0  0  0  0
  1  2  2  3
  1  4  1  0
  1 14  1  0
  2  3  1  0
  2  5  1  0
  3  6  1  0
  3  7  1  0
  3  8  1  0
  9 10  1  0
  9 15  1  0
  9 16  1  0
 10 11  1  0
 10 17  1  0
 10 18  1  0
 11 12  1  0
 12 13  1  0
 12 19  1  0
 12 20  1  0
 13 21  1  0
 13 22  1  0
 13 23  1  0
M  RAD  1   9   2
M  END
>  <reaction>  (11) 
rmg_rxn_647

>  <mol_properties>  (11) 
{"0": {"label": "*3", "atom_type": "Cd"}, "1": {"label": "*4", "atom_type": "Cd"}, "8": {"label": "*1", "atom_type": "Cs"}, "9": {"label": "*0", "atom_type": "Cs"}, "13": {"label": "*2", "atom_type": "H0"}}

>  <type>  (11) 
unop_7

>  <geom_source>  (11) 
Heuristics

$$$$

     RDKit          3D

 23 21  0  0  0  0  0  0  0  0999 V2000
   -0.9654    1.7192    0.2572 C   0  0  0  0  0  0  0  0  0  0  0  0
   -2.0915    1.7884    0.9497 C   0  0  0  0  0  0  0  0  0  0  0  0
   -2.9644    2.9972    1.0544 C   0  0  0  0  0  0  0  0  0  0  0  0
   -0.5907    2.5711   -0.3004 H   0  0  0  0  0  0  0  0  0  0  0  0
   -2.4270    0.9085    1.4928 H   0  0  0  0  0  0  0  0  0  0  0  0
   -3.9705    2.7835    0.6845 H   0  0  0  0  0  0  0  0  0  0  0  0
   -2.5585    3.8328    0.4830 H   0  0  0  0  0  0  0  0  0  0  0  0
   -3.0702    3.3114    2.0960 H   0  0  0  0  0  0  0  0  0  0  0  0
    1.1495    0.5252    1.2073 C   0  0  0  0  0  3  0  0  0  0  0  0
    1.1495   -0.9364    0.8237 C   0  0  0  0  0  0  0  0  0  0  0  0
    1.1495   -1.0407   -0.5778 O   0  0  0  0  0  0  0  0  0  0  0  0
    1.1495   -2.3698   -1.0343 C   0  0  0  0  0  0  0  0  0  0  0  0
    1.1495   -2.3698   -2.5455 C   0  0  0  0  0  0  0  0  0  0  0  0
    0.0883    1.1244    0.7306 H   0  0  0  0  0  0  0  0  0  0  0  0
    1.1495    0.6310    2.2933 H   0  0  0  0  0  0  0  0  0  0  0  0
    2.0339    1.0245    0.8100 H   0  0  0  0  0  0  0  0  0  0  0  0
    2.0344   -1.4424    1.2375 H   0  0  0  0  0  0  0  0  0  0  0  0
    0.2646   -1.4424    1.2375 H   0  0  0  0  0  0  0  0  0  0  0  0
    2.0344   -2.8985   -0.6500 H   0  0  0  0  0  0  0  0  0  0  0  0
    0.2646   -2.8985   -0.6500 H   0  0  0  0  0  0  0  0  0  0  0  0
    2.0339   -1.8588   -2.9276 H   0  0  0  0  0  0  0  0  0  0  0  0
    1.1495   -3.3934   -2.9235 H   0  0  0  0  0  0  0  0  0  0  0  0
    0.2651   -1.8588   -2.9276 H   0  0  0  0  0  0  0  0  0  0  0  0
  1  2  2  3
  1  4  1  0
  1 14  1  0
  2  3  1  0
  2  5  1  0
  3  6  1  0
  3  7  1  0
  3  8  1  0
  9 10  1  0
  9 15  1  0
  9 16  1  0
 10 11  1  0
 10 17  1  0
 10 18  1  0
 11 12  1  0
 12 13  1  0
 12 19  1  0
 12 20  1  0
 13 21  1  0
 13 22  1  0
 13 23  1  0
M  RAD  1   9   2
M  END
>  <reaction>  (12) 
rmg_rxn_647

>  <mol_properties>  (12) 
{"0": {"label": "*3", "atom_type": "Cd"}, "1": {"label": "*4", "atom_type": "Cd"}, "8": {"label": "*1", "atom_type": "Cs"}, "9": {"label": "*0", "atom_type": "Cs"}, "13": {"label": "*2", "atom_type": "H0"}}

>  <type>  (12) 
unop_8

>  <geom_source>  (12) 
Heuristics

$$$$

     RDKit          3D

 23 21  0  0  0  0  0  0  0  0999 V2000
   -1.0885    1.8879    0.8256 C   0  0  0  0  0  0  0  0  0  0  0  0
   -1.6643    1.4874   -0.2971 C   0  0  0  0  0  0  0  0  0  0  0  0
   -2.6172    2.3001   -1.1130 C   0  0  0  0  0  0  0  0  0  0  0  0
   -1.2804    2.8719    1.2404 H   0  0  0  0  0  0  0  0  0  0  0  0
   -1.4411    0.4925   -0.6739 H   0  0  0  0  0  0  0  0  0  0  0  0
   -2.2363    2.4436   -2.1274 H   0  0  0  0  0  0  0  0  0  0  0  0
   -2.7869    3.2813   -0.6678 H   0  0  0  0  0  0  0  0  0  0  0  0
   -3.5808    1.7926   -1.2055 H   0  0  0  0  0  0  0  0  0  0  0  0
    1.0264    0.6939    1.7757 C   0  0  0  0  0  3  0  0  0  0  0  0
    1.0264   -0.7677    1.3921 C   0  0  0  0  0  0  0  0  0  0  0  0
    1.0264   -0.8719   -0.0094 O   0  0  0  0  0  0  0  0  0  0  0  0
    1.0264   -2.2011   -0.4660 C   0  0  0  0  0  0  0  0  0  0  0  0
    1.0264   -2.2011   -1.9771 C   0  0  0  0  0  0  0  0  0  0  0  0
   -0.0348    1.2931    1.2989 H   0  0  0  0  0  0  0  0  0  0  0  0
    1.0264    0.7997    2.8617 H   0  0  0  0  0  0  0  0  0  0  0  0
    1.9108    1.1932    1.3784 H   0  0  0  0  0  0  0  0  0  0  0  0
    1.9114   -1.2737    1.8059 H   0  0  0  0  0  0  0  0  0  0  0  0
    0.1415   -1.2737    1.8059 H   0  0  0  0  0  0  0  0  0  0  0  0
    1.9114   -2.7298   -0.0816 H   0  0  0  0  0  0  0  0  0  0  0  0
    0.1415   -2.7298   -0.0816 H   0  0  0  0  0  0  0  0  0  0  0  0
    1.9108   -1.6901   -2.3592 H   0  0  0  0  0  0  0  0  0  0  0  0
    1.0264   -3.2246   -2.3551 H   0  0  0  0  0  0  0  0  0  0  0  0
    0.1421   -1.6901   -2.3592 H   0  0  0  0  0  0  0  0  0  0  0  0
  1  2  2  3
  1  4  1  0
  1 14  1  0
  2  3  1  0
  2  5  1  0
  3  6  1  0
  3  7  1  0
  3  8  1  0
  9 10  1  0
  9 15  1  0
  9 16  1  0
 10 11  1  0
 10 17  1  0
 10 18  1  0
 11 12  1  0
 12 13  1  0
 12 19  1  0
 12 20  1  0
 13 21  1  0
 13 22  1  0
 13 23  1  0
M  RAD  1   9   2
M  END
>  <reaction>  (13) 
rmg_rxn_647

>  <mol_properties>  (13) 
{"0": {"label": "*3", "atom_type": "Cd"}, "1": {"label": "*4", "atom_type": "Cd"}, "8": {"label": "*1", "atom_type": "Cs"}, "9": {"label": "*0", "atom_type": "Cs"}, "13": {"label": "*2", "atom_type": "H0"}}

>  <type>  (13) 
unop_9

>  <geom_source>  (13) 
Heuristics

$$$$

     RDKit          3D

 23 21  0  0  0  0  0  0  0  0999 V2000
   -0.8996    1.8712    0.3419 C   0  0  0  0  0  0  0  0  0  0  0  0
   -2.1211    1.4876    0.6781 C   0  0  0  0  0  0  0  0  0  0  0  0
   -3.3047    2.3925    0.7981 C   0  0  0  0  0  0  0  0  0  0  0  0
   -0.6722    2.9093    0.1236 H   0  0  0  0  0  0  0  0  0  0  0  0
   -2.3006    0.4362    0.8877 H   0  0  0  0  0  0  0  0  0  0  0  0
   -4.1011    2.0838    0.1161 H   0  0  0  0  0  0  0  0  0  0  0  0
   -3.0406    3.4264    0.5723 H   0  0  0  0  0  0  0  0  0  0  0  0
   -3.7211    2.3563    1.8081 H   0  0  0  0  0  0  0  0  0  0  0  0
    1.2154    0.6771    1.2920 C   0  0  0  0  0  3  0  0  0  0  0  0
    1.2154   -0.7845    0.9084 C   0  0  0  0  0  0  0  0  0  0  0  0
    1.2154   -0.8887   -0.4931 O   0  0  0  0  0  0  0  0  0  0  0  0
    1.2154   -2.2179   -0.9496 C   0  0  0  0  0  0  0  0  0  0  0  0
    1.2154   -2.2179   -2.4608 C   0  0  0  0  0  0  0  0  0  0  0  0
    0.1541    1.2763    0.8153 H   0  0  0  0  0  0  0  0  0  0  0  0
    1.2154    0.7829    2.3780 H   0  0  0  0  0  0  0  0  0  0  0  0
    2.0998    1.1764    0.8947 H   0  0  0  0  0  0  0  0  0  0  0  0
    2.1003   -1.2905    1.3222 H   0  0  0  0  0  0  0  0  0  0  0  0
    0.3305   -1.2905    1.3222 H   0  0  0  0  0  0  0  0  0  0  0  0
    2.1003   -2.7465   -0.5653 H   0  0  0  0  0  0  0  0  0  0  0  0
    0.3305   -2.7465   -0.5653 H   0  0  0  0  0  0  0  0  0  0  0  0
    2.0998   -1.7068   -2.8429 H   0  0  0  0  0  0  0  0  0  0  0  0
    1.2154   -3.2414   -2.8388 H   0  0  0  0  0  0  0  0  0  0  0  0
    0.3310   -1.7068   -2.8429 H   0  0  0  0  0  0  0  0  0  0  0  0
  1  2  2  3
  1  4  1  0
  1 14  1  0
  2  3  1  0
  2  5  1  0
  3  6  1  0
  3  7  1  0
  3  8  1  0
  9 10  1  0
  9 15  1  0
  9 16  1  0
 10 11  1  0
 10 17  1  0
 10 18  1  0
 11 12  1  0
 12 13  1  0
 12 19  1  0
 12 20  1  0
 13 21  1  0
 13 22  1  0
 13 23  1  0
M  RAD  1   9   2
M  END
>  <reaction>  (14) 
rmg_rxn_647

>  <mol_properties>  (14) 
{"0": {"label": "*3", "atom_type": "Cd"}, "1": {"label": "*4", "atom_type": "Cd"}, "8": {"label": "*1", "atom_type": "Cs"}, "9": {"label": "*0", "atom_type": "Cs"}, "13": {"label": "*2", "atom_type": "H0"}}

>  <type>  (14) 
unop_10

>  <geom_source>  (14) 
Heuristics

$$$$

     RDKit          3D

 23 21  0  0  0  0  0  0  0  0999 V2000
   -1.2086    1.4582    0.4912 C   0  0  0  0  0  0  0  0  0  0  0  0
   -1.1917    2.7409    0.1644 C   0  0  0  0  0  0  0  0  0  0  0  0
   -2.3214    3.6972    0.3735 C   0  0  0  0  0  0  0  0  0  0  0  0
   -2.0797    1.0025    0.9501 H   0  0  0  0  0  0  0  0  0  0  0  0
   -0.2959    3.1528   -0.2933 H   0  0  0  0  0  0  0  0  0  0  0  0
   -2.0140    4.5282    1.0135 H   0  0  0  0  0  0  0  0  0  0  0  0
   -3.1788    3.2064    0.8357 H   0  0  0  0  0  0  0  0  0  0  0  0
   -2.6440    4.1315   -0.5762 H   0  0  0  0  0  0  0  0  0  0  0  0
    0.9063    0.2642    1.4413 C   0  0  0  0  0  3  0  0  0  0  0  0
    0.9063   -1.1974    1.0577 C   0  0  0  0  0  0  0  0  0  0  0  0
    0.9063   -1.3016   -0.3438 O   0  0  0  0  0  0  0  0  0  0  0  0
    0.9063   -2.6308   -0.8004 C   0  0  0  0  0  0  0  0  0  0  0  0
    0.9063   -2.6308   -2.3115 C   0  0  0  0  0  0  0  0  0  0  0  0
   -0.1550    0.8634    0.9646 H   0  0  0  0  0  0  0  0  0  0  0  0
    0.9063    0.3700    2.5273 H   0  0  0  0  0  0  0  0  0  0  0  0
    1.7907    0.7635    1.0440 H   0  0  0  0  0  0  0  0  0  0  0  0
    1.7912   -1.7034    1.4715 H   0  0  0  0  0  0  0  0  0  0  0  0
    0.0214   -1.7034    1.4715 H   0  0  0  0  0  0  0  0  0  0  0  0
    1.7912   -3.1595   -0.4160 H   0  0  0  0  0  0  0  0  0  0  0  0
    0.0214   -3.1595   -0.4160 H   0  0  0  0  0  0  0  0  0  0  0  0
    1.7907   -2.1198   -2.6936 H   0  0  0  0  0  0  0  0  0  0  0  0
    0.9063   -3.6543   -2.6895 H   0  0  0  0  0  0  0  0  0  0  0  0
    0.0219   -2.1198   -2.6936 H   0  0  0  0  0  0  0  0  0  0  0  0
  1  2  2  3
  1  4  1  0
  1 14  1  0
  2  3  1  0
  2  5  1  0
  3  6  1  0
  3  7  1  0
  3  8  1  0
  9 10  1  0
  9 15  1  0
  9 16  1  0
 10 11  1  0
 10 17  1  0
 10 18  1  0
 11 12  1  0
 12 13  1  0
 12 19  1  0
 12 20  1  0
 13 21  1  0
 13 22  1  0
 13 23  1  0
M  RAD  1   9   2
M  END
>  <reaction>  (15) 
rmg_rxn_647

>  <mol_properties>  (15) 
{"0": {"label": "*3", "atom_type": "Cd"}, "1": {"label": "*4", "atom_type": "Cd"}, "8": {"label": "*1", "atom_type": "Cs"}, "9": {"label": "*0", "atom_type": "Cs"}, "13": {"label": "*2", "atom_type": "H0"}}

>  <type>  (15) 
unop_11

>  <geom_source>  (15) 
Heuristics

$$$$

     RDKit          3D

 23 21  0  0  0  0  0  0  0  0999 V2000
   -0.9694    1.9787    0.6934 C   0  0  0  0  0  0  0  0  0  0  0  0
   -1.8733    1.3240   -0.0184 C   0  0  0  0  0  0  0  0  0  0  0  0
   -3.1116    1.9261   -0.6001 C   0  0  0  0  0  0  0  0  0  0  0  0
   -1.0758    3.0370    0.9076 H   0  0  0  0  0  0  0  0  0  0  0  0
   -1.7236    0.2640   -0.2072 H   0  0  0  0  0  0  0  0  0  0  0  0
   -3.1262    1.8113   -1.6870 H   0  0  0  0  0  0  0  0  0  0  0  0
   -3.1862    2.9887   -0.3658 H   0  0  0  0  0  0  0  0  0  0  0  0
   -4.0045    1.4255   -0.2169 H   0  0  0  0  0  0  0  0  0  0  0  0
    1.1455    0.7847    1.6435 C   0  0  0  0  0  3  0  0  0  0  0  0
    1.1455   -0.6769    1.2599 C   0  0  0  0  0  0  0  0  0  0  0  0
    1.1455   -0.7812   -0.1416 O   0  0  0  0  0  0  0  0  0  0  0  0
    1.1455   -2.1103   -0.5982 C   0  0  0  0  0  0  0  0  0  0  0  0
    1.1455   -2.1103   -2.1093 C   0  0  0  0  0  0  0  0  0  0  0  0
    0.0842    1.3839    1.1668 H   0  0  0  0  0  0  0  0  0  0  0  0
    1.1455    0.8905    2.7295 H   0  0  0  0  0  0  0  0  0  0  0  0
    2.0299    1.2840    1.2462 H   0  0  0  0  0  0  0  0  0  0  0  0
    2.0304   -1.1829    1.6737 H   0  0  0  0  0  0  0  0  0  0  0  0
    0.2606   -1.1829    1.6737 H   0  0  0  0  0  0  0  0  0  0  0  0
    2.0304   -2.6390   -0.2138 H   0  0  0  0  0  0  0  0  0  0  0  0
    0.2606   -2.6390   -0.2138 H   0  0  0  0  0  0  0  0  0  0  0  0
    2.0299   -1.5993   -2.4914 H   0  0  0  0  0  0  0  0  0  0  0  0
    1.1455   -3.1338   -2.4873 H   0  0  0  0  0  0  0  0  0  0  0  0
    0.2611   -1.5993   -2.4914 H   0  0  0  0  0  0  0  0  0  0  0  0
  1  2  2  3
  1  4  1  0
  1 14  1  0
  2  3  1  0
  2  5  1  0
  3  6  1  0
  3  7  1  0
  3  8  1  0
  9 10  1  0
  9 15  1  0
  9 16  1  0
 10 11  1  0
 10 17  1  0
 10 18  1  0
 11 12  1  0
 12 13  1  0
 12 19  1  0
 12 20  1  0
 13 21  1  0
 13 22  1  0
 13 23  1  0
M  RAD  1   9   2
M  END
>  <reaction>  (16) 
rmg_rxn_647

>  <mol_properties>  (16) 
{"0": {"label": "*3", "atom_type": "Cd"}, "1": {"label": "*4", "atom_type": "Cd"}, "8": {"label": "*1", "atom_type": "Cs"}, "9": {"label": "*0", "atom_type": "Cs"}, "13": {"label": "*2", "atom_type": "H0"}}

>  <type>  (16) 
unop_12

>  <geom_source>  (16) 
Heuristics

$$$$

     RDKit          3D

 23 21  0  0  0  0  0  0  0  0999 V2000
   -1.7635   -0.2690   -0.5490 O   0  0  0  0  0  0  0  0  0  0  0  0
   -2.4941    0.0248    0.6271 C   0  0  0  0  0  0  0  0  0  0  0  0
   -0.8520   -1.3214   -0.3153 C   0  0  0  0  0  0  0  0  0  0  0  0
   -1.8641    1.2041    1.3599 C   0  0  0  0  0  0  0  0  0  0  0  0
    1.8546    1.3662    0.4690 C   0  0  0  0  0  0  0  0  0  0  0  0
    2.7746    0.5650   -0.3974 C   0  0  0  0  0  0  0  0  0  0  0  0
    0.0006   -1.5204   -1.5559 C   0  0  0  0  0  3  0  0  0  0  0  0
    2.3037   -0.3990   -1.1902 C   0  0  0  0  0  0  0  0  0  0  0  0
   -3.5234    0.3146    0.3274 H   0  0  0  0  0  0  0  0  0  0  0  0
   -2.6001   -0.8425    1.3217 H   0  0  0  0  0  0  0  0  0  0  0  0
   -0.8460    0.9396    1.7141 H   0  0  0  0  0  0  0  0  0  0  0  0
   -1.7975    2.0812    0.6818 H   0  0  0  0  0  0  0  0  0  0  0  0
   -2.4876    1.4752    2.2378 H   0  0  0  0  0  0  0  0  0  0  0  0
   -1.3968   -2.2697   -0.1064 H   0  0  0  0  0  0  0  0  0  0  0  0
   -0.1733   -1.0833    0.5343 H   0  0  0  0  0  0  0  0  0  0  0  0
    2.4396    2.1117    1.0471 H   0  0  0  0  0  0  0  0  0  0  0  0
    1.1120    1.9018   -0.1595 H   0  0  0  0  0  0  0  0  0  0  0  0
    1.3240    0.6973    1.1793 H   0  0  0  0  0  0  0  0  0  0  0  0
    3.8406    0.7717   -0.3802 H   0  0  0  0  0  0  0  0  0  0  0  0
   -0.6394   -1.7895   -2.4228 H   0  0  0  0  0  0  0  0  0  0  0  0
    0.7426   -2.3283   -1.3828 H   0  0  0  0  0  0  0  0  0  0  0  0
    2.9830   -0.9718   -1.8131 H   0  0  0  0  0  0  0  0  0  0  0  0
    1.0625   -0.6583   -1.2270 H   0  0  0  0  0  0  0  0  0  0  0  0
  1  3  1  0
  1  2  1  0
  2  4  1  0
  2  9  1  0
  2 10  1  0
  3  7  1  0
  3 14  1  0
  3 15  1  0
  4 11  1  0
  4 12  1  0
  4 13  1  0
  5  6  1  0
  5 16  1  0
  5 17  1  0
  5 18  1  0
  6  8  2  3
  6 19  1  0
  7 20  1  0
  7 21  1  0
  8 22  1  0
  8 23  1  0
M  RAD  1   7   2
M  END
>  <reaction>  (17) 
rmg_rxn_647

>  <mol_properties>  (17) 
{"0": {"label": "*3", "atom_type": "Cd"}, "1": {"label": "*4", "atom_type": "Cd"}, "8": {"label": "*1", "atom_type": "Cs"}, "9": {"label": "*0", "atom_type": "Cs"}, "13": {"label": "*2", "atom_type": "H0"}}

>  <type>  (17) 
unop_13

>  <geom_source>  (17) 
AutoTST

$$$$

     RDKit          3D

 23 21  0  0  0  0  0  0  0  0999 V2000
   -0.8982    1.9715    0.5070 C   0  0  0  0  0  0  0  0  0  0  0  0
   -2.0384    1.3231    0.3291 C   0  0  0  0  0  0  0  0  0  0  0  0
   -3.3767    1.9665    0.1584 C   0  0  0  0  0  0  0  0  0  0  0  0
   -0.8628    3.0554    0.5413 H   0  0  0  0  0  0  0  0  0  0  0  0
   -2.0239    0.2365    0.3017 H   0  0  0  0  0  0  0  0  0  0  0  0
   -3.8239    1.6859   -0.7987 H   0  0  0  0  0  0  0  0  0  0  0  0
   -3.3042    3.0540    0.1981 H   0  0  0  0  0  0  0  0  0  0  0  0
   -4.0682    1.6388    0.9390 H   0  0  0  0  0  0  0  0  0  0  0  0
    1.2168    0.7775    1.4571 C   0  0  0  0  0  3  0  0  0  0  0  0
    1.2168   -0.6841    1.0735 C   0  0  0  0  0  0  0  0  0  0  0  0
    1.2168   -0.7883   -0.3280 O   0  0  0  0  0  0  0  0  0  0  0  0
    1.2168   -2.1175   -0.7846 C   0  0  0  0  0  0  0  0  0  0  0  0
    1.2168   -2.1175   -2.2957 C   0  0  0  0  0  0  0  0  0  0  0  0
    0.1555    1.3767    0.9803 H   0  0  0  0  0  0  0  0  0  0  0  0
    1.2168    0.8833    2.5431 H   0  0  0  0  0  0  0  0  0  0  0  0
    2.1012    1.2768    1.0598 H   0  0  0  0  0  0  0  0  0  0  0  0
    2.1017   -1.1901    1.4873 H   0  0  0  0  0  0  0  0  0  0  0  0
    0.3319   -1.1901    1.4873 H   0  0  0  0  0  0  0  0  0  0  0  0
    2.1017   -2.6461   -0.4002 H   0  0  0  0  0  0  0  0  0  0  0  0
    0.3319   -2.6461   -0.4002 H   0  0  0  0  0  0  0  0  0  0  0  0
    2.1012   -1.6064   -2.6778 H   0  0  0  0  0  0  0  0  0  0  0  0
    1.2168   -3.1410   -2.6737 H   0  0  0  0  0  0  0  0  0  0  0  0
    0.3324   -1.6064   -2.6778 H   0  0  0  0  0  0  0  0  0  0  0  0
  1  2  2  3
  1  4  1  0
  1 14  1  0
  2  3  1  0
  2  5  1  0
  3  6  1  0
  3  7  1  0
  3  8  1  0
  9 10  1  0
  9 15  1  0
  9 16  1  0
 10 11  1  0
 10 17  1  0
 10 18  1  0
 11 12  1  0
 12 13  1  0
 12 19  1  0
 12 20  1  0
 13 21  1  0
 13 22  1  0
 13 23  1  0
M  RAD  1   9   2
M  END
>  <reaction>  (18) 
rmg_rxn_647

>  <mol_properties>  (18) 
{"0": {"label": "*3", "atom_type": "Cd"}, "1": {"label": "*4", "atom_type": "Cd"}, "8": {"label": "*1", "atom_type": "Cs"}, "9": {"label": "*0", "atom_type": "Cs"}, "13": {"label": "*2", "atom_type": "H0"}}

>  <type>  (18) 
unop_14

>  <geom_source>  (18) 
gaussian_log

$$$$
