
     RDKit          3D

 12 11  0  0  0  0  0  0  0  0999 V2000
    1.8075    0.1979    0.4695 C   0  0  0  0  0  0  0  0  0  0  0  0
    1.0072   -0.8859   -0.7259 S   0  0  0  0  0  0  0  0  0  0  0  0
   -0.7258   -0.6904   -0.2447 C   0  0  0  0  0  0  0  0  0  0  0  0
   -1.0856   -1.2776    1.1108 C   0  0  0  0  0  0  0  0  0  0  0  0
    1.7126   -0.1777    1.4878 H   0  0  0  0  0  0  0  0  0  0  0  0
    1.4024    1.2089    0.4095 H   0  0  0  0  0  0  0  0  0  0  0  0
    2.8647    0.2298    0.2095 H   0  0  0  0  0  0  0  0  0  0  0  0
   -1.2866   -1.1892   -1.0369 H   0  0  0  0  0  0  0  0  0  0  0  0
   -0.9814    0.3707   -0.2917 H   0  0  0  0  0  0  0  0  0  0  0  0
   -0.5492   -0.7768    1.9180 H   0  0  0  0  0  0  0  0  0  0  0  0
   -0.8418   -2.3397    1.1503 H   0  0  0  0  0  0  0  0  0  0  0  0
   -2.1545   -1.1604    1.3035 H   0  0  0  0  0  0  0  0  0  0  0  0
  1  2  1  0
  1  5  1  0
  1  6  1  0
  1  7  1  0
  2  3  1  0
  3  4  1  0
  3  8  1  0
  3  9  1  0
  4 10  1  0
  4 11  1  0
  4 12  1  0
M  END
>  <reaction>  (1) 
rmg_rxn_15498

>  <mol_properties>  (1) 
{"2": {"label": "donator", "atom_type": "Cs"}, "7": {"label": "d_hydrogen", "atom_type": "H0"}}

>  <type>  (1) 
r1h

$$$$

     RDKit          3D

  5  4  0  0  0  0  0  0  0  0999 V2000
    0.8934    0.3742    0.4948 O   0  0  0  0  0  0  0  0  0  0  0  0
    0.1582   -0.1610   -0.5904 N   0  0  0  0  0  0  0  0  0  0  0  0
   -1.0297   -0.3739   -0.4689 C   0  0  0  0  0  3  0  0  0  0  0  0
    1.7804    0.4382    0.1306 H   0  0  0  0  0  0  0  0  0  0  0  0
   -1.8023   -0.2775    0.2859 H   0  0  0  0  0  0  0  0  0  0  0  0
  1  2  1  0
  1  4  1  0
  2  3  2  3
  3  5  1  0
M  RAD  1   3   2
M  END
>  <reaction>  (2) 
rmg_rxn_15498

>  <mol_properties>  (2) 
{"2": {"label": "acceptor", "atom_type": "Cd"}}

>  <type>  (2) 
r2

$$$$

     RDKit          3D

  6  5  0  0  0  0  0  0  0  0999 V2000
    1.2314    0.0428    0.5088 O   0  0  0  0  0  0  0  0  0  0  0  0
    0.2987    0.2341   -0.4915 N   0  0  0  0  0  0  0  0  0  0  0  0
   -0.8599   -0.1122   -0.1290 C   0  0  0  0  0  0  0  0  0  0  0  0
    2.0507    0.3401    0.1082 H   0  0  0  0  0  0  0  0  0  0  0  0
   -1.0700   -0.5112    0.8610 H   0  0  0  0  0  0  0  0  0  0  0  0
   -1.6509    0.0064   -0.8574 H   0  0  0  0  0  0  0  0  0  0  0  0
  1  2  1  0
  1  4  1  0
  2  3  2  3
  3  5  1  0
  3  6  1  0
M  END
>  <reaction>  (3) 
rmg_rxn_15498

>  <mol_properties>  (3) 
{"2": {"label": "acceptor", "atom_type": "Cd"}, "5": {"label": "a_hydrogen", "atom_type": "H0"}}

>  <type>  (3) 
r2h

$$$$

     RDKit          3D

 17 15  0  0  0  0  0  0  0  0999 V2000
   -1.1508    0.0121    2.9859 O   0  0  0  0  0  0  0  0  0  0  0  0
   -0.9785    0.1445    1.5976 N   0  0  0  0  0  0  0  0  0  0  0  0
    0.1018    0.6548    1.2611 C   0  0  0  0  0  3  0  0  0  0  0  0
   -2.0225   -0.3845    3.0532 H   0  0  0  0  0  0  0  0  0  0  0  0
    0.9160    1.0030    1.8968 H   0  0  0  0  0  0  0  0  0  0  0  0
   -0.1848   -1.7894   -1.6286 C   0  0  0  0  0  0  0  0  0  0  0  0
    1.0784   -0.5883   -2.0806 S   0  0  0  0  0  0  0  0  0  0  0  0
    0.3220    0.8864   -1.4439 C   0  0  0  0  0  0  0  0  0  0  0  0
    1.1190    2.1364   -1.7360 C   0  0  0  0  0  0  0  0  0  0  0  0
   -1.1196   -1.5842   -2.1504 H   0  0  0  0  0  0  0  0  0  0  0  0
   -0.3548   -1.7769   -0.5525 H   0  0  0  0  0  0  0  0  0  0  0  0
    0.1810   -2.7710   -1.9253 H   0  0  0  0  0  0  0  0  0  0  0  0
    0.2513    0.7703   -0.2234 H   0  0  0  0  0  0  0  0  0  0  0  0
   -0.7231    0.9624   -1.7502 H   0  0  0  0  0  0  0  0  0  0  0  0
    1.1587    2.3403   -2.8082 H   0  0  0  0  0  0  0  0  0  0  0  0
    2.1437    2.0436   -1.3718 H   0  0  0  0  0  0  0  0  0  0  0  0
    0.6595    2.9955   -1.2448 H   0  0  0  0  0  0  0  0  0  0  0  0
  1  2  1  0
  1  4  1  0
  2  3  2  3
  3  5  1  0
  6  7  1  0
  6 10  1  0
  6 11  1  0
  6 12  1  0
  7  8  1  0
  8  9  1  0
  8 13  1  0
  8 14  1  0
  9 15  1  0
  9 16  1  0
  9 17  1  0
M  RAD  1   3   2
M  END
>  <reaction>  (4) 
rmg_rxn_15498

>  <mol_properties>  (4) 
{"1": {"label": "*4", "atom_type": "N3d"}, "2": {"label": "*3", "atom_type": "Cd"}, "6": {"label": "*0", "atom_type": "S2s"}, "7": {"label": "*1", "atom_type": "Cs"}, "12": {"label": "*2", "atom_type": "H0"}}

>  <type>  (4) 
ts

$$$$

     RDKit          3D

 17 15  0  0  0  0  0  0  0  0999 V2000
    3.3256   -0.4323   -0.1754 O   0  0  0  0  0  0  0  0  0  0  0  0
    1.9864   -0.1204   -0.1432 N   0  0  0  0  0  0  0  0  0  0  0  0
    1.5159    0.6461    0.7157 C   0  0  0  0  0  0  0  0  0  0  0  0
    3.8150    0.0134    0.5418 H   0  0  0  0  0  0  0  0  0  0  0  0
    2.0623    1.1492    1.5159 H   0  0  0  0  0  0  0  0  0  0  0  0
   -1.0627   -1.4633   -0.8656 C   0  0  0  0  0  0  0  0  0  0  0  0
   -1.8179   -0.5757    0.5297 S   0  0  0  0  0  0  0  0  0  0  0  0
   -1.0703    1.0115    0.3790 C   0  0  0  0  0  3  0  0  0  0  0  0
   -1.1454    1.6959   -0.9595 C   0  0  0  0  0  0  0  0  0  0  0  0
   -1.5338   -1.1578   -1.7946 H   0  0  0  0  0  0  0  0  0  0  0  0
   -1.2440   -2.5185   -0.6905 H   0  0  0  0  0  0  0  0  0  0  0  0
    0.0035   -1.2553   -0.8734 H   0  0  0  0  0  0  0  0  0  0  0  0
    0.2529    0.8397    0.6129 H   0  0  0  0  0  0  0  0  0  0  0  0
   -1.4346    1.6204    1.2029 H   0  0  0  0  0  0  0  0  0  0  0  0
   -0.6119    1.1285   -1.7187 H   0  0  0  0  0  0  0  0  0  0  0  0
   -0.6926    2.6831   -0.8899 H   0  0  0  0  0  0  0  0  0  0  0  0
   -2.1820    1.8173   -1.2798 H   0  0  0  0  0  0  0  0  0  0  0  0
  1  2  1  0
  1  4  1  0
  2  3  2  3
  3  5  1  0
  3 13  1  0
  6  7  1  0
  6 10  1  0
  6 11  1  0
  6 12  1  0
  7  8  1  0
  8  9  1  0
  8 14  1  0
  9 15  1  0
  9 16  1  0
  9 17  1  0
M  RAD  1   8   2
M  END
>  <reaction>  (5) 
rmg_rxn_15498

>  <mol_properties>  (5) 
{"1": {"label": "*4", "atom_type": "N3d"}, "2": {"label": "*3", "atom_type": "Cd"}, "6": {"label": "*0", "atom_type": "S2s"}, "7": {"label": "*1", "atom_type": "Cs"}, "12": {"label": "*2", "atom_type": "H0"}}

>  <type>  (5) 
unop_1

>  <geom_source>  (5) 
crest_best.xyz

$$$$

     RDKit          3D

 17 15  0  0  0  0  0  0  0  0999 V2000
   -0.2046    1.8682    3.3426 O   0  0  0  0  0  0  0  0  0  0  0  0
    0.3263    1.0107    2.3993 N   0  0  0  0  0  0  0  0  0  0  0  0
   -0.5726    0.4377    1.7232 C   0  0  0  0  0  0  0  0  0  0  0  0
    0.5711    2.2291    3.7762 H   0  0  0  0  0  0  0  0  0  0  0  0
   -1.6332    0.6172    1.8859 H   0  0  0  0  0  0  0  0  0  0  0  0
   -0.1638   -1.5221   -2.9801 C   0  0  0  0  0  0  0  0  0  0  0  0
   -0.1638   -1.5221   -1.1789 S   0  0  0  0  0  0  0  0  0  0  0  0
   -0.1638    0.2562   -0.8459 C   0  0  0  0  0  3  0  0  0  0  0  0
    1.1153    0.9814   -1.2323 C   0  0  0  0  0  0  0  0  0  0  0  0
    0.7626   -1.1190   -3.3877 H   0  0  0  0  0  0  0  0  0  0  0  0
   -1.0138   -0.9596   -3.3686 H   0  0  0  0  0  0  0  0  0  0  0  0
   -0.2585   -2.5600   -3.2964 H   0  0  0  0  0  0  0  0  0  0  0  0
   -0.3691    0.3473    0.4442 H   0  0  0  0  0  0  0  0  0  0  0  0
   -1.0305    0.7016   -1.3396 H   0  0  0  0  0  0  0  0  0  0  0  0
    1.2922    0.9335   -2.3077 H   0  0  0  0  0  0  0  0  0  0  0  0
    1.9770    0.5432   -0.7278 H   0  0  0  0  0  0  0  0  0  0  0  0
    1.0518    2.0364   -0.9557 H   0  0  0  0  0  0  0  0  0  0  0  0
  1  2  1  0
  1  4  1  0
  2  3  2  3
  3  5  1  0
  3 13  1  0
  6  7  1  0
  6 10  1  0
  6 11  1  0
  6 12  1  0
  7  8  1  0
  8  9  1  0
  8 14  1  0
  9 15  1  0
  9 16  1  0
  9 17  1  0
M  RAD  1   8   2
M  END
>  <reaction>  (6) 
rmg_rxn_15498

>  <mol_properties>  (6) 
{"1": {"label": "*4", "atom_type": "N3d"}, "2": {"label": "*3", "atom_type": "Cd"}, "6": {"label": "*0", "atom_type": "S2s"}, "7": {"label": "*1", "atom_type": "Cs"}, "12": {"label": "*2", "atom_type": "H0"}}

>  <type>  (6) 
unop_2

>  <geom_source>  (6) 
Heuristics

$$$$

     RDKit          3D

 17 15  0  0  0  0  0  0  0  0999 V2000
    3.3249   -0.4318   -0.1750 O   0  0  0  0  0  0  0  0  0  0  0  0
    1.9855   -0.1205   -0.1425 N   0  0  0  0  0  0  0  0  0  0  0  0
    1.5156    0.6499    0.7133 C   0  0  0  0  0  0  0  0  0  0  0  0
    3.8149    0.0176    0.5396 H   0  0  0  0  0  0  0  0  0  0  0  0
    2.0626    1.1566    1.5106 H   0  0  0  0  0  0  0  0  0  0  0  0
   -1.0598   -1.4636   -0.8658 C   0  0  0  0  0  0  0  0  0  0  0  0
   -1.8159   -0.5775    0.5301 S   0  0  0  0  0  0  0  0  0  0  0  0
   -1.0715    1.0112    0.3792 C   0  0  0  0  0  3  0  0  0  0  0  0
   -1.1497    1.6961   -0.9588 C   0  0  0  0  0  0  0  0  0  0  0  0
   -1.2397   -2.5190   -0.6912 H   0  0  0  0  0  0  0  0  0  0  0  0
    0.0062   -1.2541   -0.8736 H   0  0  0  0  0  0  0  0  0  0  0  0
   -1.5314   -1.1581   -1.7946 H   0  0  0  0  0  0  0  0  0  0  0  0
    0.2522    0.8417    0.6114 H   0  0  0  0  0  0  0  0  0  0  0  0
   -1.4360    1.6190    1.2038 H   0  0  0  0  0  0  0  0  0  0  0  0
   -0.6988    2.6841   -0.8894 H   0  0  0  0  0  0  0  0  0  0  0  0
   -2.1871    1.8156   -1.2776 H   0  0  0  0  0  0  0  0  0  0  0  0
   -0.6162    1.1301   -1.7191 H   0  0  0  0  0  0  0  0  0  0  0  0
  1  2  1  0
  1  4  1  0
  2  3  2  3
  3  5  1  0
  3 13  1  0
  6  7  1  0
  6 10  1  0
  6 11  1  0
  6 12  1  0
  7  8  1  0
  8  9  1  0
  8 14  1  0
  9 15  1  0
  9 16  1  0
  9 17  1  0
M  RAD  1   8   2
M  END
>  <reaction>  (7) 
rmg_rxn_15498

>  <mol_properties>  (7) 
{"1": {"label": "*4", "atom_type": "N3d"}, "2": {"label": "*3", "atom_type": "Cd"}, "6": {"label": "*0", "atom_type": "S2s"}, "7": {"label": "*1", "atom_type": "Cs"}, "12": {"label": "*2", "atom_type": "H0"}}

>  <type>  (7) 
unop_3

>  <geom_source>  (7) 
Heuristics

$$$$

     RDKit          3D

 17 15  0  0  0  0  0  0  0  0999 V2000
    3.3256   -0.4322   -0.1748 O   0  0  0  0  0  0  0  0  0  0  0  0
    1.9861   -0.1212   -0.1424 N   0  0  0  0  0  0  0  0  0  0  0  0
    1.5163    0.6506    0.7120 C   0  0  0  0  0  0  0  0  0  0  0  0
    3.8156    0.0185    0.5388 H   0  0  0  0  0  0  0  0  0  0  0  0
    2.0634    1.1592    1.5081 H   0  0  0  0  0  0  0  0  0  0  0  0
   -1.0617   -1.4632   -0.8665 C   0  0  0  0  0  0  0  0  0  0  0  0
   -1.8155   -0.5775    0.5308 S   0  0  0  0  0  0  0  0  0  0  0  0
   -1.0712    1.0111    0.3793 C   0  0  0  0  0  3  0  0  0  0  0  0
   -1.1506    1.6960   -0.9587 C   0  0  0  0  0  0  0  0  0  0  0  0
   -1.2419   -2.5187   -0.6922 H   0  0  0  0  0  0  0  0  0  0  0  0
    0.0044   -1.2544   -0.8755 H   0  0  0  0  0  0  0  0  0  0  0  0
   -1.5344   -1.1571   -1.7944 H   0  0  0  0  0  0  0  0  0  0  0  0
    0.2527    0.8419    0.6105 H   0  0  0  0  0  0  0  0  0  0  0  0
   -1.4349    1.6190    1.2042 H   0  0  0  0  0  0  0  0  0  0  0  0
   -2.1882    1.8155   -1.2766 H   0  0  0  0  0  0  0  0  0  0  0  0
   -0.6177    1.1301   -1.7195 H   0  0  0  0  0  0  0  0  0  0  0  0
   -0.6997    2.6841   -0.8897 H   0  0  0  0  0  0  0  0  0  0  0  0
  1  2  1  0
  1  4  1  0
  2  3  2  3
  3  5  1  0
  3 13  1  0
  6  7  1  0
  6 10  1  0
  6 11  1  0
  6 12  1  0
  7  8  1  0
  8  9  1  0
  8 14  1  0
  9 15  1  0
  9 16  1  0
  9 17  1  0
M  RAD  1   8   2
M  END
>  <reaction>  (8) 
rmg_rxn_15498

>  <mol_properties>  (8) 
{"1": {"label": "*4", "atom_type": "N3d"}, "2": {"label": "*3", "atom_type": "Cd"}, "6": {"label": "*0", "atom_type": "S2s"}, "7": {"label": "*1", "atom_type": "Cs"}, "12": {"label": "*2", "atom_type": "H0"}}

>  <type>  (8) 
unop_4

>  <geom_source>  (8) 
Heuristics

$$$$

     RDKit          3D

 17 15  0  0  0  0  0  0  0  0999 V2000
   -0.0158    0.3058    3.6985 O   0  0  0  0  0  0  0  0  0  0  0  0
   -0.1145   -0.0459    2.3668 N   0  0  0  0  0  0  0  0  0  0  0  0
   -0.5434    0.9063    1.6577 C   0  0  0  0  0  0  0  0  0  0  0  0
    0.3150   -0.4924    4.1150 H   0  0  0  0  0  0  0  0  0  0  0  0
   -0.7975    1.8791    2.0733 H   0  0  0  0  0  0  0  0  0  0  0  0
   -0.1347   -1.0534   -3.0456 C   0  0  0  0  0  0  0  0  0  0  0  0
   -0.1347   -1.0534   -1.2444 S   0  0  0  0  0  0  0  0  0  0  0  0
   -0.1347    0.7248   -0.9114 C   0  0  0  0  0  3  0  0  0  0  0  0
    1.1445    1.4501   -1.2978 C   0  0  0  0  0  0  0  0  0  0  0  0
    0.7918   -0.6503   -3.4533 H   0  0  0  0  0  0  0  0  0  0  0  0
   -0.9846   -0.4910   -3.4341 H   0  0  0  0  0  0  0  0  0  0  0  0
   -0.2293   -2.0913   -3.3619 H   0  0  0  0  0  0  0  0  0  0  0  0
   -0.3399    0.8160    0.3787 H   0  0  0  0  0  0  0  0  0  0  0  0
   -1.0014    1.1703   -1.4051 H   0  0  0  0  0  0  0  0  0  0  0  0
    1.3214    1.4022   -2.3733 H   0  0  0  0  0  0  0  0  0  0  0  0
    2.0062    1.0119   -0.7933 H   0  0  0  0  0  0  0  0  0  0  0  0
    1.0810    2.5050   -1.0213 H   0  0  0  0  0  0  0  0  0  0  0  0
  1  2  1  0
  1  4  1  0
  2  3  2  3
  3  5  1  0
  3 13  1  0
  6  7  1  0
  6 10  1  0
  6 11  1  0
  6 12  1  0
  7  8  1  0
  8  9  1  0
  8 14  1  0
  9 15  1  0
  9 16  1  0
  9 17  1  0
M  RAD  1   8   2
M  END
>  <reaction>  (9) 
rmg_rxn_15498

>  <mol_properties>  (9) 
{"1": {"label": "*4", "atom_type": "N3d"}, "2": {"label": "*3", "atom_type": "Cd"}, "6": {"label": "*0", "atom_type": "S2s"}, "7": {"label": "*1", "atom_type": "Cs"}, "12": {"label": "*2", "atom_type": "H0"}}

>  <type>  (9) 
unop_5

>  <geom_source>  (9) 
Heuristics

$$$$

     RDKit          3D

 17 15  0  0  0  0  0  0  0  0999 V2000
    3.3251   -0.4318   -0.1749 O   0  0  0  0  0  0  0  0  0  0  0  0
    1.9858   -0.1204   -0.1427 N   0  0  0  0  0  0  0  0  0  0  0  0
    1.5157    0.6497    0.7132 C   0  0  0  0  0  0  0  0  0  0  0  0
    3.8149    0.0166    0.5403 H   0  0  0  0  0  0  0  0  0  0  0  0
    2.0627    1.1561    1.5108 H   0  0  0  0  0  0  0  0  0  0  0  0
   -1.0604   -1.4634   -0.8660 C   0  0  0  0  0  0  0  0  0  0  0  0
   -1.8158   -0.5775    0.5303 S   0  0  0  0  0  0  0  0  0  0  0  0
   -1.0714    1.0112    0.3793 C   0  0  0  0  0  3  0  0  0  0  0  0
   -1.1499    1.6961   -0.9588 C   0  0  0  0  0  0  0  0  0  0  0  0
   -1.5324   -1.1578   -1.7946 H   0  0  0  0  0  0  0  0  0  0  0  0
   -1.2403   -2.5189   -0.6915 H   0  0  0  0  0  0  0  0  0  0  0  0
    0.0056   -1.2540   -0.8743 H   0  0  0  0  0  0  0  0  0  0  0  0
    0.2524    0.8417    0.6112 H   0  0  0  0  0  0  0  0  0  0  0  0
   -1.4356    1.6190    1.2039 H   0  0  0  0  0  0  0  0  0  0  0  0
   -0.6989    2.6841   -0.8894 H   0  0  0  0  0  0  0  0  0  0  0  0
   -2.1873    1.8156   -1.2773 H   0  0  0  0  0  0  0  0  0  0  0  0
   -0.6165    1.1301   -1.7192 H   0  0  0  0  0  0  0  0  0  0  0  0
  1  2  1  0
  1  4  1  0
  2  3  2  3
  3  5  1  0
  3 13  1  0
  6  7  1  0
  6 10  1  0
  6 11  1  0
  6 12  1  0
  7  8  1  0
  8  9  1  0
  8 14  1  0
  9 15  1  0
  9 16  1  0
  9 17  1  0
M  RAD  1   8   2
M  END
>  <reaction>  (10) 
rmg_rxn_15498

>  <mol_properties>  (10) 
{"1": {"label": "*4", "atom_type": "N3d"}, "2": {"label": "*3", "atom_type": "Cd"}, "6": {"label": "*0", "atom_type": "S2s"}, "7": {"label": "*1", "atom_type": "Cs"}, "12": {"label": "*2", "atom_type": "H0"}}

>  <type>  (10) 
unop_6

>  <geom_source>  (10) 
Heuristics

$$$$

     RDKit          3D

 17 15  0  0  0  0  0  0  0  0999 V2000
   -0.7051    1.8188    3.3710 O   0  0  0  0  0  0  0  0  0  0  0  0
    0.0726    1.3878    2.3143 N   0  0  0  0  0  0  0  0  0  0  0  0
   -0.4353    0.3905    1.7304 C   0  0  0  0  0  0  0  0  0  0  0  0
   -0.2134    2.5655    3.7184 H   0  0  0  0  0  0  0  0  0  0  0  0
   -1.3762   -0.0564    2.0440 H   0  0  0  0  0  0  0  0  0  0  0  0
   -0.0265   -1.5692   -2.9729 C   0  0  0  0  0  0  0  0  0  0  0  0
   -0.0265   -1.5692   -1.1717 S   0  0  0  0  0  0  0  0  0  0  0  0
   -0.0265    0.2090   -0.8387 C   0  0  0  0  0  3  0  0  0  0  0  0
    1.2527    0.9343   -1.2251 C   0  0  0  0  0  0  0  0  0  0  0  0
    0.8999   -1.1661   -3.3805 H   0  0  0  0  0  0  0  0  0  0  0  0
   -0.8765   -1.0068   -3.3614 H   0  0  0  0  0  0  0  0  0  0  0  0
   -0.1212   -2.6072   -3.2892 H   0  0  0  0  0  0  0  0  0  0  0  0
   -0.2318    0.3002    0.4514 H   0  0  0  0  0  0  0  0  0  0  0  0
   -0.8932    0.6545   -1.3324 H   0  0  0  0  0  0  0  0  0  0  0  0
    1.4295    0.8864   -2.3005 H   0  0  0  0  0  0  0  0  0  0  0  0
    2.1143    0.4961   -0.7206 H   0  0  0  0  0  0  0  0  0  0  0  0
    1.1892    1.9892   -0.9485 H   0  0  0  0  0  0  0  0  0  0  0  0
  1  2  1  0
  1  4  1  0
  2  3  2  3
  3  5  1  0
  3 13  1  0
  6  7  1  0
  6 10  1  0
  6 11  1  0
  6 12  1  0
  7  8  1  0
  8  9  1  0
  8 14  1  0
  9 15  1  0
  9 16  1  0
  9 17  1  0
M  RAD  1   8   2
M  END
>  <reaction>  (11) 
rmg_rxn_15498

>  <mol_properties>  (11) 
{"1": {"label": "*4", "atom_type": "N3d"}, "2": {"label": "*3", "atom_type": "Cd"}, "6": {"label": "*0", "atom_type": "S2s"}, "7": {"label": "*1", "atom_type": "Cs"}, "12": {"label": "*2", "atom_type": "H0"}}

>  <type>  (11) 
unop_7

>  <geom_source>  (11) 
Heuristics

$$$$

     RDKit          3D

 17 15  0  0  0  0  0  0  0  0999 V2000
   -1.6240    0.9355    3.2952 O   0  0  0  0  0  0  0  0  0  0  0  0
   -1.1456    0.2437    2.2000 N   0  0  0  0  0  0  0  0  0  0  0  0
   -0.0695    0.7380    1.7627 C   0  0  0  0  0  0  0  0  0  0  0  0
   -2.4283    0.4643    3.5214 H   0  0  0  0  0  0  0  0  0  0  0  0
    0.4032    1.6073    2.2150 H   0  0  0  0  0  0  0  0  0  0  0  0
    0.3392   -1.2218   -2.9406 C   0  0  0  0  0  0  0  0  0  0  0  0
    0.3392   -1.2218   -1.1394 S   0  0  0  0  0  0  0  0  0  0  0  0
    0.3392    0.5565   -0.8064 C   0  0  0  0  0  3  0  0  0  0  0  0
    1.6184    1.2818   -1.1928 C   0  0  0  0  0  0  0  0  0  0  0  0
    1.2657   -0.8187   -3.3483 H   0  0  0  0  0  0  0  0  0  0  0  0
   -0.5108   -0.6593   -3.3291 H   0  0  0  0  0  0  0  0  0  0  0  0
    0.2446   -2.2597   -3.2569 H   0  0  0  0  0  0  0  0  0  0  0  0
    0.1340    0.6477    0.4837 H   0  0  0  0  0  0  0  0  0  0  0  0
   -0.5275    1.0019   -1.3001 H   0  0  0  0  0  0  0  0  0  0  0  0
    1.7953    1.2339   -2.2683 H   0  0  0  0  0  0  0  0  0  0  0  0
    2.4801    0.8435   -0.6883 H   0  0  0  0  0  0  0  0  0  0  0  0
    1.5549    2.3367   -0.9163 H   0  0  0  0  0  0  0  0  0  0  0  0
  1  2  1  0
  1  4  1  0
  2  3  2  3
  3  5  1  0
  3 13  1  0
  6  7  1  0
  6 10  1  0
  6 11  1  0
  6 12  1  0
  7  8  1  0
  8  9  1  0
  8 14  1  0
  9 15  1  0
  9 16  1  0
  9 17  1  0
M  RAD  1   8   2
M  END
>  <reaction>  (12) 
rmg_rxn_15498

>  <mol_properties>  (12) 
{"1": {"label": "*4", "atom_type": "N3d"}, "2": {"label": "*3", "atom_type": "Cd"}, "6": {"label": "*0", "atom_type": "S2s"}, "7": {"label": "*1", "atom_type": "Cs"}, "12": {"label": "*2", "atom_type": "H0"}}

>  <type>  (12) 
unop_8

>  <geom_source>  (12) 
Heuristics

$$$$

     RDKit          3D

 17 15  0  0  0  0  0  0  0  0999 V2000
    3.3248   -0.4321   -0.1754 O   0  0  0  0  0  0  0  0  0  0  0  0
    1.9855   -0.1202   -0.1426 N   0  0  0  0  0  0  0  0  0  0  0  0
    1.5156    0.6481    0.7150 C   0  0  0  0  0  0  0  0  0  0  0  0
    3.8148    0.0150    0.5405 H   0  0  0  0  0  0  0  0  0  0  0  0
    2.0624    1.1527    1.5138 H   0  0  0  0  0  0  0  0  0  0  0  0
   -1.0606   -1.4635   -0.8654 C   0  0  0  0  0  0  0  0  0  0  0  0
   -1.8170   -0.5766    0.5297 S   0  0  0  0  0  0  0  0  0  0  0  0
   -1.0710    1.0114    0.3791 C   0  0  0  0  0  3  0  0  0  0  0  0
   -1.1471    1.6959   -0.9594 C   0  0  0  0  0  0  0  0  0  0  0  0
   -1.2403   -2.5189   -0.6900 H   0  0  0  0  0  0  0  0  0  0  0  0
    0.0054   -1.2540   -0.8733 H   0  0  0  0  0  0  0  0  0  0  0  0
   -1.5322   -1.1589   -1.7945 H   0  0  0  0  0  0  0  0  0  0  0  0
    0.2523    0.8409    0.6126 H   0  0  0  0  0  0  0  0  0  0  0  0
   -1.4358    1.6199    1.2030 H   0  0  0  0  0  0  0  0  0  0  0  0
   -0.6138    1.1288   -1.7190 H   0  0  0  0  0  0  0  0  0  0  0  0
   -0.6947    2.6832   -0.8900 H   0  0  0  0  0  0  0  0  0  0  0  0
   -2.1839    1.8169   -1.2790 H   0  0  0  0  0  0  0  0  0  0  0  0
  1  2  1  0
  1  4  1  0
  2  3  2  3
  3  5  1  0
  3 13  1  0
  6  7  1  0
  6 10  1  0
  6 11  1  0
  6 12  1  0
  7  8  1  0
  8  9  1  0
  8 14  1  0
  9 15  1  0
  9 16  1  0
  9 17  1  0
M  RAD  1   8   2
M  END
>  <reaction>  (13) 
rmg_rxn_15498

>  <mol_properties>  (13) 
{"1": {"label": "*4", "atom_type": "N3d"}, "2": {"label": "*3", "atom_type": "Cd"}, "6": {"label": "*0", "atom_type": "S2s"}, "7": {"label": "*1", "atom_type": "Cs"}, "12": {"label": "*2", "atom_type": "H0"}}

>  <type>  (13) 
unop_9

>  <geom_source>  (13) 
Heuristics

$$$$

     RDKit          3D

 17 15  0  0  0  0  0  0  0  0999 V2000
   -0.6378    1.5621    3.5588 O   0  0  0  0  0  0  0  0  0  0  0  0
   -0.4175    1.5776    2.1956 N   0  0  0  0  0  0  0  0  0  0  0  0
   -0.3746    0.4127    1.7112 C   0  0  0  0  0  0  0  0  0  0  0  0
   -0.6474    2.4923    3.7927 H   0  0  0  0  0  0  0  0  0  0  0  0
   -0.4996   -0.4806    2.3194 H   0  0  0  0  0  0  0  0  0  0  0  0
    0.0342   -1.5471   -2.9921 C   0  0  0  0  0  0  0  0  0  0  0  0
    0.0342   -1.5471   -1.1909 S   0  0  0  0  0  0  0  0  0  0  0  0
    0.0342    0.2312   -0.8579 C   0  0  0  0  0  3  0  0  0  0  0  0
    1.3133    0.9564   -1.2443 C   0  0  0  0  0  0  0  0  0  0  0  0
    0.9606   -1.1440   -3.3998 H   0  0  0  0  0  0  0  0  0  0  0  0
   -0.8158   -0.9846   -3.3806 H   0  0  0  0  0  0  0  0  0  0  0  0
   -0.0605   -2.5850   -3.3084 H   0  0  0  0  0  0  0  0  0  0  0  0
   -0.1711    0.3223    0.4322 H   0  0  0  0  0  0  0  0  0  0  0  0
   -0.8326    0.6766   -1.3516 H   0  0  0  0  0  0  0  0  0  0  0  0
    1.4902    0.9085   -2.3198 H   0  0  0  0  0  0  0  0  0  0  0  0
    2.1750    0.5182   -0.7398 H   0  0  0  0  0  0  0  0  0  0  0  0
    1.2498    2.0114   -0.9678 H   0  0  0  0  0  0  0  0  0  0  0  0
  1  2  1  0
  1  4  1  0
  2  3  2  3
  3  5  1  0
  3 13  1  0
  6  7  1  0
  6 10  1  0
  6 11  1  0
  6 12  1  0
  7  8  1  0
  8  9  1  0
  8 14  1  0
  9 15  1  0
  9 16  1  0
  9 17  1  0
M  RAD  1   8   2
M  END
>  <reaction>  (14) 
rmg_rxn_15498

>  <mol_properties>  (14) 
{"1": {"label": "*4", "atom_type": "N3d"}, "2": {"label": "*3", "atom_type": "Cd"}, "6": {"label": "*0", "atom_type": "S2s"}, "7": {"label": "*1", "atom_type": "Cs"}, "12": {"label": "*2", "atom_type": "H0"}}

>  <type>  (14) 
unop_10

>  <geom_source>  (14) 
Heuristics

$$$$

     RDKit          3D

 17 15  0  0  0  0  0  0  0  0999 V2000
    3.3251    0.4320    0.1751 O   0  0  0  0  0  0  0  0  0  0  0  0
    1.9858    0.1206    0.1426 N   0  0  0  0  0  0  0  0  0  0  0  0
    1.5158   -0.6492   -0.7137 C   0  0  0  0  0  0  0  0  0  0  0  0
    3.8150   -0.0165   -0.5401 H   0  0  0  0  0  0  0  0  0  0  0  0
    2.0628   -1.1553   -1.5113 H   0  0  0  0  0  0  0  0  0  0  0  0
   -1.0608    1.4635    0.8658 C   0  0  0  0  0  0  0  0  0  0  0  0
   -1.8163    0.5771   -0.5301 S   0  0  0  0  0  0  0  0  0  0  0  0
   -1.0712   -1.0112   -0.3792 C   0  0  0  0  0  3  0  0  0  0  0  0
   -1.1488   -1.6960    0.9590 C   0  0  0  0  0  0  0  0  0  0  0  0
   -1.5333    1.1589    1.7944 H   0  0  0  0  0  0  0  0  0  0  0  0
   -1.2399    2.5189    0.6905 H   0  0  0  0  0  0  0  0  0  0  0  0
    0.0051    1.2535    0.8745 H   0  0  0  0  0  0  0  0  0  0  0  0
    0.2525   -0.8413   -0.6116 H   0  0  0  0  0  0  0  0  0  0  0  0
   -1.4354   -1.6193   -1.2036 H   0  0  0  0  0  0  0  0  0  0  0  0
   -2.1861   -1.8174    1.2772 H   0  0  0  0  0  0  0  0  0  0  0  0
   -0.6168   -1.1289    1.7194 H   0  0  0  0  0  0  0  0  0  0  0  0
   -0.6960   -2.6832    0.8900 H   0  0  0  0  0  0  0  0  0  0  0  0
  1  2  1  0
  1  4  1  0
  2  3  2  3
  3  5  1  0
  3 13  1  0
  6  7  1  0
  6 10  1  0
  6 11  1  0
  6 12  1  0
  7  8  1  0
  8  9  1  0
  8 14  1  0
  9 15  1  0
  9 16  1  0
  9 17  1  0
M  RAD  1   8   2
M  END
>  <reaction>  (15) 
rmg_rxn_15498

>  <mol_properties>  (15) 
{"1": {"label": "*4", "atom_type": "N3d"}, "2": {"label": "*3", "atom_type": "Cd"}, "6": {"label": "*0", "atom_type": "S2s"}, "7": {"label": "*1", "atom_type": "Cs"}, "12": {"label": "*2", "atom_type": "H0"}}

>  <type>  (15) 
unop_11

>  <geom_source>  (15) 
Heuristics

$$$$

     RDKit          3D

 17 15  0  0  0  0  0  0  0  0999 V2000
   -1.4507    1.5430    3.1904 O   0  0  0  0  0  0  0  0  0  0  0  0
   -1.2852    0.6322    2.1657 N   0  0  0  0  0  0  0  0  0  0  0  0
   -0.0828    0.5592    1.7886 C   0  0  0  0  0  0  0  0  0  0  0  0
   -2.3906    1.4994    3.3765 H   0  0  0  0  0  0  0  0  0  0  0  0
    0.7096    1.1555    2.2360 H   0  0  0  0  0  0  0  0  0  0  0  0
    0.3260   -1.4006   -2.9147 C   0  0  0  0  0  0  0  0  0  0  0  0
    0.3260   -1.4006   -1.1135 S   0  0  0  0  0  0  0  0  0  0  0  0
    0.3260    0.3777   -0.7805 C   0  0  0  0  0  3  0  0  0  0  0  0
    1.6052    1.1029   -1.1669 C   0  0  0  0  0  0  0  0  0  0  0  0
    1.2524   -0.9975   -3.3224 H   0  0  0  0  0  0  0  0  0  0  0  0
   -0.5240   -0.8381   -3.3032 H   0  0  0  0  0  0  0  0  0  0  0  0
    0.2313   -2.4385   -3.2310 H   0  0  0  0  0  0  0  0  0  0  0  0
    0.1207    0.4688    0.5096 H   0  0  0  0  0  0  0  0  0  0  0  0
   -0.5407    0.8231   -1.2742 H   0  0  0  0  0  0  0  0  0  0  0  0
    1.7820    1.0550   -2.2424 H   0  0  0  0  0  0  0  0  0  0  0  0
    2.4668    0.6647   -0.6624 H   0  0  0  0  0  0  0  0  0  0  0  0
    1.5417    2.1579   -0.8904 H   0  0  0  0  0  0  0  0  0  0  0  0
  1  2  1  0
  1  4  1  0
  2  3  2  3
  3  5  1  0
  3 13  1  0
  6  7  1  0
  6 10  1  0
  6 11  1  0
  6 12  1  0
  7  8  1  0
  8  9  1  0
  8 14  1  0
  9 15  1  0
  9 16  1  0
  9 17  1  0
M  RAD  1   8   2
M  END
>  <reaction>  (16) 
rmg_rxn_15498

>  <mol_properties>  (16) 
{"1": {"label": "*4", "atom_type": "N3d"}, "2": {"label": "*3", "atom_type": "Cd"}, "6": {"label": "*0", "atom_type": "S2s"}, "7": {"label": "*1", "atom_type": "Cs"}, "12": {"label": "*2", "atom_type": "H0"}}

>  <type>  (16) 
unop_12

>  <geom_source>  (16) 
Heuristics

$$$$

     RDKit          3D

 17 15  0  0  0  0  0  0  0  0999 V2000
    3.3261   -0.4321   -0.1749 O   0  0  0  0  0  0  0  0  0  0  0  0
    1.9866   -0.1211   -0.1428 N   0  0  0  0  0  0  0  0  0  0  0  0
    1.5162    0.6488    0.7132 C   0  0  0  0  0  0  0  0  0  0  0  0
    3.8157    0.0172    0.5400 H   0  0  0  0  0  0  0  0  0  0  0  0
    2.0628    1.1551    1.5109 H   0  0  0  0  0  0  0  0  0  0  0  0
   -1.0624   -1.4633   -0.8662 C   0  0  0  0  0  0  0  0  0  0  0  0
   -1.8167   -0.5768    0.5304 S   0  0  0  0  0  0  0  0  0  0  0  0
   -1.0708    1.0112    0.3792 C   0  0  0  0  0  3  0  0  0  0  0  0
   -1.1488    1.6962   -0.9588 C   0  0  0  0  0  0  0  0  0  0  0  0
    0.0036   -1.2543   -0.8753 H   0  0  0  0  0  0  0  0  0  0  0  0
   -1.5350   -1.1579   -1.7945 H   0  0  0  0  0  0  0  0  0  0  0  0
   -1.2425   -2.5186   -0.6912 H   0  0  0  0  0  0  0  0  0  0  0  0
    0.2529    0.8407    0.6111 H   0  0  0  0  0  0  0  0  0  0  0  0
   -1.4344    1.6193    1.2039 H   0  0  0  0  0  0  0  0  0  0  0  0
   -0.6168    1.1294   -1.7194 H   0  0  0  0  0  0  0  0  0  0  0  0
   -0.6962    2.6835   -0.8897 H   0  0  0  0  0  0  0  0  0  0  0  0
   -2.1862    1.8174   -1.2769 H   0  0  0  0  0  0  0  0  0  0  0  0
  1  2  1  0
  1  4  1  0
  2  3  2  3
  3  5  1  0
  3 13  1  0
  6  7  1  0
  6 10  1  0
  6 11  1  0
  6 12  1  0
  7  8  1  0
  8  9  1  0
  8 14  1  0
  9 15  1  0
  9 16  1  0
  9 17  1  0
M  RAD  1   8   2
M  END
>  <reaction>  (17) 
rmg_rxn_15498

>  <mol_properties>  (17) 
{"1": {"label": "*4", "atom_type": "N3d"}, "2": {"label": "*3", "atom_type": "Cd"}, "6": {"label": "*0", "atom_type": "S2s"}, "7": {"label": "*1", "atom_type": "Cs"}, "12": {"label": "*2", "atom_type": "H0"}}

>  <type>  (17) 
unop_13

>  <geom_source>  (17) 
Heuristics

$$$$

     RDKit          3D

 17 15  0  0  0  0  0  0  0  0999 V2000
   -0.9623    1.8911    3.2204 O   0  0  0  0  0  0  0  0  0  0  0  0
   -1.2197    1.0574    2.1500 N   0  0  0  0  0  0  0  0  0  0  0  0
   -0.1893    0.4261    1.7850 C   0  0  0  0  0  0  0  0  0  0  0  0
   -1.8124    2.3011    3.3919 H   0  0  0  0  0  0  0  0  0  0  0  0
    0.7752    0.5445    2.2743 H   0  0  0  0  0  0  0  0  0  0  0  0
    0.2195   -1.5337   -2.9183 C   0  0  0  0  0  0  0  0  0  0  0  0
    0.2195   -1.5337   -1.1171 S   0  0  0  0  0  0  0  0  0  0  0  0
    0.2195    0.2446   -0.7841 C   0  0  0  0  0  3  0  0  0  0  0  0
    1.4986    0.9699   -1.1705 C   0  0  0  0  0  0  0  0  0  0  0  0
    1.1459   -1.1306   -3.3259 H   0  0  0  0  0  0  0  0  0  0  0  0
   -0.6305   -0.9712   -3.3068 H   0  0  0  0  0  0  0  0  0  0  0  0
    0.1248   -2.5716   -3.2346 H   0  0  0  0  0  0  0  0  0  0  0  0
    0.0142    0.3358    0.5060 H   0  0  0  0  0  0  0  0  0  0  0  0
   -0.6472    0.6900   -1.2778 H   0  0  0  0  0  0  0  0  0  0  0  0
    1.6755    0.9220   -2.2459 H   0  0  0  0  0  0  0  0  0  0  0  0
    2.3603    0.5316   -0.6660 H   0  0  0  0  0  0  0  0  0  0  0  0
    1.4352    2.0248   -0.8939 H   0  0  0  0  0  0  0  0  0  0  0  0
  1  2  1  0
  1  4  1  0
  2  3  2  3
  3  5  1  0
  3 13  1  0
  6  7  1  0
  6 10  1  0
  6 11  1  0
  6 12  1  0
  7  8  1  0
  8  9  1  0
  8 14  1  0
  9 15  1  0
  9 16  1  0
  9 17  1  0
M  RAD  1   8   2
M  END
>  <reaction>  (18) 
rmg_rxn_15498

>  <mol_properties>  (18) 
{"1": {"label": "*4", "atom_type": "N3d"}, "2": {"label": "*3", "atom_type": "Cd"}, "6": {"label": "*0", "atom_type": "S2s"}, "7": {"label": "*1", "atom_type": "Cs"}, "12": {"label": "*2", "atom_type": "H0"}}

>  <type>  (18) 
unop_14

>  <geom_source>  (18) 
Heuristics

$$$$

     RDKit          3D

 17 15  0  0  0  0  0  0  0  0999 V2000
    3.3249   -0.4320   -0.1751 O   0  0  0  0  0  0  0  0  0  0  0  0
    1.9855   -0.1207   -0.1423 N   0  0  0  0  0  0  0  0  0  0  0  0
    1.5157    0.6491    0.7140 C   0  0  0  0  0  0  0  0  0  0  0  0
    3.8150    0.0170    0.5395 H   0  0  0  0  0  0  0  0  0  0  0  0
    2.0628    1.1557    1.5113 H   0  0  0  0  0  0  0  0  0  0  0  0
   -1.0601   -1.4635   -0.8655 C   0  0  0  0  0  0  0  0  0  0  0  0
   -1.8167   -0.5770    0.5298 S   0  0  0  0  0  0  0  0  0  0  0  0
   -1.0712    1.0112    0.3791 C   0  0  0  0  0  3  0  0  0  0  0  0
   -1.1481    1.6961   -0.9591 C   0  0  0  0  0  0  0  0  0  0  0  0
    0.0058   -1.2542   -0.8731 H   0  0  0  0  0  0  0  0  0  0  0  0
   -1.5315   -1.1585   -1.7946 H   0  0  0  0  0  0  0  0  0  0  0  0
   -1.2402   -2.5189   -0.6905 H   0  0  0  0  0  0  0  0  0  0  0  0
    0.2523    0.8411    0.6120 H   0  0  0  0  0  0  0  0  0  0  0  0
   -1.4358    1.6194    1.2034 H   0  0  0  0  0  0  0  0  0  0  0  0
   -2.1852    1.8168   -1.2782 H   0  0  0  0  0  0  0  0  0  0  0  0
   -0.6150    1.1294   -1.7191 H   0  0  0  0  0  0  0  0  0  0  0  0
   -0.6961    2.6836   -0.8896 H   0  0  0  0  0  0  0  0  0  0  0  0
  1  2  1  0
  1  4  1  0
  2  3  2  3
  3  5  1  0
  3 13  1  0
  6  7  1  0
  6 10  1  0
  6 11  1  0
  6 12  1  0
  7  8  1  0
  8  9  1  0
  8 14  1  0
  9 15  1  0
  9 16  1  0
  9 17  1  0
M  RAD  1   8   2
M  END
>  <reaction>  (19) 
rmg_rxn_15498

>  <mol_properties>  (19) 
{"1": {"label": "*4", "atom_type": "N3d"}, "2": {"label": "*3", "atom_type": "Cd"}, "6": {"label": "*0", "atom_type": "S2s"}, "7": {"label": "*1", "atom_type": "Cs"}, "12": {"label": "*2", "atom_type": "H0"}}

>  <type>  (19) 
unop_15

>  <geom_source>  (19) 
Heuristics

$$$$

     RDKit          3D

 17 15  0  0  0  0  0  0  0  0999 V2000
    0.2470    1.4917    3.4641 O   0  0  0  0  0  0  0  0  0  0  0  0
    0.3585    0.5825    2.4307 N   0  0  0  0  0  0  0  0  0  0  0  0
   -0.6668    0.5768    1.6944 C   0  0  0  0  0  0  0  0  0  0  0  0
    1.0767    1.3948    3.9356 H   0  0  0  0  0  0  0  0  0  0  0  0
   -1.5231    1.2229    1.8760 H   0  0  0  0  0  0  0  0  0  0  0  0
   -0.2581   -1.3830   -3.0089 C   0  0  0  0  0  0  0  0  0  0  0  0
   -0.2581   -1.3830   -1.2077 S   0  0  0  0  0  0  0  0  0  0  0  0
   -0.2581    0.3953   -0.8747 C   0  0  0  0  0  3  0  0  0  0  0  0
    1.0211    1.1206   -1.2611 C   0  0  0  0  0  0  0  0  0  0  0  0
    0.6684   -0.9799   -3.4165 H   0  0  0  0  0  0  0  0  0  0  0  0
   -1.1081   -0.8205   -3.3974 H   0  0  0  0  0  0  0  0  0  0  0  0
   -0.3527   -2.4209   -3.3252 H   0  0  0  0  0  0  0  0  0  0  0  0
   -0.4633    0.4865    0.4154 H   0  0  0  0  0  0  0  0  0  0  0  0
   -1.1248    0.8407   -1.3684 H   0  0  0  0  0  0  0  0  0  0  0  0
    1.1980    1.0727   -2.3365 H   0  0  0  0  0  0  0  0  0  0  0  0
    1.8828    0.6823   -0.7566 H   0  0  0  0  0  0  0  0  0  0  0  0
    0.9576    2.1755   -0.9845 H   0  0  0  0  0  0  0  0  0  0  0  0
  1  2  1  0
  1  4  1  0
  2  3  2  3
  3  5  1  0
  3 13  1  0
  6  7  1  0
  6 10  1  0
  6 11  1  0
  6 12  1  0
  7  8  1  0
  8  9  1  0
  8 14  1  0
  9 15  1  0
  9 16  1  0
  9 17  1  0
M  RAD  1   8   2
M  END
>  <reaction>  (20) 
rmg_rxn_15498

>  <mol_properties>  (20) 
{"1": {"label": "*4", "atom_type": "N3d"}, "2": {"label": "*3", "atom_type": "Cd"}, "6": {"label": "*0", "atom_type": "S2s"}, "7": {"label": "*1", "atom_type": "Cs"}, "12": {"label": "*2", "atom_type": "H0"}}

>  <type>  (20) 
unop_16

>  <geom_source>  (20) 
Heuristics

$$$$

     RDKit          3D

 17 15  0  0  0  0  0  0  0  0999 V2000
    3.3256   -0.4323   -0.1754 O   0  0  0  0  0  0  0  0  0  0  0  0
    1.9864   -0.1204   -0.1432 N   0  0  0  0  0  0  0  0  0  0  0  0
    1.5159    0.6461    0.7157 C   0  0  0  0  0  0  0  0  0  0  0  0
    3.8150    0.0134    0.5418 H   0  0  0  0  0  0  0  0  0  0  0  0
    2.0623    1.1492    1.5159 H   0  0  0  0  0  0  0  0  0  0  0  0
   -1.0627   -1.4633   -0.8656 C   0  0  0  0  0  0  0  0  0  0  0  0
   -1.8179   -0.5757    0.5297 S   0  0  0  0  0  0  0  0  0  0  0  0
   -1.0703    1.0115    0.3790 C   0  0  0  0  0  3  0  0  0  0  0  0
   -1.1454    1.6959   -0.9595 C   0  0  0  0  0  0  0  0  0  0  0  0
   -1.5338   -1.1578   -1.7946 H   0  0  0  0  0  0  0  0  0  0  0  0
   -1.2440   -2.5185   -0.6905 H   0  0  0  0  0  0  0  0  0  0  0  0
    0.0035   -1.2553   -0.8734 H   0  0  0  0  0  0  0  0  0  0  0  0
    0.2529    0.8397    0.6129 H   0  0  0  0  0  0  0  0  0  0  0  0
   -1.4346    1.6204    1.2029 H   0  0  0  0  0  0  0  0  0  0  0  0
   -0.6119    1.1285   -1.7187 H   0  0  0  0  0  0  0  0  0  0  0  0
   -0.6926    2.6831   -0.8899 H   0  0  0  0  0  0  0  0  0  0  0  0
   -2.1820    1.8173   -1.2798 H   0  0  0  0  0  0  0  0  0  0  0  0
  1  2  1  0
  1  4  1  0
  2  3  2  3
  3  5  1  0
  3 13  1  0
  6  7  1  0
  6 10  1  0
  6 11  1  0
  6 12  1  0
  7  8  1  0
  8  9  1  0
  8 14  1  0
  9 15  1  0
  9 16  1  0
  9 17  1  0
M  RAD  1   8   2
M  END
>  <reaction>  (21) 
rmg_rxn_15498

>  <mol_properties>  (21) 
{"1": {"label": "*4", "atom_type": "N3d"}, "2": {"label": "*3", "atom_type": "Cd"}, "6": {"label": "*0", "atom_type": "S2s"}, "7": {"label": "*1", "atom_type": "Cs"}, "12": {"label": "*2", "atom_type": "H0"}}

>  <type>  (21) 
unop_17

>  <geom_source>  (21) 
Heuristics

$$$$

     RDKit          3D

 17 15  0  0  0  0  0  0  0  0999 V2000
   -1.3450    0.3459    3.4842 O   0  0  0  0  0  0  0  0  0  0  0  0
   -0.8538   -0.0236    2.2476 N   0  0  0  0  0  0  0  0  0  0  0  0
   -0.1688    0.8950    1.7181 C   0  0  0  0  0  0  0  0  0  0  0  0
   -1.8361   -0.4275    3.7682 H   0  0  0  0  0  0  0  0  0  0  0  0
   -0.0013    1.8550    2.2017 H   0  0  0  0  0  0  0  0  0  0  0  0
    0.2400   -1.0648   -2.9852 C   0  0  0  0  0  0  0  0  0  0  0  0
    0.2400   -1.0648   -1.1840 S   0  0  0  0  0  0  0  0  0  0  0  0
    0.2400    0.7135   -0.8510 C   0  0  0  0  0  3  0  0  0  0  0  0
    1.5191    1.4388   -1.2374 C   0  0  0  0  0  0  0  0  0  0  0  0
    1.1664   -0.6617   -3.3929 H   0  0  0  0  0  0  0  0  0  0  0  0
   -0.6100   -0.5023   -3.3737 H   0  0  0  0  0  0  0  0  0  0  0  0
    0.1453   -2.1027   -3.3015 H   0  0  0  0  0  0  0  0  0  0  0  0
    0.0347    0.8047    0.4391 H   0  0  0  0  0  0  0  0  0  0  0  0
   -0.6268    1.1590   -1.3447 H   0  0  0  0  0  0  0  0  0  0  0  0
    1.6960    1.3909   -2.3129 H   0  0  0  0  0  0  0  0  0  0  0  0
    2.3808    1.0006   -0.7329 H   0  0  0  0  0  0  0  0  0  0  0  0
    1.4556    2.4937   -0.9609 H   0  0  0  0  0  0  0  0  0  0  0  0
  1  2  1  0
  1  4  1  0
  2  3  2  3
  3  5  1  0
  3 13  1  0
  6  7  1  0
  6 10  1  0
  6 11  1  0
  6 12  1  0
  7  8  1  0
  8  9  1  0
  8 14  1  0
  9 15  1  0
  9 16  1  0
  9 17  1  0
M  RAD  1   8   2
M  END
>  <reaction>  (22) 
rmg_rxn_15498

>  <mol_properties>  (22) 
{"1": {"label": "*4", "atom_type": "N3d"}, "2": {"label": "*3", "atom_type": "Cd"}, "6": {"label": "*0", "atom_type": "S2s"}, "7": {"label": "*1", "atom_type": "Cs"}, "12": {"label": "*2", "atom_type": "H0"}}

>  <type>  (22) 
unop_18

>  <geom_source>  (22) 
Heuristics

$$$$

     RDKit          3D

 17 15  0  0  0  0  0  0  0  0999 V2000
    0.3427    0.8761    3.6123 O   0  0  0  0  0  0  0  0  0  0  0  0
    0.1926    0.2033    2.4157 N   0  0  0  0  0  0  0  0  0  0  0  0
   -0.6607    0.7559    1.6673 C   0  0  0  0  0  0  0  0  0  0  0  0
    1.0060    0.3606    4.0752 H   0  0  0  0  0  0  0  0  0  0  0  0
   -1.1995    1.6556    1.9566 H   0  0  0  0  0  0  0  0  0  0  0  0
   -0.2519   -1.2039   -3.0360 C   0  0  0  0  0  0  0  0  0  0  0  0
   -0.2519   -1.2039   -1.2347 S   0  0  0  0  0  0  0  0  0  0  0  0
   -0.2519    0.5744   -0.9017 C   0  0  0  0  0  3  0  0  0  0  0  0
    1.0272    1.2996   -1.2881 C   0  0  0  0  0  0  0  0  0  0  0  0
    0.6745   -0.8008   -3.4436 H   0  0  0  0  0  0  0  0  0  0  0  0
   -1.1019   -0.6415   -3.4244 H   0  0  0  0  0  0  0  0  0  0  0  0
   -0.3466   -2.2418   -3.3522 H   0  0  0  0  0  0  0  0  0  0  0  0
   -0.4572    0.6655    0.3884 H   0  0  0  0  0  0  0  0  0  0  0  0
   -1.1187    1.0198   -1.3955 H   0  0  0  0  0  0  0  0  0  0  0  0
    1.2041    1.2517   -2.3636 H   0  0  0  0  0  0  0  0  0  0  0  0
    1.8889    0.8614   -0.7836 H   0  0  0  0  0  0  0  0  0  0  0  0
    0.9637    2.3545   -1.0116 H   0  0  0  0  0  0  0  0  0  0  0  0
  1  2  1  0
  1  4  1  0
  2  3  2  3
  3  5  1  0
  3 13  1  0
  6  7  1  0
  6 10  1  0
  6 11  1  0
  6 12  1  0
  7  8  1  0
  8  9  1  0
  8 14  1  0
  9 15  1  0
  9 16  1  0
  9 17  1  0
M  RAD  1   8   2
M  END
>  <reaction>  (23) 
rmg_rxn_15498

>  <mol_properties>  (23) 
{"1": {"label": "*4", "atom_type": "N3d"}, "2": {"label": "*3", "atom_type": "Cd"}, "6": {"label": "*0", "atom_type": "S2s"}, "7": {"label": "*1", "atom_type": "Cs"}, "12": {"label": "*2", "atom_type": "H0"}}

>  <type>  (23) 
unop_19

>  <geom_source>  (23) 
Heuristics

$$$$

     RDKit          3D

 17 15  0  0  0  0  0  0  0  0999 V2000
   -0.5000    1.8126    3.4040 O   0  0  0  0  0  0  0  0  0  0  0  0
   -0.9304    1.4181    2.1526 N   0  0  0  0  0  0  0  0  0  0  0  0
   -0.3244    0.3872    1.7483 C   0  0  0  0  0  0  0  0  0  0  0  0
   -1.0310    2.5902    3.5866 H   0  0  0  0  0  0  0  0  0  0  0  0
    0.4425   -0.1113    2.3373 H   0  0  0  0  0  0  0  0  0  0  0  0
    0.0843   -1.5726   -2.9550 C   0  0  0  0  0  0  0  0  0  0  0  0
    0.0843   -1.5726   -1.1538 S   0  0  0  0  0  0  0  0  0  0  0  0
    0.0843    0.2057   -0.8208 C   0  0  0  0  0  3  0  0  0  0  0  0
    1.3635    0.9309   -1.2072 C   0  0  0  0  0  0  0  0  0  0  0  0
    1.0108   -1.1695   -3.3627 H   0  0  0  0  0  0  0  0  0  0  0  0
   -0.7657   -1.0101   -3.3435 H   0  0  0  0  0  0  0  0  0  0  0  0
   -0.0103   -2.6105   -3.2713 H   0  0  0  0  0  0  0  0  0  0  0  0
   -0.1209    0.2968    0.4693 H   0  0  0  0  0  0  0  0  0  0  0  0
   -0.7824    0.6511   -1.3145 H   0  0  0  0  0  0  0  0  0  0  0  0
    1.5404    0.8830   -2.2827 H   0  0  0  0  0  0  0  0  0  0  0  0
    2.2252    0.4927   -0.7027 H   0  0  0  0  0  0  0  0  0  0  0  0
    1.3000    1.9859   -0.9307 H   0  0  0  0  0  0  0  0  0  0  0  0
  1  2  1  0
  1  4  1  0
  2  3  2  3
  3  5  1  0
  3 13  1  0
  6  7  1  0
  6 10  1  0
  6 11  1  0
  6 12  1  0
  7  8  1  0
  8  9  1  0
  8 14  1  0
  9 15  1  0
  9 16  1  0
  9 17  1  0
M  RAD  1   8   2
M  END
>  <reaction>  (24) 
rmg_rxn_15498

>  <mol_properties>  (24) 
{"1": {"label": "*4", "atom_type": "N3d"}, "2": {"label": "*3", "atom_type": "Cd"}, "6": {"label": "*0", "atom_type": "S2s"}, "7": {"label": "*1", "atom_type": "Cs"}, "12": {"label": "*2", "atom_type": "H0"}}

>  <type>  (24) 
unop_20

>  <geom_source>  (24) 
Heuristics

$$$$

     RDKit          3D

 17 15  0  0  0  0  0  0  0  0999 V2000
   -0.6978    0.0831    3.6537 O   0  0  0  0  0  0  0  0  0  0  0  0
   -0.4865   -0.1240    2.3048 N   0  0  0  0  0  0  0  0  0  0  0  0
   -0.3523    0.9622    1.6759 C   0  0  0  0  0  0  0  0  0  0  0  0
   -0.7811   -0.8058    4.0044 H   0  0  0  0  0  0  0  0  0  0  0  0
   -0.4018    1.9330    2.1645 H   0  0  0  0  0  0  0  0  0  0  0  0
    0.0564   -0.9976   -3.0274 C   0  0  0  0  0  0  0  0  0  0  0  0
    0.0564   -0.9976   -1.2262 S   0  0  0  0  0  0  0  0  0  0  0  0
    0.0564    0.7807   -0.8932 C   0  0  0  0  0  3  0  0  0  0  0  0
    1.3356    1.5059   -1.2796 C   0  0  0  0  0  0  0  0  0  0  0  0
    0.9829   -0.5945   -3.4351 H   0  0  0  0  0  0  0  0  0  0  0  0
   -0.7936   -0.4351   -3.4159 H   0  0  0  0  0  0  0  0  0  0  0  0
   -0.0382   -2.0355   -3.3437 H   0  0  0  0  0  0  0  0  0  0  0  0
   -0.1488    0.8718    0.3969 H   0  0  0  0  0  0  0  0  0  0  0  0
   -0.8103    1.2261   -1.3869 H   0  0  0  0  0  0  0  0  0  0  0  0
    1.5125    1.4581   -2.3551 H   0  0  0  0  0  0  0  0  0  0  0  0
    2.1973    1.0677   -0.7751 H   0  0  0  0  0  0  0  0  0  0  0  0
    1.2721    2.5609   -1.0031 H   0  0  0  0  0  0  0  0  0  0  0  0
  1  2  1  0
  1  4  1  0
  2  3  2  3
  3  5  1  0
  3 13  1  0
  6  7  1  0
  6 10  1  0
  6 11  1  0
  6 12  1  0
  7  8  1  0
  8  9  1  0
  8 14  1  0
  9 15  1  0
  9 16  1  0
  9 17  1  0
M  RAD  1   8   2
M  END
>  <reaction>  (25) 
rmg_rxn_15498

>  <mol_properties>  (25) 
{"1": {"label": "*4", "atom_type": "N3d"}, "2": {"label": "*3", "atom_type": "Cd"}, "6": {"label": "*0", "atom_type": "S2s"}, "7": {"label": "*1", "atom_type": "Cs"}, "12": {"label": "*2", "atom_type": "H0"}}

>  <type>  (25) 
unop_21

>  <geom_source>  (25) 
Heuristics

$$$$

     RDKit          3D

 17 15  0  0  0  0  0  0  0  0999 V2000
   -1.9570    1.1612   -0.1404 S   0  0  0  0  0  0  0  0  0  0  0  0
    3.1262   -0.8352   -1.9194 O   0  0  0  0  0  0  0  0  0  0  0  0
    2.2827   -0.4860   -0.8910 N   0  0  0  0  0  0  0  0  0  0  0  0
   -0.5281    0.3844    2.1045 C   0  0  0  0  0  0  0  0  0  0  0  0
   -2.2848   -0.5565   -0.6530 C   0  0  0  0  0  0  0  0  0  0  0  0
   -0.3499    0.8119    0.6559 C   0  0  0  0  0  3  0  0  0  0  0  0
    1.7488    0.6897   -0.8509 C   0  0  0  0  0  0  0  0  0  0  0  0
   -1.0685   -0.5828    2.1628 H   0  0  0  0  0  0  0  0  0  0  0  0
    0.4692    0.2659    2.5764 H   0  0  0  0  0  0  0  0  0  0  0  0
   -1.0955    1.1595    2.6609 H   0  0  0  0  0  0  0  0  0  0  0  0
   -3.2548   -0.5928   -1.1900 H   0  0  0  0  0  0  0  0  0  0  0  0
   -2.3442   -1.2210    0.2327 H   0  0  0  0  0  0  0  0  0  0  0  0
   -1.4860   -0.9110   -1.3370 H   0  0  0  0  0  0  0  0  0  0  0  0
    0.2450    0.0667    0.0861 H   0  0  0  0  0  0  0  0  0  0  0  0
    1.9574    1.4169   -1.6257 H   0  0  0  0  0  0  0  0  0  0  0  0
    0.9991    0.9874    0.0713 H   0  0  0  0  0  0  0  0  0  0  0  0
    3.5403   -1.7585   -1.9431 H   0  0  0  0  0  0  0  0  0  0  0  0
  1  5  1  0
  1  6  1  0
  2  3  1  0
  2 17  1  0
  3  7  2  3
  4  6  1  0
  4  8  1  0
  4  9  1  0
  4 10  1  0
  5 11  1  0
  5 12  1  0
  5 13  1  0
  6 14  1  0
  7 15  1  0
  7 16  1  0
M  RAD  1   6   2
M  END
>  <reaction>  (26) 
rmg_rxn_15498

>  <mol_properties>  (26) 
{"1": {"label": "*4", "atom_type": "N3d"}, "2": {"label": "*3", "atom_type": "Cd"}, "6": {"label": "*0", "atom_type": "S2s"}, "7": {"label": "*1", "atom_type": "Cs"}, "12": {"label": "*2", "atom_type": "H0"}}

>  <type>  (26) 
unop_22

>  <geom_source>  (26) 
AutoTST

$$$$

     RDKit          3D

 17 15  0  0  0  0  0  0  0  0999 V2000
   -0.0158    0.3058    3.6985 O   0  0  0  0  0  0  0  0  0  0  0  0
   -0.1145   -0.0459    2.3668 N   0  0  0  0  0  0  0  0  0  0  0  0
   -0.5434    0.9063    1.6577 C   0  0  0  0  0  0  0  0  0  0  0  0
    0.3150   -0.4924    4.1150 H   0  0  0  0  0  0  0  0  0  0  0  0
   -0.7975    1.8791    2.0733 H   0  0  0  0  0  0  0  0  0  0  0  0
   -0.1346   -1.0534   -3.0456 C   0  0  0  0  0  0  0  0  0  0  0  0
   -0.1346   -1.0534   -1.2444 S   0  0  0  0  0  0  0  0  0  0  0  0
   -0.1346    0.7248   -0.9114 C   0  0  0  0  0  3  0  0  0  0  0  0
    1.1445    1.4501   -1.2978 C   0  0  0  0  0  0  0  0  0  0  0  0
    0.7918   -0.6503   -3.4533 H   0  0  0  0  0  0  0  0  0  0  0  0
   -0.9846   -0.4910   -3.4341 H   0  0  0  0  0  0  0  0  0  0  0  0
   -0.2293   -2.0913   -3.3619 H   0  0  0  0  0  0  0  0  0  0  0  0
   -0.3399    0.8160    0.3787 H   0  0  0  0  0  0  0  0  0  0  0  0
   -1.0014    1.1703   -1.4051 H   0  0  0  0  0  0  0  0  0  0  0  0
    1.3214    1.4022   -2.3733 H   0  0  0  0  0  0  0  0  0  0  0  0
    2.0062    1.0119   -0.7933 H   0  0  0  0  0  0  0  0  0  0  0  0
    1.0810    2.5050   -1.0213 H   0  0  0  0  0  0  0  0  0  0  0  0
  1  2  1  0
  1  4  1  0
  2  3  2  3
  3  5  1  0
  3 13  1  0
  6  7  1  0
  6 10  1  0
  6 11  1  0
  6 12  1  0
  7  8  1  0
  8  9  1  0
  8 14  1  0
  9 15  1  0
  9 16  1  0
  9 17  1  0
M  RAD  1   8   2
M  END
>  <reaction>  (27) 
rmg_rxn_15498

>  <mol_properties>  (27) 
{"1": {"label": "*4", "atom_type": "N3d"}, "2": {"label": "*3", "atom_type": "Cd"}, "6": {"label": "*0", "atom_type": "S2s"}, "7": {"label": "*1", "atom_type": "Cs"}, "12": {"label": "*2", "atom_type": "H0"}}

>  <type>  (27) 
unop_23

>  <geom_source>  (27) 
gaussian_log

$$$$
