
     RDKit          3D

 14 13  0  0  0  0  0  0  0  0999 V2000
   -2.1430    0.4492    0.2556 C   0  0  0  0  0  0  0  0  0  0  0  0
   -0.8980   -0.1952    0.2757 O   0  0  0  0  0  0  0  0  0  0  0  0
   -0.3667   -0.3041    1.5713 C   0  0  0  0  0  0  0  0  0  0  0  0
    0.9667   -1.0099    1.4715 C   0  0  0  0  0  0  0  0  0  0  0  0
    1.6584   -1.1995    2.7884 C   0  0  0  0  0  0  0  0  0  0  0  0
    1.2262   -0.8381    3.8485 O   0  0  0  0  0  0  0  0  0  0  0  0
   -2.0716    1.4724    0.6470 H   0  0  0  0  0  0  0  0  0  0  0  0
   -2.8872   -0.0973    0.8495 H   0  0  0  0  0  0  0  0  0  0  0  0
   -2.4755    0.4883   -0.7805 H   0  0  0  0  0  0  0  0  0  0  0  0
   -0.2382    0.6884    2.0233 H   0  0  0  0  0  0  0  0  0  0  0  0
   -1.0467   -0.8675    2.2240 H   0  0  0  0  0  0  0  0  0  0  0  0
    1.6454   -0.4596    0.8107 H   0  0  0  0  0  0  0  0  0  0  0  0
    0.8471   -1.9957    1.0089 H   0  0  0  0  0  0  0  0  0  0  0  0
    2.6387   -1.7165    2.7294 H   0  0  0  0  0  0  0  0  0  0  0  0
  1  2  1  0
  1  7  1  0
  1  8  1  0
  1  9  1  0
  2  3  1  0
  3  4  1  0
  3 10  1  0
  3 11  1  0
  4  5  1  0
  4 12  1  0
  4 13  1  0
  5  6  2  0
  5 14  1  0
M  END
>  <reaction>  (1) 
rmg_rxn_1337

>  <mol_properties>  (1) 
{"0": {"label": "donator", "atom_type": "Cs"}, "6": {"label": "d_hydrogen", "atom_type": "H0"}}

>  <type>  (1) 
r1h

$$$$

     RDKit          3D

  9  8  0  0  0  0  0  0  0  0999 V2000
    1.3246   -0.8124   -0.0809 C   0  0  0  0  0  2  0  0  0  0  0  0
    0.4082    0.3080    0.1518 C   0  0  0  0  0  0  0  0  0  0  0  0
   -1.0545   -0.0277   -0.1520 C   0  0  0  0  0  0  0  0  0  0  0  0
    2.3933   -0.9471    0.0203 H   0  0  0  0  0  0  0  0  0  0  0  0
    0.4898    0.6406    1.1970 H   0  0  0  0  0  0  0  0  0  0  0  0
    0.7134    1.1680   -0.4624 H   0  0  0  0  0  0  0  0  0  0  0  0
   -1.4014   -0.8515    0.4727 H   0  0  0  0  0  0  0  0  0  0  0  0
   -1.1767   -0.3214   -1.1952 H   0  0  0  0  0  0  0  0  0  0  0  0
   -1.6915    0.8372    0.0370 H   0  0  0  0  0  0  0  0  0  0  0  0
  1  2  1  0
  1  4  1  0
  2  3  1  0
  2  5  1  0
  2  6  1  0
  3  7  1  0
  3  8  1  0
  3  9  1  0
M  RAD  1   1   3
M  END
>  <reaction>  (2) 
rmg_rxn_1337

>  <mol_properties>  (2) 
{"0": {"label": "acceptor", "atom_type": "Cs"}}

>  <type>  (2) 
r2

$$$$

     RDKit          3D

 10  9  0  0  0  0  0  0  0  0999 V2000
    1.4352    0.2660   -0.1351 C   0  0  0  0  0  3  0  0  0  0  0  0
    0.2236   -0.3243    0.4850 C   0  0  0  0  0  0  0  0  0  0  0  0
   -0.8893    0.6872    0.7364 C   0  0  0  0  0  0  0  0  0  0  0  0
    2.3577   -0.2958   -0.1940 H   0  0  0  0  0  0  0  0  0  0  0  0
    1.3935    1.2286   -0.6287 H   0  0  0  0  0  0  0  0  0  0  0  0
   -0.1633   -1.1318   -0.1556 H   0  0  0  0  0  0  0  0  0  0  0  0
    0.4945   -0.8215    1.4240 H   0  0  0  0  0  0  0  0  0  0  0  0
   -1.1991    1.1627   -0.1967 H   0  0  0  0  0  0  0  0  0  0  0  0
   -1.7660    0.2103    1.1768 H   0  0  0  0  0  0  0  0  0  0  0  0
   -0.5545    1.4732    1.4159 H   0  0  0  0  0  0  0  0  0  0  0  0
  1  2  1  0
  1  4  1  0
  1  5  1  0
  2  3  1  0
  2  6  1  0
  2  7  1  0
  3  8  1  0
  3  9  1  0
  3 10  1  0
M  RAD  1   1   2
M  END
>  <reaction>  (3) 
rmg_rxn_1337

>  <mol_properties>  (3) 
{"0": {"label": "acceptor", "atom_type": "Cs"}, "9": {"label": "a_hydrogen", "atom_type": "H0"}}

>  <type>  (3) 
r2h

$$$$

     RDKit          3D

 23 21  0  0  0  0  0  0  0  0999 V2000
   -0.2133    2.7406   -0.8198 C   0  0  0  0  0  2  0  0  0  0  0  0
   -1.5199    2.2787   -0.3075 C   0  0  0  0  0  0  0  0  0  0  0  0
   -2.2507    1.3223   -1.2610 C   0  0  0  0  0  0  0  0  0  0  0  0
   -0.0672    3.3151   -1.7294 H   0  0  0  0  0  0  0  0  0  0  0  0
   -1.3702    1.7837    0.6579 H   0  0  0  0  0  0  0  0  0  0  0  0
   -2.1719    3.1404   -0.1083 H   0  0  0  0  0  0  0  0  0  0  0  0
   -1.6581    0.4253   -1.4513 H   0  0  0  0  0  0  0  0  0  0  0  0
   -2.4414    1.8011   -2.2228 H   0  0  0  0  0  0  0  0  0  0  0  0
   -3.2103    1.0151   -0.8401 H   0  0  0  0  0  0  0  0  0  0  0  0
    1.7067    1.7752    0.7649 C   0  0  0  0  0  0  0  0  0  0  0  0
    1.0481    0.6638    1.2522 O   0  0  0  0  0  0  0  0  0  0  0  0
    0.8609   -0.3419    0.2796 C   0  0  0  0  0  0  0  0  0  0  0  0
   -0.1633   -1.3187    0.8088 C   0  0  0  0  0  0  0  0  0  0  0  0
   -0.4922   -2.4276   -0.1460 C   0  0  0  0  0  0  0  0  0  0  0  0
   -0.0269   -2.5425   -1.2467 O   0  0  0  0  0  0  0  0  0  0  0  0
    0.9087    2.3562   -0.0599 H   0  0  0  0  0  0  0  0  0  0  0  0
    2.6114    1.5383    0.1943 H   0  0  0  0  0  0  0  0  0  0  0  0
    1.8917    2.4736    1.5775 H   0  0  0  0  0  0  0  0  0  0  0  0
    0.5110    0.1018   -0.6587 H   0  0  0  0  0  0  0  0  0  0  0  0
    1.8107   -0.8469    0.0673 H   0  0  0  0  0  0  0  0  0  0  0  0
   -1.0985   -0.7970    1.0435 H   0  0  0  0  0  0  0  0  0  0  0  0
    0.1680   -1.7649    1.7524 H   0  0  0  0  0  0  0  0  0  0  0  0
   -1.2270   -3.1675    0.2333 H   0  0  0  0  0  0  0  0  0  0  0  0
  1  2  1  0
  1  4  1  0
  2  3  1  0
  2  5  1  0
  2  6  1  0
  3  7  1  0
  3  8  1  0
  3  9  1  0
 10 11  1  0
 10 16  1  0
 10 17  1  0
 10 18  1  0
 11 12  1  0
 12 13  1  0
 12 19  1  0
 12 20  1  0
 13 14  1  0
 13 21  1  0
 13 22  1  0
 14 15  2  0
 14 23  1  0
M  RAD  1   1   3
M  END
>  <reaction>  (4) 
rmg_rxn_1337

>  <mol_properties>  (4) 
{"0": {"label": "*3", "atom_type": "Cs"}, "1": {"label": "*4", "atom_type": "Cs"}, "9": {"label": "*1", "atom_type": "Cs"}, "10": {"label": "*0", "atom_type": "O2s"}, "15": {"label": "*2", "atom_type": "H0"}}

>  <type>  (4) 
ts

$$$$

     RDKit          3D

 23 21  0  0  0  0  0  0  0  0999 V2000
   -1.1441    1.7728   -0.7866 C   0  0  0  0  0  3  0  0  0  0  0  0
   -2.0995    2.8767   -0.5227 C   0  0  0  0  0  0  0  0  0  0  0  0
   -2.7415    3.4443   -1.7839 C   0  0  0  0  0  0  0  0  0  0  0  0
   -0.7316    1.6201   -1.7758 H   0  0  0  0  0  0  0  0  0  0  0  0
   -2.8776    2.5337    0.1696 H   0  0  0  0  0  0  0  0  0  0  0  0
   -1.5867    3.6886    0.0156 H   0  0  0  0  0  0  0  0  0  0  0  0
   -3.3073    2.6749   -2.3126 H   0  0  0  0  0  0  0  0  0  0  0  0
   -1.9808    3.8278   -2.4672 H   0  0  0  0  0  0  0  0  0  0  0  0
   -3.4230    4.2627   -1.5476 H   0  0  0  0  0  0  0  0  0  0  0  0
    0.9769    1.4494    0.7093 C   0  0  0  0  0  3  0  0  0  0  0  0
    0.9769    0.1940    1.3337 O   0  0  0  0  0  0  0  0  0  0  0  0
    0.9769   -0.8672    0.4137 C   0  0  0  0  0  0  0  0  0  0  0  0
    0.9769   -2.1620    1.1944 C   0  0  0  0  0  0  0  0  0  0  0  0
    0.9769   -3.3927    0.3375 C   0  0  0  0  0  0  0  0  0  0  0  0
    0.9769   -3.3927   -0.8630 O   0  0  0  0  0  0  0  0  0  0  0  0
   -0.0914    1.6123   -0.0442 H   0  0  0  0  0  0  0  0  0  0  0  0
    1.8671    1.5851    0.0814 H   0  0  0  0  0  0  0  0  0  0  0  0
    0.9769    2.2055    1.4928 H   0  0  0  0  0  0  0  0  0  0  0  0
    0.0945   -0.8165   -0.2379 H   0  0  0  0  0  0  0  0  0  0  0  0
    1.8593   -0.8165   -0.2379 H   0  0  0  0  0  0  0  0  0  0  0  0
    0.1056   -2.2127    1.8565 H   0  0  0  0  0  0  0  0  0  0  0  0
    1.8482   -2.2127    1.8565 H   0  0  0  0  0  0  0  0  0  0  0  0
    0.9769   -4.3506    0.8982 H   0  0  0  0  0  0  0  0  0  0  0  0
  1  2  1  0
  1  4  1  0
  1 16  1  0
  2  3  1  0
  2  5  1  0
  2  6  1  0
  3  7  1  0
  3  8  1  0
  3  9  1  0
 10 11  1  0
 10 17  1  0
 10 18  1  0
 11 12  1  0
 12 13  1  0
 12 19  1  0
 12 20  1  0
 13 14  1  0
 13 21  1  0
 13 22  1  0
 14 15  2  0
 14 23  1  0
M  RAD  2   1   2  10   2
M  END
>  <reaction>  (5) 
rmg_rxn_1337

>  <mol_properties>  (5) 
{"0": {"label": "*3", "atom_type": "Cs"}, "1": {"label": "*4", "atom_type": "Cs"}, "9": {"label": "*1", "atom_type": "Cs"}, "10": {"label": "*0", "atom_type": "O2s"}, "15": {"label": "*2", "atom_type": "H0"}}

>  <type>  (5) 
unop_1

>  <geom_source>  (5) 
Heuristics

$$$$

     RDKit          3D

 23 21  0  0  0  0  0  0  0  0999 V2000
   -1.0061    2.1885   -0.8501 C   0  0  0  0  0  3  0  0  0  0  0  0
   -2.2867    1.5221   -0.5080 C   0  0  0  0  0  0  0  0  0  0  0  0
   -3.4503    1.9385   -1.4010 C   0  0  0  0  0  0  0  0  0  0  0  0
   -0.9917    3.0876   -1.4529 H   0  0  0  0  0  0  0  0  0  0  0  0
   -2.1582    0.4339   -0.5466 H   0  0  0  0  0  0  0  0  0  0  0  0
   -2.5452    1.7345    0.5408 H   0  0  0  0  0  0  0  0  0  0  0  0
   -3.2490    1.6887   -2.4443 H   0  0  0  0  0  0  0  0  0  0  0  0
   -3.6176    3.0162   -1.3423 H   0  0  0  0  0  0  0  0  0  0  0  0
   -4.3744    1.4393   -1.1060 H   0  0  0  0  0  0  0  0  0  0  0  0
    1.1149    1.8650    0.6458 C   0  0  0  0  0  3  0  0  0  0  0  0
    1.1149    0.6097    1.2703 O   0  0  0  0  0  0  0  0  0  0  0  0
    1.1149   -0.4515    0.3502 C   0  0  0  0  0  0  0  0  0  0  0  0
    1.1149   -1.7464    1.1309 C   0  0  0  0  0  0  0  0  0  0  0  0
    1.1149   -2.9770    0.2741 C   0  0  0  0  0  0  0  0  0  0  0  0
    1.1149   -2.9770   -0.9265 O   0  0  0  0  0  0  0  0  0  0  0  0
    0.0466    2.0279   -0.1076 H   0  0  0  0  0  0  0  0  0  0  0  0
    2.0051    2.0008    0.0179 H   0  0  0  0  0  0  0  0  0  0  0  0
    1.1148    2.6212    1.4293 H   0  0  0  0  0  0  0  0  0  0  0  0
    0.2324   -0.4009   -0.3014 H   0  0  0  0  0  0  0  0  0  0  0  0
    1.9973   -0.4009   -0.3014 H   0  0  0  0  0  0  0  0  0  0  0  0
    0.2436   -1.7970    1.7931 H   0  0  0  0  0  0  0  0  0  0  0  0
    1.9861   -1.7970    1.7931 H   0  0  0  0  0  0  0  0  0  0  0  0
    1.1149   -3.9349    0.8348 H   0  0  0  0  0  0  0  0  0  0  0  0
  1  2  1  0
  1  4  1  0
  1 16  1  0
  2  3  1  0
  2  5  1  0
  2  6  1  0
  3  7  1  0
  3  8  1  0
  3  9  1  0
 10 11  1  0
 10 17  1  0
 10 18  1  0
 11 12  1  0
 12 13  1  0
 12 19  1  0
 12 20  1  0
 13 14  1  0
 13 21  1  0
 13 22  1  0
 14 15  2  0
 14 23  1  0
M  RAD  2   1   2  10   2
M  END
>  <reaction>  (6) 
rmg_rxn_1337

>  <mol_properties>  (6) 
{"0": {"label": "*3", "atom_type": "Cs"}, "1": {"label": "*4", "atom_type": "Cs"}, "9": {"label": "*1", "atom_type": "Cs"}, "10": {"label": "*0", "atom_type": "O2s"}, "15": {"label": "*2", "atom_type": "H0"}}

>  <type>  (6) 
unop_2

>  <geom_source>  (6) 
Heuristics

$$$$

     RDKit          3D

 23 21  0  0  0  0  0  0  0  0999 V2000
   -1.2109    1.7721   -0.6731 C   0  0  0  0  0  3  0  0  0  0  0  0
   -1.7890    3.1209   -0.8913 C   0  0  0  0  0  0  0  0  0  0  0  0
   -2.5820    3.2438   -2.1878 C   0  0  0  0  0  0  0  0  0  0  0  0
   -1.1090    1.0724   -1.4928 H   0  0  0  0  0  0  0  0  0  0  0  0
   -2.4233    3.3928   -0.0393 H   0  0  0  0  0  0  0  0  0  0  0  0
   -0.9845    3.8724   -0.8900 H   0  0  0  0  0  0  0  0  0  0  0  0
   -3.4240    2.5492   -2.1963 H   0  0  0  0  0  0  0  0  0  0  0  0
   -1.9524    3.0154   -3.0505 H   0  0  0  0  0  0  0  0  0  0  0  0
   -2.9750    4.2532   -2.3176 H   0  0  0  0  0  0  0  0  0  0  0  0
    0.9100    1.4487    0.8228 C   0  0  0  0  0  3  0  0  0  0  0  0
    0.9100    0.1933    1.4472 O   0  0  0  0  0  0  0  0  0  0  0  0
    0.9100   -0.8679    0.5272 C   0  0  0  0  0  0  0  0  0  0  0  0
    0.9100   -2.1627    1.3079 C   0  0  0  0  0  0  0  0  0  0  0  0
    0.9100   -3.3934    0.4510 C   0  0  0  0  0  0  0  0  0  0  0  0
    0.9100   -3.3934   -0.7495 O   0  0  0  0  0  0  0  0  0  0  0  0
   -0.1583    1.6116    0.0693 H   0  0  0  0  0  0  0  0  0  0  0  0
    1.8003    1.5844    0.1949 H   0  0  0  0  0  0  0  0  0  0  0  0
    0.9100    2.2048    1.6063 H   0  0  0  0  0  0  0  0  0  0  0  0
    0.0276   -0.8172   -0.1244 H   0  0  0  0  0  0  0  0  0  0  0  0
    1.7924   -0.8172   -0.1244 H   0  0  0  0  0  0  0  0  0  0  0  0
    0.0388   -2.2134    1.9700 H   0  0  0  0  0  0  0  0  0  0  0  0
    1.7813   -2.2134    1.9700 H   0  0  0  0  0  0  0  0  0  0  0  0
    0.9100   -4.3512    1.0117 H   0  0  0  0  0  0  0  0  0  0  0  0
  1  2  1  0
  1  4  1  0
  1 16  1  0
  2  3  1  0
  2  5  1  0
  2  6  1  0
  3  7  1  0
  3  8  1  0
  3  9  1  0
 10 11  1  0
 10 17  1  0
 10 18  1  0
 11 12  1  0
 12 13  1  0
 12 19  1  0
 12 20  1  0
 13 14  1  0
 13 21  1  0
 13 22  1  0
 14 15  2  0
 14 23  1  0
M  RAD  2   1   2  10   2
M  END
>  <reaction>  (7) 
rmg_rxn_1337

>  <mol_properties>  (7) 
{"0": {"label": "*3", "atom_type": "Cs"}, "1": {"label": "*4", "atom_type": "Cs"}, "9": {"label": "*1", "atom_type": "Cs"}, "10": {"label": "*0", "atom_type": "O2s"}, "15": {"label": "*2", "atom_type": "H0"}}

>  <type>  (7) 
unop_3

>  <geom_source>  (7) 
Heuristics

$$$$

     RDKit          3D

 23 21  0  0  0  0  0  0  0  0999 V2000
   -1.3157    2.2104   -0.4725 C   0  0  0  0  0  3  0  0  0  0  0  0
   -1.5935    1.2946   -1.6062 C   0  0  0  0  0  0  0  0  0  0  0  0
   -2.0409    2.0112   -2.8755 C   0  0  0  0  0  0  0  0  0  0  0  0
   -1.6942    3.2246   -0.4724 H   0  0  0  0  0  0  0  0  0  0  0  0
   -0.7057    0.6860   -1.8150 H   0  0  0  0  0  0  0  0  0  0  0  0
   -2.3664    0.5675   -1.3131 H   0  0  0  0  0  0  0  0  0  0  0  0
   -1.2701    2.7003   -3.2257 H   0  0  0  0  0  0  0  0  0  0  0  0
   -2.9489    2.5905   -2.6942 H   0  0  0  0  0  0  0  0  0  0  0  0
   -2.2503    1.3022   -3.6778 H   0  0  0  0  0  0  0  0  0  0  0  0
    0.8053    1.8869    1.0233 C   0  0  0  0  0  3  0  0  0  0  0  0
    0.8053    0.6316    1.6478 O   0  0  0  0  0  0  0  0  0  0  0  0
    0.8053   -0.4296    0.7277 C   0  0  0  0  0  0  0  0  0  0  0  0
    0.8053   -1.7245    1.5084 C   0  0  0  0  0  0  0  0  0  0  0  0
    0.8053   -2.9552    0.6516 C   0  0  0  0  0  0  0  0  0  0  0  0
    0.8053   -2.9552   -0.5489 O   0  0  0  0  0  0  0  0  0  0  0  0
   -0.2630    2.0498    0.2699 H   0  0  0  0  0  0  0  0  0  0  0  0
    1.6955    2.0227    0.3955 H   0  0  0  0  0  0  0  0  0  0  0  0
    0.8053    2.6431    1.8069 H   0  0  0  0  0  0  0  0  0  0  0  0
   -0.0772   -0.3790    0.0762 H   0  0  0  0  0  0  0  0  0  0  0  0
    1.6877   -0.3790    0.0761 H   0  0  0  0  0  0  0  0  0  0  0  0
   -0.0660   -1.7752    2.1706 H   0  0  0  0  0  0  0  0  0  0  0  0
    1.6765   -1.7752    2.1706 H   0  0  0  0  0  0  0  0  0  0  0  0
    0.8053   -3.9130    1.2123 H   0  0  0  0  0  0  0  0  0  0  0  0
  1  2  1  0
  1  4  1  0
  1 16  1  0
  2  3  1  0
  2  5  1  0
  2  6  1  0
  3  7  1  0
  3  8  1  0
  3  9  1  0
 10 11  1  0
 10 17  1  0
 10 18  1  0
 11 12  1  0
 12 13  1  0
 12 19  1  0
 12 20  1  0
 13 14  1  0
 13 21  1  0
 13 22  1  0
 14 15  2  0
 14 23  1  0
M  RAD  2   1   2  10   2
M  END
>  <reaction>  (8) 
rmg_rxn_1337

>  <mol_properties>  (8) 
{"0": {"label": "*3", "atom_type": "Cs"}, "1": {"label": "*4", "atom_type": "Cs"}, "9": {"label": "*1", "atom_type": "Cs"}, "10": {"label": "*0", "atom_type": "O2s"}, "15": {"label": "*2", "atom_type": "H0"}}

>  <type>  (8) 
unop_4

>  <geom_source>  (8) 
Heuristics

$$$$

     RDKit          3D

 23 21  0  0  0  0  0  0  0  0999 V2000
   -1.2191    1.7932   -0.6362 C   0  0  0  0  0  3  0  0  0  0  0  0
   -1.4301    3.0507   -1.3945 C   0  0  0  0  0  0  0  0  0  0  0  0
   -2.8313    3.1831   -1.9812 C   0  0  0  0  0  0  0  0  0  0  0  0
   -1.8846    0.9491   -0.7644 H   0  0  0  0  0  0  0  0  0  0  0  0
   -1.2130    3.9110   -0.7504 H   0  0  0  0  0  0  0  0  0  0  0  0
   -0.6922    3.1196   -2.2085 H   0  0  0  0  0  0  0  0  0  0  0  0
   -3.5858    3.1757   -1.1924 H   0  0  0  0  0  0  0  0  0  0  0  0
   -3.0481    2.3538   -2.6580 H   0  0  0  0  0  0  0  0  0  0  0  0
   -2.9391    4.1117   -2.5436 H   0  0  0  0  0  0  0  0  0  0  0  0
    0.9019    1.4698    0.8597 C   0  0  0  0  0  3  0  0  0  0  0  0
    0.9019    0.2144    1.4841 O   0  0  0  0  0  0  0  0  0  0  0  0
    0.9019   -0.8468    0.5641 C   0  0  0  0  0  0  0  0  0  0  0  0
    0.9019   -2.1416    1.3448 C   0  0  0  0  0  0  0  0  0  0  0  0
    0.9019   -3.3723    0.4879 C   0  0  0  0  0  0  0  0  0  0  0  0
    0.9019   -3.3723   -0.7126 O   0  0  0  0  0  0  0  0  0  0  0  0
   -0.1664    1.6327    0.1062 H   0  0  0  0  0  0  0  0  0  0  0  0
    1.7921    1.6055    0.2318 H   0  0  0  0  0  0  0  0  0  0  0  0
    0.9019    2.2259    1.6432 H   0  0  0  0  0  0  0  0  0  0  0  0
    0.0195   -0.7961   -0.0875 H   0  0  0  0  0  0  0  0  0  0  0  0
    1.7843   -0.7961   -0.0875 H   0  0  0  0  0  0  0  0  0  0  0  0
    0.0306   -2.1923    2.0069 H   0  0  0  0  0  0  0  0  0  0  0  0
    1.7732   -2.1923    2.0069 H   0  0  0  0  0  0  0  0  0  0  0  0
    0.9019   -4.3302    1.0486 H   0  0  0  0  0  0  0  0  0  0  0  0
  1  2  1  0
  1  4  1  0
  1 16  1  0
  2  3  1  0
  2  5  1  0
  2  6  1  0
  3  7  1  0
  3  8  1  0
  3  9  1  0
 10 11  1  0
 10 17  1  0
 10 18  1  0
 11 12  1  0
 12 13  1  0
 12 19  1  0
 12 20  1  0
 13 14  1  0
 13 21  1  0
 13 22  1  0
 14 15  2  0
 14 23  1  0
M  RAD  2   1   2  10   2
M  END
>  <reaction>  (9) 
rmg_rxn_1337

>  <mol_properties>  (9) 
{"0": {"label": "*3", "atom_type": "Cs"}, "1": {"label": "*4", "atom_type": "Cs"}, "9": {"label": "*1", "atom_type": "Cs"}, "10": {"label": "*0", "atom_type": "O2s"}, "15": {"label": "*2", "atom_type": "H0"}}

>  <type>  (9) 
unop_5

>  <geom_source>  (9) 
Heuristics

$$$$

     RDKit          3D

 23 21  0  0  0  0  0  0  0  0999 V2000
   -1.3827    2.0473   -0.4442 C   0  0  0  0  0  3  0  0  0  0  0  0
   -1.3739    1.6471   -1.8727 C   0  0  0  0  0  0  0  0  0  0  0  0
   -1.7997    2.7613   -2.8225 C   0  0  0  0  0  0  0  0  0  0  0  0
   -1.9291    2.9223   -0.1160 H   0  0  0  0  0  0  0  0  0  0  0  0
   -0.3768    1.2836   -2.1479 H   0  0  0  0  0  0  0  0  0  0  0  0
   -2.0359    0.7795   -2.0175 H   0  0  0  0  0  0  0  0  0  0  0  0
   -1.1271    3.6175   -2.7444 H   0  0  0  0  0  0  0  0  0  0  0  0
   -2.8085    3.1071   -2.5869 H   0  0  0  0  0  0  0  0  0  0  0  0
   -1.7955    2.4214   -3.8591 H   0  0  0  0  0  0  0  0  0  0  0  0
    0.7383    1.7238    1.0517 C   0  0  0  0  0  3  0  0  0  0  0  0
    0.7383    0.4685    1.6762 O   0  0  0  0  0  0  0  0  0  0  0  0
    0.7383   -0.5927    0.7561 C   0  0  0  0  0  0  0  0  0  0  0  0
    0.7383   -1.8876    1.5368 C   0  0  0  0  0  0  0  0  0  0  0  0
    0.7383   -3.1182    0.6800 C   0  0  0  0  0  0  0  0  0  0  0  0
    0.7383   -3.1182   -0.5206 O   0  0  0  0  0  0  0  0  0  0  0  0
   -0.3300    1.8868    0.2983 H   0  0  0  0  0  0  0  0  0  0  0  0
    1.6285    1.8596    0.4238 H   0  0  0  0  0  0  0  0  0  0  0  0
    0.7383    2.4800    1.8352 H   0  0  0  0  0  0  0  0  0  0  0  0
   -0.1441   -0.5420    0.1045 H   0  0  0  0  0  0  0  0  0  0  0  0
    1.6207   -0.5420    0.1045 H   0  0  0  0  0  0  0  0  0  0  0  0
   -0.1330   -1.9382    2.1990 H   0  0  0  0  0  0  0  0  0  0  0  0
    1.6096   -1.9382    2.1990 H   0  0  0  0  0  0  0  0  0  0  0  0
    0.7383   -4.0761    1.2407 H   0  0  0  0  0  0  0  0  0  0  0  0
  1  2  1  0
  1  4  1  0
  1 16  1  0
  2  3  1  0
  2  5  1  0
  2  6  1  0
  3  7  1  0
  3  8  1  0
  3  9  1  0
 10 11  1  0
 10 17  1  0
 10 18  1  0
 11 12  1  0
 12 13  1  0
 12 19  1  0
 12 20  1  0
 13 14  1  0
 13 21  1  0
 13 22  1  0
 14 15  2  0
 14 23  1  0
M  RAD  2   1   2  10   2
M  END
>  <reaction>  (10) 
rmg_rxn_1337

>  <mol_properties>  (10) 
{"0": {"label": "*3", "atom_type": "Cs"}, "1": {"label": "*4", "atom_type": "Cs"}, "9": {"label": "*1", "atom_type": "Cs"}, "10": {"label": "*0", "atom_type": "O2s"}, "15": {"label": "*2", "atom_type": "H0"}}

>  <type>  (10) 
unop_6

>  <geom_source>  (10) 
Heuristics

$$$$

     RDKit          3D

 23 21  0  0  0  0  0  0  0  0999 V2000
   -1.3801    1.8813   -0.4957 C   0  0  0  0  0  3  0  0  0  0  0  0
   -1.2523    2.1290   -1.9529 C   0  0  0  0  0  0  0  0  0  0  0  0
   -1.9242    3.4173   -2.4153 C   0  0  0  0  0  0  0  0  0  0  0  0
   -2.1292    2.3970    0.0916 H   0  0  0  0  0  0  0  0  0  0  0  0
   -0.1925    2.1398   -2.2338 H   0  0  0  0  0  0  0  0  0  0  0  0
   -1.6792    1.2814   -2.5107 H   0  0  0  0  0  0  0  0  0  0  0  0
   -1.4831    4.2852   -1.9215 H   0  0  0  0  0  0  0  0  0  0  0  0
   -2.9903    3.4050   -2.1789 H   0  0  0  0  0  0  0  0  0  0  0  0
   -1.8214    3.5530   -3.4928 H   0  0  0  0  0  0  0  0  0  0  0  0
    0.7409    1.5578    1.0001 C   0  0  0  0  0  3  0  0  0  0  0  0
    0.7409    0.3025    1.6246 O   0  0  0  0  0  0  0  0  0  0  0  0
    0.7409   -0.7587    0.7045 C   0  0  0  0  0  0  0  0  0  0  0  0
    0.7409   -2.0536    1.4852 C   0  0  0  0  0  0  0  0  0  0  0  0
    0.7409   -3.2842    0.6284 C   0  0  0  0  0  0  0  0  0  0  0  0
    0.7409   -3.2842   -0.5721 O   0  0  0  0  0  0  0  0  0  0  0  0
   -0.3274    1.7208    0.2467 H   0  0  0  0  0  0  0  0  0  0  0  0
    1.6311    1.6936    0.3723 H   0  0  0  0  0  0  0  0  0  0  0  0
    0.7409    2.3140    1.7836 H   0  0  0  0  0  0  0  0  0  0  0  0
   -0.1415   -0.7080    0.0529 H   0  0  0  0  0  0  0  0  0  0  0  0
    1.6233   -0.7080    0.0529 H   0  0  0  0  0  0  0  0  0  0  0  0
   -0.1304   -2.1042    2.1474 H   0  0  0  0  0  0  0  0  0  0  0  0
    1.6121   -2.1042    2.1474 H   0  0  0  0  0  0  0  0  0  0  0  0
    0.7409   -4.2421    1.1891 H   0  0  0  0  0  0  0  0  0  0  0  0
  1  2  1  0
  1  4  1  0
  1 16  1  0
  2  3  1  0
  2  5  1  0
  2  6  1  0
  3  7  1  0
  3  8  1  0
  3  9  1  0
 10 11  1  0
 10 17  1  0
 10 18  1  0
 11 12  1  0
 12 13  1  0
 12 19  1  0
 12 20  1  0
 13 14  1  0
 13 21  1  0
 13 22  1  0
 14 15  2  0
 14 23  1  0
M  RAD  2   1   2  10   2
M  END
>  <reaction>  (11) 
rmg_rxn_1337

>  <mol_properties>  (11) 
{"0": {"label": "*3", "atom_type": "Cs"}, "1": {"label": "*4", "atom_type": "Cs"}, "9": {"label": "*1", "atom_type": "Cs"}, "10": {"label": "*0", "atom_type": "O2s"}, "15": {"label": "*2", "atom_type": "H0"}}

>  <type>  (11) 
unop_7

>  <geom_source>  (11) 
Heuristics

$$$$

     RDKit          3D

 23 21  0  0  0  0  0  0  0  0999 V2000
   -1.0572    1.8635   -0.8821 C   0  0  0  0  0  3  0  0  0  0  0  0
   -2.2992    2.4518   -0.3234 C   0  0  0  0  0  0  0  0  0  0  0  0
   -3.1235    3.2254   -1.3466 C   0  0  0  0  0  0  0  0  0  0  0  0
   -0.6479    2.2178   -1.8196 H   0  0  0  0  0  0  0  0  0  0  0  0
   -2.9114    1.6618    0.1277 H   0  0  0  0  0  0  0  0  0  0  0  0
   -2.0472    3.1205    0.5140 H   0  0  0  0  0  0  0  0  0  0  0  0
   -3.4387    2.5749   -2.1645 H   0  0  0  0  0  0  0  0  0  0  0  0
   -2.5402    4.0427   -1.7763 H   0  0  0  0  0  0  0  0  0  0  0  0
   -4.0176    3.6547   -0.8922 H   0  0  0  0  0  0  0  0  0  0  0  0
    1.0637    1.5400    0.6137 C   0  0  0  0  0  3  0  0  0  0  0  0
    1.0637    0.2847    1.2382 O   0  0  0  0  0  0  0  0  0  0  0  0
    1.0637   -0.7765    0.3181 C   0  0  0  0  0  0  0  0  0  0  0  0
    1.0637   -2.0714    1.0988 C   0  0  0  0  0  0  0  0  0  0  0  0
    1.0637   -3.3021    0.2420 C   0  0  0  0  0  0  0  0  0  0  0  0
    1.0637   -3.3021   -0.9585 O   0  0  0  0  0  0  0  0  0  0  0  0
   -0.0046    1.7029   -0.1397 H   0  0  0  0  0  0  0  0  0  0  0  0
    1.9540    1.6758   -0.0141 H   0  0  0  0  0  0  0  0  0  0  0  0
    1.0637    2.2962    1.3972 H   0  0  0  0  0  0  0  0  0  0  0  0
    0.1813   -0.7259   -0.3335 H   0  0  0  0  0  0  0  0  0  0  0  0
    1.9461   -0.7259   -0.3335 H   0  0  0  0  0  0  0  0  0  0  0  0
    0.1925   -2.1220    1.7610 H   0  0  0  0  0  0  0  0  0  0  0  0
    1.9350   -2.1220    1.7610 H   0  0  0  0  0  0  0  0  0  0  0  0
    1.0637   -4.2599    0.8027 H   0  0  0  0  0  0  0  0  0  0  0  0
  1  2  1  0
  1  4  1  0
  1 16  1  0
  2  3  1  0
  2  5  1  0
  2  6  1  0
  3  7  1  0
  3  8  1  0
  3  9  1  0
 10 11  1  0
 10 17  1  0
 10 18  1  0
 11 12  1  0
 12 13  1  0
 12 19  1  0
 12 20  1  0
 13 14  1  0
 13 21  1  0
 13 22  1  0
 14 15  2  0
 14 23  1  0
M  RAD  2   1   2  10   2
M  END
>  <reaction>  (12) 
rmg_rxn_1337

>  <mol_properties>  (12) 
{"0": {"label": "*3", "atom_type": "Cs"}, "1": {"label": "*4", "atom_type": "Cs"}, "9": {"label": "*1", "atom_type": "Cs"}, "10": {"label": "*0", "atom_type": "O2s"}, "15": {"label": "*2", "atom_type": "H0"}}

>  <type>  (12) 
unop_8

>  <geom_source>  (12) 
Heuristics

$$$$

     RDKit          3D

 23 21  0  0  0  0  0  0  0  0999 V2000
   -1.2012    2.3091   -0.5764 C   0  0  0  0  0  3  0  0  0  0  0  0
   -1.8563    1.1484   -1.2279 C   0  0  0  0  0  0  0  0  0  0  0  0
   -2.5537    1.4962   -2.5385 C   0  0  0  0  0  0  0  0  0  0  0  0
   -1.4670    3.3223   -0.8497 H   0  0  0  0  0  0  0  0  0  0  0  0
   -1.1184    0.3554   -1.3975 H   0  0  0  0  0  0  0  0  0  0  0  0
   -2.5897    0.7029   -0.5383 H   0  0  0  0  0  0  0  0  0  0  0  0
   -1.8412    1.8887   -3.2663 H   0  0  0  0  0  0  0  0  0  0  0  0
   -3.3211    2.2568   -2.3793 H   0  0  0  0  0  0  0  0  0  0  0  0
   -3.0355    0.6204   -2.9754 H   0  0  0  0  0  0  0  0  0  0  0  0
    0.9198    1.9856    0.9195 C   0  0  0  0  0  3  0  0  0  0  0  0
    0.9198    0.7303    1.5440 O   0  0  0  0  0  0  0  0  0  0  0  0
    0.9198   -0.3309    0.6239 C   0  0  0  0  0  0  0  0  0  0  0  0
    0.9198   -1.6258    1.4046 C   0  0  0  0  0  0  0  0  0  0  0  0
    0.9198   -2.8565    0.5478 C   0  0  0  0  0  0  0  0  0  0  0  0
    0.9198   -2.8565   -0.6528 O   0  0  0  0  0  0  0  0  0  0  0  0
   -0.1485    2.1485    0.1661 H   0  0  0  0  0  0  0  0  0  0  0  0
    1.8101    2.1214    0.2916 H   0  0  0  0  0  0  0  0  0  0  0  0
    0.9198    2.7417    1.7030 H   0  0  0  0  0  0  0  0  0  0  0  0
    0.0374   -0.2803   -0.0277 H   0  0  0  0  0  0  0  0  0  0  0  0
    1.8022   -0.2803   -0.0277 H   0  0  0  0  0  0  0  0  0  0  0  0
    0.0485   -1.6765    2.0668 H   0  0  0  0  0  0  0  0  0  0  0  0
    1.7911   -1.6765    2.0668 H   0  0  0  0  0  0  0  0  0  0  0  0
    0.9198   -3.8143    1.1085 H   0  0  0  0  0  0  0  0  0  0  0  0
  1  2  1  0
  1  4  1  0
  1 16  1  0
  2  3  1  0
  2  5  1  0
  2  6  1  0
  3  7  1  0
  3  8  1  0
  3  9  1  0
 10 11  1  0
 10 17  1  0
 10 18  1  0
 11 12  1  0
 12 13  1  0
 12 19  1  0
 12 20  1  0
 13 14  1  0
 13 21  1  0
 13 22  1  0
 14 15  2  0
 14 23  1  0
M  RAD  2   1   2  10   2
M  END
>  <reaction>  (13) 
rmg_rxn_1337

>  <mol_properties>  (13) 
{"0": {"label": "*3", "atom_type": "Cs"}, "1": {"label": "*4", "atom_type": "Cs"}, "9": {"label": "*1", "atom_type": "Cs"}, "10": {"label": "*0", "atom_type": "O2s"}, "15": {"label": "*2", "atom_type": "H0"}}

>  <type>  (13) 
unop_9

>  <geom_source>  (13) 
Heuristics

$$$$

     RDKit          3D

 23 21  0  0  0  0  0  0  0  0999 V2000
   -1.0008    2.0202   -0.9095 C   0  0  0  0  0  3  0  0  0  0  0  0
   -2.3618    1.9606   -0.3221 C   0  0  0  0  0  0  0  0  0  0  0  0
   -3.4266    2.6408   -1.1758 C   0  0  0  0  0  0  0  0  0  0  0  0
   -0.7625    2.7346   -1.6872 H   0  0  0  0  0  0  0  0  0  0  0  0
   -2.6405    0.9156   -0.1417 H   0  0  0  0  0  0  0  0  0  0  0  0
   -2.3537    2.4227    0.6770 H   0  0  0  0  0  0  0  0  0  0  0  0
   -3.4998    2.1675   -2.1567 H   0  0  0  0  0  0  0  0  0  0  0  0
   -3.1842    3.6943   -1.3310 H   0  0  0  0  0  0  0  0  0  0  0  0
   -4.4075    2.5889   -0.7012 H   0  0  0  0  0  0  0  0  0  0  0  0
    1.1201    1.6967    0.5863 C   0  0  0  0  0  3  0  0  0  0  0  0
    1.1201    0.4414    1.2108 O   0  0  0  0  0  0  0  0  0  0  0  0
    1.1201   -0.6198    0.2907 C   0  0  0  0  0  0  0  0  0  0  0  0
    1.1201   -1.9147    1.0714 C   0  0  0  0  0  0  0  0  0  0  0  0
    1.1201   -3.1453    0.2146 C   0  0  0  0  0  0  0  0  0  0  0  0
    1.1201   -3.1453   -0.9859 O   0  0  0  0  0  0  0  0  0  0  0  0
    0.0518    1.8597   -0.1671 H   0  0  0  0  0  0  0  0  0  0  0  0
    2.0104    1.8325   -0.0415 H   0  0  0  0  0  0  0  0  0  0  0  0
    1.1201    2.4529    1.3698 H   0  0  0  0  0  0  0  0  0  0  0  0
    0.2377   -0.5691   -0.3609 H   0  0  0  0  0  0  0  0  0  0  0  0
    2.0025   -0.5691   -0.3609 H   0  0  0  0  0  0  0  0  0  0  0  0
    0.2489   -1.9653    1.7336 H   0  0  0  0  0  0  0  0  0  0  0  0
    1.9914   -1.9653    1.7336 H   0  0  0  0  0  0  0  0  0  0  0  0
    1.1201   -4.1032    0.7753 H   0  0  0  0  0  0  0  0  0  0  0  0
  1  2  1  0
  1  4  1  0
  1 16  1  0
  2  3  1  0
  2  5  1  0
  2  6  1  0
  3  7  1  0
  3  8  1  0
  3  9  1  0
 10 11  1  0
 10 17  1  0
 10 18  1  0
 11 12  1  0
 12 13  1  0
 12 19  1  0
 12 20  1  0
 13 14  1  0
 13 21  1  0
 13 22  1  0
 14 15  2  0
 14 23  1  0
M  RAD  2   1   2  10   2
M  END
>  <reaction>  (14) 
rmg_rxn_1337

>  <mol_properties>  (14) 
{"0": {"label": "*3", "atom_type": "Cs"}, "1": {"label": "*4", "atom_type": "Cs"}, "9": {"label": "*1", "atom_type": "Cs"}, "10": {"label": "*0", "atom_type": "O2s"}, "15": {"label": "*2", "atom_type": "H0"}}

>  <type>  (14) 
unop_10

>  <geom_source>  (14) 
Heuristics

$$$$

     RDKit          3D

 23 21  0  0  0  0  0  0  0  0999 V2000
   -1.3050    1.7808   -0.5944 C   0  0  0  0  0  3  0  0  0  0  0  0
   -1.2577    2.6353   -1.8063 C   0  0  0  0  0  0  0  0  0  0  0  0
   -2.4104    3.6291   -1.8991 C   0  0  0  0  0  0  0  0  0  0  0  0
   -2.2197    1.6745   -0.0253 H   0  0  0  0  0  0  0  0  0  0  0  0
   -0.3010    3.1697   -1.8439 H   0  0  0  0  0  0  0  0  0  0  0  0
   -1.2574    2.0009   -2.7060 H   0  0  0  0  0  0  0  0  0  0  0  0
   -2.4050    4.3119   -1.0475 H   0  0  0  0  0  0  0  0  0  0  0  0
   -3.3709    3.1093   -1.9038 H   0  0  0  0  0  0  0  0  0  0  0  0
   -2.3472    4.2250   -2.8107 H   0  0  0  0  0  0  0  0  0  0  0  0
    0.8160    1.4573    0.9014 C   0  0  0  0  0  3  0  0  0  0  0  0
    0.8160    0.2020    1.5259 O   0  0  0  0  0  0  0  0  0  0  0  0
    0.8160   -0.8592    0.6058 C   0  0  0  0  0  0  0  0  0  0  0  0
    0.8160   -2.1541    1.3865 C   0  0  0  0  0  0  0  0  0  0  0  0
    0.8160   -3.3847    0.5297 C   0  0  0  0  0  0  0  0  0  0  0  0
    0.8160   -3.3847   -0.6709 O   0  0  0  0  0  0  0  0  0  0  0  0
   -0.2523    1.6203    0.1480 H   0  0  0  0  0  0  0  0  0  0  0  0
    1.7062    1.5931    0.2735 H   0  0  0  0  0  0  0  0  0  0  0  0
    0.8160    2.2135    1.6849 H   0  0  0  0  0  0  0  0  0  0  0  0
   -0.0664   -0.8086   -0.0458 H   0  0  0  0  0  0  0  0  0  0  0  0
    1.6984   -0.8086   -0.0458 H   0  0  0  0  0  0  0  0  0  0  0  0
   -0.0553   -2.2047    2.0487 H   0  0  0  0  0  0  0  0  0  0  0  0
    1.6873   -2.2047    2.0487 H   0  0  0  0  0  0  0  0  0  0  0  0
    0.8160   -4.3426    1.0904 H   0  0  0  0  0  0  0  0  0  0  0  0
  1  2  1  0
  1  4  1  0
  1 16  1  0
  2  3  1  0
  2  5  1  0
  2  6  1  0
  3  7  1  0
  3  8  1  0
  3  9  1  0
 10 11  1  0
 10 17  1  0
 10 18  1  0
 11 12  1  0
 12 13  1  0
 12 19  1  0
 12 20  1  0
 13 14  1  0
 13 21  1  0
 13 22  1  0
 14 15  2  0
 14 23  1  0
M  RAD  2   1   2  10   2
M  END
>  <reaction>  (15) 
rmg_rxn_1337

>  <mol_properties>  (15) 
{"0": {"label": "*3", "atom_type": "Cs"}, "1": {"label": "*4", "atom_type": "Cs"}, "9": {"label": "*1", "atom_type": "Cs"}, "10": {"label": "*0", "atom_type": "O2s"}, "15": {"label": "*2", "atom_type": "H0"}}

>  <type>  (15) 
unop_11

>  <geom_source>  (15) 
Heuristics

$$$$

     RDKit          3D

 23 21  0  0  0  0  0  0  0  0999 V2000
   -1.0815    2.3013   -0.7215 C   0  0  0  0  0  3  0  0  0  0  0  0
   -2.1036    1.2319   -0.8328 C   0  0  0  0  0  0  0  0  0  0  0  0
   -3.1161    1.4676   -1.9484 C   0  0  0  0  0  0  0  0  0  0  0  0
   -1.2409    3.2713   -1.1750 H   0  0  0  0  0  0  0  0  0  0  0  0
   -1.6102    0.2633   -0.9760 H   0  0  0  0  0  0  0  0  0  0  0  0
   -2.6399    1.1322    0.1234 H   0  0  0  0  0  0  0  0  0  0  0  0
   -2.6207    1.5145   -2.9200 H   0  0  0  0  0  0  0  0  0  0  0  0
   -3.6459    2.4108   -1.7982 H   0  0  0  0  0  0  0  0  0  0  0  0
   -3.8580    0.6686   -1.9853 H   0  0  0  0  0  0  0  0  0  0  0  0
    1.0395    1.9779    0.7744 C   0  0  0  0  0  3  0  0  0  0  0  0
    1.0395    0.7225    1.3989 O   0  0  0  0  0  0  0  0  0  0  0  0
    1.0395   -0.3387    0.4788 C   0  0  0  0  0  0  0  0  0  0  0  0
    1.0395   -1.6335    1.2595 C   0  0  0  0  0  0  0  0  0  0  0  0
    1.0395   -2.8642    0.4027 C   0  0  0  0  0  0  0  0  0  0  0  0
    1.0395   -2.8642   -0.7979 O   0  0  0  0  0  0  0  0  0  0  0  0
   -0.0288    2.1408    0.0210 H   0  0  0  0  0  0  0  0  0  0  0  0
    1.9298    2.1136    0.1465 H   0  0  0  0  0  0  0  0  0  0  0  0
    1.0395    2.7340    1.5579 H   0  0  0  0  0  0  0  0  0  0  0  0
    0.1571   -0.2880   -0.1728 H   0  0  0  0  0  0  0  0  0  0  0  0
    1.9219   -0.2880   -0.1728 H   0  0  0  0  0  0  0  0  0  0  0  0
    0.1682   -1.6842    1.9217 H   0  0  0  0  0  0  0  0  0  0  0  0
    1.9108   -1.6842    1.9217 H   0  0  0  0  0  0  0  0  0  0  0  0
    1.0395   -3.8221    0.9634 H   0  0  0  0  0  0  0  0  0  0  0  0
  1  2  1  0
  1  4  1  0
  1 16  1  0
  2  3  1  0
  2  5  1  0
  2  6  1  0
  3  7  1  0
  3  8  1  0
  3  9  1  0
 10 11  1  0
 10 17  1  0
 10 18  1  0
 11 12  1  0
 12 13  1  0
 12 19  1  0
 12 20  1  0
 13 14  1  0
 13 21  1  0
 13 22  1  0
 14 15  2  0
 14 23  1  0
M  RAD  2   1   2  10   2
M  END
>  <reaction>  (16) 
rmg_rxn_1337

>  <mol_properties>  (16) 
{"0": {"label": "*3", "atom_type": "Cs"}, "1": {"label": "*4", "atom_type": "Cs"}, "9": {"label": "*1", "atom_type": "Cs"}, "10": {"label": "*0", "atom_type": "O2s"}, "15": {"label": "*2", "atom_type": "H0"}}

>  <type>  (16) 
unop_12

>  <geom_source>  (16) 
Heuristics

$$$$

     RDKit          3D

 23 21  0  0  0  0  0  0  0  0999 V2000
   -1.0822   -0.0365   -0.8880 O   0  0  0  0  0  0  0  0  0  0  0  0
   -2.5560    1.7440    0.8816 O   0  0  0  0  0  0  0  0  0  0  0  0
   -3.4433   -0.0230   -0.4210 C   0  0  0  0  0  0  0  0  0  0  0  0
    3.1978   -0.0903    0.7383 C   0  0  0  0  0  0  0  0  0  0  0  0
   -2.1853   -0.8722   -0.6066 C   0  0  0  0  0  0  0  0  0  0  0  0
    3.4451    1.2531    0.0605 C   0  0  0  0  0  0  0  0  0  0  0  0
    1.7082   -0.3747    0.8697 C   0  0  0  0  0  2  0  0  0  0  0  0
   -3.3602    0.8282    0.8121 C   0  0  0  0  0  0  0  0  0  0  0  0
    0.0710   -0.8313   -1.0393 C   0  0  0  0  0  0  0  0  0  0  0  0
    3.6677   -0.8985    0.1390 H   0  0  0  0  0  0  0  0  0  0  0  0
    3.6587   -0.0867    1.7490 H   0  0  0  0  0  0  0  0  0  0  0  0
   -4.3209   -0.6986   -0.3290 H   0  0  0  0  0  0  0  0  0  0  0  0
   -3.6000    0.6239   -1.3112 H   0  0  0  0  0  0  0  0  0  0  0  0
   -2.0132   -1.4677    0.3204 H   0  0  0  0  0  0  0  0  0  0  0  0
   -2.3677   -1.5705   -1.4556 H   0  0  0  0  0  0  0  0  0  0  0  0
    2.9950    2.0751    0.6572 H   0  0  0  0  0  0  0  0  0  0  0  0
    3.0062    1.2572   -0.9600 H   0  0  0  0  0  0  0  0  0  0  0  0
    4.5379    1.4316   -0.0221 H   0  0  0  0  0  0  0  0  0  0  0  0
    1.2142    0.3951    1.5001 H   0  0  0  0  0  0  0  0  0  0  0  0
    1.1317   -0.4157   -0.3386 H   0  0  0  0  0  0  0  0  0  0  0  0
   -4.0317    0.6420    1.6440 H   0  0  0  0  0  0  0  0  0  0  0  0
   -0.0125   -1.5267   -1.9038 H   0  0  0  0  0  0  0  0  0  0  0  0
    0.3395   -1.3579   -0.0967 H   0  0  0  0  0  0  0  0  0  0  0  0
  1  9  1  0
  1  5  1  0
  2  8  2  0
  3  8  1  0
  3  5  1  0
  3 12  1  0
  3 13  1  0
  4  7  1  0
  4  6  1  0
  4 10  1  0
  4 11  1  0
  5 14  1  0
  5 15  1  0
  6 16  1  0
  6 17  1  0
  6 18  1  0
  7 19  1  0
  8 21  1  0
  9 20  1  0
  9 22  1  0
  9 23  1  0
M  RAD  1   7   3
M  END
>  <reaction>  (17) 
rmg_rxn_1337

>  <mol_properties>  (17) 
{"0": {"label": "*3", "atom_type": "Cs"}, "1": {"label": "*4", "atom_type": "Cs"}, "9": {"label": "*1", "atom_type": "Cs"}, "10": {"label": "*0", "atom_type": "O2s"}, "15": {"label": "*2", "atom_type": "H0"}}

>  <type>  (17) 
unop_13

>  <geom_source>  (17) 
AutoTST

$$$$

     RDKit          3D

 23 21  0  0  0  0  0  0  0  0999 V2000
   -1.0061    2.1885   -0.8500 C   0  0  0  0  0  3  0  0  0  0  0  0
   -2.2867    1.5221   -0.5080 C   0  0  0  0  0  0  0  0  0  0  0  0
   -3.4503    1.9385   -1.4010 C   0  0  0  0  0  0  0  0  0  0  0  0
   -0.9917    3.0876   -1.4528 H   0  0  0  0  0  0  0  0  0  0  0  0
   -2.1582    0.4339   -0.5466 H   0  0  0  0  0  0  0  0  0  0  0  0
   -2.5452    1.7345    0.5408 H   0  0  0  0  0  0  0  0  0  0  0  0
   -3.2490    1.6887   -2.4443 H   0  0  0  0  0  0  0  0  0  0  0  0
   -3.6176    3.0162   -1.3423 H   0  0  0  0  0  0  0  0  0  0  0  0
   -4.3744    1.4393   -1.1060 H   0  0  0  0  0  0  0  0  0  0  0  0
    1.1148    1.8650    0.6458 C   0  0  0  0  0  3  0  0  0  0  0  0
    1.1148    0.6097    1.2703 O   0  0  0  0  0  0  0  0  0  0  0  0
    1.1148   -0.4515    0.3502 C   0  0  0  0  0  0  0  0  0  0  0  0
    1.1148   -1.7464    1.1309 C   0  0  0  0  0  0  0  0  0  0  0  0
    1.1148   -2.9771    0.2741 C   0  0  0  0  0  0  0  0  0  0  0  0
    1.1148   -2.9771   -0.9265 O   0  0  0  0  0  0  0  0  0  0  0  0
    0.0466    2.0280   -0.1076 H   0  0  0  0  0  0  0  0  0  0  0  0
    2.0051    2.0008    0.0179 H   0  0  0  0  0  0  0  0  0  0  0  0
    1.1148    2.6212    1.4293 H   0  0  0  0  0  0  0  0  0  0  0  0
    0.2324   -0.4009   -0.3014 H   0  0  0  0  0  0  0  0  0  0  0  0
    1.9973   -0.4009   -0.3014 H   0  0  0  0  0  0  0  0  0  0  0  0
    0.2436   -1.7970    1.7931 H   0  0  0  0  0  0  0  0  0  0  0  0
    1.9861   -1.7970    1.7931 H   0  0  0  0  0  0  0  0  0  0  0  0
    1.1149   -3.9349    0.8348 H   0  0  0  0  0  0  0  0  0  0  0  0
  1  2  1  0
  1  4  1  0
  1 16  1  0
  2  3  1  0
  2  5  1  0
  2  6  1  0
  3  7  1  0
  3  8  1  0
  3  9  1  0
 10 11  1  0
 10 17  1  0
 10 18  1  0
 11 12  1  0
 12 13  1  0
 12 19  1  0
 12 20  1  0
 13 14  1  0
 13 21  1  0
 13 22  1  0
 14 15  2  0
 14 23  1  0
M  RAD  2   1   2  10   2
M  END
>  <reaction>  (18) 
rmg_rxn_1337

>  <mol_properties>  (18) 
{"0": {"label": "*3", "atom_type": "Cs"}, "1": {"label": "*4", "atom_type": "Cs"}, "9": {"label": "*1", "atom_type": "Cs"}, "10": {"label": "*0", "atom_type": "O2s"}, "15": {"label": "*2", "atom_type": "H0"}}

>  <type>  (18) 
unop_14

>  <geom_source>  (18) 
gaussian_log

$$$$
