
     RDKit          3D

  3  2  0  0  0  0  0  0  0  0999 V2000
    0.9943   -0.1797    0.0000 O   0  0  0  0  0  1  0  0  0  0  0  0
   -0.1595    0.4394    0.0000 O   0  0  0  0  0  0  0  0  0  0  0  0
   -0.8348   -0.2597    0.0000 H   0  0  0  0  0  0  0  0  0  0  0  0
  1  2  1  0
  2  3  1  0
M  RAD  1   1   2
M  END
>  <reaction>  (1) 
rmg_rxn_417

>  <mol_properties>  (1) 
{"1": {"label": "donator", "atom_type": "O2s"}, "2": {"label": "d_hydrogen", "atom_type": "H0"}}

>  <type>  (1) 
r1h

$$$$

     RDKit          3D

  8  7  0  0  0  0  0  0  0  0999 V2000
   -0.7853    0.0326    0.0393 C   0  0  0  0  0  0  0  0  0  0  0  0
    0.7379   -0.1211   -0.0579 C   0  0  0  0  0  0  0  0  0  0  0  0
    1.1315   -0.8282   -1.2106 N   0  0  0  0  0  1  0  0  0  0  0  0
   -1.2679   -0.9438    0.0768 H   0  0  0  0  0  0  0  0  0  0  0  0
   -1.0464    0.5840    0.9431 H   0  0  0  0  0  0  0  0  0  0  0  0
   -1.1718    0.5760   -0.8227 H   0  0  0  0  0  0  0  0  0  0  0  0
    1.2178    0.8698   -0.0686 H   0  0  0  0  0  0  0  0  0  0  0  0
    1.1219   -0.6479    0.8296 H   0  0  0  0  0  0  0  0  0  0  0  0
  1  2  1  0
  1  4  1  0
  1  5  1  0
  1  6  1  0
  2  3  1  0
  2  7  1  0
  2  8  1  0
M  RAD  1   3   3
M  END
>  <reaction>  (2) 
rmg_rxn_417

>  <mol_properties>  (2) 
{"2": {"label": "acceptor", "atom_type": "N3s"}}

>  <type>  (2) 
r2

$$$$

     RDKit          3D

  9  8  0  0  0  0  0  0  0  0999 V2000
   -1.0434   -0.0834    0.0221 C   0  0  0  0  0  0  0  0  0  0  0  0
    0.4680   -0.2131    0.0785 C   0  0  0  0  0  0  0  0  0  0  0  0
    0.9450   -1.3136   -0.7058 N   0  0  0  0  0  2  0  0  0  0  0  0
   -1.5170   -0.9919    0.3960 H   0  0  0  0  0  0  0  0  0  0  0  0
   -1.3864    0.7592    0.6249 H   0  0  0  0  0  0  0  0  0  0  0  0
   -1.3736    0.0696   -1.0061 H   0  0  0  0  0  0  0  0  0  0  0  0
    0.8045   -0.3309    1.1214 H   0  0  0  0  0  0  0  0  0  0  0  0
    0.9463    0.7186   -0.2648 H   0  0  0  0  0  0  0  0  0  0  0  0
    1.9638   -1.3321   -0.6157 H   0  0  0  0  0  0  0  0  0  0  0  0
  1  2  1  0
  1  4  1  0
  1  5  1  0
  1  6  1  0
  2  3  1  0
  2  7  1  0
  2  8  1  0
  3  9  1  0
M  RAD  1   3   2
M  END
>  <reaction>  (3) 
rmg_rxn_417

>  <mol_properties>  (3) 
{"0": {"label": "a_hydrogen", "atom_type": "H0"}, "3": {"label": "acceptor", "atom_type": "N3s"}}

>  <type>  (3) 
r2h

$$$$

     RDKit          3D

 11  9  0  0  0  0  0  0  0  0999 V2000
   -1.0143   -1.4289   -0.7885 O   0  0  0  0  0  1  0  0  0  0  0  0
   -0.5954   -1.6696    0.3952 O   0  0  0  0  0  0  0  0  0  0  0  0
    0.0246   -0.8243    0.7222 H   0  0  0  0  0  0  0  0  0  0  0  0
   -0.1633    2.4886    0.0193 C   0  0  0  0  0  0  0  0  0  0  0  0
    0.5462    1.1573   -0.2714 C   0  0  0  0  0  0  0  0  0  0  0  0
    0.7189    0.3757    0.8665 N   0  0  0  0  0  1  0  0  0  0  0  0
    0.4115    3.0815    0.7295 H   0  0  0  0  0  0  0  0  0  0  0  0
   -0.2698    3.0515   -0.9078 H   0  0  0  0  0  0  0  0  0  0  0  0
   -1.1544    2.3084    0.4337 H   0  0  0  0  0  0  0  0  0  0  0  0
   -0.0372    0.5731   -1.0162 H   0  0  0  0  0  0  0  0  0  0  0  0
    1.5333    1.3418   -0.7252 H   0  0  0  0  0  0  0  0  0  0  0  0
  1  2  1  0
  2  3  1  0
  4  5  1  0
  4  7  1  0
  4  8  1  0
  4  9  1  0
  5  6  1  0
  5 10  1  0
  5 11  1  0
M  RAD  2   1   2   6   3
M  END
>  <reaction>  (4) 
rmg_rxn_417

>  <mol_properties>  (4) 
{"0": {"label": "*0", "atom_type": "O2s"}, "1": {"label": "*1", "atom_type": "O2s"}, "2": {"label": "*2", "atom_type": "H0"}, "4": {"label": "*4", "atom_type": "Cs"}, "5": {"label": "*3", "atom_type": "N3s"}}

>  <type>  (4) 
ts

$$$$

     RDKit          3D

 11  9  0  0  0  0  0  0  0  0999 V2000
    0.4147   -1.5851   -1.9458 O   0  0  0  0  0  1  0  0  0  0  0  0
    0.4147   -1.5851   -0.6364 O   0  0  0  0  0  0  0  0  0  0  0  0
    0.4147   -0.4626   -0.3190 H   0  0  0  0  0  0  0  0  0  0  0  0
   -0.5127    1.8473    1.9805 C   0  0  0  0  0  0  0  0  0  0  0  0
   -0.7703    0.9423    0.7893 C   0  0  0  0  0  0  0  0  0  0  0  0
    0.4147    0.7187    0.0151 N   0  0  0  0  0  1  0  0  0  0  0  0
   -0.1416    2.8173    1.6477 H   0  0  0  0  0  0  0  0  0  0  0  0
   -1.4261    2.0051    2.5565 H   0  0  0  0  0  0  0  0  0  0  0  0
    0.2386    1.4067    2.6370 H   0  0  0  0  0  0  0  0  0  0  0  0
   -1.1800   -0.0248    1.1234 H   0  0  0  0  0  0  0  0  0  0  0  0
   -1.5559    1.3699    0.1452 H   0  0  0  0  0  0  0  0  0  0  0  0
  1  2  1  0
  2  3  1  0
  4  5  1  0
  4  7  1  0
  4  8  1  0
  4  9  1  0
  5  6  1  0
  5 10  1  0
  5 11  1  0
M  RAD  2   1   2   6   3
M  END
>  <reaction>  (5) 
rmg_rxn_417

>  <mol_properties>  (5) 
{"0": {"label": "*0", "atom_type": "O2s"}, "1": {"label": "*1", "atom_type": "O2s"}, "2": {"label": "*2", "atom_type": "H0"}, "4": {"label": "*4", "atom_type": "Cs"}, "5": {"label": "*3", "atom_type": "N3s"}}

>  <type>  (5) 
unop_1

>  <geom_source>  (5) 
Heuristics

$$$$

     RDKit          3D

 11  9  0  0  0  0  0  0  0  0999 V2000
    0.3629   -1.8736   -1.1007 O   0  0  0  0  0  1  0  0  0  0  0  0
    0.3629   -1.8736    0.2087 O   0  0  0  0  0  0  0  0  0  0  0  0
    0.3629   -0.7512    0.5261 H   0  0  0  0  0  0  0  0  0  0  0  0
   -0.7991    2.5179    0.3239 C   0  0  0  0  0  0  0  0  0  0  0  0
   -0.3213    1.1624   -0.1643 C   0  0  0  0  0  0  0  0  0  0  0  0
    0.3629    0.4301    0.8601 N   0  0  0  0  0  1  0  0  0  0  0  0
    0.0458    3.1205    0.6594 H   0  0  0  0  0  0  0  0  0  0  0  0
   -1.3169    3.0592   -0.4698 H   0  0  0  0  0  0  0  0  0  0  0  0
   -1.4831    2.3995    1.1651 H   0  0  0  0  0  0  0  0  0  0  0  0
   -1.1707    0.5674   -0.5375 H   0  0  0  0  0  0  0  0  0  0  0  0
    0.3409    1.2803   -1.0375 H   0  0  0  0  0  0  0  0  0  0  0  0
  1  2  1  0
  2  3  1  0
  4  5  1  0
  4  7  1  0
  4  8  1  0
  4  9  1  0
  5  6  1  0
  5 10  1  0
  5 11  1  0
M  RAD  2   1   2   6   3
M  END
>  <reaction>  (6) 
rmg_rxn_417

>  <mol_properties>  (6) 
{"0": {"label": "*0", "atom_type": "O2s"}, "1": {"label": "*1", "atom_type": "O2s"}, "2": {"label": "*2", "atom_type": "H0"}, "4": {"label": "*4", "atom_type": "Cs"}, "5": {"label": "*3", "atom_type": "N3s"}}

>  <type>  (6) 
unop_2

>  <geom_source>  (6) 
Heuristics

$$$$

     RDKit          3D

 11  9  0  0  0  0  0  0  0  0999 V2000
    0.1713   -1.5824   -2.0660 O   0  0  0  0  0  1  0  0  0  0  0  0
    0.1713   -1.5824   -0.7566 O   0  0  0  0  0  0  0  0  0  0  0  0
    0.1713   -0.4599   -0.4392 H   0  0  0  0  0  0  0  0  0  0  0  0
   -0.0184    1.9719    1.9917 C   0  0  0  0  0  0  0  0  0  0  0  0
   -0.5129    0.8087    1.1510 C   0  0  0  0  0  0  0  0  0  0  0  0
    0.1713    0.7213   -0.1052 N   0  0  0  0  0  1  0  0  0  0  0  0
   -0.1676    2.9138    1.4624 H   0  0  0  0  0  0  0  0  0  0  0  0
   -0.5510    2.0212    2.9429 H   0  0  0  0  0  0  0  0  0  0  0  0
    1.0475    1.8663    2.1971 H   0  0  0  0  0  0  0  0  0  0  0  0
   -0.3959   -0.1394    1.7008 H   0  0  0  0  0  0  0  0  0  0  0  0
   -1.5973    0.8962    0.9745 H   0  0  0  0  0  0  0  0  0  0  0  0
  1  2  1  0
  2  3  1  0
  4  5  1  0
  4  7  1  0
  4  8  1  0
  4  9  1  0
  5  6  1  0
  5 10  1  0
  5 11  1  0
M  RAD  2   1   2   6   3
M  END
>  <reaction>  (7) 
rmg_rxn_417

>  <mol_properties>  (7) 
{"0": {"label": "*0", "atom_type": "O2s"}, "1": {"label": "*1", "atom_type": "O2s"}, "2": {"label": "*2", "atom_type": "H0"}, "4": {"label": "*4", "atom_type": "Cs"}, "5": {"label": "*3", "atom_type": "N3s"}}

>  <type>  (7) 
unop_3

>  <geom_source>  (7) 
Heuristics

$$$$

     RDKit          3D

 11  9  0  0  0  0  0  0  0  0999 V2000
   -0.5750   -1.7676   -1.3711 O   0  0  0  0  0  1  0  0  0  0  0  0
   -0.5750   -1.7676   -0.0617 O   0  0  0  0  0  0  0  0  0  0  0  0
   -0.5750   -0.6451    0.2557 H   0  0  0  0  0  0  0  0  0  0  0  0
    1.1657    2.2211    0.9470 C   0  0  0  0  0  0  0  0  0  0  0  0
    0.6100    1.1321    0.0472 C   0  0  0  0  0  0  0  0  0  0  0  0
   -0.5750    0.5362    0.5897 N   0  0  0  0  0  1  0  0  0  0  0  0
    1.4141    1.8138    1.9278 H   0  0  0  0  0  0  0  0  0  0  0  0
    2.0667    2.6619    0.5169 H   0  0  0  0  0  0  0  0  0  0  0  0
    0.4273    3.0113    1.0879 H   0  0  0  0  0  0  0  0  0  0  0  0
    0.3936    1.5358   -0.9553 H   0  0  0  0  0  0  0  0  0  0  0  0
    1.3691    0.3518   -0.1249 H   0  0  0  0  0  0  0  0  0  0  0  0
  1  2  1  0
  2  3  1  0
  4  5  1  0
  4  7  1  0
  4  8  1  0
  4  9  1  0
  5  6  1  0
  5 10  1  0
  5 11  1  0
M  RAD  2   1   2   6   3
M  END
>  <reaction>  (8) 
rmg_rxn_417

>  <mol_properties>  (8) 
{"0": {"label": "*0", "atom_type": "O2s"}, "1": {"label": "*1", "atom_type": "O2s"}, "2": {"label": "*2", "atom_type": "H0"}, "4": {"label": "*4", "atom_type": "Cs"}, "5": {"label": "*3", "atom_type": "N3s"}}

>  <type>  (8) 
unop_4

>  <geom_source>  (8) 
Heuristics

$$$$

     RDKit          3D

 11  9  0  0  0  0  0  0  0  0999 V2000
    0.0000   -1.6136   -2.0750 O   0  0  0  0  0  1  0  0  0  0  0  0
    0.0000   -1.6136   -0.7656 O   0  0  0  0  0  0  0  0  0  0  0  0
    0.0000   -0.4911   -0.4482 H   0  0  0  0  0  0  0  0  0  0  0  0
   -0.0000    2.1483    1.8532 C   0  0  0  0  0  0  0  0  0  0  0  0
    0.0000    0.7277    1.3184 C   0  0  0  0  0  0  0  0  0  0  0  0
    0.0000    0.6902   -0.1142 N   0  0  0  0  0  1  0  0  0  0  0  0
   -0.8822    2.6860    1.5037 H   0  0  0  0  0  0  0  0  0  0  0  0
   -0.0000    2.1554    2.9445 H   0  0  0  0  0  0  0  0  0  0  0  0
    0.8822    2.6860    1.5037 H   0  0  0  0  0  0  0  0  0  0  0  0
    0.8722    0.1733    1.7014 H   0  0  0  0  0  0  0  0  0  0  0  0
   -0.8722    0.1733    1.7014 H   0  0  0  0  0  0  0  0  0  0  0  0
  1  2  1  0
  2  3  1  0
  4  5  1  0
  4  7  1  0
  4  8  1  0
  4  9  1  0
  5  6  1  0
  5 10  1  0
  5 11  1  0
M  RAD  2   1   2   6   3
M  END
>  <reaction>  (9) 
rmg_rxn_417

>  <mol_properties>  (9) 
{"0": {"label": "*0", "atom_type": "O2s"}, "1": {"label": "*1", "atom_type": "O2s"}, "2": {"label": "*2", "atom_type": "H0"}, "4": {"label": "*4", "atom_type": "Cs"}, "5": {"label": "*3", "atom_type": "N3s"}}

>  <type>  (9) 
unop_5

>  <geom_source>  (9) 
Heuristics

$$$$

     RDKit          3D

 11  9  0  0  0  0  0  0  0  0999 V2000
   -0.5824   -1.6568   -1.6893 O   0  0  0  0  0  1  0  0  0  0  0  0
   -0.5824   -1.6568   -0.3799 O   0  0  0  0  0  0  0  0  0  0  0  0
   -0.5824   -0.5344   -0.0625 H   0  0  0  0  0  0  0  0  0  0  0  0
    1.0139    1.9548    1.5897 C   0  0  0  0  0  0  0  0  0  0  0  0
    0.7859    1.0567    0.3873 C   0  0  0  0  0  0  0  0  0  0  0  0
   -0.5824    0.6469    0.2715 N   0  0  0  0  0  1  0  0  0  0  0  0
    0.7404    1.4357    2.5091 H   0  0  0  0  0  0  0  0  0  0  0  0
    2.0606    2.2556    1.6603 H   0  0  0  0  0  0  0  0  0  0  0  0
    0.4000    2.8532    1.5150 H   0  0  0  0  0  0  0  0  0  0  0  0
    1.0969    1.5680   -0.5382 H   0  0  0  0  0  0  0  0  0  0  0  0
    1.4334    0.1666    0.4447 H   0  0  0  0  0  0  0  0  0  0  0  0
  1  2  1  0
  2  3  1  0
  4  5  1  0
  4  7  1  0
  4  8  1  0
  4  9  1  0
  5  6  1  0
  5 10  1  0
  5 11  1  0
M  RAD  2   1   2   6   3
M  END
>  <reaction>  (10) 
rmg_rxn_417

>  <mol_properties>  (10) 
{"0": {"label": "*0", "atom_type": "O2s"}, "1": {"label": "*1", "atom_type": "O2s"}, "2": {"label": "*2", "atom_type": "H0"}, "4": {"label": "*4", "atom_type": "Cs"}, "5": {"label": "*3", "atom_type": "N3s"}}

>  <type>  (10) 
unop_6

>  <geom_source>  (10) 
Heuristics

$$$$

     RDKit          3D

 11  9  0  0  0  0  0  0  0  0999 V2000
   -0.4147   -1.5851   -1.9458 O   0  0  0  0  0  1  0  0  0  0  0  0
   -0.4147   -1.5851   -0.6364 O   0  0  0  0  0  0  0  0  0  0  0  0
   -0.4147   -0.4626   -0.3190 H   0  0  0  0  0  0  0  0  0  0  0  0
    0.5127    1.8473    1.9805 C   0  0  0  0  0  0  0  0  0  0  0  0
    0.7703    0.9423    0.7893 C   0  0  0  0  0  0  0  0  0  0  0  0
   -0.4147    0.7187    0.0151 N   0  0  0  0  0  1  0  0  0  0  0  0
   -0.2386    1.4067    2.6370 H   0  0  0  0  0  0  0  0  0  0  0  0
    1.4261    2.0051    2.5565 H   0  0  0  0  0  0  0  0  0  0  0  0
    0.1416    2.8173    1.6477 H   0  0  0  0  0  0  0  0  0  0  0  0
    1.5559    1.3699    0.1452 H   0  0  0  0  0  0  0  0  0  0  0  0
    1.1800   -0.0248    1.1234 H   0  0  0  0  0  0  0  0  0  0  0  0
  1  2  1  0
  2  3  1  0
  4  5  1  0
  4  7  1  0
  4  8  1  0
  4  9  1  0
  5  6  1  0
  5 10  1  0
  5 11  1  0
M  RAD  2   1   2   6   3
M  END
>  <reaction>  (11) 
rmg_rxn_417

>  <mol_properties>  (11) 
{"0": {"label": "*0", "atom_type": "O2s"}, "1": {"label": "*1", "atom_type": "O2s"}, "2": {"label": "*2", "atom_type": "H0"}, "4": {"label": "*4", "atom_type": "Cs"}, "5": {"label": "*3", "atom_type": "N3s"}}

>  <type>  (11) 
unop_7

>  <geom_source>  (11) 
Heuristics

$$$$

     RDKit          3D

 11  9  0  0  0  0  0  0  0  0999 V2000
    0.5824   -1.6568   -1.6893 O   0  0  0  0  0  1  0  0  0  0  0  0
    0.5824   -1.6568   -0.3799 O   0  0  0  0  0  0  0  0  0  0  0  0
    0.5824   -0.5344   -0.0625 H   0  0  0  0  0  0  0  0  0  0  0  0
   -1.0139    1.9548    1.5897 C   0  0  0  0  0  0  0  0  0  0  0  0
   -0.7859    1.0567    0.3873 C   0  0  0  0  0  0  0  0  0  0  0  0
    0.5824    0.6469    0.2715 N   0  0  0  0  0  1  0  0  0  0  0  0
   -0.4000    2.8532    1.5150 H   0  0  0  0  0  0  0  0  0  0  0  0
   -2.0606    2.2556    1.6603 H   0  0  0  0  0  0  0  0  0  0  0  0
   -0.7404    1.4357    2.5091 H   0  0  0  0  0  0  0  0  0  0  0  0
   -1.4334    0.1666    0.4447 H   0  0  0  0  0  0  0  0  0  0  0  0
   -1.0969    1.5680   -0.5382 H   0  0  0  0  0  0  0  0  0  0  0  0
  1  2  1  0
  2  3  1  0
  4  5  1  0
  4  7  1  0
  4  8  1  0
  4  9  1  0
  5  6  1  0
  5 10  1  0
  5 11  1  0
M  RAD  2   1   2   6   3
M  END
>  <reaction>  (12) 
rmg_rxn_417

>  <mol_properties>  (12) 
{"0": {"label": "*0", "atom_type": "O2s"}, "1": {"label": "*1", "atom_type": "O2s"}, "2": {"label": "*2", "atom_type": "H0"}, "4": {"label": "*4", "atom_type": "Cs"}, "5": {"label": "*3", "atom_type": "N3s"}}

>  <type>  (12) 
unop_8

>  <geom_source>  (12) 
Heuristics

$$$$

     RDKit          3D

 11  9  0  0  0  0  0  0  0  0999 V2000
   -0.3629   -1.8736   -1.1007 O   0  0  0  0  0  1  0  0  0  0  0  0
   -0.3629   -1.8736    0.2087 O   0  0  0  0  0  0  0  0  0  0  0  0
   -0.3629   -0.7512    0.5261 H   0  0  0  0  0  0  0  0  0  0  0  0
    0.7991    2.5179    0.3239 C   0  0  0  0  0  0  0  0  0  0  0  0
    0.3213    1.1624   -0.1643 C   0  0  0  0  0  0  0  0  0  0  0  0
   -0.3629    0.4301    0.8601 N   0  0  0  0  0  1  0  0  0  0  0  0
    1.4831    2.3995    1.1651 H   0  0  0  0  0  0  0  0  0  0  0  0
    1.3169    3.0592   -0.4698 H   0  0  0  0  0  0  0  0  0  0  0  0
   -0.0458    3.1205    0.6594 H   0  0  0  0  0  0  0  0  0  0  0  0
   -0.3409    1.2803   -1.0375 H   0  0  0  0  0  0  0  0  0  0  0  0
    1.1707    0.5674   -0.5375 H   0  0  0  0  0  0  0  0  0  0  0  0
  1  2  1  0
  2  3  1  0
  4  5  1  0
  4  7  1  0
  4  8  1  0
  4  9  1  0
  5  6  1  0
  5 10  1  0
  5 11  1  0
M  RAD  2   1   2   6   3
M  END
>  <reaction>  (13) 
rmg_rxn_417

>  <mol_properties>  (13) 
{"0": {"label": "*0", "atom_type": "O2s"}, "1": {"label": "*1", "atom_type": "O2s"}, "2": {"label": "*2", "atom_type": "H0"}, "4": {"label": "*4", "atom_type": "Cs"}, "5": {"label": "*3", "atom_type": "N3s"}}

>  <type>  (13) 
unop_9

>  <geom_source>  (13) 
Heuristics

$$$$

     RDKit          3D

 11  9  0  0  0  0  0  0  0  0999 V2000
    0.5750   -1.7676   -1.3711 O   0  0  0  0  0  1  0  0  0  0  0  0
    0.5750   -1.7676   -0.0617 O   0  0  0  0  0  0  0  0  0  0  0  0
    0.5750   -0.6451    0.2557 H   0  0  0  0  0  0  0  0  0  0  0  0
   -1.1657    2.2211    0.9470 C   0  0  0  0  0  0  0  0  0  0  0  0
   -0.6100    1.1321    0.0472 C   0  0  0  0  0  0  0  0  0  0  0  0
    0.5750    0.5362    0.5897 N   0  0  0  0  0  1  0  0  0  0  0  0
   -0.4273    3.0113    1.0879 H   0  0  0  0  0  0  0  0  0  0  0  0
   -2.0667    2.6619    0.5169 H   0  0  0  0  0  0  0  0  0  0  0  0
   -1.4141    1.8138    1.9278 H   0  0  0  0  0  0  0  0  0  0  0  0
   -1.3691    0.3518   -0.1249 H   0  0  0  0  0  0  0  0  0  0  0  0
   -0.3936    1.5358   -0.9553 H   0  0  0  0  0  0  0  0  0  0  0  0
  1  2  1  0
  2  3  1  0
  4  5  1  0
  4  7  1  0
  4  8  1  0
  4  9  1  0
  5  6  1  0
  5 10  1  0
  5 11  1  0
M  RAD  2   1   2   6   3
M  END
>  <reaction>  (14) 
rmg_rxn_417

>  <mol_properties>  (14) 
{"0": {"label": "*0", "atom_type": "O2s"}, "1": {"label": "*1", "atom_type": "O2s"}, "2": {"label": "*2", "atom_type": "H0"}, "4": {"label": "*4", "atom_type": "Cs"}, "5": {"label": "*3", "atom_type": "N3s"}}

>  <type>  (14) 
unop_10

>  <geom_source>  (14) 
Heuristics

$$$$

     RDKit          3D

 11  9  0  0  0  0  0  0  0  0999 V2000
   -0.1713   -1.5824   -2.0660 O   0  0  0  0  0  1  0  0  0  0  0  0
   -0.1713   -1.5824   -0.7566 O   0  0  0  0  0  0  0  0  0  0  0  0
   -0.1713   -0.4599   -0.4392 H   0  0  0  0  0  0  0  0  0  0  0  0
    0.0184    1.9719    1.9917 C   0  0  0  0  0  0  0  0  0  0  0  0
    0.5129    0.8087    1.1510 C   0  0  0  0  0  0  0  0  0  0  0  0
   -0.1713    0.7213   -0.1052 N   0  0  0  0  0  1  0  0  0  0  0  0
   -1.0475    1.8663    2.1971 H   0  0  0  0  0  0  0  0  0  0  0  0
    0.5510    2.0212    2.9429 H   0  0  0  0  0  0  0  0  0  0  0  0
    0.1676    2.9138    1.4624 H   0  0  0  0  0  0  0  0  0  0  0  0
    1.5973    0.8962    0.9745 H   0  0  0  0  0  0  0  0  0  0  0  0
    0.3959   -0.1394    1.7008 H   0  0  0  0  0  0  0  0  0  0  0  0
  1  2  1  0
  2  3  1  0
  4  5  1  0
  4  7  1  0
  4  8  1  0
  4  9  1  0
  5  6  1  0
  5 10  1  0
  5 11  1  0
M  RAD  2   1   2   6   3
M  END
>  <reaction>  (15) 
rmg_rxn_417

>  <mol_properties>  (15) 
{"0": {"label": "*0", "atom_type": "O2s"}, "1": {"label": "*1", "atom_type": "O2s"}, "2": {"label": "*2", "atom_type": "H0"}, "4": {"label": "*4", "atom_type": "Cs"}, "5": {"label": "*3", "atom_type": "N3s"}}

>  <type>  (15) 
unop_11

>  <geom_source>  (15) 
Heuristics

$$$$

     RDKit          3D

 11  9  0  0  0  0  0  0  0  0999 V2000
   -0.0000   -1.9198   -0.9920 O   0  0  0  0  0  1  0  0  0  0  0  0
   -0.0000   -1.9198    0.3174 O   0  0  0  0  0  0  0  0  0  0  0  0
   -0.0000   -0.7973    0.6348 H   0  0  0  0  0  0  0  0  0  0  0  0
    0.0000    2.6564    0.0563 C   0  0  0  0  0  0  0  0  0  0  0  0
   -0.0000    1.1661   -0.2321 C   0  0  0  0  0  0  0  0  0  0  0  0
   -0.0000    0.3840    0.9688 N   0  0  0  0  0  1  0  0  0  0  0  0
    0.8822    2.9315    0.6356 H   0  0  0  0  0  0  0  0  0  0  0  0
    0.0000    3.2339   -0.8697 H   0  0  0  0  0  0  0  0  0  0  0  0
   -0.8822    2.9315    0.6356 H   0  0  0  0  0  0  0  0  0  0  0  0
   -0.8722    0.8943   -0.8486 H   0  0  0  0  0  0  0  0  0  0  0  0
    0.8722    0.8943   -0.8486 H   0  0  0  0  0  0  0  0  0  0  0  0
  1  2  1  0
  2  3  1  0
  4  5  1  0
  4  7  1  0
  4  8  1  0
  4  9  1  0
  5  6  1  0
  5 10  1  0
  5 11  1  0
M  RAD  2   1   2   6   3
M  END
>  <reaction>  (16) 
rmg_rxn_417

>  <mol_properties>  (16) 
{"0": {"label": "*0", "atom_type": "O2s"}, "1": {"label": "*1", "atom_type": "O2s"}, "2": {"label": "*2", "atom_type": "H0"}, "4": {"label": "*4", "atom_type": "Cs"}, "5": {"label": "*3", "atom_type": "N3s"}}

>  <type>  (16) 
unop_12

>  <geom_source>  (16) 
Heuristics

$$$$

     RDKit          3D

 11  9  0  0  0  0  0  0  0  0999 V2000
    0.3629   -1.8737   -1.1007 O   0  0  0  0  0  1  0  0  0  0  0  0
    0.3629   -1.8737    0.2087 O   0  0  0  0  0  0  0  0  0  0  0  0
    0.3629   -0.7512    0.5261 H   0  0  0  0  0  0  0  0  0  0  0  0
   -0.7991    2.5179    0.3239 C   0  0  0  0  0  0  0  0  0  0  0  0
   -0.3213    1.1623   -0.1643 C   0  0  0  0  0  0  0  0  0  0  0  0
    0.3629    0.4301    0.8601 N   0  0  0  0  0  1  0  0  0  0  0  0
    0.0458    3.1205    0.6594 H   0  0  0  0  0  0  0  0  0  0  0  0
   -1.3169    3.0592   -0.4698 H   0  0  0  0  0  0  0  0  0  0  0  0
   -1.4831    2.3995    1.1651 H   0  0  0  0  0  0  0  0  0  0  0  0
   -1.1707    0.5674   -0.5375 H   0  0  0  0  0  0  0  0  0  0  0  0
    0.3409    1.2803   -1.0375 H   0  0  0  0  0  0  0  0  0  0  0  0
  1  2  1  0
  2  3  1  0
  4  5  1  0
  4  7  1  0
  4  8  1  0
  4  9  1  0
  5  6  1  0
  5 10  1  0
  5 11  1  0
M  RAD  2   1   2   6   3
M  END
>  <reaction>  (17) 
rmg_rxn_417

>  <mol_properties>  (17) 
{"0": {"label": "*0", "atom_type": "O2s"}, "1": {"label": "*1", "atom_type": "O2s"}, "2": {"label": "*2", "atom_type": "H0"}, "4": {"label": "*4", "atom_type": "Cs"}, "5": {"label": "*3", "atom_type": "N3s"}}

>  <type>  (17) 
unop_13

>  <geom_source>  (17) 
gaussian_log

$$$$
