
     RDKit          3D

 15 14  0  0  0  0  0  0  0  0999 V2000
    2.1256    0.4849   -0.6284 C   0  0  0  0  0  0  0  0  0  0  0  0
    1.1128    0.2141    0.1794 C   0  0  0  0  0  0  0  0  0  0  0  0
   -0.3017   -0.0425   -0.2513 C   0  0  0  0  0  0  0  0  0  0  0  0
   -1.2427    1.0075    0.3423 C   0  0  0  0  0  0  0  0  0  0  0  0
   -0.7381   -1.4526    0.1504 C   0  0  0  0  0  0  0  0  0  0  0  0
    3.1243    0.6602   -0.2486 H   0  0  0  0  0  0  0  0  0  0  0  0
    1.9908    0.5411   -1.7036 H   0  0  0  0  0  0  0  0  0  0  0  0
    1.2888    0.1665    1.2533 H   0  0  0  0  0  0  0  0  0  0  0  0
   -0.3426    0.0343   -1.3424 H   0  0  0  0  0  0  0  0  0  0  0  0
   -0.9570    2.0133    0.0315 H   0  0  0  0  0  0  0  0  0  0  0  0
   -1.2189    0.9728    1.4350 H   0  0  0  0  0  0  0  0  0  0  0  0
   -2.2723    0.8287    0.0254 H   0  0  0  0  0  0  0  0  0  0  0  0
   -0.6964   -1.5744    1.2363 H   0  0  0  0  0  0  0  0  0  0  0  0
   -0.0911   -2.2079   -0.2978 H   0  0  0  0  0  0  0  0  0  0  0  0
   -1.7646   -1.6461   -0.1677 H   0  0  0  0  0  0  0  0  0  0  0  0
  1  2  2  3
  1  6  1  0
  1  7  1  0
  2  3  1  0
  2  8  1  0
  3  4  1  0
  3  5  1  0
  3  9  1  0
  4 10  1  0
  4 11  1  0
  4 12  1  0
  5 13  1  0
  5 14  1  0
  5 15  1  0
M  END
>  <reaction>  (1) 
rxn_1087

>  <mol_properties>  (1) 
{"2": {"label": "donator", "atom_type": "Cs"}, "8": {"label": "d_hydrogen", "atom_type": "H0"}}

>  <type>  (1) 
r1h

$$$$

     RDKit          3D

 11 10  0  0  0  0  0  0  0  0999 V2000
    2.0591    0.2533   -0.1061 C   0  0  0  0  0  0  0  0  0  0  0  0
    0.8045   -0.3111   -0.1535 C   0  0  0  0  0  0  0  0  0  0  0  0
   -0.3816    0.3942   -0.1885 C   0  0  0  0  0  3  0  0  0  0  0  0
   -1.7316   -0.2294   -0.2396 C   0  0  0  0  0  0  0  0  0  0  0  0
    2.9505   -0.3576   -0.0805 H   0  0  0  0  0  0  0  0  0  0  0  0
    2.1872    1.3290   -0.0933 H   0  0  0  0  0  0  0  0  0  0  0  0
    0.7385   -1.3970   -0.1643 H   0  0  0  0  0  0  0  0  0  0  0  0
   -0.3340    1.4795   -0.1783 H   0  0  0  0  0  0  0  0  0  0  0  0
   -1.6704   -1.3186   -0.2461 H   0  0  0  0  0  0  0  0  0  0  0  0
   -2.3404    0.0713    0.6191 H   0  0  0  0  0  0  0  0  0  0  0  0
   -2.2805    0.0851   -1.1331 H   0  0  0  0  0  0  0  0  0  0  0  0
  1  2  2  3
  1  5  1  0
  1  6  1  0
  2  3  1  0
  2  7  1  0
  3  4  1  0
  3  8  1  0
  4  9  1  0
  4 10  1  0
  4 11  1  0
M  RAD  1   3   2
M  END
>  <reaction>  (2) 
rxn_1087

>  <mol_properties>  (2) 
{"2": {"label": "acceptor", "atom_type": "Cs"}}

>  <type>  (2) 
r2

$$$$

     RDKit          3D

 12 11  0  0  0  0  0  0  0  0999 V2000
    1.9877    0.1011    0.4814 C   0  0  0  0  0  0  0  0  0  0  0  0
    0.8179    0.5502    0.0525 C   0  0  0  0  0  0  0  0  0  0  0  0
   -0.2939   -0.2692   -0.5320 C   0  0  0  0  0  0  0  0  0  0  0  0
   -0.0292   -1.7631   -0.6328 C   0  0  0  0  0  0  0  0  0  0  0  0
    2.2522   -0.9490    0.4436 H   0  0  0  0  0  0  0  0  0  0  0  0
    2.7295    0.7757    0.8896 H   0  0  0  0  0  0  0  0  0  0  0  0
    0.6162    1.6164    0.1190 H   0  0  0  0  0  0  0  0  0  0  0  0
   -0.5268    0.1319   -1.5245 H   0  0  0  0  0  0  0  0  0  0  0  0
   -1.1959   -0.0938    0.0644 H   0  0  0  0  0  0  0  0  0  0  0  0
    0.1590   -2.1992    0.3502 H   0  0  0  0  0  0  0  0  0  0  0  0
    0.8382   -1.9701   -1.2626 H   0  0  0  0  0  0  0  0  0  0  0  0
   -0.8879   -2.2759   -1.0672 H   0  0  0  0  0  0  0  0  0  0  0  0
  1  2  2  3
  1  5  1  0
  1  6  1  0
  2  3  1  0
  2  7  1  0
  3  4  1  0
  3  8  1  0
  3  9  1  0
  4 10  1  0
  4 11  1  0
  4 12  1  0
M  END
>  <reaction>  (3) 
rxn_1087

>  <mol_properties>  (3) 
{"0": {"label": "a_hydrogen", "atom_type": "H0"}, "3": {"label": "acceptor", "atom_type": "Cs"}}

>  <type>  (3) 
r2h

$$$$

     RDKit          3D

 26 24  0  0  0  0  0  0  0  0999 V2000
    0.2194   -2.3294   -0.7289 C   0  0  0  0  0  0  0  0  0  0  0  0
    0.7643   -1.5607    0.2190 C   0  0  0  0  0  0  0  0  0  0  0  0
    0.0569   -0.6793    1.1448 C   0  0  0  0  0  0  0  0  0  0  0  0
    0.7717   -0.4064    2.4493 C   0  0  0  0  0  0  0  0  0  0  0  0
   -1.4357   -0.8630    1.2706 C   0  0  0  0  0  0  0  0  0  0  0  0
    0.8403   -2.9193   -1.3904 H   0  0  0  0  0  0  0  0  0  0  0  0
   -0.8516   -2.3975   -0.8730 H   0  0  0  0  0  0  0  0  0  0  0  0
    1.8488   -1.5454    0.3014 H   0  0  0  0  0  0  0  0  0  0  0  0
    0.1082    0.5044    0.5280 H   0  0  0  0  0  0  0  0  0  0  0  0
    1.8324   -0.2048    2.2861 H   0  0  0  0  0  0  0  0  0  0  0  0
    0.6963   -1.2636    3.1264 H   0  0  0  0  0  0  0  0  0  0  0  0
    0.3370    0.4558    2.9599 H   0  0  0  0  0  0  0  0  0  0  0  0
   -1.6769   -1.8404    1.7001 H   0  0  0  0  0  0  0  0  0  0  0  0
   -1.9304   -0.7898    0.3006 H   0  0  0  0  0  0  0  0  0  0  0  0
   -1.8617   -0.0952    1.9193 H   0  0  0  0  0  0  0  0  0  0  0  0
   -1.0147    1.2940   -2.2891 C   0  0  0  0  0  0  0  0  0  0  0  0
   -0.9939    1.6724   -1.0047 C   0  0  0  0  0  0  0  0  0  0  0  0
    0.1696    1.6904   -0.1365 C   0  0  0  0  0  3  0  0  0  0  0  0
    1.5468    1.6163   -0.7407 C   0  0  0  0  0  0  0  0  0  0  0  0
   -1.9394    1.2781   -2.8508 H   0  0  0  0  0  0  0  0  0  0  0  0
   -0.1159    0.9972   -2.8154 H   0  0  0  0  0  0  0  0  0  0  0  0
   -1.9343    1.9550   -0.5394 H   0  0  0  0  0  0  0  0  0  0  0  0
    0.0820    2.3804    0.7012 H   0  0  0  0  0  0  0  0  0  0  0  0
    1.7441    2.4735   -1.3909 H   0  0  0  0  0  0  0  0  0  0  0  0
    2.3104    1.5994    0.0382 H   0  0  0  0  0  0  0  0  0  0  0  0
    1.6647    0.7108   -1.3402 H   0  0  0  0  0  0  0  0  0  0  0  0
  1  2  2  3
  1  6  1  0
  1  7  1  0
  2  3  1  0
  2  8  1  0
  3  4  1  0
  3  5  1  0
  3  9  1  0
  4 10  1  0
  4 11  1  0
  4 12  1  0
  5 13  1  0
  5 14  1  0
  5 15  1  0
 16 17  2  3
 16 20  1  0
 16 21  1  0
 17 18  1  0
 17 22  1  0
 18 19  1  0
 18 23  1  0
 19 24  1  0
 19 25  1  0
 19 26  1  0
M  RAD  1  18   2
M  END
>  <reaction>  (4) 
rxn_1087

>  <mol_properties>  (4) 
{"1": {"label": "*0", "atom_type": "Cd"}, "2": {"label": "*1", "atom_type": "Cs"}, "8": {"label": "*2", "atom_type": "H0"}, "16": {"label": "*4", "atom_type": "Cd"}, "17": {"label": "*3", "atom_type": "Cs"}}

>  <type>  (4) 
ts

$$$$

     RDKit          3D

 26 24  0  0  0  0  0  0  0  0999 V2000
    0.2437   -2.2190   -1.1988 C   0  0  0  0  0  0  0  0  0  0  0  0
    0.2437   -2.2190    0.1247 C   0  0  0  0  0  0  0  0  0  0  0  0
    0.2437   -0.9976    0.9967 C   0  0  0  0  0  0  0  0  0  0  0  0
    1.5031   -0.9571    1.8644 C   0  0  0  0  0  0  0  0  0  0  0  0
   -1.0156   -0.9571    1.8644 C   0  0  0  0  0  0  0  0  0  0  0  0
    0.2437   -3.1407   -1.7671 H   0  0  0  0  0  0  0  0  0  0  0  0
    0.2437   -1.2924   -1.7634 H   0  0  0  0  0  0  0  0  0  0  0  0
    0.2437   -3.1703    0.6552 H   0  0  0  0  0  0  0  0  0  0  0  0
    0.2437    0.0588    0.2163 H   0  0  0  0  0  0  0  0  0  0  0  0
    2.4046   -0.9512    1.2502 H   0  0  0  0  0  0  0  0  0  0  0  0
    1.5476   -1.8310    2.5201 H   0  0  0  0  0  0  0  0  0  0  0  0
    1.5106   -0.0659    2.4953 H   0  0  0  0  0  0  0  0  0  0  0  0
   -1.0601   -1.8310    2.5201 H   0  0  0  0  0  0  0  0  0  0  0  0
   -1.9171   -0.9512    1.2502 H   0  0  0  0  0  0  0  0  0  0  0  0
   -1.0231   -0.0659    2.4953 H   0  0  0  0  0  0  0  0  0  0  0  0
   -1.5348    2.8422   -1.0415 C   0  0  0  0  0  0  0  0  0  0  0  0
   -0.9907    1.9146   -0.2686 C   0  0  0  0  0  0  0  0  0  0  0  0
    0.2437    1.1162   -0.5649 C   0  0  0  0  0  3  0  0  0  0  0  0
    0.9221    1.4192   -1.8915 C   0  0  0  0  0  0  0  0  0  0  0  0
   -2.4321    3.3664   -0.7380 H   0  0  0  0  0  0  0  0  0  0  0  0
   -1.1117    3.1154   -2.0009 H   0  0  0  0  0  0  0  0  0  0  0  0
   -1.4661    1.6885    0.6826 H   0  0  0  0  0  0  0  0  0  0  0  0
    0.9533    1.2693    0.2556 H   0  0  0  0  0  0  0  0  0  0  0  0
    1.2385    2.4627   -1.9455 H   0  0  0  0  0  0  0  0  0  0  0  0
    1.8066    0.7945   -2.0211 H   0  0  0  0  0  0  0  0  0  0  0  0
    0.2517    1.2287   -2.7319 H   0  0  0  0  0  0  0  0  0  0  0  0
  1  2  2  3
  1  6  1  0
  1  7  1  0
  2  3  1  0
  2  8  1  0
  3  4  1  0
  3  5  1  0
  3  9  1  0
  4 10  1  0
  4 11  1  0
  4 12  1  0
  5 13  1  0
  5 14  1  0
  5 15  1  0
 16 17  2  3
 16 20  1  0
 16 21  1  0
 17 18  1  0
 17 22  1  0
 18 19  1  0
 18 23  1  0
 19 24  1  0
 19 25  1  0
 19 26  1  0
M  RAD  1  18   2
M  END
>  <reaction>  (5) 
rxn_1087

>  <mol_properties>  (5) 
{"1": {"label": "*0", "atom_type": "Cd"}, "2": {"label": "*1", "atom_type": "Cs"}, "8": {"label": "*2", "atom_type": "H0"}, "16": {"label": "*4", "atom_type": "Cd"}, "17": {"label": "*3", "atom_type": "Cs"}}

>  <type>  (5) 
unop_1

>  <geom_source>  (5) 
Heuristics

$$$$

     RDKit          3D

 26 24  0  0  0  0  0  0  0  0999 V2000
   -0.0257   -1.9790   -0.9467 C   0  0  0  0  0  0  0  0  0  0  0  0
   -0.0257   -1.9790    0.3768 C   0  0  0  0  0  0  0  0  0  0  0  0
   -0.0257   -0.7576    1.2488 C   0  0  0  0  0  0  0  0  0  0  0  0
    1.2336   -0.7172    2.1165 C   0  0  0  0  0  0  0  0  0  0  0  0
   -1.2850   -0.7172    2.1165 C   0  0  0  0  0  0  0  0  0  0  0  0
   -0.0257   -2.9007   -1.5150 H   0  0  0  0  0  0  0  0  0  0  0  0
   -0.0257   -1.0524   -1.5113 H   0  0  0  0  0  0  0  0  0  0  0  0
   -0.0257   -2.9303    0.9073 H   0  0  0  0  0  0  0  0  0  0  0  0
   -0.0257    0.2988    0.4684 H   0  0  0  0  0  0  0  0  0  0  0  0
    2.1351   -0.7113    1.5023 H   0  0  0  0  0  0  0  0  0  0  0  0
    1.2781   -1.5910    2.7723 H   0  0  0  0  0  0  0  0  0  0  0  0
    1.2411    0.1740    2.7475 H   0  0  0  0  0  0  0  0  0  0  0  0
   -1.3296   -1.5910    2.7723 H   0  0  0  0  0  0  0  0  0  0  0  0
   -2.1866   -0.7113    1.5023 H   0  0  0  0  0  0  0  0  0  0  0  0
   -1.2926    0.1740    2.7475 H   0  0  0  0  0  0  0  0  0  0  0  0
   -0.4119    1.3834   -2.8067 C   0  0  0  0  0  0  0  0  0  0  0  0
   -0.7385    0.9975   -1.5826 C   0  0  0  0  0  0  0  0  0  0  0  0
   -0.0257    1.3562   -0.3128 C   0  0  0  0  0  3  0  0  0  0  0  0
    1.1912    2.2539   -0.4708 C   0  0  0  0  0  0  0  0  0  0  0  0
   -0.9924    1.0696   -3.6649 H   0  0  0  0  0  0  0  0  0  0  0  0
    0.4408    2.0228   -3.0024 H   0  0  0  0  0  0  0  0  0  0  0  0
   -1.6066    0.3555   -1.4560 H   0  0  0  0  0  0  0  0  0  0  0  0
   -0.7482    1.8296    0.3611 H   0  0  0  0  0  0  0  0  0  0  0  0
    0.9224    3.2093   -0.9256 H   0  0  0  0  0  0  0  0  0  0  0  0
    1.6432    2.4611    0.4998 H   0  0  0  0  0  0  0  0  0  0  0  0
    1.9502    1.7852   -1.1003 H   0  0  0  0  0  0  0  0  0  0  0  0
  1  2  2  3
  1  6  1  0
  1  7  1  0
  2  3  1  0
  2  8  1  0
  3  4  1  0
  3  5  1  0
  3  9  1  0
  4 10  1  0
  4 11  1  0
  4 12  1  0
  5 13  1  0
  5 14  1  0
  5 15  1  0
 16 17  2  3
 16 20  1  0
 16 21  1  0
 17 18  1  0
 17 22  1  0
 18 19  1  0
 18 23  1  0
 19 24  1  0
 19 25  1  0
 19 26  1  0
M  RAD  1  18   2
M  END
>  <reaction>  (6) 
rxn_1087

>  <mol_properties>  (6) 
{"1": {"label": "*0", "atom_type": "Cd"}, "2": {"label": "*1", "atom_type": "Cs"}, "8": {"label": "*2", "atom_type": "H0"}, "16": {"label": "*4", "atom_type": "Cd"}, "17": {"label": "*3", "atom_type": "Cs"}}

>  <type>  (6) 
unop_2

>  <geom_source>  (6) 
Heuristics

$$$$

     RDKit          3D

 26 24  0  0  0  0  0  0  0  0999 V2000
    0.2375   -2.2591   -1.2879 C   0  0  0  0  0  0  0  0  0  0  0  0
    0.2375   -2.2591    0.0356 C   0  0  0  0  0  0  0  0  0  0  0  0
    0.2375   -1.0377    0.9076 C   0  0  0  0  0  0  0  0  0  0  0  0
    1.4968   -0.9973    1.7752 C   0  0  0  0  0  0  0  0  0  0  0  0
   -1.0218   -0.9973    1.7752 C   0  0  0  0  0  0  0  0  0  0  0  0
    0.2375   -3.1808   -1.8562 H   0  0  0  0  0  0  0  0  0  0  0  0
    0.2375   -1.3326   -1.8525 H   0  0  0  0  0  0  0  0  0  0  0  0
    0.2375   -3.2104    0.5661 H   0  0  0  0  0  0  0  0  0  0  0  0
    0.2375    0.0187    0.1271 H   0  0  0  0  0  0  0  0  0  0  0  0
    2.3983   -0.9914    1.1611 H   0  0  0  0  0  0  0  0  0  0  0  0
    1.5414   -1.8711    2.4310 H   0  0  0  0  0  0  0  0  0  0  0  0
    1.5043   -0.1061    2.4062 H   0  0  0  0  0  0  0  0  0  0  0  0
   -1.0664   -1.8711    2.4310 H   0  0  0  0  0  0  0  0  0  0  0  0
   -1.9234   -0.9914    1.1611 H   0  0  0  0  0  0  0  0  0  0  0  0
   -1.0294   -0.1061    2.4062 H   0  0  0  0  0  0  0  0  0  0  0  0
   -1.1613    3.1707   -0.4952 C   0  0  0  0  0  0  0  0  0  0  0  0
   -0.4752    2.1844    0.0619 C   0  0  0  0  0  0  0  0  0  0  0  0
    0.2375    1.0761   -0.6540 C   0  0  0  0  0  3  0  0  0  0  0  0
    0.1501    1.1082   -2.1717 C   0  0  0  0  0  0  0  0  0  0  0  0
   -1.6431    3.9279    0.1103 H   0  0  0  0  0  0  0  0  0  0  0  0
   -1.2702    3.2636   -1.5693 H   0  0  0  0  0  0  0  0  0  0  0  0
   -0.4051    2.1500    1.1463 H   0  0  0  0  0  0  0  0  0  0  0  0
    1.2883    1.0913   -0.3447 H   0  0  0  0  0  0  0  0  0  0  0  0
    0.5786    2.0283   -2.5738 H   0  0  0  0  0  0  0  0  0  0  0  0
    0.6947    0.2685   -2.6047 H   0  0  0  0  0  0  0  0  0  0  0  0
   -0.8859    1.0455   -2.5102 H   0  0  0  0  0  0  0  0  0  0  0  0
  1  2  2  3
  1  6  1  0
  1  7  1  0
  2  3  1  0
  2  8  1  0
  3  4  1  0
  3  5  1  0
  3  9  1  0
  4 10  1  0
  4 11  1  0
  4 12  1  0
  5 13  1  0
  5 14  1  0
  5 15  1  0
 16 17  2  3
 16 20  1  0
 16 21  1  0
 17 18  1  0
 17 22  1  0
 18 19  1  0
 18 23  1  0
 19 24  1  0
 19 25  1  0
 19 26  1  0
M  RAD  1  18   2
M  END
>  <reaction>  (7) 
rxn_1087

>  <mol_properties>  (7) 
{"1": {"label": "*0", "atom_type": "Cd"}, "2": {"label": "*1", "atom_type": "Cs"}, "8": {"label": "*2", "atom_type": "H0"}, "16": {"label": "*4", "atom_type": "Cd"}, "17": {"label": "*3", "atom_type": "Cs"}}

>  <type>  (7) 
unop_3

>  <geom_source>  (7) 
Heuristics

$$$$

     RDKit          3D

 26 24  0  0  0  0  0  0  0  0999 V2000
   -0.4151   -2.0486   -1.3825 C   0  0  0  0  0  0  0  0  0  0  0  0
   -0.4151   -2.0486   -0.0590 C   0  0  0  0  0  0  0  0  0  0  0  0
   -0.4151   -0.8272    0.8130 C   0  0  0  0  0  0  0  0  0  0  0  0
    0.8442   -0.7868    1.6807 C   0  0  0  0  0  0  0  0  0  0  0  0
   -1.6744   -0.7868    1.6807 C   0  0  0  0  0  0  0  0  0  0  0  0
   -0.4151   -2.9703   -1.9508 H   0  0  0  0  0  0  0  0  0  0  0  0
   -0.4151   -1.1221   -1.9471 H   0  0  0  0  0  0  0  0  0  0  0  0
   -0.4151   -2.9999    0.4715 H   0  0  0  0  0  0  0  0  0  0  0  0
   -0.4151    0.2291    0.0326 H   0  0  0  0  0  0  0  0  0  0  0  0
    1.7457   -0.7809    1.0665 H   0  0  0  0  0  0  0  0  0  0  0  0
    0.8888   -1.6606    2.3365 H   0  0  0  0  0  0  0  0  0  0  0  0
    0.8517    0.1044    2.3117 H   0  0  0  0  0  0  0  0  0  0  0  0
   -1.7190   -1.6606    2.3365 H   0  0  0  0  0  0  0  0  0  0  0  0
   -2.5760   -0.7809    1.0665 H   0  0  0  0  0  0  0  0  0  0  0  0
   -1.6820    0.1044    2.3117 H   0  0  0  0  0  0  0  0  0  0  0  0
    1.9917    1.7871   -1.3197 C   0  0  0  0  0  0  0  0  0  0  0  0
    0.8193    1.2379   -1.5987 C   0  0  0  0  0  0  0  0  0  0  0  0
   -0.4151    1.2865   -0.7486 C   0  0  0  0  0  3  0  0  0  0  0  0
   -0.2842    2.0483    0.5608 C   0  0  0  0  0  0  0  0  0  0  0  0
    2.8277    1.6961   -2.0015 H   0  0  0  0  0  0  0  0  0  0  0  0
    2.1652    2.3457   -0.4075 H   0  0  0  0  0  0  0  0  0  0  0  0
    0.7126    0.6904   -2.5319 H   0  0  0  0  0  0  0  0  0  0  0  0
   -1.2242    1.7188   -1.3475 H   0  0  0  0  0  0  0  0  0  0  0  0
   -0.0176    3.0926    0.3866 H   0  0  0  0  0  0  0  0  0  0  0  0
   -1.2262    2.0309    1.1101 H   0  0  0  0  0  0  0  0  0  0  0  0
    0.4841    1.6087    1.1998 H   0  0  0  0  0  0  0  0  0  0  0  0
  1  2  2  3
  1  6  1  0
  1  7  1  0
  2  3  1  0
  2  8  1  0
  3  4  1  0
  3  5  1  0
  3  9  1  0
  4 10  1  0
  4 11  1  0
  4 12  1  0
  5 13  1  0
  5 14  1  0
  5 15  1  0
 16 17  2  3
 16 20  1  0
 16 21  1  0
 17 18  1  0
 17 22  1  0
 18 19  1  0
 18 23  1  0
 19 24  1  0
 19 25  1  0
 19 26  1  0
M  RAD  1  18   2
M  END
>  <reaction>  (8) 
rxn_1087

>  <mol_properties>  (8) 
{"1": {"label": "*0", "atom_type": "Cd"}, "2": {"label": "*1", "atom_type": "Cs"}, "8": {"label": "*2", "atom_type": "H0"}, "16": {"label": "*4", "atom_type": "Cd"}, "17": {"label": "*3", "atom_type": "Cs"}}

>  <type>  (8) 
unop_4

>  <geom_source>  (8) 
Heuristics

$$$$

     RDKit          3D

 26 24  0  0  0  0  0  0  0  0999 V2000
    0.2357   -2.2668   -1.4410 C   0  0  0  0  0  0  0  0  0  0  0  0
    0.2357   -2.2668   -0.1175 C   0  0  0  0  0  0  0  0  0  0  0  0
    0.2357   -1.0454    0.7545 C   0  0  0  0  0  0  0  0  0  0  0  0
    1.4950   -1.0050    1.6222 C   0  0  0  0  0  0  0  0  0  0  0  0
   -1.0236   -1.0050    1.6222 C   0  0  0  0  0  0  0  0  0  0  0  0
    0.2357   -3.1885   -2.0093 H   0  0  0  0  0  0  0  0  0  0  0  0
    0.2357   -1.3402   -2.0056 H   0  0  0  0  0  0  0  0  0  0  0  0
    0.2357   -3.2181    0.4130 H   0  0  0  0  0  0  0  0  0  0  0  0
    0.2357    0.0110   -0.0259 H   0  0  0  0  0  0  0  0  0  0  0  0
    2.3965   -0.9991    1.0080 H   0  0  0  0  0  0  0  0  0  0  0  0
    1.5396   -1.8788    2.2780 H   0  0  0  0  0  0  0  0  0  0  0  0
    1.5025   -0.1138    2.2532 H   0  0  0  0  0  0  0  0  0  0  0  0
   -1.0682   -1.8788    2.2780 H   0  0  0  0  0  0  0  0  0  0  0  0
   -1.9252   -0.9991    1.0080 H   0  0  0  0  0  0  0  0  0  0  0  0
   -1.0312   -0.1138    2.2532 H   0  0  0  0  0  0  0  0  0  0  0  0
   -0.6524    3.2725    0.0430 C   0  0  0  0  0  0  0  0  0  0  0  0
    0.2357    2.2902    0.0625 C   0  0  0  0  0  0  0  0  0  0  0  0
    0.2357    1.0684   -0.8071 C   0  0  0  0  0  3  0  0  0  0  0  0
   -0.9083    0.9685   -1.8037 C   0  0  0  0  0  0  0  0  0  0  0  0
   -0.5658    4.1174    0.7143 H   0  0  0  0  0  0  0  0  0  0  0  0
   -1.4957    3.2751   -0.6375 H   0  0  0  0  0  0  0  0  0  0  0  0
    1.0585    2.3496    0.7705 H   0  0  0  0  0  0  0  0  0  0  0  0
    1.1927    1.0290   -1.3389 H   0  0  0  0  0  0  0  0  0  0  0  0
   -0.9039    1.8114   -2.4976 H   0  0  0  0  0  0  0  0  0  0  0  0
   -0.8270    0.0525   -2.3898 H   0  0  0  0  0  0  0  0  0  0  0  0
   -1.8753    0.9570   -1.2970 H   0  0  0  0  0  0  0  0  0  0  0  0
  1  2  2  3
  1  6  1  0
  1  7  1  0
  2  3  1  0
  2  8  1  0
  3  4  1  0
  3  5  1  0
  3  9  1  0
  4 10  1  0
  4 11  1  0
  4 12  1  0
  5 13  1  0
  5 14  1  0
  5 15  1  0
 16 17  2  3
 16 20  1  0
 16 21  1  0
 17 18  1  0
 17 22  1  0
 18 19  1  0
 18 23  1  0
 19 24  1  0
 19 25  1  0
 19 26  1  0
M  RAD  1  18   2
M  END
>  <reaction>  (9) 
rxn_1087

>  <mol_properties>  (9) 
{"1": {"label": "*0", "atom_type": "Cd"}, "2": {"label": "*1", "atom_type": "Cs"}, "8": {"label": "*2", "atom_type": "H0"}, "16": {"label": "*4", "atom_type": "Cd"}, "17": {"label": "*3", "atom_type": "Cs"}}

>  <type>  (9) 
unop_5

>  <geom_source>  (9) 
Heuristics

$$$$

     RDKit          3D

 26 24  0  0  0  0  0  0  0  0999 V2000
   -0.3248   -2.1377   -1.5593 C   0  0  0  0  0  0  0  0  0  0  0  0
   -0.3248   -2.1377   -0.2358 C   0  0  0  0  0  0  0  0  0  0  0  0
   -0.3248   -0.9163    0.6363 C   0  0  0  0  0  0  0  0  0  0  0  0
    0.9345   -0.8759    1.5039 C   0  0  0  0  0  0  0  0  0  0  0  0
   -1.5841   -0.8759    1.5039 C   0  0  0  0  0  0  0  0  0  0  0  0
   -0.3248   -3.0594   -2.1275 H   0  0  0  0  0  0  0  0  0  0  0  0
   -0.3248   -1.2112   -2.1238 H   0  0  0  0  0  0  0  0  0  0  0  0
   -0.3248   -3.0890    0.2948 H   0  0  0  0  0  0  0  0  0  0  0  0
   -0.3248    0.1401   -0.1442 H   0  0  0  0  0  0  0  0  0  0  0  0
    1.8360   -0.8700    0.8898 H   0  0  0  0  0  0  0  0  0  0  0  0
    0.9791   -1.7497    2.1597 H   0  0  0  0  0  0  0  0  0  0  0  0
    0.9420    0.0153    2.1349 H   0  0  0  0  0  0  0  0  0  0  0  0
   -1.6287   -1.7497    2.1597 H   0  0  0  0  0  0  0  0  0  0  0  0
   -2.4857   -0.8700    0.8898 H   0  0  0  0  0  0  0  0  0  0  0  0
   -1.5917    0.0153    2.1349 H   0  0  0  0  0  0  0  0  0  0  0  0
    1.8809    2.3241   -0.4408 C   0  0  0  0  0  0  0  0  0  0  0  0
    1.1006    1.5723   -1.2023 C   0  0  0  0  0  0  0  0  0  0  0  0
   -0.3248    1.1975   -0.9253 C   0  0  0  0  0  3  0  0  0  0  0  0
   -0.9123    1.7470    0.3649 C   0  0  0  0  0  0  0  0  0  0  0  0
    2.9022    2.5394   -0.7283 H   0  0  0  0  0  0  0  0  0  0  0  0
    1.5368    2.7526    0.4930 H   0  0  0  0  0  0  0  0  0  0  0  0
    1.5086    1.1732   -2.1276 H   0  0  0  0  0  0  0  0  0  0  0  0
   -0.9339    1.5229   -1.7758 H   0  0  0  0  0  0  0  0  0  0  0  0
   -0.8985    2.8386    0.3731 H   0  0  0  0  0  0  0  0  0  0  0  0
   -1.9474    1.4248    0.4825 H   0  0  0  0  0  0  0  0  0  0  0  0
   -0.3524    1.3987    1.2350 H   0  0  0  0  0  0  0  0  0  0  0  0
  1  2  2  3
  1  6  1  0
  1  7  1  0
  2  3  1  0
  2  8  1  0
  3  4  1  0
  3  5  1  0
  3  9  1  0
  4 10  1  0
  4 11  1  0
  4 12  1  0
  5 13  1  0
  5 14  1  0
  5 15  1  0
 16 17  2  3
 16 20  1  0
 16 21  1  0
 17 18  1  0
 17 22  1  0
 18 19  1  0
 18 23  1  0
 19 24  1  0
 19 25  1  0
 19 26  1  0
M  RAD  1  18   2
M  END
>  <reaction>  (10) 
rxn_1087

>  <mol_properties>  (10) 
{"1": {"label": "*0", "atom_type": "Cd"}, "2": {"label": "*1", "atom_type": "Cs"}, "8": {"label": "*2", "atom_type": "H0"}, "16": {"label": "*4", "atom_type": "Cd"}, "17": {"label": "*3", "atom_type": "Cs"}}

>  <type>  (10) 
unop_6

>  <geom_source>  (10) 
Heuristics

$$$$

     RDKit          3D

 26 24  0  0  0  0  0  0  0  0999 V2000
   -0.1377   -2.2125   -1.6580 C   0  0  0  0  0  0  0  0  0  0  0  0
   -0.1377   -2.2125   -0.3345 C   0  0  0  0  0  0  0  0  0  0  0  0
   -0.1377   -0.9911    0.5375 C   0  0  0  0  0  0  0  0  0  0  0  0
    1.1216   -0.9507    1.4051 C   0  0  0  0  0  0  0  0  0  0  0  0
   -1.3970   -0.9507    1.4051 C   0  0  0  0  0  0  0  0  0  0  0  0
   -0.1377   -3.1342   -2.2263 H   0  0  0  0  0  0  0  0  0  0  0  0
   -0.1377   -1.2860   -2.2226 H   0  0  0  0  0  0  0  0  0  0  0  0
   -0.1377   -3.1638    0.1960 H   0  0  0  0  0  0  0  0  0  0  0  0
   -0.1377    0.0653   -0.2430 H   0  0  0  0  0  0  0  0  0  0  0  0
    2.0232   -0.9448    0.7910 H   0  0  0  0  0  0  0  0  0  0  0  0
    1.1662   -1.8245    2.0609 H   0  0  0  0  0  0  0  0  0  0  0  0
    1.1292   -0.0595    2.0361 H   0  0  0  0  0  0  0  0  0  0  0  0
   -1.4416   -1.8245    2.0609 H   0  0  0  0  0  0  0  0  0  0  0  0
   -2.2985   -0.9448    0.7910 H   0  0  0  0  0  0  0  0  0  0  0  0
   -1.4045   -0.0595    2.0361 H   0  0  0  0  0  0  0  0  0  0  0  0
    1.2412    2.8244    0.2297 C   0  0  0  0  0  0  0  0  0  0  0  0
    1.0968    1.9210   -0.7278 C   0  0  0  0  0  0  0  0  0  0  0  0
   -0.1377    1.1227   -1.0241 C   0  0  0  0  0  3  0  0  0  0  0  0
   -1.3309    1.3944   -0.1217 C   0  0  0  0  0  0  0  0  0  0  0  0
    2.1775    3.3510    0.3645 H   0  0  0  0  0  0  0  0  0  0  0  0
    0.4386    3.0745    0.9135 H   0  0  0  0  0  0  0  0  0  0  0  0
    1.9425    1.7174   -1.3800 H   0  0  0  0  0  0  0  0  0  0  0  0
   -0.4166    1.3019   -2.0683 H   0  0  0  0  0  0  0  0  0  0  0  0
   -1.6453    2.4380   -0.1842 H   0  0  0  0  0  0  0  0  0  0  0  0
   -2.1787    0.7719   -0.4097 H   0  0  0  0  0  0  0  0  0  0  0  0
   -1.0957    1.1775    0.9221 H   0  0  0  0  0  0  0  0  0  0  0  0
  1  2  2  3
  1  6  1  0
  1  7  1  0
  2  3  1  0
  2  8  1  0
  3  4  1  0
  3  5  1  0
  3  9  1  0
  4 10  1  0
  4 11  1  0
  4 12  1  0
  5 13  1  0
  5 14  1  0
  5 15  1  0
 16 17  2  3
 16 20  1  0
 16 21  1  0
 17 18  1  0
 17 22  1  0
 18 19  1  0
 18 23  1  0
 19 24  1  0
 19 25  1  0
 19 26  1  0
M  RAD  1  18   2
M  END
>  <reaction>  (11) 
rxn_1087

>  <mol_properties>  (11) 
{"1": {"label": "*0", "atom_type": "Cd"}, "2": {"label": "*1", "atom_type": "Cs"}, "8": {"label": "*2", "atom_type": "H0"}, "16": {"label": "*4", "atom_type": "Cd"}, "17": {"label": "*3", "atom_type": "Cs"}}

>  <type>  (11) 
unop_7

>  <geom_source>  (11) 
Heuristics

$$$$

     RDKit          3D

 26 24  0  0  0  0  0  0  0  0999 V2000
    0.2333   -2.1442   -1.0969 C   0  0  0  0  0  0  0  0  0  0  0  0
    0.2333   -2.1442    0.2266 C   0  0  0  0  0  0  0  0  0  0  0  0
    0.2333   -0.9228    1.0986 C   0  0  0  0  0  0  0  0  0  0  0  0
    1.4926   -0.8824    1.9663 C   0  0  0  0  0  0  0  0  0  0  0  0
   -1.0260   -0.8824    1.9663 C   0  0  0  0  0  0  0  0  0  0  0  0
    0.2333   -3.0659   -1.6652 H   0  0  0  0  0  0  0  0  0  0  0  0
    0.2333   -1.2176   -1.6615 H   0  0  0  0  0  0  0  0  0  0  0  0
    0.2333   -3.0955    0.7571 H   0  0  0  0  0  0  0  0  0  0  0  0
    0.2333    0.1336    0.3182 H   0  0  0  0  0  0  0  0  0  0  0  0
    2.3942   -0.8765    1.3521 H   0  0  0  0  0  0  0  0  0  0  0  0
    1.5372   -1.7562    2.6220 H   0  0  0  0  0  0  0  0  0  0  0  0
    1.5001    0.0088    2.5972 H   0  0  0  0  0  0  0  0  0  0  0  0
   -1.0706   -1.7562    2.6220 H   0  0  0  0  0  0  0  0  0  0  0  0
   -1.9276   -0.8765    1.3521 H   0  0  0  0  0  0  0  0  0  0  0  0
   -1.0335    0.0088    2.5972 H   0  0  0  0  0  0  0  0  0  0  0  0
   -1.6276    2.3421   -1.7207 C   0  0  0  0  0  0  0  0  0  0  0  0
   -1.1921    1.5659   -0.7400 C   0  0  0  0  0  0  0  0  0  0  0  0
    0.2333    1.1910   -0.4630 C   0  0  0  0  0  3  0  0  0  0  0  0
    1.2650    1.7720   -1.4169 C   0  0  0  0  0  0  0  0  0  0  0  0
   -2.6825    2.5549   -1.8382 H   0  0  0  0  0  0  0  0  0  0  0  0
   -0.9559    2.7938   -2.4411 H   0  0  0  0  0  0  0  0  0  0  0  0
   -1.9197    1.1441   -0.0510 H   0  0  0  0  0  0  0  0  0  0  0  0
    0.4707    1.4901    0.5638 H   0  0  0  0  0  0  0  0  0  0  0  0
    1.2496    2.8635   -1.4002 H   0  0  0  0  0  0  0  0  0  0  0  0
    2.2686    1.4475   -1.1399 H   0  0  0  0  0  0  0  0  0  0  0  0
    1.0807    1.4502   -2.4437 H   0  0  0  0  0  0  0  0  0  0  0  0
  1  2  2  3
  1  6  1  0
  1  7  1  0
  2  3  1  0
  2  8  1  0
  3  4  1  0
  3  5  1  0
  3  9  1  0
  4 10  1  0
  4 11  1  0
  4 12  1  0
  5 13  1  0
  5 14  1  0
  5 15  1  0
 16 17  2  3
 16 20  1  0
 16 21  1  0
 17 18  1  0
 17 22  1  0
 18 19  1  0
 18 23  1  0
 19 24  1  0
 19 25  1  0
 19 26  1  0
M  RAD  1  18   2
M  END
>  <reaction>  (12) 
rxn_1087

>  <mol_properties>  (12) 
{"1": {"label": "*0", "atom_type": "Cd"}, "2": {"label": "*1", "atom_type": "Cs"}, "8": {"label": "*2", "atom_type": "H0"}, "16": {"label": "*4", "atom_type": "Cd"}, "17": {"label": "*3", "atom_type": "Cs"}}

>  <type>  (12) 
unop_8

>  <geom_source>  (12) 
Heuristics

$$$$

     RDKit          3D

 26 24  0  0  0  0  0  0  0  0999 V2000
   -0.3849   -1.9757   -1.1781 C   0  0  0  0  0  0  0  0  0  0  0  0
   -0.3849   -1.9757    0.1454 C   0  0  0  0  0  0  0  0  0  0  0  0
   -0.3849   -0.7544    1.0174 C   0  0  0  0  0  0  0  0  0  0  0  0
    0.8744   -0.7139    1.8851 C   0  0  0  0  0  0  0  0  0  0  0  0
   -1.6442   -0.7139    1.8851 C   0  0  0  0  0  0  0  0  0  0  0  0
   -0.3849   -2.8975   -1.7464 H   0  0  0  0  0  0  0  0  0  0  0  0
   -0.3849   -1.0492   -1.7427 H   0  0  0  0  0  0  0  0  0  0  0  0
   -0.3849   -2.9270    0.6760 H   0  0  0  0  0  0  0  0  0  0  0  0
   -0.3849    0.3020    0.2370 H   0  0  0  0  0  0  0  0  0  0  0  0
    1.7760   -0.7080    1.2709 H   0  0  0  0  0  0  0  0  0  0  0  0
    0.9190   -1.5878    2.5409 H   0  0  0  0  0  0  0  0  0  0  0  0
    0.8820    0.1773    2.5161 H   0  0  0  0  0  0  0  0  0  0  0  0
   -1.6888   -1.5878    2.5409 H   0  0  0  0  0  0  0  0  0  0  0  0
   -2.5457   -0.7080    1.2709 H   0  0  0  0  0  0  0  0  0  0  0  0
   -1.6517    0.1773    2.5161 H   0  0  0  0  0  0  0  0  0  0  0  0
    1.5486    1.3744   -2.1661 C   0  0  0  0  0  0  0  0  0  0  0  0
    0.3278    1.0008   -1.8140 C   0  0  0  0  0  0  0  0  0  0  0  0
   -0.3849    1.3594   -0.5441 C   0  0  0  0  0  3  0  0  0  0  0  0
    0.3913    2.2414    0.4210 C   0  0  0  0  0  0  0  0  0  0  0  0
    1.9782    1.0618   -3.1094 H   0  0  0  0  0  0  0  0  0  0  0  0
    2.1653    2.0022   -1.5339 H   0  0  0  0  0  0  0  0  0  0  0  0
   -0.2378    0.3700   -2.4953 H   0  0  0  0  0  0  0  0  0  0  0  0
   -1.3298    1.8460   -0.8098 H   0  0  0  0  0  0  0  0  0  0  0  0
    0.6526    3.1968   -0.0381 H   0  0  0  0  0  0  0  0  0  0  0  0
   -0.2023    2.4497    1.3118 H   0  0  0  0  0  0  0  0  0  0  0  0
    1.3172    1.7594    0.7409 H   0  0  0  0  0  0  0  0  0  0  0  0
  1  2  2  3
  1  6  1  0
  1  7  1  0
  2  3  1  0
  2  8  1  0
  3  4  1  0
  3  5  1  0
  3  9  1  0
  4 10  1  0
  4 11  1  0
  4 12  1  0
  5 13  1  0
  5 14  1  0
  5 15  1  0
 16 17  2  3
 16 20  1  0
 16 21  1  0
 17 18  1  0
 17 22  1  0
 18 19  1  0
 18 23  1  0
 19 24  1  0
 19 25  1  0
 19 26  1  0
M  RAD  1  18   2
M  END
>  <reaction>  (13) 
rxn_1087

>  <mol_properties>  (13) 
{"1": {"label": "*0", "atom_type": "Cd"}, "2": {"label": "*1", "atom_type": "Cs"}, "8": {"label": "*2", "atom_type": "H0"}, "16": {"label": "*4", "atom_type": "Cd"}, "17": {"label": "*3", "atom_type": "Cs"}}

>  <type>  (13) 
unop_9

>  <geom_source>  (13) 
Heuristics

$$$$

     RDKit          3D

 26 24  0  0  0  0  0  0  0  0999 V2000
    0.1479   -2.0541   -0.9942 C   0  0  0  0  0  0  0  0  0  0  0  0
    0.1479   -2.0541    0.3293 C   0  0  0  0  0  0  0  0  0  0  0  0
    0.1479   -0.8327    1.2013 C   0  0  0  0  0  0  0  0  0  0  0  0
    1.4072   -0.7923    2.0690 C   0  0  0  0  0  0  0  0  0  0  0  0
   -1.1114   -0.7923    2.0690 C   0  0  0  0  0  0  0  0  0  0  0  0
    0.1479   -2.9758   -1.5625 H   0  0  0  0  0  0  0  0  0  0  0  0
    0.1479   -1.1275   -1.5588 H   0  0  0  0  0  0  0  0  0  0  0  0
    0.1479   -3.0054    0.8598 H   0  0  0  0  0  0  0  0  0  0  0  0
    0.1479    0.2237    0.4209 H   0  0  0  0  0  0  0  0  0  0  0  0
    2.3088   -0.7864    1.4548 H   0  0  0  0  0  0  0  0  0  0  0  0
    1.4518   -1.6661    2.7248 H   0  0  0  0  0  0  0  0  0  0  0  0
    1.4148    0.0989    2.7000 H   0  0  0  0  0  0  0  0  0  0  0  0
   -1.1560   -1.6661    2.7248 H   0  0  0  0  0  0  0  0  0  0  0  0
   -2.0129   -0.7864    1.4548 H   0  0  0  0  0  0  0  0  0  0  0  0
   -1.1189    0.0989    2.7000 H   0  0  0  0  0  0  0  0  0  0  0  0
   -1.2520    1.8022   -2.3945 C   0  0  0  0  0  0  0  0  0  0  0  0
   -1.0865    1.2325   -1.2105 C   0  0  0  0  0  0  0  0  0  0  0  0
    0.1479    1.2811   -0.3603 C   0  0  0  0  0  3  0  0  0  0  0  0
    1.3140    2.0693   -0.9356 C   0  0  0  0  0  0  0  0  0  0  0  0
   -2.1863    1.7092   -2.9336 H   0  0  0  0  0  0  0  0  0  0  0  0
   -0.4695    2.3802   -2.8716 H   0  0  0  0  0  0  0  0  0  0  0  0
   -1.9127    0.6660   -0.7880 H   0  0  0  0  0  0  0  0  0  0  0  0
   -0.1279    1.6913    0.6174 H   0  0  0  0  0  0  0  0  0  0  0  0
    1.0423    3.1135   -1.1026 H   0  0  0  0  0  0  0  0  0  0  0  0
    2.1637    2.0500   -0.2524 H   0  0  0  0  0  0  0  0  0  0  0  0
    1.6420    1.6520   -1.8896 H   0  0  0  0  0  0  0  0  0  0  0  0
  1  2  2  3
  1  6  1  0
  1  7  1  0
  2  3  1  0
  2  8  1  0
  3  4  1  0
  3  5  1  0
  3  9  1  0
  4 10  1  0
  4 11  1  0
  4 12  1  0
  5 13  1  0
  5 14  1  0
  5 15  1  0
 16 17  2  3
 16 20  1  0
 16 21  1  0
 17 18  1  0
 17 22  1  0
 18 19  1  0
 18 23  1  0
 19 24  1  0
 19 25  1  0
 19 26  1  0
M  RAD  1  18   2
M  END
>  <reaction>  (14) 
rxn_1087

>  <mol_properties>  (14) 
{"1": {"label": "*0", "atom_type": "Cd"}, "2": {"label": "*1", "atom_type": "Cs"}, "8": {"label": "*2", "atom_type": "H0"}, "16": {"label": "*4", "atom_type": "Cd"}, "17": {"label": "*3", "atom_type": "Cs"}}

>  <type>  (14) 
unop_10

>  <geom_source>  (14) 
Heuristics

$$$$

     RDKit          3D

 26 24  0  0  0  0  0  0  0  0999 V2000
    0.0929   -2.2544   -1.6241 C   0  0  0  0  0  0  0  0  0  0  0  0
    0.0929   -2.2544   -0.3006 C   0  0  0  0  0  0  0  0  0  0  0  0
    0.0929   -1.0330    0.5714 C   0  0  0  0  0  0  0  0  0  0  0  0
    1.3522   -0.9926    1.4391 C   0  0  0  0  0  0  0  0  0  0  0  0
   -1.1664   -0.9926    1.4391 C   0  0  0  0  0  0  0  0  0  0  0  0
    0.0929   -3.1761   -2.1924 H   0  0  0  0  0  0  0  0  0  0  0  0
    0.0929   -1.3279   -2.1887 H   0  0  0  0  0  0  0  0  0  0  0  0
    0.0929   -3.2057    0.2299 H   0  0  0  0  0  0  0  0  0  0  0  0
    0.0929    0.0234   -0.2090 H   0  0  0  0  0  0  0  0  0  0  0  0
    2.2537   -0.9867    0.8249 H   0  0  0  0  0  0  0  0  0  0  0  0
    1.3968   -1.8664    2.0949 H   0  0  0  0  0  0  0  0  0  0  0  0
    1.3597   -0.1014    2.0701 H   0  0  0  0  0  0  0  0  0  0  0  0
   -1.2110   -1.8664    2.0949 H   0  0  0  0  0  0  0  0  0  0  0  0
   -2.0680   -0.9867    0.8249 H   0  0  0  0  0  0  0  0  0  0  0  0
   -1.1740   -0.1014    2.0701 H   0  0  0  0  0  0  0  0  0  0  0  0
    0.2467    3.1577    0.4353 C   0  0  0  0  0  0  0  0  0  0  0  0
    0.8056    2.1892   -0.2742 C   0  0  0  0  0  0  0  0  0  0  0  0
    0.0929    1.0808   -0.9902 C   0  0  0  0  0  3  0  0  0  0  0  0
   -1.4233    1.0900   -0.8761 C   0  0  0  0  0  0  0  0  0  0  0  0
    0.8500    3.9166    0.9173 H   0  0  0  0  0  0  0  0  0  0  0  0
   -0.8265    3.2337    0.5641 H   0  0  0  0  0  0  0  0  0  0  0  0
    1.8889    2.1712   -0.3636 H   0  0  0  0  0  0  0  0  0  0  0  0
    0.3835    1.1152   -2.0459 H   0  0  0  0  0  0  0  0  0  0  0  0
   -1.8457    2.0102   -1.2844 H   0  0  0  0  0  0  0  0  0  0  0  0
   -1.8540    0.2520   -1.4251 H   0  0  0  0  0  0  0  0  0  0  0  0
   -1.7428    1.0080    0.1646 H   0  0  0  0  0  0  0  0  0  0  0  0
  1  2  2  3
  1  6  1  0
  1  7  1  0
  2  3  1  0
  2  8  1  0
  3  4  1  0
  3  5  1  0
  3  9  1  0
  4 10  1  0
  4 11  1  0
  4 12  1  0
  5 13  1  0
  5 14  1  0
  5 15  1  0
 16 17  2  3
 16 20  1  0
 16 21  1  0
 17 18  1  0
 17 22  1  0
 18 19  1  0
 18 23  1  0
 19 24  1  0
 19 25  1  0
 19 26  1  0
M  RAD  1  18   2
M  END
>  <reaction>  (15) 
rxn_1087

>  <mol_properties>  (15) 
{"1": {"label": "*0", "atom_type": "Cd"}, "2": {"label": "*1", "atom_type": "Cs"}, "8": {"label": "*2", "atom_type": "H0"}, "16": {"label": "*4", "atom_type": "Cd"}, "17": {"label": "*3", "atom_type": "Cs"}}

>  <type>  (15) 
unop_11

>  <geom_source>  (15) 
Heuristics

$$$$

     RDKit          3D

 26 24  0  0  0  0  0  0  0  0999 V2000
   -0.2357   -1.9484   -1.0101 C   0  0  0  0  0  0  0  0  0  0  0  0
   -0.2357   -1.9484    0.3134 C   0  0  0  0  0  0  0  0  0  0  0  0
   -0.2357   -0.7270    1.1855 C   0  0  0  0  0  0  0  0  0  0  0  0
    1.0236   -0.6866    2.0531 C   0  0  0  0  0  0  0  0  0  0  0  0
   -1.4950   -0.6866    2.0531 C   0  0  0  0  0  0  0  0  0  0  0  0
   -0.2357   -2.8701   -1.5783 H   0  0  0  0  0  0  0  0  0  0  0  0
   -0.2357   -1.0219   -1.5746 H   0  0  0  0  0  0  0  0  0  0  0  0
   -0.2357   -2.8997    0.8440 H   0  0  0  0  0  0  0  0  0  0  0  0
   -0.2357    0.3294    0.4050 H   0  0  0  0  0  0  0  0  0  0  0  0
    1.9252   -0.6807    1.4390 H   0  0  0  0  0  0  0  0  0  0  0  0
    1.0682   -1.5604    2.7089 H   0  0  0  0  0  0  0  0  0  0  0  0
    1.0312    0.2046    2.6841 H   0  0  0  0  0  0  0  0  0  0  0  0
   -1.5396   -1.5604    2.7089 H   0  0  0  0  0  0  0  0  0  0  0  0
   -2.3965   -0.6807    1.4390 H   0  0  0  0  0  0  0  0  0  0  0  0
   -1.5025    0.2046    2.6841 H   0  0  0  0  0  0  0  0  0  0  0  0
    0.6524    1.2219   -2.7327 C   0  0  0  0  0  0  0  0  0  0  0  0
   -0.2357    0.9146   -1.7996 C   0  0  0  0  0  0  0  0  0  0  0  0
   -0.2357    1.3868   -0.3761 C   0  0  0  0  0  3  0  0  0  0  0  0
    0.9083    2.3100    0.0122 C   0  0  0  0  0  0  0  0  0  0  0  0
    0.5658    0.8284   -3.7376 H   0  0  0  0  0  0  0  0  0  0  0  0
    1.4957    1.8731   -2.5353 H   0  0  0  0  0  0  0  0  0  0  0  0
   -1.0585    0.2553   -2.0644 H   0  0  0  0  0  0  0  0  0  0  0  0
   -1.1926    1.8835   -0.1822 H   0  0  0  0  0  0  0  0  0  0  0  0
    0.9039    3.2210   -0.5896 H   0  0  0  0  0  0  0  0  0  0  0  0
    0.8270    2.6011    1.0600 H   0  0  0  0  0  0  0  0  0  0  0  0
    1.8753    1.8223   -0.1257 H   0  0  0  0  0  0  0  0  0  0  0  0
  1  2  2  3
  1  6  1  0
  1  7  1  0
  2  3  1  0
  2  8  1  0
  3  4  1  0
  3  5  1  0
  3  9  1  0
  4 10  1  0
  4 11  1  0
  4 12  1  0
  5 13  1  0
  5 14  1  0
  5 15  1  0
 16 17  2  3
 16 20  1  0
 16 21  1  0
 17 18  1  0
 17 22  1  0
 18 19  1  0
 18 23  1  0
 19 24  1  0
 19 25  1  0
 19 26  1  0
M  RAD  1  18   2
M  END
>  <reaction>  (16) 
rxn_1087

>  <mol_properties>  (16) 
{"1": {"label": "*0", "atom_type": "Cd"}, "2": {"label": "*1", "atom_type": "Cs"}, "8": {"label": "*2", "atom_type": "H0"}, "16": {"label": "*4", "atom_type": "Cd"}, "17": {"label": "*3", "atom_type": "Cs"}}

>  <type>  (16) 
unop_12

>  <geom_source>  (16) 
Heuristics

$$$$

     RDKit          3D

 26 24  0  0  0  0  0  0  0  0999 V2000
    1.2917   -0.1866   -0.0995 C   0  0  0  0  0  3  0  0  0  0  0  0
    1.7650   -0.9457    1.1355 C   0  0  0  0  0  0  0  0  0  0  0  0
   -1.1859   -1.6134    0.0579 C   0  0  0  0  0  0  0  0  0  0  0  0
   -1.3838    0.1981   -1.6941 C   0  0  0  0  0  0  0  0  0  0  0  0
   -1.3266   -0.1138   -0.1994 C   0  0  0  0  0  0  0  0  0  0  0  0
    2.0443    1.1023   -0.2744 C   0  0  0  0  0  0  0  0  0  0  0  0
   -2.5316    0.4370    0.5062 C   0  0  0  0  0  0  0  0  0  0  0  0
    3.3282    1.1241   -0.6441 C   0  0  0  0  0  0  0  0  0  0  0  0
   -2.3965    1.3667    1.4522 C   0  0  0  0  0  0  0  0  0  0  0  0
    1.4110   -0.8218   -1.0039 H   0  0  0  0  0  0  0  0  0  0  0  0
   -0.0576    0.1021    0.0519 H   0  0  0  0  0  0  0  0  0  0  0  0
    2.8311   -1.2388    1.0299 H   0  0  0  0  0  0  0  0  0  0  0  0
    1.1549   -1.8648    1.2580 H   0  0  0  0  0  0  0  0  0  0  0  0
    1.6434   -0.3153    2.0420 H   0  0  0  0  0  0  0  0  0  0  0  0
   -0.2617   -1.9946   -0.4254 H   0  0  0  0  0  0  0  0  0  0  0  0
   -2.0616   -2.1657   -0.3464 H   0  0  0  0  0  0  0  0  0  0  0  0
   -1.1094   -1.8032    1.1495 H   0  0  0  0  0  0  0  0  0  0  0  0
   -2.2668   -0.2869   -2.1636 H   0  0  0  0  0  0  0  0  0  0  0  0
   -1.4480    1.2961   -1.8480 H   0  0  0  0  0  0  0  0  0  0  0  0
   -0.4613   -0.1680   -2.1920 H   0  0  0  0  0  0  0  0  0  0  0  0
    1.5182    2.0402   -0.1266 H   0  0  0  0  0  0  0  0  0  0  0  0
   -3.5225    0.0759    0.2448 H   0  0  0  0  0  0  0  0  0  0  0  0
    3.8390    2.0723   -0.7763 H   0  0  0  0  0  0  0  0  0  0  0  0
    3.8752    0.2028   -0.8204 H   0  0  0  0  0  0  0  0  0  0  0  0
   -3.2731    1.7592    1.9571 H   0  0  0  0  0  0  0  0  0  0  0  0
   -1.4156    1.7417    1.7292 H   0  0  0  0  0  0  0  0  0  0  0  0
  1  2  1  0
  1  6  1  0
  1 10  1  0
  2 12  1  0
  2 13  1  0
  2 14  1  0
  3  5  1  0
  3 15  1  0
  3 16  1  0
  3 17  1  0
  4  5  1  0
  4 18  1  0
  4 19  1  0
  4 20  1  0
  5  7  1  0
  5 11  1  0
  6  8  2  3
  6 21  1  0
  7  9  2  3
  7 22  1  0
  8 23  1  0
  8 24  1  0
  9 25  1  0
  9 26  1  0
M  RAD  1   1   2
M  END
>  <reaction>  (17) 
rxn_1087

>  <mol_properties>  (17) 
{"1": {"label": "*0", "atom_type": "Cd"}, "2": {"label": "*1", "atom_type": "Cs"}, "8": {"label": "*2", "atom_type": "H0"}, "16": {"label": "*4", "atom_type": "Cd"}, "17": {"label": "*3", "atom_type": "Cs"}}

>  <type>  (17) 
unop_13

>  <geom_source>  (17) 
AutoTST

$$$$
