
     RDKit          3D

  9  8  0  0  0  0  0  0  0  0999 V2000
   -0.9895    0.3048    0.1041 C   0  0  0  0  0  0  0  0  0  0  0  0
    0.3761   -0.3562    0.0721 C   0  0  0  0  0  0  0  0  0  0  0  0
    0.3441   -1.6564   -0.4834 O   0  0  0  0  0  0  0  0  0  0  0  0
   -1.6997   -0.3114    0.6572 H   0  0  0  0  0  0  0  0  0  0  0  0
   -0.9320    1.2848    0.5822 H   0  0  0  0  0  0  0  0  0  0  0  0
   -1.3774    0.4507   -0.9077 H   0  0  0  0  0  0  0  0  0  0  0  0
    0.7581   -0.4813    1.0862 H   0  0  0  0  0  0  0  0  0  0  0  0
    1.0900    0.2787   -0.4681 H   0  0  0  0  0  0  0  0  0  0  0  0
    0.0089   -1.5959   -1.3792 H   0  0  0  0  0  0  0  0  0  0  0  0
  1  2  1  0
  1  4  1  0
  1  5  1  0
  1  6  1  0
  2  3  1  0
  2  7  1  0
  2  8  1  0
  3  9  1  0
M  END
>  <reaction>  (1) 
rxn_230

>  <mol_properties>  (1) 
{"2": {"label": "donator", "atom_type": "O2s"}, "8": {"label": "d_hydrogen", "atom_type": "H0"}}

>  <type>  (1) 
r1h

$$$$

     RDKit          3D

  3  2  0  0  0  0  0  0  0  0999 V2000
    0.9943   -0.1797    0.0000 O   0  0  0  0  0  1  0  0  0  0  0  0
   -0.1595    0.4394    0.0000 O   0  0  0  0  0  0  0  0  0  0  0  0
   -0.8348   -0.2597    0.0000 H   0  0  0  0  0  0  0  0  0  0  0  0
  1  2  1  0
  2  3  1  0
M  RAD  1   1   2
M  END
>  <reaction>  (2) 
rxn_230

>  <mol_properties>  (2) 
{"0": {"label": "acceptor", "atom_type": "O2s"}}

>  <type>  (2) 
r2

$$$$

     RDKit          3D

  4  3  0  0  0  0  0  0  0  0999 V2000
    0.5949   -0.3853    0.2659 O   0  0  0  0  0  0  0  0  0  0  0  0
   -0.5918    0.4028    0.2462 O   0  0  0  0  0  0  0  0  0  0  0  0
    1.1865    0.1539   -0.2689 H   0  0  0  0  0  0  0  0  0  0  0  0
   -1.1896   -0.1714   -0.2432 H   0  0  0  0  0  0  0  0  0  0  0  0
  1  2  1  0
  1  3  1  0
  2  4  1  0
M  END
>  <reaction>  (3) 
rxn_230

>  <mol_properties>  (3) 
{"0": {"label": "a_hydrogen", "atom_type": "H0"}, "1": {"label": "acceptor", "atom_type": "O2s"}}

>  <type>  (3) 
r2h

$$$$

     RDKit          3D

 12 10  0  0  0  0  0  0  0  0999 V2000
    1.2423   -1.0864   -1.2164 C   0  0  0  0  0  0  0  0  0  0  0  0
    0.8557   -0.9590    0.2468 C   0  0  0  0  0  0  0  0  0  0  0  0
    0.9271    0.3170    0.7424 O   0  0  0  0  0  1  0  0  0  0  0  0
    2.2716   -0.7589   -1.3668 H   0  0  0  0  0  0  0  0  0  0  0  0
    1.1560   -2.1237   -1.5449 H   0  0  0  0  0  0  0  0  0  0  0  0
    0.5885   -0.4716   -1.8363 H   0  0  0  0  0  0  0  0  0  0  0  0
    1.4457   -1.6202    0.8969 H   0  0  0  0  0  0  0  0  0  0  0  0
   -0.1956   -1.2991    0.3743 H   0  0  0  0  0  0  0  0  0  0  0  0
   -0.1180    0.9412    0.3941 H   0  0  0  0  0  0  0  0  0  0  0  0
   -1.1586    1.2829    0.2897 O   0  0  0  0  0  0  0  0  0  0  0  0
   -1.8928    0.1626   -0.0380 O   0  0  0  0  0  0  0  0  0  0  0  0
   -2.4288    0.0197    0.7523 H   0  0  0  0  0  0  0  0  0  0  0  0
  1  2  1  0
  1  4  1  0
  1  5  1  0
  1  6  1  0
  2  3  1  0
  2  7  1  0
  2  8  1  0
  9 10  1  0
 10 11  1  0
 11 12  1  0
M  RAD  1   3   2
M  END
>  <reaction>  (4) 
rxn_230

>  <mol_properties>  (4) 
{"1": {"label": "*4", "atom_type": "Cs"}, "2": {"label": "*3", "atom_type": "O2s"}, "8": {"label": "*2", "atom_type": "H0"}, "9": {"label": "*1", "atom_type": "O2s"}, "10": {"label": "*0", "atom_type": "O2s"}}

>  <type>  (4) 
ts

$$$$

     RDKit          3D

 12 10  0  0  0  0  0  0  0  0999 V2000
    0.9299   -1.3525   -1.5255 C   0  0  0  0  0  0  0  0  0  0  0  0
    0.9299   -1.3525   -0.0080 C   0  0  0  0  0  0  0  0  0  0  0  0
    0.9299   -0.0493    0.5413 O   0  0  0  0  0  0  0  0  0  0  0  0
    1.7859   -0.7949   -1.9079 H   0  0  0  0  0  0  0  0  0  0  0  0
    0.9783   -2.3731   -1.9108 H   0  0  0  0  0  0  0  0  0  0  0  0
    0.0185   -0.8923   -1.9167 H   0  0  0  0  0  0  0  0  0  0  0  0
    1.8364   -1.8282    0.3688 H   0  0  0  0  0  0  0  0  0  0  0  0
    0.0777   -1.9322    0.3692 H   0  0  0  0  0  0  0  0  0  0  0  0
   -0.0084    0.5027    0.1704 H   0  0  0  0  0  0  0  0  0  0  0  0
   -0.9509    1.0571   -0.2021 O   0  0  0  0  0  1  0  0  0  0  0  0
   -1.6033    1.3524    1.0295 O   0  0  0  0  0  0  0  0  0  0  0  0
   -1.0540    2.0680    1.3653 H   0  0  0  0  0  0  0  0  0  0  0  0
  1  2  1  0
  1  4  1  0
  1  5  1  0
  1  6  1  0
  2  3  1  0
  2  7  1  0
  2  8  1  0
  3  9  1  0
 10 11  1  0
 11 12  1  0
M  RAD  1  10   2
M  END
>  <reaction>  (5) 
rxn_230

>  <mol_properties>  (5) 
{"1": {"label": "*4", "atom_type": "Cs"}, "2": {"label": "*3", "atom_type": "O2s"}, "8": {"label": "*2", "atom_type": "H0"}, "9": {"label": "*1", "atom_type": "O2s"}, "10": {"label": "*0", "atom_type": "O2s"}}

>  <type>  (5) 
unop_1

>  <geom_source>  (5) 
Heuristics

$$$$

     RDKit          3D

 12 10  0  0  0  0  0  0  0  0999 V2000
    0.9985   -1.0470   -1.2325 C   0  0  0  0  0  0  0  0  0  0  0  0
    0.9985   -1.0470    0.2851 C   0  0  0  0  0  0  0  0  0  0  0  0
    0.9985    0.2561    0.8344 O   0  0  0  0  0  0  0  0  0  0  0  0
    1.8545   -0.4895   -1.6148 H   0  0  0  0  0  0  0  0  0  0  0  0
    1.0469   -2.0676   -1.6177 H   0  0  0  0  0  0  0  0  0  0  0  0
    0.0870   -0.5869   -1.6236 H   0  0  0  0  0  0  0  0  0  0  0  0
    1.9049   -1.5227    0.6619 H   0  0  0  0  0  0  0  0  0  0  0  0
    0.1463   -1.6268    0.6623 H   0  0  0  0  0  0  0  0  0  0  0  0
    0.0601    0.8081    0.4635 H   0  0  0  0  0  0  0  0  0  0  0  0
   -0.8823    1.3626    0.0910 O   0  0  0  0  0  1  0  0  0  0  0  0
   -1.7945    0.2802   -0.0705 O   0  0  0  0  0  0  0  0  0  0  0  0
   -2.2399    0.2821    0.7828 H   0  0  0  0  0  0  0  0  0  0  0  0
  1  2  1  0
  1  4  1  0
  1  5  1  0
  1  6  1  0
  2  3  1  0
  2  7  1  0
  2  8  1  0
  3  9  1  0
 10 11  1  0
 11 12  1  0
M  RAD  1  10   2
M  END
>  <reaction>  (6) 
rxn_230

>  <mol_properties>  (6) 
{"1": {"label": "*4", "atom_type": "Cs"}, "2": {"label": "*3", "atom_type": "O2s"}, "8": {"label": "*2", "atom_type": "H0"}, "9": {"label": "*1", "atom_type": "O2s"}, "10": {"label": "*0", "atom_type": "O2s"}}

>  <type>  (6) 
unop_2

>  <geom_source>  (6) 
Heuristics

$$$$

     RDKit          3D

 12 10  0  0  0  0  0  0  0  0999 V2000
    0.8437   -1.4790   -1.4880 C   0  0  0  0  0  0  0  0  0  0  0  0
    0.8437   -1.4790    0.0296 C   0  0  0  0  0  0  0  0  0  0  0  0
    0.8437   -0.1758    0.5789 O   0  0  0  0  0  0  0  0  0  0  0  0
    1.6998   -0.9214   -1.8703 H   0  0  0  0  0  0  0  0  0  0  0  0
    0.8922   -2.4996   -1.8732 H   0  0  0  0  0  0  0  0  0  0  0  0
   -0.0677   -1.0188   -1.8791 H   0  0  0  0  0  0  0  0  0  0  0  0
    1.7502   -1.9547    0.4064 H   0  0  0  0  0  0  0  0  0  0  0  0
   -0.0084   -2.0587    0.4068 H   0  0  0  0  0  0  0  0  0  0  0  0
   -0.0946    0.3762    0.2080 H   0  0  0  0  0  0  0  0  0  0  0  0
   -1.0370    0.9306   -0.1645 O   0  0  0  0  0  1  0  0  0  0  0  0
   -1.2891    1.8117    0.9262 O   0  0  0  0  0  0  0  0  0  0  0  0
   -0.7365    2.5639    0.6907 H   0  0  0  0  0  0  0  0  0  0  0  0
  1  2  1  0
  1  4  1  0
  1  5  1  0
  1  6  1  0
  2  3  1  0
  2  7  1  0
  2  8  1  0
  3  9  1  0
 10 11  1  0
 11 12  1  0
M  RAD  1  10   2
M  END
>  <reaction>  (7) 
rxn_230

>  <mol_properties>  (7) 
{"1": {"label": "*4", "atom_type": "Cs"}, "2": {"label": "*3", "atom_type": "O2s"}, "8": {"label": "*2", "atom_type": "H0"}, "9": {"label": "*1", "atom_type": "O2s"}, "10": {"label": "*0", "atom_type": "O2s"}}

>  <type>  (7) 
unop_3

>  <geom_source>  (7) 
Heuristics

$$$$

     RDKit          3D

 12 10  0  0  0  0  0  0  0  0999 V2000
    0.7650   -1.2732   -0.9489 C   0  0  0  0  0  0  0  0  0  0  0  0
    0.7650   -1.2732    0.5686 C   0  0  0  0  0  0  0  0  0  0  0  0
    0.7650    0.0300    1.1179 O   0  0  0  0  0  0  0  0  0  0  0  0
    1.6210   -0.7157   -1.3313 H   0  0  0  0  0  0  0  0  0  0  0  0
    0.8134   -2.2938   -1.3342 H   0  0  0  0  0  0  0  0  0  0  0  0
   -0.1465   -0.8131   -1.3401 H   0  0  0  0  0  0  0  0  0  0  0  0
    1.6714   -1.7489    0.9454 H   0  0  0  0  0  0  0  0  0  0  0  0
   -0.0872   -1.8530    0.9459 H   0  0  0  0  0  0  0  0  0  0  0  0
   -0.1734    0.5819    0.7470 H   0  0  0  0  0  0  0  0  0  0  0  0
   -1.1158    1.1364    0.3745 O   0  0  0  0  0  1  0  0  0  0  0  0
   -0.9151    1.1068   -1.0356 O   0  0  0  0  0  0  0  0  0  0  0  0
   -1.8235    1.0864   -1.3535 H   0  0  0  0  0  0  0  0  0  0  0  0
  1  2  1  0
  1  4  1  0
  1  5  1  0
  1  6  1  0
  2  3  1  0
  2  7  1  0
  2  8  1  0
  3  9  1  0
 10 11  1  0
 11 12  1  0
M  RAD  1  10   2
M  END
>  <reaction>  (8) 
rxn_230

>  <mol_properties>  (8) 
{"1": {"label": "*4", "atom_type": "Cs"}, "2": {"label": "*3", "atom_type": "O2s"}, "8": {"label": "*2", "atom_type": "H0"}, "9": {"label": "*1", "atom_type": "O2s"}, "10": {"label": "*0", "atom_type": "O2s"}}

>  <type>  (8) 
unop_4

>  <geom_source>  (8) 
Heuristics

$$$$

     RDKit          3D

 12 10  0  0  0  0  0  0  0  0999 V2000
    0.7615   -1.5596   -1.3829 C   0  0  0  0  0  0  0  0  0  0  0  0
    0.7615   -1.5596    0.1346 C   0  0  0  0  0  0  0  0  0  0  0  0
    0.7615   -0.2564    0.6839 O   0  0  0  0  0  0  0  0  0  0  0  0
    1.6176   -1.0021   -1.7653 H   0  0  0  0  0  0  0  0  0  0  0  0
    0.8100   -2.5802   -1.7682 H   0  0  0  0  0  0  0  0  0  0  0  0
   -0.1499   -1.0995   -1.7741 H   0  0  0  0  0  0  0  0  0  0  0  0
    1.6680   -2.0353    0.5114 H   0  0  0  0  0  0  0  0  0  0  0  0
   -0.0907   -2.1393    0.5118 H   0  0  0  0  0  0  0  0  0  0  0  0
   -0.1768    0.2956    0.3130 H   0  0  0  0  0  0  0  0  0  0  0  0
   -1.1192    0.8500   -0.0595 O   0  0  0  0  0  1  0  0  0  0  0  0
   -0.9640    2.1165    0.5742 O   0  0  0  0  0  0  0  0  0  0  0  0
   -0.8361    2.6919   -0.1868 H   0  0  0  0  0  0  0  0  0  0  0  0
  1  2  1  0
  1  4  1  0
  1  5  1  0
  1  6  1  0
  2  3  1  0
  2  7  1  0
  2  8  1  0
  3  9  1  0
 10 11  1  0
 11 12  1  0
M  RAD  1  10   2
M  END
>  <reaction>  (9) 
rxn_230

>  <mol_properties>  (9) 
{"1": {"label": "*4", "atom_type": "Cs"}, "2": {"label": "*3", "atom_type": "O2s"}, "8": {"label": "*2", "atom_type": "H0"}, "9": {"label": "*1", "atom_type": "O2s"}, "10": {"label": "*0", "atom_type": "O2s"}}

>  <type>  (9) 
unop_5

>  <geom_source>  (9) 
Heuristics

$$$$

     RDKit          3D

 12 10  0  0  0  0  0  0  0  0999 V2000
    0.7023   -1.4103   -0.9925 C   0  0  0  0  0  0  0  0  0  0  0  0
    0.7023   -1.4103    0.5251 C   0  0  0  0  0  0  0  0  0  0  0  0
    0.7023   -0.1071    1.0744 O   0  0  0  0  0  0  0  0  0  0  0  0
    1.5583   -0.8528   -1.3748 H   0  0  0  0  0  0  0  0  0  0  0  0
    0.7507   -2.4309   -1.3777 H   0  0  0  0  0  0  0  0  0  0  0  0
   -0.2092   -0.9502   -1.3836 H   0  0  0  0  0  0  0  0  0  0  0  0
    1.6087   -1.8860    0.9019 H   0  0  0  0  0  0  0  0  0  0  0  0
   -0.1499   -1.9900    0.9023 H   0  0  0  0  0  0  0  0  0  0  0  0
   -0.2361    0.4449    0.7035 H   0  0  0  0  0  0  0  0  0  0  0  0
   -1.1785    0.9993    0.3310 O   0  0  0  0  0  1  0  0  0  0  0  0
   -0.6918    1.5991   -0.8661 O   0  0  0  0  0  0  0  0  0  0  0  0
   -1.5079    1.7121   -1.3639 H   0  0  0  0  0  0  0  0  0  0  0  0
  1  2  1  0
  1  4  1  0
  1  5  1  0
  1  6  1  0
  2  3  1  0
  2  7  1  0
  2  8  1  0
  3  9  1  0
 10 11  1  0
 11 12  1  0
M  RAD  1  10   2
M  END
>  <reaction>  (10) 
rxn_230

>  <mol_properties>  (10) 
{"1": {"label": "*4", "atom_type": "Cs"}, "2": {"label": "*3", "atom_type": "O2s"}, "8": {"label": "*2", "atom_type": "H0"}, "9": {"label": "*1", "atom_type": "O2s"}, "10": {"label": "*0", "atom_type": "O2s"}}

>  <type>  (10) 
unop_6

>  <geom_source>  (10) 
Heuristics

$$$$

     RDKit          3D

 12 10  0  0  0  0  0  0  0  0999 V2000
    0.6802   -1.5200   -1.1004 C   0  0  0  0  0  0  0  0  0  0  0  0
    0.6802   -1.5200    0.4171 C   0  0  0  0  0  0  0  0  0  0  0  0
    0.6802   -0.2168    0.9664 O   0  0  0  0  0  0  0  0  0  0  0  0
    1.5363   -0.9625   -1.4827 H   0  0  0  0  0  0  0  0  0  0  0  0
    0.7287   -2.5406   -1.4856 H   0  0  0  0  0  0  0  0  0  0  0  0
   -0.2312   -1.0599   -1.4916 H   0  0  0  0  0  0  0  0  0  0  0  0
    1.5867   -1.9957    0.7940 H   0  0  0  0  0  0  0  0  0  0  0  0
   -0.1720   -2.0997    0.7944 H   0  0  0  0  0  0  0  0  0  0  0  0
   -0.2581    0.3352    0.5955 H   0  0  0  0  0  0  0  0  0  0  0  0
   -1.2006    0.8896    0.2230 O   0  0  0  0  0  1  0  0  0  0  0  0
   -0.6188    1.9936   -0.4641 O   0  0  0  0  0  0  0  0  0  0  0  0
   -1.3104    2.2037   -1.0999 H   0  0  0  0  0  0  0  0  0  0  0  0
  1  2  1  0
  1  4  1  0
  1  5  1  0
  1  6  1  0
  2  3  1  0
  2  7  1  0
  2  8  1  0
  3  9  1  0
 10 11  1  0
 11 12  1  0
M  RAD  1  10   2
M  END
>  <reaction>  (11) 
rxn_230

>  <mol_properties>  (11) 
{"1": {"label": "*4", "atom_type": "Cs"}, "2": {"label": "*3", "atom_type": "O2s"}, "8": {"label": "*2", "atom_type": "H0"}, "9": {"label": "*1", "atom_type": "O2s"}, "10": {"label": "*0", "atom_type": "O2s"}}

>  <type>  (11) 
unop_7

>  <geom_source>  (11) 
Heuristics

$$$$

     RDKit          3D

 12 10  0  0  0  0  0  0  0  0999 V2000
    0.9944   -1.2149   -1.4847 C   0  0  0  0  0  0  0  0  0  0  0  0
    0.9944   -1.2149    0.0328 C   0  0  0  0  0  0  0  0  0  0  0  0
    0.9944    0.0883    0.5821 O   0  0  0  0  0  0  0  0  0  0  0  0
    1.8504   -0.6573   -1.8671 H   0  0  0  0  0  0  0  0  0  0  0  0
    1.0428   -2.2354   -1.8700 H   0  0  0  0  0  0  0  0  0  0  0  0
    0.0829   -0.7547   -1.8759 H   0  0  0  0  0  0  0  0  0  0  0  0
    1.9009   -1.6906    0.4096 H   0  0  0  0  0  0  0  0  0  0  0  0
    0.1422   -1.7946    0.4100 H   0  0  0  0  0  0  0  0  0  0  0  0
    0.0560    0.6403    0.2112 H   0  0  0  0  0  0  0  0  0  0  0  0
   -0.8864    1.1947   -0.1613 O   0  0  0  0  0  1  0  0  0  0  0  0
   -1.8248    0.8607    0.8572 O   0  0  0  0  0  0  0  0  0  0  0  0
   -1.5068    1.3996    1.5887 H   0  0  0  0  0  0  0  0  0  0  0  0
  1  2  1  0
  1  4  1  0
  1  5  1  0
  1  6  1  0
  2  3  1  0
  2  7  1  0
  2  8  1  0
  3  9  1  0
 10 11  1  0
 11 12  1  0
M  RAD  1  10   2
M  END
>  <reaction>  (12) 
rxn_230

>  <mol_properties>  (12) 
{"1": {"label": "*4", "atom_type": "Cs"}, "2": {"label": "*3", "atom_type": "O2s"}, "8": {"label": "*2", "atom_type": "H0"}, "9": {"label": "*1", "atom_type": "O2s"}, "10": {"label": "*0", "atom_type": "O2s"}}

>  <type>  (12) 
unop_8

>  <geom_source>  (12) 
Heuristics

$$$$

     RDKit          3D

 12 10  0  0  0  0  0  0  0  0999 V2000
    0.8516   -1.1455   -0.9835 C   0  0  0  0  0  0  0  0  0  0  0  0
    0.8516   -1.1455    0.5340 C   0  0  0  0  0  0  0  0  0  0  0  0
    0.8516    0.1577    1.0834 O   0  0  0  0  0  0  0  0  0  0  0  0
    1.7077   -0.5879   -1.3658 H   0  0  0  0  0  0  0  0  0  0  0  0
    0.9000   -2.1661   -1.3687 H   0  0  0  0  0  0  0  0  0  0  0  0
   -0.0598   -0.6853   -1.3747 H   0  0  0  0  0  0  0  0  0  0  0  0
    1.7581   -1.6212    0.9109 H   0  0  0  0  0  0  0  0  0  0  0  0
   -0.0006   -1.7252    0.9113 H   0  0  0  0  0  0  0  0  0  0  0  0
   -0.0867    0.7097    0.7125 H   0  0  0  0  0  0  0  0  0  0  0  0
   -1.0292    1.2641    0.3400 O   0  0  0  0  0  1  0  0  0  0  0  0
   -1.2288    0.6487   -0.9293 O   0  0  0  0  0  0  0  0  0  0  0  0
   -2.1785    0.4922   -0.9140 H   0  0  0  0  0  0  0  0  0  0  0  0
  1  2  1  0
  1  4  1  0
  1  5  1  0
  1  6  1  0
  2  3  1  0
  2  7  1  0
  2  8  1  0
  3  9  1  0
 10 11  1  0
 11 12  1  0
M  RAD  1  10   2
M  END
>  <reaction>  (13) 
rxn_230

>  <mol_properties>  (13) 
{"1": {"label": "*4", "atom_type": "Cs"}, "2": {"label": "*3", "atom_type": "O2s"}, "8": {"label": "*2", "atom_type": "H0"}, "9": {"label": "*1", "atom_type": "O2s"}, "10": {"label": "*0", "atom_type": "O2s"}}

>  <type>  (13) 
unop_9

>  <geom_source>  (13) 
Heuristics

$$$$

     RDKit          3D

 12 10  0  0  0  0  0  0  0  0999 V2000
    1.0193   -1.1031   -1.3775 C   0  0  0  0  0  0  0  0  0  0  0  0
    1.0193   -1.1031    0.1400 C   0  0  0  0  0  0  0  0  0  0  0  0
    1.0193    0.2001    0.6894 O   0  0  0  0  0  0  0  0  0  0  0  0
    1.8753   -0.5455   -1.7598 H   0  0  0  0  0  0  0  0  0  0  0  0
    1.0677   -2.1236   -1.7627 H   0  0  0  0  0  0  0  0  0  0  0  0
    0.1078   -0.6429   -1.7687 H   0  0  0  0  0  0  0  0  0  0  0  0
    1.9258   -1.5788    0.5169 H   0  0  0  0  0  0  0  0  0  0  0  0
    0.1671   -1.6828    0.5173 H   0  0  0  0  0  0  0  0  0  0  0  0
    0.0809    0.7521    0.3185 H   0  0  0  0  0  0  0  0  0  0  0  0
   -0.8615    1.3065   -0.0540 O   0  0  0  0  0  1  0  0  0  0  0  0
   -1.8950    0.4682    0.4546 O   0  0  0  0  0  0  0  0  0  0  0  0
   -1.9257    0.7469    1.3755 H   0  0  0  0  0  0  0  0  0  0  0  0
  1  2  1  0
  1  4  1  0
  1  5  1  0
  1  6  1  0
  2  3  1  0
  2  7  1  0
  2  8  1  0
  3  9  1  0
 10 11  1  0
 11 12  1  0
M  RAD  1  10   2
M  END
>  <reaction>  (14) 
rxn_230

>  <mol_properties>  (14) 
{"1": {"label": "*4", "atom_type": "Cs"}, "2": {"label": "*3", "atom_type": "O2s"}, "8": {"label": "*2", "atom_type": "H0"}, "9": {"label": "*1", "atom_type": "O2s"}, "10": {"label": "*0", "atom_type": "O2s"}}

>  <type>  (14) 
unop_10

>  <geom_source>  (14) 
Heuristics

$$$$

     RDKit          3D

 12 10  0  0  0  0  0  0  0  0999 V2000
    0.7029   -1.5741   -1.2425 C   0  0  0  0  0  0  0  0  0  0  0  0
    0.7029   -1.5741    0.2750 C   0  0  0  0  0  0  0  0  0  0  0  0
    0.7029   -0.2709    0.8243 O   0  0  0  0  0  0  0  0  0  0  0  0
    1.5590   -1.0165   -1.6248 H   0  0  0  0  0  0  0  0  0  0  0  0
    0.7513   -2.5947   -1.6277 H   0  0  0  0  0  0  0  0  0  0  0  0
   -0.2085   -1.1139   -1.6337 H   0  0  0  0  0  0  0  0  0  0  0  0
    1.6094   -2.0498    0.6519 H   0  0  0  0  0  0  0  0  0  0  0  0
   -0.1493   -2.1538    0.6523 H   0  0  0  0  0  0  0  0  0  0  0  0
   -0.2354    0.2811    0.4535 H   0  0  0  0  0  0  0  0  0  0  0  0
   -1.1779    0.8355    0.0809 O   0  0  0  0  0  1  0  0  0  0  0  0
   -0.7174    2.1836    0.0639 O   0  0  0  0  0  0  0  0  0  0  0  0
   -1.1418    2.5161   -0.7336 H   0  0  0  0  0  0  0  0  0  0  0  0
  1  2  1  0
  1  4  1  0
  1  5  1  0
  1  6  1  0
  2  3  1  0
  2  7  1  0
  2  8  1  0
  3  9  1  0
 10 11  1  0
 11 12  1  0
M  RAD  1  10   2
M  END
>  <reaction>  (15) 
rxn_230

>  <mol_properties>  (15) 
{"1": {"label": "*4", "atom_type": "Cs"}, "2": {"label": "*3", "atom_type": "O2s"}, "8": {"label": "*2", "atom_type": "H0"}, "9": {"label": "*1", "atom_type": "O2s"}, "10": {"label": "*0", "atom_type": "O2s"}}

>  <type>  (15) 
unop_11

>  <geom_source>  (15) 
Heuristics

$$$$

     RDKit          3D

 12 10  0  0  0  0  0  0  0  0999 V2000
    0.9374   -1.0623   -1.0879 C   0  0  0  0  0  0  0  0  0  0  0  0
    0.9374   -1.0623    0.4297 C   0  0  0  0  0  0  0  0  0  0  0  0
    0.9374    0.2408    0.9790 O   0  0  0  0  0  0  0  0  0  0  0  0
    1.7935   -0.5048   -1.4702 H   0  0  0  0  0  0  0  0  0  0  0  0
    0.9859   -2.0829   -1.4731 H   0  0  0  0  0  0  0  0  0  0  0  0
    0.0260   -0.6022   -1.4790 H   0  0  0  0  0  0  0  0  0  0  0  0
    1.8439   -1.5380    0.8065 H   0  0  0  0  0  0  0  0  0  0  0  0
    0.0852   -1.6421    0.8069 H   0  0  0  0  0  0  0  0  0  0  0  0
   -0.0009    0.7928    0.6081 H   0  0  0  0  0  0  0  0  0  0  0  0
   -0.9433    1.3473    0.2356 O   0  0  0  0  0  1  0  0  0  0  0  0
   -1.5503    0.3465   -0.5767 O   0  0  0  0  0  0  0  0  0  0  0  0
   -2.3591    0.1715   -0.0848 H   0  0  0  0  0  0  0  0  0  0  0  0
  1  2  1  0
  1  4  1  0
  1  5  1  0
  1  6  1  0
  2  3  1  0
  2  7  1  0
  2  8  1  0
  3  9  1  0
 10 11  1  0
 11 12  1  0
M  RAD  1  10   2
M  END
>  <reaction>  (16) 
rxn_230

>  <mol_properties>  (16) 
{"1": {"label": "*4", "atom_type": "Cs"}, "2": {"label": "*3", "atom_type": "O2s"}, "8": {"label": "*2", "atom_type": "H0"}, "9": {"label": "*1", "atom_type": "O2s"}, "10": {"label": "*0", "atom_type": "O2s"}}

>  <type>  (16) 
unop_12

>  <geom_source>  (16) 
Heuristics

$$$$

     RDKit          3D

 12 10  0  0  0  0  0  0  0  0999 V2000
    2.6760   -0.4402    0.5168 O   0  0  0  0  0  0  0  0  0  0  0  0
    2.2652   -0.8722   -0.6568 O   0  0  0  0  0  1  0  0  0  0  0  0
    0.0855   -0.6467   -0.9827 O   0  0  0  0  0  0  0  0  0  0  0  0
   -0.6401    0.4558   -0.5305 C   0  0  0  0  0  0  0  0  0  0  0  0
   -1.5524    0.0401    0.6128 C   0  0  0  0  0  0  0  0  0  0  0  0
   -1.2478    0.8619   -1.3664 H   0  0  0  0  0  0  0  0  0  0  0  0
    0.0647    1.2398   -0.1817 H   0  0  0  0  0  0  0  0  0  0  0  0
   -2.1285    0.9194    0.9705 H   0  0  0  0  0  0  0  0  0  0  0  0
   -2.2634   -0.7403    0.2676 H   0  0  0  0  0  0  0  0  0  0  0  0
   -0.9488   -0.3618    1.4542 H   0  0  0  0  0  0  0  0  0  0  0  0
    2.7063    0.5455    0.4237 H   0  0  0  0  0  0  0  0  0  0  0  0
    0.9833   -1.0012   -0.5275 H   0  0  0  0  0  0  0  0  0  0  0  0
  1  2  1  0
  1 11  1  0
  3  4  1  0
  3 12  1  0
  4  5  1  0
  4  6  1  0
  4  7  1  0
  5  8  1  0
  5  9  1  0
  5 10  1  0
M  RAD  1   2   2
M  END
>  <reaction>  (17) 
rxn_230

>  <mol_properties>  (17) 
{"1": {"label": "*4", "atom_type": "Cs"}, "2": {"label": "*3", "atom_type": "O2s"}, "8": {"label": "*2", "atom_type": "H0"}, "9": {"label": "*1", "atom_type": "O2s"}, "10": {"label": "*0", "atom_type": "O2s"}}

>  <type>  (17) 
unop_13

>  <geom_source>  (17) 
AutoTST

$$$$
