
     RDKit          3D

 10  9  0  0  0  0  0  0  0  0999 V2000
   -1.1508    0.0666    0.2839 C   0  0  0  0  0  0  0  0  0  0  0  0
    0.1022   -0.3749   -0.4771 C   0  0  0  0  0  0  0  0  0  0  0  0
    1.3428    0.1620    0.1542 C   0  0  0  0  0  0  0  0  0  0  0  0
    2.5613   -0.6971    0.7526 S   0  0  0  0  0  0  0  0  0  0  0  0
   -1.2137    1.1546    0.3481 H   0  0  0  0  0  0  0  0  0  0  0  0
   -2.0472   -0.2935   -0.2212 H   0  0  0  0  0  0  0  0  0  0  0  0
   -1.1467   -0.3334    1.2987 H   0  0  0  0  0  0  0  0  0  0  0  0
    0.1602   -1.4616   -0.5369 H   0  0  0  0  0  0  0  0  0  0  0  0
    0.0536    0.0174   -1.4997 H   0  0  0  0  0  0  0  0  0  0  0  0
    1.3824    1.2528    0.2110 H   0  0  0  0  0  0  0  0  0  0  0  0
  1  2  1  0
  1  5  1  0
  1  6  1  0
  1  7  1  0
  2  3  1  0
  2  8  1  0
  2  9  1  0
  3  4  2  0
  3 10  1  0
M  END
>  <reaction>  (1) 
rxn_2018

>  <mol_properties>  (1) 
{"1": {"label": "donator", "atom_type": "Cs"}, "7": {"label": "d_hydrogen", "atom_type": "H0"}}

>  <type>  (1) 
r1h

$$$$

     RDKit          3D

  5  4  0  0  0  0  0  0  0  0999 V2000
   -0.5642    0.0794    0.0348 C   0  0  0  0  0  3  0  0  0  0  0  0
    1.0624    0.5420    0.2853 S   0  0  0  0  0  0  0  0  0  0  0  0
   -1.3257    0.7631    0.3741 H   0  0  0  0  0  0  0  0  0  0  0  0
   -0.8236   -0.8519   -0.4401 H   0  0  0  0  0  0  0  0  0  0  0  0
    1.6511   -0.5325   -0.2540 H   0  0  0  0  0  0  0  0  0  0  0  0
  1  2  1  0
  1  3  1  0
  1  4  1  0
  2  5  1  0
M  RAD  1   1   2
M  END
>  <reaction>  (2) 
rxn_2018

>  <mol_properties>  (2) 
{"0": {"label": "acceptor", "atom_type": "Cs"}}

>  <type>  (2) 
r2

$$$$

     RDKit          3D

  6  5  0  0  0  0  0  0  0  0999 V2000
   -0.5072   -0.0291   -0.0097 C   0  0  0  0  0  0  0  0  0  0  0  0
    1.1321   -0.1527   -0.7687 S   0  0  0  0  0  0  0  0  0  0  0  0
   -0.6174   -0.7330    0.8127 H   0  0  0  0  0  0  0  0  0  0  0  0
   -0.5863    0.9827    0.3845 H   0  0  0  0  0  0  0  0  0  0  0  0
   -1.2962   -0.1800   -0.7434 H   0  0  0  0  0  0  0  0  0  0  0  0
    1.0312   -1.4237   -1.1764 H   0  0  0  0  0  0  0  0  0  0  0  0
  1  2  1  0
  1  3  1  0
  1  4  1  0
  1  5  1  0
  2  6  1  0
M  END
>  <reaction>  (3) 
rxn_2018

>  <mol_properties>  (3) 
{"0": {"label": "acceptor", "atom_type": "Cs"}, "5": {"label": "a_hydrogen", "atom_type": "H0"}}

>  <type>  (3) 
r2h

$$$$

     RDKit          3D

 15 13  0  0  0  0  0  0  0  0999 V2000
   -0.5157   -1.5012    0.6216 C   0  0  0  0  0  3  0  0  0  0  0  0
   -1.8929   -1.1900   -0.3981 S   0  0  0  0  0  0  0  0  0  0  0  0
   -0.1436   -2.5135    0.5021 H   0  0  0  0  0  0  0  0  0  0  0  0
   -0.5867   -1.1650    1.6512 H   0  0  0  0  0  0  0  0  0  0  0  0
   -2.1556    0.0496    0.0380 H   0  0  0  0  0  0  0  0  0  0  0  0
    1.3870   -0.2108   -1.8296 C   0  0  0  0  0  0  0  0  0  0  0  0
    1.4790    0.0934   -0.3555 C   0  0  0  0  0  0  0  0  0  0  0  0
    1.0901    1.3978    0.1350 C   0  0  0  0  0  0  0  0  0  0  0  0
    0.1480    2.4902   -0.6232 S   0  0  0  0  0  0  0  0  0  0  0  0
    2.0835    0.4108   -2.3964 H   0  0  0  0  0  0  0  0  0  0  0  0
    1.6270   -1.2579   -2.0187 H   0  0  0  0  0  0  0  0  0  0  0  0
    0.3849   -0.0085   -2.2076 H   0  0  0  0  0  0  0  0  0  0  0  0
    0.5990   -0.6530    0.1688 H   0  0  0  0  0  0  0  0  0  0  0  0
    2.3842   -0.2789    0.1266 H   0  0  0  0  0  0  0  0  0  0  0  0
    1.4280    1.6205    1.1483 H   0  0  0  0  0  0  0  0  0  0  0  0
  1  2  1  0
  1  3  1  0
  1  4  1  0
  2  5  1  0
  6  7  1  0
  6 10  1  0
  6 11  1  0
  6 12  1  0
  7  8  1  0
  7 13  1  0
  7 14  1  0
  8  9  2  0
  8 15  1  0
M  RAD  1   1   2
M  END
>  <reaction>  (4) 
rxn_2018

>  <mol_properties>  (4) 
{"0": {"label": "*3", "atom_type": "Cs"}, "1": {"label": "*4", "atom_type": "S2s"}, "6": {"label": "*1", "atom_type": "Cs"}, "7": {"label": "*0", "atom_type": "CS"}, "12": {"label": "*2", "atom_type": "H0"}}

>  <type>  (4) 
ts

$$$$

     RDKit          3D

 15 13  0  0  0  0  0  0  0  0999 V2000
   -1.0998   -1.1080    0.0407 C   0  0  0  0  0  0  0  0  0  0  0  0
   -0.5755   -2.5065    1.0643 S   0  0  0  0  0  0  0  0  0  0  0  0
   -0.9941   -0.2188    0.6602 H   0  0  0  0  0  0  0  0  0  0  0  0
   -2.1420   -1.2032   -0.2570 H   0  0  0  0  0  0  0  0  0  0  0  0
   -0.7744   -3.4648    0.1511 H   0  0  0  0  0  0  0  0  0  0  0  0
    0.9537    0.2096   -2.4268 C   0  0  0  0  0  0  0  0  0  0  0  0
    0.9537    0.2096   -0.8958 C   0  0  0  0  0  0  0  0  0  0  0  0
    0.9537    1.5978   -0.3491 C   0  0  0  0  0  0  0  0  0  0  0  0
   -0.1658    2.2535    0.5985 S   0  0  0  0  0  1  0  0  0  0  0  0
    1.8089    0.7598   -2.8239 H   0  0  0  0  0  0  0  0  0  0  0  0
    1.0045   -0.8113   -2.8055 H   0  0  0  0  0  0  0  0  0  0  0  0
    0.0442    0.6720   -2.8125 H   0  0  0  0  0  0  0  0  0  0  0  0
   -0.0740   -0.4497   -0.4271 H   0  0  0  0  0  0  0  0  0  0  0  0
    1.8641   -0.2871   -0.5403 H   0  0  0  0  0  0  0  0  0  0  0  0
    1.8092    2.2031   -0.6594 H   0  0  0  0  0  0  0  0  0  0  0  0
  1  2  1  0
  1  3  1  0
  1  4  1  0
  1 13  1  0
  2  5  1  0
  6  7  1  0
  6 10  1  0
  6 11  1  0
  6 12  1  0
  7  8  2  3
  7 14  1  0
  8  9  1  0
  8 15  1  0
M  RAD  1   9   2
M  END
>  <reaction>  (5) 
rxn_2018

>  <mol_properties>  (5) 
{"0": {"label": "*3", "atom_type": "Cs"}, "1": {"label": "*4", "atom_type": "S2s"}, "6": {"label": "*1", "atom_type": "Cs"}, "7": {"label": "*0", "atom_type": "CS"}, "12": {"label": "*2", "atom_type": "H0"}}

>  <type>  (5) 
unop_1

>  <geom_source>  (5) 
Heuristics

$$$$

     RDKit          3D

 15 13  0  0  0  0  0  0  0  0999 V2000
   -0.8212   -1.1359    0.6187 C   0  0  0  0  0  0  0  0  0  0  0  0
   -1.3248   -2.4607   -0.5081 S   0  0  0  0  0  0  0  0  0  0  0  0
   -0.2352   -1.6092    1.4048 H   0  0  0  0  0  0  0  0  0  0  0  0
   -1.6837   -0.6509    1.0710 H   0  0  0  0  0  0  0  0  0  0  0  0
   -2.0078   -1.6963   -1.3690 H   0  0  0  0  0  0  0  0  0  0  0  0
    1.2324    0.1817   -1.8489 C   0  0  0  0  0  0  0  0  0  0  0  0
    1.2324    0.1817   -0.3178 C   0  0  0  0  0  0  0  0  0  0  0  0
    1.2324    1.5699    0.2289 C   0  0  0  0  0  0  0  0  0  0  0  0
    0.1128    2.2256    1.1764 S   0  0  0  0  0  1  0  0  0  0  0  0
    2.0876    0.7319   -2.2460 H   0  0  0  0  0  0  0  0  0  0  0  0
    1.2832   -0.8392   -2.2275 H   0  0  0  0  0  0  0  0  0  0  0  0
    0.3229    0.6441   -2.2345 H   0  0  0  0  0  0  0  0  0  0  0  0
    0.2047   -0.4777    0.1508 H   0  0  0  0  0  0  0  0  0  0  0  0
    2.1427   -0.3150    0.0376 H   0  0  0  0  0  0  0  0  0  0  0  0
    2.0878    2.1752   -0.0815 H   0  0  0  0  0  0  0  0  0  0  0  0
  1  2  1  0
  1  3  1  0
  1  4  1  0
  1 13  1  0
  2  5  1  0
  6  7  1  0
  6 10  1  0
  6 11  1  0
  6 12  1  0
  7  8  2  3
  7 14  1  0
  8  9  1  0
  8 15  1  0
M  RAD  1   9   2
M  END
>  <reaction>  (6) 
rxn_2018

>  <mol_properties>  (6) 
{"0": {"label": "*3", "atom_type": "Cs"}, "1": {"label": "*4", "atom_type": "S2s"}, "6": {"label": "*1", "atom_type": "Cs"}, "7": {"label": "*0", "atom_type": "CS"}, "12": {"label": "*2", "atom_type": "H0"}}

>  <type>  (6) 
unop_2

>  <geom_source>  (6) 
Heuristics

$$$$

     RDKit          3D

 15 13  0  0  0  0  0  0  0  0999 V2000
   -1.0633   -1.2773   -0.1146 C   0  0  0  0  0  0  0  0  0  0  0  0
   -0.6861   -2.0370    1.4851 S   0  0  0  0  0  0  0  0  0  0  0  0
   -1.4442   -0.2806    0.1022 H   0  0  0  0  0  0  0  0  0  0  0  0
   -1.8305   -1.8352   -0.6474 H   0  0  0  0  0  0  0  0  0  0  0  0
   -0.2483   -3.2105    1.0129 H   0  0  0  0  0  0  0  0  0  0  0  0
    0.9903    0.0403   -2.5822 C   0  0  0  0  0  0  0  0  0  0  0  0
    0.9903    0.0403   -1.0512 C   0  0  0  0  0  0  0  0  0  0  0  0
    0.9903    1.4285   -0.5045 C   0  0  0  0  0  0  0  0  0  0  0  0
   -0.1293    2.0842    0.4431 S   0  0  0  0  0  1  0  0  0  0  0  0
    1.8455    0.5904   -2.9793 H   0  0  0  0  0  0  0  0  0  0  0  0
    1.0411   -0.9806   -2.9609 H   0  0  0  0  0  0  0  0  0  0  0  0
    0.0808    0.5027   -2.9679 H   0  0  0  0  0  0  0  0  0  0  0  0
   -0.0374   -0.6191   -0.5825 H   0  0  0  0  0  0  0  0  0  0  0  0
    1.9006   -0.4564   -0.6957 H   0  0  0  0  0  0  0  0  0  0  0  0
    1.8457    2.0337   -0.8148 H   0  0  0  0  0  0  0  0  0  0  0  0
  1  2  1  0
  1  3  1  0
  1  4  1  0
  1 13  1  0
  2  5  1  0
  6  7  1  0
  6 10  1  0
  6 11  1  0
  6 12  1  0
  7  8  2  3
  7 14  1  0
  8  9  1  0
  8 15  1  0
M  RAD  1   9   2
M  END
>  <reaction>  (7) 
rxn_2018

>  <mol_properties>  (7) 
{"0": {"label": "*3", "atom_type": "Cs"}, "1": {"label": "*4", "atom_type": "S2s"}, "6": {"label": "*1", "atom_type": "Cs"}, "7": {"label": "*0", "atom_type": "CS"}, "12": {"label": "*2", "atom_type": "H0"}}

>  <type>  (7) 
unop_3

>  <geom_source>  (7) 
Heuristics

$$$$

     RDKit          3D

 15 13  0  0  0  0  0  0  0  0999 V2000
   -0.5456   -1.6954    0.4566 C   0  0  0  0  0  0  0  0  0  0  0  0
   -2.1069   -0.9622   -0.0941 S   0  0  0  0  0  0  0  0  0  0  0  0
   -0.7354   -2.7600    0.5831 H   0  0  0  0  0  0  0  0  0  0  0  0
   -0.2285   -1.2820    1.4118 H   0  0  0  0  0  0  0  0  0  0  0  0
   -1.6737    0.3010   -0.1872 H   0  0  0  0  0  0  0  0  0  0  0  0
    1.5080   -0.3778   -2.0110 C   0  0  0  0  0  0  0  0  0  0  0  0
    1.5080   -0.3778   -0.4799 C   0  0  0  0  0  0  0  0  0  0  0  0
    1.5080    1.0104    0.0668 C   0  0  0  0  0  0  0  0  0  0  0  0
    0.3884    1.6661    1.0143 S   0  0  0  0  0  1  0  0  0  0  0  0
    2.3632    0.1724   -2.4081 H   0  0  0  0  0  0  0  0  0  0  0  0
    1.5588   -1.3987   -2.3897 H   0  0  0  0  0  0  0  0  0  0  0  0
    0.5985    0.0846   -2.3966 H   0  0  0  0  0  0  0  0  0  0  0  0
    0.4803   -1.0372   -0.0113 H   0  0  0  0  0  0  0  0  0  0  0  0
    2.4183   -0.8745   -0.1245 H   0  0  0  0  0  0  0  0  0  0  0  0
    2.3634    1.6157   -0.2436 H   0  0  0  0  0  0  0  0  0  0  0  0
  1  2  1  0
  1  3  1  0
  1  4  1  0
  1 13  1  0
  2  5  1  0
  6  7  1  0
  6 10  1  0
  6 11  1  0
  6 12  1  0
  7  8  2  3
  7 14  1  0
  8  9  1  0
  8 15  1  0
M  RAD  1   9   2
M  END
>  <reaction>  (8) 
rxn_2018

>  <mol_properties>  (8) 
{"0": {"label": "*3", "atom_type": "Cs"}, "1": {"label": "*4", "atom_type": "S2s"}, "6": {"label": "*1", "atom_type": "Cs"}, "7": {"label": "*0", "atom_type": "CS"}, "12": {"label": "*2", "atom_type": "H0"}}

>  <type>  (8) 
unop_4

>  <geom_source>  (8) 
Heuristics

$$$$

     RDKit          3D

 15 13  0  0  0  0  0  0  0  0999 V2000
   -0.9657   -1.4792   -0.1742 C   0  0  0  0  0  0  0  0  0  0  0  0
   -0.9756   -1.4855    1.6364 S   0  0  0  0  0  0  0  0  0  0  0  0
   -1.8771   -0.9700   -0.4834 H   0  0  0  0  0  0  0  0  0  0  0  0
   -0.9788   -2.4908   -0.5743 H   0  0  0  0  0  0  0  0  0  0  0  0
    0.1842   -2.1319    1.8069 H   0  0  0  0  0  0  0  0  0  0  0  0
    1.0879   -0.1616   -2.6418 C   0  0  0  0  0  0  0  0  0  0  0  0
    1.0879   -0.1616   -1.1107 C   0  0  0  0  0  0  0  0  0  0  0  0
    1.0879    1.2266   -0.5640 C   0  0  0  0  0  0  0  0  0  0  0  0
   -0.0316    1.8823    0.3835 S   0  0  0  0  0  1  0  0  0  0  0  0
    1.9431    0.3886   -3.0389 H   0  0  0  0  0  0  0  0  0  0  0  0
    1.1387   -1.1825   -3.0204 H   0  0  0  0  0  0  0  0  0  0  0  0
    0.1784    0.3008   -3.0274 H   0  0  0  0  0  0  0  0  0  0  0  0
    0.0602   -0.8209   -0.6421 H   0  0  0  0  0  0  0  0  0  0  0  0
    1.9983   -0.6583   -0.7553 H   0  0  0  0  0  0  0  0  0  0  0  0
    1.9434    1.8319   -0.8744 H   0  0  0  0  0  0  0  0  0  0  0  0
  1  2  1  0
  1  3  1  0
  1  4  1  0
  1 13  1  0
  2  5  1  0
  6  7  1  0
  6 10  1  0
  6 11  1  0
  6 12  1  0
  7  8  2  3
  7 14  1  0
  8  9  1  0
  8 15  1  0
M  RAD  1   9   2
M  END
>  <reaction>  (9) 
rxn_2018

>  <mol_properties>  (9) 
{"0": {"label": "*3", "atom_type": "Cs"}, "1": {"label": "*4", "atom_type": "S2s"}, "6": {"label": "*1", "atom_type": "Cs"}, "7": {"label": "*0", "atom_type": "CS"}, "12": {"label": "*2", "atom_type": "H0"}}

>  <type>  (9) 
unop_5

>  <geom_source>  (9) 
Heuristics

$$$$

     RDKit          3D

 15 13  0  0  0  0  0  0  0  0999 V2000
   -0.5849   -1.7880    0.2432 C   0  0  0  0  0  0  0  0  0  0  0  0
   -2.0139   -0.7016    0.4797 S   0  0  0  0  0  0  0  0  0  0  0  0
   -0.9802   -2.7987    0.1550 H   0  0  0  0  0  0  0  0  0  0  0  0
    0.0875   -1.7503    1.0977 H   0  0  0  0  0  0  0  0  0  0  0  0
   -1.3358    0.4496    0.5628 H   0  0  0  0  0  0  0  0  0  0  0  0
    1.4686   -0.4705   -2.2243 C   0  0  0  0  0  0  0  0  0  0  0  0
    1.4686   -0.4705   -0.6933 C   0  0  0  0  0  0  0  0  0  0  0  0
    1.4686    0.9177   -0.1466 C   0  0  0  0  0  0  0  0  0  0  0  0
    0.3491    1.5734    0.8010 S   0  0  0  0  0  1  0  0  0  0  0  0
    2.3238    0.0797   -2.6214 H   0  0  0  0  0  0  0  0  0  0  0  0
    1.5195   -1.4914   -2.6030 H   0  0  0  0  0  0  0  0  0  0  0  0
    0.5591   -0.0081   -2.6100 H   0  0  0  0  0  0  0  0  0  0  0  0
    0.4410   -1.1298   -0.2246 H   0  0  0  0  0  0  0  0  0  0  0  0
    2.3790   -0.9672   -0.3378 H   0  0  0  0  0  0  0  0  0  0  0  0
    2.3241    1.5230   -0.4569 H   0  0  0  0  0  0  0  0  0  0  0  0
  1  2  1  0
  1  3  1  0
  1  4  1  0
  1 13  1  0
  2  5  1  0
  6  7  1  0
  6 10  1  0
  6 11  1  0
  6 12  1  0
  7  8  2  3
  7 14  1  0
  8  9  1  0
  8 15  1  0
M  RAD  1   9   2
M  END
>  <reaction>  (10) 
rxn_2018

>  <mol_properties>  (10) 
{"0": {"label": "*3", "atom_type": "Cs"}, "1": {"label": "*4", "atom_type": "S2s"}, "6": {"label": "*1", "atom_type": "Cs"}, "7": {"label": "*0", "atom_type": "CS"}, "12": {"label": "*2", "atom_type": "H0"}}

>  <type>  (10) 
unop_6

>  <geom_source>  (10) 
Heuristics

$$$$

     RDKit          3D

 15 13  0  0  0  0  0  0  0  0999 V2000
   -0.6889   -1.7767    0.0314 C   0  0  0  0  0  0  0  0  0  0  0  0
   -1.7417   -0.7172    1.0549 S   0  0  0  0  0  0  0  0  0  0  0  0
   -1.3152   -2.6046   -0.2969 H   0  0  0  0  0  0  0  0  0  0  0  0
    0.1461   -2.1766    0.6028 H   0  0  0  0  0  0  0  0  0  0  0  0
   -0.8163    0.2051    1.3463 H   0  0  0  0  0  0  0  0  0  0  0  0
    1.3646   -0.4591   -2.4362 C   0  0  0  0  0  0  0  0  0  0  0  0
    1.3646   -0.4591   -0.9051 C   0  0  0  0  0  0  0  0  0  0  0  0
    1.3646    0.9291   -0.3585 C   0  0  0  0  0  0  0  0  0  0  0  0
    0.2451    1.5848    0.5891 S   0  0  0  0  0  1  0  0  0  0  0  0
    2.2198    0.0911   -2.8333 H   0  0  0  0  0  0  0  0  0  0  0  0
    1.4154   -1.4800   -2.8149 H   0  0  0  0  0  0  0  0  0  0  0  0
    0.4551    0.0033   -2.8219 H   0  0  0  0  0  0  0  0  0  0  0  0
    0.3370   -1.1184   -0.4365 H   0  0  0  0  0  0  0  0  0  0  0  0
    2.2750   -0.9558   -0.5497 H   0  0  0  0  0  0  0  0  0  0  0  0
    2.2201    1.5344   -0.6688 H   0  0  0  0  0  0  0  0  0  0  0  0
  1  2  1  0
  1  3  1  0
  1  4  1  0
  1 13  1  0
  2  5  1  0
  6  7  1  0
  6 10  1  0
  6 11  1  0
  6 12  1  0
  7  8  2  3
  7 14  1  0
  8  9  1  0
  8 15  1  0
M  RAD  1   9   2
M  END
>  <reaction>  (11) 
rxn_2018

>  <mol_properties>  (11) 
{"0": {"label": "*3", "atom_type": "Cs"}, "1": {"label": "*4", "atom_type": "S2s"}, "6": {"label": "*1", "atom_type": "Cs"}, "7": {"label": "*0", "atom_type": "CS"}, "12": {"label": "*2", "atom_type": "H0"}}

>  <type>  (11) 
unop_7

>  <geom_source>  (11) 
Heuristics

$$$$

     RDKit          3D

 15 13  0  0  0  0  0  0  0  0999 V2000
   -1.0629   -1.0151    0.2525 C   0  0  0  0  0  0  0  0  0  0  0  0
   -0.6708   -2.7668    0.4890 S   0  0  0  0  0  0  0  0  0  0  0  0
   -0.6314   -0.4876    1.1017 H   0  0  0  0  0  0  0  0  0  0  0  0
   -2.1378   -0.8465    0.2473 H   0  0  0  0  0  0  0  0  0  0  0  0
   -1.2676   -3.2220   -0.6195 H   0  0  0  0  0  0  0  0  0  0  0  0
    0.9906    0.3025   -2.2151 C   0  0  0  0  0  0  0  0  0  0  0  0
    0.9906    0.3025   -0.6840 C   0  0  0  0  0  0  0  0  0  0  0  0
    0.9906    1.6907   -0.1373 C   0  0  0  0  0  0  0  0  0  0  0  0
   -0.1289    2.3464    0.8102 S   0  0  0  0  0  1  0  0  0  0  0  0
    1.8458    0.8527   -2.6122 H   0  0  0  0  0  0  0  0  0  0  0  0
    1.0415   -0.7184   -2.5937 H   0  0  0  0  0  0  0  0  0  0  0  0
    0.0811    0.7649   -2.6007 H   0  0  0  0  0  0  0  0  0  0  0  0
   -0.0370   -0.3568   -0.2153 H   0  0  0  0  0  0  0  0  0  0  0  0
    1.9010   -0.1942   -0.3286 H   0  0  0  0  0  0  0  0  0  0  0  0
    1.8461    2.2960   -0.4476 H   0  0  0  0  0  0  0  0  0  0  0  0
  1  2  1  0
  1  3  1  0
  1  4  1  0
  1 13  1  0
  2  5  1  0
  6  7  1  0
  6 10  1  0
  6 11  1  0
  6 12  1  0
  7  8  2  3
  7 14  1  0
  8  9  1  0
  8 15  1  0
M  RAD  1   9   2
M  END
>  <reaction>  (12) 
rxn_2018

>  <mol_properties>  (12) 
{"0": {"label": "*3", "atom_type": "Cs"}, "1": {"label": "*4", "atom_type": "S2s"}, "6": {"label": "*1", "atom_type": "Cs"}, "7": {"label": "*0", "atom_type": "CS"}, "12": {"label": "*2", "atom_type": "H0"}}

>  <type>  (12) 
unop_8

>  <geom_source>  (12) 
Heuristics

$$$$

     RDKit          3D

 15 13  0  0  0  0  0  0  0  0999 V2000
   -0.5811   -1.5237    0.6142 C   0  0  0  0  0  0  0  0  0  0  0  0
   -1.9952   -1.4293   -0.5127 S   0  0  0  0  0  0  0  0  0  0  0  0
   -0.5200   -2.5600    0.9423 H   0  0  0  0  0  0  0  0  0  0  0  0
   -0.7263   -0.8900    1.4865 H   0  0  0  0  0  0  0  0  0  0  0  0
   -1.8991   -0.1236   -0.7913 H   0  0  0  0  0  0  0  0  0  0  0  0
    1.4724   -0.2061   -1.8534 C   0  0  0  0  0  0  0  0  0  0  0  0
    1.4724   -0.2061   -0.3223 C   0  0  0  0  0  0  0  0  0  0  0  0
    1.4724    1.1821    0.2243 C   0  0  0  0  0  0  0  0  0  0  0  0
    0.3529    1.8378    1.1719 S   0  0  0  0  0  1  0  0  0  0  0  0
    2.3276    0.3441   -2.2505 H   0  0  0  0  0  0  0  0  0  0  0  0
    1.5233   -1.2270   -2.2321 H   0  0  0  0  0  0  0  0  0  0  0  0
    0.5630    0.2563   -2.2391 H   0  0  0  0  0  0  0  0  0  0  0  0
    0.4448   -0.8655    0.1463 H   0  0  0  0  0  0  0  0  0  0  0  0
    2.3828   -0.7028    0.0331 H   0  0  0  0  0  0  0  0  0  0  0  0
    2.3279    1.7873   -0.0860 H   0  0  0  0  0  0  0  0  0  0  0  0
  1  2  1  0
  1  3  1  0
  1  4  1  0
  1 13  1  0
  2  5  1  0
  6  7  1  0
  6 10  1  0
  6 11  1  0
  6 12  1  0
  7  8  2  3
  7 14  1  0
  8  9  1  0
  8 15  1  0
M  RAD  1   9   2
M  END
>  <reaction>  (13) 
rxn_2018

>  <mol_properties>  (13) 
{"0": {"label": "*3", "atom_type": "Cs"}, "1": {"label": "*4", "atom_type": "S2s"}, "6": {"label": "*1", "atom_type": "Cs"}, "7": {"label": "*0", "atom_type": "CS"}, "12": {"label": "*2", "atom_type": "H0"}}

>  <type>  (13) 
unop_9

>  <geom_source>  (13) 
Heuristics

$$$$

     RDKit          3D

 15 13  0  0  0  0  0  0  0  0999 V2000
   -0.9609   -1.0248    0.4643 C   0  0  0  0  0  0  0  0  0  0  0  0
   -0.9451   -2.7496   -0.0864 S   0  0  0  0  0  0  0  0  0  0  0  0
   -0.3548   -0.9866    1.3679 H   0  0  0  0  0  0  0  0  0  0  0  0
   -1.9691   -0.6953    0.7068 H   0  0  0  0  0  0  0  0  0  0  0  0
   -1.7176   -2.5863   -1.1673 H   0  0  0  0  0  0  0  0  0  0  0  0
    1.0926    0.2928   -2.0033 C   0  0  0  0  0  0  0  0  0  0  0  0
    1.0926    0.2928   -0.4722 C   0  0  0  0  0  0  0  0  0  0  0  0
    1.0926    1.6809    0.0745 C   0  0  0  0  0  0  0  0  0  0  0  0
   -0.0269    2.3366    1.0220 S   0  0  0  0  0  1  0  0  0  0  0  0
    1.9478    0.8429   -2.4004 H   0  0  0  0  0  0  0  0  0  0  0  0
    1.1435   -0.7281   -2.3820 H   0  0  0  0  0  0  0  0  0  0  0  0
    0.1831    0.7551   -2.3890 H   0  0  0  0  0  0  0  0  0  0  0  0
    0.0650   -0.3666   -0.0036 H   0  0  0  0  0  0  0  0  0  0  0  0
    2.0030   -0.2039   -0.1168 H   0  0  0  0  0  0  0  0  0  0  0  0
    1.9481    2.2862   -0.2359 H   0  0  0  0  0  0  0  0  0  0  0  0
  1  2  1  0
  1  3  1  0
  1  4  1  0
  1 13  1  0
  2  5  1  0
  6  7  1  0
  6 10  1  0
  6 11  1  0
  6 12  1  0
  7  8  2  3
  7 14  1  0
  8  9  1  0
  8 15  1  0
M  RAD  1   9   2
M  END
>  <reaction>  (14) 
rxn_2018

>  <mol_properties>  (14) 
{"0": {"label": "*3", "atom_type": "Cs"}, "1": {"label": "*4", "atom_type": "S2s"}, "6": {"label": "*1", "atom_type": "Cs"}, "7": {"label": "*0", "atom_type": "CS"}, "12": {"label": "*2", "atom_type": "H0"}}

>  <type>  (14) 
unop_10

>  <geom_source>  (14) 
Heuristics

$$$$

     RDKit          3D

 15 13  0  0  0  0  0  0  0  0999 V2000
   -0.8293   -1.6633   -0.1217 C   0  0  0  0  0  0  0  0  0  0  0  0
   -1.3627   -1.0039    1.4780 S   0  0  0  0  0  0  0  0  0  0  0  0
   -1.7290   -2.0188   -0.6214 H   0  0  0  0  0  0  0  0  0  0  0  0
   -0.1458   -2.5007    0.0026 H   0  0  0  0  0  0  0  0  0  0  0  0
   -0.1535   -0.6330    1.9165 H   0  0  0  0  0  0  0  0  0  0  0  0
    1.2242   -0.3458   -2.5893 C   0  0  0  0  0  0  0  0  0  0  0  0
    1.2242   -0.3458   -1.0582 C   0  0  0  0  0  0  0  0  0  0  0  0
    1.2242    1.0424   -0.5116 C   0  0  0  0  0  0  0  0  0  0  0  0
    0.1047    1.6981    0.4360 S   0  0  0  0  0  1  0  0  0  0  0  0
    2.0794    0.2044   -2.9864 H   0  0  0  0  0  0  0  0  0  0  0  0
    1.2751   -1.3667   -2.9680 H   0  0  0  0  0  0  0  0  0  0  0  0
    0.3147    0.1166   -2.9750 H   0  0  0  0  0  0  0  0  0  0  0  0
    0.1966   -1.0051   -0.5896 H   0  0  0  0  0  0  0  0  0  0  0  0
    2.1346   -0.8425   -0.7028 H   0  0  0  0  0  0  0  0  0  0  0  0
    2.0797    1.6477   -0.8219 H   0  0  0  0  0  0  0  0  0  0  0  0
  1  2  1  0
  1  3  1  0
  1  4  1  0
  1 13  1  0
  2  5  1  0
  6  7  1  0
  6 10  1  0
  6 11  1  0
  6 12  1  0
  7  8  2  3
  7 14  1  0
  8  9  1  0
  8 15  1  0
M  RAD  1   9   2
M  END
>  <reaction>  (15) 
rxn_2018

>  <mol_properties>  (15) 
{"0": {"label": "*3", "atom_type": "Cs"}, "1": {"label": "*4", "atom_type": "S2s"}, "6": {"label": "*1", "atom_type": "Cs"}, "7": {"label": "*0", "atom_type": "CS"}, "12": {"label": "*2", "atom_type": "H0"}}

>  <type>  (15) 
unop_11

>  <geom_source>  (15) 
Heuristics

$$$$

     RDKit          3D

 15 13  0  0  0  0  0  0  0  0999 V2000
   -0.6819   -1.3188    0.6736 C   0  0  0  0  0  0  0  0  0  0  0  0
   -1.7089   -1.9777   -0.6641 S   0  0  0  0  0  0  0  0  0  0  0  0
   -0.3185   -2.1795    1.2327 H   0  0  0  0  0  0  0  0  0  0  0  0
   -1.2612   -0.6872    1.3439 H   0  0  0  0  0  0  0  0  0  0  0  0
   -2.0447   -0.8027   -1.2103 H   0  0  0  0  0  0  0  0  0  0  0  0
    1.3716   -0.0012   -1.7940 C   0  0  0  0  0  0  0  0  0  0  0  0
    1.3716   -0.0012   -0.2629 C   0  0  0  0  0  0  0  0  0  0  0  0
    1.3716    1.3870    0.2838 C   0  0  0  0  0  0  0  0  0  0  0  0
    0.2521    2.0427    1.2313 S   0  0  0  0  0  1  0  0  0  0  0  0
    2.2268    0.5490   -2.1911 H   0  0  0  0  0  0  0  0  0  0  0  0
    1.4225   -1.0221   -2.1726 H   0  0  0  0  0  0  0  0  0  0  0  0
    0.4621    0.4612   -2.1796 H   0  0  0  0  0  0  0  0  0  0  0  0
    0.3440   -0.6605    0.2058 H   0  0  0  0  0  0  0  0  0  0  0  0
    2.2820   -0.4979    0.0925 H   0  0  0  0  0  0  0  0  0  0  0  0
    2.2271    1.9923   -0.0265 H   0  0  0  0  0  0  0  0  0  0  0  0
  1  2  1  0
  1  3  1  0
  1  4  1  0
  1 13  1  0
  2  5  1  0
  6  7  1  0
  6 10  1  0
  6 11  1  0
  6 12  1  0
  7  8  2  3
  7 14  1  0
  8  9  1  0
  8 15  1  0
M  RAD  1   9   2
M  END
>  <reaction>  (16) 
rxn_2018

>  <mol_properties>  (16) 
{"0": {"label": "*3", "atom_type": "Cs"}, "1": {"label": "*4", "atom_type": "S2s"}, "6": {"label": "*1", "atom_type": "Cs"}, "7": {"label": "*0", "atom_type": "CS"}, "12": {"label": "*2", "atom_type": "H0"}}

>  <type>  (16) 
unop_12

>  <geom_source>  (16) 
Heuristics

$$$$

     RDKit          3D

 15 13  0  0  0  0  0  0  0  0999 V2000
    2.8794   -0.8498   -0.6463 S   0  0  0  0  0  0  0  0  0  0  0  0
   -2.1416    2.0022   -0.1451 S   0  0  0  0  0  1  0  0  0  0  0  0
   -1.4379   -1.1912    0.0683 C   0  0  0  0  0  0  0  0  0  0  0  0
    1.7197    0.5175   -0.9260 C   0  0  0  0  0  0  0  0  0  0  0  0
   -0.5650    0.0441    0.2617 C   0  0  0  0  0  0  0  0  0  0  0  0
   -1.3635    1.2090    0.7638 C   0  0  0  0  0  0  0  0  0  0  0  0
   -2.2234   -0.9931   -0.6912 H   0  0  0  0  0  0  0  0  0  0  0  0
   -0.8082   -2.0331   -0.2874 H   0  0  0  0  0  0  0  0  0  0  0  0
   -1.9158   -1.4806    1.0287 H   0  0  0  0  0  0  0  0  0  0  0  0
    2.0067    1.3842   -0.2953 H   0  0  0  0  0  0  0  0  0  0  0  0
    1.7506    0.8141   -1.9946 H   0  0  0  0  0  0  0  0  0  0  0  0
    0.5217    0.1387   -0.6202 H   0  0  0  0  0  0  0  0  0  0  0  0
    0.2448   -0.1902    0.9856 H   0  0  0  0  0  0  0  0  0  0  0  0
   -1.2136    1.5619    1.7790 H   0  0  0  0  0  0  0  0  0  0  0  0
    2.5463   -0.9336    0.7189 H   0  0  0  0  0  0  0  0  0  0  0  0
  1  4  1  0
  1 15  1  0
  2  6  1  0
  3  5  1  0
  3  7  1  0
  3  8  1  0
  3  9  1  0
  4 10  1  0
  4 11  1  0
  4 12  1  0
  5  6  2  3
  5 13  1  0
  6 14  1  0
M  RAD  1   2   2
M  END
>  <reaction>  (17) 
rxn_2018

>  <mol_properties>  (17) 
{"0": {"label": "*3", "atom_type": "Cs"}, "1": {"label": "*4", "atom_type": "S2s"}, "6": {"label": "*1", "atom_type": "Cs"}, "7": {"label": "*0", "atom_type": "CS"}, "12": {"label": "*2", "atom_type": "H0"}}

>  <type>  (17) 
unop_13

>  <geom_source>  (17) 
AutoTST

$$$$
