
     RDKit          3D

 10  9  0  0  0  0  0  0  0  0999 V2000
    2.2738    0.0217   -0.0992 C   0  0  0  0  0  0  0  0  0  0  0  0
    1.1083    0.2960   -0.0695 C   0  0  0  0  0  0  0  0  0  0  0  0
   -0.3173    0.6046   -0.0227 C   0  0  0  0  0  0  0  0  0  0  0  0
   -1.1561   -0.5495    0.5292 C   0  0  0  0  0  0  0  0  0  0  0  0
    3.3097   -0.2166   -0.1277 H   0  0  0  0  0  0  0  0  0  0  0  0
   -0.6542    0.8617   -1.0302 H   0  0  0  0  0  0  0  0  0  0  0  0
   -0.4633    1.4978    0.5900 H   0  0  0  0  0  0  0  0  0  0  0  0
   -0.8485   -0.7997    1.5447 H   0  0  0  0  0  0  0  0  0  0  0  0
   -2.2115   -0.2752    0.5459 H   0  0  0  0  0  0  0  0  0  0  0  0
   -1.0409   -1.4407   -0.0879 H   0  0  0  0  0  0  0  0  0  0  0  0
  1  2  3  0
  1  5  1  0
  2  3  1  0
  3  4  1  0
  3  6  1  0
  3  7  1  0
  4  8  1  0
  4  9  1  0
  4 10  1  0
M  END
>  <reaction>  (1) 
rxn_1273

>  <mol_properties>  (1) 
{"2": {"label": "donator", "atom_type": "Cs"}, "5": {"label": "d_hydrogen", "atom_type": "H0"}}

>  <type>  (1) 
r1h

$$$$

     RDKit          3D

 20 20  0  0  0  0  0  0  0  0999 V2000
   -2.4774    0.8083    0.1488 C   0  0  0  0  0  0  0  0  0  0  0  0
   -1.4172   -0.1696   -0.2476 C   0  0  0  0  0  3  0  0  0  0  0  0
   -0.2904    0.2932   -1.1156 C   0  0  0  0  0  0  0  0  0  0  0  0
   -1.4797   -1.5204    0.1947 C   0  0  0  0  0  0  0  0  0  0  0  0
   -0.4907   -2.4664   -0.1650 C   0  0  0  0  0  0  0  0  0  0  0  0
   -0.5559   -3.7750    0.2665 C   0  0  0  0  0  0  0  0  0  0  0  0
   -1.6038   -4.2041    1.0733 C   0  0  0  0  0  0  0  0  0  0  0  0
   -2.5899   -3.2959    1.4424 C   0  0  0  0  0  0  0  0  0  0  0  0
   -2.5339   -1.9852    1.0162 C   0  0  0  0  0  0  0  0  0  0  0  0
   -3.4697    0.4933   -0.1924 H   0  0  0  0  0  0  0  0  0  0  0  0
   -2.5434    0.9184    1.2368 H   0  0  0  0  0  0  0  0  0  0  0  0
   -2.2829    1.7944   -0.2706 H   0  0  0  0  0  0  0  0  0  0  0  0
   -0.2452   -0.2661   -2.0565 H   0  0  0  0  0  0  0  0  0  0  0  0
   -0.3905    1.3487   -1.3647 H   0  0  0  0  0  0  0  0  0  0  0  0
    0.6811    0.1589   -0.6274 H   0  0  0  0  0  0  0  0  0  0  0  0
    0.3373   -2.1635   -0.7918 H   0  0  0  0  0  0  0  0  0  0  0  0
    0.2187   -4.4725   -0.0281 H   0  0  0  0  0  0  0  0  0  0  0  0
   -1.6513   -5.2316    1.4097 H   0  0  0  0  0  0  0  0  0  0  0  0
   -3.4116   -3.6175    2.0706 H   0  0  0  0  0  0  0  0  0  0  0  0
   -3.3164   -1.3029    1.3205 H   0  0  0  0  0  0  0  0  0  0  0  0
  1  2  1  0
  1 10  1  0
  1 11  1  0
  1 12  1  0
  2  3  1  0
  2  4  1  0
  3 13  1  0
  3 14  1  0
  3 15  1  0
  4  5  2  0
  4  9  1  0
  5  6  1  0
  5 16  1  0
  6  7  2  0
  6 17  1  0
  7  8  1  0
  7 18  1  0
  8  9  2  0
  8 19  1  0
  9 20  1  0
M  RAD  1   2   2
M  END
>  <reaction>  (2) 
rxn_1273

>  <mol_properties>  (2) 
{"1": {"label": "acceptor", "atom_type": "Cs"}}

>  <type>  (2) 
r2

$$$$

     RDKit          3D

 21 21  0  0  0  0  0  0  0  0999 V2000
   -1.3695    1.3367   -1.0719 C   0  0  0  0  0  0  0  0  0  0  0  0
   -1.4091   -0.0981   -0.5428 C   0  0  0  0  0  0  0  0  0  0  0  0
   -0.1819   -0.3999    0.3191 C   0  0  0  0  0  0  0  0  0  0  0  0
   -1.5636   -1.1028   -1.6652 C   0  0  0  0  0  0  0  0  0  0  0  0
   -0.5920   -1.2314   -2.6553 C   0  0  0  0  0  0  0  0  0  0  0  0
   -0.7353   -2.1509   -3.6809 C   0  0  0  0  0  0  0  0  0  0  0  0
   -1.8582   -2.9642   -3.7377 C   0  0  0  0  0  0  0  0  0  0  0  0
   -2.8325   -2.8475   -2.7602 C   0  0  0  0  0  0  0  0  0  0  0  0
   -2.6828   -1.9241   -1.7351 C   0  0  0  0  0  0  0  0  0  0  0  0
   -0.4920    1.4974   -1.7025 H   0  0  0  0  0  0  0  0  0  0  0  0
   -2.2553    1.5607   -1.6679 H   0  0  0  0  0  0  0  0  0  0  0  0
   -1.3211    2.0496   -0.2461 H   0  0  0  0  0  0  0  0  0  0  0  0
   -2.2930   -0.1918    0.0948 H   0  0  0  0  0  0  0  0  0  0  0  0
   -0.1215    0.2955    1.1588 H   0  0  0  0  0  0  0  0  0  0  0  0
   -0.2200   -1.4155    0.7159 H   0  0  0  0  0  0  0  0  0  0  0  0
    0.7383   -0.3016   -0.2615 H   0  0  0  0  0  0  0  0  0  0  0  0
    0.2915   -0.6040   -2.6263 H   0  0  0  0  0  0  0  0  0  0  0  0
    0.0326   -2.2338   -4.4401 H   0  0  0  0  0  0  0  0  0  0  0  0
   -1.9712   -3.6833   -4.5391 H   0  0  0  0  0  0  0  0  0  0  0  0
   -3.7135   -3.4765   -2.7932 H   0  0  0  0  0  0  0  0  0  0  0  0
   -3.4509   -1.8400   -0.9743 H   0  0  0  0  0  0  0  0  0  0  0  0
  1  2  1  0
  1 10  1  0
  1 11  1  0
  1 12  1  0
  2  3  1  0
  2  4  1  0
  2 13  1  0
  3 14  1  0
  3 15  1  0
  3 16  1  0
  4  5  2  0
  4  9  1  0
  5  6  1  0
  5 17  1  0
  6  7  2  0
  6 18  1  0
  7  8  1  0
  7 19  1  0
  8  9  2  0
  8 20  1  0
  9 21  1  0
M  END
>  <reaction>  (3) 
rxn_1273

>  <mol_properties>  (3) 
{"0": {"label": "a_hydrogen", "atom_type": "H0"}, "2": {"label": "acceptor", "atom_type": "Cs"}}

>  <type>  (3) 
r2h

$$$$

     RDKit          3D

 30 29  0  0  0  0  0  0  0  0999 V2000
   -3.3088   -1.0756   -1.3645 C   0  0  0  0  0  0  0  0  0  0  0  0
   -2.8798   -0.1286   -0.7566 C   0  0  0  0  0  0  0  0  0  0  0  0
   -2.3117    0.9487   -0.0226 C   0  0  0  0  0  3  0  0  0  0  0  0
   -1.5409    1.9916   -0.7996 C   0  0  0  0  0  0  0  0  0  0  0  0
   -3.7100   -1.8962   -1.9085 H   0  0  0  0  0  0  0  0  0  0  0  0
   -1.3514    0.3798    0.7599 H   0  0  0  0  0  0  0  0  0  0  0  0
   -2.9829    1.3533    0.7338 H   0  0  0  0  0  0  0  0  0  0  0  0
   -2.2041    2.5827   -1.4362 H   0  0  0  0  0  0  0  0  0  0  0  0
   -1.0300    2.6719   -0.1164 H   0  0  0  0  0  0  0  0  0  0  0  0
   -0.7894    1.5211   -1.4345 H   0  0  0  0  0  0  0  0  0  0  0  0
   -0.2691    0.8104    2.6604 C   0  0  0  0  0  0  0  0  0  0  0  0
   -0.3786   -0.1447    1.4957 C   0  0  0  0  0  0  0  0  0  0  0  0
   -0.9739   -1.4838    1.8753 C   0  0  0  0  0  0  0  0  0  0  0  0
    0.7593   -0.1823    0.5424 C   0  0  0  0  0  0  0  0  0  0  0  0
    0.6664   -0.9423   -0.6299 C   0  0  0  0  0  0  0  0  0  0  0  0
    1.6887   -0.9520   -1.5611 C   0  0  0  0  0  0  0  0  0  0  0  0
    2.8397   -0.2062   -1.3471 C   0  0  0  0  0  0  0  0  0  0  0  0
    2.9493    0.5522   -0.1931 C   0  0  0  0  0  0  0  0  0  0  0  0
    1.9207    0.5685    0.7364 C   0  0  0  0  0  0  0  0  0  0  0  0
   -0.0226    1.8232    2.3373 H   0  0  0  0  0  0  0  0  0  0  0  0
   -1.2162    0.8518    3.2010 H   0  0  0  0  0  0  0  0  0  0  0  0
    0.4992    0.4887    3.3719 H   0  0  0  0  0  0  0  0  0  0  0  0
   -0.2837   -2.0403    2.5180 H   0  0  0  0  0  0  0  0  0  0  0  0
   -1.9073   -1.3451    2.4245 H   0  0  0  0  0  0  0  0  0  0  0  0
   -1.1926   -2.1011    1.0052 H   0  0  0  0  0  0  0  0  0  0  0  0
   -0.2344   -1.5092   -0.8292 H   0  0  0  0  0  0  0  0  0  0  0  0
    1.5845   -1.5422   -2.4631 H   0  0  0  0  0  0  0  0  0  0  0  0
    3.6412   -0.2153   -2.0746 H   0  0  0  0  0  0  0  0  0  0  0  0
    3.8422    1.1378   -0.0118 H   0  0  0  0  0  0  0  0  0  0  0  0
    2.0343    1.1683    1.6296 H   0  0  0  0  0  0  0  0  0  0  0  0
  1  2  3  0
  1  5  1  0
  2  3  1  0
  3  4  1  0
  3  7  1  0
  4  8  1  0
  4  9  1  0
  4 10  1  0
  6 12  1  0
 11 12  1  0
 11 20  1  0
 11 21  1  0
 11 22  1  0
 12 13  1  0
 12 14  1  0
 13 23  1  0
 13 24  1  0
 13 25  1  0
 14 15  2  0
 14 19  1  0
 15 16  1  0
 15 26  1  0
 16 17  2  0
 16 27  1  0
 17 18  1  0
 17 28  1  0
 18 19  2  0
 18 29  1  0
 19 30  1  0
M  RAD  1   3   2
M  END
>  <reaction>  (4) 
rxn_1273

>  <mol_properties>  (4) 
{"1": {"label": "*4", "atom_type": "Ct"}, "2": {"label": "*3", "atom_type": "Cs"}, "5": {"label": "*2", "atom_type": "H0"}, "11": {"label": "*1", "atom_type": "Cs"}, "13": {"label": "*0", "atom_type": "Cd"}}

>  <type>  (4) 
ts

$$$$

     RDKit          3D

 30 29  0  0  0  0  0  0  0  0999 V2000
   -2.1413    1.6947   -2.6678 C   0  0  0  0  0  0  0  0  0  0  0  0
   -2.1413    1.6947   -1.4701 C   0  0  0  0  0  0  0  0  0  0  0  0
   -2.1413    1.7229   -0.0110 C   0  0  0  0  0  0  0  0  0  0  0  0
   -2.1413    3.1443    0.5546 C   0  0  0  0  0  0  0  0  0  0  0  0
   -2.1413    1.6947   -3.7311 H   0  0  0  0  0  0  0  0  0  0  0  0
   -1.0907    1.0688    0.4231 H   0  0  0  0  0  0  0  0  0  0  0  0
   -3.0168    1.1778    0.3508 H   0  0  0  0  0  0  0  0  0  0  0  0
   -3.0235    3.6921    0.2232 H   0  0  0  0  0  0  0  0  0  0  0  0
   -2.1413    3.1170    1.6449 H   0  0  0  0  0  0  0  0  0  0  0  0
   -1.2591    3.6921    0.2232 H   0  0  0  0  0  0  0  0  0  0  0  0
    0.8073    1.3889    1.6780 C   0  0  0  0  0  0  0  0  0  0  0  0
   -0.0392    0.4141    0.8575 C   0  0  0  0  0  3  0  0  0  0  0  0
   -1.2229   -0.1075    1.6741 C   0  0  0  0  0  0  0  0  0  0  0  0
    0.7970   -0.7189    0.3004 C   0  0  0  0  0  0  0  0  0  0  0  0
    1.4536   -1.6118    1.1446 C   0  0  0  0  0  0  0  0  0  0  0  0
    2.2178   -2.6473    0.6330 C   0  0  0  0  0  0  0  0  0  0  0  0
    2.3417   -2.8117   -0.7393 C   0  0  0  0  0  0  0  0  0  0  0  0
    1.6946   -1.9316   -1.5908 C   0  0  0  0  0  0  0  0  0  0  0  0
    0.9303   -0.8961   -1.0717 C   0  0  0  0  0  0  0  0  0  0  0  0
    1.6389    1.7793    1.0896 H   0  0  0  0  0  0  0  0  0  0  0  0
    0.2016    2.2312    2.0186 H   0  0  0  0  0  0  0  0  0  0  0  0
    1.2231    0.8989    2.5614 H   0  0  0  0  0  0  0  0  0  0  0  0
   -0.8801   -0.6514    2.5574 H   0  0  0  0  0  0  0  0  0  0  0  0
   -1.8491    0.7197    2.0147 H   0  0  0  0  0  0  0  0  0  0  0  0
   -1.8404   -0.7853    1.0829 H   0  0  0  0  0  0  0  0  0  0  0  0
    1.3677   -1.4980    2.2191 H   0  0  0  0  0  0  0  0  0  0  0  0
    2.7196   -3.3297    1.3079 H   0  0  0  0  0  0  0  0  0  0  0  0
    2.9389   -3.6209   -1.1402 H   0  0  0  0  0  0  0  0  0  0  0  0
    1.7833   -2.0493   -2.6637 H   0  0  0  0  0  0  0  0  0  0  0  0
    0.4274   -0.2121   -1.7463 H   0  0  0  0  0  0  0  0  0  0  0  0
  1  2  3  0
  1  5  1  0
  2  3  1  0
  3  4  1  0
  3  6  1  0
  3  7  1  0
  4  8  1  0
  4  9  1  0
  4 10  1  0
 11 12  1  0
 11 20  1  0
 11 21  1  0
 11 22  1  0
 12 13  1  0
 12 14  1  0
 13 23  1  0
 13 24  1  0
 13 25  1  0
 14 15  2  0
 14 19  1  0
 15 16  1  0
 15 26  1  0
 16 17  2  0
 16 27  1  0
 17 18  1  0
 17 28  1  0
 18 19  2  0
 18 29  1  0
 19 30  1  0
M  RAD  1  12   2
M  END
>  <reaction>  (5) 
rxn_1273

>  <mol_properties>  (5) 
{"1": {"label": "*4", "atom_type": "Ct"}, "2": {"label": "*3", "atom_type": "Cs"}, "5": {"label": "*2", "atom_type": "H0"}, "11": {"label": "*1", "atom_type": "Cs"}, "13": {"label": "*0", "atom_type": "Cd"}}

>  <type>  (5) 
unop_1

>  <geom_source>  (5) 
Heuristics

$$$$

     RDKit          3D

 30 29  0  0  0  0  0  0  0  0999 V2000
   -1.4680    1.8874   -3.4444 C   0  0  0  0  0  0  0  0  0  0  0  0
   -1.4680    1.8874   -2.2467 C   0  0  0  0  0  0  0  0  0  0  0  0
   -1.4680    1.9157   -0.7875 C   0  0  0  0  0  0  0  0  0  0  0  0
   -1.4679    3.3370   -0.2219 C   0  0  0  0  0  0  0  0  0  0  0  0
   -1.4680    1.8874   -4.5077 H   0  0  0  0  0  0  0  0  0  0  0  0
   -0.4174    1.2615   -0.3535 H   0  0  0  0  0  0  0  0  0  0  0  0
   -2.3435    1.3706   -0.4258 H   0  0  0  0  0  0  0  0  0  0  0  0
   -2.3502    3.8849   -0.5534 H   0  0  0  0  0  0  0  0  0  0  0  0
   -1.4679    3.3097    0.8684 H   0  0  0  0  0  0  0  0  0  0  0  0
   -0.5857    3.8849   -0.5534 H   0  0  0  0  0  0  0  0  0  0  0  0
    1.7372    0.7528   -0.9688 C   0  0  0  0  0  0  0  0  0  0  0  0
    0.6342    0.6068    0.0810 C   0  0  0  0  0  3  0  0  0  0  0  0
    0.8382    1.5922    1.2331 C   0  0  0  0  0  0  0  0  0  0  0  0
    0.5229   -0.8189    0.5791 C   0  0  0  0  0  0  0  0  0  0  0  0
    1.5808   -1.4335    1.2454 C   0  0  0  0  0  0  0  0  0  0  0  0
    1.4770   -2.7375    1.7001 C   0  0  0  0  0  0  0  0  0  0  0  0
    0.3078   -3.4567    1.4969 C   0  0  0  0  0  0  0  0  0  0  0  0
   -0.7524   -2.8587    0.8361 C   0  0  0  0  0  0  0  0  0  0  0  0
   -0.6418   -1.5517    0.3829 C   0  0  0  0  0  0  0  0  0  0  0  0
    1.5805    0.0665   -1.8022 H   0  0  0  0  0  0  0  0  0  0  0  0
    1.7614    1.7713   -1.3618 H   0  0  0  0  0  0  0  0  0  0  0  0
    2.7182    0.5385   -0.5385 H   0  0  0  0  0  0  0  0  0  0  0  0
    1.7869    1.4081    1.7426 H   0  0  0  0  0  0  0  0  0  0  0  0
    0.8533    2.6192    0.8623 H   0  0  0  0  0  0  0  0  0  0  0  0
    0.0397    1.5051    1.9713 H   0  0  0  0  0  0  0  0  0  0  0  0
    2.5015   -0.8862    1.4126 H   0  0  0  0  0  0  0  0  0  0  0  0
    2.3121   -3.1954    2.2156 H   0  0  0  0  0  0  0  0  0  0  0  0
    0.2256   -4.4761    1.8520 H   0  0  0  0  0  0  0  0  0  0  0  0
   -1.6702   -3.4094    0.6712 H   0  0  0  0  0  0  0  0  0  0  0  0
   -1.4772   -1.0919   -0.1334 H   0  0  0  0  0  0  0  0  0  0  0  0
  1  2  3  0
  1  5  1  0
  2  3  1  0
  3  4  1  0
  3  6  1  0
  3  7  1  0
  4  8  1  0
  4  9  1  0
  4 10  1  0
 11 12  1  0
 11 20  1  0
 11 21  1  0
 11 22  1  0
 12 13  1  0
 12 14  1  0
 13 23  1  0
 13 24  1  0
 13 25  1  0
 14 15  2  0
 14 19  1  0
 15 16  1  0
 15 26  1  0
 16 17  2  0
 16 27  1  0
 17 18  1  0
 17 28  1  0
 18 19  2  0
 18 29  1  0
 19 30  1  0
M  RAD  1  12   2
M  END
>  <reaction>  (6) 
rxn_1273

>  <mol_properties>  (6) 
{"1": {"label": "*4", "atom_type": "Ct"}, "2": {"label": "*3", "atom_type": "Cs"}, "5": {"label": "*2", "atom_type": "H0"}, "11": {"label": "*1", "atom_type": "Cs"}, "13": {"label": "*0", "atom_type": "Cd"}}

>  <type>  (6) 
unop_2

>  <geom_source>  (6) 
Heuristics

$$$$

     RDKit          3D

 30 29  0  0  0  0  0  0  0  0999 V2000
   -2.4365    1.1850   -2.4422 C   0  0  0  0  0  0  0  0  0  0  0  0
   -2.4365    1.1850   -1.2445 C   0  0  0  0  0  0  0  0  0  0  0  0
   -2.4365    1.2133    0.2147 C   0  0  0  0  0  0  0  0  0  0  0  0
   -2.4365    2.6346    0.7803 C   0  0  0  0  0  0  0  0  0  0  0  0
   -2.4365    1.1850   -3.5055 H   0  0  0  0  0  0  0  0  0  0  0  0
   -1.3859    0.5592    0.6488 H   0  0  0  0  0  0  0  0  0  0  0  0
   -3.3120    0.6682    0.5764 H   0  0  0  0  0  0  0  0  0  0  0  0
   -3.3187    3.1825    0.4488 H   0  0  0  0  0  0  0  0  0  0  0  0
   -2.4365    2.6074    1.8706 H   0  0  0  0  0  0  0  0  0  0  0  0
   -1.5543    3.1825    0.4488 H   0  0  0  0  0  0  0  0  0  0  0  0
    0.0825    0.5292    2.4158 C   0  0  0  0  0  0  0  0  0  0  0  0
   -0.3344   -0.0955    1.0832 C   0  0  0  0  0  3  0  0  0  0  0  0
   -1.3233   -1.2424    1.2995 C   0  0  0  0  0  0  0  0  0  0  0  0
    0.8668   -0.5393    0.2748 C   0  0  0  0  0  0  0  0  0  0  0  0
    1.7304   -1.5239    0.7498 C   0  0  0  0  0  0  0  0  0  0  0  0
    2.8284   -1.9284    0.0090 C   0  0  0  0  0  0  0  0  0  0  0  0
    3.0863   -1.3538   -1.2276 C   0  0  0  0  0  0  0  0  0  0  0  0
    2.2364   -0.3737   -1.7126 C   0  0  0  0  0  0  0  0  0  0  0  0
    1.1379    0.0270   -0.9652 C   0  0  0  0  0  0  0  0  0  0  0  0
    0.7702    1.3620    2.2618 H   0  0  0  0  0  0  0  0  0  0  0  0
   -0.7909    0.8997    2.9565 H   0  0  0  0  0  0  0  0  0  0  0  0
    0.5822   -0.2042    3.0529 H   0  0  0  0  0  0  0  0  0  0  0  0
   -0.8742   -2.0395    1.8964 H   0  0  0  0  0  0  0  0  0  0  0  0
   -2.2109   -0.8898    1.8289 H   0  0  0  0  0  0  0  0  0  0  0  0
   -1.6391   -1.6741    0.3486 H   0  0  0  0  0  0  0  0  0  0  0  0
    1.5439   -1.9833    1.7138 H   0  0  0  0  0  0  0  0  0  0  0  0
    3.4865   -2.6956    0.3978 H   0  0  0  0  0  0  0  0  0  0  0  0
    3.9444   -1.6693   -1.8075 H   0  0  0  0  0  0  0  0  0  0  0  0
    2.4268    0.0824   -2.6762 H   0  0  0  0  0  0  0  0  0  0  0  0
    0.4781    0.7951   -1.3533 H   0  0  0  0  0  0  0  0  0  0  0  0
  1  2  3  0
  1  5  1  0
  2  3  1  0
  3  4  1  0
  3  6  1  0
  3  7  1  0
  4  8  1  0
  4  9  1  0
  4 10  1  0
 11 12  1  0
 11 20  1  0
 11 21  1  0
 11 22  1  0
 12 13  1  0
 12 14  1  0
 13 23  1  0
 13 24  1  0
 13 25  1  0
 14 15  2  0
 14 19  1  0
 15 16  1  0
 15 26  1  0
 16 17  2  0
 16 27  1  0
 17 18  1  0
 17 28  1  0
 18 19  2  0
 18 29  1  0
 19 30  1  0
M  RAD  1  12   2
M  END
>  <reaction>  (7) 
rxn_1273

>  <mol_properties>  (7) 
{"1": {"label": "*4", "atom_type": "Ct"}, "2": {"label": "*3", "atom_type": "Cs"}, "5": {"label": "*2", "atom_type": "H0"}, "11": {"label": "*1", "atom_type": "Cs"}, "13": {"label": "*0", "atom_type": "Cd"}}

>  <type>  (7) 
unop_3

>  <geom_source>  (7) 
Heuristics

$$$$

     RDKit          3D

 30 28  0  0  0  0  0  0  0  0999 V2000
   -0.9080    0.6826   -4.0921 C   0  0  0  0  0  0  0  0  0  0  0  0
   -0.9080    0.6826   -2.8944 C   0  0  0  0  0  0  0  0  0  0  0  0
   -0.9080    0.7108   -1.4353 C   0  0  0  0  0  3  0  0  0  0  0  0
   -0.9080    2.1322   -0.8697 C   0  0  0  0  0  3  0  0  0  0  0  0
   -0.9080    0.6826   -5.1554 H   0  0  0  0  0  0  0  0  0  0  0  0
    0.1426    0.0567   -1.0012 H   0  0  0  0  0  0  0  0  0  0  0  0
   -1.7836    0.1657   -1.0736 H   0  0  0  0  0  0  0  0  0  0  0  0
   -1.7903    2.6800   -1.2011 H   0  0  0  0  0  0  0  0  0  0  0  0
   -0.9080    2.1049    0.2206 H   0  0  0  0  0  0  0  0  0  0  0  0
   -0.0258    2.6800   -1.2011 H   0  0  0  0  0  0  0  0  0  0  0  0
    1.0901   -2.0351   -1.0805 C   0  0  0  0  0  0  0  0  0  0  0  0
    1.1941   -0.5980   -0.5668 C   0  0  0  0  0  3  0  0  0  0  0  0
    2.6557   -0.1689   -0.4271 C   0  0  0  0  0  0  0  0  0  0  0  0
    0.4315   -0.4116    0.7281 C   0  0  0  0  0  0  0  0  0  0  0  0
    0.7855   -1.1117    1.8794 C   0  0  0  0  0  0  0  0  0  0  0  0
    0.0867   -0.9398    3.0627 C   0  0  0  0  0  0  0  0  0  0  0  0
   -0.9851   -0.0603    3.1191 C   0  0  0  0  0  0  0  0  0  0  0  0
   -1.3486    0.6426    1.9824 C   0  0  0  0  0  0  0  0  0  0  0  0
   -0.6442    0.4657    0.7998 C   0  0  0  0  0  0  0  0  0  0  0  0
    0.0482   -2.3348   -1.2024 H   0  0  0  0  0  0  0  0  0  0  0  0
    1.5921   -2.1357   -2.0450 H   0  0  0  0  0  0  0  0  0  0  0  0
    1.5606   -2.7345   -0.3855 H   0  0  0  0  0  0  0  0  0  0  0  0
    3.1826   -0.8011    0.2914 H   0  0  0  0  0  0  0  0  0  0  0  0
    3.1735   -0.2507   -1.3850 H   0  0  0  0  0  0  0  0  0  0  0  0
    2.7314    0.8635   -0.0825 H   0  0  0  0  0  0  0  0  0  0  0  0
    1.6202   -1.8028    1.8532 H   0  0  0  0  0  0  0  0  0  0  0  0
    0.3795   -1.4945    3.9456 H   0  0  0  0  0  0  0  0  0  0  0  0
   -1.5320    0.0748    4.0436 H   0  0  0  0  0  0  0  0  0  0  0  0
   -2.1832    1.3320    2.0134 H   0  0  0  0  0  0  0  0  0  0  0  0
   -0.9361    1.0205   -0.0850 H   0  0  0  0  0  0  0  0  0  0  0  0
  1  2  3  0
  1  5  1  0
  2  3  1  0
  3  6  1  0
  3  7  1  0
  4  8  1  0
  4  9  1  0
  4 10  1  0
 11 12  1  0
 11 20  1  0
 11 21  1  0
 11 22  1  0
 12 13  1  0
 12 14  1  0
 13 23  1  0
 13 24  1  0
 13 25  1  0
 14 15  2  0
 14 19  1  0
 15 16  1  0
 15 26  1  0
 16 17  2  0
 16 27  1  0
 17 18  1  0
 17 28  1  0
 18 19  2  0
 18 29  1  0
 19 30  1  0
M  RAD  3   3   2   4   2  12   2
M  END
>  <reaction>  (8) 
rxn_1273

>  <mol_properties>  (8) 
{"1": {"label": "*4", "atom_type": "Ct"}, "2": {"label": "*3", "atom_type": "Cs"}, "5": {"label": "*2", "atom_type": "H0"}, "11": {"label": "*1", "atom_type": "Cs"}, "13": {"label": "*0", "atom_type": "Cd"}}

>  <type>  (8) 
unop_4

>  <geom_source>  (8) 
Heuristics

$$$$

     RDKit          3D

 30 29  0  0  0  0  0  0  0  0999 V2000
   -2.4928    0.2716   -2.6105 C   0  0  0  0  0  0  0  0  0  0  0  0
   -2.4928    0.2716   -1.4128 C   0  0  0  0  0  0  0  0  0  0  0  0
   -2.4928    0.2998    0.0464 C   0  0  0  0  0  0  0  0  0  0  0  0
   -2.4928    1.7212    0.6120 C   0  0  0  0  0  0  0  0  0  0  0  0
   -2.4928    0.2716   -3.6738 H   0  0  0  0  0  0  0  0  0  0  0  0
   -1.4422   -0.3543    0.4804 H   0  0  0  0  0  0  0  0  0  0  0  0
   -3.3683   -0.2452    0.4081 H   0  0  0  0  0  0  0  0  0  0  0  0
   -3.3750    2.2691    0.2805 H   0  0  0  0  0  0  0  0  0  0  0  0
   -2.4928    1.6939    1.7023 H   0  0  0  0  0  0  0  0  0  0  0  0
   -1.6106    2.2691    0.2805 H   0  0  0  0  0  0  0  0  0  0  0  0
   -0.4156   -0.9637    2.4437 C   0  0  0  0  0  0  0  0  0  0  0  0
   -0.3907   -1.0090    0.9149 C   0  0  0  0  0  3  0  0  0  0  0  0
   -0.4976   -2.4476    0.4060 C   0  0  0  0  0  0  0  0  0  0  0  0
    0.8298   -0.3084    0.3556 C   0  0  0  0  0  0  0  0  0  0  0  0
    2.1151   -0.7663    0.6373 C   0  0  0  0  0  0  0  0  0  0  0  0
    3.2299   -0.1241    0.1248 C   0  0  0  0  0  0  0  0  0  0  0  0
    3.0817    0.9940   -0.6835 C   0  0  0  0  0  0  0  0  0  0  0  0
    1.8100    1.4607   -0.9721 C   0  0  0  0  0  0  0  0  0  0  0  0
    0.6969    0.8126   -0.4554 C   0  0  0  0  0  0  0  0  0  0  0  0
   -0.3624    0.0634    2.8077 H   0  0  0  0  0  0  0  0  0  0  0  0
   -1.3321   -1.4174    2.8267 H   0  0  0  0  0  0  0  0  0  0  0  0
    0.4294   -1.5127    2.8656 H   0  0  0  0  0  0  0  0  0  0  0  0
    0.3444   -3.0500    0.7546 H   0  0  0  0  0  0  0  0  0  0  0  0
   -1.4149   -2.9162    0.7685 H   0  0  0  0  0  0  0  0  0  0  0  0
   -0.5030   -2.4797   -0.6845 H   0  0  0  0  0  0  0  0  0  0  0  0
    2.2492   -1.6384    1.2670 H   0  0  0  0  0  0  0  0  0  0  0  0
    4.2197   -0.4975    0.3569 H   0  0  0  0  0  0  0  0  0  0  0  0
    3.9526    1.4967   -1.0846 H   0  0  0  0  0  0  0  0  0  0  0  0
    1.6808    2.3323   -1.6017 H   0  0  0  0  0  0  0  0  0  0  0  0
   -0.2947    1.1853   -0.6869 H   0  0  0  0  0  0  0  0  0  0  0  0
  1  2  3  0
  1  5  1  0
  2  3  1  0
  3  4  1  0
  3  6  1  0
  3  7  1  0
  4  8  1  0
  4  9  1  0
  4 10  1  0
 11 12  1  0
 11 20  1  0
 11 21  1  0
 11 22  1  0
 12 13  1  0
 12 14  1  0
 13 23  1  0
 13 24  1  0
 13 25  1  0
 14 15  2  0
 14 19  1  0
 15 16  1  0
 15 26  1  0
 16 17  2  0
 16 27  1  0
 17 18  1  0
 17 28  1  0
 18 19  2  0
 18 29  1  0
 19 30  1  0
M  RAD  1  12   2
M  END
>  <reaction>  (9) 
rxn_1273

>  <mol_properties>  (9) 
{"1": {"label": "*4", "atom_type": "Ct"}, "2": {"label": "*3", "atom_type": "Cs"}, "5": {"label": "*2", "atom_type": "H0"}, "11": {"label": "*1", "atom_type": "Cs"}, "13": {"label": "*0", "atom_type": "Cd"}}

>  <type>  (9) 
unop_5

>  <geom_source>  (9) 
Heuristics

$$$$

     RDKit          3D

 30 28  0  0  0  0  0  0  0  0999 V2000
   -1.1251    0.1305   -3.9979 C   0  0  0  0  0  0  0  0  0  0  0  0
   -1.1251    0.1305   -2.8002 C   0  0  0  0  0  0  0  0  0  0  0  0
   -1.1251    0.1587   -1.3411 C   0  0  0  0  0  3  0  0  0  0  0  0
   -1.1251    1.5801   -0.7755 C   0  0  0  0  0  3  0  0  0  0  0  0
   -1.1251    0.1305   -5.0612 H   0  0  0  0  0  0  0  0  0  0  0  0
   -0.0745   -0.4954   -0.9070 H   0  0  0  0  0  0  0  0  0  0  0  0
   -2.0006   -0.3863   -0.9793 H   0  0  0  0  0  0  0  0  0  0  0  0
   -2.0073    2.1280   -1.1069 H   0  0  0  0  0  0  0  0  0  0  0  0
   -1.1251    1.5528    0.3148 H   0  0  0  0  0  0  0  0  0  0  0  0
   -0.2429    2.1280   -1.1069 H   0  0  0  0  0  0  0  0  0  0  0  0
    0.5707   -2.6141   -0.2953 C   0  0  0  0  0  0  0  0  0  0  0  0
    0.9770   -1.1501   -0.4726 C   0  0  0  0  0  3  0  0  0  0  0  0
    2.4878   -1.0196   -0.6739 C   0  0  0  0  0  0  0  0  0  0  0  0
    0.4911   -0.2929    0.6774 C   0  0  0  0  0  0  0  0  0  0  0  0
    0.9340   -0.5163    1.9792 C   0  0  0  0  0  0  0  0  0  0  0  0
    0.4884    0.2688    3.0295 C   0  0  0  0  0  0  0  0  0  0  0  0
   -0.4133    1.2979    2.7983 C   0  0  0  0  0  0  0  0  0  0  0  0
   -0.8623    1.5318    1.5091 C   0  0  0  0  0  0  0  0  0  0  0  0
   -0.4119    0.7414    0.4612 C   0  0  0  0  0  0  0  0  0  0  0  0
   -0.5092   -2.7108   -0.1745 H   0  0  0  0  0  0  0  0  0  0  0  0
    0.8741   -3.2048   -1.1622 H   0  0  0  0  0  0  0  0  0  0  0  0
    1.0467   -3.0486    0.5868 H   0  0  0  0  0  0  0  0  0  0  0  0
    3.0327   -1.3967    0.1946 H   0  0  0  0  0  0  0  0  0  0  0  0
    2.8105   -1.5942   -1.5446 H   0  0  0  0  0  0  0  0  0  0  0  0
    2.7762    0.0219   -0.8232 H   0  0  0  0  0  0  0  0  0  0  0  0
    1.6384   -1.3160    2.1778 H   0  0  0  0  0  0  0  0  0  0  0  0
    0.8461    0.0772    4.0336 H   0  0  0  0  0  0  0  0  0  0  0  0
   -0.7622    1.9122    3.6186 H   0  0  0  0  0  0  0  0  0  0  0  0
   -1.5661    2.3319    1.3156 H   0  0  0  0  0  0  0  0  0  0  0  0
   -0.7691    0.9321   -0.5448 H   0  0  0  0  0  0  0  0  0  0  0  0
  1  2  3  0
  1  5  1  0
  2  3  1  0
  3  6  1  0
  3  7  1  0
  4  8  1  0
  4 10  1  0
  4 30  1  0
  9 19  1  0
 11 12  1  0
 11 20  1  0
 11 21  1  0
 11 22  1  0
 12 13  1  0
 12 14  1  0
 13 23  1  0
 13 24  1  0
 13 25  1  0
 14 15  2  0
 14 19  1  0
 15 16  1  0
 15 26  1  0
 16 17  2  0
 16 27  1  0
 17 18  1  0
 17 28  1  0
 18 19  2  0
 18 29  1  0
M  RAD  3   3   2   4   2  12   2
M  END
>  <reaction>  (10) 
rxn_1273

>  <mol_properties>  (10) 
{"1": {"label": "*4", "atom_type": "Ct"}, "2": {"label": "*3", "atom_type": "Cs"}, "5": {"label": "*2", "atom_type": "H0"}, "11": {"label": "*1", "atom_type": "Cs"}, "13": {"label": "*0", "atom_type": "Cd"}}

>  <type>  (10) 
unop_6

>  <geom_source>  (10) 
Heuristics

$$$$

     RDKit          3D

 30 28  0  0  0  0  0  0  0  0999 V2000
   -1.5014   -0.2518   -3.6869 C   0  0  0  0  0  0  0  0  0  0  0  0
   -1.5014   -0.2518   -2.4892 C   0  0  0  0  0  0  0  0  0  0  0  0
   -1.5014   -0.2235   -1.0300 C   0  0  0  0  0  3  0  0  0  0  0  0
   -1.5014    1.1978   -0.4644 C   0  0  0  0  0  0  0  0  0  0  0  0
   -1.5014   -0.2518   -4.7502 H   0  0  0  0  0  0  0  0  0  0  0  0
   -0.4508   -0.8776   -0.5960 H   0  0  0  0  0  0  0  0  0  0  0  0
   -2.3769   -0.7686   -0.6683 H   0  0  0  0  0  0  0  0  0  0  0  0
   -2.3836    1.7457   -0.7959 H   0  0  0  0  0  0  0  0  0  0  0  0
   -1.5014    1.1706    0.6258 H   0  0  0  0  0  0  0  0  0  0  0  0
   -0.6192    1.7457   -0.7959 H   0  0  0  0  0  0  0  0  0  0  0  0
    0.1005   -2.6930    0.7002 C   0  0  0  0  0  0  0  0  0  0  0  0
    0.6007   -1.5323   -0.1615 C   0  0  0  0  0  3  0  0  0  0  0  0
    1.9920   -1.8264   -0.7254 C   0  0  0  0  0  0  0  0  0  0  0  0
    0.5712   -0.2215    0.5961 C   0  0  0  0  0  0  0  0  0  0  0  0
    1.3457   -0.0326    1.7386 C   0  0  0  0  0  0  0  0  0  0  0  0
    1.3172    1.1670    2.4300 C   0  0  0  0  0  0  0  0  0  0  0  0
    0.5100    2.2069    1.9912 C   0  0  0  0  0  0  0  0  0  0  0  0
   -0.2655    2.0335    0.8568 C   0  0  0  0  0  0  0  0  0  0  0  0
   -0.2324    0.8289    0.1685 C   0  0  0  0  0  3  0  0  0  0  0  0
   -0.9011   -2.4945    1.0844 H   0  0  0  0  0  0  0  0  0  0  0  0
    0.0693   -3.6172    0.1195 H   0  0  0  0  0  0  0  0  0  0  0  0
    0.7603   -2.8589    1.5550 H   0  0  0  0  0  0  0  0  0  0  0  0
    2.7198   -1.9611    0.0781 H   0  0  0  0  0  0  0  0  0  0  0  0
    1.9798   -2.7419   -1.3205 H   0  0  0  0  0  0  0  0  0  0  0  0
    2.3405   -1.0093   -1.3587 H   0  0  0  0  0  0  0  0  0  0  0  0
    1.9820   -0.8344    2.0955 H   0  0  0  0  0  0  0  0  0  0  0  0
    1.9277    1.2918    3.3159 H   0  0  0  0  0  0  0  0  0  0  0  0
    0.4870    3.1450    2.5310 H   0  0  0  0  0  0  0  0  0  0  0  0
   -0.8997    2.8374    0.5040 H   0  0  0  0  0  0  0  0  0  0  0  0
   -0.8431    0.7025   -0.7186 H   0  0  0  0  0  0  0  0  0  0  0  0
  1  2  3  0
  1  5  1  0
  2  3  1  0
  3  6  1  0
  3  7  1  0
  4  8  1  0
  4  9  1  0
  4 10  1  0
  4 30  1  0
 11 12  1  0
 11 20  1  0
 11 21  1  0
 11 22  1  0
 12 13  1  0
 12 14  1  0
 13 23  1  0
 13 24  1  0
 13 25  1  0
 14 15  2  0
 14 19  1  0
 15 16  1  0
 15 26  1  0
 16 17  2  0
 16 27  1  0
 17 18  1  0
 17 28  1  0
 18 19  2  0
 18 29  1  0
M  CHG  2  12   1  19  -1
M  RAD  1   3   2
M  END
>  <reaction>  (11) 
rxn_1273

>  <mol_properties>  (11) 
{"1": {"label": "*4", "atom_type": "Ct"}, "2": {"label": "*3", "atom_type": "Cs"}, "5": {"label": "*2", "atom_type": "H0"}, "11": {"label": "*1", "atom_type": "Cs"}, "13": {"label": "*0", "atom_type": "Cd"}}

>  <type>  (11) 
unop_7

>  <geom_source>  (11) 
Heuristics

$$$$

     RDKit          3D

 30 29  0  0  0  0  0  0  0  0999 V2000
   -1.9065    1.8795   -2.9654 C   0  0  0  0  0  0  0  0  0  0  0  0
   -1.9065    1.8795   -1.7677 C   0  0  0  0  0  0  0  0  0  0  0  0
   -1.9065    1.9078   -0.3085 C   0  0  0  0  0  0  0  0  0  0  0  0
   -1.9065    3.3291    0.2571 C   0  0  0  0  0  0  0  0  0  0  0  0
   -1.9065    1.8795   -4.0287 H   0  0  0  0  0  0  0  0  0  0  0  0
   -0.8559    1.2537    0.1255 H   0  0  0  0  0  0  0  0  0  0  0  0
   -2.7820    1.3627    0.0532 H   0  0  0  0  0  0  0  0  0  0  0  0
   -2.7887    3.8770   -0.0744 H   0  0  0  0  0  0  0  0  0  0  0  0
   -1.9065    3.3019    1.3473 H   0  0  0  0  0  0  0  0  0  0  0  0
   -1.0242    3.8770   -0.0744 H   0  0  0  0  0  0  0  0  0  0  0  0
    1.3444    1.6008    0.6895 C   0  0  0  0  0  0  0  0  0  0  0  0
    0.1957    0.5989    0.5600 C   0  0  0  0  0  3  0  0  0  0  0  0
   -0.7625    0.7051    1.7476 C   0  0  0  0  0  0  0  0  0  0  0  0
    0.7062   -0.8152    0.3794 C   0  0  0  0  0  0  0  0  0  0  0  0
    1.4667   -1.4378    1.3668 C   0  0  0  0  0  0  0  0  0  0  0  0
    1.9326   -2.7312    1.1996 C   0  0  0  0  0  0  0  0  0  0  0  0
    1.6462   -3.4317    0.0365 C   0  0  0  0  0  0  0  0  0  0  0  0
    0.8912   -2.8255   -0.9539 C   0  0  0  0  0  0  0  0  0  0  0  0
    0.4273   -1.5292   -0.7801 C   0  0  0  0  0  0  0  0  0  0  0  0
    2.0161    1.5420   -0.1681 H   0  0  0  0  0  0  0  0  0  0  0  0
    0.9593    2.6205    0.7557 H   0  0  0  0  0  0  0  0  0  0  0  0
    1.9327    1.4078    1.5895 H   0  0  0  0  0  0  0  0  0  0  0  0
   -0.2500    0.4799    2.6857 H   0  0  0  0  0  0  0  0  0  0  0  0
   -1.1688    1.7158    1.8245 H   0  0  0  0  0  0  0  0  0  0  0  0
   -1.5947    0.0070    1.6453 H   0  0  0  0  0  0  0  0  0  0  0  0
    1.6998   -0.9052    2.2817 H   0  0  0  0  0  0  0  0  0  0  0  0
    2.5222   -3.1956    1.9805 H   0  0  0  0  0  0  0  0  0  0  0  0
    2.0100   -4.4428   -0.0951 H   0  0  0  0  0  0  0  0  0  0  0  0
    0.6608   -3.3616   -1.8663 H   0  0  0  0  0  0  0  0  0  0  0  0
   -0.1631   -1.0630   -1.5611 H   0  0  0  0  0  0  0  0  0  0  0  0
  1  2  3  0
  1  5  1  0
  2  3  1  0
  3  4  1  0
  3  6  1  0
  3  7  1  0
  4  8  1  0
  4  9  1  0
  4 10  1  0
 11 12  1  0
 11 20  1  0
 11 21  1  0
 11 22  1  0
 12 13  1  0
 12 14  1  0
 13 23  1  0
 13 24  1  0
 13 25  1  0
 14 15  2  0
 14 19  1  0
 15 16  1  0
 15 26  1  0
 16 17  2  0
 16 27  1  0
 17 18  1  0
 17 28  1  0
 18 19  2  0
 18 29  1  0
 19 30  1  0
M  RAD  1  12   2
M  END
>  <reaction>  (12) 
rxn_1273

>  <mol_properties>  (12) 
{"1": {"label": "*4", "atom_type": "Ct"}, "2": {"label": "*3", "atom_type": "Cs"}, "5": {"label": "*2", "atom_type": "H0"}, "11": {"label": "*1", "atom_type": "Cs"}, "13": {"label": "*0", "atom_type": "Cd"}}

>  <type>  (12) 
unop_8

>  <geom_source>  (12) 
Heuristics

$$$$

     RDKit          3D

 30 29  0  0  0  0  0  0  0  0999 V2000
   -0.9122    1.2674   -3.9682 C   0  0  0  0  0  0  0  0  0  0  0  0
   -0.9122    1.2674   -2.7705 C   0  0  0  0  0  0  0  0  0  0  0  0
   -0.9122    1.2956   -1.3113 C   0  0  0  0  0  0  0  0  0  0  0  0
   -0.9122    2.7170   -0.7457 C   0  0  0  0  0  0  0  0  0  0  0  0
   -0.9122    1.2674   -5.0315 H   0  0  0  0  0  0  0  0  0  0  0  0
    0.1384    0.6415   -0.8772 H   0  0  0  0  0  0  0  0  0  0  0  0
   -1.7877    0.7506   -0.9496 H   0  0  0  0  0  0  0  0  0  0  0  0
   -1.7944    3.2649   -1.0772 H   0  0  0  0  0  0  0  0  0  0  0  0
   -0.9122    2.6897    0.3446 H   0  0  0  0  0  0  0  0  0  0  0  0
   -0.0300    3.2648   -1.0772 H   0  0  0  0  0  0  0  0  0  0  0  0
    1.5155   -1.1002   -1.4687 C   0  0  0  0  0  0  0  0  0  0  0  0
    1.1899   -0.0132   -0.4428 C   0  0  0  0  0  3  0  0  0  0  0  0
    2.4591    0.7064    0.0168 C   0  0  0  0  0  0  0  0  0  0  0  0
    0.4075   -0.5680    0.7290 C   0  0  0  0  0  0  0  0  0  0  0  0
    0.9540   -1.5401    1.5641 C   0  0  0  0  0  0  0  0  0  0  0  0
    0.2368   -2.0462    2.6352 C   0  0  0  0  0  0  0  0  0  0  0  0
   -1.0474   -1.5885    2.8944 C   0  0  0  0  0  0  0  0  0  0  0  0
   -1.6037   -0.6223    2.0727 C   0  0  0  0  0  0  0  0  0  0  0  0
   -0.8796   -0.1193    1.0009 C   0  0  0  0  0  0  0  0  0  0  0  0
    0.6089   -1.5989   -1.8145 H   0  0  0  0  0  0  0  0  0  0  0  0
    2.0239   -0.6714   -2.3348 H   0  0  0  0  0  0  0  0  0  0  0  0
    2.1726   -1.8599   -1.0392 H   0  0  0  0  0  0  0  0  0  0  0  0
    3.1502    0.0117    0.4997 H   0  0  0  0  0  0  0  0  0  0  0  0
    2.9770    1.1535   -0.8343 H   0  0  0  0  0  0  0  0  0  0  0  0
    2.2261    1.4972    0.7314 H   0  0  0  0  0  0  0  0  0  0  0  0
    1.9559   -1.9089    1.3762 H   0  0  0  0  0  0  0  0  0  0  0  0
    0.6814   -2.8016    3.2714 H   0  0  0  0  0  0  0  0  0  0  0  0
   -1.6089   -1.9836    3.7315 H   0  0  0  0  0  0  0  0  0  0  0  0
   -2.6049   -0.2569    2.2643 H   0  0  0  0  0  0  0  0  0  0  0  0
   -1.3235    0.6370    0.3631 H   0  0  0  0  0  0  0  0  0  0  0  0
  1  2  3  0
  1  5  1  0
  2  3  1  0
  3  4  1  0
  3  6  1  0
  3  7  1  0
  4  8  1  0
  4  9  1  0
  4 10  1  0
 11 12  1  0
 11 20  1  0
 11 21  1  0
 11 22  1  0
 12 13  1  0
 12 14  1  0
 13 23  1  0
 13 24  1  0
 13 25  1  0
 14 15  2  0
 14 19  1  0
 15 16  1  0
 15 26  1  0
 16 17  2  0
 16 27  1  0
 17 18  1  0
 17 28  1  0
 18 19  2  0
 18 29  1  0
 19 30  1  0
M  RAD  1  12   2
M  END
>  <reaction>  (13) 
rxn_1273

>  <mol_properties>  (13) 
{"1": {"label": "*4", "atom_type": "Ct"}, "2": {"label": "*3", "atom_type": "Cs"}, "5": {"label": "*2", "atom_type": "H0"}, "11": {"label": "*1", "atom_type": "Cs"}, "13": {"label": "*0", "atom_type": "Cd"}}

>  <type>  (13) 
unop_9

>  <geom_source>  (13) 
Heuristics

$$$$

     RDKit          3D

 30 29  0  0  0  0  0  0  0  0999 V2000
   -1.7125    1.9213   -3.2188 C   0  0  0  0  0  0  0  0  0  0  0  0
   -1.7125    1.9213   -2.0211 C   0  0  0  0  0  0  0  0  0  0  0  0
   -1.7125    1.9495   -0.5619 C   0  0  0  0  0  0  0  0  0  0  0  0
   -1.7125    3.3709    0.0037 C   0  0  0  0  0  0  0  0  0  0  0  0
   -1.7125    1.9213   -4.2821 H   0  0  0  0  0  0  0  0  0  0  0  0
   -0.6619    1.2954   -0.1279 H   0  0  0  0  0  0  0  0  0  0  0  0
   -2.5880    1.4044   -0.2002 H   0  0  0  0  0  0  0  0  0  0  0  0
   -2.5947    3.9188   -0.3278 H   0  0  0  0  0  0  0  0  0  0  0  0
   -1.7125    3.3436    1.0940 H   0  0  0  0  0  0  0  0  0  0  0  0
   -0.8302    3.9187   -0.3278 H   0  0  0  0  0  0  0  0  0  0  0  0
    1.6323    1.3391   -0.2484 C   0  0  0  0  0  0  0  0  0  0  0  0
    0.3897    0.6407    0.3066 C   0  0  0  0  0  3  0  0  0  0  0  0
   -0.0718    1.2943    1.6103 C   0  0  0  0  0  0  0  0  0  0  0  0
    0.6150   -0.8470    0.4773 C   0  0  0  0  0  0  0  0  0  0  0  0
    1.5834   -1.3326    1.3533 C   0  0  0  0  0  0  0  0  0  0  0  0
    1.7879   -2.6936    1.5080 C   0  0  0  0  0  0  0  0  0  0  0  0
    1.0249   -3.6008    0.7866 C   0  0  0  0  0  0  0  0  0  0  0  0
    0.0584   -3.1325   -0.0881 C   0  0  0  0  0  0  0  0  0  0  0  0
   -0.1415   -1.7675   -0.2384 C   0  0  0  0  0  0  0  0  0  0  0  0
    1.9491    0.8886   -1.1902 H   0  0  0  0  0  0  0  0  0  0  0  0
    1.4318    2.3981   -0.4240 H   0  0  0  0  0  0  0  0  0  0  0  0
    2.4667    1.2700    0.4533 H   0  0  0  0  0  0  0  0  0  0  0  0
    0.7013    1.2236    2.3789 H   0  0  0  0  0  0  0  0  0  0  0  0
   -0.2895    2.3528    1.4535 H   0  0  0  0  0  0  0  0  0  0  0  0
   -0.9713    0.8118    1.9954 H   0  0  0  0  0  0  0  0  0  0  0  0
    2.1884   -0.6380    1.9248 H   0  0  0  0  0  0  0  0  0  0  0  0
    2.5463   -3.0488    2.1948 H   0  0  0  0  0  0  0  0  0  0  0  0
    1.1840   -4.6649    0.9069 H   0  0  0  0  0  0  0  0  0  0  0  0
   -0.5436   -3.8303   -0.6569 H   0  0  0  0  0  0  0  0  0  0  0  0
   -0.9004   -1.4104   -0.9256 H   0  0  0  0  0  0  0  0  0  0  0  0
  1  2  3  0
  1  5  1  0
  2  3  1  0
  3  4  1  0
  3  6  1  0
  3  7  1  0
  4  8  1  0
  4  9  1  0
  4 10  1  0
 11 12  1  0
 11 20  1  0
 11 21  1  0
 11 22  1  0
 12 13  1  0
 12 14  1  0
 13 23  1  0
 13 24  1  0
 13 25  1  0
 14 15  2  0
 14 19  1  0
 15 16  1  0
 15 26  1  0
 16 17  2  0
 16 27  1  0
 17 18  1  0
 17 28  1  0
 18 19  2  0
 18 29  1  0
 19 30  1  0
M  RAD  1  12   2
M  END
>  <reaction>  (14) 
rxn_1273

>  <mol_properties>  (14) 
{"1": {"label": "*4", "atom_type": "Ct"}, "2": {"label": "*3", "atom_type": "Cs"}, "5": {"label": "*2", "atom_type": "H0"}, "11": {"label": "*1", "atom_type": "Cs"}, "13": {"label": "*0", "atom_type": "Cd"}}

>  <type>  (14) 
unop_10

>  <geom_source>  (14) 
Heuristics

$$$$

     RDKit          3D

 30 28  0  0  0  0  0  0  0  0999 V2000
   -2.0155   -0.3070   -3.1841 C   0  0  0  0  0  0  0  0  0  0  0  0
   -2.0155   -0.3070   -1.9863 C   0  0  0  0  0  0  0  0  0  0  0  0
   -2.0155   -0.2788   -0.5272 C   0  0  0  0  0  3  0  0  0  0  0  0
   -2.0154    1.1426    0.0384 C   0  0  0  0  0  3  0  0  0  0  0  0
   -2.0155   -0.3070   -4.2474 H   0  0  0  0  0  0  0  0  0  0  0  0
   -0.9649   -0.9329   -0.0931 H   0  0  0  0  0  0  0  0  0  0  0  0
   -2.8910   -0.8239   -0.1655 H   0  0  0  0  0  0  0  0  0  0  0  0
   -2.8977    1.6904   -0.2931 H   0  0  0  0  0  0  0  0  0  0  0  0
   -2.0154    1.1153    1.1287 H   0  0  0  0  0  0  0  0  0  0  0  0
   -1.1332    1.6904   -0.2931 H   0  0  0  0  0  0  0  0  0  0  0  0
   -0.2739   -2.1958    1.6978 C   0  0  0  0  0  0  0  0  0  0  0  0
    0.0867   -1.5876    0.3413 C   0  0  0  0  0  3  0  0  0  0  0  0
    1.0081   -2.5174   -0.4502 C   0  0  0  0  0  0  0  0  0  0  0  0
    0.6845   -0.2044    0.4910 C   0  0  0  0  0  0  0  0  0  0  0  0
    1.8816   -0.0076    1.1761 C   0  0  0  0  0  0  0  0  0  0  0  0
    2.4266    1.2582    1.3119 C   0  0  0  0  0  0  0  0  0  0  0  0
    1.7828    2.3582    0.7630 C   0  0  0  0  0  0  0  0  0  0  0  0
    0.5920    2.1778    0.0792 C   0  0  0  0  0  0  0  0  0  0  0  0
    0.0511    0.9067   -0.0533 C   0  0  0  0  0  0  0  0  0  0  0  0
   -0.9494   -1.5442    2.2540 H   0  0  0  0  0  0  0  0  0  0  0  0
   -0.7604   -3.1647    1.5674 H   0  0  0  0  0  0  0  0  0  0  0  0
    0.6193   -2.3509    2.3074 H   0  0  0  0  0  0  0  0  0  0  0  0
    1.9474   -2.6840    0.0821 H   0  0  0  0  0  0  0  0  0  0  0  0
    0.5346   -3.4895   -0.6023 H   0  0  0  0  0  0  0  0  0  0  0  0
    1.2478   -2.0952   -1.4273 H   0  0  0  0  0  0  0  0  0  0  0  0
    2.3978   -0.8558    1.6111 H   0  0  0  0  0  0  0  0  0  0  0  0
    3.3583    1.3879    1.8486 H   0  0  0  0  0  0  0  0  0  0  0  0
    2.2081    3.3481    0.8686 H   0  0  0  0  0  0  0  0  0  0  0  0
    0.0798    3.0282   -0.3538 H   0  0  0  0  0  0  0  0  0  0  0  0
   -0.8817    0.7754   -0.5904 H   0  0  0  0  0  0  0  0  0  0  0  0
  1  2  3  0
  1  5  1  0
  2  3  1  0
  3  6  1  0
  3  7  1  0
  4  8  1  0
  4  9  1  0
  4 10  1  0
 11 12  1  0
 11 20  1  0
 11 21  1  0
 11 22  1  0
 12 13  1  0
 12 14  1  0
 13 23  1  0
 13 24  1  0
 13 25  1  0
 14 15  2  0
 14 19  1  0
 15 16  1  0
 15 26  1  0
 16 17  2  0
 16 27  1  0
 17 18  1  0
 17 28  1  0
 18 19  2  0
 18 29  1  0
 19 30  1  0
M  RAD  3   3   2   4   2  12   2
M  END
>  <reaction>  (15) 
rxn_1273

>  <mol_properties>  (15) 
{"1": {"label": "*4", "atom_type": "Ct"}, "2": {"label": "*3", "atom_type": "Cs"}, "5": {"label": "*2", "atom_type": "H0"}, "11": {"label": "*1", "atom_type": "Cs"}, "13": {"label": "*0", "atom_type": "Cd"}}

>  <type>  (15) 
unop_11

>  <geom_source>  (15) 
Heuristics

$$$$

     RDKit          3D

 30 29  0  0  0  0  0  0  0  0999 V2000
   -1.1499    1.7017   -3.7059 C   0  0  0  0  0  0  0  0  0  0  0  0
   -1.1499    1.7017   -2.5082 C   0  0  0  0  0  0  0  0  0  0  0  0
   -1.1499    1.7299   -1.0490 C   0  0  0  0  0  0  0  0  0  0  0  0
   -1.1499    3.1513   -0.4834 C   0  0  0  0  0  0  0  0  0  0  0  0
   -1.1499    1.7017   -4.7692 H   0  0  0  0  0  0  0  0  0  0  0  0
   -0.0993    1.0758   -0.6150 H   0  0  0  0  0  0  0  0  0  0  0  0
   -2.0254    1.1848   -0.6873 H   0  0  0  0  0  0  0  0  0  0  0  0
   -2.0321    3.6991   -0.8149 H   0  0  0  0  0  0  0  0  0  0  0  0
   -1.1499    3.1240    0.6068 H   0  0  0  0  0  0  0  0  0  0  0  0
   -0.2676    3.6991   -0.8149 H   0  0  0  0  0  0  0  0  0  0  0  0
    1.7196   -0.0865   -1.4026 C   0  0  0  0  0  0  0  0  0  0  0  0
    0.9523    0.4211   -0.1805 C   0  0  0  0  0  3  0  0  0  0  0  0
    1.8016    1.3974    0.6351 C   0  0  0  0  0  0  0  0  0  0  0  0
    0.4418   -0.7216    0.6721 C   0  0  0  0  0  0  0  0  0  0  0  0
    1.3213   -1.6115    1.2848 C   0  0  0  0  0  0  0  0  0  0  0  0
    0.8524   -2.6559    2.0641 C   0  0  0  0  0  0  0  0  0  0  0  0
   -0.5117   -2.8324    2.2476 C   0  0  0  0  0  0  0  0  0  0  0  0
   -1.3980   -1.9554    1.6446 C   0  0  0  0  0  0  0  0  0  0  0  0
   -0.9216   -0.9110    0.8649 C   0  0  0  0  0  0  0  0  0  0  0  0
    1.1070   -0.7653   -1.9978 H   0  0  0  0  0  0  0  0  0  0  0  0
    2.0255    0.7474   -2.0379 H   0  0  0  0  0  0  0  0  0  0  0  0
    2.6215   -0.6251   -1.1028 H   0  0  0  0  0  0  0  0  0  0  0  0
    2.7065    0.9122    1.0082 H   0  0  0  0  0  0  0  0  0  0  0  0
    2.1083    2.2462    0.0204 H   0  0  0  0  0  0  0  0  0  0  0  0
    1.2476    1.7778    1.4945 H   0  0  0  0  0  0  0  0  0  0  0  0
    2.3901   -1.4884    1.1521 H   0  0  0  0  0  0  0  0  0  0  0  0
    1.5544   -3.3358    2.5310 H   0  0  0  0  0  0  0  0  0  0  0  0
   -0.8792   -3.6485    2.8567 H   0  0  0  0  0  0  0  0  0  0  0  0
   -2.4650   -2.0824    1.7801 H   0  0  0  0  0  0  0  0  0  0  0  0
   -1.6232   -0.2294    0.3968 H   0  0  0  0  0  0  0  0  0  0  0  0
  1  2  3  0
  1  5  1  0
  2  3  1  0
  3  4  1  0
  3  6  1  0
  3  7  1  0
  4  8  1  0
  4  9  1  0
  4 10  1  0
 11 12  1  0
 11 20  1  0
 11 21  1  0
 11 22  1  0
 12 13  1  0
 12 14  1  0
 13 23  1  0
 13 24  1  0
 13 25  1  0
 14 15  2  0
 14 19  1  0
 15 16  1  0
 15 26  1  0
 16 17  2  0
 16 27  1  0
 17 18  1  0
 17 28  1  0
 18 19  2  0
 18 29  1  0
 19 30  1  0
M  RAD  1  12   2
M  END
>  <reaction>  (16) 
rxn_1273

>  <mol_properties>  (16) 
{"1": {"label": "*4", "atom_type": "Ct"}, "2": {"label": "*3", "atom_type": "Cs"}, "5": {"label": "*2", "atom_type": "H0"}, "11": {"label": "*1", "atom_type": "Cs"}, "13": {"label": "*0", "atom_type": "Cd"}}

>  <type>  (16) 
unop_12

>  <geom_source>  (16) 
Heuristics

$$$$

     RDKit          3D

 30 29  0  0  0  0  0  0  0  0999 V2000
   -0.1787   -0.8936   -0.5998 C   0  0  0  0  0  0  0  0  0  0  0  0
   -0.4353   -1.2439   -2.0692 C   0  0  0  0  0  0  0  0  0  0  0  0
   -0.2160   -2.1460    0.2821 C   0  0  0  0  0  0  0  0  0  0  0  0
    3.0445   -0.7713    1.3180 C   0  0  0  0  0  0  0  0  0  0  0  0
   -1.1589    0.1524   -0.1071 C   0  0  0  0  0  0  0  0  0  0  0  0
   -2.5440   -0.1041   -0.0763 C   0  0  0  0  0  0  0  0  0  0  0  0
   -0.6887    1.4039    0.3291 C   0  0  0  0  0  0  0  0  0  0  0  0
   -3.4342    0.8721    0.3812 C   0  0  0  0  0  0  0  0  0  0  0  0
   -2.9547    2.1111    0.8118 C   0  0  0  0  0  0  0  0  0  0  0  0
   -1.5837    2.3765    0.7858 C   0  0  0  0  0  0  0  0  0  0  0  0
    2.2633   -0.2945    0.1022 C   0  0  0  0  0  3  0  0  0  0  0  0
    2.6222    1.0867   -0.2376 C   0  0  0  0  0  0  0  0  0  0  0  0
    2.9164    2.2218   -0.5175 C   0  0  0  0  0  0  0  0  0  0  0  0
    1.0451   -0.4161   -0.5308 H   0  0  0  0  0  0  0  0  0  0  0  0
   -1.4244   -1.7322   -2.1994 H   0  0  0  0  0  0  0  0  0  0  0  0
   -0.4025   -0.3229   -2.6893 H   0  0  0  0  0  0  0  0  0  0  0  0
    0.3526   -1.9359   -2.4350 H   0  0  0  0  0  0  0  0  0  0  0  0
   -0.0267   -1.8691    1.3410 H   0  0  0  0  0  0  0  0  0  0  0  0
   -1.1994   -2.6575    0.2126 H   0  0  0  0  0  0  0  0  0  0  0  0
    0.5762   -2.8558   -0.0372 H   0  0  0  0  0  0  0  0  0  0  0  0
    2.8201   -0.1268    2.1945 H   0  0  0  0  0  0  0  0  0  0  0  0
    4.1362   -0.7496    1.1113 H   0  0  0  0  0  0  0  0  0  0  0  0
    2.7464   -1.8128    1.5593 H   0  0  0  0  0  0  0  0  0  0  0  0
   -2.9365   -1.0574   -0.4055 H   0  0  0  0  0  0  0  0  0  0  0  0
   -4.4969    0.6674    0.4018 H   0  0  0  0  0  0  0  0  0  0  0  0
    0.3697    1.6313    0.3177 H   0  0  0  0  0  0  0  0  0  0  0  0
   -3.6454    2.8655    1.1657 H   0  0  0  0  0  0  0  0  0  0  0  0
   -1.2134    3.3372    1.1198 H   0  0  0  0  0  0  0  0  0  0  0  0
    2.4719   -0.9547   -0.7659 H   0  0  0  0  0  0  0  0  0  0  0  0
    3.1749    3.2183   -0.7630 H   0  0  0  0  0  0  0  0  0  0  0  0
  1  2  1  0
  1  3  1  0
  1  5  1  0
  1 14  1  0
  2 15  1  0
  2 16  1  0
  2 17  1  0
  3 18  1  0
  3 19  1  0
  3 20  1  0
  4 11  1  0
  4 21  1  0
  4 22  1  0
  4 23  1  0
  5  6  2  0
  5  7  1  0
  6  8  1  0
  6 24  1  0
  7 10  2  0
  7 26  1  0
  8  9  2  0
  8 25  1  0
  9 10  1  0
  9 27  1  0
 10 28  1  0
 11 12  1  0
 11 29  1  0
 12 13  3  0
 13 30  1  0
M  RAD  1  11   2
M  END
>  <reaction>  (17) 
rxn_1273

>  <mol_properties>  (17) 
{"1": {"label": "*4", "atom_type": "Ct"}, "2": {"label": "*3", "atom_type": "Cs"}, "5": {"label": "*2", "atom_type": "H0"}, "11": {"label": "*1", "atom_type": "Cs"}, "13": {"label": "*0", "atom_type": "Cd"}}

>  <type>  (17) 
unop_13

>  <geom_source>  (17) 
AutoTST

$$$$
