
     RDKit          3D

  8  7  0  0  0  0  0  0  0  0999 V2000
    0.7610    0.0250    0.0051 C   0  0  0  0  0  0  0  0  0  0  0  0
   -0.7610   -0.0250   -0.0051 C   0  0  0  0  0  0  0  0  0  0  0  0
    1.1904   -0.9237   -0.3217 H   0  0  0  0  0  0  0  0  0  0  0  0
    1.1359    0.8041   -0.6609 H   0  0  0  0  0  0  0  0  0  0  0  0
    1.1435    0.2336    1.0058 H   0  0  0  0  0  0  0  0  0  0  0  0
   -1.1435   -0.2336   -1.0058 H   0  0  0  0  0  0  0  0  0  0  0  0
   -1.1904    0.9237    0.3216 H   0  0  0  0  0  0  0  0  0  0  0  0
   -1.1359   -0.8041    0.6609 H   0  0  0  0  0  0  0  0  0  0  0  0
  1  2  1  0
  1  3  1  0
  1  4  1  0
  1  5  1  0
  2  6  1  0
  2  7  1  0
  2  8  1  0
M  END
>  <reaction>  (1) 
rxn_876

>  <mol_properties>  (1) 
{"1": {"label": "donator", "atom_type": "Cs"}, "5": {"label": "d_hydrogen", "atom_type": "H0"}}

>  <type>  (1) 
r1h

$$$$

     RDKit          3D

  9  8  0  0  0  0  0  0  0  0999 V2000
    2.3038   -0.0269    0.1590 C   0  0  0  0  0  0  0  0  0  0  0  0
    1.1426    0.1377   -0.1648 C   0  0  0  0  0  0  0  0  0  0  0  0
   -0.1694    0.3175   -0.5203 C   0  0  0  0  0  3  0  0  0  0  0  0
   -1.3163   -0.1910    0.2856 C   0  0  0  0  0  0  0  0  0  0  0  0
    3.3199   -0.1683    0.4378 H   0  0  0  0  0  0  0  0  0  0  0  0
   -0.3786    0.8584   -1.4360 H   0  0  0  0  0  0  0  0  0  0  0  0
   -1.9694    0.6309    0.5951 H   0  0  0  0  0  0  0  0  0  0  0  0
   -1.9325   -0.8770   -0.3039 H   0  0  0  0  0  0  0  0  0  0  0  0
   -0.9753   -0.7144    1.1774 H   0  0  0  0  0  0  0  0  0  0  0  0
  1  2  3  0
  1  5  1  0
  2  3  1  0
  3  4  1  0
  3  6  1  0
  4  7  1  0
  4  8  1  0
  4  9  1  0
M  RAD  1   3   2
M  END
>  <reaction>  (2) 
rxn_876

>  <mol_properties>  (2) 
{"2": {"label": "acceptor", "atom_type": "Cs"}}

>  <type>  (2) 
r2

$$$$

     RDKit          3D

 10  9  0  0  0  0  0  0  0  0999 V2000
    2.2738    0.0217   -0.0992 C   0  0  0  0  0  0  0  0  0  0  0  0
    1.1083    0.2960   -0.0695 C   0  0  0  0  0  0  0  0  0  0  0  0
   -0.3173    0.6046   -0.0227 C   0  0  0  0  0  0  0  0  0  0  0  0
   -1.1561   -0.5495    0.5292 C   0  0  0  0  0  0  0  0  0  0  0  0
    3.3097   -0.2166   -0.1277 H   0  0  0  0  0  0  0  0  0  0  0  0
   -0.6542    0.8617   -1.0302 H   0  0  0  0  0  0  0  0  0  0  0  0
   -0.4633    1.4978    0.5900 H   0  0  0  0  0  0  0  0  0  0  0  0
   -0.8485   -0.7997    1.5447 H   0  0  0  0  0  0  0  0  0  0  0  0
   -2.2115   -0.2752    0.5459 H   0  0  0  0  0  0  0  0  0  0  0  0
   -1.0409   -1.4407   -0.0879 H   0  0  0  0  0  0  0  0  0  0  0  0
  1  2  3  0
  1  5  1  0
  2  3  1  0
  3  4  1  0
  3  6  1  0
  3  7  1  0
  4  8  1  0
  4  9  1  0
  4 10  1  0
M  END
>  <reaction>  (3) 
rxn_876

>  <mol_properties>  (3) 
{"2": {"label": "acceptor", "atom_type": "Cs"}, "9": {"label": "a_hydrogen", "atom_type": "H0"}}

>  <type>  (3) 
r2h

$$$$

     RDKit          3D

 17 15  0  0  0  0  0  0  0  0999 V2000
   -1.6151    0.7879    2.2048 C   0  0  0  0  0  0  0  0  0  0  0  0
   -0.8363    0.8079    1.2898 C   0  0  0  0  0  0  0  0  0  0  0  0
    0.0862    0.7676    0.1948 C   0  0  0  0  0  0  0  0  0  0  0  0
    1.5534    0.6646    0.5636 C   0  0  0  0  0  0  0  0  0  0  0  0
   -2.3030    0.7865    3.0154 H   0  0  0  0  0  0  0  0  0  0  0  0
   -0.1181    1.5451   -0.5417 H   0  0  0  0  0  0  0  0  0  0  0  0
    2.1644    0.5662   -0.3346 H   0  0  0  0  0  0  0  0  0  0  0  0
    1.8882    1.5502    1.1082 H   0  0  0  0  0  0  0  0  0  0  0  0
    1.7309   -0.2049    1.1982 H   0  0  0  0  0  0  0  0  0  0  0  0
    0.8319   -1.6868   -2.0579 C   0  0  0  0  0  0  0  0  0  0  0  0
   -0.3696   -1.5094   -1.1761 C   0  0  0  0  0  3  0  0  0  0  0  0
    0.9581   -0.8393   -2.7351 H   0  0  0  0  0  0  0  0  0  0  0  0
    1.7461   -1.7885   -1.4703 H   0  0  0  0  0  0  0  0  0  0  0  0
    0.7431   -2.5852   -2.6784 H   0  0  0  0  0  0  0  0  0  0  0  0
   -0.1830   -0.3134   -0.4592 H   0  0  0  0  0  0  0  0  0  0  0  0
   -0.4785   -2.2273   -0.3665 H   0  0  0  0  0  0  0  0  0  0  0  0
   -1.3095   -1.3128   -1.6865 H   0  0  0  0  0  0  0  0  0  0  0  0
  1  2  3  0
  1  5  1  0
  2  3  1  0
  3  4  1  0
  3  6  1  0
  3 15  1  0
  4  7  1  0
  4  8  1  0
  4  9  1  0
 10 11  1  0
 10 12  1  0
 10 13  1  0
 10 14  1  0
 11 16  1  0
 11 17  1  0
M  RAD  1  11   2
M  END
>  <reaction>  (4) 
rxn_876

>  <mol_properties>  (4) 
{"1": {"label": "*0", "atom_type": "Ct"}, "2": {"label": "*1", "atom_type": "Cs"}, "9": {"label": "*4", "atom_type": "Cs"}, "10": {"label": "*3", "atom_type": "Cs"}, "14": {"label": "*2", "atom_type": "H0"}}

>  <type>  (4) 
ts

$$$$

     RDKit          3D

 17 15  0  0  0  0  0  0  0  0999 V2000
   -1.8664    1.2449    1.6169 C   0  0  0  0  0  0  0  0  0  0  0  0
   -0.8951    1.1017    0.9309 C   0  0  0  0  0  0  0  0  0  0  0  0
    0.3018    0.9154    0.1169 C   0  0  0  0  0  3  0  0  0  0  0  0
    1.4446    0.2503    0.8862 C   0  0  0  0  0  0  0  0  0  0  0  0
   -2.7287    1.3720    2.2259 H   0  0  0  0  0  0  0  0  0  0  0  0
    0.6241    1.8888   -0.2615 H   0  0  0  0  0  0  0  0  0  0  0  0
    2.3156    0.1315    0.2408 H   0  0  0  0  0  0  0  0  0  0  0  0
    1.7330    0.8532    1.7475 H   0  0  0  0  0  0  0  0  0  0  0  0
    1.1459   -0.7339    1.2475 H   0  0  0  0  0  0  0  0  0  0  0  0
    0.3018   -1.5273   -2.3566 C   0  0  0  0  0  0  0  0  0  0  0  0
    0.3018   -1.5273   -0.8338 C   0  0  0  0  0  0  0  0  0  0  0  0
   -0.5791   -1.0188   -2.7524 H   0  0  0  0  0  0  0  0  0  0  0  0
    1.1826   -1.0188   -2.7524 H   0  0  0  0  0  0  0  0  0  0  0  0
    0.3018   -2.5444   -2.7524 H   0  0  0  0  0  0  0  0  0  0  0  0
    0.3018   -0.3068   -0.3588 H   0  0  0  0  0  0  0  0  0  0  0  0
    1.1826   -2.0359   -0.4380 H   0  0  0  0  0  0  0  0  0  0  0  0
   -0.5791   -2.0359   -0.4380 H   0  0  0  0  0  0  0  0  0  0  0  0
  1  2  3  0
  1  5  1  0
  2  3  1  0
  3  4  1  0
  3  6  1  0
  4  7  1  0
  4  8  1  0
  4  9  1  0
 10 11  1  0
 10 12  1  0
 10 13  1  0
 10 14  1  0
 11 15  1  0
 11 16  1  0
 11 17  1  0
M  RAD  1   3   2
M  END
>  <reaction>  (5) 
rxn_876

>  <mol_properties>  (5) 
{"1": {"label": "*0", "atom_type": "Ct"}, "2": {"label": "*1", "atom_type": "Cs"}, "9": {"label": "*4", "atom_type": "Cs"}, "10": {"label": "*3", "atom_type": "Cs"}, "14": {"label": "*2", "atom_type": "H0"}}

>  <type>  (5) 
unop_1

>  <geom_source>  (5) 
Heuristics

$$$$

     RDKit          3D

 17 15  0  0  0  0  0  0  0  0999 V2000
   -0.8206    2.1429   -0.9139 C   0  0  0  0  0  0  0  0  0  0  0  0
   -0.2350    1.4279   -0.1521 C   0  0  0  0  0  0  0  0  0  0  0  0
    0.4560    0.5568    0.7933 C   0  0  0  0  0  3  0  0  0  0  0  0
   -0.3932    0.2219    2.0208 C   0  0  0  0  0  0  0  0  0  0  0  0
   -1.3405    2.7776   -1.5903 H   0  0  0  0  0  0  0  0  0  0  0  0
    1.3847    1.0423    1.1037 H   0  0  0  0  0  0  0  0  0  0  0  0
    0.1615   -0.4290    2.6977 H   0  0  0  0  0  0  0  0  0  0  0  0
   -0.6665    1.1286    2.5608 H   0  0  0  0  0  0  0  0  0  0  0  0
   -1.3118   -0.2869    1.7282 H   0  0  0  0  0  0  0  0  0  0  0  0
    0.4560   -1.8859   -1.6802 C   0  0  0  0  0  0  0  0  0  0  0  0
    0.4560   -1.8859   -0.1574 C   0  0  0  0  0  0  0  0  0  0  0  0
   -0.4249   -1.3773   -2.0761 H   0  0  0  0  0  0  0  0  0  0  0  0
    1.3368   -1.3773   -2.0761 H   0  0  0  0  0  0  0  0  0  0  0  0
    0.4560   -2.9030   -2.0761 H   0  0  0  0  0  0  0  0  0  0  0  0
    0.4560   -0.6653    0.3176 H   0  0  0  0  0  0  0  0  0  0  0  0
    1.3368   -2.3944    0.2384 H   0  0  0  0  0  0  0  0  0  0  0  0
   -0.4249   -2.3944    0.2384 H   0  0  0  0  0  0  0  0  0  0  0  0
  1  2  3  0
  1  5  1  0
  2  3  1  0
  3  4  1  0
  3  6  1  0
  4  7  1  0
  4  8  1  0
  4  9  1  0
 10 11  1  0
 10 12  1  0
 10 13  1  0
 10 14  1  0
 11 15  1  0
 11 16  1  0
 11 17  1  0
M  RAD  1   3   2
M  END
>  <reaction>  (6) 
rxn_876

>  <mol_properties>  (6) 
{"1": {"label": "*0", "atom_type": "Ct"}, "2": {"label": "*1", "atom_type": "Cs"}, "9": {"label": "*4", "atom_type": "Cs"}, "10": {"label": "*3", "atom_type": "Cs"}, "14": {"label": "*2", "atom_type": "H0"}}

>  <type>  (6) 
unop_2

>  <geom_source>  (6) 
Heuristics

$$$$

     RDKit          3D

 17 15  0  0  0  0  0  0  0  0999 V2000
   -1.2234    0.8982    2.3835 C   0  0  0  0  0  0  0  0  0  0  0  0
   -0.6767    0.8982    1.3178 C   0  0  0  0  0  0  0  0  0  0  0  0
    0.0143    0.8954    0.0324 C   0  0  0  0  0  3  0  0  0  0  0  0
    1.5310    0.7557    0.1748 C   0  0  0  0  0  0  0  0  0  0  0  0
   -1.7088    0.8983    3.3296 H   0  0  0  0  0  0  0  0  0  0  0  0
   -0.2267    1.8202   -0.4978 H   0  0  0  0  0  0  0  0  0  0  0  0
    2.0045    0.7583   -0.8077 H   0  0  0  0  0  0  0  0  0  0  0  0
    1.9420    1.5798    0.7581 H   0  0  0  0  0  0  0  0  0  0  0  0
    1.7877   -0.1761    0.6790 H   0  0  0  0  0  0  0  0  0  0  0  0
    0.0143   -1.5474   -2.4411 C   0  0  0  0  0  0  0  0  0  0  0  0
    0.0143   -1.5474   -0.9183 C   0  0  0  0  0  0  0  0  0  0  0  0
   -0.8665   -1.0388   -2.8369 H   0  0  0  0  0  0  0  0  0  0  0  0
    0.8951   -1.0388   -2.8369 H   0  0  0  0  0  0  0  0  0  0  0  0
    0.0143   -2.5645   -2.8369 H   0  0  0  0  0  0  0  0  0  0  0  0
    0.0143   -0.3268   -0.4433 H   0  0  0  0  0  0  0  0  0  0  0  0
    0.8951   -2.0559   -0.5225 H   0  0  0  0  0  0  0  0  0  0  0  0
   -0.8665   -2.0559   -0.5225 H   0  0  0  0  0  0  0  0  0  0  0  0
  1  2  3  0
  1  5  1  0
  2  3  1  0
  3  4  1  0
  3  6  1  0
  4  7  1  0
  4  8  1  0
  4  9  1  0
 10 11  1  0
 10 12  1  0
 10 13  1  0
 10 14  1  0
 11 15  1  0
 11 16  1  0
 11 17  1  0
M  RAD  1   3   2
M  END
>  <reaction>  (7) 
rxn_876

>  <mol_properties>  (7) 
{"1": {"label": "*0", "atom_type": "Ct"}, "2": {"label": "*1", "atom_type": "Cs"}, "9": {"label": "*4", "atom_type": "Cs"}, "10": {"label": "*3", "atom_type": "Cs"}, "14": {"label": "*2", "atom_type": "H0"}}

>  <type>  (7) 
unop_3

>  <geom_source>  (7) 
Heuristics

$$$$

     RDKit          3D

 17 15  0  0  0  0  0  0  0  0999 V2000
    1.8604    1.6730   -0.1062 C   0  0  0  0  0  0  0  0  0  0  0  0
    0.8892    1.0886    0.2806 C   0  0  0  0  0  0  0  0  0  0  0  0
   -0.3077    0.4010    0.7546 C   0  0  0  0  0  3  0  0  0  0  0  0
   -1.4563    1.3604    1.0715 C   0  0  0  0  0  0  0  0  0  0  0  0
    2.7226    2.1920   -0.4496 H   0  0  0  0  0  0  0  0  0  0  0  0
   -0.0503   -0.1791    1.6444 H   0  0  0  0  0  0  0  0  0  0  0  0
   -2.3272    0.8046    1.4210 H   0  0  0  0  0  0  0  0  0  0  0  0
   -1.1652    2.0690    1.8470 H   0  0  0  0  0  0  0  0  0  0  0  0
   -1.7418    1.9275    0.1854 H   0  0  0  0  0  0  0  0  0  0  0  0
   -0.3077   -2.0417   -1.7189 C   0  0  0  0  0  0  0  0  0  0  0  0
   -0.3077   -2.0417   -0.1961 C   0  0  0  0  0  0  0  0  0  0  0  0
   -1.1885   -1.5332   -2.1147 H   0  0  0  0  0  0  0  0  0  0  0  0
    0.5732   -1.5332   -2.1147 H   0  0  0  0  0  0  0  0  0  0  0  0
   -0.3077   -3.0588   -2.1147 H   0  0  0  0  0  0  0  0  0  0  0  0
   -0.3077   -0.8212    0.2789 H   0  0  0  0  0  0  0  0  0  0  0  0
    0.5732   -2.5503    0.1997 H   0  0  0  0  0  0  0  0  0  0  0  0
   -1.1885   -2.5503    0.1997 H   0  0  0  0  0  0  0  0  0  0  0  0
  1  2  3  0
  1  5  1  0
  2  3  1  0
  3  4  1  0
  3  6  1  0
  4  7  1  0
  4  8  1  0
  4  9  1  0
 10 11  1  0
 10 12  1  0
 10 13  1  0
 10 14  1  0
 11 15  1  0
 11 16  1  0
 11 17  1  0
M  RAD  1   3   2
M  END
>  <reaction>  (8) 
rxn_876

>  <mol_properties>  (8) 
{"1": {"label": "*0", "atom_type": "Ct"}, "2": {"label": "*1", "atom_type": "Cs"}, "9": {"label": "*4", "atom_type": "Cs"}, "10": {"label": "*3", "atom_type": "Cs"}, "14": {"label": "*2", "atom_type": "H0"}}

>  <type>  (8) 
unop_4

>  <geom_source>  (8) 
Heuristics

$$$$

     RDKit          3D

 17 15  0  0  0  0  0  0  0  0999 V2000
   -0.1989    0.6490    2.7442 C   0  0  0  0  0  0  0  0  0  0  0  0
   -0.2185    0.6894    1.5474 C   0  0  0  0  0  0  0  0  0  0  0  0
   -0.2185    0.7538    0.0893 C   0  0  0  0  0  3  0  0  0  0  0  0
    0.9744    1.5313   -0.4699 C   0  0  0  0  0  0  0  0  0  0  0  0
   -0.1815    0.6131    3.8068 H   0  0  0  0  0  0  0  0  0  0  0  0
   -1.1524    1.2150   -0.2417 H   0  0  0  0  0  0  0  0  0  0  0  0
    0.9334    1.5535   -1.5595 H   0  0  0  0  0  0  0  0  0  0  0  0
    0.9726    2.5579   -0.1035 H   0  0  0  0  0  0  0  0  0  0  0  0
    1.9137    1.0668   -0.1693 H   0  0  0  0  0  0  0  0  0  0  0  0
   -0.2185   -1.6890   -2.3841 C   0  0  0  0  0  0  0  0  0  0  0  0
   -0.2185   -1.6890   -0.8613 C   0  0  0  0  0  0  0  0  0  0  0  0
   -1.0994   -1.1804   -2.7800 H   0  0  0  0  0  0  0  0  0  0  0  0
    0.6623   -1.1804   -2.7800 H   0  0  0  0  0  0  0  0  0  0  0  0
   -0.2185   -2.7061   -2.7800 H   0  0  0  0  0  0  0  0  0  0  0  0
   -0.2185   -0.4684   -0.3863 H   0  0  0  0  0  0  0  0  0  0  0  0
    0.6623   -2.1975   -0.4655 H   0  0  0  0  0  0  0  0  0  0  0  0
   -1.0994   -2.1975   -0.4655 H   0  0  0  0  0  0  0  0  0  0  0  0
  1  2  3  0
  1  5  1  0
  2  3  1  0
  3  4  1  0
  3  6  1  0
  4  7  1  0
  4  8  1  0
  4  9  1  0
 10 11  1  0
 10 12  1  0
 10 13  1  0
 10 14  1  0
 11 15  1  0
 11 16  1  0
 11 17  1  0
M  RAD  1   3   2
M  END
>  <reaction>  (9) 
rxn_876

>  <mol_properties>  (9) 
{"1": {"label": "*0", "atom_type": "Ct"}, "2": {"label": "*1", "atom_type": "Cs"}, "9": {"label": "*4", "atom_type": "Cs"}, "10": {"label": "*3", "atom_type": "Cs"}, "14": {"label": "*2", "atom_type": "H0"}}

>  <type>  (9) 
unop_5

>  <geom_source>  (9) 
Heuristics

$$$$

     RDKit          3D

 17 15  0  0  0  0  0  0  0  0999 V2000
    2.0957    1.2901    0.8509 C   0  0  0  0  0  0  0  0  0  0  0  0
    0.9687    0.9095    0.7108 C   0  0  0  0  0  0  0  0  0  0  0  0
   -0.4134    0.4726    0.5408 C   0  0  0  0  0  3  0  0  0  0  0  0
   -1.4035    1.6382    0.5035 C   0  0  0  0  0  0  0  0  0  0  0  0
    3.0962    1.6280    0.9752 H   0  0  0  0  0  0  0  0  0  0  0  0
   -0.6694   -0.2079    1.3567 H   0  0  0  0  0  0  0  0  0  0  0  0
   -2.4205    1.2659    0.3754 H   0  0  0  0  0  0  0  0  0  0  0  0
   -1.3600    2.2120    1.4294 H   0  0  0  0  0  0  0  0  0  0  0  0
   -1.1761    2.3121   -0.3226 H   0  0  0  0  0  0  0  0  0  0  0  0
   -0.4134   -1.9701   -1.9327 C   0  0  0  0  0  0  0  0  0  0  0  0
   -0.4134   -1.9701   -0.4099 C   0  0  0  0  0  0  0  0  0  0  0  0
   -1.2942   -1.4616   -2.3286 H   0  0  0  0  0  0  0  0  0  0  0  0
    0.4675   -1.4616   -2.3286 H   0  0  0  0  0  0  0  0  0  0  0  0
   -0.4134   -2.9872   -2.3286 H   0  0  0  0  0  0  0  0  0  0  0  0
   -0.4134   -0.7496    0.0651 H   0  0  0  0  0  0  0  0  0  0  0  0
    0.4675   -2.4787   -0.0141 H   0  0  0  0  0  0  0  0  0  0  0  0
   -1.2942   -2.4787   -0.0141 H   0  0  0  0  0  0  0  0  0  0  0  0
  1  2  3  0
  1  5  1  0
  2  3  1  0
  3  4  1  0
  3  6  1  0
  4  7  1  0
  4  8  1  0
  4  9  1  0
 10 11  1  0
 10 12  1  0
 10 13  1  0
 10 14  1  0
 11 15  1  0
 11 16  1  0
 11 17  1  0
M  RAD  1   3   2
M  END
>  <reaction>  (10) 
rxn_876

>  <mol_properties>  (10) 
{"1": {"label": "*0", "atom_type": "Ct"}, "2": {"label": "*1", "atom_type": "Cs"}, "9": {"label": "*4", "atom_type": "Cs"}, "10": {"label": "*3", "atom_type": "Cs"}, "14": {"label": "*2", "atom_type": "H0"}}

>  <type>  (10) 
unop_6

>  <geom_source>  (10) 
Heuristics

$$$$

     RDKit          3D

 17 15  0  0  0  0  0  0  0  0999 V2000
    1.7803    0.9134    1.8193 C   0  0  0  0  0  0  0  0  0  0  0  0
    0.8006    0.7375    1.1533 C   0  0  0  0  0  0  0  0  0  0  0  0
   -0.3963    0.5512    0.3392 C   0  0  0  0  0  3  0  0  0  0  0  0
   -1.0230    1.8741   -0.1053 C   0  0  0  0  0  0  0  0  0  0  0  0
    2.6502    1.0695    2.4106 H   0  0  0  0  0  0  0  0  0  0  0  0
   -1.1227   -0.0317    0.9112 H   0  0  0  0  0  0  0  0  0  0  0  0
   -1.9117    1.6870   -0.7091 H   0  0  0  0  0  0  0  0  0  0  0  0
   -1.3121    2.4741    0.7577 H   0  0  0  0  0  0  0  0  0  0  0  0
   -0.3179    2.4552   -0.6999 H   0  0  0  0  0  0  0  0  0  0  0  0
   -0.3963   -1.8915   -2.1342 C   0  0  0  0  0  0  0  0  0  0  0  0
   -0.3963   -1.8915   -0.6114 C   0  0  0  0  0  0  0  0  0  0  0  0
   -1.2772   -1.3829   -2.5301 H   0  0  0  0  0  0  0  0  0  0  0  0
    0.4845   -1.3829   -2.5301 H   0  0  0  0  0  0  0  0  0  0  0  0
   -0.3963   -2.9086   -2.5301 H   0  0  0  0  0  0  0  0  0  0  0  0
   -0.3963   -0.6710   -0.1364 H   0  0  0  0  0  0  0  0  0  0  0  0
    0.4845   -2.4001   -0.2156 H   0  0  0  0  0  0  0  0  0  0  0  0
   -1.2772   -2.4001   -0.2156 H   0  0  0  0  0  0  0  0  0  0  0  0
  1  2  3  0
  1  5  1  0
  2  3  1  0
  3  4  1  0
  3  6  1  0
  4  7  1  0
  4  8  1  0
  4  9  1  0
 10 11  1  0
 10 12  1  0
 10 13  1  0
 10 14  1  0
 11 15  1  0
 11 16  1  0
 11 17  1  0
M  RAD  1   3   2
M  END
>  <reaction>  (11) 
rxn_876

>  <mol_properties>  (11) 
{"1": {"label": "*0", "atom_type": "Ct"}, "2": {"label": "*1", "atom_type": "Cs"}, "9": {"label": "*4", "atom_type": "Cs"}, "10": {"label": "*3", "atom_type": "Cs"}, "14": {"label": "*2", "atom_type": "H0"}}

>  <type>  (11) 
unop_7

>  <geom_source>  (11) 
Heuristics

$$$$

     RDKit          3D

 17 15  0  0  0  0  0  0  0  0999 V2000
   -2.0155    1.6227    0.6478 C   0  0  0  0  0  0  0  0  0  0  0  0
   -0.8806    1.2749    0.4877 C   0  0  0  0  0  0  0  0  0  0  0  0
    0.5014    0.8380    0.3177 C   0  0  0  0  0  3  0  0  0  0  0  0
    1.0108    0.0091    1.4982 C   0  0  0  0  0  0  0  0  0  0  0  0
   -3.0230    1.9315    0.7898 H   0  0  0  0  0  0  0  0  0  0  0  0
    1.1337    1.7187    0.1802 H   0  0  0  0  0  0  0  0  0  0  0  0
    2.0444   -0.2947    1.3284 H   0  0  0  0  0  0  0  0  0  0  0  0
    0.9681    0.5858    2.4223 H   0  0  0  0  0  0  0  0  0  0  0  0
    0.4050   -0.8874    1.6311 H   0  0  0  0  0  0  0  0  0  0  0  0
    0.5014   -1.6048   -2.1558 C   0  0  0  0  0  0  0  0  0  0  0  0
    0.5014   -1.6048   -0.6330 C   0  0  0  0  0  0  0  0  0  0  0  0
   -0.3794   -1.0962   -2.5517 H   0  0  0  0  0  0  0  0  0  0  0  0
    1.3823   -1.0962   -2.5517 H   0  0  0  0  0  0  0  0  0  0  0  0
    0.5014   -2.6219   -2.5517 H   0  0  0  0  0  0  0  0  0  0  0  0
    0.5014   -0.3842   -0.1580 H   0  0  0  0  0  0  0  0  0  0  0  0
    1.3823   -2.1133   -0.2372 H   0  0  0  0  0  0  0  0  0  0  0  0
   -0.3794   -2.1133   -0.2372 H   0  0  0  0  0  0  0  0  0  0  0  0
  1  2  3  0
  1  5  1  0
  2  3  1  0
  3  4  1  0
  3  6  1  0
  4  7  1  0
  4  8  1  0
  4  9  1  0
 10 11  1  0
 10 12  1  0
 10 13  1  0
 10 14  1  0
 11 15  1  0
 11 16  1  0
 11 17  1  0
M  RAD  1   3   2
M  END
>  <reaction>  (12) 
rxn_876

>  <mol_properties>  (12) 
{"1": {"label": "*0", "atom_type": "Ct"}, "2": {"label": "*1", "atom_type": "Cs"}, "9": {"label": "*4", "atom_type": "Cs"}, "10": {"label": "*3", "atom_type": "Cs"}, "14": {"label": "*2", "atom_type": "H0"}}

>  <type>  (12) 
unop_8

>  <geom_source>  (12) 
Heuristics

$$$$

     RDKit          3D

 17 15  0  0  0  0  0  0  0  0999 V2000
    1.1679    1.9772   -0.8128 C   0  0  0  0  0  0  0  0  0  0  0  0
    0.6165    1.2459   -0.0410 C   0  0  0  0  0  0  0  0  0  0  0  0
   -0.0745    0.3748    0.9044 C   0  0  0  0  0  3  0  0  0  0  0  0
   -1.3078    1.0335    1.5253 C   0  0  0  0  0  0  0  0  0  0  0  0
    1.6574    2.6264   -1.4979 H   0  0  0  0  0  0  0  0  0  0  0  0
    0.6270    0.0824    1.6898 H   0  0  0  0  0  0  0  0  0  0  0  0
   -1.7910    0.3485    2.2229 H   0  0  0  0  0  0  0  0  0  0  0  0
   -1.0314    1.9388    2.0661 H   0  0  0  0  0  0  0  0  0  0  0  0
   -2.0289    1.3070    0.7549 H   0  0  0  0  0  0  0  0  0  0  0  0
   -0.0745   -2.0679   -1.5691 C   0  0  0  0  0  0  0  0  0  0  0  0
   -0.0745   -2.0679   -0.0463 C   0  0  0  0  0  0  0  0  0  0  0  0
   -0.9553   -1.5593   -1.9649 H   0  0  0  0  0  0  0  0  0  0  0  0
    0.8063   -1.5593   -1.9649 H   0  0  0  0  0  0  0  0  0  0  0  0
   -0.0745   -3.0850   -1.9649 H   0  0  0  0  0  0  0  0  0  0  0  0
   -0.0745   -0.8474    0.4287 H   0  0  0  0  0  0  0  0  0  0  0  0
    0.8063   -2.5765    0.3496 H   0  0  0  0  0  0  0  0  0  0  0  0
   -0.9554   -2.5765    0.3496 H   0  0  0  0  0  0  0  0  0  0  0  0
  1  2  3  0
  1  5  1  0
  2  3  1  0
  3  4  1  0
  3  6  1  0
  4  7  1  0
  4  8  1  0
  4  9  1  0
 10 11  1  0
 10 12  1  0
 10 13  1  0
 10 14  1  0
 11 15  1  0
 11 16  1  0
 11 17  1  0
M  RAD  1   3   2
M  END
>  <reaction>  (13) 
rxn_876

>  <mol_properties>  (13) 
{"1": {"label": "*0", "atom_type": "Ct"}, "2": {"label": "*1", "atom_type": "Cs"}, "9": {"label": "*4", "atom_type": "Cs"}, "10": {"label": "*3", "atom_type": "Cs"}, "14": {"label": "*2", "atom_type": "H0"}}

>  <type>  (13) 
unop_9

>  <geom_source>  (13) 
Heuristics

$$$$

     RDKit          3D

 17 15  0  0  0  0  0  0  0  0999 V2000
   -1.6330    1.9517   -0.2763 C   0  0  0  0  0  0  0  0  0  0  0  0
   -0.6394    1.3946    0.0937 C   0  0  0  0  0  0  0  0  0  0  0  0
    0.5575    0.7071    0.5677 C   0  0  0  0  0  3  0  0  0  0  0  0
    0.3424   -0.0043    1.9048 C   0  0  0  0  0  0  0  0  0  0  0  0
   -2.5151    2.4462   -0.6049 H   0  0  0  0  0  0  0  0  0  0  0  0
    1.3677    1.4349    0.6588 H   0  0  0  0  0  0  0  0  0  0  0  0
    1.2601   -0.5028    2.2194 H   0  0  0  0  0  0  0  0  0  0  0  0
    0.0533    0.7068    2.6788 H   0  0  0  0  0  0  0  0  0  0  0  0
   -0.4459   -0.7527    1.8220 H   0  0  0  0  0  0  0  0  0  0  0  0
    0.5575   -1.7357   -1.9058 C   0  0  0  0  0  0  0  0  0  0  0  0
    0.5575   -1.7357   -0.3830 C   0  0  0  0  0  0  0  0  0  0  0  0
   -0.3233   -1.2271   -2.3016 H   0  0  0  0  0  0  0  0  0  0  0  0
    1.4384   -1.2271   -2.3016 H   0  0  0  0  0  0  0  0  0  0  0  0
    0.5575   -2.7528   -2.3016 H   0  0  0  0  0  0  0  0  0  0  0  0
    0.5575   -0.5151    0.0920 H   0  0  0  0  0  0  0  0  0  0  0  0
    1.4384   -2.2442    0.0128 H   0  0  0  0  0  0  0  0  0  0  0  0
   -0.3233   -2.2442    0.0128 H   0  0  0  0  0  0  0  0  0  0  0  0
  1  2  3  0
  1  5  1  0
  2  3  1  0
  3  4  1  0
  3  6  1  0
  4  7  1  0
  4  8  1  0
  4  9  1  0
 10 11  1  0
 10 12  1  0
 10 13  1  0
 10 14  1  0
 11 15  1  0
 11 16  1  0
 11 17  1  0
M  RAD  1   3   2
M  END
>  <reaction>  (14) 
rxn_876

>  <mol_properties>  (14) 
{"1": {"label": "*0", "atom_type": "Ct"}, "2": {"label": "*1", "atom_type": "Cs"}, "9": {"label": "*4", "atom_type": "Cs"}, "10": {"label": "*3", "atom_type": "Cs"}, "14": {"label": "*2", "atom_type": "H0"}}

>  <type>  (14) 
unop_10

>  <geom_source>  (14) 
Heuristics

$$$$

     RDKit          3D

 17 15  0  0  0  0  0  0  0  0999 V2000
    0.9470    0.6540    2.5326 C   0  0  0  0  0  0  0  0  0  0  0  0
    0.3731    0.6299    1.4816 C   0  0  0  0  0  0  0  0  0  0  0  0
   -0.3179    0.6271    0.1962 C   0  0  0  0  0  3  0  0  0  0  0  0
   -0.1771    1.9519   -0.5557 C   0  0  0  0  0  0  0  0  0  0  0  0
    1.4565    0.6754    3.4656 H   0  0  0  0  0  0  0  0  0  0  0  0
   -1.3746    0.4054    0.3661 H   0  0  0  0  0  0  0  0  0  0  0  0
   -0.7075    1.9043   -1.5074 H   0  0  0  0  0  0  0  0  0  0  0  0
   -0.5905    2.7739    0.0290 H   0  0  0  0  0  0  0  0  0  0  0  0
    0.8714    2.1733   -0.7556 H   0  0  0  0  0  0  0  0  0  0  0  0
   -0.3179   -1.8156   -2.2773 C   0  0  0  0  0  0  0  0  0  0  0  0
   -0.3179   -1.8156   -0.7545 C   0  0  0  0  0  0  0  0  0  0  0  0
   -1.1988   -1.3071   -2.6731 H   0  0  0  0  0  0  0  0  0  0  0  0
    0.5629   -1.3071   -2.6731 H   0  0  0  0  0  0  0  0  0  0  0  0
   -0.3179   -2.8327   -2.6731 H   0  0  0  0  0  0  0  0  0  0  0  0
   -0.3179   -0.5951   -0.2795 H   0  0  0  0  0  0  0  0  0  0  0  0
    0.5629   -2.3242   -0.3586 H   0  0  0  0  0  0  0  0  0  0  0  0
   -1.1988   -2.3242   -0.3586 H   0  0  0  0  0  0  0  0  0  0  0  0
  1  2  3  0
  1  5  1  0
  2  3  1  0
  3  4  1  0
  3  6  1  0
  4  7  1  0
  4  8  1  0
  4  9  1  0
 10 11  1  0
 10 12  1  0
 10 13  1  0
 10 14  1  0
 11 15  1  0
 11 16  1  0
 11 17  1  0
M  RAD  1   3   2
M  END
>  <reaction>  (15) 
rxn_876

>  <mol_properties>  (15) 
{"1": {"label": "*0", "atom_type": "Ct"}, "2": {"label": "*1", "atom_type": "Cs"}, "9": {"label": "*4", "atom_type": "Cs"}, "10": {"label": "*3", "atom_type": "Cs"}, "14": {"label": "*2", "atom_type": "H0"}}

>  <type>  (15) 
unop_11

>  <geom_source>  (15) 
Heuristics

$$$$

     RDKit          3D

 17 15  0  0  0  0  0  0  0  0999 V2000
    0.1989    2.1472   -1.1053 C   0  0  0  0  0  0  0  0  0  0  0  0
    0.2185    1.3679   -0.1960 C   0  0  0  0  0  0  0  0  0  0  0  0
    0.2185    0.4297    0.9220 C   0  0  0  0  0  3  0  0  0  0  0  0
   -0.9744    0.6246    1.8596 C   0  0  0  0  0  0  0  0  0  0  0  0
    0.1815    2.8390   -1.9126 H   0  0  0  0  0  0  0  0  0  0  0  0
    1.1524    0.5458    1.4778 H   0  0  0  0  0  0  0  0  0  0  0  0
   -0.9334   -0.0955    2.6777 H   0  0  0  0  0  0  0  0  0  0  0  0
   -0.9726    1.6289    2.2837 H   0  0  0  0  0  0  0  0  0  0  0  0
   -1.9137    0.4856    1.3242 H   0  0  0  0  0  0  0  0  0  0  0  0
    0.2185   -2.0130   -1.5515 C   0  0  0  0  0  0  0  0  0  0  0  0
    0.2185   -2.0130   -0.0287 C   0  0  0  0  0  0  0  0  0  0  0  0
   -0.6623   -1.5044   -1.9474 H   0  0  0  0  0  0  0  0  0  0  0  0
    1.0994   -1.5044   -1.9474 H   0  0  0  0  0  0  0  0  0  0  0  0
    0.2185   -3.0301   -1.9474 H   0  0  0  0  0  0  0  0  0  0  0  0
    0.2185   -0.7925    0.4463 H   0  0  0  0  0  0  0  0  0  0  0  0
    1.0994   -2.5216    0.3671 H   0  0  0  0  0  0  0  0  0  0  0  0
   -0.6623   -2.5216    0.3671 H   0  0  0  0  0  0  0  0  0  0  0  0
  1  2  3  0
  1  5  1  0
  2  3  1  0
  3  4  1  0
  3  6  1  0
  4  7  1  0
  4  8  1  0
  4  9  1  0
 10 11  1  0
 10 12  1  0
 10 13  1  0
 10 14  1  0
 11 15  1  0
 11 16  1  0
 11 17  1  0
M  RAD  1   3   2
M  END
>  <reaction>  (16) 
rxn_876

>  <mol_properties>  (16) 
{"1": {"label": "*0", "atom_type": "Ct"}, "2": {"label": "*1", "atom_type": "Cs"}, "9": {"label": "*4", "atom_type": "Cs"}, "10": {"label": "*3", "atom_type": "Cs"}, "14": {"label": "*2", "atom_type": "H0"}}

>  <type>  (16) 
unop_12

>  <geom_source>  (16) 
Heuristics

$$$$

     RDKit          3D

 17 15  0  0  0  0  0  0  0  0999 V2000
    0.8861    0.3986   -0.2998 C   0  0  0  0  0  3  0  0  0  0  0  0
    1.1368    1.1714    0.9876 C   0  0  0  0  0  0  0  0  0  0  0  0
   -2.5704   -0.0864    0.1286 C   0  0  0  0  0  0  0  0  0  0  0  0
   -1.3531   -0.9359   -0.1863 C   0  0  0  0  0  0  0  0  0  0  0  0
    2.1095   -0.2797   -0.7413 C   0  0  0  0  0  0  0  0  0  0  0  0
    3.1144   -0.8378   -1.1048 C   0  0  0  0  0  0  0  0  0  0  0  0
    0.5492    1.0965   -1.0952 H   0  0  0  0  0  0  0  0  0  0  0  0
   -0.1267   -0.5687   -0.0766 H   0  0  0  0  0  0  0  0  0  0  0  0
    0.1984    1.6728    1.3041 H   0  0  0  0  0  0  0  0  0  0  0  0
    1.4582    0.4791    1.7949 H   0  0  0  0  0  0  0  0  0  0  0  0
    1.9194    1.9446    0.8302 H   0  0  0  0  0  0  0  0  0  0  0  0
   -3.4952   -0.6870   -0.0023 H   0  0  0  0  0  0  0  0  0  0  0  0
   -2.6007    0.7879   -0.5544 H   0  0  0  0  0  0  0  0  0  0  0  0
   -2.5117    0.2737    1.1768 H   0  0  0  0  0  0  0  0  0  0  0  0
   -1.4001   -1.2930   -1.2367 H   0  0  0  0  0  0  0  0  0  0  0  0
   -1.3109   -1.8086    0.4990 H   0  0  0  0  0  0  0  0  0  0  0  0
    3.9966   -1.3276   -1.4237 H   0  0  0  0  0  0  0  0  0  0  0  0
  1  2  1  0
  1  5  1  0
  1  7  1  0
  2  9  1  0
  2 10  1  0
  2 11  1  0
  3  4  1  0
  3 12  1  0
  3 13  1  0
  3 14  1  0
  4  8  1  0
  4 15  1  0
  4 16  1  0
  5  6  3  0
  6 17  1  0
M  RAD  1   1   2
M  END
>  <reaction>  (17) 
rxn_876

>  <mol_properties>  (17) 
{"1": {"label": "*0", "atom_type": "Ct"}, "2": {"label": "*1", "atom_type": "Cs"}, "9": {"label": "*4", "atom_type": "Cs"}, "10": {"label": "*3", "atom_type": "Cs"}, "14": {"label": "*2", "atom_type": "H0"}}

>  <type>  (17) 
unop_13

>  <geom_source>  (17) 
AutoTST

$$$$
