
     RDKit          3D

 15 15  0  0  0  0  0  0  0  0999 V2000
    2.2031   -0.2111   -0.1693 C   0  0  0  0  0  0  0  0  0  0  0  0
    0.7140   -0.0314   -0.0623 C   0  0  0  0  0  0  0  0  0  0  0  0
   -0.0114    0.5491   -1.0982 C   0  0  0  0  0  0  0  0  0  0  0  0
   -1.3882    0.6886   -1.0150 C   0  0  0  0  0  0  0  0  0  0  0  0
   -2.0661    0.2493    0.1118 C   0  0  0  0  0  0  0  0  0  0  0  0
   -1.3551   -0.3278    1.1528 C   0  0  0  0  0  0  0  0  0  0  0  0
    0.0216   -0.4648    1.0642 C   0  0  0  0  0  0  0  0  0  0  0  0
    2.6776   -0.1836    0.8122 H   0  0  0  0  0  0  0  0  0  0  0  0
    2.4446   -1.1749   -0.6249 H   0  0  0  0  0  0  0  0  0  0  0  0
    2.6532    0.5664   -0.7875 H   0  0  0  0  0  0  0  0  0  0  0  0
    0.5104    0.8989   -1.9819 H   0  0  0  0  0  0  0  0  0  0  0  0
   -1.9328    1.1452   -1.8322 H   0  0  0  0  0  0  0  0  0  0  0  0
   -3.1409    0.3597    0.1800 H   0  0  0  0  0  0  0  0  0  0  0  0
   -1.8736   -0.6702    2.0398 H   0  0  0  0  0  0  0  0  0  0  0  0
    0.5695   -0.9141    1.8849 H   0  0  0  0  0  0  0  0  0  0  0  0
  1  2  1  0
  1  8  1  0
  1  9  1  0
  1 10  1  0
  2  3  2  0
  2  7  1  0
  3  4  1  0
  3 11  1  0
  4  5  2  0
  4 12  1  0
  5  6  1  0
  5 13  1  0
  6  7  2  0
  6 14  1  0
  7 15  1  0
M  END
>  <reaction>  (1) 
rxn_1451

>  <mol_properties>  (1) 
{"0": {"label": "donator", "atom_type": "Cs"}, "7": {"label": "d_hydrogen", "atom_type": "H0"}}

>  <type>  (1) 
r1h

$$$$

     RDKit          3D

  8  7  0  0  0  0  0  0  0  0999 V2000
    1.4097   -0.3618   -0.1144 C   0  0  0  0  0  0  0  0  0  0  0  0
    0.1804   -0.1811   -0.5085 C   0  0  0  0  0  3  0  0  0  0  0  0
   -1.1132    0.2655    0.0162 C   0  0  0  0  0  0  0  0  0  0  0  0
    2.1849   -0.7256   -0.7809 H   0  0  0  0  0  0  0  0  0  0  0  0
    1.7118   -0.1519    0.9143 H   0  0  0  0  0  0  0  0  0  0  0  0
   -1.8662   -0.5198   -0.0756 H   0  0  0  0  0  0  0  0  0  0  0  0
   -1.0300    0.5356    1.0772 H   0  0  0  0  0  0  0  0  0  0  0  0
   -1.4772    1.1391   -0.5284 H   0  0  0  0  0  0  0  0  0  0  0  0
  1  2  2  3
  1  4  1  0
  1  5  1  0
  2  3  1  0
  3  6  1  0
  3  7  1  0
  3  8  1  0
M  RAD  1   2   2
M  END
>  <reaction>  (2) 
rxn_1451

>  <mol_properties>  (2) 
{"1": {"label": "acceptor", "atom_type": "Cd"}}

>  <type>  (2) 
r2

$$$$

     RDKit          3D

  9  8  0  0  0  0  0  0  0  0999 V2000
    1.1303   -0.2933   -0.7510 C   0  0  0  0  0  0  0  0  0  0  0  0
    0.2866    0.4560   -0.0588 C   0  0  0  0  0  0  0  0  0  0  0  0
   -0.9719   -0.0331    0.5823 C   0  0  0  0  0  0  0  0  0  0  0  0
    2.0274    0.1230   -1.1916 H   0  0  0  0  0  0  0  0  0  0  0  0
    0.9532   -1.3530   -0.9023 H   0  0  0  0  0  0  0  0  0  0  0  0
    0.5065    1.5132    0.0659 H   0  0  0  0  0  0  0  0  0  0  0  0
   -0.9526    0.1426    1.6610 H   0  0  0  0  0  0  0  0  0  0  0  0
   -1.1182   -1.1002    0.4106 H   0  0  0  0  0  0  0  0  0  0  0  0
   -1.8412    0.5010    0.1901 H   0  0  0  0  0  0  0  0  0  0  0  0
  1  2  2  3
  1  4  1  0
  1  5  1  0
  2  3  1  0
  2  6  1  0
  3  7  1  0
  3  8  1  0
  3  9  1  0
M  END
>  <reaction>  (3) 
rxn_1451

>  <mol_properties>  (3) 
{"1": {"label": "acceptor", "atom_type": "Cd"}, "8": {"label": "a_hydrogen", "atom_type": "H0"}}

>  <type>  (3) 
r2h

$$$$

     RDKit          3D

 23 22  0  0  0  0  0  0  0  0999 V2000
   -1.5689   -1.6187    1.1915 C   0  0  0  0  0  0  0  0  0  0  0  0
   -0.9520   -1.0999    2.2268 C   0  0  0  0  0  3  0  0  0  0  0  0
   -1.0766   -1.3160    3.6847 C   0  0  0  0  0  0  0  0  0  0  0  0
   -1.3249   -1.3184    0.1773 H   0  0  0  0  0  0  0  0  0  0  0  0
   -2.3490   -2.3699    1.3108 H   0  0  0  0  0  0  0  0  0  0  0  0
   -1.3433   -0.3879    4.1955 H   0  0  0  0  0  0  0  0  0  0  0  0
   -1.8452   -2.0633    3.9075 H   0  0  0  0  0  0  0  0  0  0  0  0
   -0.1312   -1.6600    4.1106 H   0  0  0  0  0  0  0  0  0  0  0  0
    0.8685    0.6924    1.3619 C   0  0  0  0  0  0  0  0  0  0  0  0
    0.7220    0.6504   -0.1027 C   0  0  0  0  0  0  0  0  0  0  0  0
   -0.2022    1.4694   -0.7552 C   0  0  0  0  0  0  0  0  0  0  0  0
   -0.3918    1.3812   -2.1238 C   0  0  0  0  0  0  0  0  0  0  0  0
    0.3374    0.4687   -2.8730 C   0  0  0  0  0  0  0  0  0  0  0  0
    1.2596   -0.3521   -2.2393 C   0  0  0  0  0  0  0  0  0  0  0  0
    1.4481   -0.2626   -0.8707 C   0  0  0  0  0  0  0  0  0  0  0  0
    0.0353   -0.1332    1.8375 H   0  0  0  0  0  0  0  0  0  0  0  0
    1.8285    0.3368    1.7314 H   0  0  0  0  0  0  0  0  0  0  0  0
    0.5873    1.6395    1.8183 H   0  0  0  0  0  0  0  0  0  0  0  0
   -0.7798    2.1808   -0.1762 H   0  0  0  0  0  0  0  0  0  0  0  0
   -1.1124    2.0277   -2.6092 H   0  0  0  0  0  0  0  0  0  0  0  0
    0.1899    0.3995   -3.9432 H   0  0  0  0  0  0  0  0  0  0  0  0
    1.8352   -1.0661   -2.8154 H   0  0  0  0  0  0  0  0  0  0  0  0
    2.1662   -0.9113   -0.3823 H   0  0  0  0  0  0  0  0  0  0  0  0
  1  2  2  3
  1  4  1  0
  1  5  1  0
  2  3  1  0
  3  6  1  0
  3  7  1  0
  3  8  1  0
  9 10  1  0
  9 16  1  0
  9 17  1  0
  9 18  1  0
 10 11  2  0
 10 15  1  0
 11 12  1  0
 11 19  1  0
 12 13  2  0
 12 20  1  0
 13 14  1  0
 13 21  1  0
 14 15  2  0
 14 22  1  0
 15 23  1  0
M  RAD  1   2   2
M  END
>  <reaction>  (4) 
rxn_1451

>  <mol_properties>  (4) 
{"0": {"label": "*4", "atom_type": "Cd"}, "1": {"label": "*3", "atom_type": "Cd"}, "8": {"label": "*1", "atom_type": "Cs"}, "9": {"label": "*0", "atom_type": "Cd"}, "15": {"label": "*2", "atom_type": "H0"}}

>  <type>  (4) 
ts

$$$$

     RDKit          3D

 23 22  0  0  0  0  0  0  0  0999 V2000
   -0.0483   -2.2554    3.0048 C   0  0  0  0  0  0  0  0  0  0  0  0
   -0.7423   -1.4342    2.2326 C   0  0  0  0  0  0  0  0  0  0  0  0
   -2.1422   -0.9818    2.4966 C   0  0  0  0  0  0  0  0  0  0  0  0
    0.9650   -2.5453    2.7569 H   0  0  0  0  0  0  0  0  0  0  0  0
   -0.4702   -2.6682    3.9151 H   0  0  0  0  0  0  0  0  0  0  0  0
   -2.8041   -1.2649    1.6740 H   0  0  0  0  0  0  0  0  0  0  0  0
   -2.5342   -1.4151    3.4176 H   0  0  0  0  0  0  0  0  0  0  0  0
   -2.1898    0.1069    2.5808 H   0  0  0  0  0  0  0  0  0  0  0  0
    0.4356    0.6958    1.2820 C   0  0  0  0  0  0  0  0  0  0  0  0
    0.4356    0.6958   -0.2218 C   0  0  0  0  0  0  0  0  0  0  0  0
    0.4356    1.8901   -0.9358 C   0  0  0  0  0  3  0  0  0  0  0  0
    0.4660    1.8935   -2.3218 C   0  0  0  0  0  0  0  0  0  0  0  0
    0.4956    0.6965   -3.0208 C   0  0  0  0  0  0  0  0  0  0  0  0
    0.4924   -0.5009   -2.3218 C   0  0  0  0  0  0  0  0  0  0  0  0
    0.4619   -0.4982   -0.9358 C   0  0  0  0  0  0  0  0  0  0  0  0
   -0.1543   -0.3709    1.7580 H   0  0  0  0  0  0  0  0  0  0  0  0
    1.4578    0.7071    1.6687 H   0  0  0  0  0  0  0  0  0  0  0  0
   -0.0755    1.5737    1.6787 H   0  0  0  0  0  0  0  0  0  0  0  0
    0.4090    2.8312   -0.3980 H   0  0  0  0  0  0  0  0  0  0  0  0
    0.4634    2.8347   -2.8575 H   0  0  0  0  0  0  0  0  0  0  0  0
    0.5167    0.6967   -4.1032 H   0  0  0  0  0  0  0  0  0  0  0  0
    0.5105   -1.4419   -2.8575 H   0  0  0  0  0  0  0  0  0  0  0  0
    0.4561   -1.4397   -0.3980 H   0  0  0  0  0  0  0  0  0  0  0  0
  1  2  2  3
  1  4  1  0
  1  5  1  0
  2  3  1  0
  2 16  1  0
  3  6  1  0
  3  7  1  0
  3  8  1  0
  9 10  2  3
  9 17  1  0
  9 18  1  0
 10 11  1  0
 10 15  1  0
 11 12  1  0
 11 19  1  0
 12 13  2  0
 12 20  1  0
 13 14  1  0
 13 21  1  0
 14 15  2  0
 14 22  1  0
 15 23  1  0
M  RAD  1  11   2
M  END
>  <reaction>  (5) 
rxn_1451

>  <mol_properties>  (5) 
{"0": {"label": "*4", "atom_type": "Cd"}, "1": {"label": "*3", "atom_type": "Cd"}, "8": {"label": "*1", "atom_type": "Cs"}, "9": {"label": "*0", "atom_type": "Cd"}, "15": {"label": "*2", "atom_type": "H0"}}

>  <type>  (5) 
unop_1

>  <geom_source>  (5) 
Heuristics

$$$$

     RDKit          3D

 23 22  0  0  0  0  0  0  0  0999 V2000
   -0.7531   -2.4780    1.5520 C   0  0  0  0  0  0  0  0  0  0  0  0
   -0.7965   -1.3578    2.2559 C   0  0  0  0  0  0  0  0  0  0  0  0
   -1.1287   -1.2678    3.7104 C   0  0  0  0  0  0  0  0  0  0  0  0
   -0.5050   -2.4756    0.4981 H   0  0  0  0  0  0  0  0  0  0  0  0
   -0.9649   -3.4404    2.0061 H   0  0  0  0  0  0  0  0  0  0  0  0
   -2.0040   -0.6330    3.8709 H   0  0  0  0  0  0  0  0  0  0  0  0
   -1.3356   -2.2515    4.1338 H   0  0  0  0  0  0  0  0  0  0  0  0
   -0.3047   -0.8183    4.2705 H   0  0  0  0  0  0  0  0  0  0  0  0
    0.3814    0.7722    1.3053 C   0  0  0  0  0  0  0  0  0  0  0  0
    0.3814    0.7722   -0.1984 C   0  0  0  0  0  0  0  0  0  0  0  0
    0.3814    1.9665   -0.9125 C   0  0  0  0  0  3  0  0  0  0  0  0
    0.4118    1.9699   -2.2985 C   0  0  0  0  0  0  0  0  0  0  0  0
    0.4414    0.7729   -2.9975 C   0  0  0  0  0  0  0  0  0  0  0  0
    0.4382   -0.4245   -2.2985 C   0  0  0  0  0  0  0  0  0  0  0  0
    0.4077   -0.4218   -0.9125 C   0  0  0  0  0  0  0  0  0  0  0  0
   -0.2085   -0.2945    1.7814 H   0  0  0  0  0  0  0  0  0  0  0  0
    1.4036    0.7835    1.6921 H   0  0  0  0  0  0  0  0  0  0  0  0
   -0.1296    1.6501    1.7020 H   0  0  0  0  0  0  0  0  0  0  0  0
    0.3548    2.9076   -0.3747 H   0  0  0  0  0  0  0  0  0  0  0  0
    0.4092    2.9111   -2.8342 H   0  0  0  0  0  0  0  0  0  0  0  0
    0.4625    0.7731   -4.0799 H   0  0  0  0  0  0  0  0  0  0  0  0
    0.4563   -1.3655   -2.8342 H   0  0  0  0  0  0  0  0  0  0  0  0
    0.4019   -1.3633   -0.3747 H   0  0  0  0  0  0  0  0  0  0  0  0
  1  2  2  3
  1  4  1  0
  1  5  1  0
  2  3  1  0
  2 16  1  0
  3  6  1  0
  3  7  1  0
  3  8  1  0
  9 10  2  3
  9 17  1  0
  9 18  1  0
 10 11  1  0
 10 15  1  0
 11 12  1  0
 11 19  1  0
 12 13  2  0
 12 20  1  0
 13 14  1  0
 13 21  1  0
 14 15  2  0
 14 22  1  0
 15 23  1  0
M  RAD  1  11   2
M  END
>  <reaction>  (6) 
rxn_1451

>  <mol_properties>  (6) 
{"0": {"label": "*4", "atom_type": "Cd"}, "1": {"label": "*3", "atom_type": "Cd"}, "8": {"label": "*1", "atom_type": "Cs"}, "9": {"label": "*0", "atom_type": "Cd"}, "15": {"label": "*2", "atom_type": "H0"}}

>  <type>  (6) 
unop_2

>  <geom_source>  (6) 
Heuristics

$$$$

     RDKit          3D

 23 22  0  0  0  0  0  0  0  0999 V2000
   -0.3113   -1.8964    3.4477 C   0  0  0  0  0  0  0  0  0  0  0  0
   -0.7084   -1.4158    2.2799 C   0  0  0  0  0  0  0  0  0  0  0  0
   -2.1146   -1.4381    1.7735 C   0  0  0  0  0  0  0  0  0  0  0  0
    0.7253   -1.8494    3.7566 H   0  0  0  0  0  0  0  0  0  0  0  0
   -1.0110   -2.3553    4.1384 H   0  0  0  0  0  0  0  0  0  0  0  0
   -2.1799   -1.9881    0.8312 H   0  0  0  0  0  0  0  0  0  0  0  0
   -2.7896   -1.9054    2.4916 H   0  0  0  0  0  0  0  0  0  0  0  0
   -2.4721   -0.4246    1.5739 H   0  0  0  0  0  0  0  0  0  0  0  0
    0.4694    0.7142    1.3293 C   0  0  0  0  0  0  0  0  0  0  0  0
    0.4694    0.7142   -0.1744 C   0  0  0  0  0  0  0  0  0  0  0  0
    0.4694    1.9085   -0.8885 C   0  0  0  0  0  3  0  0  0  0  0  0
    0.4999    1.9118   -2.2745 C   0  0  0  0  0  0  0  0  0  0  0  0
    0.5294    0.7148   -2.9735 C   0  0  0  0  0  0  0  0  0  0  0  0
    0.5263   -0.4826   -2.2745 C   0  0  0  0  0  0  0  0  0  0  0  0
    0.4958   -0.4799   -0.8885 C   0  0  0  0  0  0  0  0  0  0  0  0
   -0.1205   -0.3526    1.8054 H   0  0  0  0  0  0  0  0  0  0  0  0
    1.4916    0.7254    1.7161 H   0  0  0  0  0  0  0  0  0  0  0  0
   -0.0416    1.5921    1.7260 H   0  0  0  0  0  0  0  0  0  0  0  0
    0.4428    2.8496   -0.3507 H   0  0  0  0  0  0  0  0  0  0  0  0
    0.4972    2.8530   -2.8102 H   0  0  0  0  0  0  0  0  0  0  0  0
    0.5506    0.7151   -4.0559 H   0  0  0  0  0  0  0  0  0  0  0  0
    0.5444   -1.4236   -2.8102 H   0  0  0  0  0  0  0  0  0  0  0  0
    0.4899   -1.4213   -0.3507 H   0  0  0  0  0  0  0  0  0  0  0  0
  1  2  2  3
  1  4  1  0
  1  5  1  0
  2  3  1  0
  2 16  1  0
  3  6  1  0
  3  7  1  0
  3  8  1  0
  9 10  2  3
  9 17  1  0
  9 18  1  0
 10 11  1  0
 10 15  1  0
 11 12  1  0
 11 19  1  0
 12 13  2  0
 12 20  1  0
 13 14  1  0
 13 21  1  0
 14 15  2  0
 14 22  1  0
 15 23  1  0
M  RAD  1  11   2
M  END
>  <reaction>  (7) 
rxn_1451

>  <mol_properties>  (7) 
{"0": {"label": "*4", "atom_type": "Cd"}, "1": {"label": "*3", "atom_type": "Cd"}, "8": {"label": "*1", "atom_type": "Cs"}, "9": {"label": "*0", "atom_type": "Cd"}, "15": {"label": "*2", "atom_type": "H0"}}

>  <type>  (7) 
unop_3

>  <geom_source>  (7) 
Heuristics

$$$$

     RDKit          3D

 23 22  0  0  0  0  0  0  0  0999 V2000
   -2.0357   -1.6193    1.9234 C   0  0  0  0  0  0  0  0  0  0  0  0
   -0.7670   -1.4012    2.2318 C   0  0  0  0  0  0  0  0  0  0  0  0
   -0.1143   -1.7936    3.5179 C   0  0  0  0  0  0  0  0  0  0  0  0
   -2.4488   -1.3094    0.9717 H   0  0  0  0  0  0  0  0  0  0  0  0
   -2.7085   -2.1172    2.6138 H   0  0  0  0  0  0  0  0  0  0  0  0
    0.2895   -0.9177    4.0322 H   0  0  0  0  0  0  0  0  0  0  0  0
   -0.8181   -2.2905    4.1868 H   0  0  0  0  0  0  0  0  0  0  0  0
    0.7253   -2.4698    3.3375 H   0  0  0  0  0  0  0  0  0  0  0  0
    0.4108    0.7288    1.2812 C   0  0  0  0  0  0  0  0  0  0  0  0
    0.4108    0.7288   -0.2226 C   0  0  0  0  0  0  0  0  0  0  0  0
    0.4108    1.9232   -0.9366 C   0  0  0  0  0  3  0  0  0  0  0  0
    0.4413    1.9265   -2.3226 C   0  0  0  0  0  0  0  0  0  0  0  0
    0.4708    0.7295   -3.0216 C   0  0  0  0  0  0  0  0  0  0  0  0
    0.4677   -0.4679   -2.3226 C   0  0  0  0  0  0  0  0  0  0  0  0
    0.4372   -0.4652   -0.9366 C   0  0  0  0  0  0  0  0  0  0  0  0
   -0.1791   -0.3379    1.7572 H   0  0  0  0  0  0  0  0  0  0  0  0
    1.4330    0.7401    1.6679 H   0  0  0  0  0  0  0  0  0  0  0  0
   -0.1002    1.6067    1.6779 H   0  0  0  0  0  0  0  0  0  0  0  0
    0.3842    2.8643   -0.3988 H   0  0  0  0  0  0  0  0  0  0  0  0
    0.4386    2.8677   -2.8583 H   0  0  0  0  0  0  0  0  0  0  0  0
    0.4920    0.7297   -4.1040 H   0  0  0  0  0  0  0  0  0  0  0  0
    0.4858   -1.4089   -2.8583 H   0  0  0  0  0  0  0  0  0  0  0  0
    0.4313   -1.4067   -0.3988 H   0  0  0  0  0  0  0  0  0  0  0  0
  1  2  2  3
  1  4  1  0
  1  5  1  0
  2  3  1  0
  2 16  1  0
  3  6  1  0
  3  7  1  0
  3  8  1  0
  9 10  2  3
  9 17  1  0
  9 18  1  0
 10 11  1  0
 10 15  1  0
 11 12  1  0
 11 19  1  0
 12 13  2  0
 12 20  1  0
 13 14  1  0
 13 21  1  0
 14 15  2  0
 14 22  1  0
 15 23  1  0
M  RAD  1  11   2
M  END
>  <reaction>  (8) 
rxn_1451

>  <mol_properties>  (8) 
{"0": {"label": "*4", "atom_type": "Cd"}, "1": {"label": "*3", "atom_type": "Cd"}, "8": {"label": "*1", "atom_type": "Cs"}, "9": {"label": "*0", "atom_type": "Cd"}, "15": {"label": "*2", "atom_type": "H0"}}

>  <type>  (8) 
unop_4

>  <geom_source>  (8) 
Heuristics

$$$$

     RDKit          3D

 23 22  0  0  0  0  0  0  0  0999 V2000
   -0.8417   -1.4914    3.6363 C   0  0  0  0  0  0  0  0  0  0  0  0
   -0.7586   -1.3410    2.3238 C   0  0  0  0  0  0  0  0  0  0  0  0
   -1.2910   -2.3038    1.3119 C   0  0  0  0  0  0  0  0  0  0  0  0
   -0.4346   -0.7550    4.3178 H   0  0  0  0  0  0  0  0  0  0  0  0
   -1.3214   -2.3588    4.0774 H   0  0  0  0  0  0  0  0  0  0  0  0
   -0.4902   -2.6694    0.6640 H   0  0  0  0  0  0  0  0  0  0  0  0
   -1.7656   -3.1620    1.7893 H   0  0  0  0  0  0  0  0  0  0  0  0
   -2.0264   -1.8199    0.6640 H   0  0  0  0  0  0  0  0  0  0  0  0
    0.4193    0.7890    1.3732 C   0  0  0  0  0  0  0  0  0  0  0  0
    0.4193    0.7890   -0.1306 C   0  0  0  0  0  0  0  0  0  0  0  0
    0.4193    1.9833   -0.8446 C   0  0  0  0  0  3  0  0  0  0  0  0
    0.4497    1.9867   -2.2306 C   0  0  0  0  0  0  0  0  0  0  0  0
    0.4792    0.7897   -2.9296 C   0  0  0  0  0  0  0  0  0  0  0  0
    0.4761   -0.4077   -2.2306 C   0  0  0  0  0  0  0  0  0  0  0  0
    0.4456   -0.4050   -0.8446 C   0  0  0  0  0  0  0  0  0  0  0  0
   -0.1706   -0.2777    1.8492 H   0  0  0  0  0  0  0  0  0  0  0  0
    1.4415    0.8002    1.7599 H   0  0  0  0  0  0  0  0  0  0  0  0
   -0.0918    1.6669    1.7699 H   0  0  0  0  0  0  0  0  0  0  0  0
    0.3926    2.9244   -0.3068 H   0  0  0  0  0  0  0  0  0  0  0  0
    0.4471    2.9279   -2.7663 H   0  0  0  0  0  0  0  0  0  0  0  0
    0.5004    0.7899   -4.0120 H   0  0  0  0  0  0  0  0  0  0  0  0
    0.4942   -1.3488   -2.7663 H   0  0  0  0  0  0  0  0  0  0  0  0
    0.4397   -1.3465   -0.3068 H   0  0  0  0  0  0  0  0  0  0  0  0
  1  2  2  3
  1  4  1  0
  1  5  1  0
  2  3  1  0
  2 16  1  0
  3  6  1  0
  3  7  1  0
  3  8  1  0
  9 10  2  3
  9 17  1  0
  9 18  1  0
 10 11  1  0
 10 15  1  0
 11 12  1  0
 11 19  1  0
 12 13  2  0
 12 20  1  0
 13 14  1  0
 13 21  1  0
 14 15  2  0
 14 22  1  0
 15 23  1  0
M  RAD  1  11   2
M  END
>  <reaction>  (9) 
rxn_1451

>  <mol_properties>  (9) 
{"0": {"label": "*4", "atom_type": "Cd"}, "1": {"label": "*3", "atom_type": "Cd"}, "8": {"label": "*1", "atom_type": "Cs"}, "9": {"label": "*0", "atom_type": "Cd"}, "15": {"label": "*2", "atom_type": "H0"}}

>  <type>  (9) 
unop_5

>  <geom_source>  (9) 
Heuristics

$$$$

     RDKit          3D

 23 22  0  0  0  0  0  0  0  0999 V2000
   -2.1086   -1.3588    2.4502 C   0  0  0  0  0  0  0  0  0  0  0  0
   -0.8060   -1.4005    2.2183 C   0  0  0  0  0  0  0  0  0  0  0  0
    0.2067   -2.0429    3.1103 C   0  0  0  0  0  0  0  0  0  0  0  0
   -2.7914   -0.8763    1.7621 H   0  0  0  0  0  0  0  0  0  0  0  0
   -2.5399   -1.8070    3.3392 H   0  0  0  0  0  0  0  0  0  0  0  0
    0.9509   -1.3142    3.4419 H   0  0  0  0  0  0  0  0  0  0  0  0
   -0.2606   -2.4824    3.9924 H   0  0  0  0  0  0  0  0  0  0  0  0
    0.7489   -2.8299    2.5797 H   0  0  0  0  0  0  0  0  0  0  0  0
    0.3718    0.7295    1.2677 C   0  0  0  0  0  0  0  0  0  0  0  0
    0.3718    0.7295   -0.2361 C   0  0  0  0  0  0  0  0  0  0  0  0
    0.3718    1.9239   -0.9501 C   0  0  0  0  0  3  0  0  0  0  0  0
    0.4023    1.9272   -2.3361 C   0  0  0  0  0  0  0  0  0  0  0  0
    0.4318    0.7302   -3.0351 C   0  0  0  0  0  0  0  0  0  0  0  0
    0.4287   -0.4672   -2.3361 C   0  0  0  0  0  0  0  0  0  0  0  0
    0.3982   -0.4645   -0.9501 C   0  0  0  0  0  0  0  0  0  0  0  0
   -0.2180   -0.3372    1.7437 H   0  0  0  0  0  0  0  0  0  0  0  0
    1.3941    0.7408    1.6544 H   0  0  0  0  0  0  0  0  0  0  0  0
   -0.1392    1.6074    1.6644 H   0  0  0  0  0  0  0  0  0  0  0  0
    0.3452    2.8650   -0.4123 H   0  0  0  0  0  0  0  0  0  0  0  0
    0.3997    2.8684   -2.8718 H   0  0  0  0  0  0  0  0  0  0  0  0
    0.4530    0.7304   -4.1175 H   0  0  0  0  0  0  0  0  0  0  0  0
    0.4468   -1.4082   -2.8718 H   0  0  0  0  0  0  0  0  0  0  0  0
    0.3923   -1.4060   -0.4123 H   0  0  0  0  0  0  0  0  0  0  0  0
  1  2  2  3
  1  4  1  0
  1  5  1  0
  2  3  1  0
  2 16  1  0
  3  6  1  0
  3  7  1  0
  3  8  1  0
  9 10  2  3
  9 17  1  0
  9 18  1  0
 10 11  1  0
 10 15  1  0
 11 12  1  0
 11 19  1  0
 12 13  2  0
 12 20  1  0
 13 14  1  0
 13 21  1  0
 14 15  2  0
 14 22  1  0
 15 23  1  0
M  RAD  1  11   2
M  END
>  <reaction>  (10) 
rxn_1451

>  <mol_properties>  (10) 
{"0": {"label": "*4", "atom_type": "Cd"}, "1": {"label": "*3", "atom_type": "Cd"}, "8": {"label": "*1", "atom_type": "Cs"}, "9": {"label": "*0", "atom_type": "Cd"}, "15": {"label": "*2", "atom_type": "H0"}}

>  <type>  (10) 
unop_6

>  <geom_source>  (10) 
Heuristics

$$$$

     RDKit          3D

 23 22  0  0  0  0  0  0  0  0999 V2000
   -1.9107   -1.2256    3.0048 C   0  0  0  0  0  0  0  0  0  0  0  0
   -0.8462   -1.3767    2.2326 C   0  0  0  0  0  0  0  0  0  0  0  0
    0.2812   -2.3219    2.4966 C   0  0  0  0  0  0  0  0  0  0  0  0
   -2.6950   -0.5215    2.7569 H   0  0  0  0  0  0  0  0  0  0  0  0
   -2.0360   -1.8024    3.9151 H   0  0  0  0  0  0  0  0  0  0  0  0
    1.2286   -1.7834    2.5808 H   0  0  0  0  0  0  0  0  0  0  0  0
    0.1227   -2.8843    3.4176 H   0  0  0  0  0  0  0  0  0  0  0  0
    0.3933   -3.0330    1.6740 H   0  0  0  0  0  0  0  0  0  0  0  0
    0.3317    0.7533    1.2819 C   0  0  0  0  0  0  0  0  0  0  0  0
    0.3317    0.7533   -0.2218 C   0  0  0  0  0  0  0  0  0  0  0  0
    0.3317    1.9476   -0.9358 C   0  0  0  0  0  3  0  0  0  0  0  0
    0.3621    1.9509   -2.3218 C   0  0  0  0  0  0  0  0  0  0  0  0
    0.3917    0.7539   -3.0208 C   0  0  0  0  0  0  0  0  0  0  0  0
    0.3885   -0.4434   -2.3218 C   0  0  0  0  0  0  0  0  0  0  0  0
    0.3580   -0.4408   -0.9358 C   0  0  0  0  0  0  0  0  0  0  0  0
   -0.2582   -0.3135    1.7580 H   0  0  0  0  0  0  0  0  0  0  0  0
    1.3539    0.7645    1.6687 H   0  0  0  0  0  0  0  0  0  0  0  0
   -0.1794    1.6312    1.6787 H   0  0  0  0  0  0  0  0  0  0  0  0
    0.3050    2.8887   -0.3980 H   0  0  0  0  0  0  0  0  0  0  0  0
    0.3595    2.8922   -2.8575 H   0  0  0  0  0  0  0  0  0  0  0  0
    0.4128    0.7542   -4.1032 H   0  0  0  0  0  0  0  0  0  0  0  0
    0.4066   -1.3845   -2.8575 H   0  0  0  0  0  0  0  0  0  0  0  0
    0.3521   -1.3822   -0.3980 H   0  0  0  0  0  0  0  0  0  0  0  0
  1  2  2  3
  1  4  1  0
  1  5  1  0
  2  3  1  0
  2 16  1  0
  3  6  1  0
  3  7  1  0
  3  8  1  0
  9 10  2  3
  9 17  1  0
  9 18  1  0
 10 11  1  0
 10 15  1  0
 11 12  1  0
 11 19  1  0
 12 13  2  0
 12 20  1  0
 13 14  1  0
 13 21  1  0
 14 15  2  0
 14 22  1  0
 15 23  1  0
M  RAD  1  11   2
M  END
>  <reaction>  (11) 
rxn_1451

>  <mol_properties>  (11) 
{"0": {"label": "*4", "atom_type": "Cd"}, "1": {"label": "*3", "atom_type": "Cd"}, "8": {"label": "*1", "atom_type": "Cs"}, "9": {"label": "*0", "atom_type": "Cd"}, "15": {"label": "*2", "atom_type": "H0"}}

>  <type>  (11) 
unop_7

>  <geom_source>  (11) 
Heuristics

$$$$

     RDKit          3D

 23 22  0  0  0  0  0  0  0  0999 V2000
   -0.0559   -2.4939    2.4502 C   0  0  0  0  0  0  0  0  0  0  0  0
   -0.7838   -1.4128    2.2183 C   0  0  0  0  0  0  0  0  0  0  0  0
   -1.8663   -0.8966    3.1103 C   0  0  0  0  0  0  0  0  0  0  0  0
    0.7157   -2.8156    1.7621 H   0  0  0  0  0  0  0  0  0  0  0  0
   -0.2062   -3.0974    3.3392 H   0  0  0  0  0  0  0  0  0  0  0  0
   -2.8211   -0.8558    2.5797 H   0  0  0  0  0  0  0  0  0  0  0  0
   -1.9901   -1.5261    3.9924 H   0  0  0  0  0  0  0  0  0  0  0  0
   -1.6448    0.1211    3.4419 H   0  0  0  0  0  0  0  0  0  0  0  0
    0.3941    0.7172    1.2677 C   0  0  0  0  0  0  0  0  0  0  0  0
    0.3941    0.7172   -0.2361 C   0  0  0  0  0  0  0  0  0  0  0  0
    0.3941    1.9116   -0.9501 C   0  0  0  0  0  3  0  0  0  0  0  0
    0.4245    1.9149   -2.3361 C   0  0  0  0  0  0  0  0  0  0  0  0
    0.4541    0.7179   -3.0351 C   0  0  0  0  0  0  0  0  0  0  0  0
    0.4510   -0.4795   -2.3361 C   0  0  0  0  0  0  0  0  0  0  0  0
    0.4204   -0.4768   -0.9501 C   0  0  0  0  0  0  0  0  0  0  0  0
   -0.1958   -0.3495    1.7437 H   0  0  0  0  0  0  0  0  0  0  0  0
    1.4163    0.7285    1.6544 H   0  0  0  0  0  0  0  0  0  0  0  0
   -0.1169    1.5951    1.6644 H   0  0  0  0  0  0  0  0  0  0  0  0
    0.3675    2.8527   -0.4123 H   0  0  0  0  0  0  0  0  0  0  0  0
    0.4219    2.8561   -2.8718 H   0  0  0  0  0  0  0  0  0  0  0  0
    0.4752    0.7181   -4.1175 H   0  0  0  0  0  0  0  0  0  0  0  0
    0.4691   -1.4205   -2.8718 H   0  0  0  0  0  0  0  0  0  0  0  0
    0.4146   -1.4183   -0.4123 H   0  0  0  0  0  0  0  0  0  0  0  0
  1  2  2  3
  1  4  1  0
  1  5  1  0
  2  3  1  0
  2 16  1  0
  3  6  1  0
  3  7  1  0
  3  8  1  0
  9 10  2  3
  9 17  1  0
  9 18  1  0
 10 11  1  0
 10 15  1  0
 11 12  1  0
 11 19  1  0
 12 13  2  0
 12 20  1  0
 13 14  1  0
 13 21  1  0
 14 15  2  0
 14 22  1  0
 15 23  1  0
M  RAD  1  11   2
M  END
>  <reaction>  (12) 
rxn_1451

>  <mol_properties>  (12) 
{"0": {"label": "*4", "atom_type": "Cd"}, "1": {"label": "*3", "atom_type": "Cd"}, "8": {"label": "*1", "atom_type": "Cs"}, "9": {"label": "*0", "atom_type": "Cd"}, "15": {"label": "*2", "atom_type": "H0"}}

>  <type>  (12) 
unop_8

>  <geom_source>  (12) 
Heuristics

$$$$

     RDKit          3D

 23 22  0  0  0  0  0  0  0  0999 V2000
   -1.7245   -1.9409    1.5520 C   0  0  0  0  0  0  0  0  0  0  0  0
   -0.7527   -1.3820    2.2559 C   0  0  0  0  0  0  0  0  0  0  0  0
   -0.4998   -1.6156    3.7104 C   0  0  0  0  0  0  0  0  0  0  0  0
   -1.8544   -1.7294    0.4981 H   0  0  0  0  0  0  0  0  0  0  0  0
   -2.4270   -2.6318    2.0061 H   0  0  0  0  0  0  0  0  0  0  0  0
   -0.5572   -0.6787    4.2705 H   0  0  0  0  0  0  0  0  0  0  0  0
   -1.2230   -2.3138    4.1338 H   0  0  0  0  0  0  0  0  0  0  0  0
    0.5032   -2.0194    3.8709 H   0  0  0  0  0  0  0  0  0  0  0  0
    0.4252    0.7480    1.3053 C   0  0  0  0  0  0  0  0  0  0  0  0
    0.4252    0.7480   -0.1984 C   0  0  0  0  0  0  0  0  0  0  0  0
    0.4252    1.9423   -0.9125 C   0  0  0  0  0  3  0  0  0  0  0  0
    0.4556    1.9457   -2.2985 C   0  0  0  0  0  0  0  0  0  0  0  0
    0.4852    0.7487   -2.9975 C   0  0  0  0  0  0  0  0  0  0  0  0
    0.4820   -0.4487   -2.2985 C   0  0  0  0  0  0  0  0  0  0  0  0
    0.4515   -0.4460   -0.9125 C   0  0  0  0  0  0  0  0  0  0  0  0
   -0.1647   -0.3187    1.7814 H   0  0  0  0  0  0  0  0  0  0  0  0
    1.4474    0.7592    1.6921 H   0  0  0  0  0  0  0  0  0  0  0  0
   -0.0858    1.6259    1.7020 H   0  0  0  0  0  0  0  0  0  0  0  0
    0.3986    2.8834   -0.3747 H   0  0  0  0  0  0  0  0  0  0  0  0
    0.4530    2.8869   -2.8342 H   0  0  0  0  0  0  0  0  0  0  0  0
    0.5063    0.7489   -4.0799 H   0  0  0  0  0  0  0  0  0  0  0  0
    0.5001   -1.3898   -2.8342 H   0  0  0  0  0  0  0  0  0  0  0  0
    0.4457   -1.3875   -0.3747 H   0  0  0  0  0  0  0  0  0  0  0  0
  1  2  2  3
  1  4  1  0
  1  5  1  0
  2  3  1  0
  2 16  1  0
  3  6  1  0
  3  7  1  0
  3  8  1  0
  9 10  2  3
  9 17  1  0
  9 18  1  0
 10 11  1  0
 10 15  1  0
 11 12  1  0
 11 19  1  0
 12 13  2  0
 12 20  1  0
 13 14  1  0
 13 21  1  0
 14 15  2  0
 14 22  1  0
 15 23  1  0
M  RAD  1  11   2
M  END
>  <reaction>  (13) 
rxn_1451

>  <mol_properties>  (13) 
{"0": {"label": "*4", "atom_type": "Cd"}, "1": {"label": "*3", "atom_type": "Cd"}, "8": {"label": "*1", "atom_type": "Cs"}, "9": {"label": "*0", "atom_type": "Cd"}, "15": {"label": "*2", "atom_type": "H0"}}

>  <type>  (13) 
unop_9

>  <geom_source>  (13) 
Heuristics

$$$$

     RDKit          3D

 23 22  0  0  0  0  0  0  0  0999 V2000
   -0.3154   -2.5707    1.9234 C   0  0  0  0  0  0  0  0  0  0  0  0
   -0.8051   -1.3801    2.2318 C   0  0  0  0  0  0  0  0  0  0  0  0
   -1.4844   -1.0359    3.5179 C   0  0  0  0  0  0  0  0  0  0  0  0
    0.1668   -2.7557    0.9717 H   0  0  0  0  0  0  0  0  0  0  0  0
   -0.3794   -3.4052    2.6138 H   0  0  0  0  0  0  0  0  0  0  0  0
   -2.5035   -0.6843    3.3375 H   0  0  0  0  0  0  0  0  0  0  0  0
   -1.5312   -1.8962    4.1868 H   0  0  0  0  0  0  0  0  0  0  0  0
   -0.9573   -0.2282    4.0322 H   0  0  0  0  0  0  0  0  0  0  0  0
    0.3728    0.7499    1.2812 C   0  0  0  0  0  0  0  0  0  0  0  0
    0.3728    0.7499   -0.2226 C   0  0  0  0  0  0  0  0  0  0  0  0
    0.3728    1.9442   -0.9366 C   0  0  0  0  0  3  0  0  0  0  0  0
    0.4032    1.9475   -2.3226 C   0  0  0  0  0  0  0  0  0  0  0  0
    0.4328    0.7505   -3.0216 C   0  0  0  0  0  0  0  0  0  0  0  0
    0.4296   -0.4468   -2.3226 C   0  0  0  0  0  0  0  0  0  0  0  0
    0.3991   -0.4442   -0.9366 C   0  0  0  0  0  0  0  0  0  0  0  0
   -0.2171   -0.3169    1.7572 H   0  0  0  0  0  0  0  0  0  0  0  0
    1.3950    0.7611    1.6679 H   0  0  0  0  0  0  0  0  0  0  0  0
   -0.1382    1.6278    1.6779 H   0  0  0  0  0  0  0  0  0  0  0  0
    0.3462    2.8853   -0.3988 H   0  0  0  0  0  0  0  0  0  0  0  0
    0.4006    2.8888   -2.8583 H   0  0  0  0  0  0  0  0  0  0  0  0
    0.4539    0.7508   -4.1040 H   0  0  0  0  0  0  0  0  0  0  0  0
    0.4478   -1.3879   -2.8583 H   0  0  0  0  0  0  0  0  0  0  0  0
    0.3933   -1.3856   -0.3988 H   0  0  0  0  0  0  0  0  0  0  0  0
  1  2  2  3
  1  4  1  0
  1  5  1  0
  2  3  1  0
  2 16  1  0
  3  6  1  0
  3  7  1  0
  3  8  1  0
  9 10  2  3
  9 17  1  0
  9 18  1  0
 10 11  1  0
 10 15  1  0
 11 12  1  0
 11 19  1  0
 12 13  2  0
 12 20  1  0
 13 14  1  0
 13 21  1  0
 14 15  2  0
 14 22  1  0
 15 23  1  0
M  RAD  1  11   2
M  END
>  <reaction>  (14) 
rxn_1451

>  <mol_properties>  (14) 
{"0": {"label": "*4", "atom_type": "Cd"}, "1": {"label": "*3", "atom_type": "Cd"}, "8": {"label": "*1", "atom_type": "Cs"}, "9": {"label": "*0", "atom_type": "Cd"}, "15": {"label": "*2", "atom_type": "H0"}}

>  <type>  (14) 
unop_10

>  <geom_source>  (14) 
Heuristics

$$$$

     RDKit          3D

 23 22  0  0  0  0  0  0  0  0999 V2000
   -1.4668   -1.2574    3.4477 C   0  0  0  0  0  0  0  0  0  0  0  0
   -0.8487   -1.3383    2.2799 C   0  0  0  0  0  0  0  0  0  0  0  0
   -0.1199   -2.5411    1.7735 C   0  0  0  0  0  0  0  0  0  0  0  0
   -1.9781   -0.3544    3.7566 H   0  0  0  0  0  0  0  0  0  0  0  0
   -1.4835   -2.0940    4.1384 H   0  0  0  0  0  0  0  0  0  0  0  0
    0.9285   -2.3051    1.5739 H   0  0  0  0  0  0  0  0  0  0  0  0
   -0.1568   -3.3612    2.4916 H   0  0  0  0  0  0  0  0  0  0  0  0
   -0.5510   -2.8888    0.8312 H   0  0  0  0  0  0  0  0  0  0  0  0
    0.3292    0.7917    1.3293 C   0  0  0  0  0  0  0  0  0  0  0  0
    0.3292    0.7917   -0.1744 C   0  0  0  0  0  0  0  0  0  0  0  0
    0.3292    1.9860   -0.8885 C   0  0  0  0  0  3  0  0  0  0  0  0
    0.3597    1.9894   -2.2745 C   0  0  0  0  0  0  0  0  0  0  0  0
    0.3892    0.7924   -2.9735 C   0  0  0  0  0  0  0  0  0  0  0  0
    0.3861   -0.4050   -2.2745 C   0  0  0  0  0  0  0  0  0  0  0  0
    0.3555   -0.4023   -0.8885 C   0  0  0  0  0  0  0  0  0  0  0  0
   -0.2607   -0.2750    1.8054 H   0  0  0  0  0  0  0  0  0  0  0  0
    1.3514    0.8030    1.7161 H   0  0  0  0  0  0  0  0  0  0  0  0
   -0.1818    1.6696    1.7260 H   0  0  0  0  0  0  0  0  0  0  0  0
    0.3026    2.9271   -0.3507 H   0  0  0  0  0  0  0  0  0  0  0  0
    0.3570    2.9306   -2.8102 H   0  0  0  0  0  0  0  0  0  0  0  0
    0.4103    0.7926   -4.0559 H   0  0  0  0  0  0  0  0  0  0  0  0
    0.4042   -1.3461   -2.8102 H   0  0  0  0  0  0  0  0  0  0  0  0
    0.3497   -1.3438   -0.3507 H   0  0  0  0  0  0  0  0  0  0  0  0
  1  2  2  3
  1  4  1  0
  1  5  1  0
  2  3  1  0
  2 16  1  0
  3  6  1  0
  3  7  1  0
  3  8  1  0
  9 10  2  3
  9 17  1  0
  9 18  1  0
 10 11  1  0
 10 15  1  0
 11 12  1  0
 11 19  1  0
 12 13  2  0
 12 20  1  0
 13 14  1  0
 13 21  1  0
 14 15  2  0
 14 22  1  0
 15 23  1  0
M  RAD  1  11   2
M  END
>  <reaction>  (15) 
rxn_1451

>  <mol_properties>  (15) 
{"0": {"label": "*4", "atom_type": "Cd"}, "1": {"label": "*3", "atom_type": "Cd"}, "8": {"label": "*1", "atom_type": "Cs"}, "9": {"label": "*0", "atom_type": "Cd"}, "15": {"label": "*2", "atom_type": "H0"}}

>  <type>  (15) 
unop_11

>  <geom_source>  (15) 
Heuristics

$$$$

     RDKit          3D

 23 22  0  0  0  0  0  0  0  0999 V2000
   -1.2608   -2.2491    1.4192 C   0  0  0  0  0  0  0  0  0  0  0  0
   -0.7692   -1.3601    2.2679 C   0  0  0  0  0  0  0  0  0  0  0  0
   -0.8288   -1.4679    3.7575 C   0  0  0  0  0  0  0  0  0  0  0  0
   -1.1849   -2.1119    0.3479 H   0  0  0  0  0  0  0  0  0  0  0  0
   -1.7581   -3.1486    1.7667 H   0  0  0  0  0  0  0  0  0  0  0  0
   -1.3603   -0.6154    4.1882 H   0  0  0  0  0  0  0  0  0  0  0  0
   -1.3343   -2.3821    4.0712 H   0  0  0  0  0  0  0  0  0  0  0  0
    0.1759   -1.4649    4.1882 H   0  0  0  0  0  0  0  0  0  0  0  0
    0.4087    0.7699    1.3173 C   0  0  0  0  0  0  0  0  0  0  0  0
    0.4087    0.7699   -0.1865 C   0  0  0  0  0  0  0  0  0  0  0  0
    0.4087    1.9642   -0.9005 C   0  0  0  0  0  3  0  0  0  0  0  0
    0.4391    1.9676   -2.2865 C   0  0  0  0  0  0  0  0  0  0  0  0
    0.4687    0.7706   -2.9855 C   0  0  0  0  0  0  0  0  0  0  0  0
    0.4656   -0.4268   -2.2865 C   0  0  0  0  0  0  0  0  0  0  0  0
    0.4350   -0.4241   -0.9005 C   0  0  0  0  0  0  0  0  0  0  0  0
   -0.1812   -0.2968    1.7934 H   0  0  0  0  0  0  0  0  0  0  0  0
    1.4309    0.7811    1.7040 H   0  0  0  0  0  0  0  0  0  0  0  0
   -0.1023    1.6478    1.7140 H   0  0  0  0  0  0  0  0  0  0  0  0
    0.3821    2.9053   -0.3627 H   0  0  0  0  0  0  0  0  0  0  0  0
    0.4365    2.9088   -2.8222 H   0  0  0  0  0  0  0  0  0  0  0  0
    0.4898    0.7708   -4.0679 H   0  0  0  0  0  0  0  0  0  0  0  0
    0.4837   -1.3679   -2.8222 H   0  0  0  0  0  0  0  0  0  0  0  0
    0.4292   -1.3656   -0.3627 H   0  0  0  0  0  0  0  0  0  0  0  0
  1  2  2  3
  1  4  1  0
  1  5  1  0
  2  3  1  0
  2 16  1  0
  3  6  1  0
  3  7  1  0
  3  8  1  0
  9 10  2  3
  9 17  1  0
  9 18  1  0
 10 11  1  0
 10 15  1  0
 11 12  1  0
 11 19  1  0
 12 13  2  0
 12 20  1  0
 13 14  1  0
 13 21  1  0
 14 15  2  0
 14 22  1  0
 15 23  1  0
M  RAD  1  11   2
M  END
>  <reaction>  (16) 
rxn_1451

>  <mol_properties>  (16) 
{"0": {"label": "*4", "atom_type": "Cd"}, "1": {"label": "*3", "atom_type": "Cd"}, "8": {"label": "*1", "atom_type": "Cs"}, "9": {"label": "*0", "atom_type": "Cd"}, "15": {"label": "*2", "atom_type": "H0"}}

>  <type>  (16) 
unop_12

>  <geom_source>  (16) 
Heuristics

$$$$

     RDKit          3D

 23 22  0  0  0  0  0  0  0  0999 V2000
   -3.2181   -0.5870    0.8878 C   0  0  0  0  0  0  0  0  0  0  0  0
    1.1487   -0.2011   -0.3677 C   0  0  0  0  0  0  0  0  0  0  0  0
   -2.6249    0.3685   -0.0991 C   0  0  0  0  0  0  0  0  0  0  0  0
    1.5982   -1.0505    0.6561 C   0  0  0  0  0  3  0  0  0  0  0  0
    2.0044    0.7964   -0.8620 C   0  0  0  0  0  0  0  0  0  0  0  0
    2.8985   -0.9234    1.1555 C   0  0  0  0  0  0  0  0  0  0  0  0
    3.7517    0.0596    0.6460 C   0  0  0  0  0  0  0  0  0  0  0  0
    3.3041    0.9205   -0.3601 C   0  0  0  0  0  0  0  0  0  0  0  0
   -0.2579   -0.3088   -0.8750 C   0  0  0  0  0  0  0  0  0  0  0  0
   -3.3845    1.2525   -0.7486 C   0  0  0  0  0  0  0  0  0  0  0  0
   -2.4168   -1.2288    1.3090 H   0  0  0  0  0  0  0  0  0  0  0  0
   -3.9702   -1.2323    0.3866 H   0  0  0  0  0  0  0  0  0  0  0  0
   -3.7027   -0.0264    1.7149 H   0  0  0  0  0  0  0  0  0  0  0  0
   -1.3701    0.3366   -0.3229 H   0  0  0  0  0  0  0  0  0  0  0  0
    0.9441   -1.8102    1.0662 H   0  0  0  0  0  0  0  0  0  0  0  0
    3.2434   -1.5844    1.9402 H   0  0  0  0  0  0  0  0  0  0  0  0
    1.6669    1.4759   -1.6349 H   0  0  0  0  0  0  0  0  0  0  0  0
    4.7572    0.1576    1.0344 H   0  0  0  0  0  0  0  0  0  0  0  0
    3.9628    1.6865   -0.7484 H   0  0  0  0  0  0  0  0  0  0  0  0
   -2.9310    1.9349   -1.4594 H   0  0  0  0  0  0  0  0  0  0  0  0
   -4.4557    1.3014   -0.5772 H   0  0  0  0  0  0  0  0  0  0  0  0
   -0.3230    0.0175   -1.9349 H   0  0  0  0  0  0  0  0  0  0  0  0
   -0.6249   -1.3550   -0.8067 H   0  0  0  0  0  0  0  0  0  0  0  0
  1  3  1  0
  1 11  1  0
  1 12  1  0
  1 13  1  0
  2  9  2  3
  2  4  1  0
  2  5  1  0
  3 10  2  3
  3 14  1  0
  4  6  1  0
  4 15  1  0
  5  8  2  0
  5 17  1  0
  6  7  2  0
  6 16  1  0
  7  8  1  0
  7 18  1  0
  8 19  1  0
  9 22  1  0
  9 23  1  0
 10 20  1  0
 10 21  1  0
M  RAD  1   4   2
M  END
>  <reaction>  (17) 
rxn_1451

>  <mol_properties>  (17) 
{"0": {"label": "*4", "atom_type": "Cd"}, "1": {"label": "*3", "atom_type": "Cd"}, "8": {"label": "*1", "atom_type": "Cs"}, "9": {"label": "*0", "atom_type": "Cd"}, "15": {"label": "*2", "atom_type": "H0"}}

>  <type>  (17) 
unop_13

>  <geom_source>  (17) 
AutoTST

$$$$

     RDKit          3D

 23 22  0  0  0  0  0  0  0  0999 V2000
   -0.7531   -2.4780    1.5520 C   0  0  0  0  0  0  0  0  0  0  0  0
   -0.7965   -1.3578    2.2559 C   0  0  0  0  0  0  0  0  0  0  0  0
   -1.1287   -1.2678    3.7104 C   0  0  0  0  0  0  0  0  0  0  0  0
   -0.5050   -2.4756    0.4981 H   0  0  0  0  0  0  0  0  0  0  0  0
   -0.9649   -3.4404    2.0061 H   0  0  0  0  0  0  0  0  0  0  0  0
   -2.0040   -0.6330    3.8709 H   0  0  0  0  0  0  0  0  0  0  0  0
   -1.3356   -2.2515    4.1338 H   0  0  0  0  0  0  0  0  0  0  0  0
   -0.3047   -0.8183    4.2705 H   0  0  0  0  0  0  0  0  0  0  0  0
    0.3814    0.7722    1.3053 C   0  0  0  0  0  0  0  0  0  0  0  0
    0.3814    0.7722   -0.1984 C   0  0  0  0  0  0  0  0  0  0  0  0
    0.3814    1.9665   -0.9125 C   0  0  0  0  0  3  0  0  0  0  0  0
    0.4118    1.9699   -2.2985 C   0  0  0  0  0  0  0  0  0  0  0  0
    0.4414    0.7729   -2.9975 C   0  0  0  0  0  0  0  0  0  0  0  0
    0.4382   -0.4245   -2.2985 C   0  0  0  0  0  0  0  0  0  0  0  0
    0.4077   -0.4218   -0.9125 C   0  0  0  0  0  0  0  0  0  0  0  0
   -0.2085   -0.2945    1.7814 H   0  0  0  0  0  0  0  0  0  0  0  0
    1.4036    0.7835    1.6921 H   0  0  0  0  0  0  0  0  0  0  0  0
   -0.1296    1.6501    1.7020 H   0  0  0  0  0  0  0  0  0  0  0  0
    0.3548    2.9076   -0.3747 H   0  0  0  0  0  0  0  0  0  0  0  0
    0.4092    2.9111   -2.8342 H   0  0  0  0  0  0  0  0  0  0  0  0
    0.4625    0.7731   -4.0799 H   0  0  0  0  0  0  0  0  0  0  0  0
    0.4563   -1.3655   -2.8342 H   0  0  0  0  0  0  0  0  0  0  0  0
    0.4019   -1.3633   -0.3747 H   0  0  0  0  0  0  0  0  0  0  0  0
  1  2  2  3
  1  4  1  0
  1  5  1  0
  2  3  1  0
  2 16  1  0
  3  6  1  0
  3  7  1  0
  3  8  1  0
  9 10  2  3
  9 17  1  0
  9 18  1  0
 10 11  1  0
 10 15  1  0
 11 12  1  0
 11 19  1  0
 12 13  2  0
 12 20  1  0
 13 14  1  0
 13 21  1  0
 14 15  2  0
 14 22  1  0
 15 23  1  0
M  RAD  1  11   2
M  END
>  <reaction>  (18) 
rxn_1451

>  <mol_properties>  (18) 
{"0": {"label": "*4", "atom_type": "Cd"}, "1": {"label": "*3", "atom_type": "Cd"}, "8": {"label": "*1", "atom_type": "Cs"}, "9": {"label": "*0", "atom_type": "Cd"}, "15": {"label": "*2", "atom_type": "H0"}}

>  <type>  (18) 
unop_14

>  <geom_source>  (18) 
gaussian_log

$$$$
