
     RDKit          3D

  9  8  0  0  0  0  0  0  0  0999 V2000
    1.1303   -0.2933   -0.7510 C   0  0  0  0  0  0  0  0  0  0  0  0
    0.2866    0.4560   -0.0588 C   0  0  0  0  0  0  0  0  0  0  0  0
   -0.9719   -0.0331    0.5823 C   0  0  0  0  0  0  0  0  0  0  0  0
    2.0274    0.1230   -1.1916 H   0  0  0  0  0  0  0  0  0  0  0  0
    0.9532   -1.3530   -0.9023 H   0  0  0  0  0  0  0  0  0  0  0  0
    0.5065    1.5132    0.0659 H   0  0  0  0  0  0  0  0  0  0  0  0
   -0.9526    0.1426    1.6610 H   0  0  0  0  0  0  0  0  0  0  0  0
   -1.1182   -1.1002    0.4106 H   0  0  0  0  0  0  0  0  0  0  0  0
   -1.8412    0.5010    0.1901 H   0  0  0  0  0  0  0  0  0  0  0  0
  1  2  2  3
  1  4  1  0
  1  5  1  0
  2  3  1  0
  2  6  1  0
  3  7  1  0
  3  8  1  0
  3  9  1  0
M  END
>  <reaction>  (1) 
rxn_1001

>  <mol_properties>  (1) 
{"2": {"label": "donator", "atom_type": "Cs"}, "6": {"label": "d_hydrogen", "atom_type": "H0"}}

>  <type>  (1) 
r1h

$$$$

     RDKit          3D

 14 13  0  0  0  0  0  0  0  0999 V2000
    1.0767   -1.6838    1.2931 C   0  0  0  0  0  0  0  0  0  0  0  0
    1.0020   -0.3665    0.9163 C   0  0  0  0  0  0  0  0  0  0  0  0
    1.3965    0.7260    1.6806 C   0  0  0  0  0  3  0  0  0  0  0  0
    1.2666    2.1197    1.1619 C   0  0  0  0  0  0  0  0  0  0  0  0
    1.9670    0.5479    3.0536 C   0  0  0  0  0  0  0  0  0  0  0  0
    0.7448   -2.4705    0.6300 H   0  0  0  0  0  0  0  0  0  0  0  0
    1.4663   -1.9826    2.2578 H   0  0  0  0  0  0  0  0  0  0  0  0
    0.5980   -0.1511   -0.0695 H   0  0  0  0  0  0  0  0  0  0  0  0
    0.6296    2.7241    1.8172 H   0  0  0  0  0  0  0  0  0  0  0  0
    2.2410    2.6200    1.1341 H   0  0  0  0  0  0  0  0  0  0  0  0
    0.8426    2.1448    0.1579 H   0  0  0  0  0  0  0  0  0  0  0  0
    2.8745   -0.0634    3.0328 H   0  0  0  0  0  0  0  0  0  0  0  0
    1.2599    0.0408    3.7173 H   0  0  0  0  0  0  0  0  0  0  0  0
    2.2205    1.5071    3.5054 H   0  0  0  0  0  0  0  0  0  0  0  0
  1  2  2  3
  1  6  1  0
  1  7  1  0
  2  3  1  0
  2  8  1  0
  3  4  1  0
  3  5  1  0
  4  9  1  0
  4 10  1  0
  4 11  1  0
  5 12  1  0
  5 13  1  0
  5 14  1  0
M  RAD  1   3   2
M  END
>  <reaction>  (2) 
rxn_1001

>  <mol_properties>  (2) 
{"2": {"label": "acceptor", "atom_type": "Cs"}}

>  <type>  (2) 
r2

$$$$

     RDKit          3D

 15 14  0  0  0  0  0  0  0  0999 V2000
    2.1256    0.4849   -0.6284 C   0  0  0  0  0  0  0  0  0  0  0  0
    1.1128    0.2141    0.1794 C   0  0  0  0  0  0  0  0  0  0  0  0
   -0.3017   -0.0425   -0.2513 C   0  0  0  0  0  0  0  0  0  0  0  0
   -1.2427    1.0075    0.3423 C   0  0  0  0  0  0  0  0  0  0  0  0
   -0.7381   -1.4526    0.1504 C   0  0  0  0  0  0  0  0  0  0  0  0
    3.1243    0.6602   -0.2486 H   0  0  0  0  0  0  0  0  0  0  0  0
    1.9908    0.5411   -1.7036 H   0  0  0  0  0  0  0  0  0  0  0  0
    1.2888    0.1665    1.2533 H   0  0  0  0  0  0  0  0  0  0  0  0
   -0.3426    0.0343   -1.3424 H   0  0  0  0  0  0  0  0  0  0  0  0
   -0.9570    2.0133    0.0315 H   0  0  0  0  0  0  0  0  0  0  0  0
   -1.2189    0.9728    1.4350 H   0  0  0  0  0  0  0  0  0  0  0  0
   -2.2723    0.8287    0.0254 H   0  0  0  0  0  0  0  0  0  0  0  0
   -0.6964   -1.5744    1.2363 H   0  0  0  0  0  0  0  0  0  0  0  0
   -0.0911   -2.2079   -0.2978 H   0  0  0  0  0  0  0  0  0  0  0  0
   -1.7646   -1.6461   -0.1677 H   0  0  0  0  0  0  0  0  0  0  0  0
  1  2  2  3
  1  6  1  0
  1  7  1  0
  2  3  1  0
  2  8  1  0
  3  4  1  0
  3  5  1  0
  3  9  1  0
  4 10  1  0
  4 11  1  0
  4 12  1  0
  5 13  1  0
  5 14  1  0
  5 15  1  0
M  END
>  <reaction>  (3) 
rxn_1001

>  <mol_properties>  (3) 
{"2": {"label": "acceptor", "atom_type": "Cs"}, "14": {"label": "a_hydrogen", "atom_type": "H0"}}

>  <type>  (3) 
r2h

$$$$

     RDKit          3D

 23 21  0  0  0  0  0  0  0  0999 V2000
   -1.7840   -1.5678    0.0081 C   0  0  0  0  0  0  0  0  0  0  0  0
   -1.0523   -1.0015    0.9695 C   0  0  0  0  0  0  0  0  0  0  0  0
   -0.5351    0.3684    0.9813 C   0  0  0  0  0  0  0  0  0  0  0  0
   -0.2707    0.9461    2.3538 C   0  0  0  0  0  0  0  0  0  0  0  0
   -1.1401    1.3404   -0.0031 C   0  0  0  0  0  0  0  0  0  0  0  0
   -2.0792   -2.6070    0.0735 H   0  0  0  0  0  0  0  0  0  0  0  0
   -2.1173   -1.0185   -0.8635 H   0  0  0  0  0  0  0  0  0  0  0  0
   -0.7538   -1.6178    1.8147 H   0  0  0  0  0  0  0  0  0  0  0  0
    0.3545    1.8391    2.2876 H   0  0  0  0  0  0  0  0  0  0  0  0
   -1.2063    1.2338    2.8446 H   0  0  0  0  0  0  0  0  0  0  0  0
    0.2348    0.2247    2.9987 H   0  0  0  0  0  0  0  0  0  0  0  0
   -2.1997    1.5094    0.2132 H   0  0  0  0  0  0  0  0  0  0  0  0
   -1.0587    0.9738   -1.0277 H   0  0  0  0  0  0  0  0  0  0  0  0
   -0.6278    2.3029    0.0471 H   0  0  0  0  0  0  0  0  0  0  0  0
    1.3507    0.0560   -2.5888 C   0  0  0  0  0  0  0  0  0  0  0  0
    1.6165   -0.5486   -1.4217 C   0  0  0  0  0  0  0  0  0  0  0  0
    1.8860    0.1341   -0.1779 C   0  0  0  0  0  3  0  0  0  0  0  0
    1.1167   -0.5125   -3.4791 H   0  0  0  0  0  0  0  0  0  0  0  0
    1.3724    1.1365   -2.6810 H   0  0  0  0  0  0  0  0  0  0  0  0
    1.5788   -1.6333   -1.3822 H   0  0  0  0  0  0  0  0  0  0  0  0
    0.6738    0.2034    0.4730 H   0  0  0  0  0  0  0  0  0  0  0  0
    2.1502    1.1866   -0.2521 H   0  0  0  0  0  0  0  0  0  0  0  0
    2.4648   -0.4091    0.5638 H   0  0  0  0  0  0  0  0  0  0  0  0
  1  2  2  3
  1  6  1  0
  1  7  1  0
  2  3  1  0
  2  8  1  0
  3  4  1  0
  3  5  1  0
  3 21  1  0
  4  9  1  0
  4 10  1  0
  4 11  1  0
  5 12  1  0
  5 13  1  0
  5 14  1  0
 15 16  2  3
 15 18  1  0
 15 19  1  0
 16 17  1  0
 16 20  1  0
 17 22  1  0
 17 23  1  0
M  RAD  1  17   2
M  END
>  <reaction>  (4) 
rxn_1001

>  <mol_properties>  (4) 
{"1": {"label": "*0", "atom_type": "Cd"}, "2": {"label": "*1", "atom_type": "Cs"}, "15": {"label": "*4", "atom_type": "Cd"}, "16": {"label": "*3", "atom_type": "Cs"}, "20": {"label": "*2", "atom_type": "H0"}}

>  <type>  (4) 
ts

$$$$

     RDKit          3D

 23 21  0  0  0  0  0  0  0  0999 V2000
    0.6629   -0.3830    2.5414 C   0  0  0  0  0  0  0  0  0  0  0  0
   -0.3766    0.2882    2.0716 C   0  0  0  0  0  0  0  0  0  0  0  0
   -0.8542    0.2722    0.6490 C   0  0  0  0  0  3  0  0  0  0  0  0
   -0.7792    1.6742    0.0415 C   0  0  0  0  0  0  0  0  0  0  0  0
   -2.2785   -0.2801    0.5669 C   0  0  0  0  0  0  0  0  0  0  0  0
    0.9529   -0.3254    3.5830 H   0  0  0  0  0  0  0  0  0  0  0  0
    1.2635   -1.0168    1.8974 H   0  0  0  0  0  0  0  0  0  0  0  0
   -0.9546    0.9141    2.7502 H   0  0  0  0  0  0  0  0  0  0  0  0
   -1.1191    1.6657   -0.9962 H   0  0  0  0  0  0  0  0  0  0  0  0
   -1.4160    2.3692    0.5958 H   0  0  0  0  0  0  0  0  0  0  0  0
    0.2408    2.0602    0.0661 H   0  0  0  0  0  0  0  0  0  0  0  0
   -2.9683    0.3456    1.1397 H   0  0  0  0  0  0  0  0  0  0  0  0
   -2.3318   -1.2934    0.9675 H   0  0  0  0  0  0  0  0  0  0  0  0
   -2.6274   -0.3003   -0.4677 H   0  0  0  0  0  0  0  0  0  0  0  0
    1.2537   -0.9911   -3.0992 C   0  0  0  0  0  0  0  0  0  0  0  0
    1.2537   -0.9911   -1.7755 C   0  0  0  0  0  0  0  0  0  0  0  0
    1.2537    0.2311   -0.9150 C   0  0  0  0  0  0  0  0  0  0  0  0
    1.2537   -1.9138   -3.6657 H   0  0  0  0  0  0  0  0  0  0  0  0
    1.2537   -0.0655   -3.6652 H   0  0  0  0  0  0  0  0  0  0  0  0
    1.2537   -1.9437   -1.2520 H   0  0  0  0  0  0  0  0  0  0  0  0
    0.2004    0.2516   -0.1335 H   0  0  0  0  0  0  0  0  0  0  0  0
    1.2537    1.1416   -1.5156 H   0  0  0  0  0  0  0  0  0  0  0  0
    2.1314    0.2482   -0.2637 H   0  0  0  0  0  0  0  0  0  0  0  0
  1  2  2  3
  1  6  1  0
  1  7  1  0
  2  3  1  0
  2  8  1  0
  3  4  1  0
  3  5  1  0
  4  9  1  0
  4 10  1  0
  4 11  1  0
  5 12  1  0
  5 13  1  0
  5 14  1  0
 15 16  2  3
 15 18  1  0
 15 19  1  0
 16 17  1  0
 16 20  1  0
 17 21  1  0
 17 22  1  0
 17 23  1  0
M  RAD  1   3   2
M  END
>  <reaction>  (5) 
rxn_1001

>  <mol_properties>  (5) 
{"1": {"label": "*0", "atom_type": "Cd"}, "2": {"label": "*1", "atom_type": "Cs"}, "15": {"label": "*4", "atom_type": "Cd"}, "16": {"label": "*3", "atom_type": "Cs"}, "20": {"label": "*2", "atom_type": "H0"}}

>  <type>  (5) 
unop_1

>  <geom_source>  (5) 
Heuristics

$$$$

     RDKit          3D

 23 21  0  0  0  0  0  0  0  0999 V2000
   -0.6881   -1.8841    0.4597 C   0  0  0  0  0  0  0  0  0  0  0  0
   -1.0679   -0.8229    1.1534 C   0  0  0  0  0  0  0  0  0  0  0  0
   -0.6824    0.5968    0.8565 C   0  0  0  0  0  3  0  0  0  0  0  0
    0.1023    1.1958    2.0252 C   0  0  0  0  0  0  0  0  0  0  0  0
   -1.9230    1.4368    0.5476 C   0  0  0  0  0  0  0  0  0  0  0  0
   -1.0048   -2.8834    0.7308 H   0  0  0  0  0  0  0  0  0  0  0  0
   -0.0437   -1.7902   -0.4082 H   0  0  0  0  0  0  0  0  0  0  0  0
   -1.7154   -0.9587    2.0187 H   0  0  0  0  0  0  0  0  0  0  0  0
    0.3912    2.2267    1.8102 H   0  0  0  0  0  0  0  0  0  0  0  0
   -0.5049    1.2019    2.9345 H   0  0  0  0  0  0  0  0  0  0  0  0
    1.0067    0.6205    2.2285 H   0  0  0  0  0  0  0  0  0  0  0  0
   -2.6019    1.4514    1.4046 H   0  0  0  0  0  0  0  0  0  0  0  0
   -2.4687    1.0341   -0.3069 H   0  0  0  0  0  0  0  0  0  0  0  0
   -1.6462    2.4692    0.3238 H   0  0  0  0  0  0  0  0  0  0  0  0
    1.4255   -0.6665   -2.8917 C   0  0  0  0  0  0  0  0  0  0  0  0
    1.4255   -0.6665   -1.5679 C   0  0  0  0  0  0  0  0  0  0  0  0
    1.4255    0.5556   -0.7074 C   0  0  0  0  0  0  0  0  0  0  0  0
    1.4255   -1.5893   -3.4582 H   0  0  0  0  0  0  0  0  0  0  0  0
    1.4255    0.2591   -3.4577 H   0  0  0  0  0  0  0  0  0  0  0  0
    1.4255   -1.6192   -1.0444 H   0  0  0  0  0  0  0  0  0  0  0  0
    0.3723    0.5762    0.0740 H   0  0  0  0  0  0  0  0  0  0  0  0
    1.4255    1.4661   -1.3080 H   0  0  0  0  0  0  0  0  0  0  0  0
    2.3033    0.5728   -0.0562 H   0  0  0  0  0  0  0  0  0  0  0  0
  1  2  2  3
  1  6  1  0
  1  7  1  0
  2  3  1  0
  2  8  1  0
  3  4  1  0
  3  5  1  0
  4  9  1  0
  4 10  1  0
  4 11  1  0
  5 12  1  0
  5 13  1  0
  5 14  1  0
 15 16  2  3
 15 18  1  0
 15 19  1  0
 16 17  1  0
 16 20  1  0
 17 21  1  0
 17 22  1  0
 17 23  1  0
M  RAD  1   3   2
M  END
>  <reaction>  (6) 
rxn_1001

>  <mol_properties>  (6) 
{"1": {"label": "*0", "atom_type": "Cd"}, "2": {"label": "*1", "atom_type": "Cs"}, "15": {"label": "*4", "atom_type": "Cd"}, "16": {"label": "*3", "atom_type": "Cs"}, "20": {"label": "*2", "atom_type": "H0"}}

>  <type>  (6) 
unop_2

>  <geom_source>  (6) 
Heuristics

$$$$

     RDKit          3D

 23 21  0  0  0  0  0  0  0  0999 V2000
    0.7706    0.9572    2.4576 C   0  0  0  0  0  0  0  0  0  0  0  0
   -0.4484    0.8704    1.9494 C   0  0  0  0  0  0  0  0  0  0  0  0
   -0.8185    0.1421    0.6905 C   0  0  0  0  0  3  0  0  0  0  0  0
   -1.4002    1.1119   -0.3397 C   0  0  0  0  0  0  0  0  0  0  0  0
   -1.8064   -0.9860    0.9933 C   0  0  0  0  0  0  0  0  0  0  0  0
    0.9672    1.5009    3.3731 H   0  0  0  0  0  0  0  0  0  0  0  0
    1.6191    0.4852    1.9733 H   0  0  0  0  0  0  0  0  0  0  0  0
   -1.2743    1.3582    2.4655 H   0  0  0  0  0  0  0  0  0  0  0  0
   -1.6642    0.5871   -1.2602 H   0  0  0  0  0  0  0  0  0  0  0  0
   -2.3068    1.5861    0.0461 H   0  0  0  0  0  0  0  0  0  0  0  0
   -0.6870    1.9000   -0.5855 H   0  0  0  0  0  0  0  0  0  0  0  0
   -2.7274   -0.5861    1.4263 H   0  0  0  0  0  0  0  0  0  0  0  0
   -1.3840   -1.6999    1.7019 H   0  0  0  0  0  0  0  0  0  0  0  0
   -2.0728   -1.5233    0.0808 H   0  0  0  0  0  0  0  0  0  0  0  0
    1.2894   -1.1212   -3.0577 C   0  0  0  0  0  0  0  0  0  0  0  0
    1.2894   -1.1212   -1.7339 C   0  0  0  0  0  0  0  0  0  0  0  0
    1.2894    0.1010   -0.8734 C   0  0  0  0  0  0  0  0  0  0  0  0
    1.2894   -2.0439   -3.6242 H   0  0  0  0  0  0  0  0  0  0  0  0
    1.2894   -0.1956   -3.6237 H   0  0  0  0  0  0  0  0  0  0  0  0
    1.2894   -2.0738   -1.2104 H   0  0  0  0  0  0  0  0  0  0  0  0
    0.2362    0.1215   -0.0920 H   0  0  0  0  0  0  0  0  0  0  0  0
    1.2894    1.0114   -1.4740 H   0  0  0  0  0  0  0  0  0  0  0  0
    2.1671    0.1181   -0.2222 H   0  0  0  0  0  0  0  0  0  0  0  0
  1  2  2  3
  1  6  1  0
  1  7  1  0
  2  3  1  0
  2  8  1  0
  3  4  1  0
  3  5  1  0
  4  9  1  0
  4 10  1  0
  4 11  1  0
  5 12  1  0
  5 13  1  0
  5 14  1  0
 15 16  2  3
 15 18  1  0
 15 19  1  0
 16 17  1  0
 16 20  1  0
 17 21  1  0
 17 22  1  0
 17 23  1  0
M  RAD  1   3   2
M  END
>  <reaction>  (7) 
rxn_1001

>  <mol_properties>  (7) 
{"1": {"label": "*0", "atom_type": "Cd"}, "2": {"label": "*1", "atom_type": "Cs"}, "15": {"label": "*4", "atom_type": "Cd"}, "16": {"label": "*3", "atom_type": "Cs"}, "20": {"label": "*2", "atom_type": "H0"}}

>  <type>  (7) 
unop_3

>  <geom_source>  (7) 
Heuristics

$$$$

     RDKit          3D

 23 21  0  0  0  0  0  0  0  0999 V2000
   -1.8309   -0.3017   -0.9433 C   0  0  0  0  0  0  0  0  0  0  0  0
   -1.7301    0.2799    0.2412 C   0  0  0  0  0  0  0  0  0  0  0  0
   -0.5069    0.2813    1.1107 C   0  0  0  0  0  3  0  0  0  0  0  0
   -0.7951   -0.4105    2.4443 C   0  0  0  0  0  0  0  0  0  0  0  0
   -0.0098    1.7105    1.3361 C   0  0  0  0  0  0  0  0  0  0  0  0
   -2.7472   -0.2634   -1.5191 H   0  0  0  0  0  0  0  0  0  0  0  0
   -0.9964   -0.8395   -1.3812 H   0  0  0  0  0  0  0  0  0  0  0  0
   -2.5906    0.8104    0.6468 H   0  0  0  0  0  0  0  0  0  0  0  0
    0.0947   -0.4181    3.0773 H   0  0  0  0  0  0  0  0  0  0  0  0
   -1.5866    0.1133    2.9872 H   0  0  0  0  0  0  0  0  0  0  0  0
   -1.1174   -1.4415    2.2917 H   0  0  0  0  0  0  0  0  0  0  0  0
   -0.7735    2.3093    1.8398 H   0  0  0  0  0  0  0  0  0  0  0  0
    0.2300    2.1979    0.3901 H   0  0  0  0  0  0  0  0  0  0  0  0
    0.8847    1.7155    1.9624 H   0  0  0  0  0  0  0  0  0  0  0  0
    1.6011   -0.9820   -2.6376 C   0  0  0  0  0  0  0  0  0  0  0  0
    1.6011   -0.9820   -1.3138 C   0  0  0  0  0  0  0  0  0  0  0  0
    1.6011    0.2402   -0.4533 C   0  0  0  0  0  0  0  0  0  0  0  0
    1.6011   -1.9047   -3.2040 H   0  0  0  0  0  0  0  0  0  0  0  0
    1.6011   -0.0564   -3.2036 H   0  0  0  0  0  0  0  0  0  0  0  0
    1.6011   -1.9346   -0.7903 H   0  0  0  0  0  0  0  0  0  0  0  0
    0.5478    0.2607    0.3282 H   0  0  0  0  0  0  0  0  0  0  0  0
    1.6011    1.1506   -1.0539 H   0  0  0  0  0  0  0  0  0  0  0  0
    2.4788    0.2573    0.1979 H   0  0  0  0  0  0  0  0  0  0  0  0
  1  2  2  3
  1  6  1  0
  1  7  1  0
  2  3  1  0
  2  8  1  0
  3  4  1  0
  3  5  1  0
  4  9  1  0
  4 10  1  0
  4 11  1  0
  5 12  1  0
  5 13  1  0
  5 14  1  0
 15 16  2  3
 15 18  1  0
 15 19  1  0
 16 17  1  0
 16 20  1  0
 17 21  1  0
 17 22  1  0
 17 23  1  0
M  RAD  1   3   2
M  END
>  <reaction>  (8) 
rxn_1001

>  <mol_properties>  (8) 
{"1": {"label": "*0", "atom_type": "Cd"}, "2": {"label": "*1", "atom_type": "Cs"}, "15": {"label": "*4", "atom_type": "Cd"}, "16": {"label": "*3", "atom_type": "Cs"}, "20": {"label": "*2", "atom_type": "H0"}}

>  <type>  (8) 
unop_4

>  <geom_source>  (8) 
Heuristics

$$$$

     RDKit          3D

 23 21  0  0  0  0  0  0  0  0999 V2000
    0.2615    2.2223    1.5404 C   0  0  0  0  0  0  0  0  0  0  0  0
   -0.6955    1.3096    1.5946 C   0  0  0  0  0  0  0  0  0  0  0  0
   -0.7590    0.0622    0.7626 C   0  0  0  0  0  3  0  0  0  0  0  0
   -2.0118    0.0654   -0.1153 C   0  0  0  0  0  0  0  0  0  0  0  0
   -0.7233   -1.1804    1.6542 C   0  0  0  0  0  0  0  0  0  0  0  0
    0.2445    3.1017    2.1719 H   0  0  0  0  0  0  0  0  0  0  0  0
    1.0998    2.1216    0.8590 H   0  0  0  0  0  0  0  0  0  0  0  0
   -1.5206    1.4469    2.2922 H   0  0  0  0  0  0  0  0  0  0  0  0
   -2.0582   -0.8374   -0.7279 H   0  0  0  0  0  0  0  0  0  0  0  0
   -2.9144    0.0974    0.5011 H   0  0  0  0  0  0  0  0  0  0  0  0
   -2.0263    0.9318   -0.7780 H   0  0  0  0  0  0  0  0  0  0  0  0
   -1.5803   -1.1925    2.3332 H   0  0  0  0  0  0  0  0  0  0  0  0
    0.1848   -1.2060    2.2582 H   0  0  0  0  0  0  0  0  0  0  0  0
   -0.7619   -2.0907    1.0522 H   0  0  0  0  0  0  0  0  0  0  0  0
    1.3489   -1.2011   -2.9856 C   0  0  0  0  0  0  0  0  0  0  0  0
    1.3489   -1.2011   -1.6619 C   0  0  0  0  0  0  0  0  0  0  0  0
    1.3489    0.0211   -0.8014 C   0  0  0  0  0  0  0  0  0  0  0  0
    1.3489   -2.1238   -3.5521 H   0  0  0  0  0  0  0  0  0  0  0  0
    1.3489   -0.2755   -3.5516 H   0  0  0  0  0  0  0  0  0  0  0  0
    1.3489   -2.1537   -1.1384 H   0  0  0  0  0  0  0  0  0  0  0  0
    0.2957    0.0417   -0.0199 H   0  0  0  0  0  0  0  0  0  0  0  0
    1.3489    0.9316   -1.4020 H   0  0  0  0  0  0  0  0  0  0  0  0
    2.2267    0.0382   -0.1501 H   0  0  0  0  0  0  0  0  0  0  0  0
  1  2  2  3
  1  6  1  0
  1  7  1  0
  2  3  1  0
  2  8  1  0
  3  4  1  0
  3  5  1  0
  4  9  1  0
  4 10  1  0
  4 11  1  0
  5 12  1  0
  5 13  1  0
  5 14  1  0
 15 16  2  3
 15 18  1  0
 15 19  1  0
 16 17  1  0
 16 20  1  0
 17 21  1  0
 17 22  1  0
 17 23  1  0
M  RAD  1   3   2
M  END
>  <reaction>  (9) 
rxn_1001

>  <mol_properties>  (9) 
{"1": {"label": "*0", "atom_type": "Cd"}, "2": {"label": "*1", "atom_type": "Cs"}, "15": {"label": "*4", "atom_type": "Cd"}, "16": {"label": "*3", "atom_type": "Cs"}, "20": {"label": "*2", "atom_type": "H0"}}

>  <type>  (9) 
unop_5

>  <geom_source>  (9) 
Heuristics

$$$$

     RDKit          3D

 23 21  0  0  0  0  0  0  0  0999 V2000
   -1.9095    0.7451   -0.9491 C   0  0  0  0  0  0  0  0  0  0  0  0
   -1.6476    0.8485    0.3441 C   0  0  0  0  0  0  0  0  0  0  0  0
   -0.5447    0.1353    1.0702 C   0  0  0  0  0  3  0  0  0  0  0  0
   -1.1191   -0.7857    2.1482 C   0  0  0  0  0  0  0  0  0  0  0  0
    0.4349    1.1401    1.6794 C   0  0  0  0  0  0  0  0  0  0  0  0
   -2.7241    1.2904   -1.4093 H   0  0  0  0  0  0  0  0  0  0  0  0
   -1.3156    0.1083   -1.5963 H   0  0  0  0  0  0  0  0  0  0  0  0
   -2.2671    1.4985    0.9606 H   0  0  0  0  0  0  0  0  0  0  0  0
   -0.3200   -1.3123    2.6742 H   0  0  0  0  0  0  0  0  0  0  0  0
   -1.6824   -0.2096    2.8874 H   0  0  0  0  0  0  0  0  0  0  0  0
   -1.7924   -1.5268    1.7152 H   0  0  0  0  0  0  0  0  0  0  0  0
   -0.0734    1.7845    2.4020 H   0  0  0  0  0  0  0  0  0  0  0  0
    0.8740    1.7778    0.9109 H   0  0  0  0  0  0  0  0  0  0  0  0
    1.2432    0.6251    2.2026 H   0  0  0  0  0  0  0  0  0  0  0  0
    1.5632   -1.1280   -2.6781 C   0  0  0  0  0  0  0  0  0  0  0  0
    1.5632   -1.1280   -1.3543 C   0  0  0  0  0  0  0  0  0  0  0  0
    1.5632    0.0942   -0.4938 C   0  0  0  0  0  0  0  0  0  0  0  0
    1.5632   -2.0507   -3.2445 H   0  0  0  0  0  0  0  0  0  0  0  0
    1.5632   -0.2024   -3.2441 H   0  0  0  0  0  0  0  0  0  0  0  0
    1.5632   -2.0806   -0.8308 H   0  0  0  0  0  0  0  0  0  0  0  0
    0.5100    0.1147    0.2877 H   0  0  0  0  0  0  0  0  0  0  0  0
    1.5632    1.0047   -1.0944 H   0  0  0  0  0  0  0  0  0  0  0  0
    2.4410    0.1113    0.1574 H   0  0  0  0  0  0  0  0  0  0  0  0
  1  2  2  3
  1  6  1  0
  1  7  1  0
  2  3  1  0
  2  8  1  0
  3  4  1  0
  3  5  1  0
  4  9  1  0
  4 10  1  0
  4 11  1  0
  5 12  1  0
  5 13  1  0
  5 14  1  0
 15 16  2  3
 15 18  1  0
 15 19  1  0
 16 17  1  0
 16 20  1  0
 17 21  1  0
 17 22  1  0
 17 23  1  0
M  RAD  1   3   2
M  END
>  <reaction>  (10) 
rxn_1001

>  <mol_properties>  (10) 
{"1": {"label": "*0", "atom_type": "Cd"}, "2": {"label": "*1", "atom_type": "Cs"}, "15": {"label": "*4", "atom_type": "Cd"}, "16": {"label": "*3", "atom_type": "Cs"}, "20": {"label": "*2", "atom_type": "H0"}}

>  <type>  (10) 
unop_6

>  <geom_source>  (10) 
Heuristics

$$$$

     RDKit          3D

 23 21  0  0  0  0  0  0  0  0999 V2000
   -1.5854    1.7909   -0.5461 C   0  0  0  0  0  0  0  0  0  0  0  0
   -1.4034    1.2810    0.6616 C   0  0  0  0  0  0  0  0  0  0  0  0
   -0.6164    0.0423    0.9756 C   0  0  0  0  0  3  0  0  0  0  0  0
   -1.5156   -1.0177    1.6145 C   0  0  0  0  0  0  0  0  0  0  0  0
    0.5657    0.3739    1.8883 C   0  0  0  0  0  0  0  0  0  0  0  0
   -2.1669    2.6910   -0.7012 H   0  0  0  0  0  0  0  0  0  0  0  0
   -1.1571    1.3236   -1.4267 H   0  0  0  0  0  0  0  0  0  0  0  0
   -1.8499    1.7797    1.5208 H   0  0  0  0  0  0  0  0  0  0  0  0
   -0.9484   -1.9237    1.8379 H   0  0  0  0  0  0  0  0  0  0  0  0
   -1.9394   -0.6492    2.5526 H   0  0  0  0  0  0  0  0  0  0  0  0
   -2.3419   -1.2836    0.9537 H   0  0  0  0  0  0  0  0  0  0  0  0
    0.2155    0.7917    2.8362 H   0  0  0  0  0  0  0  0  0  0  0  0
    1.2294    1.1044    1.4236 H   0  0  0  0  0  0  0  0  0  0  0  0
    1.1454   -0.5237    2.1134 H   0  0  0  0  0  0  0  0  0  0  0  0
    1.4915   -1.2210   -2.7727 C   0  0  0  0  0  0  0  0  0  0  0  0
    1.4915   -1.2210   -1.4489 C   0  0  0  0  0  0  0  0  0  0  0  0
    1.4915    0.0012   -0.5884 C   0  0  0  0  0  0  0  0  0  0  0  0
    1.4915   -2.1437   -3.3391 H   0  0  0  0  0  0  0  0  0  0  0  0
    1.4915   -0.2954   -3.3387 H   0  0  0  0  0  0  0  0  0  0  0  0
    1.4915   -2.1736   -0.9254 H   0  0  0  0  0  0  0  0  0  0  0  0
    0.4382    0.0217    0.1931 H   0  0  0  0  0  0  0  0  0  0  0  0
    1.4915    0.9116   -1.1890 H   0  0  0  0  0  0  0  0  0  0  0  0
    2.3692    0.0183    0.0628 H   0  0  0  0  0  0  0  0  0  0  0  0
  1  2  2  3
  1  6  1  0
  1  7  1  0
  2  3  1  0
  2  8  1  0
  3  4  1  0
  3  5  1  0
  4  9  1  0
  4 10  1  0
  4 11  1  0
  5 12  1  0
  5 13  1  0
  5 14  1  0
 15 16  2  3
 15 18  1  0
 15 19  1  0
 16 17  1  0
 16 20  1  0
 17 21  1  0
 17 22  1  0
 17 23  1  0
M  RAD  1   3   2
M  END
>  <reaction>  (11) 
rxn_1001

>  <mol_properties>  (11) 
{"1": {"label": "*0", "atom_type": "Cd"}, "2": {"label": "*1", "atom_type": "Cs"}, "15": {"label": "*4", "atom_type": "Cd"}, "16": {"label": "*3", "atom_type": "Cs"}, "20": {"label": "*2", "atom_type": "H0"}}

>  <type>  (11) 
unop_7

>  <geom_source>  (11) 
Heuristics

$$$$

     RDKit          3D

 23 21  0  0  0  0  0  0  0  0999 V2000
    0.2689   -1.3611    2.0423 C   0  0  0  0  0  0  0  0  0  0  0  0
   -0.4836   -0.2769    1.9425 C   0  0  0  0  0  0  0  0  0  0  0  0
   -0.8410    0.4218    0.6633 C   0  0  0  0  0  3  0  0  0  0  0  0
   -0.3036    1.8541    0.6654 C   0  0  0  0  0  0  0  0  0  0  0  0
   -2.3558    0.4100    0.4499 C   0  0  0  0  0  0  0  0  0  0  0  0
    0.4875   -1.8148    3.0009 H   0  0  0  0  0  0  0  0  0  0  0  0
    0.6949   -1.8355    1.1644 H   0  0  0  0  0  0  0  0  0  0  0  0
   -0.8930    0.1699    2.8476 H   0  0  0  0  0  0  0  0  0  0  0  0
   -0.5552    2.3639   -0.2670 H   0  0  0  0  0  0  0  0  0  0  0  0
   -0.7391    2.4281    1.4879 H   0  0  0  0  0  0  0  0  0  0  0  0
    0.7809    1.8678    0.7830 H   0  0  0  0  0  0  0  0  0  0  0  0
   -2.8640    0.9329    1.2648 H   0  0  0  0  0  0  0  0  0  0  0  0
   -2.7405   -0.6101    0.4133 H   0  0  0  0  0  0  0  0  0  0  0  0
   -2.6197    0.9111   -0.4837 H   0  0  0  0  0  0  0  0  0  0  0  0
    1.2670   -0.8415   -3.0849 C   0  0  0  0  0  0  0  0  0  0  0  0
    1.2670   -0.8415   -1.7612 C   0  0  0  0  0  0  0  0  0  0  0  0
    1.2670    0.3807   -0.9007 C   0  0  0  0  0  0  0  0  0  0  0  0
    1.2670   -1.7642   -3.6514 H   0  0  0  0  0  0  0  0  0  0  0  0
    1.2670    0.0841   -3.6509 H   0  0  0  0  0  0  0  0  0  0  0  0
    1.2670   -1.7941   -1.2377 H   0  0  0  0  0  0  0  0  0  0  0  0
    0.2137    0.4012   -0.1192 H   0  0  0  0  0  0  0  0  0  0  0  0
    1.2670    1.2911   -1.5013 H   0  0  0  0  0  0  0  0  0  0  0  0
    2.1447    0.3978   -0.2495 H   0  0  0  0  0  0  0  0  0  0  0  0
  1  2  2  3
  1  6  1  0
  1  7  1  0
  2  3  1  0
  2  8  1  0
  3  4  1  0
  3  5  1  0
  4  9  1  0
  4 10  1  0
  4 11  1  0
  5 12  1  0
  5 13  1  0
  5 14  1  0
 15 16  2  3
 15 18  1  0
 15 19  1  0
 16 17  1  0
 16 20  1  0
 17 21  1  0
 17 22  1  0
 17 23  1  0
M  RAD  1   3   2
M  END
>  <reaction>  (12) 
rxn_1001

>  <mol_properties>  (12) 
{"1": {"label": "*0", "atom_type": "Cd"}, "2": {"label": "*1", "atom_type": "Cs"}, "15": {"label": "*4", "atom_type": "Cd"}, "16": {"label": "*3", "atom_type": "Cs"}, "20": {"label": "*2", "atom_type": "H0"}}

>  <type>  (12) 
unop_8

>  <geom_source>  (12) 
Heuristics

$$$$

     RDKit          3D

 23 21  0  0  0  0  0  0  0  0999 V2000
   -1.4925   -1.1063   -0.6450 C   0  0  0  0  0  0  0  0  0  0  0  0
   -1.6351   -0.2745    0.3745 C   0  0  0  0  0  0  0  0  0  0  0  0
   -0.5194    0.4392    1.0803 C   0  0  0  0  0  3  0  0  0  0  0  0
   -0.4633    0.0255    2.5520 C   0  0  0  0  0  0  0  0  0  0  0  0
   -0.6824    1.9545    0.9475 C   0  0  0  0  0  0  0  0  0  0  0  0
   -2.3441   -1.5885   -1.1084 H   0  0  0  0  0  0  0  0  0  0  0  0
   -0.5141   -1.3355   -1.0541 H   0  0  0  0  0  0  0  0  0  0  0  0
   -2.6344   -0.0701    0.7567 H   0  0  0  0  0  0  0  0  0  0  0  0
    0.3519    0.5372    3.0677 H   0  0  0  0  0  0  0  0  0  0  0  0
   -1.3955    0.2850    3.0612 H   0  0  0  0  0  0  0  0  0  0  0  0
   -0.3129   -1.0502    2.6534 H   0  0  0  0  0  0  0  0  0  0  0  0
   -1.6224    2.2823    1.4000 H   0  0  0  0  0  0  0  0  0  0  0  0
   -0.6888    2.2598   -0.0998 H   0  0  0  0  0  0  0  0  0  0  0  0
    0.1316    2.4778    1.4536 H   0  0  0  0  0  0  0  0  0  0  0  0
    1.5885   -0.8241   -2.6680 C   0  0  0  0  0  0  0  0  0  0  0  0
    1.5885   -0.8241   -1.3442 C   0  0  0  0  0  0  0  0  0  0  0  0
    1.5885    0.3981   -0.4837 C   0  0  0  0  0  0  0  0  0  0  0  0
    1.5885   -1.7468   -3.2345 H   0  0  0  0  0  0  0  0  0  0  0  0
    1.5885    0.1015   -3.2340 H   0  0  0  0  0  0  0  0  0  0  0  0
    1.5885   -1.7767   -0.8207 H   0  0  0  0  0  0  0  0  0  0  0  0
    0.5352    0.4187    0.2978 H   0  0  0  0  0  0  0  0  0  0  0  0
    1.5885    1.3086   -1.0843 H   0  0  0  0  0  0  0  0  0  0  0  0
    2.4662    0.4152    0.1675 H   0  0  0  0  0  0  0  0  0  0  0  0
  1  2  2  3
  1  6  1  0
  1  7  1  0
  2  3  1  0
  2  8  1  0
  3  4  1  0
  3  5  1  0
  4  9  1  0
  4 10  1  0
  4 11  1  0
  5 12  1  0
  5 13  1  0
  5 14  1  0
 15 16  2  3
 15 18  1  0
 15 19  1  0
 16 17  1  0
 16 20  1  0
 17 21  1  0
 17 22  1  0
 17 23  1  0
M  RAD  1   3   2
M  END
>  <reaction>  (13) 
rxn_1001

>  <mol_properties>  (13) 
{"1": {"label": "*0", "atom_type": "Cd"}, "2": {"label": "*1", "atom_type": "Cs"}, "15": {"label": "*4", "atom_type": "Cd"}, "16": {"label": "*3", "atom_type": "Cs"}, "20": {"label": "*2", "atom_type": "H0"}}

>  <type>  (13) 
unop_9

>  <geom_source>  (13) 
Heuristics

$$$$

     RDKit          3D

 23 21  0  0  0  0  0  0  0  0999 V2000
   -0.2277   -1.8519    1.2583 C   0  0  0  0  0  0  0  0  0  0  0  0
   -0.7368   -0.6805    1.6053 C   0  0  0  0  0  0  0  0  0  0  0  0
   -0.7781    0.5436    0.7381 C   0  0  0  0  0  3  0  0  0  0  0  0
    0.0200    1.6816    1.3770 C   0  0  0  0  0  0  0  0  0  0  0  0
   -2.2244    0.9714    0.4816 C   0  0  0  0  0  0  0  0  0  0  0  0
   -0.2309   -2.6962    1.9362 H   0  0  0  0  0  0  0  0  0  0  0  0
    0.2126   -2.0084    0.2790 H   0  0  0  0  0  0  0  0  0  0  0  0
   -1.1698   -0.5633    2.5978 H   0  0  0  0  0  0  0  0  0  0  0  0
   -0.0014    2.5723    0.7456 H   0  0  0  0  0  0  0  0  0  0  0  0
   -0.4029    1.9510    2.3487 H   0  0  0  0  0  0  0  0  0  0  0  0
    1.0611    1.3945    1.5312 H   0  0  0  0  0  0  0  0  0  0  0  0
   -2.7267    1.2156    1.4216 H   0  0  0  0  0  0  0  0  0  0  0  0
   -2.7901    0.1758   -0.0052 H   0  0  0  0  0  0  0  0  0  0  0  0
   -2.2592    1.8578   -0.1552 H   0  0  0  0  0  0  0  0  0  0  0  0
    1.3298   -0.7197   -3.0101 C   0  0  0  0  0  0  0  0  0  0  0  0
    1.3298   -0.7197   -1.6864 C   0  0  0  0  0  0  0  0  0  0  0  0
    1.3298    0.5025   -0.8259 C   0  0  0  0  0  0  0  0  0  0  0  0
    1.3298   -1.6424   -3.5766 H   0  0  0  0  0  0  0  0  0  0  0  0
    1.3298    0.2059   -3.5761 H   0  0  0  0  0  0  0  0  0  0  0  0
    1.3298   -1.6723   -1.1628 H   0  0  0  0  0  0  0  0  0  0  0  0
    0.2765    0.5230   -0.0444 H   0  0  0  0  0  0  0  0  0  0  0  0
    1.3298    1.4130   -1.4264 H   0  0  0  0  0  0  0  0  0  0  0  0
    2.2075    0.5196   -0.1746 H   0  0  0  0  0  0  0  0  0  0  0  0
  1  2  2  3
  1  6  1  0
  1  7  1  0
  2  3  1  0
  2  8  1  0
  3  4  1  0
  3  5  1  0
  4  9  1  0
  4 10  1  0
  4 11  1  0
  5 12  1  0
  5 13  1  0
  5 14  1  0
 15 16  2  3
 15 18  1  0
 15 19  1  0
 16 17  1  0
 16 20  1  0
 17 21  1  0
 17 22  1  0
 17 23  1  0
M  RAD  1   3   2
M  END
>  <reaction>  (14) 
rxn_1001

>  <mol_properties>  (14) 
{"1": {"label": "*0", "atom_type": "Cd"}, "2": {"label": "*1", "atom_type": "Cs"}, "15": {"label": "*4", "atom_type": "Cd"}, "16": {"label": "*3", "atom_type": "Cs"}, "20": {"label": "*2", "atom_type": "H0"}}

>  <type>  (14) 
unop_10

>  <geom_source>  (14) 
Heuristics

$$$$

     RDKit          3D

 23 21  0  0  0  0  0  0  0  0999 V2000
   -0.7956    2.4715    0.3069 C   0  0  0  0  0  0  0  0  0  0  0  0
   -1.0551    1.4570    1.1163 C   0  0  0  0  0  0  0  0  0  0  0  0
   -0.6951    0.0228    0.8600 C   0  0  0  0  0  3  0  0  0  0  0  0
   -1.9545   -0.8428    0.7900 C   0  0  0  0  0  0  0  0  0  0  0  0
    0.2592   -0.4925    1.9390 C   0  0  0  0  0  0  0  0  0  0  0  0
   -1.0848    3.4850    0.5552 H   0  0  0  0  0  0  0  0  0  0  0  0
   -0.2820    2.3233   -0.6374 H   0  0  0  0  0  0  0  0  0  0  0  0
   -1.5727    1.6468    2.0557 H   0  0  0  0  0  0  0  0  0  0  0  0
   -1.6974   -1.8863    0.5963 H   0  0  0  0  0  0  0  0  0  0  0  0
   -2.5022   -0.8038    1.7355 H   0  0  0  0  0  0  0  0  0  0  0  0
   -2.6239   -0.5011   -0.0008 H   0  0  0  0  0  0  0  0  0  0  0  0
   -0.2102   -0.4411    2.9252 H   0  0  0  0  0  0  0  0  0  0  0  0
    1.1746    0.1000    1.9709 H   0  0  0  0  0  0  0  0  0  0  0  0
    0.5295   -1.5338    1.7522 H   0  0  0  0  0  0  0  0  0  0  0  0
    1.4128   -1.2405   -2.8883 C   0  0  0  0  0  0  0  0  0  0  0  0
    1.4128   -1.2405   -1.5645 C   0  0  0  0  0  0  0  0  0  0  0  0
    1.4128   -0.0183   -0.7040 C   0  0  0  0  0  0  0  0  0  0  0  0
    1.4128   -2.1632   -3.4547 H   0  0  0  0  0  0  0  0  0  0  0  0
    1.4128   -0.3149   -3.4543 H   0  0  0  0  0  0  0  0  0  0  0  0
    1.4128   -2.1931   -1.0410 H   0  0  0  0  0  0  0  0  0  0  0  0
    0.3596    0.0022    0.0775 H   0  0  0  0  0  0  0  0  0  0  0  0
    1.4128    0.8921   -1.3046 H   0  0  0  0  0  0  0  0  0  0  0  0
    2.2905   -0.0012   -0.0528 H   0  0  0  0  0  0  0  0  0  0  0  0
  1  2  2  3
  1  6  1  0
  1  7  1  0
  2  3  1  0
  2  8  1  0
  3  4  1  0
  3  5  1  0
  4  9  1  0
  4 10  1  0
  4 11  1  0
  5 12  1  0
  5 13  1  0
  5 14  1  0
 15 16  2  3
 15 18  1  0
 15 19  1  0
 16 17  1  0
 16 20  1  0
 17 21  1  0
 17 22  1  0
 17 23  1  0
M  RAD  1   3   2
M  END
>  <reaction>  (15) 
rxn_1001

>  <mol_properties>  (15) 
{"1": {"label": "*0", "atom_type": "Cd"}, "2": {"label": "*1", "atom_type": "Cs"}, "15": {"label": "*4", "atom_type": "Cd"}, "16": {"label": "*3", "atom_type": "Cs"}, "20": {"label": "*2", "atom_type": "H0"}}

>  <type>  (15) 
unop_11

>  <geom_source>  (15) 
Heuristics

$$$$

     RDKit          3D

 23 21  0  0  0  0  0  0  0  0999 V2000
   -1.0874   -1.6116   -0.1768 C   0  0  0  0  0  0  0  0  0  0  0  0
   -1.3934   -0.6743    0.7060 C   0  0  0  0  0  0  0  0  0  0  0  0
   -0.5844    0.5585    0.9849 C   0  0  0  0  0  3  0  0  0  0  0  0
   -0.1073    0.5705    2.4384 C   0  0  0  0  0  0  0  0  0  0  0  0
   -1.3958    1.8163    0.6689 C   0  0  0  0  0  0  0  0  0  0  0  0
   -1.7187   -2.4784   -0.3273 H   0  0  0  0  0  0  0  0  0  0  0  0
   -0.1901   -1.5447   -0.7831 H   0  0  0  0  0  0  0  0  0  0  0  0
   -2.3033   -0.7778    1.2958 H   0  0  0  0  0  0  0  0  0  0  0  0
    0.4881    1.4625    2.6436 H   0  0  0  0  0  0  0  0  0  0  0  0
   -0.9592    0.5727    3.1238 H   0  0  0  0  0  0  0  0  0  0  0  0
    0.5009   -0.3075    2.6606 H   0  0  0  0  0  0  0  0  0  0  0  0
   -2.2934    1.8626    1.2917 H   0  0  0  0  0  0  0  0  0  0  0  0
   -1.7102    1.8303   -0.3756 H   0  0  0  0  0  0  0  0  0  0  0  0
   -0.8081    2.7158    0.8636 H   0  0  0  0  0  0  0  0  0  0  0  0
    1.5235   -0.7048   -2.7633 C   0  0  0  0  0  0  0  0  0  0  0  0
    1.5235   -0.7048   -1.4396 C   0  0  0  0  0  0  0  0  0  0  0  0
    1.5235    0.5174   -0.5791 C   0  0  0  0  0  0  0  0  0  0  0  0
    1.5235   -1.6275   -3.3298 H   0  0  0  0  0  0  0  0  0  0  0  0
    1.5235    0.2208   -3.3293 H   0  0  0  0  0  0  0  0  0  0  0  0
    1.5235   -1.6574   -0.9161 H   0  0  0  0  0  0  0  0  0  0  0  0
    0.4703    0.5380    0.2024 H   0  0  0  0  0  0  0  0  0  0  0  0
    1.5235    1.4279   -1.1797 H   0  0  0  0  0  0  0  0  0  0  0  0
    2.4013    0.5345    0.0721 H   0  0  0  0  0  0  0  0  0  0  0  0
  1  2  2  3
  1  6  1  0
  1  7  1  0
  2  3  1  0
  2  8  1  0
  3  4  1  0
  3  5  1  0
  4  9  1  0
  4 10  1  0
  4 11  1  0
  5 12  1  0
  5 13  1  0
  5 14  1  0
 15 16  2  3
 15 18  1  0
 15 19  1  0
 16 17  1  0
 16 20  1  0
 17 21  1  0
 17 22  1  0
 17 23  1  0
M  RAD  1   3   2
M  END
>  <reaction>  (16) 
rxn_1001

>  <mol_properties>  (16) 
{"1": {"label": "*0", "atom_type": "Cd"}, "2": {"label": "*1", "atom_type": "Cs"}, "15": {"label": "*4", "atom_type": "Cd"}, "16": {"label": "*3", "atom_type": "Cs"}, "20": {"label": "*2", "atom_type": "H0"}}

>  <type>  (16) 
unop_12

>  <geom_source>  (16) 
Heuristics

$$$$

     RDKit          3D

 23 21  0  0  0  0  0  0  0  0999 V2000
   -0.8786   -0.4780   -0.1014 C   0  0  0  0  0  0  0  0  0  0  0  0
   -0.3553   -1.7922    0.4853 C   0  0  0  0  0  0  0  0  0  0  0  0
   -1.5053   -0.7188   -1.4788 C   0  0  0  0  0  0  0  0  0  0  0  0
   -1.8776    0.1587    0.8348 C   0  0  0  0  0  0  0  0  0  0  0  0
    2.3596    1.1736    0.2737 C   0  0  0  0  0  0  0  0  0  0  0  0
   -2.2447    1.4358    0.6963 C   0  0  0  0  0  0  0  0  0  0  0  0
    1.4208    0.5733   -0.7230 C   0  0  0  0  0  0  0  0  0  0  0  0
    3.3155    0.4370    0.8418 C   0  0  0  0  0  3  0  0  0  0  0  0
    0.1538    0.3396   -0.2438 H   0  0  0  0  0  0  0  0  0  0  0  0
    0.4136   -2.2294   -0.1865 H   0  0  0  0  0  0  0  0  0  0  0  0
    0.1163   -1.6050    1.4735 H   0  0  0  0  0  0  0  0  0  0  0  0
   -1.1817   -2.5247    0.6122 H   0  0  0  0  0  0  0  0  0  0  0  0
   -0.7600   -1.1799   -2.1610 H   0  0  0  0  0  0  0  0  0  0  0  0
   -1.8294    0.2438   -1.9276 H   0  0  0  0  0  0  0  0  0  0  0  0
   -2.3853   -1.3928   -1.3969 H   0  0  0  0  0  0  0  0  0  0  0  0
   -2.2915   -0.4157    1.6595 H   0  0  0  0  0  0  0  0  0  0  0  0
    2.2535    2.2191    0.5476 H   0  0  0  0  0  0  0  0  0  0  0  0
   -2.9543    1.8751    1.3898 H   0  0  0  0  0  0  0  0  0  0  0  0
   -1.8406    2.0507   -0.1022 H   0  0  0  0  0  0  0  0  0  0  0  0
    3.9861    0.8843    1.5684 H   0  0  0  0  0  0  0  0  0  0  0  0
    3.4365   -0.6122    0.5886 H   0  0  0  0  0  0  0  0  0  0  0  0
    0.6649    1.3250   -1.0325 H   0  0  0  0  0  0  0  0  0  0  0  0
    1.9836    0.2323   -1.6176 H   0  0  0  0  0  0  0  0  0  0  0  0
  1  2  1  0
  1  3  1  0
  1  4  1  0
  1  9  1  0
  2 10  1  0
  2 11  1  0
  2 12  1  0
  3 13  1  0
  3 14  1  0
  3 15  1  0
  4  6  2  3
  4 16  1  0
  5  7  2  3
  5  8  1  0
  5 17  1  0
  6 18  1  0
  6 19  1  0
  7 22  1  0
  7 23  1  0
  8 20  1  0
  8 21  1  0
M  RAD  1   8   2
M  END
>  <reaction>  (17) 
rxn_1001

>  <mol_properties>  (17) 
{"1": {"label": "*0", "atom_type": "Cd"}, "2": {"label": "*1", "atom_type": "Cs"}, "15": {"label": "*4", "atom_type": "Cd"}, "16": {"label": "*3", "atom_type": "Cs"}, "20": {"label": "*2", "atom_type": "H0"}}

>  <type>  (17) 
unop_13

>  <geom_source>  (17) 
AutoTST

$$$$
