
     RDKit          3D

  5  4  0  0  0  0  0  0  0  0999 V2000
   -0.4535    0.0104   -0.2352 N   0  0  0  0  0  0  0  0  0  0  0  0
    0.8506   -0.0148    0.3346 O   0  0  0  0  0  0  0  0  0  0  0  0
   -0.9090    0.8045    0.2022 H   0  0  0  0  0  0  0  0  0  0  0  0
   -0.9099   -0.8179    0.1325 H   0  0  0  0  0  0  0  0  0  0  0  0
    1.4218    0.0179   -0.4341 H   0  0  0  0  0  0  0  0  0  0  0  0
  1  2  1  0
  1  3  1  0
  1  4  1  0
  2  5  1  0
M  END
>  <reaction>  (1) 
rxn_710

>  <mol_properties>  (1) 
{"0": {"label": "donator", "atom_type": "N3s"}, "2": {"label": "d_hydrogen", "atom_type": "H0"}}

>  <type>  (1) 
r1h

$$$$

     RDKit          3D

  3  2  0  0  0  0  0  0  0  0999 V2000
    0.0002    0.4233    0.0000 N   0  0  0  0  0  2  0  0  0  0  0  0
   -0.8051   -0.2112    0.0000 H   0  0  0  0  0  0  0  0  0  0  0  0
    0.8049   -0.2121    0.0000 H   0  0  0  0  0  0  0  0  0  0  0  0
  1  2  1  0
  1  3  1  0
M  RAD  1   1   2
M  END
>  <reaction>  (2) 
rxn_710

>  <mol_properties>  (2) 
{"0": {"label": "acceptor", "atom_type": "N3s"}}

>  <type>  (2) 
r2

$$$$

     RDKit          3D

  4  3  0  0  0  0  0  0  0  0999 V2000
    0.0006   -0.0009    0.2762 N   0  0  0  0  0  0  0  0  0  0  0  0
   -0.4188    0.8439   -0.0883 H   0  0  0  0  0  0  0  0  0  0  0  0
   -0.5215   -0.7840   -0.0936 H   0  0  0  0  0  0  0  0  0  0  0  0
    0.9397   -0.0590   -0.0943 H   0  0  0  0  0  0  0  0  0  0  0  0
  1  2  1  0
  1  3  1  0
  1  4  1  0
M  END
>  <reaction>  (3) 
rxn_710

>  <mol_properties>  (3) 
{"0": {"label": "acceptor", "atom_type": "N3s"}, "3": {"label": "a_hydrogen", "atom_type": "H0"}}

>  <type>  (3) 
r2h

$$$$

     RDKit          3D

  8  6  0  0  0  0  0  0  0  0999 V2000
   -0.4159    1.4398    1.0126 N   0  0  0  0  0  2  0  0  0  0  0  0
    0.4606    1.8798    1.3000 H   0  0  0  0  0  0  0  0  0  0  0  0
   -0.5967    1.8159    0.0798 H   0  0  0  0  0  0  0  0  0  0  0  0
    0.3319   -0.7965    0.1628 N   0  0  0  0  0  0  0  0  0  0  0  0
   -0.4249   -0.9195   -1.0099 O   0  0  0  0  0  0  0  0  0  0  0  0
   -0.0798    0.0910    0.7231 H   0  0  0  0  0  0  0  0  0  0  0  0
    1.2476   -0.5213   -0.1832 H   0  0  0  0  0  0  0  0  0  0  0  0
   -1.1327   -1.5180   -0.7607 H   0  0  0  0  0  0  0  0  0  0  0  0
  1  2  1  0
  1  3  1  0
  4  5  1  0
  4  6  1  0
  4  7  1  0
  5  8  1  0
M  RAD  1   1   2
M  END
>  <reaction>  (4) 
rxn_710

>  <mol_properties>  (4) 
{"0": {"label": "*3", "atom_type": "N3s"}, "1": {"label": "*4", "atom_type": "H0"}, "3": {"label": "*1", "atom_type": "N3s"}, "4": {"label": "*0", "atom_type": "O2s"}, "5": {"label": "*2", "atom_type": "H0"}}

>  <type>  (4) 
ts

$$$$

     RDKit          3D

  8  6  0  0  0  0  0  0  0  0999 V2000
    0.0022    1.5834    0.8745 N   0  0  0  0  0  0  0  0  0  0  0  0
   -0.8329    1.7561    1.4179 H   0  0  0  0  0  0  0  0  0  0  0  0
    0.5902    1.1425    1.5690 H   0  0  0  0  0  0  0  0  0  0  0  0
    0.0022   -0.7688    0.2603 N   0  0  0  0  0  2  0  0  0  0  0  0
    0.0022   -0.7688   -1.1631 O   0  0  0  0  0  0  0  0  0  0  0  0
    0.0022    0.4093    0.5679 H   0  0  0  0  0  0  0  0  0  0  0  0
    0.9150   -1.1302    0.5166 H   0  0  0  0  0  0  0  0  0  0  0  0
   -0.7701   -1.2937   -1.3782 H   0  0  0  0  0  0  0  0  0  0  0  0
  1  2  1  0
  1  3  1  0
  1  6  1  0
  4  5  1  0
  4  7  1  0
  5  8  1  0
M  RAD  1   4   2
M  END
>  <reaction>  (5) 
rxn_710

>  <mol_properties>  (5) 
{"0": {"label": "*3", "atom_type": "N3s"}, "1": {"label": "*4", "atom_type": "H0"}, "3": {"label": "*1", "atom_type": "N3s"}, "4": {"label": "*0", "atom_type": "O2s"}, "5": {"label": "*2", "atom_type": "H0"}}

>  <type>  (5) 
unop_1

>  <geom_source>  (5) 
Heuristics

$$$$

     RDKit          3D

  8  6  0  0  0  0  0  0  0  0999 V2000
    0.0183    1.5770    0.9003 N   0  0  0  0  0  0  0  0  0  0  0  0
   -0.4639    2.0825    0.1692 H   0  0  0  0  0  0  0  0  0  0  0  0
   -0.5290    1.1120    1.6122 H   0  0  0  0  0  0  0  0  0  0  0  0
    0.0183   -0.7752    0.2861 N   0  0  0  0  0  2  0  0  0  0  0  0
    0.0183   -0.7752   -1.1373 O   0  0  0  0  0  0  0  0  0  0  0  0
    0.0183    0.4029    0.5937 H   0  0  0  0  0  0  0  0  0  0  0  0
    0.9311   -1.1365    0.5424 H   0  0  0  0  0  0  0  0  0  0  0  0
   -0.7540   -1.3000   -1.3524 H   0  0  0  0  0  0  0  0  0  0  0  0
  1  2  1  0
  1  3  1  0
  1  6  1  0
  4  5  1  0
  4  7  1  0
  5  8  1  0
M  RAD  1   4   2
M  END
>  <reaction>  (6) 
rxn_710

>  <mol_properties>  (6) 
{"0": {"label": "*3", "atom_type": "N3s"}, "1": {"label": "*4", "atom_type": "H0"}, "3": {"label": "*1", "atom_type": "N3s"}, "4": {"label": "*0", "atom_type": "O2s"}, "5": {"label": "*2", "atom_type": "H0"}}

>  <type>  (6) 
unop_2

>  <geom_source>  (6) 
Heuristics

$$$$

     RDKit          3D

  8  6  0  0  0  0  0  0  0  0999 V2000
   -0.0114    1.5783    0.8724 N   0  0  0  0  0  0  0  0  0  0  0  0
   -0.4936    1.6619    1.7573 H   0  0  0  0  0  0  0  0  0  0  0  0
    0.8863    1.4715    1.3253 H   0  0  0  0  0  0  0  0  0  0  0  0
   -0.0114   -0.7738    0.2582 N   0  0  0  0  0  2  0  0  0  0  0  0
   -0.0114   -0.7738   -1.1652 O   0  0  0  0  0  0  0  0  0  0  0  0
   -0.0114    0.4042    0.5658 H   0  0  0  0  0  0  0  0  0  0  0  0
    0.9014   -1.1352    0.5146 H   0  0  0  0  0  0  0  0  0  0  0  0
   -0.7837   -1.2987   -1.3803 H   0  0  0  0  0  0  0  0  0  0  0  0
  1  2  1  0
  1  3  1  0
  1  6  1  0
  4  5  1  0
  4  7  1  0
  5  8  1  0
M  RAD  1   4   2
M  END
>  <reaction>  (7) 
rxn_710

>  <mol_properties>  (7) 
{"0": {"label": "*3", "atom_type": "N3s"}, "1": {"label": "*4", "atom_type": "H0"}, "3": {"label": "*1", "atom_type": "N3s"}, "4": {"label": "*0", "atom_type": "O2s"}, "5": {"label": "*2", "atom_type": "H0"}}

>  <type>  (7) 
unop_3

>  <geom_source>  (7) 
Heuristics

$$$$

     RDKit          3D

  8  6  0  0  0  0  0  0  0  0999 V2000
   -0.0030    1.5575    0.9087 N   0  0  0  0  0  0  0  0  0  0  0  0
    0.8322    1.9738    0.5191 H   0  0  0  0  0  0  0  0  0  0  0  0
   -0.8349    2.1310    0.8696 H   0  0  0  0  0  0  0  0  0  0  0  0
   -0.0030   -0.7947    0.2945 N   0  0  0  0  0  2  0  0  0  0  0  0
   -0.0030   -0.7947   -1.1289 O   0  0  0  0  0  0  0  0  0  0  0  0
   -0.0030    0.3834    0.6021 H   0  0  0  0  0  0  0  0  0  0  0  0
    0.9098   -1.1560    0.5509 H   0  0  0  0  0  0  0  0  0  0  0  0
   -0.7752   -1.3195   -1.3440 H   0  0  0  0  0  0  0  0  0  0  0  0
  1  2  1  0
  1  3  1  0
  1  6  1  0
  4  5  1  0
  4  7  1  0
  5  8  1  0
M  RAD  1   4   2
M  END
>  <reaction>  (8) 
rxn_710

>  <mol_properties>  (8) 
{"0": {"label": "*3", "atom_type": "N3s"}, "1": {"label": "*4", "atom_type": "H0"}, "3": {"label": "*1", "atom_type": "N3s"}, "4": {"label": "*0", "atom_type": "O2s"}, "5": {"label": "*2", "atom_type": "H0"}}

>  <type>  (8) 
unop_4

>  <geom_source>  (8) 
Heuristics

$$$$

     RDKit          3D

  8  6  0  0  0  0  0  0  0  0999 V2000
   -0.0208    1.5662    0.8791 N   0  0  0  0  0  0  0  0  0  0  0  0
   -0.0208    1.6171    1.8890 H   0  0  0  0  0  0  0  0  0  0  0  0
    0.8495    2.0811    0.8824 H   0  0  0  0  0  0  0  0  0  0  0  0
   -0.0208   -0.7859    0.2649 N   0  0  0  0  0  2  0  0  0  0  0  0
   -0.0208   -0.7859   -1.1585 O   0  0  0  0  0  0  0  0  0  0  0  0
   -0.0208    0.3921    0.5725 H   0  0  0  0  0  0  0  0  0  0  0  0
    0.8920   -1.1473    0.5212 H   0  0  0  0  0  0  0  0  0  0  0  0
   -0.7931   -1.3108   -1.3736 H   0  0  0  0  0  0  0  0  0  0  0  0
  1  2  1  0
  1  3  1  0
  1  6  1  0
  4  5  1  0
  4  7  1  0
  5  8  1  0
M  RAD  1   4   2
M  END
>  <reaction>  (9) 
rxn_710

>  <mol_properties>  (9) 
{"0": {"label": "*3", "atom_type": "N3s"}, "1": {"label": "*4", "atom_type": "H0"}, "3": {"label": "*1", "atom_type": "N3s"}, "4": {"label": "*0", "atom_type": "O2s"}, "5": {"label": "*2", "atom_type": "H0"}}

>  <type>  (9) 
unop_5

>  <geom_source>  (9) 
Heuristics

$$$$

     RDKit          3D

  8  6  0  0  0  0  0  0  0  0999 V2000
   -0.0108    1.5553    0.9025 N   0  0  0  0  0  0  0  0  0  0  0  0
    0.9535    1.8498    0.9794 H   0  0  0  0  0  0  0  0  0  0  0  0
   -0.5893    2.3588    0.6971 H   0  0  0  0  0  0  0  0  0  0  0  0
   -0.0108   -0.7969    0.2884 N   0  0  0  0  0  2  0  0  0  0  0  0
   -0.0108   -0.7969   -1.1350 O   0  0  0  0  0  0  0  0  0  0  0  0
   -0.0108    0.3812    0.5960 H   0  0  0  0  0  0  0  0  0  0  0  0
    0.9020   -1.1583    0.5447 H   0  0  0  0  0  0  0  0  0  0  0  0
   -0.7831   -1.3217   -1.3502 H   0  0  0  0  0  0  0  0  0  0  0  0
  1  2  1  0
  1  3  1  0
  1  6  1  0
  4  5  1  0
  4  7  1  0
  5  8  1  0
M  RAD  1   4   2
M  END
>  <reaction>  (10) 
rxn_710

>  <mol_properties>  (10) 
{"0": {"label": "*3", "atom_type": "N3s"}, "1": {"label": "*4", "atom_type": "H0"}, "3": {"label": "*1", "atom_type": "N3s"}, "4": {"label": "*0", "atom_type": "O2s"}, "5": {"label": "*2", "atom_type": "H0"}}

>  <type>  (10) 
unop_6

>  <geom_source>  (10) 
Heuristics

$$$$

     RDKit          3D

  8  6  0  0  0  0  0  0  0  0999 V2000
   -0.0154    1.5550    0.8950 N   0  0  0  0  0  0  0  0  0  0  0  0
    0.8197    1.7277    1.4384 H   0  0  0  0  0  0  0  0  0  0  0  0
   -0.2397    2.4934    0.5920 H   0  0  0  0  0  0  0  0  0  0  0  0
   -0.0154   -0.7972    0.2808 N   0  0  0  0  0  2  0  0  0  0  0  0
   -0.0154   -0.7972   -1.1426 O   0  0  0  0  0  0  0  0  0  0  0  0
   -0.0154    0.3809    0.5884 H   0  0  0  0  0  0  0  0  0  0  0  0
    0.8973   -1.1585    0.5371 H   0  0  0  0  0  0  0  0  0  0  0  0
   -0.7877   -1.3220   -1.3577 H   0  0  0  0  0  0  0  0  0  0  0  0
  1  2  1  0
  1  3  1  0
  1  6  1  0
  4  5  1  0
  4  7  1  0
  5  8  1  0
M  RAD  1   4   2
M  END
>  <reaction>  (11) 
rxn_710

>  <mol_properties>  (11) 
{"0": {"label": "*3", "atom_type": "N3s"}, "1": {"label": "*4", "atom_type": "H0"}, "3": {"label": "*1", "atom_type": "N3s"}, "4": {"label": "*0", "atom_type": "O2s"}, "5": {"label": "*2", "atom_type": "H0"}}

>  <type>  (11) 
unop_7

>  <geom_source>  (11) 
Heuristics

$$$$

     RDKit          3D

  8  6  0  0  0  0  0  0  0  0999 V2000
    0.0121    1.5837    0.8820 N   0  0  0  0  0  0  0  0  0  0  0  0
   -0.9522    1.8782    0.9589 H   0  0  0  0  0  0  0  0  0  0  0  0
    0.2480    1.0044    1.6766 H   0  0  0  0  0  0  0  0  0  0  0  0
    0.0121   -0.7685    0.2678 N   0  0  0  0  0  2  0  0  0  0  0  0
    0.0121   -0.7685   -1.1556 O   0  0  0  0  0  0  0  0  0  0  0  0
    0.0121    0.4096    0.5754 H   0  0  0  0  0  0  0  0  0  0  0  0
    0.9249   -1.1298    0.5241 H   0  0  0  0  0  0  0  0  0  0  0  0
   -0.7602   -1.2933   -1.3707 H   0  0  0  0  0  0  0  0  0  0  0  0
  1  2  1  0
  1  3  1  0
  1  6  1  0
  4  5  1  0
  4  7  1  0
  5  8  1  0
M  RAD  1   4   2
M  END
>  <reaction>  (12) 
rxn_710

>  <mol_properties>  (12) 
{"0": {"label": "*3", "atom_type": "N3s"}, "1": {"label": "*4", "atom_type": "H0"}, "3": {"label": "*1", "atom_type": "N3s"}, "4": {"label": "*0", "atom_type": "O2s"}, "5": {"label": "*2", "atom_type": "H0"}}

>  <type>  (12) 
unop_8

>  <geom_source>  (12) 
Heuristics

$$$$

     RDKit          3D

  8  6  0  0  0  0  0  0  0  0999 V2000
    0.0070    1.5626    0.9107 N   0  0  0  0  0  0  0  0  0  0  0  0
    0.4891    2.0681    0.1796 H   0  0  0  0  0  0  0  0  0  0  0  0
   -0.9545    1.8009    1.1140 H   0  0  0  0  0  0  0  0  0  0  0  0
    0.0070   -0.7896    0.2966 N   0  0  0  0  0  2  0  0  0  0  0  0
    0.0070   -0.7896   -1.1268 O   0  0  0  0  0  0  0  0  0  0  0  0
    0.0070    0.3885    0.6042 H   0  0  0  0  0  0  0  0  0  0  0  0
    0.9197   -1.1510    0.5529 H   0  0  0  0  0  0  0  0  0  0  0  0
   -0.7653   -1.3145   -1.3420 H   0  0  0  0  0  0  0  0  0  0  0  0
  1  2  1  0
  1  3  1  0
  1  6  1  0
  4  5  1  0
  4  7  1  0
  5  8  1  0
M  RAD  1   4   2
M  END
>  <reaction>  (13) 
rxn_710

>  <mol_properties>  (13) 
{"0": {"label": "*3", "atom_type": "N3s"}, "1": {"label": "*4", "atom_type": "H0"}, "3": {"label": "*1", "atom_type": "N3s"}, "4": {"label": "*0", "atom_type": "O2s"}, "5": {"label": "*2", "atom_type": "H0"}}

>  <type>  (13) 
unop_9

>  <geom_source>  (13) 
Heuristics

$$$$

     RDKit          3D

  8  6  0  0  0  0  0  0  0  0999 V2000
    0.0172    1.5815    0.8914 N   0  0  0  0  0  0  0  0  0  0  0  0
   -0.8179    1.9978    0.5017 H   0  0  0  0  0  0  0  0  0  0  0  0
   -0.1270    0.9873    1.6968 H   0  0  0  0  0  0  0  0  0  0  0  0
    0.0172   -0.7707    0.2772 N   0  0  0  0  0  2  0  0  0  0  0  0
    0.0172   -0.7707   -1.1462 O   0  0  0  0  0  0  0  0  0  0  0  0
    0.0172    0.4074    0.5848 H   0  0  0  0  0  0  0  0  0  0  0  0
    0.9300   -1.1320    0.5335 H   0  0  0  0  0  0  0  0  0  0  0  0
   -0.7550   -1.2955   -1.3613 H   0  0  0  0  0  0  0  0  0  0  0  0
  1  2  1  0
  1  3  1  0
  1  6  1  0
  4  5  1  0
  4  7  1  0
  5  8  1  0
M  RAD  1   4   2
M  END
>  <reaction>  (14) 
rxn_710

>  <mol_properties>  (14) 
{"0": {"label": "*3", "atom_type": "N3s"}, "1": {"label": "*4", "atom_type": "H0"}, "3": {"label": "*1", "atom_type": "N3s"}, "4": {"label": "*0", "atom_type": "O2s"}, "5": {"label": "*2", "atom_type": "H0"}}

>  <type>  (14) 
unop_10

>  <geom_source>  (14) 
Heuristics

$$$$

     RDKit          3D

  8  6  0  0  0  0  0  0  0  0999 V2000
   -0.0188    1.5572    0.8877 N   0  0  0  0  0  0  0  0  0  0  0  0
    0.4634    1.6407    1.7726 H   0  0  0  0  0  0  0  0  0  0  0  0
    0.2723    2.4805    0.5956 H   0  0  0  0  0  0  0  0  0  0  0  0
   -0.0188   -0.7950    0.2735 N   0  0  0  0  0  2  0  0  0  0  0  0
   -0.0188   -0.7950   -1.1499 O   0  0  0  0  0  0  0  0  0  0  0  0
   -0.0188    0.3831    0.5811 H   0  0  0  0  0  0  0  0  0  0  0  0
    0.8940   -1.1564    0.5299 H   0  0  0  0  0  0  0  0  0  0  0  0
   -0.7911   -1.3199   -1.3650 H   0  0  0  0  0  0  0  0  0  0  0  0
  1  2  1  0
  1  3  1  0
  1  6  1  0
  4  5  1  0
  4  7  1  0
  5  8  1  0
M  RAD  1   4   2
M  END
>  <reaction>  (15) 
rxn_710

>  <mol_properties>  (15) 
{"0": {"label": "*3", "atom_type": "N3s"}, "1": {"label": "*4", "atom_type": "H0"}, "3": {"label": "*1", "atom_type": "N3s"}, "4": {"label": "*0", "atom_type": "O2s"}, "5": {"label": "*2", "atom_type": "H0"}}

>  <type>  (15) 
unop_11

>  <geom_source>  (15) 
Heuristics

$$$$

     RDKit          3D

  8  6  0  0  0  0  0  0  0  0999 V2000
    0.0150    1.5700    0.9074 N   0  0  0  0  0  0  0  0  0  0  0  0
    0.0150    2.1082    0.0513 H   0  0  0  0  0  0  0  0  0  0  0  0
   -0.8553    1.4119    1.3975 H   0  0  0  0  0  0  0  0  0  0  0  0
    0.0150   -0.7821    0.2932 N   0  0  0  0  0  2  0  0  0  0  0  0
    0.0150   -0.7821   -1.1301 O   0  0  0  0  0  0  0  0  0  0  0  0
    0.0150    0.3959    0.6008 H   0  0  0  0  0  0  0  0  0  0  0  0
    0.9278   -1.1435    0.5496 H   0  0  0  0  0  0  0  0  0  0  0  0
   -0.7573   -1.3070   -1.3453 H   0  0  0  0  0  0  0  0  0  0  0  0
  1  2  1  0
  1  3  1  0
  1  6  1  0
  4  5  1  0
  4  7  1  0
  5  8  1  0
M  RAD  1   4   2
M  END
>  <reaction>  (16) 
rxn_710

>  <mol_properties>  (16) 
{"0": {"label": "*3", "atom_type": "N3s"}, "1": {"label": "*4", "atom_type": "H0"}, "3": {"label": "*1", "atom_type": "N3s"}, "4": {"label": "*0", "atom_type": "O2s"}, "5": {"label": "*2", "atom_type": "H0"}}

>  <type>  (16) 
unop_12

>  <geom_source>  (16) 
Heuristics

$$$$
