
     RDKit          3D

  7  6  0  0  0  0  0  0  0  0999 V2000
    1.2985   -0.0065   -0.2721 C   0  0  0  0  0  0  0  0  0  0  0  0
    0.0000    0.0000   -0.2926 C   0  0  0  0  0  0  0  0  0  0  0  0
   -1.2985    0.0065   -0.3130 C   0  0  0  0  0  0  0  0  0  0  0  0
    1.8444   -0.7551    0.2895 H   0  0  0  0  0  0  0  0  0  0  0  0
    1.8693    0.7364   -0.8162 H   0  0  0  0  0  0  0  0  0  0  0  0
   -1.8658    0.5623    0.4239 H   0  0  0  0  0  0  0  0  0  0  0  0
   -1.8479   -0.5437   -1.0675 H   0  0  0  0  0  0  0  0  0  0  0  0
  1  2  2  0
  1  4  1  0
  1  5  1  0
  2  3  2  0
  3  6  1  0
  3  7  1  0
M  END
>  <reaction>  (1) 
rxn_1816

>  <mol_properties>  (1) 
{"0": {"label": "donator", "atom_type": "Cd"}, "3": {"label": "d_hydrogen", "atom_type": "H0"}}

>  <type>  (1) 
r1h

$$$$

     RDKit          3D

  9  8  0  0  0  0  0  0  0  0999 V2000
    2.3991   -0.1292   -0.2384 S   0  0  0  0  0  0  0  0  0  0  0  0
    0.7460    0.2807    0.0931 C   0  0  0  0  0  3  0  0  0  0  0  0
   -0.3131   -0.5719   -0.2043 C   0  0  0  0  0  0  0  0  0  0  0  0
   -0.2286   -1.8095   -0.7775 C   0  0  0  0  0  0  0  0  0  0  0  0
    2.9373    1.0009    0.2312 H   0  0  0  0  0  0  0  0  0  0  0  0
    0.5618    1.2421    0.5487 H   0  0  0  0  0  0  0  0  0  0  0  0
   -1.2978   -0.1954    0.0537 H   0  0  0  0  0  0  0  0  0  0  0  0
    0.7207   -2.2479   -1.0607 H   0  0  0  0  0  0  0  0  0  0  0  0
   -1.1177   -2.3938   -0.9670 H   0  0  0  0  0  0  0  0  0  0  0  0
  1  2  1  0
  1  5  1  0
  2  3  1  0
  2  6  1  0
  3  4  2  3
  3  7  1  0
  4  8  1  0
  4  9  1  0
M  RAD  1   2   2
M  END
>  <reaction>  (2) 
rxn_1816

>  <mol_properties>  (2) 
{"1": {"label": "acceptor", "atom_type": "Cs"}}

>  <type>  (2) 
r2

$$$$

     RDKit          3D

 10  9  0  0  0  0  0  0  0  0999 V2000
    2.2097   -0.5315    0.2575 S   0  0  0  0  0  0  0  0  0  0  0  0
    0.5401   -0.7188   -0.4494 C   0  0  0  0  0  0  0  0  0  0  0  0
   -0.5263   -0.1678    0.4365 C   0  0  0  0  0  0  0  0  0  0  0  0
   -1.3394    0.8185    0.0912 C   0  0  0  0  0  0  0  0  0  0  0  0
    2.1701    0.8016    0.3806 H   0  0  0  0  0  0  0  0  0  0  0  0
    0.4238   -1.7978   -0.5701 H   0  0  0  0  0  0  0  0  0  0  0  0
    0.5053   -0.2663   -1.4400 H   0  0  0  0  0  0  0  0  0  0  0  0
   -0.6005   -0.6141    1.4236 H   0  0  0  0  0  0  0  0  0  0  0  0
   -2.0960    1.1907    0.7700 H   0  0  0  0  0  0  0  0  0  0  0  0
   -1.2784    1.2877   -0.8850 H   0  0  0  0  0  0  0  0  0  0  0  0
  1  2  1  0
  1  5  1  0
  2  3  1  0
  2  6  1  0
  2  7  1  0
  3  4  2  3
  3  8  1  0
  4  9  1  0
  4 10  1  0
M  END
>  <reaction>  (3) 
rxn_1816

>  <mol_properties>  (3) 
{"1": {"label": "acceptor", "atom_type": "Cs"}, "9": {"label": "a_hydrogen", "atom_type": "H0"}}

>  <type>  (3) 
r2h

$$$$

     RDKit          3D

 16 14  0  0  0  0  0  0  0  0999 V2000
   -0.4234   -1.7131   -0.3701 S   0  0  0  0  0  0  0  0  0  0  0  0
    0.0535   -0.6384    0.9639 C   0  0  0  0  0  0  0  0  0  0  0  0
   -0.9987   -0.0530    1.8061 C   0  0  0  0  0  0  0  0  0  0  0  0
   -0.8915    0.1278    3.1182 C   0  0  0  0  0  0  0  0  0  0  0  0
   -1.2856   -0.8685   -0.9538 H   0  0  0  0  0  0  0  0  0  0  0  0
    0.8514   -1.1216    1.5261 H   0  0  0  0  0  0  0  0  0  0  0  0
   -1.8922    0.2882    1.2911 H   0  0  0  0  0  0  0  0  0  0  0  0
   -0.0161   -0.2022    3.6665 H   0  0  0  0  0  0  0  0  0  0  0  0
   -1.6788    0.6058    3.6862 H   0  0  0  0  0  0  0  0  0  0  0  0
    1.2665    1.4106   -0.2723 C   0  0  0  0  0  0  0  0  0  0  0  0
    1.2303    1.3105   -1.5349 C   0  0  0  0  0  0  0  0  0  0  0  0
    1.1381    1.1044   -2.8360 C   0  0  0  0  0  3  0  0  0  0  0  0
    0.6568    0.3526    0.3904 H   0  0  0  0  0  0  0  0  0  0  0  0
    1.6525    2.1390    0.4211 H   0  0  0  0  0  0  0  0  0  0  0  0
    0.2954    1.4820   -3.4014 H   0  0  0  0  0  0  0  0  0  0  0  0
    1.9141    0.5713   -3.3701 H   0  0  0  0  0  0  0  0  0  0  0  0
  1  2  1  0
  1  5  1  0
  2  3  1  0
  2  6  1  0
  2 13  1  0
  3  4  2  3
  3  7  1  0
  4  8  1  0
  4  9  1  0
 10 11  3  0
 10 14  1  0
 11 12  1  0
 12 15  1  0
 12 16  1  0
M  RAD  1  12   2
M  END
>  <reaction>  (4) 
rxn_1816

>  <mol_properties>  (4) 
{"0": {"label": "*0", "atom_type": "S2s"}, "1": {"label": "*1", "atom_type": "Cs"}, "9": {"label": "*3", "atom_type": "Ct"}, "10": {"label": "*4", "atom_type": "Ct"}, "12": {"label": "*2", "atom_type": "H0"}}

>  <type>  (4) 
ts

$$$$

     RDKit          3D

 16 14  0  0  0  0  0  0  0  0999 V2000
    0.8915   -1.0797    1.6184 S   0  0  0  0  0  0  0  0  0  0  0  0
   -0.3852   -0.2300    0.6333 C   0  0  0  0  0  3  0  0  0  0  0  0
   -1.6037   -1.0652    0.4251 C   0  0  0  0  0  0  0  0  0  0  0  0
   -2.8133   -0.7280    0.8452 C   0  0  0  0  0  0  0  0  0  0  0  0
    0.1277   -1.2949    2.6974 H   0  0  0  0  0  0  0  0  0  0  0  0
   -0.6337    0.7250    1.0953 H   0  0  0  0  0  0  0  0  0  0  0  0
   -1.4498   -2.0085   -0.0902 H   0  0  0  0  0  0  0  0  0  0  0  0
   -2.9910    0.2039    1.3714 H   0  0  0  0  0  0  0  0  0  0  0  0
   -3.6688   -1.3692    0.6766 H   0  0  0  0  0  0  0  0  0  0  0  0
    0.9472    1.5668   -0.7121 C   0  0  0  0  0  0  0  0  0  0  0  0
    0.9472    1.5668   -2.0108 C   0  0  0  0  0  0  0  0  0  0  0  0
    0.9472    1.5668   -3.3095 C   0  0  0  0  0  0  0  0  0  0  0  0
    0.2836    0.6719   -0.0420 H   0  0  0  0  0  0  0  0  0  0  0  0
    1.5002    2.3126   -0.1537 H   0  0  0  0  0  0  0  0  0  0  0  0
    0.2014    2.1199   -3.8679 H   0  0  0  0  0  0  0  0  0  0  0  0
    1.6930    1.0138   -3.8679 H   0  0  0  0  0  0  0  0  0  0  0  0
  1  2  1  0
  1  5  1  0
  2  3  1  0
  2  6  1  0
  3  4  2  3
  3  7  1  0
  4  8  1  0
  4  9  1  0
 10 11  2  0
 10 13  1  0
 10 14  1  0
 11 12  2  0
 12 15  1  0
 12 16  1  0
M  RAD  1   2   2
M  END
>  <reaction>  (5) 
rxn_1816

>  <mol_properties>  (5) 
{"0": {"label": "*0", "atom_type": "S2s"}, "1": {"label": "*1", "atom_type": "Cs"}, "9": {"label": "*3", "atom_type": "Ct"}, "10": {"label": "*4", "atom_type": "Ct"}, "12": {"label": "*2", "atom_type": "H0"}}

>  <type>  (5) 
unop_1

>  <geom_source>  (5) 
Heuristics

$$$$

     RDKit          3D

 16 14  0  0  0  0  0  0  0  0999 V2000
   -0.1164   -1.7161   -0.1718 S   0  0  0  0  0  0  0  0  0  0  0  0
   -0.1314   -0.2517    0.9135 C   0  0  0  0  0  3  0  0  0  0  0  0
   -1.4532   -0.0342    1.5701 C   0  0  0  0  0  0  0  0  0  0  0  0
   -1.6385   -0.0401    2.8812 C   0  0  0  0  0  0  0  0  0  0  0  0
   -0.4644   -2.6025    0.7701 H   0  0  0  0  0  0  0  0  0  0  0  0
    0.6686   -0.3287    1.6491 H   0  0  0  0  0  0  0  0  0  0  0  0
   -2.2956    0.1174    0.9020 H   0  0  0  0  0  0  0  0  0  0  0  0
   -0.8151   -0.1998    3.5691 H   0  0  0  0  0  0  0  0  0  0  0  0
   -2.6183    0.1165    3.3137 H   0  0  0  0  0  0  0  0  0  0  0  0
    1.2010    1.5451   -0.4320 C   0  0  0  0  0  0  0  0  0  0  0  0
    1.2010    1.5451   -1.7307 C   0  0  0  0  0  0  0  0  0  0  0  0
    1.2010    1.5451   -3.0293 C   0  0  0  0  0  0  0  0  0  0  0  0
    0.5374    0.6502    0.2381 H   0  0  0  0  0  0  0  0  0  0  0  0
    1.7540    2.2908    0.1264 H   0  0  0  0  0  0  0  0  0  0  0  0
    0.4553    2.0981   -3.5878 H   0  0  0  0  0  0  0  0  0  0  0  0
    1.9468    0.9921   -3.5878 H   0  0  0  0  0  0  0  0  0  0  0  0
  1  2  1  0
  1  5  1  0
  2  3  1  0
  2  6  1  0
  3  4  2  3
  3  7  1  0
  4  8  1  0
  4  9  1  0
 10 11  2  0
 10 13  1  0
 10 14  1  0
 11 12  2  0
 12 15  1  0
 12 16  1  0
M  RAD  1   2   2
M  END
>  <reaction>  (6) 
rxn_1816

>  <mol_properties>  (6) 
{"0": {"label": "*0", "atom_type": "S2s"}, "1": {"label": "*1", "atom_type": "Cs"}, "9": {"label": "*3", "atom_type": "Ct"}, "10": {"label": "*4", "atom_type": "Ct"}, "12": {"label": "*2", "atom_type": "H0"}}

>  <type>  (6) 
unop_2

>  <geom_source>  (6) 
Heuristics

$$$$

     RDKit          3D

 16 14  0  0  0  0  0  0  0  0999 V2000
    0.5352   -0.4401    2.1479 S   0  0  0  0  0  0  0  0  0  0  0  0
   -0.4203   -0.2439    0.6081 C   0  0  0  0  0  3  0  0  0  0  0  0
   -1.0399   -1.5205    0.1474 C   0  0  0  0  0  0  0  0  0  0  0  0
   -2.3443   -1.7042    0.0131 C   0  0  0  0  0  0  0  0  0  0  0  0
   -0.4750   -0.9116    2.8903 H   0  0  0  0  0  0  0  0  0  0  0  0
   -1.1695    0.5370    0.7349 H   0  0  0  0  0  0  0  0  0  0  0  0
   -0.3512   -2.3326   -0.0649 H   0  0  0  0  0  0  0  0  0  0  0  0
   -3.0533   -0.9121    0.2290 H   0  0  0  0  0  0  0  0  0  0  0  0
   -2.7500   -2.6511   -0.3191 H   0  0  0  0  0  0  0  0  0  0  0  0
    0.9121    1.5529   -0.7374 C   0  0  0  0  0  0  0  0  0  0  0  0
    0.9121    1.5529   -2.0361 C   0  0  0  0  0  0  0  0  0  0  0  0
    0.9121    1.5529   -3.3347 C   0  0  0  0  0  0  0  0  0  0  0  0
    0.2485    0.6580   -0.0673 H   0  0  0  0  0  0  0  0  0  0  0  0
    1.4652    2.2986   -0.1790 H   0  0  0  0  0  0  0  0  0  0  0  0
    0.1664    2.1059   -3.8931 H   0  0  0  0  0  0  0  0  0  0  0  0
    1.6579    0.9999   -3.8931 H   0  0  0  0  0  0  0  0  0  0  0  0
  1  2  1  0
  1  5  1  0
  2  3  1  0
  2  6  1  0
  3  4  2  3
  3  7  1  0
  4  8  1  0
  4  9  1  0
 10 11  2  0
 10 13  1  0
 10 14  1  0
 11 12  2  0
 12 15  1  0
 12 16  1  0
M  RAD  1   2   2
M  END
>  <reaction>  (7) 
rxn_1816

>  <mol_properties>  (7) 
{"0": {"label": "*0", "atom_type": "S2s"}, "1": {"label": "*1", "atom_type": "Cs"}, "9": {"label": "*3", "atom_type": "Ct"}, "10": {"label": "*4", "atom_type": "Ct"}, "12": {"label": "*2", "atom_type": "H0"}}

>  <type>  (7) 
unop_3

>  <geom_source>  (7) 
Heuristics

$$$$

     RDKit          3D

 16 14  0  0  0  0  0  0  0  0999 V2000
   -1.8306   -0.6037    0.1166 S   0  0  0  0  0  0  0  0  0  0  0  0
   -0.1037   -0.8464    0.6471 C   0  0  0  0  0  3  0  0  0  0  0  0
    0.2687    0.0124    1.8088 C   0  0  0  0  0  0  0  0  0  0  0  0
    0.6627   -0.4589    2.9818 C   0  0  0  0  0  0  0  0  0  0  0  0
   -2.3923   -0.9178    1.2912 H   0  0  0  0  0  0  0  0  0  0  0  0
    0.0727   -1.9001    0.8607 H   0  0  0  0  0  0  0  0  0  0  0  0
    0.1829    1.0836    1.6536 H   0  0  0  0  0  0  0  0  0  0  0  0
    0.7463   -1.5249    3.1650 H   0  0  0  0  0  0  0  0  0  0  0  0
    0.9176    0.2028    3.7995 H   0  0  0  0  0  0  0  0  0  0  0  0
    1.2287    0.9505   -0.6984 C   0  0  0  0  0  0  0  0  0  0  0  0
    1.2287    0.9505   -1.9971 C   0  0  0  0  0  0  0  0  0  0  0  0
    1.2287    0.9505   -3.2957 C   0  0  0  0  0  0  0  0  0  0  0  0
    0.5651    0.0555   -0.0283 H   0  0  0  0  0  0  0  0  0  0  0  0
    1.7817    1.6962   -0.1400 H   0  0  0  0  0  0  0  0  0  0  0  0
    0.4829    1.5035   -3.8541 H   0  0  0  0  0  0  0  0  0  0  0  0
    1.9744    0.3974   -3.8541 H   0  0  0  0  0  0  0  0  0  0  0  0
  1  2  1  0
  1  5  1  0
  2  3  1  0
  2  6  1  0
  3  4  2  3
  3  7  1  0
  4  8  1  0
  4  9  1  0
 10 11  2  0
 10 13  1  0
 10 14  1  0
 11 12  2  0
 12 15  1  0
 12 16  1  0
M  RAD  1   2   2
M  END
>  <reaction>  (8) 
rxn_1816

>  <mol_properties>  (8) 
{"0": {"label": "*0", "atom_type": "S2s"}, "1": {"label": "*1", "atom_type": "Cs"}, "9": {"label": "*3", "atom_type": "Ct"}, "10": {"label": "*4", "atom_type": "Ct"}, "12": {"label": "*2", "atom_type": "H0"}}

>  <type>  (8) 
unop_4

>  <geom_source>  (8) 
Heuristics

$$$$

     RDKit          3D

 16 14  0  0  0  0  0  0  0  0999 V2000
   -0.2453    0.1336    2.3060 S   0  0  0  0  0  0  0  0  0  0  0  0
   -0.5632   -0.2951    0.5632 C   0  0  0  0  0  3  0  0  0  0  0  0
   -0.0992   -1.6692    0.2135 C   0  0  0  0  0  0  0  0  0  0  0  0
   -0.8983   -2.6334   -0.2166 C   0  0  0  0  0  0  0  0  0  0  0  0
   -0.9399   -0.8808    2.8375 H   0  0  0  0  0  0  0  0  0  0  0  0
   -1.6211   -0.1647    0.3375 H   0  0  0  0  0  0  0  0  0  0  0  0
    0.9610   -1.8606    0.3486 H   0  0  0  0  0  0  0  0  0  0  0  0
   -1.9625   -2.4703   -0.3498 H   0  0  0  0  0  0  0  0  0  0  0  0
   -0.5178   -3.6188   -0.4531 H   0  0  0  0  0  0  0  0  0  0  0  0
    0.7693    1.5017   -0.7823 C   0  0  0  0  0  0  0  0  0  0  0  0
    0.7693    1.5017   -2.0810 C   0  0  0  0  0  0  0  0  0  0  0  0
    0.7693    1.5017   -3.3796 C   0  0  0  0  0  0  0  0  0  0  0  0
    0.1056    0.6068   -0.1122 H   0  0  0  0  0  0  0  0  0  0  0  0
    1.3223    2.2475   -0.2239 H   0  0  0  0  0  0  0  0  0  0  0  0
    0.0235    2.0548   -3.9381 H   0  0  0  0  0  0  0  0  0  0  0  0
    1.5150    0.9487   -3.9381 H   0  0  0  0  0  0  0  0  0  0  0  0
  1  2  1  0
  1  5  1  0
  2  3  1  0
  2  6  1  0
  3  4  2  3
  3  7  1  0
  4  8  1  0
  4  9  1  0
 10 11  2  0
 10 13  1  0
 10 14  1  0
 11 12  2  0
 12 15  1  0
 12 16  1  0
M  RAD  1   2   2
M  END
>  <reaction>  (9) 
rxn_1816

>  <mol_properties>  (9) 
{"0": {"label": "*0", "atom_type": "S2s"}, "1": {"label": "*1", "atom_type": "Cs"}, "9": {"label": "*3", "atom_type": "Ct"}, "10": {"label": "*4", "atom_type": "Ct"}, "12": {"label": "*2", "atom_type": "H0"}}

>  <type>  (9) 
unop_5

>  <geom_source>  (9) 
Heuristics

$$$$

     RDKit          3D

 16 14  0  0  0  0  0  0  0  0999 V2000
   -1.9563   -0.1127    0.7325 S   0  0  0  0  0  0  0  0  0  0  0  0
   -0.3105   -0.8626    0.5052 C   0  0  0  0  0  3  0  0  0  0  0  0
    0.6869   -0.3776    1.5029 C   0  0  0  0  0  0  0  0  0  0  0  0
    1.3100   -1.1622    2.3686 C   0  0  0  0  0  0  0  0  0  0  0  0
   -2.1327   -0.5220    1.9955 H   0  0  0  0  0  0  0  0  0  0  0  0
   -0.3936   -1.9489    0.5238 H   0  0  0  0  0  0  0  0  0  0  0  0
    0.8762    0.6916    1.5033 H   0  0  0  0  0  0  0  0  0  0  0  0
    1.1303   -2.2317    2.3953 H   0  0  0  0  0  0  0  0  0  0  0  0
    2.0228   -0.7648    3.0796 H   0  0  0  0  0  0  0  0  0  0  0  0
    1.0219    0.9342   -0.8403 C   0  0  0  0  0  0  0  0  0  0  0  0
    1.0219    0.9342   -2.1389 C   0  0  0  0  0  0  0  0  0  0  0  0
    1.0219    0.9342   -3.4376 C   0  0  0  0  0  0  0  0  0  0  0  0
    0.3583    0.0393   -0.1702 H   0  0  0  0  0  0  0  0  0  0  0  0
    1.5749    1.6800   -0.2818 H   0  0  0  0  0  0  0  0  0  0  0  0
    0.2761    1.4872   -3.9960 H   0  0  0  0  0  0  0  0  0  0  0  0
    1.7676    0.3812   -3.9960 H   0  0  0  0  0  0  0  0  0  0  0  0
  1  2  1  0
  1  5  1  0
  2  3  1  0
  2  6  1  0
  3  4  2  3
  3  7  1  0
  4  8  1  0
  4  9  1  0
 10 11  2  0
 10 13  1  0
 10 14  1  0
 11 12  2  0
 12 15  1  0
 12 16  1  0
M  RAD  1   2   2
M  END
>  <reaction>  (10) 
rxn_1816

>  <mol_properties>  (10) 
{"0": {"label": "*0", "atom_type": "S2s"}, "1": {"label": "*1", "atom_type": "Cs"}, "9": {"label": "*3", "atom_type": "Ct"}, "10": {"label": "*4", "atom_type": "Ct"}, "12": {"label": "*2", "atom_type": "H0"}}

>  <type>  (10) 
unop_6

>  <geom_source>  (10) 
Heuristics

$$$$

     RDKit          3D

 16 14  0  0  0  0  0  0  0  0999 V2000
   -1.7083    0.2322    1.4223 S   0  0  0  0  0  0  0  0  0  0  0  0
   -0.5243   -0.7426    0.4372 C   0  0  0  0  0  3  0  0  0  0  0  0
    0.8224   -0.8281    1.0734 C   0  0  0  0  0  0  0  0  0  0  0  0
    1.3948   -1.9626    1.4457 C   0  0  0  0  0  0  0  0  0  0  0  0
   -1.6228   -0.5098    2.5340 H   0  0  0  0  0  0  0  0  0  0  0  0
   -0.9337   -1.7333    0.2417 H   0  0  0  0  0  0  0  0  0  0  0  0
    1.3279    0.1178    1.2427 H   0  0  0  0  0  0  0  0  0  0  0  0
    0.9058   -2.9194    1.2970 H   0  0  0  0  0  0  0  0  0  0  0  0
    2.3725   -1.9761    1.9098 H   0  0  0  0  0  0  0  0  0  0  0  0
    0.8081    1.0542   -0.9082 C   0  0  0  0  0  0  0  0  0  0  0  0
    0.8081    1.0542   -2.2069 C   0  0  0  0  0  0  0  0  0  0  0  0
    0.8081    1.0542   -3.5056 C   0  0  0  0  0  0  0  0  0  0  0  0
    0.1445    0.1593   -0.2381 H   0  0  0  0  0  0  0  0  0  0  0  0
    1.3611    1.7999   -0.3498 H   0  0  0  0  0  0  0  0  0  0  0  0
    0.0623    1.6072   -4.0640 H   0  0  0  0  0  0  0  0  0  0  0  0
    1.5538    0.5012   -4.0640 H   0  0  0  0  0  0  0  0  0  0  0  0
  1  2  1  0
  1  5  1  0
  2  3  1  0
  2  6  1  0
  3  4  2  3
  3  7  1  0
  4  8  1  0
  4  9  1  0
 10 11  2  0
 10 13  1  0
 10 14  1  0
 11 12  2  0
 12 15  1  0
 12 16  1  0
M  RAD  1   2   2
M  END
>  <reaction>  (11) 
rxn_1816

>  <mol_properties>  (11) 
{"0": {"label": "*0", "atom_type": "S2s"}, "1": {"label": "*1", "atom_type": "Cs"}, "9": {"label": "*3", "atom_type": "Ct"}, "10": {"label": "*4", "atom_type": "Ct"}, "12": {"label": "*2", "atom_type": "H0"}}

>  <type>  (11) 
unop_7

>  <geom_source>  (11) 
Heuristics

$$$$

     RDKit          3D

 16 14  0  0  0  0  0  0  0  0999 V2000
    0.8296   -1.5455    0.9340 S   0  0  0  0  0  0  0  0  0  0  0  0
   -0.3659   -0.1885    0.7067 C   0  0  0  0  0  3  0  0  0  0  0  0
   -1.7820   -0.6399    0.8365 C   0  0  0  0  0  0  0  0  0  0  0  0
   -2.6236   -0.1839    1.7514 C   0  0  0  0  0  0  0  0  0  0  0  0
    0.4276   -1.8932    2.1634 H   0  0  0  0  0  0  0  0  0  0  0  0
   -0.1428    0.6208    1.4013 H   0  0  0  0  0  0  0  0  0  0  0  0
   -2.1032   -1.4021    0.1332 H   0  0  0  0  0  0  0  0  0  0  0  0
   -2.3237    0.5698    2.4717 H   0  0  0  0  0  0  0  0  0  0  0  0
   -3.6421   -0.5452    1.8120 H   0  0  0  0  0  0  0  0  0  0  0  0
    0.9665    1.6083   -0.6387 C   0  0  0  0  0  0  0  0  0  0  0  0
    0.9665    1.6083   -1.9374 C   0  0  0  0  0  0  0  0  0  0  0  0
    0.9665    1.6083   -3.2360 C   0  0  0  0  0  0  0  0  0  0  0  0
    0.3029    0.7134    0.0314 H   0  0  0  0  0  0  0  0  0  0  0  0
    1.5195    2.3541   -0.0803 H   0  0  0  0  0  0  0  0  0  0  0  0
    0.2207    2.1613   -3.7945 H   0  0  0  0  0  0  0  0  0  0  0  0
    1.7122    1.0553   -3.7945 H   0  0  0  0  0  0  0  0  0  0  0  0
  1  2  1  0
  1  5  1  0
  2  3  1  0
  2  6  1  0
  3  4  2  3
  3  7  1  0
  4  8  1  0
  4  9  1  0
 10 11  2  0
 10 13  1  0
 10 14  1  0
 11 12  2  0
 12 15  1  0
 12 16  1  0
M  RAD  1   2   2
M  END
>  <reaction>  (12) 
rxn_1816

>  <mol_properties>  (12) 
{"0": {"label": "*0", "atom_type": "S2s"}, "1": {"label": "*1", "atom_type": "Cs"}, "9": {"label": "*3", "atom_type": "Ct"}, "10": {"label": "*4", "atom_type": "Ct"}, "12": {"label": "*2", "atom_type": "H0"}}

>  <type>  (12) 
unop_8

>  <geom_source>  (12) 
Heuristics

$$$$

     RDKit          3D

 16 14  0  0  0  0  0  0  0  0999 V2000
   -1.3833   -1.1042   -0.2761 S   0  0  0  0  0  0  0  0  0  0  0  0
    0.0223   -0.6933    0.8092 C   0  0  0  0  0  3  0  0  0  0  0  0
   -0.3549    0.2344    1.9149 C   0  0  0  0  0  0  0  0  0  0  0  0
   -0.2518   -0.0654    3.2006 C   0  0  0  0  0  0  0  0  0  0  0  0
   -2.1680   -1.6121    0.6832 H   0  0  0  0  0  0  0  0  0  0  0  0
    0.4711   -1.6081    1.1951 H   0  0  0  0  0  0  0  0  0  0  0  0
   -0.7510    1.1985    1.6110 H   0  0  0  0  0  0  0  0  0  0  0  0
    0.1309   -1.0257    3.5296 H   0  0  0  0  0  0  0  0  0  0  0  0
   -0.5436    0.6381    3.9697 H   0  0  0  0  0  0  0  0  0  0  0  0
    1.3548    1.1035   -0.5363 C   0  0  0  0  0  0  0  0  0  0  0  0
    1.3548    1.1035   -1.8350 C   0  0  0  0  0  0  0  0  0  0  0  0
    1.3548    1.1035   -3.1336 C   0  0  0  0  0  0  0  0  0  0  0  0
    0.6911    0.2086    0.1338 H   0  0  0  0  0  0  0  0  0  0  0  0
    1.9078    1.8493    0.0221 H   0  0  0  0  0  0  0  0  0  0  0  0
    0.6090    1.6565   -3.6921 H   0  0  0  0  0  0  0  0  0  0  0  0
    2.1005    0.5505   -3.6921 H   0  0  0  0  0  0  0  0  0  0  0  0
  1  2  1  0
  1  5  1  0
  2  3  1  0
  2  6  1  0
  3  4  2  3
  3  7  1  0
  4  8  1  0
  4  9  1  0
 10 11  2  0
 10 13  1  0
 10 14  1  0
 11 12  2  0
 12 15  1  0
 12 16  1  0
M  RAD  1   2   2
M  END
>  <reaction>  (13) 
rxn_1816

>  <mol_properties>  (13) 
{"0": {"label": "*0", "atom_type": "S2s"}, "1": {"label": "*1", "atom_type": "Cs"}, "9": {"label": "*3", "atom_type": "Ct"}, "10": {"label": "*4", "atom_type": "Ct"}, "12": {"label": "*2", "atom_type": "H0"}}

>  <type>  (13) 
unop_9

>  <geom_source>  (13) 
Heuristics

$$$$

     RDKit          3D

 16 14  0  0  0  0  0  0  0  0999 V2000
    0.4505   -1.7545    0.2888 S   0  0  0  0  0  0  0  0  0  0  0  0
   -0.2832   -0.1725    0.8193 C   0  0  0  0  0  3  0  0  0  0  0  0
   -1.7081   -0.3099    1.2394 C   0  0  0  0  0  0  0  0  0  0  0  0
   -2.1523   -0.0277    2.4544 C   0  0  0  0  0  0  0  0  0  0  0  0
    0.2302   -2.4120    1.4346 H   0  0  0  0  0  0  0  0  0  0  0  0
    0.3223    0.2689    1.6103 H   0  0  0  0  0  0  0  0  0  0  0  0
   -2.3917   -0.6833    0.4831 H   0  0  0  0  0  0  0  0  0  0  0  0
   -1.4875    0.3368    3.2303 H   0  0  0  0  0  0  0  0  0  0  0  0
   -3.1955   -0.1484    2.7165 H   0  0  0  0  0  0  0  0  0  0  0  0
    1.0492    1.6243   -0.5262 C   0  0  0  0  0  0  0  0  0  0  0  0
    1.0492    1.6243   -1.8249 C   0  0  0  0  0  0  0  0  0  0  0  0
    1.0492    1.6243   -3.1235 C   0  0  0  0  0  0  0  0  0  0  0  0
    0.3856    0.7294    0.1439 H   0  0  0  0  0  0  0  0  0  0  0  0
    1.6022    2.3701    0.0322 H   0  0  0  0  0  0  0  0  0  0  0  0
    0.3035    2.1773   -3.6819 H   0  0  0  0  0  0  0  0  0  0  0  0
    1.7950    1.0713   -3.6819 H   0  0  0  0  0  0  0  0  0  0  0  0
  1  2  1  0
  1  5  1  0
  2  3  1  0
  2  6  1  0
  3  4  2  3
  3  7  1  0
  4  8  1  0
  4  9  1  0
 10 11  2  0
 10 13  1  0
 10 14  1  0
 11 12  2  0
 12 15  1  0
 12 16  1  0
M  RAD  1   2   2
M  END
>  <reaction>  (14) 
rxn_1816

>  <mol_properties>  (14) 
{"0": {"label": "*0", "atom_type": "S2s"}, "1": {"label": "*1", "atom_type": "Cs"}, "9": {"label": "*3", "atom_type": "Ct"}, "10": {"label": "*4", "atom_type": "Ct"}, "12": {"label": "*2", "atom_type": "H0"}}

>  <type>  (14) 
unop_10

>  <geom_source>  (14) 
Heuristics

$$$$

     RDKit          3D

 16 14  0  0  0  0  0  0  0  0999 V2000
   -1.1105    0.3440    2.0090 S   0  0  0  0  0  0  0  0  0  0  0  0
   -0.6453   -0.5133    0.4692 C   0  0  0  0  0  3  0  0  0  0  0  0
    0.6125   -1.3035    0.6066 C   0  0  0  0  0  0  0  0  0  0  0  0
    0.6852   -2.6149    0.4385 C   0  0  0  0  0  0  0  0  0  0  0  0
   -1.1791   -0.7528    2.7746 H   0  0  0  0  0  0  0  0  0  0  0  0
   -1.4709   -1.1383    0.1303 H   0  0  0  0  0  0  0  0  0  0  0  0
    1.4996   -0.7398    0.8792 H   0  0  0  0  0  0  0  0  0  0  0  0
   -0.1886   -3.2019    0.1763 H   0  0  0  0  0  0  0  0  0  0  0  0
    1.6200   -3.1482    0.5544 H   0  0  0  0  0  0  0  0  0  0  0  0
    0.6871    1.2836   -0.8763 C   0  0  0  0  0  0  0  0  0  0  0  0
    0.6871    1.2836   -2.1749 C   0  0  0  0  0  0  0  0  0  0  0  0
    0.6871    1.2836   -3.4736 C   0  0  0  0  0  0  0  0  0  0  0  0
    0.0235    0.3886   -0.2062 H   0  0  0  0  0  0  0  0  0  0  0  0
    1.2401    2.0293   -0.3179 H   0  0  0  0  0  0  0  0  0  0  0  0
   -0.0587    1.8366   -4.0320 H   0  0  0  0  0  0  0  0  0  0  0  0
    1.4328    0.7306   -4.0320 H   0  0  0  0  0  0  0  0  0  0  0  0
  1  2  1  0
  1  5  1  0
  2  3  1  0
  2  6  1  0
  3  4  2  3
  3  7  1  0
  4  8  1  0
  4  9  1  0
 10 11  2  0
 10 13  1  0
 10 14  1  0
 11 12  2  0
 12 15  1  0
 12 16  1  0
M  RAD  1   2   2
M  END
>  <reaction>  (15) 
rxn_1816

>  <mol_properties>  (15) 
{"0": {"label": "*0", "atom_type": "S2s"}, "1": {"label": "*1", "atom_type": "Cs"}, "9": {"label": "*3", "atom_type": "Ct"}, "10": {"label": "*4", "atom_type": "Ct"}, "12": {"label": "*2", "atom_type": "H0"}}

>  <type>  (15) 
unop_11

>  <geom_source>  (15) 
Heuristics

$$$$

     RDKit          3D

 16 14  0  0  0  0  0  0  0  0999 V2000
   -0.7600   -1.4893   -0.3711 S   0  0  0  0  0  0  0  0  0  0  0  0
    0.0080   -0.4535    0.9172 C   0  0  0  0  0  3  0  0  0  0  0  0
   -0.9958    0.1926    1.8120 C   0  0  0  0  0  0  0  0  0  0  0  0
   -1.0643   -0.0132    3.1182 C   0  0  0  0  0  0  0  0  0  0  0  0
   -1.4197   -2.3014    0.4651 H   0  0  0  0  0  0  0  0  0  0  0  0
    0.7251   -1.0437    1.4871 H   0  0  0  0  0  0  0  0  0  0  0  0
   -1.7091    0.8517    1.3267 H   0  0  0  0  0  0  0  0  0  0  0  0
   -0.3699   -0.6751    3.6248 H   0  0  0  0  0  0  0  0  0  0  0  0
   -1.8145    0.4735    3.7280 H   0  0  0  0  0  0  0  0  0  0  0  0
    1.3404    1.3433   -0.4283 C   0  0  0  0  0  0  0  0  0  0  0  0
    1.3404    1.3433   -1.7269 C   0  0  0  0  0  0  0  0  0  0  0  0
    1.3404    1.3433   -3.0256 C   0  0  0  0  0  0  0  0  0  0  0  0
    0.6768    0.4484    0.2418 H   0  0  0  0  0  0  0  0  0  0  0  0
    1.8935    2.0890    0.1302 H   0  0  0  0  0  0  0  0  0  0  0  0
    0.5947    1.8963   -3.5840 H   0  0  0  0  0  0  0  0  0  0  0  0
    2.0862    0.7903   -3.5840 H   0  0  0  0  0  0  0  0  0  0  0  0
  1  2  1  0
  1  5  1  0
  2  3  1  0
  2  6  1  0
  3  4  2  3
  3  7  1  0
  4  8  1  0
  4  9  1  0
 10 11  2  0
 10 13  1  0
 10 14  1  0
 11 12  2  0
 12 15  1  0
 12 16  1  0
M  RAD  1   2   2
M  END
>  <reaction>  (16) 
rxn_1816

>  <mol_properties>  (16) 
{"0": {"label": "*0", "atom_type": "S2s"}, "1": {"label": "*1", "atom_type": "Cs"}, "9": {"label": "*3", "atom_type": "Ct"}, "10": {"label": "*4", "atom_type": "Ct"}, "12": {"label": "*2", "atom_type": "H0"}}

>  <type>  (16) 
unop_12

>  <geom_source>  (16) 
Heuristics

$$$$

     RDKit          3D

 16 14  0  0  0  0  0  0  0  0999 V2000
   -1.7647   -0.4234   -2.0916 S   0  0  0  0  0  0  0  0  0  0  0  0
   -1.0061   -0.6206   -0.4493 C   0  0  0  0  0  3  0  0  0  0  0  0
   -1.4416    0.4803    0.4710 C   0  0  0  0  0  0  0  0  0  0  0  0
   -2.7020    0.5760    0.9035 C   0  0  0  0  0  0  0  0  0  0  0  0
    3.3776    0.5272    0.3414 C   0  0  0  0  0  0  0  0  0  0  0  0
    2.4511   -0.3045   -0.0413 C   0  0  0  0  0  0  0  0  0  0  0  0
    1.5245   -1.1362   -0.4239 C   0  0  0  0  0  0  0  0  0  0  0  0
   -1.2904   -1.6067   -0.0246 H   0  0  0  0  0  0  0  0  0  0  0  0
    0.4073   -0.5799   -0.5912 H   0  0  0  0  0  0  0  0  0  0  0  0
   -0.7047    1.1999    0.8136 H   0  0  0  0  0  0  0  0  0  0  0  0
   -3.4560   -0.1394    0.5890 H   0  0  0  0  0  0  0  0  0  0  0  0
   -2.9849    1.3763    1.5795 H   0  0  0  0  0  0  0  0  0  0  0  0
    3.7712    1.2558   -0.3541 H   0  0  0  0  0  0  0  0  0  0  0  0
    3.7533    0.4891    1.3548 H   0  0  0  0  0  0  0  0  0  0  0  0
   -1.0687    0.7737   -2.3474 H   0  0  0  0  0  0  0  0  0  0  0  0
    1.1341   -1.8675    0.2706 H   0  0  0  0  0  0  0  0  0  0  0  0
  1  2  1  0
  1 15  1  0
  2  3  1  0
  2  8  1  0
  3  4  2  3
  3 10  1  0
  4 11  1  0
  4 12  1  0
  5  6  2  0
  5 13  1  0
  5 14  1  0
  6  7  2  0
  7  9  1  0
  7 16  1  0
M  RAD  1   2   2
M  END
>  <reaction>  (17) 
rxn_1816

>  <mol_properties>  (17) 
{"0": {"label": "*0", "atom_type": "S2s"}, "1": {"label": "*1", "atom_type": "Cs"}, "9": {"label": "*3", "atom_type": "Ct"}, "10": {"label": "*4", "atom_type": "Ct"}, "12": {"label": "*2", "atom_type": "H0"}}

>  <type>  (17) 
unop_13

>  <geom_source>  (17) 
AutoTST

$$$$
