
     RDKit          3D

  6  5  0  0  0  0  0  0  0  0999 V2000
   -0.6819   -0.1027   -0.0106 N   0  0  0  0  0  0  0  0  0  0  0  0
    0.6339    0.2147    0.0079 C   0  0  0  0  0  0  0  0  0  0  0  0
    1.0720    1.3374   -0.0025 O   0  0  0  0  0  0  0  0  0  0  0  0
   -1.3651    0.6341   -0.0350 H   0  0  0  0  0  0  0  0  0  0  0  0
   -0.9875   -1.0572   -0.0005 H   0  0  0  0  0  0  0  0  0  0  0  0
    1.2840   -0.6787    0.0343 H   0  0  0  0  0  0  0  0  0  0  0  0
  1  2  1  0
  1  4  1  0
  1  5  1  0
  2  3  2  0
  2  6  1  0
M  END
>  <reaction>  (1) 
rxn_3142

>  <mol_properties>  (1) 
{"0": {"label": "donator", "atom_type": "N3s"}, "3": {"label": "d_hydrogen", "atom_type": "H0"}}

>  <type>  (1) 
r1h

$$$$

     RDKit          3D

  6  6  0  0  0  0  0  0  0  0999 V2000
    1.9594    0.0134   -0.3734 N   0  0  0  0  0  2  0  0  0  0  0  0
    0.7437    0.0051   -0.0788 C   0  0  0  0  0  0  0  0  0  0  0  0
   -0.0745    1.0868    0.0233 O   0  0  0  0  0  0  0  0  0  0  0  0
   -1.3223    0.5972    0.3682 N   0  0  0  0  0  0  0  0  0  0  0  0
   -1.2899   -0.6150    0.4676 N   0  0  0  0  0  0  0  0  0  0  0  0
   -0.0165   -1.0874    0.2015 O   0  0  0  0  0  0  0  0  0  0  0  0
  1  2  2  0
  2  3  1  0
  2  6  1  0
  3  4  1  0
  4  5  2  0
  5  6  1  0
M  RAD  1   1   2
M  END
>  <reaction>  (2) 
rxn_3142

>  <mol_properties>  (2) 
{"0": {"label": "acceptor", "atom_type": "N3d"}}

>  <type>  (2) 
r2

$$$$

     RDKit          3D

  7  7  0  0  0  0  0  0  0  0999 V2000
    1.6064   -0.4313    0.1905 N   0  0  0  0  0  0  0  0  0  0  0  0
    0.3982   -0.1725    0.0701 C   0  0  0  0  0  0  0  0  0  0  0  0
   -0.6051   -1.0481    0.3497 O   0  0  0  0  0  0  0  0  0  0  0  0
   -1.7906   -0.4044    0.0958 N   0  0  0  0  0  0  0  0  0  0  0  0
   -1.5819    0.7348   -0.2956 N   0  0  0  0  0  0  0  0  0  0  0  0
   -0.2229    0.9708   -0.3436 O   0  0  0  0  0  0  0  0  0  0  0  0
    2.1958    0.3506   -0.0669 H   0  0  0  0  0  0  0  0  0  0  0  0
  1  2  2  3
  1  7  1  0
  2  3  1  0
  2  6  1  0
  3  4  1  0
  4  5  2  0
  5  6  1  0
M  END
>  <reaction>  (3) 
rxn_3142

>  <mol_properties>  (3) 
{"0": {"label": "acceptor", "atom_type": "N3d"}, "6": {"label": "a_hydrogen", "atom_type": "H0"}}

>  <type>  (3) 
r2h

$$$$

     RDKit          3D

 12 11  0  0  0  0  0  0  0  0999 V2000
    1.1508    0.8537    0.8007 N   0  0  0  0  0  0  0  0  0  0  0  0
    0.1127    0.9063    0.1140 C   0  0  0  0  0  0  0  0  0  0  0  0
   -0.2506    1.9789   -0.6386 O   0  0  0  0  0  0  0  0  0  0  0  0
   -1.4482    1.6619   -1.2389 N   0  0  0  0  0  0  0  0  0  0  0  0
   -1.8030    0.5414   -0.9115 N   0  0  0  0  0  0  0  0  0  0  0  0
   -0.8766   -0.0135   -0.0505 O   0  0  0  0  0  0  0  0  0  0  0  0
    1.2054   -1.3970    1.7947 N   0  0  0  0  0  0  0  0  0  0  0  0
    1.0803   -2.3659    0.8365 C   0  0  0  0  0  0  0  0  0  0  0  0
    1.3641   -2.2608   -0.3268 O   0  0  0  0  0  1  0  0  0  0  0  0
    1.3595   -0.1515    1.3264 H   0  0  0  0  0  0  0  0  0  0  0  0
    0.5167   -1.4646    2.5387 H   0  0  0  0  0  0  0  0  0  0  0  0
    0.7449   -3.3311    1.2724 H   0  0  0  0  0  0  0  0  0  0  0  0
  1  2  2  3
  1 10  1  0
  2  3  1  0
  2  6  1  0
  3  4  1  0
  4  5  2  0
  5  6  1  0
  7  8  2  3
  7 11  1  0
  8  9  1  0
  8 12  1  0
M  RAD  1   9   2
M  END
>  <reaction>  (4) 
rxn_3142

>  <mol_properties>  (4) 
{"0": {"label": "*1", "atom_type": "N3d"}, "1": {"label": "*0", "atom_type": "Cd"}, "6": {"label": "*3", "atom_type": "N3d"}, "7": {"label": "*4", "atom_type": "Cd"}, "9": {"label": "*2", "atom_type": "H0"}}

>  <type>  (4) 
ts

$$$$

     RDKit          3D

 12 11  0  0  0  0  0  0  0  0999 V2000
    1.0498    0.2393   -0.3902 N   0  0  0  0  0  2  0  0  0  0  0  0
    0.0557    0.9150   -0.0798 C   0  0  0  0  0  0  0  0  0  0  0  0
    0.0958    2.2383    0.2346 O   0  0  0  0  0  0  0  0  0  0  0  0
   -1.1890    2.6290    0.5189 N   0  0  0  0  0  0  0  0  0  0  0  0
   -1.9570    1.6850    0.4037 N   0  0  0  0  0  0  0  0  0  0  0  0
   -1.2573    0.5565    0.0272 O   0  0  0  0  0  0  0  0  0  0  0  0
    1.0498   -1.9396    0.6653 N   0  0  0  0  0  0  0  0  0  0  0  0
    1.0498   -3.0502   -0.1085 C   0  0  0  0  0  0  0  0  0  0  0  0
    1.0498   -3.0502   -1.3137 O   0  0  0  0  0  0  0  0  0  0  0  0
    1.0498   -0.8541    0.1395 H   0  0  0  0  0  0  0  0  0  0  0  0
    1.0498   -2.0019    1.6656 H   0  0  0  0  0  0  0  0  0  0  0  0
    1.0498   -3.9809    0.4876 H   0  0  0  0  0  0  0  0  0  0  0  0
  1  2  2  0
  2  3  1  0
  2  6  1  0
  3  4  1  0
  4  5  2  0
  5  6  1  0
  7  8  1  0
  7 10  1  0
  7 11  1  0
  8  9  2  0
  8 12  1  0
M  RAD  1   1   2
M  END
>  <reaction>  (5) 
rxn_3142

>  <mol_properties>  (5) 
{"0": {"label": "*1", "atom_type": "N3d"}, "1": {"label": "*0", "atom_type": "Cd"}, "6": {"label": "*3", "atom_type": "N3d"}, "7": {"label": "*4", "atom_type": "Cd"}, "9": {"label": "*2", "atom_type": "H0"}}

>  <type>  (5) 
unop_1

>  <geom_source>  (5) 
Heuristics

$$$$

     RDKit          3D

 12 11  0  0  0  0  0  0  0  0999 V2000
    0.6210    0.9684    1.1304 N   0  0  0  0  0  2  0  0  0  0  0  0
    0.0471    0.9606    0.0295 C   0  0  0  0  0  0  0  0  0  0  0  0
   -0.4217    2.0728   -0.5987 O   0  0  0  0  0  0  0  0  0  0  0  0
   -0.9877    1.6653   -1.7810 N   0  0  0  0  0  0  0  0  0  0  0  0
   -0.8970    0.4521   -1.9012 N   0  0  0  0  0  0  0  0  0  0  0  0
   -0.2552   -0.0798   -0.8012 O   0  0  0  0  0  0  0  0  0  0  0  0
    0.6210   -1.2105    2.1859 N   0  0  0  0  0  0  0  0  0  0  0  0
    0.6210   -2.3211    1.4121 C   0  0  0  0  0  0  0  0  0  0  0  0
    0.6210   -2.3211    0.2068 O   0  0  0  0  0  0  0  0  0  0  0  0
    0.6210   -0.1250    1.6600 H   0  0  0  0  0  0  0  0  0  0  0  0
    0.6210   -1.2727    3.1862 H   0  0  0  0  0  0  0  0  0  0  0  0
    0.6210   -3.2518    2.0081 H   0  0  0  0  0  0  0  0  0  0  0  0
  1  2  2  0
  2  3  1  0
  2  6  1  0
  3  4  1  0
  4  5  2  0
  5  6  1  0
  7  8  1  0
  7 10  1  0
  7 11  1  0
  8  9  2  0
  8 12  1  0
M  RAD  1   1   2
M  END
>  <reaction>  (6) 
rxn_3142

>  <mol_properties>  (6) 
{"0": {"label": "*1", "atom_type": "N3d"}, "1": {"label": "*0", "atom_type": "Cd"}, "6": {"label": "*3", "atom_type": "N3d"}, "7": {"label": "*4", "atom_type": "Cd"}, "9": {"label": "*2", "atom_type": "H0"}}

>  <type>  (6) 
unop_2

>  <geom_source>  (6) 
Heuristics

$$$$

     RDKit          3D

 12 11  0  0  0  0  0  0  0  0999 V2000
    0.5963    0.0458   -0.7813 N   0  0  0  0  0  2  0  0  0  0  0  0
    0.0224    0.9048   -0.0928 C   0  0  0  0  0  0  0  0  0  0  0  0
    0.3680    2.2205   -0.0636 O   0  0  0  0  0  0  0  0  0  0  0  0
   -0.4890    2.8480    0.8059 N   0  0  0  0  0  0  0  0  0  0  0  0
   -1.2825    2.0456    1.2759 N   0  0  0  0  0  0  0  0  0  0  0  0
   -1.0344    0.7882    0.7637 O   0  0  0  0  0  0  0  0  0  0  0  0
    0.5963   -2.1331    0.2742 N   0  0  0  0  0  0  0  0  0  0  0  0
    0.5963   -3.2437   -0.4996 C   0  0  0  0  0  0  0  0  0  0  0  0
    0.5963   -3.2437   -1.7048 O   0  0  0  0  0  0  0  0  0  0  0  0
    0.5963   -1.0476   -0.2516 H   0  0  0  0  0  0  0  0  0  0  0  0
    0.5963   -2.1953    1.2745 H   0  0  0  0  0  0  0  0  0  0  0  0
    0.5963   -4.1743    0.0965 H   0  0  0  0  0  0  0  0  0  0  0  0
  1  2  2  0
  2  3  1  0
  2  6  1  0
  3  4  1  0
  4  5  2  0
  5  6  1  0
  7  8  1  0
  7 10  1  0
  7 11  1  0
  8  9  2  0
  8 12  1  0
M  RAD  1   1   2
M  END
>  <reaction>  (7) 
rxn_3142

>  <mol_properties>  (7) 
{"0": {"label": "*1", "atom_type": "N3d"}, "1": {"label": "*0", "atom_type": "Cd"}, "6": {"label": "*3", "atom_type": "N3d"}, "7": {"label": "*4", "atom_type": "Cd"}, "9": {"label": "*2", "atom_type": "H0"}}

>  <type>  (7) 
unop_3

>  <geom_source>  (7) 
Heuristics

$$$$

     RDKit          3D

 12 11  0  0  0  0  0  0  0  0999 V2000
   -1.0696    0.7721    0.7170 N   0  0  0  0  0  2  0  0  0  0  0  0
   -0.0755    0.9474   -0.0056 C   0  0  0  0  0  0  0  0  0  0  0  0
    0.5382    2.1482   -0.1873 O   0  0  0  0  0  0  0  0  0  0  0  0
    1.5894    1.9431   -1.0460 N   0  0  0  0  0  0  0  0  0  0  0  0
    1.6475    0.7673   -1.3754 N   0  0  0  0  0  0  0  0  0  0  0  0
    0.6317    0.0600   -0.7648 O   0  0  0  0  0  0  0  0  0  0  0  0
   -1.0696   -1.4068    1.7726 N   0  0  0  0  0  0  0  0  0  0  0  0
   -1.0696   -2.5174    0.9988 C   0  0  0  0  0  0  0  0  0  0  0  0
   -1.0696   -2.5174   -0.2065 O   0  0  0  0  0  0  0  0  0  0  0  0
   -1.0696   -0.3213    1.2467 H   0  0  0  0  0  0  0  0  0  0  0  0
   -1.0696   -1.4691    2.7729 H   0  0  0  0  0  0  0  0  0  0  0  0
   -1.0696   -3.4481    1.5948 H   0  0  0  0  0  0  0  0  0  0  0  0
  1  2  2  0
  2  3  1  0
  2  6  1  0
  3  4  1  0
  4  5  2  0
  5  6  1  0
  7  8  1  0
  7 10  1  0
  7 11  1  0
  8  9  2  0
  8 12  1  0
M  RAD  1   1   2
M  END
>  <reaction>  (8) 
rxn_3142

>  <mol_properties>  (8) 
{"0": {"label": "*1", "atom_type": "N3d"}, "1": {"label": "*0", "atom_type": "Cd"}, "6": {"label": "*3", "atom_type": "N3d"}, "7": {"label": "*4", "atom_type": "Cd"}, "9": {"label": "*2", "atom_type": "H0"}}

>  <type>  (8) 
unop_4

>  <geom_source>  (8) 
Heuristics

$$$$

     RDKit          3D

 12 11  0  0  0  0  0  0  0  0999 V2000
   -0.0000   -0.0252   -0.9168 N   0  0  0  0  0  2  0  0  0  0  0  0
    0.0000    0.9008   -0.0899 C   0  0  0  0  0  0  0  0  0  0  0  0
   -0.0000    2.2214   -0.4177 O   0  0  0  0  0  0  0  0  0  0  0  0
   -0.0000    2.9329    0.7563 N   0  0  0  0  0  0  0  0  0  0  0  0
   -0.0000    2.1740    1.7147 N   0  0  0  0  0  0  0  0  0  0  0  0
    0.0000    0.8658    1.2749 O   0  0  0  0  0  0  0  0  0  0  0  0
    0.0000   -2.2041    0.1387 N   0  0  0  0  0  0  0  0  0  0  0  0
    0.0000   -3.3147   -0.6351 C   0  0  0  0  0  0  0  0  0  0  0  0
    0.0000   -3.3147   -1.8403 O   0  0  0  0  0  0  0  0  0  0  0  0
    0.0000   -1.1186   -0.3871 H   0  0  0  0  0  0  0  0  0  0  0  0
   -0.0000   -2.2664    1.1390 H   0  0  0  0  0  0  0  0  0  0  0  0
   -0.0000   -4.2454   -0.0390 H   0  0  0  0  0  0  0  0  0  0  0  0
  1  2  2  0
  2  3  1  0
  2  6  1  0
  3  4  1  0
  4  5  2  0
  5  6  1  0
  7  8  1  0
  7 10  1  0
  7 11  1  0
  8  9  2  0
  8 12  1  0
M  RAD  1   1   2
M  END
>  <reaction>  (9) 
rxn_3142

>  <mol_properties>  (9) 
{"0": {"label": "*1", "atom_type": "N3d"}, "1": {"label": "*0", "atom_type": "Cd"}, "6": {"label": "*3", "atom_type": "N3d"}, "7": {"label": "*4", "atom_type": "Cd"}, "9": {"label": "*2", "atom_type": "H0"}}

>  <type>  (9) 
unop_5

>  <geom_source>  (9) 
Heuristics

$$$$

     RDKit          3D

 12 11  0  0  0  0  0  0  0  0999 V2000
   -1.2254    0.5049    0.1592 N   0  0  0  0  0  2  0  0  0  0  0  0
   -0.0775    0.9305   -0.0470 C   0  0  0  0  0  0  0  0  0  0  0  0
    0.3117    2.2178    0.1599 O   0  0  0  0  0  0  0  0  0  0  0  0
    1.6396    2.3016   -0.1775 N   0  0  0  0  0  0  0  0  0  0  0  0
    2.0537    1.2142   -0.5523 N   0  0  0  0  0  0  0  0  0  0  0  0
    1.0351    0.2840   -0.5032 O   0  0  0  0  0  0  0  0  0  0  0  0
   -1.2254   -1.6740    1.2147 N   0  0  0  0  0  0  0  0  0  0  0  0
   -1.2254   -2.7846    0.4409 C   0  0  0  0  0  0  0  0  0  0  0  0
   -1.2254   -2.7846   -0.7643 O   0  0  0  0  0  0  0  0  0  0  0  0
   -1.2254   -0.5885    0.6888 H   0  0  0  0  0  0  0  0  0  0  0  0
   -1.2254   -1.7363    2.2150 H   0  0  0  0  0  0  0  0  0  0  0  0
   -1.2254   -3.7153    1.0370 H   0  0  0  0  0  0  0  0  0  0  0  0
  1  2  2  0
  2  3  1  0
  2  6  1  0
  3  4  1  0
  4  5  2  0
  5  6  1  0
  7  8  1  0
  7 10  1  0
  7 11  1  0
  8  9  2  0
  8 12  1  0
M  RAD  1   1   2
M  END
>  <reaction>  (10) 
rxn_3142

>  <mol_properties>  (10) 
{"0": {"label": "*1", "atom_type": "N3d"}, "1": {"label": "*0", "atom_type": "Cd"}, "6": {"label": "*3", "atom_type": "N3d"}, "7": {"label": "*4", "atom_type": "Cd"}, "9": {"label": "*2", "atom_type": "H0"}}

>  <type>  (10) 
unop_6

>  <geom_source>  (10) 
Heuristics

$$$$

     RDKit          3D

 12 11  0  0  0  0  0  0  0  0999 V2000
   -1.0498    0.2393   -0.3902 N   0  0  0  0  0  2  0  0  0  0  0  0
   -0.0557    0.9150   -0.0798 C   0  0  0  0  0  0  0  0  0  0  0  0
   -0.0958    2.2383    0.2346 O   0  0  0  0  0  0  0  0  0  0  0  0
    1.1890    2.6290    0.5189 N   0  0  0  0  0  0  0  0  0  0  0  0
    1.9570    1.6850    0.4037 N   0  0  0  0  0  0  0  0  0  0  0  0
    1.2573    0.5565    0.0272 O   0  0  0  0  0  0  0  0  0  0  0  0
   -1.0498   -1.9396    0.6653 N   0  0  0  0  0  0  0  0  0  0  0  0
   -1.0498   -3.0502   -0.1085 C   0  0  0  0  0  0  0  0  0  0  0  0
   -1.0498   -3.0502   -1.3137 O   0  0  0  0  0  0  0  0  0  0  0  0
   -1.0498   -0.8541    0.1395 H   0  0  0  0  0  0  0  0  0  0  0  0
   -1.0498   -2.0019    1.6656 H   0  0  0  0  0  0  0  0  0  0  0  0
   -1.0498   -3.9809    0.4876 H   0  0  0  0  0  0  0  0  0  0  0  0
  1  2  2  0
  2  3  1  0
  2  6  1  0
  3  4  1  0
  4  5  2  0
  5  6  1  0
  7  8  1  0
  7 10  1  0
  7 11  1  0
  8  9  2  0
  8 12  1  0
M  RAD  1   1   2
M  END
>  <reaction>  (11) 
rxn_3142

>  <mol_properties>  (11) 
{"0": {"label": "*1", "atom_type": "N3d"}, "1": {"label": "*0", "atom_type": "Cd"}, "6": {"label": "*3", "atom_type": "N3d"}, "7": {"label": "*4", "atom_type": "Cd"}, "9": {"label": "*2", "atom_type": "H0"}}

>  <type>  (11) 
unop_7

>  <geom_source>  (11) 
Heuristics

$$$$

     RDKit          3D

 12 11  0  0  0  0  0  0  0  0999 V2000
    1.2254    0.5049    0.1592 N   0  0  0  0  0  2  0  0  0  0  0  0
    0.0775    0.9305   -0.0470 C   0  0  0  0  0  0  0  0  0  0  0  0
   -0.3117    2.2178    0.1599 O   0  0  0  0  0  0  0  0  0  0  0  0
   -1.6396    2.3016   -0.1775 N   0  0  0  0  0  0  0  0  0  0  0  0
   -2.0537    1.2142   -0.5523 N   0  0  0  0  0  0  0  0  0  0  0  0
   -1.0351    0.2840   -0.5032 O   0  0  0  0  0  0  0  0  0  0  0  0
    1.2254   -1.6740    1.2147 N   0  0  0  0  0  0  0  0  0  0  0  0
    1.2254   -2.7846    0.4409 C   0  0  0  0  0  0  0  0  0  0  0  0
    1.2254   -2.7846   -0.7643 O   0  0  0  0  0  0  0  0  0  0  0  0
    1.2254   -0.5885    0.6888 H   0  0  0  0  0  0  0  0  0  0  0  0
    1.2254   -1.7363    2.2150 H   0  0  0  0  0  0  0  0  0  0  0  0
    1.2254   -3.7153    1.0370 H   0  0  0  0  0  0  0  0  0  0  0  0
  1  2  2  0
  2  3  1  0
  2  6  1  0
  3  4  1  0
  4  5  2  0
  5  6  1  0
  7  8  1  0
  7 10  1  0
  7 11  1  0
  8  9  2  0
  8 12  1  0
M  RAD  1   1   2
M  END
>  <reaction>  (12) 
rxn_3142

>  <mol_properties>  (12) 
{"0": {"label": "*1", "atom_type": "N3d"}, "1": {"label": "*0", "atom_type": "Cd"}, "6": {"label": "*3", "atom_type": "N3d"}, "7": {"label": "*4", "atom_type": "Cd"}, "9": {"label": "*2", "atom_type": "H0"}}

>  <type>  (12) 
unop_8

>  <geom_source>  (12) 
Heuristics

$$$$

     RDKit          3D

 12 11  0  0  0  0  0  0  0  0999 V2000
   -0.6210    0.9684    1.1304 N   0  0  0  0  0  2  0  0  0  0  0  0
   -0.0471    0.9606    0.0295 C   0  0  0  0  0  0  0  0  0  0  0  0
    0.4217    2.0728   -0.5987 O   0  0  0  0  0  0  0  0  0  0  0  0
    0.9877    1.6653   -1.7810 N   0  0  0  0  0  0  0  0  0  0  0  0
    0.8970    0.4521   -1.9012 N   0  0  0  0  0  0  0  0  0  0  0  0
    0.2552   -0.0798   -0.8012 O   0  0  0  0  0  0  0  0  0  0  0  0
   -0.6210   -1.2105    2.1859 N   0  0  0  0  0  0  0  0  0  0  0  0
   -0.6210   -2.3211    1.4121 C   0  0  0  0  0  0  0  0  0  0  0  0
   -0.6210   -2.3211    0.2068 O   0  0  0  0  0  0  0  0  0  0  0  0
   -0.6210   -0.1250    1.6600 H   0  0  0  0  0  0  0  0  0  0  0  0
   -0.6210   -1.2727    3.1862 H   0  0  0  0  0  0  0  0  0  0  0  0
   -0.6210   -3.2518    2.0081 H   0  0  0  0  0  0  0  0  0  0  0  0
  1  2  2  0
  2  3  1  0
  2  6  1  0
  3  4  1  0
  4  5  2  0
  5  6  1  0
  7  8  1  0
  7 10  1  0
  7 11  1  0
  8  9  2  0
  8 12  1  0
M  RAD  1   1   2
M  END
>  <reaction>  (13) 
rxn_3142

>  <mol_properties>  (13) 
{"0": {"label": "*1", "atom_type": "N3d"}, "1": {"label": "*0", "atom_type": "Cd"}, "6": {"label": "*3", "atom_type": "N3d"}, "7": {"label": "*4", "atom_type": "Cd"}, "9": {"label": "*2", "atom_type": "H0"}}

>  <type>  (13) 
unop_9

>  <geom_source>  (13) 
Heuristics

$$$$

     RDKit          3D

 12 11  0  0  0  0  0  0  0  0999 V2000
    1.0696    0.7721    0.7170 N   0  0  0  0  0  2  0  0  0  0  0  0
    0.0755    0.9474   -0.0056 C   0  0  0  0  0  0  0  0  0  0  0  0
   -0.5382    2.1482   -0.1873 O   0  0  0  0  0  0  0  0  0  0  0  0
   -1.5894    1.9431   -1.0460 N   0  0  0  0  0  0  0  0  0  0  0  0
   -1.6475    0.7673   -1.3754 N   0  0  0  0  0  0  0  0  0  0  0  0
   -0.6317    0.0600   -0.7648 O   0  0  0  0  0  0  0  0  0  0  0  0
    1.0696   -1.4068    1.7726 N   0  0  0  0  0  0  0  0  0  0  0  0
    1.0696   -2.5174    0.9988 C   0  0  0  0  0  0  0  0  0  0  0  0
    1.0696   -2.5174   -0.2065 O   0  0  0  0  0  0  0  0  0  0  0  0
    1.0696   -0.3213    1.2467 H   0  0  0  0  0  0  0  0  0  0  0  0
    1.0696   -1.4691    2.7729 H   0  0  0  0  0  0  0  0  0  0  0  0
    1.0696   -3.4481    1.5948 H   0  0  0  0  0  0  0  0  0  0  0  0
  1  2  2  0
  2  3  1  0
  2  6  1  0
  3  4  1  0
  4  5  2  0
  5  6  1  0
  7  8  1  0
  7 10  1  0
  7 11  1  0
  8  9  2  0
  8 12  1  0
M  RAD  1   1   2
M  END
>  <reaction>  (14) 
rxn_3142

>  <mol_properties>  (14) 
{"0": {"label": "*1", "atom_type": "N3d"}, "1": {"label": "*0", "atom_type": "Cd"}, "6": {"label": "*3", "atom_type": "N3d"}, "7": {"label": "*4", "atom_type": "Cd"}, "9": {"label": "*2", "atom_type": "H0"}}

>  <type>  (14) 
unop_10

>  <geom_source>  (14) 
Heuristics

$$$$

     RDKit          3D

 12 11  0  0  0  0  0  0  0  0999 V2000
   -0.5963    0.0458   -0.7813 N   0  0  0  0  0  2  0  0  0  0  0  0
   -0.0224    0.9048   -0.0928 C   0  0  0  0  0  0  0  0  0  0  0  0
   -0.3680    2.2205   -0.0636 O   0  0  0  0  0  0  0  0  0  0  0  0
    0.4890    2.8480    0.8059 N   0  0  0  0  0  0  0  0  0  0  0  0
    1.2825    2.0456    1.2759 N   0  0  0  0  0  0  0  0  0  0  0  0
    1.0344    0.7882    0.7637 O   0  0  0  0  0  0  0  0  0  0  0  0
   -0.5963   -2.1331    0.2742 N   0  0  0  0  0  0  0  0  0  0  0  0
   -0.5963   -3.2437   -0.4996 C   0  0  0  0  0  0  0  0  0  0  0  0
   -0.5963   -3.2437   -1.7048 O   0  0  0  0  0  0  0  0  0  0  0  0
   -0.5963   -1.0476   -0.2516 H   0  0  0  0  0  0  0  0  0  0  0  0
   -0.5963   -2.1953    1.2745 H   0  0  0  0  0  0  0  0  0  0  0  0
   -0.5963   -4.1743    0.0965 H   0  0  0  0  0  0  0  0  0  0  0  0
  1  2  2  0
  2  3  1  0
  2  6  1  0
  3  4  1  0
  4  5  2  0
  5  6  1  0
  7  8  1  0
  7 10  1  0
  7 11  1  0
  8  9  2  0
  8 12  1  0
M  RAD  1   1   2
M  END
>  <reaction>  (15) 
rxn_3142

>  <mol_properties>  (15) 
{"0": {"label": "*1", "atom_type": "N3d"}, "1": {"label": "*0", "atom_type": "Cd"}, "6": {"label": "*3", "atom_type": "N3d"}, "7": {"label": "*4", "atom_type": "Cd"}, "9": {"label": "*2", "atom_type": "H0"}}

>  <type>  (15) 
unop_11

>  <geom_source>  (15) 
Heuristics

$$$$

     RDKit          3D

 12 11  0  0  0  0  0  0  0  0999 V2000
   -0.0000    1.0404    1.2829 N   0  0  0  0  0  2  0  0  0  0  0  0
   -0.0000    0.9655    0.0437 C   0  0  0  0  0  0  0  0  0  0  0  0
    0.0000    2.0413   -0.7895 O   0  0  0  0  0  0  0  0  0  0  0  0
   -0.0000    1.5611   -2.0754 N   0  0  0  0  0  0  0  0  0  0  0  0
   -0.0000    0.3386   -2.0740 N   0  0  0  0  0  0  0  0  0  0  0  0
   -0.0000   -0.1272   -0.7748 O   0  0  0  0  0  0  0  0  0  0  0  0
    0.0000   -1.1385    2.3384 N   0  0  0  0  0  0  0  0  0  0  0  0
    0.0000   -2.2491    1.5646 C   0  0  0  0  0  0  0  0  0  0  0  0
    0.0000   -2.2491    0.3594 O   0  0  0  0  0  0  0  0  0  0  0  0
    0.0000   -0.0530    1.8126 H   0  0  0  0  0  0  0  0  0  0  0  0
   -0.0000   -1.2007    3.3387 H   0  0  0  0  0  0  0  0  0  0  0  0
   -0.0000   -3.1798    2.1607 H   0  0  0  0  0  0  0  0  0  0  0  0
  1  2  2  0
  2  3  1  0
  2  6  1  0
  3  4  1  0
  4  5  2  0
  5  6  1  0
  7  8  1  0
  7 10  1  0
  7 11  1  0
  8  9  2  0
  8 12  1  0
M  RAD  1   1   2
M  END
>  <reaction>  (16) 
rxn_3142

>  <mol_properties>  (16) 
{"0": {"label": "*1", "atom_type": "N3d"}, "1": {"label": "*0", "atom_type": "Cd"}, "6": {"label": "*3", "atom_type": "N3d"}, "7": {"label": "*4", "atom_type": "Cd"}, "9": {"label": "*2", "atom_type": "H0"}}

>  <type>  (16) 
unop_12

>  <geom_source>  (16) 
Heuristics

$$$$

     RDKit          3D

 12 11  0  0  0  0  0  0  0  0999 V2000
    0.6210    0.9684    1.1304 N   0  0  0  0  0  2  0  0  0  0  0  0
    0.0471    0.9606    0.0295 C   0  0  0  0  0  0  0  0  0  0  0  0
   -0.4217    2.0728   -0.5987 O   0  0  0  0  0  0  0  0  0  0  0  0
   -0.9877    1.6652   -1.7810 N   0  0  0  0  0  0  0  0  0  0  0  0
   -0.8971    0.4521   -1.9012 N   0  0  0  0  0  0  0  0  0  0  0  0
   -0.2552   -0.0799   -0.8012 O   0  0  0  0  0  0  0  0  0  0  0  0
    0.6210   -1.2105    2.1859 N   0  0  0  0  0  0  0  0  0  0  0  0
    0.6210   -2.3211    1.4121 C   0  0  0  0  0  0  0  0  0  0  0  0
    0.6210   -2.3211    0.2069 O   0  0  0  0  0  0  0  0  0  0  0  0
    0.6210   -0.1250    1.6600 H   0  0  0  0  0  0  0  0  0  0  0  0
    0.6210   -1.2727    3.1862 H   0  0  0  0  0  0  0  0  0  0  0  0
    0.6210   -3.2518    2.0081 H   0  0  0  0  0  0  0  0  0  0  0  0
  1  2  2  0
  2  3  1  0
  2  6  1  0
  3  4  1  0
  4  5  2  0
  5  6  1  0
  7  8  1  0
  7 10  1  0
  7 11  1  0
  8  9  2  0
  8 12  1  0
M  RAD  1   1   2
M  END
>  <reaction>  (17) 
rxn_3142

>  <mol_properties>  (17) 
{"0": {"label": "*1", "atom_type": "N3d"}, "1": {"label": "*0", "atom_type": "Cd"}, "6": {"label": "*3", "atom_type": "N3d"}, "7": {"label": "*4", "atom_type": "Cd"}, "9": {"label": "*2", "atom_type": "H0"}}

>  <type>  (17) 
unop_13

>  <geom_source>  (17) 
gaussian_log

$$$$
