
     RDKit          3D

  7  6  0  0  0  0  0  0  0  0999 V2000
    1.6964   -0.0938    0.0583 C   0  0  0  0  0  0  0  0  0  0  0  0
    0.5019   -0.0278    0.0173 C   0  0  0  0  0  0  0  0  0  0  0  0
   -0.9505    0.0525   -0.0327 C   0  0  0  0  0  0  0  0  0  0  0  0
    2.7574   -0.1524    0.0947 H   0  0  0  0  0  0  0  0  0  0  0  0
   -1.2692    0.9972   -0.4754 H   0  0  0  0  0  0  0  0  0  0  0  0
   -1.3749   -0.0147    0.9700 H   0  0  0  0  0  0  0  0  0  0  0  0
   -1.3610   -0.7611   -0.6323 H   0  0  0  0  0  0  0  0  0  0  0  0
  1  2  3  0
  1  4  1  0
  2  3  1  0
  3  5  1  0
  3  6  1  0
  3  7  1  0
M  END
>  <reaction>  (1) 
rxn_1256

>  <mol_properties>  (1) 
{"2": {"label": "donator", "atom_type": "Cs"}, "4": {"label": "d_hydrogen", "atom_type": "H0"}}

>  <type>  (1) 
r1h

$$$$

     RDKit          3D

  5  4  0  0  0  0  0  0  0  0999 V2000
    2.6313   -0.6921   -0.0583 S   0  0  0  0  0  0  0  0  0  0  0  0
    1.1354   -0.3285    0.0802 C   0  0  0  0  0  3  0  0  0  0  0  0
   -0.1320    0.0261    0.1834 C   0  0  0  0  0  0  0  0  0  0  0  0
   -1.3118    0.3358    0.2856 C   0  0  0  0  0  0  0  0  0  0  0  0
   -2.3230    0.6587    0.3557 H   0  0  0  0  0  0  0  0  0  0  0  0
  1  2  2  0
  2  3  1  0
  3  4  3  0
  4  5  1  0
M  RAD  1   2   2
M  END
>  <reaction>  (2) 
rxn_1256

>  <mol_properties>  (2) 
{"1": {"label": "acceptor", "atom_type": "CS"}}

>  <type>  (2) 
r2

$$$$

     RDKit          3D

  6  5  0  0  0  0  0  0  0  0999 V2000
   -1.9761    1.0978   -0.6585 S   0  0  0  0  0  0  0  0  0  0  0  0
   -1.0502    0.0275    0.1158 C   0  0  0  0  0  0  0  0  0  0  0  0
    0.3587   -0.0566   -0.0000 C   0  0  0  0  0  0  0  0  0  0  0  0
    1.5530   -0.1477   -0.0815 C   0  0  0  0  0  0  0  0  0  0  0  0
   -1.4972   -0.7045    0.7881 H   0  0  0  0  0  0  0  0  0  0  0  0
    2.6118   -0.2165   -0.1639 H   0  0  0  0  0  0  0  0  0  0  0  0
  1  2  2  0
  2  3  1  0
  2  5  1  0
  3  4  3  0
  4  6  1  0
M  END
>  <reaction>  (3) 
rxn_1256

>  <mol_properties>  (3) 
{"1": {"label": "acceptor", "atom_type": "CS"}, "5": {"label": "a_hydrogen", "atom_type": "H0"}}

>  <type>  (3) 
r2h

$$$$

     RDKit          3D

 12 10  0  0  0  0  0  0  0  0999 V2000
    0.1675    1.5450   -0.6136 S   0  0  0  0  0  0  0  0  0  0  0  0
    0.0556    0.4846    0.5639 C   0  0  0  0  0  0  0  0  0  0  0  0
    0.0659    0.6319    1.9519 C   0  0  0  0  0  0  0  0  0  0  0  0
    0.0637    0.6515    3.1555 C   0  0  0  0  0  0  0  0  0  0  0  0
    0.0650    0.6999    4.2187 H   0  0  0  0  0  0  0  0  0  0  0  0
   -0.1627   -1.7762   -2.8421 C   0  0  0  0  0  0  0  0  0  0  0  0
   -0.1857   -1.9622   -1.6517 C   0  0  0  0  0  0  0  0  0  0  0  0
   -0.2031   -2.0857   -0.2468 C   0  0  0  0  0  3  0  0  0  0  0  0
   -0.1441   -1.6292   -3.8950 H   0  0  0  0  0  0  0  0  0  0  0  0
   -0.0722   -0.7837    0.2104 H   0  0  0  0  0  0  0  0  0  0  0  0
    0.6603   -2.5738    0.1980 H   0  0  0  0  0  0  0  0  0  0  0  0
   -1.1500   -2.3896    0.1918 H   0  0  0  0  0  0  0  0  0  0  0  0
  1  2  2  0
  2  3  1  0
  2 10  1  0
  3  4  3  0
  4  5  1  0
  6  7  3  0
  6  9  1  0
  7  8  1  0
  8 11  1  0
  8 12  1  0
M  RAD  1   8   2
M  END
>  <reaction>  (4) 
rxn_1256

>  <mol_properties>  (4) 
{"0": {"label": "*0", "atom_type": "S2d"}, "1": {"label": "*1", "atom_type": "CS"}, "6": {"label": "*4", "atom_type": "Ct"}, "7": {"label": "*3", "atom_type": "Cs"}, "9": {"label": "*2", "atom_type": "H0"}}

>  <type>  (4) 
ts

$$$$

     RDKit          3D

 12 10  0  0  0  0  0  0  0  0999 V2000
   -1.2027    1.3025    1.3975 S   0  0  0  0  0  0  0  0  0  0  0  0
   -0.0502    0.6765    0.4583 C   0  0  0  0  0  0  0  0  0  0  0  0
    1.3403    0.7803    0.7060 C   0  0  0  0  0  0  0  0  0  0  0  0
    2.5236    0.8548    0.8944 C   0  0  0  0  0  0  0  0  0  0  0  0
    3.5726    0.9208    1.0614 H   0  0  0  0  0  0  0  0  0  0  0  0
   -0.2730   -1.7615   -3.1186 C   0  0  0  0  0  0  0  0  0  0  0  0
   -0.2730   -1.7615   -1.9216 C   0  0  0  0  0  0  0  0  0  0  0  0
   -0.2730   -1.7615   -0.4661 C   0  0  0  0  0  3  0  0  0  0  0  0
   -0.2730   -1.7615   -4.1819 H   0  0  0  0  0  0  0  0  0  0  0  0
   -0.1616   -0.5419   -0.0037 H   0  0  0  0  0  0  0  0  0  0  0  0
    0.5607   -2.3501   -0.0808 H   0  0  0  0  0  0  0  0  0  0  0  0
   -1.1996   -2.1892   -0.0808 H   0  0  0  0  0  0  0  0  0  0  0  0
  1  2  2  0
  2  3  1  0
  2 10  1  0
  3  4  3  0
  4  5  1  0
  6  7  3  0
  6  9  1  0
  7  8  1  0
  8 11  1  0
  8 12  1  0
M  RAD  1   8   2
M  END
>  <reaction>  (5) 
rxn_1256

>  <mol_properties>  (5) 
{"0": {"label": "*0", "atom_type": "S2d"}, "1": {"label": "*1", "atom_type": "CS"}, "6": {"label": "*4", "atom_type": "Ct"}, "7": {"label": "*3", "atom_type": "Cs"}, "9": {"label": "*2", "atom_type": "H0"}}

>  <type>  (5) 
unop_1

>  <geom_source>  (5) 
Heuristics

$$$$

     RDKit          3D

 12 10  0  0  0  0  0  0  0  0999 V2000
   -0.4427    1.7675   -0.2426 S   0  0  0  0  0  0  0  0  0  0  0  0
    0.1416    0.5193    0.5958 C   0  0  0  0  0  0  0  0  0  0  0  0
    0.4690    0.5525    1.9733 C   0  0  0  0  0  0  0  0  0  0  0  0
    0.7537    0.5557    3.1395 C   0  0  0  0  0  0  0  0  0  0  0  0
    1.0061    0.5586    4.1734 H   0  0  0  0  0  0  0  0  0  0  0  0
   -0.0812   -1.9187   -2.9811 C   0  0  0  0  0  0  0  0  0  0  0  0
   -0.0812   -1.9187   -1.7840 C   0  0  0  0  0  0  0  0  0  0  0  0
   -0.0812   -1.9187   -0.3286 C   0  0  0  0  0  3  0  0  0  0  0  0
   -0.0812   -1.9187   -4.0443 H   0  0  0  0  0  0  0  0  0  0  0  0
    0.0303   -0.6991    0.1338 H   0  0  0  0  0  0  0  0  0  0  0  0
    0.7525   -2.5072    0.0568 H   0  0  0  0  0  0  0  0  0  0  0  0
   -1.0078   -2.3464    0.0568 H   0  0  0  0  0  0  0  0  0  0  0  0
  1  2  2  0
  2  3  1  0
  2 10  1  0
  3  4  3  0
  4  5  1  0
  6  7  3  0
  6  9  1  0
  7  8  1  0
  8 11  1  0
  8 12  1  0
M  RAD  1   8   2
M  END
>  <reaction>  (6) 
rxn_1256

>  <mol_properties>  (6) 
{"0": {"label": "*0", "atom_type": "S2d"}, "1": {"label": "*1", "atom_type": "CS"}, "6": {"label": "*4", "atom_type": "Ct"}, "7": {"label": "*3", "atom_type": "Cs"}, "9": {"label": "*2", "atom_type": "H0"}}

>  <type>  (6) 
unop_2

>  <geom_source>  (6) 
Heuristics

$$$$

     RDKit          3D

 12 10  0  0  0  0  0  0  0  0999 V2000
   -0.8006    1.0080    1.9831 S   0  0  0  0  0  0  0  0  0  0  0  0
   -0.1387    0.6074    0.5675 C   0  0  0  0  0  0  0  0  0  0  0  0
    1.0905    1.1121    0.0776 C   0  0  0  0  0  0  0  0  0  0  0  0
    2.1295    1.5255   -0.3590 C   0  0  0  0  0  0  0  0  0  0  0  0
    3.0507    1.8920   -0.7461 H   0  0  0  0  0  0  0  0  0  0  0  0
   -0.3616   -1.8306   -3.0094 C   0  0  0  0  0  0  0  0  0  0  0  0
   -0.3616   -1.8306   -1.8123 C   0  0  0  0  0  0  0  0  0  0  0  0
   -0.3616   -1.8306   -0.3569 C   0  0  0  0  0  3  0  0  0  0  0  0
   -0.3616   -1.8306   -4.0726 H   0  0  0  0  0  0  0  0  0  0  0  0
   -0.2501   -0.6110    0.1055 H   0  0  0  0  0  0  0  0  0  0  0  0
    0.4722   -2.4191    0.0285 H   0  0  0  0  0  0  0  0  0  0  0  0
   -1.2881   -2.2583    0.0285 H   0  0  0  0  0  0  0  0  0  0  0  0
  1  2  2  0
  2  3  1  0
  2 10  1  0
  3  4  3  0
  4  5  1  0
  6  7  3  0
  6  9  1  0
  7  8  1  0
  8 11  1  0
  8 12  1  0
M  RAD  1   8   2
M  END
>  <reaction>  (7) 
rxn_1256

>  <mol_properties>  (7) 
{"0": {"label": "*0", "atom_type": "S2d"}, "1": {"label": "*1", "atom_type": "CS"}, "6": {"label": "*4", "atom_type": "Ct"}, "7": {"label": "*3", "atom_type": "Cs"}, "9": {"label": "*2", "atom_type": "H0"}}

>  <type>  (7) 
unop_3

>  <geom_source>  (7) 
Heuristics

$$$$

     RDKit          3D

 12 10  0  0  0  0  0  0  0  0999 V2000
    1.2405    1.5030    0.1497 S   0  0  0  0  0  0  0  0  0  0  0  0
   -0.0511    0.6069    0.5118 C   0  0  0  0  0  0  0  0  0  0  0  0
   -0.7742    0.6841    1.7270 C   0  0  0  0  0  0  0  0  0  0  0  0
   -1.4031    0.7310    2.7485 C   0  0  0  0  0  0  0  0  0  0  0  0
   -1.9606    0.7725    3.6541 H   0  0  0  0  0  0  0  0  0  0  0  0
   -0.2739   -1.8311   -3.0651 C   0  0  0  0  0  0  0  0  0  0  0  0
   -0.2739   -1.8311   -1.8681 C   0  0  0  0  0  0  0  0  0  0  0  0
   -0.2739   -1.8311   -0.4127 C   0  0  0  0  0  3  0  0  0  0  0  0
   -0.2739   -1.8311   -4.1284 H   0  0  0  0  0  0  0  0  0  0  0  0
   -0.1624   -0.6115    0.0498 H   0  0  0  0  0  0  0  0  0  0  0  0
    0.5598   -2.4197   -0.0273 H   0  0  0  0  0  0  0  0  0  0  0  0
   -1.2005   -2.2588   -0.0273 H   0  0  0  0  0  0  0  0  0  0  0  0
  1  2  2  0
  2  3  1  0
  2 10  1  0
  3  4  3  0
  4  5  1  0
  6  7  3  0
  6  9  1  0
  7  8  1  0
  8 11  1  0
  8 12  1  0
M  RAD  1   8   2
M  END
>  <reaction>  (8) 
rxn_1256

>  <mol_properties>  (8) 
{"0": {"label": "*0", "atom_type": "S2d"}, "1": {"label": "*1", "atom_type": "CS"}, "6": {"label": "*4", "atom_type": "Ct"}, "7": {"label": "*3", "atom_type": "Cs"}, "9": {"label": "*2", "atom_type": "H0"}}

>  <type>  (8) 
unop_4

>  <geom_source>  (8) 
Heuristics

$$$$

     RDKit          3D

 12 10  0  0  0  0  0  0  0  0999 V2000
    0.0684    0.7486    2.2760 S   0  0  0  0  0  0  0  0  0  0  0  0
    0.0436    0.4769    0.6860 C   0  0  0  0  0  0  0  0  0  0  0  0
    0.1354    1.4817   -0.3078 C   0  0  0  0  0  0  0  0  0  0  0  0
    0.2116    2.3151   -1.1685 C   0  0  0  0  0  0  0  0  0  0  0  0
    0.2791    3.0539   -1.9315 H   0  0  0  0  0  0  0  0  0  0  0  0
   -0.1792   -1.9610   -2.8908 C   0  0  0  0  0  0  0  0  0  0  0  0
   -0.1792   -1.9610   -1.6938 C   0  0  0  0  0  0  0  0  0  0  0  0
   -0.1792   -1.9610   -0.2384 C   0  0  0  0  0  3  0  0  0  0  0  0
   -0.1792   -1.9610   -3.9541 H   0  0  0  0  0  0  0  0  0  0  0  0
   -0.0678   -0.7415    0.2241 H   0  0  0  0  0  0  0  0  0  0  0  0
    0.6545   -2.5496    0.1470 H   0  0  0  0  0  0  0  0  0  0  0  0
   -1.1058   -2.3887    0.1470 H   0  0  0  0  0  0  0  0  0  0  0  0
  1  2  2  0
  2  3  1  0
  2 10  1  0
  3  4  3  0
  4  5  1  0
  6  7  3  0
  6  9  1  0
  7  8  1  0
  8 11  1  0
  8 12  1  0
M  RAD  1   8   2
M  END
>  <reaction>  (9) 
rxn_1256

>  <mol_properties>  (9) 
{"0": {"label": "*0", "atom_type": "S2d"}, "1": {"label": "*1", "atom_type": "CS"}, "6": {"label": "*4", "atom_type": "Ct"}, "7": {"label": "*3", "atom_type": "Cs"}, "9": {"label": "*2", "atom_type": "H0"}}

>  <type>  (9) 
unop_5

>  <geom_source>  (9) 
Heuristics

$$$$

     RDKit          3D

 12 10  0  0  0  0  0  0  0  0999 V2000
    1.4926    1.2932    0.7365 S   0  0  0  0  0  0  0  0  0  0  0  0
    0.0378    0.6587    0.4480 C   0  0  0  0  0  0  0  0  0  0  0  0
   -1.0912    0.8081    1.2898 C   0  0  0  0  0  0  0  0  0  0  0  0
   -2.0622    0.9204    1.9868 C   0  0  0  0  0  0  0  0  0  0  0  0
   -2.9229    1.0199    2.6048 H   0  0  0  0  0  0  0  0  0  0  0  0
   -0.1850   -1.7792   -3.1289 C   0  0  0  0  0  0  0  0  0  0  0  0
   -0.1850   -1.7792   -1.9319 C   0  0  0  0  0  0  0  0  0  0  0  0
   -0.1850   -1.7792   -0.4764 C   0  0  0  0  0  3  0  0  0  0  0  0
   -0.1850   -1.7792   -4.1922 H   0  0  0  0  0  0  0  0  0  0  0  0
   -0.0736   -0.5597   -0.0140 H   0  0  0  0  0  0  0  0  0  0  0  0
    0.6487   -2.3678   -0.0911 H   0  0  0  0  0  0  0  0  0  0  0  0
   -1.1116   -2.2069   -0.0911 H   0  0  0  0  0  0  0  0  0  0  0  0
  1  2  2  0
  2  3  1  0
  2 10  1  0
  3  4  3  0
  4  5  1  0
  6  7  3  0
  6  9  1  0
  7  8  1  0
  8 11  1  0
  8 12  1  0
M  RAD  1   8   2
M  END
>  <reaction>  (10) 
rxn_1256

>  <mol_properties>  (10) 
{"0": {"label": "*0", "atom_type": "S2d"}, "1": {"label": "*1", "atom_type": "CS"}, "6": {"label": "*4", "atom_type": "Ct"}, "7": {"label": "*3", "atom_type": "Cs"}, "9": {"label": "*2", "atom_type": "H0"}}

>  <type>  (10) 
unop_6

>  <geom_source>  (10) 
Heuristics

$$$$

     RDKit          3D

 12 10  0  0  0  0  0  0  0  0999 V2000
    1.4189    1.0629    1.3975 S   0  0  0  0  0  0  0  0  0  0  0  0
    0.1720    0.6562    0.4583 C   0  0  0  0  0  0  0  0  0  0  0  0
   -1.1766    1.0104    0.7060 C   0  0  0  0  0  0  0  0  0  0  0  0
   -2.3268    1.2981    0.8944 C   0  0  0  0  0  0  0  0  0  0  0  0
   -3.3465    1.5531    1.0614 H   0  0  0  0  0  0  0  0  0  0  0  0
   -0.0508   -1.7818   -3.1186 C   0  0  0  0  0  0  0  0  0  0  0  0
   -0.0508   -1.7818   -1.9216 C   0  0  0  0  0  0  0  0  0  0  0  0
   -0.0508   -1.7818   -0.4661 C   0  0  0  0  0  3  0  0  0  0  0  0
   -0.0508   -1.7818   -4.1819 H   0  0  0  0  0  0  0  0  0  0  0  0
    0.0607   -0.5622   -0.0037 H   0  0  0  0  0  0  0  0  0  0  0  0
    0.7829   -2.3704   -0.0808 H   0  0  0  0  0  0  0  0  0  0  0  0
   -0.9774   -2.2095   -0.0808 H   0  0  0  0  0  0  0  0  0  0  0  0
  1  2  2  0
  2  3  1  0
  2 10  1  0
  3  4  3  0
  4  5  1  0
  6  7  3  0
  6  9  1  0
  7  8  1  0
  8 11  1  0
  8 12  1  0
M  RAD  1   8   2
M  END
>  <reaction>  (11) 
rxn_1256

>  <mol_properties>  (11) 
{"0": {"label": "*0", "atom_type": "S2d"}, "1": {"label": "*1", "atom_type": "CS"}, "6": {"label": "*4", "atom_type": "Ct"}, "7": {"label": "*3", "atom_type": "Cs"}, "9": {"label": "*2", "atom_type": "H0"}}

>  <type>  (11) 
unop_7

>  <geom_source>  (11) 
Heuristics

$$$$

     RDKit          3D

 12 10  0  0  0  0  0  0  0  0999 V2000
   -1.2335    1.5423    0.7365 S   0  0  0  0  0  0  0  0  0  0  0  0
    0.0823    0.6547    0.4480 C   0  0  0  0  0  0  0  0  0  0  0  0
    1.2197    0.5969    1.2898 C   0  0  0  0  0  0  0  0  0  0  0  0
    2.1949    0.5313    1.9868 C   0  0  0  0  0  0  0  0  0  0  0  0
    3.0594    0.4732    2.6048 H   0  0  0  0  0  0  0  0  0  0  0  0
   -0.1406   -1.7833   -3.1289 C   0  0  0  0  0  0  0  0  0  0  0  0
   -0.1406   -1.7833   -1.9319 C   0  0  0  0  0  0  0  0  0  0  0  0
   -0.1406   -1.7833   -0.4764 C   0  0  0  0  0  3  0  0  0  0  0  0
   -0.1406   -1.7833   -4.1922 H   0  0  0  0  0  0  0  0  0  0  0  0
   -0.0291   -0.5637   -0.0140 H   0  0  0  0  0  0  0  0  0  0  0  0
    0.6931   -2.3719   -0.0911 H   0  0  0  0  0  0  0  0  0  0  0  0
   -1.0672   -2.2110   -0.0911 H   0  0  0  0  0  0  0  0  0  0  0  0
  1  2  2  0
  2  3  1  0
  2 10  1  0
  3  4  3  0
  4  5  1  0
  6  7  3  0
  6  9  1  0
  7  8  1  0
  8 11  1  0
  8 12  1  0
M  RAD  1   8   2
M  END
>  <reaction>  (12) 
rxn_1256

>  <mol_properties>  (12) 
{"0": {"label": "*0", "atom_type": "S2d"}, "1": {"label": "*1", "atom_type": "CS"}, "6": {"label": "*4", "atom_type": "Ct"}, "7": {"label": "*3", "atom_type": "Cs"}, "9": {"label": "*2", "atom_type": "H0"}}

>  <type>  (12) 
unop_8

>  <geom_source>  (12) 
Heuristics

$$$$

     RDKit          3D

 12 10  0  0  0  0  0  0  0  0999 V2000
    0.7558    1.6579   -0.2426 S   0  0  0  0  0  0  0  0  0  0  0  0
   -0.0452    0.5364    0.5958 C   0  0  0  0  0  0  0  0  0  0  0  0
   -0.3611    0.6283    1.9733 C   0  0  0  0  0  0  0  0  0  0  0  0
   -0.6405    0.6831    3.1395 C   0  0  0  0  0  0  0  0  0  0  0  0
   -0.8882    0.7317    4.1734 H   0  0  0  0  0  0  0  0  0  0  0  0
   -0.2680   -1.9016   -2.9811 C   0  0  0  0  0  0  0  0  0  0  0  0
   -0.2680   -1.9016   -1.7840 C   0  0  0  0  0  0  0  0  0  0  0  0
   -0.2680   -1.9016   -0.3286 C   0  0  0  0  0  3  0  0  0  0  0  0
   -0.2680   -1.9016   -4.0443 H   0  0  0  0  0  0  0  0  0  0  0  0
   -0.1565   -0.6820    0.1338 H   0  0  0  0  0  0  0  0  0  0  0  0
    0.5657   -2.4902    0.0568 H   0  0  0  0  0  0  0  0  0  0  0  0
   -1.1946   -2.3293    0.0568 H   0  0  0  0  0  0  0  0  0  0  0  0
  1  2  2  0
  2  3  1  0
  2 10  1  0
  3  4  3  0
  4  5  1  0
  6  7  3  0
  6  9  1  0
  7  8  1  0
  8 11  1  0
  8 12  1  0
M  RAD  1   8   2
M  END
>  <reaction>  (13) 
rxn_1256

>  <mol_properties>  (13) 
{"0": {"label": "*0", "atom_type": "S2d"}, "1": {"label": "*1", "atom_type": "CS"}, "6": {"label": "*4", "atom_type": "Ct"}, "7": {"label": "*3", "atom_type": "Cs"}, "9": {"label": "*2", "atom_type": "H0"}}

>  <type>  (13) 
unop_9

>  <geom_source>  (13) 
Heuristics

$$$$

     RDKit          3D

 12 10  0  0  0  0  0  0  0  0999 V2000
   -0.9475    1.7030    0.1497 S   0  0  0  0  0  0  0  0  0  0  0  0
    0.1602    0.5876    0.5118 C   0  0  0  0  0  0  0  0  0  0  0  0
    0.8854    0.5324    1.7270 C   0  0  0  0  0  0  0  0  0  0  0  0
    1.5123    0.4645    2.7485 C   0  0  0  0  0  0  0  0  0  0  0  0
    2.0682    0.4044    3.6541 H   0  0  0  0  0  0  0  0  0  0  0  0
   -0.0626   -1.8504   -3.0651 C   0  0  0  0  0  0  0  0  0  0  0  0
   -0.0626   -1.8504   -1.8681 C   0  0  0  0  0  0  0  0  0  0  0  0
   -0.0626   -1.8504   -0.4126 C   0  0  0  0  0  3  0  0  0  0  0  0
   -0.0626   -1.8504   -4.1284 H   0  0  0  0  0  0  0  0  0  0  0  0
    0.0489   -0.6308    0.0498 H   0  0  0  0  0  0  0  0  0  0  0  0
    0.7711   -2.4390   -0.0273 H   0  0  0  0  0  0  0  0  0  0  0  0
   -0.9892   -2.2781   -0.0273 H   0  0  0  0  0  0  0  0  0  0  0  0
  1  2  2  0
  2  3  1  0
  2 10  1  0
  3  4  3  0
  4  5  1  0
  6  7  3  0
  6  9  1  0
  7  8  1  0
  8 11  1  0
  8 12  1  0
M  RAD  1   8   2
M  END
>  <reaction>  (14) 
rxn_1256

>  <mol_properties>  (14) 
{"0": {"label": "*0", "atom_type": "S2d"}, "1": {"label": "*1", "atom_type": "CS"}, "6": {"label": "*4", "atom_type": "Ct"}, "7": {"label": "*3", "atom_type": "Cs"}, "9": {"label": "*2", "atom_type": "H0"}}

>  <type>  (14) 
unop_10

>  <geom_source>  (14) 
Heuristics

$$$$

     RDKit          3D

 12 10  0  0  0  0  0  0  0  0999 V2000
    0.9700    0.8462    1.9831 S   0  0  0  0  0  0  0  0  0  0  0  0
    0.2465    0.5722    0.5675 C   0  0  0  0  0  0  0  0  0  0  0  0
   -0.8708    1.2913    0.0776 C   0  0  0  0  0  0  0  0  0  0  0  0
   -1.8177    1.8863   -0.3590 C   0  0  0  0  0  0  0  0  0  0  0  0
   -2.6572    2.4137   -0.7461 H   0  0  0  0  0  0  0  0  0  0  0  0
    0.0237   -1.8658   -3.0094 C   0  0  0  0  0  0  0  0  0  0  0  0
    0.0237   -1.8658   -1.8123 C   0  0  0  0  0  0  0  0  0  0  0  0
    0.0237   -1.8658   -0.3569 C   0  0  0  0  0  3  0  0  0  0  0  0
    0.0237   -1.8658   -4.0726 H   0  0  0  0  0  0  0  0  0  0  0  0
    0.1352   -0.6462    0.1055 H   0  0  0  0  0  0  0  0  0  0  0  0
    0.8574   -2.4543    0.0285 H   0  0  0  0  0  0  0  0  0  0  0  0
   -0.9029   -2.2935    0.0285 H   0  0  0  0  0  0  0  0  0  0  0  0
  1  2  2  0
  2  3  1  0
  2 10  1  0
  3  4  3  0
  4  5  1  0
  6  7  3  0
  6  9  1  0
  7  8  1  0
  8 11  1  0
  8 12  1  0
M  RAD  1   8   2
M  END
>  <reaction>  (15) 
rxn_1256

>  <mol_properties>  (15) 
{"0": {"label": "*0", "atom_type": "S2d"}, "1": {"label": "*1", "atom_type": "CS"}, "6": {"label": "*4", "atom_type": "Ct"}, "7": {"label": "*3", "atom_type": "Cs"}, "9": {"label": "*2", "atom_type": "H0"}}

>  <type>  (15) 
unop_11

>  <geom_source>  (15) 
Heuristics

$$$$

     RDKit          3D

 12 10  0  0  0  0  0  0  0  0999 V2000
    0.1596    1.7467   -0.3781 S   0  0  0  0  0  0  0  0  0  0  0  0
    0.0454    0.4962    0.6347 C   0  0  0  0  0  0  0  0  0  0  0  0
    0.0545    0.5961    2.0473 C   0  0  0  0  0  0  0  0  0  0  0  0
    0.0599    0.6550    3.2464 C   0  0  0  0  0  0  0  0  0  0  0  0
    0.0646    0.7072    4.3094 H   0  0  0  0  0  0  0  0  0  0  0  0
   -0.1775   -1.9417   -2.9422 C   0  0  0  0  0  0  0  0  0  0  0  0
   -0.1775   -1.9417   -1.7452 C   0  0  0  0  0  0  0  0  0  0  0  0
   -0.1775   -1.9417   -0.2897 C   0  0  0  0  0  3  0  0  0  0  0  0
   -0.1775   -1.9417   -4.0055 H   0  0  0  0  0  0  0  0  0  0  0  0
   -0.0660   -0.7222    0.1727 H   0  0  0  0  0  0  0  0  0  0  0  0
    0.6563   -2.5303    0.0956 H   0  0  0  0  0  0  0  0  0  0  0  0
   -1.1041   -2.3694    0.0956 H   0  0  0  0  0  0  0  0  0  0  0  0
  1  2  2  0
  2  3  1  0
  2 10  1  0
  3  4  3  0
  4  5  1  0
  6  7  3  0
  6  9  1  0
  7  8  1  0
  8 11  1  0
  8 12  1  0
M  RAD  1   8   2
M  END
>  <reaction>  (16) 
rxn_1256

>  <mol_properties>  (16) 
{"0": {"label": "*0", "atom_type": "S2d"}, "1": {"label": "*1", "atom_type": "CS"}, "6": {"label": "*4", "atom_type": "Ct"}, "7": {"label": "*3", "atom_type": "Cs"}, "9": {"label": "*2", "atom_type": "H0"}}

>  <type>  (16) 
unop_12

>  <geom_source>  (16) 
Heuristics

$$$$

     RDKit          3D

 12 10  0  0  0  0  0  0  0  0999 V2000
    1.9997   -2.0990   -1.2994 S   0  0  0  0  0  0  0  0  0  0  0  0
   -1.1456   -0.7988    0.3534 C   0  0  0  0  0  3  0  0  0  0  0  0
    1.3088   -0.8246   -0.5487 C   0  0  0  0  0  0  0  0  0  0  0  0
    2.1283    0.2248   -0.0131 C   0  0  0  0  0  0  0  0  0  0  0  0
   -1.9754    0.3514   -0.0059 C   0  0  0  0  0  0  0  0  0  0  0  0
    2.8157    1.1068    0.4372 C   0  0  0  0  0  0  0  0  0  0  0  0
   -2.6590    1.2991   -0.3021 C   0  0  0  0  0  0  0  0  0  0  0  0
   -0.0162   -0.7584   -0.4331 H   0  0  0  0  0  0  0  0  0  0  0  0
   -0.9347   -0.7775    1.4424 H   0  0  0  0  0  0  0  0  0  0  0  0
   -1.6817   -1.7361    0.0988 H   0  0  0  0  0  0  0  0  0  0  0  0
    3.4192    1.8811    0.8325 H   0  0  0  0  0  0  0  0  0  0  0  0
   -3.2591    2.1311   -0.5620 H   0  0  0  0  0  0  0  0  0  0  0  0
  1  3  2  0
  2  5  1  0
  2  9  1  0
  2 10  1  0
  3  4  1  0
  3  8  1  0
  4  6  3  0
  5  7  3  0
  6 11  1  0
  7 12  1  0
M  RAD  1   2   2
M  END
>  <reaction>  (17) 
rxn_1256

>  <mol_properties>  (17) 
{"0": {"label": "*0", "atom_type": "S2d"}, "1": {"label": "*1", "atom_type": "CS"}, "6": {"label": "*4", "atom_type": "Ct"}, "7": {"label": "*3", "atom_type": "Cs"}, "9": {"label": "*2", "atom_type": "H0"}}

>  <type>  (17) 
unop_13

>  <geom_source>  (17) 
AutoTST

$$$$
