
     RDKit          3D

 15 15  0  0  0  0  0  0  0  0999 V2000
    2.2031   -0.2111   -0.1693 C   0  0  0  0  0  0  0  0  0  0  0  0
    0.7140   -0.0314   -0.0623 C   0  0  0  0  0  0  0  0  0  0  0  0
   -0.0114    0.5491   -1.0982 C   0  0  0  0  0  0  0  0  0  0  0  0
   -1.3882    0.6886   -1.0150 C   0  0  0  0  0  0  0  0  0  0  0  0
   -2.0661    0.2493    0.1118 C   0  0  0  0  0  0  0  0  0  0  0  0
   -1.3551   -0.3278    1.1528 C   0  0  0  0  0  0  0  0  0  0  0  0
    0.0216   -0.4648    1.0642 C   0  0  0  0  0  0  0  0  0  0  0  0
    2.6776   -0.1836    0.8122 H   0  0  0  0  0  0  0  0  0  0  0  0
    2.4446   -1.1749   -0.6249 H   0  0  0  0  0  0  0  0  0  0  0  0
    2.6532    0.5664   -0.7875 H   0  0  0  0  0  0  0  0  0  0  0  0
    0.5104    0.8989   -1.9819 H   0  0  0  0  0  0  0  0  0  0  0  0
   -1.9328    1.1452   -1.8322 H   0  0  0  0  0  0  0  0  0  0  0  0
   -3.1409    0.3597    0.1800 H   0  0  0  0  0  0  0  0  0  0  0  0
   -1.8736   -0.6702    2.0398 H   0  0  0  0  0  0  0  0  0  0  0  0
    0.5695   -0.9141    1.8849 H   0  0  0  0  0  0  0  0  0  0  0  0
  1  2  1  0
  1  8  1  0
  1  9  1  0
  1 10  1  0
  2  3  2  0
  2  7  1  0
  3  4  1  0
  3 11  1  0
  4  5  2  0
  4 12  1  0
  5  6  1  0
  5 13  1  0
  6  7  2  0
  6 14  1  0
  7 15  1  0
M  END
>  <reaction>  (1) 
rxn_1463

>  <mol_properties>  (1) 
{"0": {"label": "donator", "atom_type": "Cs"}, "7": {"label": "d_hydrogen", "atom_type": "H0"}}

>  <type>  (1) 
r1h

$$$$

     RDKit          3D

  9  8  0  0  0  0  0  0  0  0999 V2000
    2.3991   -0.1292   -0.2384 S   0  0  0  0  0  0  0  0  0  0  0  0
    0.7460    0.2807    0.0931 C   0  0  0  0  0  3  0  0  0  0  0  0
   -0.3131   -0.5719   -0.2043 C   0  0  0  0  0  0  0  0  0  0  0  0
   -0.2286   -1.8095   -0.7775 C   0  0  0  0  0  0  0  0  0  0  0  0
    2.9373    1.0009    0.2312 H   0  0  0  0  0  0  0  0  0  0  0  0
    0.5618    1.2421    0.5487 H   0  0  0  0  0  0  0  0  0  0  0  0
   -1.2978   -0.1954    0.0537 H   0  0  0  0  0  0  0  0  0  0  0  0
    0.7207   -2.2479   -1.0607 H   0  0  0  0  0  0  0  0  0  0  0  0
   -1.1177   -2.3938   -0.9670 H   0  0  0  0  0  0  0  0  0  0  0  0
  1  2  1  0
  1  5  1  0
  2  3  1  0
  2  6  1  0
  3  4  2  3
  3  7  1  0
  4  8  1  0
  4  9  1  0
M  RAD  1   2   2
M  END
>  <reaction>  (2) 
rxn_1463

>  <mol_properties>  (2) 
{"1": {"label": "acceptor", "atom_type": "Cs"}}

>  <type>  (2) 
r2

$$$$

     RDKit          3D

 10  9  0  0  0  0  0  0  0  0999 V2000
    2.2097   -0.5315    0.2575 S   0  0  0  0  0  0  0  0  0  0  0  0
    0.5401   -0.7188   -0.4494 C   0  0  0  0  0  0  0  0  0  0  0  0
   -0.5263   -0.1678    0.4365 C   0  0  0  0  0  0  0  0  0  0  0  0
   -1.3394    0.8185    0.0912 C   0  0  0  0  0  0  0  0  0  0  0  0
    2.1701    0.8016    0.3806 H   0  0  0  0  0  0  0  0  0  0  0  0
    0.4238   -1.7978   -0.5701 H   0  0  0  0  0  0  0  0  0  0  0  0
    0.5053   -0.2663   -1.4400 H   0  0  0  0  0  0  0  0  0  0  0  0
   -0.6005   -0.6141    1.4236 H   0  0  0  0  0  0  0  0  0  0  0  0
   -2.0960    1.1907    0.7700 H   0  0  0  0  0  0  0  0  0  0  0  0
   -1.2784    1.2877   -0.8850 H   0  0  0  0  0  0  0  0  0  0  0  0
  1  2  1  0
  1  5  1  0
  2  3  1  0
  2  6  1  0
  2  7  1  0
  3  4  2  3
  3  8  1  0
  4  9  1  0
  4 10  1  0
M  END
>  <reaction>  (3) 
rxn_1463

>  <mol_properties>  (3) 
{"1": {"label": "acceptor", "atom_type": "Cs"}, "9": {"label": "a_hydrogen", "atom_type": "H0"}}

>  <type>  (3) 
r2h

$$$$

     RDKit          3D

 24 23  0  0  0  0  0  0  0  0999 V2000
    0.1887   -2.2719    1.2980 S   0  0  0  0  0  0  0  0  0  0  0  0
   -0.7419   -0.8457    1.8231 C   0  0  0  0  0  0  0  0  0  0  0  0
   -2.0492   -0.6010    1.2099 C   0  0  0  0  0  0  0  0  0  0  0  0
   -3.0614    0.0101    1.8229 C   0  0  0  0  0  0  0  0  0  0  0  0
    0.2165   -1.9627   -0.0076 H   0  0  0  0  0  0  0  0  0  0  0  0
   -0.7394   -0.8009    2.9109 H   0  0  0  0  0  0  0  0  0  0  0  0
   -2.1544   -0.8933    0.1692 H   0  0  0  0  0  0  0  0  0  0  0  0
   -2.9945    0.3169    2.8609 H   0  0  0  0  0  0  0  0  0  0  0  0
   -3.9910    0.2124    1.3072 H   0  0  0  0  0  0  0  0  0  0  0  0
    0.7264    1.2450    0.9703 C   0  0  0  0  0  0  0  0  0  0  0  0
    0.7084    0.9836   -0.4602 C   0  0  0  0  0  0  0  0  0  0  0  0
   -0.3880    1.3656   -1.2437 C   0  0  0  0  0  3  0  0  0  0  0  0
   -0.4510    1.0401   -2.5869 C   0  0  0  0  0  0  0  0  0  0  0  0
    0.5773    0.3222   -3.1827 C   0  0  0  0  0  0  0  0  0  0  0  0
    1.6716   -0.0655   -2.4206 C   0  0  0  0  0  0  0  0  0  0  0  0
    1.7357    0.2573   -1.0769 C   0  0  0  0  0  0  0  0  0  0  0  0
    0.0017    0.1890    1.4874 H   0  0  0  0  0  0  0  0  0  0  0  0
    1.6834    1.1403    1.4730 H   0  0  0  0  0  0  0  0  0  0  0  0
    0.1303    2.0844    1.3173 H   0  0  0  0  0  0  0  0  0  0  0  0
   -1.1961    1.9217   -0.7828 H   0  0  0  0  0  0  0  0  0  0  0  0
   -1.3066    1.3487   -3.1748 H   0  0  0  0  0  0  0  0  0  0  0  0
    0.5280    0.0695   -4.2341 H   0  0  0  0  0  0  0  0  0  0  0  0
    2.4798   -0.6225   -2.8781 H   0  0  0  0  0  0  0  0  0  0  0  0
    2.5885   -0.0550   -0.4856 H   0  0  0  0  0  0  0  0  0  0  0  0
  1  2  1  0
  1  5  1  0
  2  3  1  0
  2  6  1  0
  2 17  1  0
  3  4  2  3
  3  7  1  0
  4  8  1  0
  4  9  1  0
 10 11  2  3
 10 18  1  0
 10 19  1  0
 11 12  1  0
 11 16  1  0
 12 13  1  0
 12 20  1  0
 13 14  2  0
 13 21  1  0
 14 15  1  0
 14 22  1  0
 15 16  2  0
 15 23  1  0
 16 24  1  0
M  RAD  1  12   2
M  END
>  <reaction>  (4) 
rxn_1463

>  <mol_properties>  (4) 
{"0": {"label": "*0", "atom_type": "S2s"}, "1": {"label": "*1", "atom_type": "Cs"}, "9": {"label": "*3", "atom_type": "Cd"}, "10": {"label": "*4", "atom_type": "Cd"}, "16": {"label": "*2", "atom_type": "H0"}}

>  <type>  (4) 
ts

$$$$

     RDKit          3D

 24 23  0  0  0  0  0  0  0  0999 V2000
    0.6621   -1.6989    2.7197 S   0  0  0  0  0  0  0  0  0  0  0  0
   -0.6352   -0.8797    1.7356 C   0  0  0  0  0  3  0  0  0  0  0  0
   -1.7055   -1.8210    1.2952 C   0  0  0  0  0  0  0  0  0  0  0  0
   -2.9803   -1.7033    1.6336 C   0  0  0  0  0  0  0  0  0  0  0  0
   -0.1500   -2.1645    3.6776 H   0  0  0  0  0  0  0  0  0  0  0  0
   -1.0499   -0.0419    2.2952 H   0  0  0  0  0  0  0  0  0  0  0  0
   -1.3815   -2.6513    0.6752 H   0  0  0  0  0  0  0  0  0  0  0  0
   -3.3272   -0.8888    2.2605 H   0  0  0  0  0  0  0  0  0  0  0  0
   -3.7225   -2.4146    1.2949 H   0  0  0  0  0  0  0  0  0  0  0  0
    0.5453    1.2551    0.7829 C   0  0  0  0  0  0  0  0  0  0  0  0
    0.5453    1.2551   -0.7209 C   0  0  0  0  0  0  0  0  0  0  0  0
    0.5453    2.4494   -1.4349 C   0  0  0  0  0  0  0  0  0  0  0  0
    0.5758    2.4527   -2.8209 C   0  0  0  0  0  0  0  0  0  0  0  0
    0.6053    1.2557   -3.5199 C   0  0  0  0  0  0  0  0  0  0  0  0
    0.6022    0.0584   -2.8209 C   0  0  0  0  0  0  0  0  0  0  0  0
    0.5717    0.0610   -1.4349 C   0  0  0  0  0  0  0  0  0  0  0  0
   -0.0445    0.1883    1.2589 H   0  0  0  0  0  0  0  0  0  0  0  0
    1.5676    1.2663    1.1696 H   0  0  0  0  0  0  0  0  0  0  0  0
    0.0343    2.1330    1.1796 H   0  0  0  0  0  0  0  0  0  0  0  0
    0.5187    3.3905   -0.8971 H   0  0  0  0  0  0  0  0  0  0  0  0
    0.5732    3.3939   -3.3566 H   0  0  0  0  0  0  0  0  0  0  0  0
    0.6265    1.2560   -4.6023 H   0  0  0  0  0  0  0  0  0  0  0  0
    0.6203   -0.8827   -3.3566 H   0  0  0  0  0  0  0  0  0  0  0  0
    0.5658   -0.8804   -0.8971 H   0  0  0  0  0  0  0  0  0  0  0  0
  1  2  1  0
  1  5  1  0
  2  3  1  0
  2  6  1  0
  3  4  2  3
  3  7  1  0
  4  8  1  0
  4  9  1  0
 10 11  1  0
 10 17  1  0
 10 18  1  0
 10 19  1  0
 11 12  2  0
 11 16  1  0
 12 13  1  0
 12 20  1  0
 13 14  2  0
 13 21  1  0
 14 15  1  0
 14 22  1  0
 15 16  2  0
 15 23  1  0
 16 24  1  0
M  RAD  1   2   2
M  END
>  <reaction>  (5) 
rxn_1463

>  <mol_properties>  (5) 
{"0": {"label": "*0", "atom_type": "S2s"}, "1": {"label": "*1", "atom_type": "Cs"}, "9": {"label": "*3", "atom_type": "Cd"}, "10": {"label": "*4", "atom_type": "Cd"}, "16": {"label": "*2", "atom_type": "H0"}}

>  <type>  (5) 
unop_1

>  <geom_source>  (5) 
Heuristics

$$$$

     RDKit          3D

 24 23  0  0  0  0  0  0  0  0999 V2000
   -0.1717   -2.1759    0.6738 S   0  0  0  0  0  0  0  0  0  0  0  0
   -0.4772   -0.9009    1.9401 C   0  0  0  0  0  3  0  0  0  0  0  0
   -1.8654   -0.9496    2.4843 C   0  0  0  0  0  0  0  0  0  0  0  0
   -2.1543   -1.1717    3.7572 C   0  0  0  0  0  0  0  0  0  0  0  0
   -0.4696   -3.2278    1.4475 H   0  0  0  0  0  0  0  0  0  0  0  0
    0.2632   -0.9847    2.7351 H   0  0  0  0  0  0  0  0  0  0  0  0
   -2.6634   -0.8078    1.7617 H   0  0  0  0  0  0  0  0  0  0  0  0
   -1.3756   -1.3267    4.4964 H   0  0  0  0  0  0  0  0  0  0  0  0
   -3.1783   -1.2043    4.1066 H   0  0  0  0  0  0  0  0  0  0  0  0
    0.7033    1.2339    0.9874 C   0  0  0  0  0  0  0  0  0  0  0  0
    0.7033    1.2339   -0.5164 C   0  0  0  0  0  0  0  0  0  0  0  0
    0.7033    2.4282   -1.2304 C   0  0  0  0  0  0  0  0  0  0  0  0
    0.7338    2.4316   -2.6164 C   0  0  0  0  0  0  0  0  0  0  0  0
    0.7633    1.2346   -3.3154 C   0  0  0  0  0  0  0  0  0  0  0  0
    0.7602    0.0372   -2.6164 C   0  0  0  0  0  0  0  0  0  0  0  0
    0.7297    0.0399   -1.2304 C   0  0  0  0  0  0  0  0  0  0  0  0
    0.1135    0.1672    1.4634 H   0  0  0  0  0  0  0  0  0  0  0  0
    1.7256    1.2452    1.3741 H   0  0  0  0  0  0  0  0  0  0  0  0
    0.1923    2.1118    1.3841 H   0  0  0  0  0  0  0  0  0  0  0  0
    0.6767    3.3693   -0.6926 H   0  0  0  0  0  0  0  0  0  0  0  0
    0.7311    3.3728   -3.1521 H   0  0  0  0  0  0  0  0  0  0  0  0
    0.7845    1.2348   -4.3978 H   0  0  0  0  0  0  0  0  0  0  0  0
    0.7783   -0.9038   -3.1521 H   0  0  0  0  0  0  0  0  0  0  0  0
    0.7238   -0.9016   -0.6926 H   0  0  0  0  0  0  0  0  0  0  0  0
  1  2  1  0
  1  5  1  0
  2  3  1  0
  2  6  1  0
  3  4  2  3
  3  7  1  0
  4  8  1  0
  4  9  1  0
 10 11  1  0
 10 17  1  0
 10 18  1  0
 10 19  1  0
 11 12  2  0
 11 16  1  0
 12 13  1  0
 12 20  1  0
 13 14  2  0
 13 21  1  0
 14 15  1  0
 14 22  1  0
 15 16  2  0
 15 23  1  0
 16 24  1  0
M  RAD  1   2   2
M  END
>  <reaction>  (6) 
rxn_1463

>  <mol_properties>  (6) 
{"0": {"label": "*0", "atom_type": "S2s"}, "1": {"label": "*1", "atom_type": "Cs"}, "9": {"label": "*3", "atom_type": "Cd"}, "10": {"label": "*4", "atom_type": "Cd"}, "16": {"label": "*2", "atom_type": "H0"}}

>  <type>  (6) 
unop_2

>  <geom_source>  (6) 
Heuristics

$$$$

     RDKit          3D

 24 23  0  0  0  0  0  0  0  0999 V2000
    0.1886   -1.1894    3.3020 S   0  0  0  0  0  0  0  0  0  0  0  0
   -0.6561   -0.8896    1.7149 C   0  0  0  0  0  3  0  0  0  0  0  0
   -1.0539   -2.1517    1.0260 C   0  0  0  0  0  0  0  0  0  0  0  0
   -2.3051   -2.4754    0.7380 C   0  0  0  0  0  0  0  0  0  0  0  0
   -0.8038   -1.8877    3.8688 H   0  0  0  0  0  0  0  0  0  0  0  0
   -1.5138   -0.2358    1.8704 H   0  0  0  0  0  0  0  0  0  0  0  0
   -0.2447   -2.8310    0.7759 H   0  0  0  0  0  0  0  0  0  0  0  0
   -3.1319   -1.8187    0.9868 H   0  0  0  0  0  0  0  0  0  0  0  0
   -2.5478   -3.4062    0.2417 H   0  0  0  0  0  0  0  0  0  0  0  0
    0.5244    1.2452    0.7621 C   0  0  0  0  0  0  0  0  0  0  0  0
    0.5244    1.2452   -0.7416 C   0  0  0  0  0  0  0  0  0  0  0  0
    0.5244    2.4395   -1.4557 C   0  0  0  0  0  0  0  0  0  0  0  0
    0.5548    2.4429   -2.8417 C   0  0  0  0  0  0  0  0  0  0  0  0
    0.5844    1.2459   -3.5407 C   0  0  0  0  0  0  0  0  0  0  0  0
    0.5812    0.0485   -2.8417 C   0  0  0  0  0  0  0  0  0  0  0  0
    0.5507    0.0512   -1.4557 C   0  0  0  0  0  0  0  0  0  0  0  0
   -0.0655    0.1785    1.2382 H   0  0  0  0  0  0  0  0  0  0  0  0
    1.5466    1.2565    1.1489 H   0  0  0  0  0  0  0  0  0  0  0  0
    0.0134    2.1231    1.1588 H   0  0  0  0  0  0  0  0  0  0  0  0
    0.4978    3.3806   -0.9179 H   0  0  0  0  0  0  0  0  0  0  0  0
    0.5522    3.3841   -3.3774 H   0  0  0  0  0  0  0  0  0  0  0  0
    0.6055    1.2461   -4.6231 H   0  0  0  0  0  0  0  0  0  0  0  0
    0.5993   -0.8925   -3.3774 H   0  0  0  0  0  0  0  0  0  0  0  0
    0.5449   -0.8903   -0.9179 H   0  0  0  0  0  0  0  0  0  0  0  0
  1  2  1  0
  1  5  1  0
  2  3  1  0
  2  6  1  0
  3  4  2  3
  3  7  1  0
  4  8  1  0
  4  9  1  0
 10 11  1  0
 10 17  1  0
 10 18  1  0
 10 19  1  0
 11 12  2  0
 11 16  1  0
 12 13  1  0
 12 20  1  0
 13 14  2  0
 13 21  1  0
 14 15  1  0
 14 22  1  0
 15 16  2  0
 15 23  1  0
 16 24  1  0
M  RAD  1   2   2
M  END
>  <reaction>  (7) 
rxn_1463

>  <mol_properties>  (7) 
{"0": {"label": "*0", "atom_type": "S2s"}, "1": {"label": "*1", "atom_type": "Cs"}, "9": {"label": "*3", "atom_type": "Cd"}, "10": {"label": "*4", "atom_type": "Cd"}, "16": {"label": "*2", "atom_type": "H0"}}

>  <type>  (7) 
unop_3

>  <geom_source>  (7) 
Heuristics

$$$$

     RDKit          3D

 24 23  0  0  0  0  0  0  0  0999 V2000
   -2.0822   -1.1710    1.0438 S   0  0  0  0  0  0  0  0  0  0  0  0
   -0.3874   -1.2712    1.7071 C   0  0  0  0  0  3  0  0  0  0  0  0
   -0.2330   -0.5531    3.0057 C   0  0  0  0  0  0  0  0  0  0  0  0
    0.1254   -1.1391    4.1377 C   0  0  0  0  0  0  0  0  0  0  0  0
   -2.6889   -1.7224    2.1029 H   0  0  0  0  0  0  0  0  0  0  0  0
   -0.0851   -2.3145    1.7929 H   0  0  0  0  0  0  0  0  0  0  0  0
   -0.4530    0.5100    2.9890 H   0  0  0  0  0  0  0  0  0  0  0  0
    0.3403   -2.2015    4.1826 H   0  0  0  0  0  0  0  0  0  0  0  0
    0.2190   -0.5784    5.0589 H   0  0  0  0  0  0  0  0  0  0  0  0
    0.7931    0.8636    0.7544 C   0  0  0  0  0  0  0  0  0  0  0  0
    0.7931    0.8636   -0.7494 C   0  0  0  0  0  0  0  0  0  0  0  0
    0.7931    2.0580   -1.4634 C   0  0  0  0  0  0  0  0  0  0  0  0
    0.8236    2.0613   -2.8494 C   0  0  0  0  0  0  0  0  0  0  0  0
    0.8531    0.8643   -3.5484 C   0  0  0  0  0  0  0  0  0  0  0  0
    0.8500   -0.3331   -2.8494 C   0  0  0  0  0  0  0  0  0  0  0  0
    0.8195   -0.3304   -1.4634 C   0  0  0  0  0  0  0  0  0  0  0  0
    0.2033   -0.2031    1.2305 H   0  0  0  0  0  0  0  0  0  0  0  0
    1.8154    0.8749    1.1411 H   0  0  0  0  0  0  0  0  0  0  0  0
    0.2821    1.7415    1.1511 H   0  0  0  0  0  0  0  0  0  0  0  0
    0.7665    2.9991   -0.9256 H   0  0  0  0  0  0  0  0  0  0  0  0
    0.8209    3.0025   -3.3851 H   0  0  0  0  0  0  0  0  0  0  0  0
    0.8743    0.8645   -4.6308 H   0  0  0  0  0  0  0  0  0  0  0  0
    0.8681   -1.2741   -3.3851 H   0  0  0  0  0  0  0  0  0  0  0  0
    0.8136   -1.2718   -0.9256 H   0  0  0  0  0  0  0  0  0  0  0  0
  1  2  1  0
  1  5  1  0
  2  3  1  0
  2  6  1  0
  3  4  2  3
  3  7  1  0
  4  8  1  0
  4  9  1  0
 10 11  1  0
 10 17  1  0
 10 18  1  0
 10 19  1  0
 11 12  2  0
 11 16  1  0
 12 13  1  0
 12 20  1  0
 13 14  2  0
 13 21  1  0
 14 15  1  0
 14 22  1  0
 15 16  2  0
 15 23  1  0
 16 24  1  0
M  RAD  1   2   2
M  END
>  <reaction>  (8) 
rxn_1463

>  <mol_properties>  (8) 
{"0": {"label": "*0", "atom_type": "S2s"}, "1": {"label": "*1", "atom_type": "Cs"}, "9": {"label": "*3", "atom_type": "Cd"}, "10": {"label": "*4", "atom_type": "Cd"}, "16": {"label": "*2", "atom_type": "H0"}}

>  <type>  (8) 
unop_4

>  <geom_source>  (8) 
Heuristics

$$$$

     RDKit          3D

 24 23  0  0  0  0  0  0  0  0999 V2000
   -0.6328   -0.7281    3.4778 S   0  0  0  0  0  0  0  0  0  0  0  0
   -0.7454   -0.9316    1.6700 C   0  0  0  0  0  3  0  0  0  0  0  0
   -0.0692   -2.1703    1.1860 C   0  0  0  0  0  0  0  0  0  0  0  0
   -0.6897   -3.1529    0.5515 C   0  0  0  0  0  0  0  0  0  0  0  0
   -1.2217   -1.8885    3.7949 H   0  0  0  0  0  0  0  0  0  0  0  0
   -1.7893   -0.9028    1.3591 H   0  0  0  0  0  0  0  0  0  0  0  0
    0.9927   -2.2454    1.3996 H   0  0  0  0  0  0  0  0  0  0  0  0
   -1.7518   -3.1064    0.3356 H   0  0  0  0  0  0  0  0  0  0  0  0
   -0.1589   -4.0373    0.2234 H   0  0  0  0  0  0  0  0  0  0  0  0
    0.4351    1.2032    0.7172 C   0  0  0  0  0  0  0  0  0  0  0  0
    0.4351    1.2032   -0.7865 C   0  0  0  0  0  0  0  0  0  0  0  0
    0.4351    2.3975   -1.5005 C   0  0  0  0  0  0  0  0  0  0  0  0
    0.4656    2.4008   -2.8865 C   0  0  0  0  0  0  0  0  0  0  0  0
    0.4951    1.2038   -3.5856 C   0  0  0  0  0  0  0  0  0  0  0  0
    0.4920    0.0064   -2.8865 C   0  0  0  0  0  0  0  0  0  0  0  0
    0.4615    0.0091   -1.5005 C   0  0  0  0  0  0  0  0  0  0  0  0
   -0.1547    0.1364    1.1933 H   0  0  0  0  0  0  0  0  0  0  0  0
    1.4574    1.2144    1.1040 H   0  0  0  0  0  0  0  0  0  0  0  0
   -0.0759    2.0810    1.1140 H   0  0  0  0  0  0  0  0  0  0  0  0
    0.4085    3.3386   -0.9627 H   0  0  0  0  0  0  0  0  0  0  0  0
    0.4629    3.3420   -3.4222 H   0  0  0  0  0  0  0  0  0  0  0  0
    0.5163    1.2040   -4.6679 H   0  0  0  0  0  0  0  0  0  0  0  0
    0.5101   -0.9346   -3.4222 H   0  0  0  0  0  0  0  0  0  0  0  0
    0.4556   -0.9323   -0.9627 H   0  0  0  0  0  0  0  0  0  0  0  0
  1  2  1  0
  1  5  1  0
  2  3  1  0
  2  6  1  0
  3  4  2  3
  3  7  1  0
  4  8  1  0
  4  9  1  0
 10 11  1  0
 10 17  1  0
 10 18  1  0
 10 19  1  0
 11 12  2  0
 11 16  1  0
 12 13  1  0
 12 20  1  0
 13 14  2  0
 13 21  1  0
 14 15  1  0
 14 22  1  0
 15 16  2  0
 15 23  1  0
 16 24  1  0
M  RAD  1   2   2
M  END
>  <reaction>  (9) 
rxn_1463

>  <mol_properties>  (9) 
{"0": {"label": "*0", "atom_type": "S2s"}, "1": {"label": "*1", "atom_type": "Cs"}, "9": {"label": "*3", "atom_type": "Cd"}, "10": {"label": "*4", "atom_type": "Cd"}, "16": {"label": "*2", "atom_type": "H0"}}

>  <type>  (9) 
unop_5

>  <geom_source>  (9) 
Heuristics

$$$$

     RDKit          3D

 24 23  0  0  0  0  0  0  0  0999 V2000
   -2.2642   -0.7891    1.7561 S   0  0  0  0  0  0  0  0  0  0  0  0
   -0.5177   -1.2855    1.5956 C   0  0  0  0  0  3  0  0  0  0  0  0
    0.3185   -0.8318    2.7448 C   0  0  0  0  0  0  0  0  0  0  0  0
    0.9714   -1.6512    3.5545 C   0  0  0  0  0  0  0  0  0  0  0  0
   -2.4848   -1.3988    2.9281 H   0  0  0  0  0  0  0  0  0  0  0  0
   -0.4512   -2.3644    1.4588 H   0  0  0  0  0  0  0  0  0  0  0  0
    0.3577    0.2408    2.9087 H   0  0  0  0  0  0  0  0  0  0  0  0
    0.9396   -2.7269    3.4181 H   0  0  0  0  0  0  0  0  0  0  0  0
    1.5622   -1.2768    4.3806 H   0  0  0  0  0  0  0  0  0  0  0  0
    0.6628    0.8493    0.6429 C   0  0  0  0  0  0  0  0  0  0  0  0
    0.6628    0.8493   -0.8608 C   0  0  0  0  0  0  0  0  0  0  0  0
    0.6628    2.0436   -1.5749 C   0  0  0  0  0  0  0  0  0  0  0  0
    0.6932    2.0470   -2.9609 C   0  0  0  0  0  0  0  0  0  0  0  0
    0.7228    0.8500   -3.6599 C   0  0  0  0  0  0  0  0  0  0  0  0
    0.7197   -0.3474   -2.9609 C   0  0  0  0  0  0  0  0  0  0  0  0
    0.6891   -0.3447   -1.5749 C   0  0  0  0  0  0  0  0  0  0  0  0
    0.0729   -0.2174    1.1190 H   0  0  0  0  0  0  0  0  0  0  0  0
    1.6850    0.8606    1.0297 H   0  0  0  0  0  0  0  0  0  0  0  0
    0.1518    1.7272    1.0396 H   0  0  0  0  0  0  0  0  0  0  0  0
    0.6362    2.9847   -1.0371 H   0  0  0  0  0  0  0  0  0  0  0  0
    0.6906    2.9882   -3.4966 H   0  0  0  0  0  0  0  0  0  0  0  0
    0.7439    0.8502   -4.7423 H   0  0  0  0  0  0  0  0  0  0  0  0
    0.7378   -1.2884   -3.4966 H   0  0  0  0  0  0  0  0  0  0  0  0
    0.6833   -1.2862   -1.0371 H   0  0  0  0  0  0  0  0  0  0  0  0
  1  2  1  0
  1  5  1  0
  2  3  1  0
  2  6  1  0
  3  4  2  3
  3  7  1  0
  4  8  1  0
  4  9  1  0
 10 11  1  0
 10 17  1  0
 10 18  1  0
 10 19  1  0
 11 12  2  0
 11 16  1  0
 12 13  1  0
 12 20  1  0
 13 14  2  0
 13 21  1  0
 14 15  1  0
 14 22  1  0
 15 16  2  0
 15 23  1  0
 16 24  1  0
M  RAD  1   2   2
M  END
>  <reaction>  (10) 
rxn_1463

>  <mol_properties>  (10) 
{"0": {"label": "*0", "atom_type": "S2s"}, "1": {"label": "*1", "atom_type": "Cs"}, "9": {"label": "*3", "atom_type": "Cd"}, "10": {"label": "*4", "atom_type": "Cd"}, "16": {"label": "*2", "atom_type": "H0"}}

>  <type>  (10) 
unop_6

>  <geom_source>  (10) 
Heuristics

$$$$

     RDKit          3D

 24 23  0  0  0  0  0  0  0  0999 V2000
   -2.0532   -0.5531    2.5303 S   0  0  0  0  0  0  0  0  0  0  0  0
   -0.6698   -1.2163    1.5462 C   0  0  0  0  0  3  0  0  0  0  0  0
    0.6195   -1.2254    2.2968 C   0  0  0  0  0  0  0  0  0  0  0  0
    1.3108   -2.3217    2.5677 C   0  0  0  0  0  0  0  0  0  0  0  0
   -1.9570   -1.4342    3.5344 H   0  0  0  0  0  0  0  0  0  0  0  0
   -0.9212   -2.2107    1.1784 H   0  0  0  0  0  0  0  0  0  0  0  0
    0.9741   -0.2591    2.6423 H   0  0  0  0  0  0  0  0  0  0  0  0
    0.9724   -3.2998    2.2427 H   0  0  0  0  0  0  0  0  0  0  0  0
    2.2400   -2.2811    3.1215 H   0  0  0  0  0  0  0  0  0  0  0  0
    0.5107    0.9185    0.5935 C   0  0  0  0  0  0  0  0  0  0  0  0
    0.5107    0.9185   -0.9103 C   0  0  0  0  0  0  0  0  0  0  0  0
    0.5107    2.1128   -1.6243 C   0  0  0  0  0  0  0  0  0  0  0  0
    0.5412    2.1161   -3.0103 C   0  0  0  0  0  0  0  0  0  0  0  0
    0.5707    0.9191   -3.7093 C   0  0  0  0  0  0  0  0  0  0  0  0
    0.5676   -0.2782   -3.0103 C   0  0  0  0  0  0  0  0  0  0  0  0
    0.5371   -0.2756   -1.6243 C   0  0  0  0  0  0  0  0  0  0  0  0
   -0.0792   -0.1482    1.0695 H   0  0  0  0  0  0  0  0  0  0  0  0
    1.5329    0.9297    0.9802 H   0  0  0  0  0  0  0  0  0  0  0  0
   -0.0003    1.7964    0.9902 H   0  0  0  0  0  0  0  0  0  0  0  0
    0.4841    3.0539   -1.0865 H   0  0  0  0  0  0  0  0  0  0  0  0
    0.5385    3.0574   -3.5460 H   0  0  0  0  0  0  0  0  0  0  0  0
    0.5919    0.9194   -4.7917 H   0  0  0  0  0  0  0  0  0  0  0  0
    0.5857   -1.2193   -3.5460 H   0  0  0  0  0  0  0  0  0  0  0  0
    0.5312   -1.2170   -1.0865 H   0  0  0  0  0  0  0  0  0  0  0  0
  1  2  1  0
  1  5  1  0
  2  3  1  0
  2  6  1  0
  3  4  2  3
  3  7  1  0
  4  8  1  0
  4  9  1  0
 10 11  1  0
 10 17  1  0
 10 18  1  0
 10 19  1  0
 11 12  2  0
 11 16  1  0
 12 13  1  0
 12 20  1  0
 13 14  2  0
 13 21  1  0
 14 15  1  0
 14 22  1  0
 15 16  2  0
 15 23  1  0
 16 24  1  0
M  RAD  1   2   2
M  END
>  <reaction>  (11) 
rxn_1463

>  <mol_properties>  (11) 
{"0": {"label": "*0", "atom_type": "S2s"}, "1": {"label": "*1", "atom_type": "Cs"}, "9": {"label": "*3", "atom_type": "Cd"}, "10": {"label": "*4", "atom_type": "Cd"}, "16": {"label": "*2", "atom_type": "H0"}}

>  <type>  (11) 
unop_7

>  <geom_source>  (11) 
Heuristics

$$$$

     RDKit          3D

 24 23  0  0  0  0  0  0  0  0999 V2000
    0.7188   -2.0730    1.9508 S   0  0  0  0  0  0  0  0  0  0  0  0
   -0.6301   -0.8576    1.7903 C   0  0  0  0  0  3  0  0  0  0  0  0
   -1.9761   -1.4967    1.7152 C   0  0  0  0  0  0  0  0  0  0  0  0
   -2.9443   -1.2894    2.5943 C   0  0  0  0  0  0  0  0  0  0  0  0
    0.2698   -2.6455    3.0753 H   0  0  0  0  0  0  0  0  0  0  0  0
   -0.5783   -0.1380    2.6068 H   0  0  0  0  0  0  0  0  0  0  0  0
   -2.1307   -2.1812    0.8866 H   0  0  0  0  0  0  0  0  0  0  0  0
   -2.8110   -0.6186    3.4364 H   0  0  0  0  0  0  0  0  0  0  0  0
   -3.9047   -1.7803    2.5030 H   0  0  0  0  0  0  0  0  0  0  0  0
    0.5504    1.2772    0.8376 C   0  0  0  0  0  0  0  0  0  0  0  0
    0.5504    1.2772   -0.6662 C   0  0  0  0  0  0  0  0  0  0  0  0
    0.5504    2.4715   -1.3802 C   0  0  0  0  0  0  0  0  0  0  0  0
    0.5808    2.4748   -2.7662 C   0  0  0  0  0  0  0  0  0  0  0  0
    0.6104    1.2778   -3.4652 C   0  0  0  0  0  0  0  0  0  0  0  0
    0.6072    0.0804   -2.7662 C   0  0  0  0  0  0  0  0  0  0  0  0
    0.5767    0.0831   -1.3802 C   0  0  0  0  0  0  0  0  0  0  0  0
   -0.0395    0.2104    1.3137 H   0  0  0  0  0  0  0  0  0  0  0  0
    1.5726    1.2884    1.2243 H   0  0  0  0  0  0  0  0  0  0  0  0
    0.0393    2.1550    1.2343 H   0  0  0  0  0  0  0  0  0  0  0  0
    0.5238    3.4126   -0.8424 H   0  0  0  0  0  0  0  0  0  0  0  0
    0.5782    3.4160   -3.3019 H   0  0  0  0  0  0  0  0  0  0  0  0
    0.6315    1.2780   -4.5476 H   0  0  0  0  0  0  0  0  0  0  0  0
    0.6253   -0.8606   -3.3019 H   0  0  0  0  0  0  0  0  0  0  0  0
    0.5708   -0.8583   -0.8424 H   0  0  0  0  0  0  0  0  0  0  0  0
  1  2  1  0
  1  5  1  0
  2  3  1  0
  2  6  1  0
  3  4  2  3
  3  7  1  0
  4  8  1  0
  4  9  1  0
 10 11  1  0
 10 17  1  0
 10 18  1  0
 10 19  1  0
 11 12  2  0
 11 16  1  0
 12 13  1  0
 12 20  1  0
 13 14  2  0
 13 21  1  0
 14 15  1  0
 14 22  1  0
 15 16  2  0
 15 23  1  0
 16 24  1  0
M  RAD  1   2   2
M  END
>  <reaction>  (12) 
rxn_1463

>  <mol_properties>  (12) 
{"0": {"label": "*0", "atom_type": "S2s"}, "1": {"label": "*1", "atom_type": "Cs"}, "9": {"label": "*3", "atom_type": "Cd"}, "10": {"label": "*4", "atom_type": "Cd"}, "16": {"label": "*2", "atom_type": "H0"}}

>  <type>  (12) 
unop_8

>  <geom_source>  (12) 
Heuristics

$$$$

     RDKit          3D

 24 23  0  0  0  0  0  0  0  0999 V2000
   -1.5680   -1.5930    0.5731 S   0  0  0  0  0  0  0  0  0  0  0  0
   -0.3257   -1.1739    1.8394 C   0  0  0  0  0  3  0  0  0  0  0  0
   -0.9163   -0.4738    3.0170 C   0  0  0  0  0  0  0  0  0  0  0  0
   -0.8778   -0.9444    4.2541 C   0  0  0  0  0  0  0  0  0  0  0  0
   -2.3505   -2.3308    1.3713 H   0  0  0  0  0  0  0  0  0  0  0  0
    0.2121   -2.0721    2.1411 H   0  0  0  0  0  0  0  0  0  0  0  0
   -1.4156    0.4674    2.8080 H   0  0  0  0  0  0  0  0  0  0  0  0
   -0.3942   -1.8871    4.4869 H   0  0  0  0  0  0  0  0  0  0  0  0
   -1.3256   -0.4040    5.0781 H   0  0  0  0  0  0  0  0  0  0  0  0
    0.8548    0.9609    0.8866 C   0  0  0  0  0  0  0  0  0  0  0  0
    0.8548    0.9609   -0.6171 C   0  0  0  0  0  0  0  0  0  0  0  0
    0.8548    2.1553   -1.3312 C   0  0  0  0  0  0  0  0  0  0  0  0
    0.8853    2.1586   -2.7171 C   0  0  0  0  0  0  0  0  0  0  0  0
    0.9148    0.9616   -3.4162 C   0  0  0  0  0  0  0  0  0  0  0  0
    0.9117   -0.2358   -2.7171 C   0  0  0  0  0  0  0  0  0  0  0  0
    0.8812   -0.2331   -1.3312 C   0  0  0  0  0  0  0  0  0  0  0  0
    0.2650   -0.1058    1.3627 H   0  0  0  0  0  0  0  0  0  0  0  0
    1.8771    0.9722    1.2734 H   0  0  0  0  0  0  0  0  0  0  0  0
    0.3438    1.8388    1.2834 H   0  0  0  0  0  0  0  0  0  0  0  0
    0.8282    3.0964   -0.7933 H   0  0  0  0  0  0  0  0  0  0  0  0
    0.8826    3.0998   -3.2529 H   0  0  0  0  0  0  0  0  0  0  0  0
    0.9360    0.9618   -4.4985 H   0  0  0  0  0  0  0  0  0  0  0  0
    0.9298   -1.1768   -3.2529 H   0  0  0  0  0  0  0  0  0  0  0  0
    0.8753   -1.1746   -0.7933 H   0  0  0  0  0  0  0  0  0  0  0  0
  1  2  1  0
  1  5  1  0
  2  3  1  0
  2  6  1  0
  3  4  2  3
  3  7  1  0
  4  8  1  0
  4  9  1  0
 10 11  1  0
 10 17  1  0
 10 18  1  0
 10 19  1  0
 11 12  2  0
 11 16  1  0
 12 13  1  0
 12 20  1  0
 13 14  2  0
 13 21  1  0
 14 15  1  0
 14 22  1  0
 15 16  2  0
 15 23  1  0
 16 24  1  0
M  RAD  1   2   2
M  END
>  <reaction>  (13) 
rxn_1463

>  <mol_properties>  (13) 
{"0": {"label": "*0", "atom_type": "S2s"}, "1": {"label": "*1", "atom_type": "Cs"}, "9": {"label": "*3", "atom_type": "Cd"}, "10": {"label": "*4", "atom_type": "Cd"}, "16": {"label": "*2", "atom_type": "H0"}}

>  <type>  (13) 
unop_9

>  <geom_source>  (13) 
Heuristics

$$$$

     RDKit          3D

 24 23  0  0  0  0  0  0  0  0999 V2000
    0.4039   -2.2333    1.2102 S   0  0  0  0  0  0  0  0  0  0  0  0
   -0.5820   -0.8511    1.8734 C   0  0  0  0  0  3  0  0  0  0  0  0
   -2.0037   -1.2261    2.1261 C   0  0  0  0  0  0  0  0  0  0  0  0
   -2.5801   -1.1837    3.3174 C   0  0  0  0  0  0  0  0  0  0  0  0
    0.1839   -3.0748    2.2287 H   0  0  0  0  0  0  0  0  0  0  0  0
   -0.1097   -0.4588    2.7736 H   0  0  0  0  0  0  0  0  0  0  0  0
   -2.5654   -1.5666    1.2615 H   0  0  0  0  0  0  0  0  0  0  0  0
   -2.0375   -0.8573    4.1982 H   0  0  0  0  0  0  0  0  0  0  0  0
   -3.6146   -1.4713    3.4549 H   0  0  0  0  0  0  0  0  0  0  0  0
    0.5985    1.2837    0.9207 C   0  0  0  0  0  0  0  0  0  0  0  0
    0.5985    1.2837   -0.5830 C   0  0  0  0  0  0  0  0  0  0  0  0
    0.5985    2.4780   -1.2971 C   0  0  0  0  0  0  0  0  0  0  0  0
    0.6290    2.4813   -2.6831 C   0  0  0  0  0  0  0  0  0  0  0  0
    0.6585    1.2843   -3.3821 C   0  0  0  0  0  0  0  0  0  0  0  0
    0.6554    0.0870   -2.6831 C   0  0  0  0  0  0  0  0  0  0  0  0
    0.6248    0.0896   -1.2971 C   0  0  0  0  0  0  0  0  0  0  0  0
    0.0086    0.2169    1.3968 H   0  0  0  0  0  0  0  0  0  0  0  0
    1.6207    1.2949    1.3075 H   0  0  0  0  0  0  0  0  0  0  0  0
    0.0875    2.1616    1.3174 H   0  0  0  0  0  0  0  0  0  0  0  0
    0.5719    3.4191   -0.7593 H   0  0  0  0  0  0  0  0  0  0  0  0
    0.6263    3.4225   -3.2188 H   0  0  0  0  0  0  0  0  0  0  0  0
    0.6796    1.2846   -4.4645 H   0  0  0  0  0  0  0  0  0  0  0  0
    0.6735   -0.8541   -3.2188 H   0  0  0  0  0  0  0  0  0  0  0  0
    0.6190   -0.8518   -0.7593 H   0  0  0  0  0  0  0  0  0  0  0  0
  1  2  1  0
  1  5  1  0
  2  3  1  0
  2  6  1  0
  3  4  2  3
  3  7  1  0
  4  8  1  0
  4  9  1  0
 10 11  1  0
 10 17  1  0
 10 18  1  0
 10 19  1  0
 11 12  2  0
 11 16  1  0
 12 13  1  0
 12 20  1  0
 13 14  2  0
 13 21  1  0
 14 15  1  0
 14 22  1  0
 15 16  2  0
 15 23  1  0
 16 24  1  0
M  RAD  1   2   2
M  END
>  <reaction>  (14) 
rxn_1463

>  <mol_properties>  (14) 
{"0": {"label": "*0", "atom_type": "S2s"}, "1": {"label": "*1", "atom_type": "Cs"}, "9": {"label": "*3", "atom_type": "Cd"}, "10": {"label": "*4", "atom_type": "Cd"}, "16": {"label": "*2", "atom_type": "H0"}}

>  <type>  (14) 
unop_10

>  <geom_source>  (14) 
Heuristics

$$$$

     RDKit          3D

 24 23  0  0  0  0  0  0  0  0999 V2000
   -1.4780   -0.5197    3.1678 S   0  0  0  0  0  0  0  0  0  0  0  0
   -0.7750   -1.0758    1.5807 C   0  0  0  0  0  3  0  0  0  0  0  0
    0.5645   -1.7140    1.7355 C   0  0  0  0  0  0  0  0  0  0  0  0
    0.8310   -2.9668    1.3996 C   0  0  0  0  0  0  0  0  0  0  0  0
   -1.4567   -1.7172    3.7674 H   0  0  0  0  0  0  0  0  0  0  0  0
   -1.4760   -1.7424    1.0793 H   0  0  0  0  0  0  0  0  0  0  0  0
    1.3400   -1.0901    2.1693 H   0  0  0  0  0  0  0  0  0  0  0  0
    0.0709   -3.6134    0.9742 H   0  0  0  0  0  0  0  0  0  0  0  0
    1.8179   -3.3902    1.5355 H   0  0  0  0  0  0  0  0  0  0  0  0
    0.4055    1.0590    0.6280 C   0  0  0  0  0  0  0  0  0  0  0  0
    0.4055    1.0590   -0.8758 C   0  0  0  0  0  0  0  0  0  0  0  0
    0.4055    2.2533   -1.5898 C   0  0  0  0  0  0  0  0  0  0  0  0
    0.4359    2.2567   -2.9758 C   0  0  0  0  0  0  0  0  0  0  0  0
    0.4655    1.0597   -3.6748 C   0  0  0  0  0  0  0  0  0  0  0  0
    0.4623   -0.1377   -2.9758 C   0  0  0  0  0  0  0  0  0  0  0  0
    0.4318   -0.1350   -1.5898 C   0  0  0  0  0  0  0  0  0  0  0  0
   -0.1844   -0.0077    1.1040 H   0  0  0  0  0  0  0  0  0  0  0  0
    1.4277    1.0703    1.0147 H   0  0  0  0  0  0  0  0  0  0  0  0
   -0.1056    1.9369    1.0247 H   0  0  0  0  0  0  0  0  0  0  0  0
    0.3789    3.1944   -1.0520 H   0  0  0  0  0  0  0  0  0  0  0  0
    0.4333    3.1979   -3.5115 H   0  0  0  0  0  0  0  0  0  0  0  0
    0.4866    1.0599   -4.7572 H   0  0  0  0  0  0  0  0  0  0  0  0
    0.4804   -1.0787   -3.5115 H   0  0  0  0  0  0  0  0  0  0  0  0
    0.4260   -1.0765   -1.0520 H   0  0  0  0  0  0  0  0  0  0  0  0
  1  2  1  0
  1  5  1  0
  2  3  1  0
  2  6  1  0
  3  4  2  3
  3  7  1  0
  4  8  1  0
  4  9  1  0
 10 11  1  0
 10 17  1  0
 10 18  1  0
 10 19  1  0
 11 12  2  0
 11 16  1  0
 12 13  1  0
 12 20  1  0
 13 14  2  0
 13 21  1  0
 14 15  1  0
 14 22  1  0
 15 16  2  0
 15 23  1  0
 16 24  1  0
M  RAD  1   2   2
M  END
>  <reaction>  (15) 
rxn_1463

>  <mol_properties>  (15) 
{"0": {"label": "*0", "atom_type": "S2s"}, "1": {"label": "*1", "atom_type": "Cs"}, "9": {"label": "*3", "atom_type": "Cd"}, "10": {"label": "*4", "atom_type": "Cd"}, "16": {"label": "*2", "atom_type": "H0"}}

>  <type>  (15) 
unop_11

>  <geom_source>  (15) 
Heuristics

$$$$

     RDKit          3D

 24 23  0  0  0  0  0  0  0  0999 V2000
   -0.8742   -1.9474    0.4465 S   0  0  0  0  0  0  0  0  0  0  0  0
   -0.3640   -1.0249    1.9335 C   0  0  0  0  0  3  0  0  0  0  0  0
   -1.5170   -0.6484    2.8022 C   0  0  0  0  0  0  0  0  0  0  0  0
   -1.6626   -1.0513    4.0551 C   0  0  0  0  0  0  0  0  0  0  0  0
   -1.4813   -2.9499    1.0948 H   0  0  0  0  0  0  0  0  0  0  0  0
    0.3788   -1.5982    2.4874 H   0  0  0  0  0  0  0  0  0  0  0  0
   -2.2726   -0.0194    2.3415 H   0  0  0  0  0  0  0  0  0  0  0  0
   -0.9271   -1.6884    4.5346 H   0  0  0  0  0  0  0  0  0  0  0  0
   -2.5200   -0.7574    4.6468 H   0  0  0  0  0  0  0  0  0  0  0  0
    0.8165    1.1099    0.9808 C   0  0  0  0  0  0  0  0  0  0  0  0
    0.8165    1.1099   -0.5230 C   0  0  0  0  0  0  0  0  0  0  0  0
    0.8165    2.3042   -1.2370 C   0  0  0  0  0  0  0  0  0  0  0  0
    0.8469    2.3076   -2.6230 C   0  0  0  0  0  0  0  0  0  0  0  0
    0.8764    1.1106   -3.3220 C   0  0  0  0  0  0  0  0  0  0  0  0
    0.8733   -0.0868   -2.6230 C   0  0  0  0  0  0  0  0  0  0  0  0
    0.8428   -0.0841   -1.2370 C   0  0  0  0  0  0  0  0  0  0  0  0
    0.2266    0.0432    1.4568 H   0  0  0  0  0  0  0  0  0  0  0  0
    1.8387    1.1212    1.3675 H   0  0  0  0  0  0  0  0  0  0  0  0
    0.3054    1.9878    1.3775 H   0  0  0  0  0  0  0  0  0  0  0  0
    0.7898    3.2453   -0.6992 H   0  0  0  0  0  0  0  0  0  0  0  0
    0.8443    3.2488   -3.1587 H   0  0  0  0  0  0  0  0  0  0  0  0
    0.8976    1.1108   -4.4044 H   0  0  0  0  0  0  0  0  0  0  0  0
    0.8914   -1.0278   -3.1587 H   0  0  0  0  0  0  0  0  0  0  0  0
    0.8369   -1.0256   -0.6992 H   0  0  0  0  0  0  0  0  0  0  0  0
  1  2  1  0
  1  5  1  0
  2  3  1  0
  2  6  1  0
  3  4  2  3
  3  7  1  0
  4  8  1  0
  4  9  1  0
 10 11  1  0
 10 17  1  0
 10 18  1  0
 10 19  1  0
 11 12  2  0
 11 16  1  0
 12 13  1  0
 12 20  1  0
 13 14  2  0
 13 21  1  0
 14 15  1  0
 14 22  1  0
 15 16  2  0
 15 23  1  0
 16 24  1  0
M  RAD  1   2   2
M  END
>  <reaction>  (16) 
rxn_1463

>  <mol_properties>  (16) 
{"0": {"label": "*0", "atom_type": "S2s"}, "1": {"label": "*1", "atom_type": "Cs"}, "9": {"label": "*3", "atom_type": "Cd"}, "10": {"label": "*4", "atom_type": "Cd"}, "16": {"label": "*2", "atom_type": "H0"}}

>  <type>  (16) 
unop_12

>  <geom_source>  (16) 
Heuristics

$$$$

     RDKit          3D

 24 23  0  0  0  0  0  0  0  0999 V2000
    2.8542   -2.5371    0.4319 S   0  0  0  0  0  0  0  0  0  0  0  0
    2.2692   -0.8228    0.5880 C   0  0  0  0  0  3  0  0  0  0  0  0
   -1.1480   -0.3095   -0.4220 C   0  0  0  0  0  0  0  0  0  0  0  0
    3.3357    0.1370    0.1534 C   0  0  0  0  0  0  0  0  0  0  0  0
   -2.3435   -0.4612   -1.1406 C   0  0  0  0  0  0  0  0  0  0  0  0
   -1.0734    0.6337    0.6118 C   0  0  0  0  0  0  0  0  0  0  0  0
   -3.4554    0.3267   -0.8251 C   0  0  0  0  0  0  0  0  0  0  0  0
   -3.3773    1.2668    0.2071 C   0  0  0  0  0  0  0  0  0  0  0  0
   -2.1871    1.4201    0.9250 C   0  0  0  0  0  0  0  0  0  0  0  0
    0.0442   -1.1457   -0.7513 C   0  0  0  0  0  0  0  0  0  0  0  0
    3.1101    1.4522    0.1552 C   0  0  0  0  0  0  0  0  0  0  0  0
    1.9989   -0.6276    1.6475 H   0  0  0  0  0  0  0  0  0  0  0  0
    1.1410   -0.6548   -0.2101 H   0  0  0  0  0  0  0  0  0  0  0  0
    4.3043   -0.2310   -0.1733 H   0  0  0  0  0  0  0  0  0  0  0  0
   -2.4127   -1.1869   -1.9416 H   0  0  0  0  0  0  0  0  0  0  0  0
   -4.3769    0.2086   -1.3803 H   0  0  0  0  0  0  0  0  0  0  0  0
   -0.1557    0.7595    1.1733 H   0  0  0  0  0  0  0  0  0  0  0  0
   -4.2382    1.8759    0.4504 H   0  0  0  0  0  0  0  0  0  0  0  0
   -2.1276    2.1481    1.7238 H   0  0  0  0  0  0  0  0  0  0  0  0
    3.8888    2.1375   -0.1639 H   0  0  0  0  0  0  0  0  0  0  0  0
    2.1525    1.8541    0.4730 H   0  0  0  0  0  0  0  0  0  0  0  0
    0.3632   -0.9620   -1.7988 H   0  0  0  0  0  0  0  0  0  0  0  0
   -0.1917   -2.2214   -0.6097 H   0  0  0  0  0  0  0  0  0  0  0  0
    1.6253   -3.0602    0.8764 H   0  0  0  0  0  0  0  0  0  0  0  0
  1  2  1  0
  1 24  1  0
  2  4  1  0
  2 12  1  0
  3 10  1  0
  3  5  2  0
  3  6  1  0
  4 11  2  3
  4 14  1  0
  5  7  1  0
  5 15  1  0
  6  9  2  0
  6 17  1  0
  7  8  2  0
  7 16  1  0
  8  9  1  0
  8 18  1  0
  9 19  1  0
 10 13  1  0
 10 22  1  0
 10 23  1  0
 11 20  1  0
 11 21  1  0
M  RAD  1   2   2
M  END
>  <reaction>  (17) 
rxn_1463

>  <mol_properties>  (17) 
{"0": {"label": "*0", "atom_type": "S2s"}, "1": {"label": "*1", "atom_type": "Cs"}, "9": {"label": "*3", "atom_type": "Cd"}, "10": {"label": "*4", "atom_type": "Cd"}, "16": {"label": "*2", "atom_type": "H0"}}

>  <type>  (17) 
unop_13

>  <geom_source>  (17) 
AutoTST

$$$$

     RDKit          3D

 24 23  0  0  0  0  0  0  0  0999 V2000
   -0.1717   -2.1759    0.6738 S   0  0  0  0  0  0  0  0  0  0  0  0
   -0.4772   -0.9009    1.9401 C   0  0  0  0  0  3  0  0  0  0  0  0
   -1.8654   -0.9496    2.4843 C   0  0  0  0  0  0  0  0  0  0  0  0
   -2.1543   -1.1717    3.7572 C   0  0  0  0  0  0  0  0  0  0  0  0
   -0.4696   -3.2278    1.4475 H   0  0  0  0  0  0  0  0  0  0  0  0
    0.2632   -0.9847    2.7351 H   0  0  0  0  0  0  0  0  0  0  0  0
   -2.6634   -0.8078    1.7617 H   0  0  0  0  0  0  0  0  0  0  0  0
   -1.3756   -1.3267    4.4964 H   0  0  0  0  0  0  0  0  0  0  0  0
   -3.1783   -1.2043    4.1066 H   0  0  0  0  0  0  0  0  0  0  0  0
    0.7033    1.2339    0.9874 C   0  0  0  0  0  0  0  0  0  0  0  0
    0.7033    1.2339   -0.5164 C   0  0  0  0  0  0  0  0  0  0  0  0
    0.7033    2.4282   -1.2304 C   0  0  0  0  0  0  0  0  0  0  0  0
    0.7338    2.4316   -2.6164 C   0  0  0  0  0  0  0  0  0  0  0  0
    0.7633    1.2346   -3.3154 C   0  0  0  0  0  0  0  0  0  0  0  0
    0.7602    0.0372   -2.6164 C   0  0  0  0  0  0  0  0  0  0  0  0
    0.7297    0.0399   -1.2304 C   0  0  0  0  0  0  0  0  0  0  0  0
    0.1135    0.1672    1.4634 H   0  0  0  0  0  0  0  0  0  0  0  0
    1.7256    1.2452    1.3741 H   0  0  0  0  0  0  0  0  0  0  0  0
    0.1923    2.1118    1.3841 H   0  0  0  0  0  0  0  0  0  0  0  0
    0.6767    3.3693   -0.6926 H   0  0  0  0  0  0  0  0  0  0  0  0
    0.7311    3.3728   -3.1521 H   0  0  0  0  0  0  0  0  0  0  0  0
    0.7845    1.2348   -4.3978 H   0  0  0  0  0  0  0  0  0  0  0  0
    0.7783   -0.9038   -3.1521 H   0  0  0  0  0  0  0  0  0  0  0  0
    0.7238   -0.9016   -0.6926 H   0  0  0  0  0  0  0  0  0  0  0  0
  1  2  1  0
  1  5  1  0
  2  3  1  0
  2  6  1  0
  3  4  2  3
  3  7  1  0
  4  8  1  0
  4  9  1  0
 10 11  1  0
 10 17  1  0
 10 18  1  0
 10 19  1  0
 11 12  2  0
 11 16  1  0
 12 13  1  0
 12 20  1  0
 13 14  2  0
 13 21  1  0
 14 15  1  0
 14 22  1  0
 15 16  2  0
 15 23  1  0
 16 24  1  0
M  RAD  1   2   2
M  END
>  <reaction>  (18) 
rxn_1463

>  <mol_properties>  (18) 
{"0": {"label": "*0", "atom_type": "S2s"}, "1": {"label": "*1", "atom_type": "Cs"}, "9": {"label": "*3", "atom_type": "Cd"}, "10": {"label": "*4", "atom_type": "Cd"}, "16": {"label": "*2", "atom_type": "H0"}}

>  <type>  (18) 
unop_14

>  <geom_source>  (18) 
gaussian_log

$$$$
