
     RDKit          3D

 10  9  0  0  0  0  0  0  0  0999 V2000
   -1.1906   -0.0419   -0.0385 C   0  0  0  0  0  0  0  0  0  0  0  0
    0.2513    0.4500    0.0348 C   0  0  0  0  0  0  0  0  0  0  0  0
    1.2500   -0.5694    0.3278 N   0  0  0  0  0  0  0  0  0  0  0  0
   -1.4965   -0.4905    0.9100 H   0  0  0  0  0  0  0  0  0  0  0  0
   -1.3035   -0.7985   -0.8190 H   0  0  0  0  0  0  0  0  0  0  0  0
   -1.8789    0.7769   -0.2612 H   0  0  0  0  0  0  0  0  0  0  0  0
    0.3352    1.2278    0.7979 H   0  0  0  0  0  0  0  0  0  0  0  0
    0.5259    0.9233   -0.9113 H   0  0  0  0  0  0  0  0  0  0  0  0
    1.2298   -1.2971   -0.3752 H   0  0  0  0  0  0  0  0  0  0  0  0
    1.0523   -1.0138    1.2153 H   0  0  0  0  0  0  0  0  0  0  0  0
  1  2  1  0
  1  4  1  0
  1  5  1  0
  1  6  1  0
  2  3  1  0
  2  7  1  0
  2  8  1  0
  3  9  1  0
  3 10  1  0
M  END
>  <reaction>  (1) 
rxn_119

>  <mol_properties>  (1) 
{"2": {"label": "donator", "atom_type": "N3s"}, "8": {"label": "d_hydrogen", "atom_type": "H0"}}

>  <type>  (1) 
r1h

$$$$

     RDKit          3D

  3  2  0  0  0  0  0  0  0  0999 V2000
    0.0002    0.4233    0.0000 N   0  0  0  0  0  2  0  0  0  0  0  0
   -0.8051   -0.2112    0.0000 H   0  0  0  0  0  0  0  0  0  0  0  0
    0.8049   -0.2121    0.0000 H   0  0  0  0  0  0  0  0  0  0  0  0
  1  2  1  0
  1  3  1  0
M  RAD  1   1   2
M  END
>  <reaction>  (2) 
rxn_119

>  <mol_properties>  (2) 
{"0": {"label": "acceptor", "atom_type": "N3s"}}

>  <type>  (2) 
r2

$$$$

     RDKit          3D

  4  3  0  0  0  0  0  0  0  0999 V2000
    0.0006   -0.0009    0.2762 N   0  0  0  0  0  0  0  0  0  0  0  0
   -0.4188    0.8439   -0.0883 H   0  0  0  0  0  0  0  0  0  0  0  0
   -0.5215   -0.7840   -0.0936 H   0  0  0  0  0  0  0  0  0  0  0  0
    0.9397   -0.0590   -0.0943 H   0  0  0  0  0  0  0  0  0  0  0  0
  1  2  1  0
  1  3  1  0
  1  4  1  0
M  END
>  <reaction>  (3) 
rxn_119

>  <mol_properties>  (3) 
{"0": {"label": "a_hydrogen", "atom_type": "H0"}, "1": {"label": "acceptor", "atom_type": "N3s"}}

>  <type>  (3) 
r2h

$$$$

     RDKit          3D

 13 11  0  0  0  0  0  0  0  0999 V2000
    0.3582   -1.0960   -1.1992 C   0  0  0  0  0  0  0  0  0  0  0  0
    0.5820   -0.9712    0.3034 C   0  0  0  0  0  0  0  0  0  0  0  0
    0.6975    0.3786    0.8173 N   0  0  0  0  0  0  0  0  0  0  0  0
    1.1772   -0.6305   -1.7530 H   0  0  0  0  0  0  0  0  0  0  0  0
   -0.5698   -0.6030   -1.4958 H   0  0  0  0  0  0  0  0  0  0  0  0
    0.3011   -2.1434   -1.5020 H   0  0  0  0  0  0  0  0  0  0  0  0
    1.5043   -1.5007    0.5726 H   0  0  0  0  0  0  0  0  0  0  0  0
   -0.2234   -1.4683    0.8495 H   0  0  0  0  0  0  0  0  0  0  0  0
   -0.3586    0.9213    0.9009 H   0  0  0  0  0  0  0  0  0  0  0  0
    1.2708    0.9344    0.1858 H   0  0  0  0  0  0  0  0  0  0  0  0
   -1.4835    1.4309    0.5020 N   0  0  0  0  0  2  0  0  0  0  0  0
   -1.2472    2.1176   -0.2138 H   0  0  0  0  0  0  0  0  0  0  0  0
   -1.9696    0.6887   -0.0007 H   0  0  0  0  0  0  0  0  0  0  0  0
  1  2  1  0
  1  4  1  0
  1  5  1  0
  1  6  1  0
  2  3  1  0
  2  7  1  0
  2  8  1  0
  3  9  1  0
  3 10  1  0
 11 12  1  0
 11 13  1  0
M  RAD  1  11   2
M  END
>  <reaction>  (4) 
rxn_119

>  <mol_properties>  (4) 
{"1": {"label": "*0", "atom_type": "Cs"}, "2": {"label": "*1", "atom_type": "N3s"}, "8": {"label": "*2", "atom_type": "H0"}, "10": {"label": "*3", "atom_type": "N3s"}, "11": {"label": "*4", "atom_type": "H0"}}

>  <type>  (4) 
ts

$$$$

     RDKit          3D

 13 11  0  0  0  0  0  0  0  0999 V2000
    0.5105   -1.0392   -1.2963 C   0  0  0  0  0  0  0  0  0  0  0  0
    0.5105   -1.0392    0.2289 C   0  0  0  0  0  0  0  0  0  0  0  0
    0.5105    0.2747    0.8584 N   0  0  0  0  0  2  0  0  0  0  0  0
    1.3939   -0.5261   -1.6846 H   0  0  0  0  0  0  0  0  0  0  0  0
   -0.3729   -0.5261   -1.6846 H   0  0  0  0  0  0  0  0  0  0  0  0
    0.5105   -2.0570   -1.6936 H   0  0  0  0  0  0  0  0  0  0  0  0
    1.3838   -1.5844    0.5957 H   0  0  0  0  0  0  0  0  0  0  0  0
   -0.3628   -1.5844    0.5957 H   0  0  0  0  0  0  0  0  0  0  0  0
   -0.4646    0.9110    0.5133 H   0  0  0  0  0  0  0  0  0  0  0  0
    1.3231    0.8050    0.5708 H   0  0  0  0  0  0  0  0  0  0  0  0
   -1.4389    1.5468    0.1684 N   0  0  0  0  0  0  0  0  0  0  0  0
   -1.9691    1.7669    1.0009 H   0  0  0  0  0  0  0  0  0  0  0  0
   -0.6995    2.2339    0.2296 H   0  0  0  0  0  0  0  0  0  0  0  0
  1  2  1  0
  1  4  1  0
  1  5  1  0
  1  6  1  0
  2  3  1  0
  2  7  1  0
  2  8  1  0
  3 10  1  0
  9 11  1  0
 11 12  1  0
 11 13  1  0
M  RAD  1   3   2
M  END
>  <reaction>  (5) 
rxn_119

>  <mol_properties>  (5) 
{"1": {"label": "*0", "atom_type": "Cs"}, "2": {"label": "*1", "atom_type": "N3s"}, "8": {"label": "*2", "atom_type": "H0"}, "10": {"label": "*3", "atom_type": "N3s"}, "11": {"label": "*4", "atom_type": "H0"}}

>  <type>  (5) 
unop_1

>  <geom_source>  (5) 
Heuristics

$$$$

     RDKit          3D

 13 11  0  0  0  0  0  0  0  0999 V2000
    0.5233   -1.0179   -1.2943 C   0  0  0  0  0  0  0  0  0  0  0  0
    0.5233   -1.0179    0.2310 C   0  0  0  0  0  0  0  0  0  0  0  0
    0.5233    0.2960    0.8604 N   0  0  0  0  0  2  0  0  0  0  0  0
    1.4067   -0.5047   -1.6825 H   0  0  0  0  0  0  0  0  0  0  0  0
   -0.3601   -0.5047   -1.6825 H   0  0  0  0  0  0  0  0  0  0  0  0
    0.5233   -2.0356   -1.6916 H   0  0  0  0  0  0  0  0  0  0  0  0
    1.3966   -1.5631    0.5977 H   0  0  0  0  0  0  0  0  0  0  0  0
   -0.3500   -1.5631    0.5977 H   0  0  0  0  0  0  0  0  0  0  0  0
   -0.4518    0.9323    0.5153 H   0  0  0  0  0  0  0  0  0  0  0  0
    1.3359    0.8263    0.5728 H   0  0  0  0  0  0  0  0  0  0  0  0
   -1.4261    1.5681    0.1704 N   0  0  0  0  0  0  0  0  0  0  0  0
   -2.1693    0.9085   -0.0171 H   0  0  0  0  0  0  0  0  0  0  0  0
   -1.2496    1.8425    1.1276 H   0  0  0  0  0  0  0  0  0  0  0  0
  1  2  1  0
  1  4  1  0
  1  5  1  0
  1  6  1  0
  2  3  1  0
  2  7  1  0
  2  8  1  0
  3 10  1  0
  9 11  1  0
 11 12  1  0
 11 13  1  0
M  RAD  1   3   2
M  END
>  <reaction>  (6) 
rxn_119

>  <mol_properties>  (6) 
{"1": {"label": "*0", "atom_type": "Cs"}, "2": {"label": "*1", "atom_type": "N3s"}, "8": {"label": "*2", "atom_type": "H0"}, "10": {"label": "*3", "atom_type": "N3s"}, "11": {"label": "*4", "atom_type": "H0"}}

>  <type>  (6) 
unop_2

>  <geom_source>  (6) 
Heuristics

$$$$

     RDKit          3D

 13 11  0  0  0  0  0  0  0  0999 V2000
    0.5082   -1.0460   -1.2870 C   0  0  0  0  0  0  0  0  0  0  0  0
    0.5082   -1.0460    0.2383 C   0  0  0  0  0  0  0  0  0  0  0  0
    0.5082    0.2679    0.8677 N   0  0  0  0  0  2  0  0  0  0  0  0
    1.3916   -0.5328   -1.6752 H   0  0  0  0  0  0  0  0  0  0  0  0
   -0.3752   -0.5328   -1.6752 H   0  0  0  0  0  0  0  0  0  0  0  0
    0.5082   -2.0637   -1.6843 H   0  0  0  0  0  0  0  0  0  0  0  0
    1.3815   -1.5911    0.6050 H   0  0  0  0  0  0  0  0  0  0  0  0
   -0.3651   -1.5911    0.6050 H   0  0  0  0  0  0  0  0  0  0  0  0
   -0.4669    0.9043    0.5226 H   0  0  0  0  0  0  0  0  0  0  0  0
    1.3208    0.7982    0.5801 H   0  0  0  0  0  0  0  0  0  0  0  0
   -1.4413    1.5401    0.1778 N   0  0  0  0  0  0  0  0  0  0  0  0
   -1.6838    2.1616    0.9377 H   0  0  0  0  0  0  0  0  0  0  0  0
   -0.8481    2.2352   -0.2554 H   0  0  0  0  0  0  0  0  0  0  0  0
  1  2  1  0
  1  4  1  0
  1  5  1  0
  1  6  1  0
  2  3  1  0
  2  7  1  0
  2  8  1  0
  3 10  1  0
  9 11  1  0
 11 12  1  0
 11 13  1  0
M  RAD  1   3   2
M  END
>  <reaction>  (7) 
rxn_119

>  <mol_properties>  (7) 
{"1": {"label": "*0", "atom_type": "Cs"}, "2": {"label": "*1", "atom_type": "N3s"}, "8": {"label": "*2", "atom_type": "H0"}, "10": {"label": "*3", "atom_type": "N3s"}, "11": {"label": "*4", "atom_type": "H0"}}

>  <type>  (7) 
unop_3

>  <geom_source>  (7) 
Heuristics

$$$$

     RDKit          3D

 13 11  0  0  0  0  0  0  0  0999 V2000
    0.5285   -1.0232   -1.2714 C   0  0  0  0  0  0  0  0  0  0  0  0
    0.5285   -1.0232    0.2539 C   0  0  0  0  0  0  0  0  0  0  0  0
    0.5285    0.2907    0.8834 N   0  0  0  0  0  2  0  0  0  0  0  0
    1.4119   -0.5100   -1.6596 H   0  0  0  0  0  0  0  0  0  0  0  0
   -0.3549   -0.5100   -1.6596 H   0  0  0  0  0  0  0  0  0  0  0  0
    0.5285   -2.0409   -1.6686 H   0  0  0  0  0  0  0  0  0  0  0  0
    1.4018   -1.5684    0.6207 H   0  0  0  0  0  0  0  0  0  0  0  0
   -0.3448   -1.5684    0.6207 H   0  0  0  0  0  0  0  0  0  0  0  0
   -0.4466    0.9270    0.5382 H   0  0  0  0  0  0  0  0  0  0  0  0
    1.3411    0.8210    0.5958 H   0  0  0  0  0  0  0  0  0  0  0  0
   -1.4210    1.5628    0.1934 N   0  0  0  0  0  0  0  0  0  0  0  0
   -1.3796    1.6617   -0.8121 H   0  0  0  0  0  0  0  0  0  0  0  0
   -2.3420    1.4002    0.5779 H   0  0  0  0  0  0  0  0  0  0  0  0
  1  2  1  0
  1  4  1  0
  1  5  1  0
  1  6  1  0
  2  3  1  0
  2  7  1  0
  2  8  1  0
  3 10  1  0
  9 11  1  0
 11 12  1  0
 11 13  1  0
M  RAD  1   3   2
M  END
>  <reaction>  (8) 
rxn_119

>  <mol_properties>  (8) 
{"1": {"label": "*0", "atom_type": "Cs"}, "2": {"label": "*1", "atom_type": "N3s"}, "8": {"label": "*2", "atom_type": "H0"}, "10": {"label": "*3", "atom_type": "N3s"}, "11": {"label": "*4", "atom_type": "H0"}}

>  <type>  (8) 
unop_4

>  <geom_source>  (8) 
Heuristics

$$$$

     RDKit          3D

 13 11  0  0  0  0  0  0  0  0999 V2000
    0.5131   -1.0471   -1.2746 C   0  0  0  0  0  0  0  0  0  0  0  0
    0.5131   -1.0471    0.2507 C   0  0  0  0  0  0  0  0  0  0  0  0
    0.5131    0.2668    0.8802 N   0  0  0  0  0  2  0  0  0  0  0  0
    1.3965   -0.5340   -1.6628 H   0  0  0  0  0  0  0  0  0  0  0  0
   -0.3703   -0.5340   -1.6628 H   0  0  0  0  0  0  0  0  0  0  0  0
    0.5131   -2.0649   -1.6719 H   0  0  0  0  0  0  0  0  0  0  0  0
    1.3864   -1.5923    0.6175 H   0  0  0  0  0  0  0  0  0  0  0  0
   -0.3602   -1.5923    0.6175 H   0  0  0  0  0  0  0  0  0  0  0  0
   -0.4620    0.9031    0.5350 H   0  0  0  0  0  0  0  0  0  0  0  0
    1.3257    0.7971    0.5926 H   0  0  0  0  0  0  0  0  0  0  0  0
   -1.4364    1.5389    0.1902 N   0  0  0  0  0  0  0  0  0  0  0  0
   -1.3917    2.4381    0.6507 H   0  0  0  0  0  0  0  0  0  0  0  0
   -1.4267    2.0253   -0.6963 H   0  0  0  0  0  0  0  0  0  0  0  0
  1  2  1  0
  1  4  1  0
  1  5  1  0
  1  6  1  0
  2  3  1  0
  2  7  1  0
  2  8  1  0
  3 10  1  0
  9 11  1  0
 11 12  1  0
 11 13  1  0
M  RAD  1   3   2
M  END
>  <reaction>  (9) 
rxn_119

>  <mol_properties>  (9) 
{"1": {"label": "*0", "atom_type": "Cs"}, "2": {"label": "*1", "atom_type": "N3s"}, "8": {"label": "*2", "atom_type": "H0"}, "10": {"label": "*3", "atom_type": "N3s"}, "11": {"label": "*4", "atom_type": "H0"}}

>  <type>  (9) 
unop_5

>  <geom_source>  (9) 
Heuristics

$$$$

     RDKit          3D

 13 11  0  0  0  0  0  0  0  0999 V2000
    0.5263   -1.0304   -1.2681 C   0  0  0  0  0  0  0  0  0  0  0  0
    0.5263   -1.0304    0.2572 C   0  0  0  0  0  0  0  0  0  0  0  0
    0.5263    0.2835    0.8866 N   0  0  0  0  0  2  0  0  0  0  0  0
    1.4097   -0.5173   -1.6563 H   0  0  0  0  0  0  0  0  0  0  0  0
   -0.3571   -0.5173   -1.6563 H   0  0  0  0  0  0  0  0  0  0  0  0
    0.5263   -2.0482   -1.6654 H   0  0  0  0  0  0  0  0  0  0  0  0
    1.3996   -1.5756    0.6240 H   0  0  0  0  0  0  0  0  0  0  0  0
   -0.3470   -1.5756    0.6240 H   0  0  0  0  0  0  0  0  0  0  0  0
   -0.4488    0.9198    0.5415 H   0  0  0  0  0  0  0  0  0  0  0  0
    1.3389    0.8137    0.5990 H   0  0  0  0  0  0  0  0  0  0  0  0
   -1.4231    1.5556    0.1967 N   0  0  0  0  0  0  0  0  0  0  0  0
   -1.1707    2.0722   -0.6352 H   0  0  0  0  0  0  0  0  0  0  0  0
   -2.4242    1.4134    0.2096 H   0  0  0  0  0  0  0  0  0  0  0  0
  1  2  1  0
  1  4  1  0
  1  5  1  0
  1  6  1  0
  2  3  1  0
  2  7  1  0
  2  8  1  0
  3 10  1  0
  9 11  1  0
 11 12  1  0
 11 13  1  0
M  RAD  1   3   2
M  END
>  <reaction>  (10) 
rxn_119

>  <mol_properties>  (10) 
{"1": {"label": "*0", "atom_type": "Cs"}, "2": {"label": "*1", "atom_type": "N3s"}, "8": {"label": "*2", "atom_type": "H0"}, "10": {"label": "*3", "atom_type": "N3s"}, "11": {"label": "*4", "atom_type": "H0"}}

>  <type>  (10) 
unop_6

>  <geom_source>  (10) 
Heuristics

$$$$

     RDKit          3D

 13 11  0  0  0  0  0  0  0  0999 V2000
    0.5241   -1.0372   -1.2680 C   0  0  0  0  0  0  0  0  0  0  0  0
    0.5241   -1.0372    0.2572 C   0  0  0  0  0  0  0  0  0  0  0  0
    0.5241    0.2767    0.8867 N   0  0  0  0  0  2  0  0  0  0  0  0
    1.4074   -0.5240   -1.6563 H   0  0  0  0  0  0  0  0  0  0  0  0
   -0.3593   -0.5240   -1.6563 H   0  0  0  0  0  0  0  0  0  0  0  0
    0.5241   -2.0549   -1.6653 H   0  0  0  0  0  0  0  0  0  0  0  0
    1.3973   -1.5824    0.6240 H   0  0  0  0  0  0  0  0  0  0  0  0
   -0.3492   -1.5824    0.6240 H   0  0  0  0  0  0  0  0  0  0  0  0
   -0.4511    0.9130    0.5416 H   0  0  0  0  0  0  0  0  0  0  0  0
    1.3367    0.8070    0.5991 H   0  0  0  0  0  0  0  0  0  0  0  0
   -1.4254    1.5488    0.1967 N   0  0  0  0  0  0  0  0  0  0  0  0
   -1.0950    2.3874   -0.2618 H   0  0  0  0  0  0  0  0  0  0  0  0
   -2.3674    1.4947   -0.1670 H   0  0  0  0  0  0  0  0  0  0  0  0
  1  2  1  0
  1  4  1  0
  1  5  1  0
  1  6  1  0
  2  3  1  0
  2  7  1  0
  2  8  1  0
  3 10  1  0
  9 11  1  0
 11 12  1  0
 11 13  1  0
M  RAD  1   3   2
M  END
>  <reaction>  (11) 
rxn_119

>  <mol_properties>  (11) 
{"1": {"label": "*0", "atom_type": "Cs"}, "2": {"label": "*1", "atom_type": "N3s"}, "8": {"label": "*2", "atom_type": "H0"}, "10": {"label": "*3", "atom_type": "N3s"}, "11": {"label": "*4", "atom_type": "H0"}}

>  <type>  (11) 
unop_7

>  <geom_source>  (11) 
Heuristics

$$$$

     RDKit          3D

 13 11  0  0  0  0  0  0  0  0999 V2000
    0.5149   -1.0309   -1.2997 C   0  0  0  0  0  0  0  0  0  0  0  0
    0.5149   -1.0309    0.2256 C   0  0  0  0  0  0  0  0  0  0  0  0
    0.5149    0.2830    0.8550 N   0  0  0  0  0  2  0  0  0  0  0  0
    1.3983   -0.5178   -1.6879 H   0  0  0  0  0  0  0  0  0  0  0  0
   -0.3685   -0.5177   -1.6879 H   0  0  0  0  0  0  0  0  0  0  0  0
    0.5149   -2.0487   -1.6970 H   0  0  0  0  0  0  0  0  0  0  0  0
    1.3882   -1.5761    0.5923 H   0  0  0  0  0  0  0  0  0  0  0  0
   -0.3584   -1.5761    0.5923 H   0  0  0  0  0  0  0  0  0  0  0  0
   -0.4602    0.9193    0.5099 H   0  0  0  0  0  0  0  0  0  0  0  0
    1.3275    0.8133    0.5674 H   0  0  0  0  0  0  0  0  0  0  0  0
   -1.4345    1.5551    0.1650 N   0  0  0  0  0  0  0  0  0  0  0  0
   -2.1758    1.3575    0.8239 H   0  0  0  0  0  0  0  0  0  0  0  0
   -0.7499    2.1560    0.6041 H   0  0  0  0  0  0  0  0  0  0  0  0
  1  2  1  0
  1  4  1  0
  1  5  1  0
  1  6  1  0
  2  3  1  0
  2  7  1  0
  2  8  1  0
  3 10  1  0
  9 11  1  0
 11 12  1  0
 11 13  1  0
M  RAD  1   3   2
M  END
>  <reaction>  (12) 
rxn_119

>  <mol_properties>  (12) 
{"1": {"label": "*0", "atom_type": "Cs"}, "2": {"label": "*1", "atom_type": "N3s"}, "8": {"label": "*2", "atom_type": "H0"}, "10": {"label": "*3", "atom_type": "N3s"}, "11": {"label": "*4", "atom_type": "H0"}}

>  <type>  (12) 
unop_8

>  <geom_source>  (12) 
Heuristics

$$$$

     RDKit          3D

 13 11  0  0  0  0  0  0  0  0999 V2000
    0.5293   -1.0175   -1.2784 C   0  0  0  0  0  0  0  0  0  0  0  0
    0.5293   -1.0175    0.2468 C   0  0  0  0  0  0  0  0  0  0  0  0
    0.5293    0.2964    0.8763 N   0  0  0  0  0  2  0  0  0  0  0  0
    1.4127   -0.5044   -1.6667 H   0  0  0  0  0  0  0  0  0  0  0  0
   -0.3541   -0.5044   -1.6667 H   0  0  0  0  0  0  0  0  0  0  0  0
    0.5293   -2.0353   -1.6757 H   0  0  0  0  0  0  0  0  0  0  0  0
    1.4026   -1.5627    0.6136 H   0  0  0  0  0  0  0  0  0  0  0  0
   -0.3440   -1.5627    0.6136 H   0  0  0  0  0  0  0  0  0  0  0  0
   -0.4458    0.9327    0.5312 H   0  0  0  0  0  0  0  0  0  0  0  0
    1.3419    0.8266    0.5887 H   0  0  0  0  0  0  0  0  0  0  0  0
   -1.4202    1.5685    0.1863 N   0  0  0  0  0  0  0  0  0  0  0  0
   -1.6665    1.2660   -0.7466 H   0  0  0  0  0  0  0  0  0  0  0  0
   -2.1011    1.4649    0.9268 H   0  0  0  0  0  0  0  0  0  0  0  0
  1  2  1  0
  1  4  1  0
  1  5  1  0
  1  6  1  0
  2  3  1  0
  2  7  1  0
  2  8  1  0
  3 10  1  0
  9 11  1  0
 11 12  1  0
 11 13  1  0
M  RAD  1   3   2
M  END
>  <reaction>  (13) 
rxn_119

>  <mol_properties>  (13) 
{"1": {"label": "*0", "atom_type": "Cs"}, "2": {"label": "*1", "atom_type": "N3s"}, "8": {"label": "*2", "atom_type": "H0"}, "10": {"label": "*3", "atom_type": "N3s"}, "11": {"label": "*4", "atom_type": "H0"}}

>  <type>  (13) 
unop_9

>  <geom_source>  (13) 
Heuristics

$$$$

     RDKit          3D

 13 11  0  0  0  0  0  0  0  0999 V2000
    0.5192   -1.0233   -1.2986 C   0  0  0  0  0  0  0  0  0  0  0  0
    0.5192   -1.0233    0.2267 C   0  0  0  0  0  0  0  0  0  0  0  0
    0.5192    0.2906    0.8561 N   0  0  0  0  0  2  0  0  0  0  0  0
    1.4026   -0.5102   -1.6868 H   0  0  0  0  0  0  0  0  0  0  0  0
   -0.3642   -0.5102   -1.6868 H   0  0  0  0  0  0  0  0  0  0  0  0
    0.5192   -2.0411   -1.6959 H   0  0  0  0  0  0  0  0  0  0  0  0
    1.3925   -1.5685    0.5934 H   0  0  0  0  0  0  0  0  0  0  0  0
   -0.3541   -1.5685    0.5934 H   0  0  0  0  0  0  0  0  0  0  0  0
   -0.4559    0.9269    0.5110 H   0  0  0  0  0  0  0  0  0  0  0  0
    1.3318    0.8208    0.5685 H   0  0  0  0  0  0  0  0  0  0  0  0
   -1.4303    1.5627    0.1662 N   0  0  0  0  0  0  0  0  0  0  0  0
   -2.2495    1.0431    0.4516 H   0  0  0  0  0  0  0  0  0  0  0  0
   -0.9277    2.0275    0.9104 H   0  0  0  0  0  0  0  0  0  0  0  0
  1  2  1  0
  1  4  1  0
  1  5  1  0
  1  6  1  0
  2  3  1  0
  2  7  1  0
  2  8  1  0
  3 10  1  0
  9 11  1  0
 11 12  1  0
 11 13  1  0
M  RAD  1   3   2
M  END
>  <reaction>  (14) 
rxn_119

>  <mol_properties>  (14) 
{"1": {"label": "*0", "atom_type": "Cs"}, "2": {"label": "*1", "atom_type": "N3s"}, "8": {"label": "*2", "atom_type": "H0"}, "10": {"label": "*3", "atom_type": "N3s"}, "11": {"label": "*4", "atom_type": "H0"}}

>  <type>  (14) 
unop_10

>  <geom_source>  (14) 
Heuristics

$$$$

     RDKit          3D

 13 11  0  0  0  0  0  0  0  0999 V2000
    0.5207   -1.0427   -1.2695 C   0  0  0  0  0  0  0  0  0  0  0  0
    0.5207   -1.0427    0.2558 C   0  0  0  0  0  0  0  0  0  0  0  0
    0.5207    0.2712    0.8853 N   0  0  0  0  0  2  0  0  0  0  0  0
    1.4041   -0.5296   -1.6577 H   0  0  0  0  0  0  0  0  0  0  0  0
   -0.3627   -0.5296   -1.6577 H   0  0  0  0  0  0  0  0  0  0  0  0
    0.5207   -2.0605   -1.6667 H   0  0  0  0  0  0  0  0  0  0  0  0
    1.3940   -1.5879    0.6226 H   0  0  0  0  0  0  0  0  0  0  0  0
   -0.3526   -1.5879    0.6226 H   0  0  0  0  0  0  0  0  0  0  0  0
   -0.4544    0.9075    0.5401 H   0  0  0  0  0  0  0  0  0  0  0  0
    1.3333    0.8014    0.5977 H   0  0  0  0  0  0  0  0  0  0  0  0
   -1.4287    1.5433    0.1953 N   0  0  0  0  0  0  0  0  0  0  0  0
   -1.1744    2.5219    0.2098 H   0  0  0  0  0  0  0  0  0  0  0  0
   -2.0915    1.6848   -0.5553 H   0  0  0  0  0  0  0  0  0  0  0  0
  1  2  1  0
  1  4  1  0
  1  5  1  0
  1  6  1  0
  2  3  1  0
  2  7  1  0
  2  8  1  0
  3 10  1  0
  9 11  1  0
 11 12  1  0
 11 13  1  0
M  RAD  1   3   2
M  END
>  <reaction>  (15) 
rxn_119

>  <mol_properties>  (15) 
{"1": {"label": "*0", "atom_type": "Cs"}, "2": {"label": "*1", "atom_type": "N3s"}, "8": {"label": "*2", "atom_type": "H0"}, "10": {"label": "*3", "atom_type": "N3s"}, "11": {"label": "*4", "atom_type": "H0"}}

>  <type>  (15) 
unop_11

>  <geom_source>  (15) 
Heuristics

$$$$

     RDKit          3D

 13 11  0  0  0  0  0  0  0  0999 V2000
    0.5272   -1.0156   -1.2872 C   0  0  0  0  0  0  0  0  0  0  0  0
    0.5272   -1.0156    0.2381 C   0  0  0  0  0  0  0  0  0  0  0  0
    0.5272    0.2983    0.8675 N   0  0  0  0  0  2  0  0  0  0  0  0
    1.4106   -0.5025   -1.6754 H   0  0  0  0  0  0  0  0  0  0  0  0
   -0.3561   -0.5025   -1.6754 H   0  0  0  0  0  0  0  0  0  0  0  0
    0.5272   -2.0334   -1.6845 H   0  0  0  0  0  0  0  0  0  0  0  0
    1.4005   -1.5608    0.6048 H   0  0  0  0  0  0  0  0  0  0  0  0
   -0.3460   -1.5608    0.6048 H   0  0  0  0  0  0  0  0  0  0  0  0
   -0.4479    0.9346    0.5224 H   0  0  0  0  0  0  0  0  0  0  0  0
    1.3398    0.8286    0.5799 H   0  0  0  0  0  0  0  0  0  0  0  0
   -1.4222    1.5704    0.1776 N   0  0  0  0  0  0  0  0  0  0  0  0
   -1.9557    0.9903   -0.4560 H   0  0  0  0  0  0  0  0  0  0  0  0
   -1.6930    1.6272    1.1502 H   0  0  0  0  0  0  0  0  0  0  0  0
  1  2  1  0
  1  4  1  0
  1  5  1  0
  1  6  1  0
  2  3  1  0
  2  7  1  0
  2  8  1  0
  3 10  1  0
  9 11  1  0
 11 12  1  0
 11 13  1  0
M  RAD  1   3   2
M  END
>  <reaction>  (16) 
rxn_119

>  <mol_properties>  (16) 
{"1": {"label": "*0", "atom_type": "Cs"}, "2": {"label": "*1", "atom_type": "N3s"}, "8": {"label": "*2", "atom_type": "H0"}, "10": {"label": "*3", "atom_type": "N3s"}, "11": {"label": "*4", "atom_type": "H0"}}

>  <type>  (16) 
unop_12

>  <geom_source>  (16) 
Heuristics

$$$$
