
     RDKit          3D

  4  3  0  0  0  0  0  0  0  0999 V2000
    0.5949   -0.3853    0.2659 O   0  0  0  0  0  0  0  0  0  0  0  0
   -0.5918    0.4028    0.2462 O   0  0  0  0  0  0  0  0  0  0  0  0
    1.1865    0.1539   -0.2689 H   0  0  0  0  0  0  0  0  0  0  0  0
   -1.1896   -0.1714   -0.2432 H   0  0  0  0  0  0  0  0  0  0  0  0
  1  2  1  0
  1  3  1  0
  2  4  1  0
M  END
>  <reaction>  (1) 
rxn_437

>  <mol_properties>  (1) 
{"1": {"label": "donator", "atom_type": "O2s"}, "3": {"label": "d_hydrogen", "atom_type": "H0"}}

>  <type>  (1) 
r1h

$$$$

     RDKit          3D

  9  8  0  0  0  0  0  0  0  0999 V2000
   -1.1190   -0.1791    0.1439 C   0  0  0  0  0  0  0  0  0  0  0  0
    0.1303    0.5931   -0.0164 C   0  0  0  0  0  0  0  0  0  0  0  0
    0.3198    1.5563   -1.0510 C   0  0  0  0  0  0  0  0  0  0  0  0
   -0.5293    1.8274   -1.8924 O   0  0  0  0  0  1  0  0  0  0  0  0
   -0.9173   -1.2534    0.0852 H   0  0  0  0  0  0  0  0  0  0  0  0
   -1.8441    0.0914   -0.6212 H   0  0  0  0  0  0  0  0  0  0  0  0
   -1.5557   -0.0033    1.1322 H   0  0  0  0  0  0  0  0  0  0  0  0
    0.9483    0.4300    0.6772 H   0  0  0  0  0  0  0  0  0  0  0  0
    1.2979    2.0687   -1.0664 H   0  0  0  0  0  0  0  0  0  0  0  0
  1  2  1  0
  1  5  1  0
  1  6  1  0
  1  7  1  0
  2  3  2  3
  2  8  1  0
  3  4  1  0
  3  9  1  0
M  RAD  1   4   2
M  END
>  <reaction>  (2) 
rxn_437

>  <mol_properties>  (2) 
{"3": {"label": "acceptor", "atom_type": "O2s"}}

>  <type>  (2) 
r2

$$$$

     RDKit          3D

 10  9  0  0  0  0  0  0  0  0999 V2000
   -0.8856   -0.4848   -0.7236 C   0  0  0  0  0  0  0  0  0  0  0  0
   -0.2668    0.6546    0.0255 C   0  0  0  0  0  0  0  0  0  0  0  0
    0.1522    1.8066   -0.4848 C   0  0  0  0  0  0  0  0  0  0  0  0
    0.1133    2.2022   -1.7810 O   0  0  0  0  0  0  0  0  0  0  0  0
   -0.2947   -1.3968   -0.6100 H   0  0  0  0  0  0  0  0  0  0  0  0
   -1.8892   -0.7018   -0.3501 H   0  0  0  0  0  0  0  0  0  0  0  0
   -0.9796   -0.2992   -1.7965 H   0  0  0  0  0  0  0  0  0  0  0  0
   -0.1454    0.5334    1.0945 H   0  0  0  0  0  0  0  0  0  0  0  0
    0.5893    2.5767    0.1375 H   0  0  0  0  0  0  0  0  0  0  0  0
   -0.2763    1.5101   -2.3202 H   0  0  0  0  0  0  0  0  0  0  0  0
  1  2  1  0
  1  5  1  0
  1  6  1  0
  1  7  1  0
  2  3  2  3
  2  8  1  0
  3  4  1  0
  3  9  1  0
  4 10  1  0
M  END
>  <reaction>  (3) 
rxn_437

>  <mol_properties>  (3) 
{"0": {"label": "a_hydrogen", "atom_type": "H0"}, "4": {"label": "acceptor", "atom_type": "O2s"}}

>  <type>  (3) 
r2h

$$$$

     RDKit          3D

 13 11  0  0  0  0  0  0  0  0999 V2000
   -0.5022   -1.1778   -0.9276 O   0  0  0  0  0  0  0  0  0  0  0  0
    0.0476   -0.3367   -1.8448 O   0  0  0  0  0  1  0  0  0  0  0  0
   -1.4399   -1.1974   -1.1635 H   0  0  0  0  0  0  0  0  0  0  0  0
    0.3512    0.7034   -1.1454 H   0  0  0  0  0  0  0  0  0  0  0  0
    1.6765   -0.5796    1.0891 C   0  0  0  0  0  0  0  0  0  0  0  0
    0.4781    0.2074    1.4730 C   0  0  0  0  0  0  0  0  0  0  0  0
   -0.0989    1.1896    0.7280 C   0  0  0  0  0  0  0  0  0  0  0  0
    0.2937    1.5582   -0.4600 O   0  0  0  0  0  0  0  0  0  0  0  0
    2.1190   -0.2202    0.1619 H   0  0  0  0  0  0  0  0  0  0  0  0
    1.4173   -1.6329    0.9542 H   0  0  0  0  0  0  0  0  0  0  0  0
    2.4266   -0.5320    1.8828 H   0  0  0  0  0  0  0  0  0  0  0  0
    0.0271    0.0068    2.4386 H   0  0  0  0  0  0  0  0  0  0  0  0
   -0.9523    1.7341    1.1325 H   0  0  0  0  0  0  0  0  0  0  0  0
  1  2  1  0
  1  3  1  0
  4  8  1  0
  5  6  1  0
  5  9  1  0
  5 10  1  0
  5 11  1  0
  6  7  2  3
  6 12  1  0
  7  8  1  0
  7 13  1  0
M  RAD  1   2   2
M  END
>  <reaction>  (4) 
rxn_437

>  <mol_properties>  (4) 
{"0": {"label": "*4", "atom_type": "O2s"}, "1": {"label": "*3", "atom_type": "O2s"}, "3": {"label": "*2", "atom_type": "H0"}, "6": {"label": "*0", "atom_type": "Cd"}, "7": {"label": "*1", "atom_type": "O2s"}}

>  <type>  (4) 
ts

$$$$

     RDKit          3D

 13 11  0  0  0  0  0  0  0  0999 V2000
    0.7103   -1.1305   -2.0411 O   0  0  0  0  0  0  0  0  0  0  0  0
    0.7103   -1.1305   -0.6164 O   0  0  0  0  0  1  0  0  0  0  0  0
    1.5710   -1.5188   -2.2281 H   0  0  0  0  0  0  0  0  0  0  0  0
    0.7103    0.0026   -0.3920 H   0  0  0  0  0  0  0  0  0  0  0  0
   -1.6310   -0.4969    0.9269 C   0  0  0  0  0  0  0  0  0  0  0  0
   -0.9461    0.6929    1.5248 C   0  0  0  0  0  0  0  0  0  0  0  0
    0.0724    1.3678    1.0049 C   0  0  0  0  0  0  0  0  0  0  0  0
    0.7103    1.1326   -0.1681 O   0  0  0  0  0  0  0  0  0  0  0  0
   -1.5640   -1.3630    1.5895 H   0  0  0  0  0  0  0  0  0  0  0  0
   -1.2121   -0.8008   -0.0357 H   0  0  0  0  0  0  0  0  0  0  0  0
   -2.6925   -0.2976    0.7622 H   0  0  0  0  0  0  0  0  0  0  0  0
   -1.3143    1.0448    2.4802 H   0  0  0  0  0  0  0  0  0  0  0  0
    0.5054    2.2203    1.5119 H   0  0  0  0  0  0  0  0  0  0  0  0
  1  2  1  0
  1  3  1  0
  4  8  1  0
  5  6  1  0
  5  9  1  0
  5 10  1  0
  5 11  1  0
  6  7  2  3
  6 12  1  0
  7  8  1  0
  7 13  1  0
M  RAD  1   2   2
M  END
>  <reaction>  (5) 
rxn_437

>  <mol_properties>  (5) 
{"0": {"label": "*4", "atom_type": "O2s"}, "1": {"label": "*3", "atom_type": "O2s"}, "3": {"label": "*2", "atom_type": "H0"}, "6": {"label": "*0", "atom_type": "Cd"}, "7": {"label": "*1", "atom_type": "O2s"}}

>  <type>  (5) 
unop_1

>  <geom_source>  (5) 
Heuristics

$$$$

     RDKit          3D

 13 10  0  0  0  0  0  0  0  0999 V2000
    0.6243   -1.4106   -0.6882 O   0  0  0  0  0  0  0  0  0  0  0  0
    0.6243   -1.4106    0.7364 O   0  0  0  0  0 15  0  0  0  0  0  0
    1.4851   -1.7989   -0.8753 H   0  0  0  0  0  0  0  0  0  0  0  0
    0.6243   -0.2775    0.9609 H   0  0  0  0  0  0  0  0  0  0  0  0
   -0.7072    0.0127   -1.4340 C   0  0  0  0  0  3  0  0  0  0  0  0
   -1.0968    1.1011   -0.4822 C   0  0  0  0  0  0  0  0  0  0  0  0
   -0.4806    1.4264    0.6481 C   0  0  0  0  0  0  0  0  0  0  0  0
    0.6243    0.8524    1.1847 O   0  0  0  0  0  0  0  0  0  0  0  0
   -1.5122   -0.7174   -1.5467 H   0  0  0  0  0  0  0  0  0  0  0  0
    0.1815   -0.5408   -1.1206 H   0  0  0  0  0  0  0  0  0  0  0  0
   -0.4958    0.4161   -2.4271 H   0  0  0  0  0  0  0  0  0  0  0  0
   -1.9707    1.6878   -0.7356 H   0  0  0  0  0  0  0  0  0  0  0  0
   -0.8363    2.2329    1.2760 H   0  0  0  0  0  0  0  0  0  0  0  0
  1  3  1  0
  1 10  1  0
  4  8  1  0
  5  6  1  0
  5  9  1  0
  5 11  1  0
  6  7  2  3
  6 12  1  0
  7  8  1  0
  7 13  1  0
M  RAD  1   5   2
M  END
>  <reaction>  (6) 
rxn_437

>  <mol_properties>  (6) 
{"0": {"label": "*4", "atom_type": "O2s"}, "1": {"label": "*3", "atom_type": "O2s"}, "3": {"label": "*2", "atom_type": "H0"}, "6": {"label": "*0", "atom_type": "Cd"}, "7": {"label": "*1", "atom_type": "O2s"}}

>  <type>  (6) 
unop_2

>  <geom_source>  (6) 
Heuristics

$$$$

     RDKit          3D

 13 11  0  0  0  0  0  0  0  0999 V2000
   -0.0095   -0.9915   -2.3220 O   0  0  0  0  0  0  0  0  0  0  0  0
   -0.0095   -0.9915   -0.8974 O   0  0  0  0  0  1  0  0  0  0  0  0
    0.8512   -1.3798   -2.5091 H   0  0  0  0  0  0  0  0  0  0  0  0
   -0.0095    0.1416   -0.6729 H   0  0  0  0  0  0  0  0  0  0  0  0
   -0.0095   -0.9307    1.6689 C   0  0  0  0  0  0  0  0  0  0  0  0
   -0.0095    0.5556    1.8510 C   0  0  0  0  0  0  0  0  0  0  0  0
   -0.0095    1.4736    0.8916 C   0  0  0  0  0  0  0  0  0  0  0  0
   -0.0095    1.2715   -0.4490 O   0  0  0  0  0  0  0  0  0  0  0  0
    0.8698   -1.3835    2.1332 H   0  0  0  0  0  0  0  0  0  0  0  0
   -0.0095   -1.2399    0.6207 H   0  0  0  0  0  0  0  0  0  0  0  0
   -0.8889   -1.3835    2.1332 H   0  0  0  0  0  0  0  0  0  0  0  0
   -0.0095    0.9274    2.8678 H   0  0  0  0  0  0  0  0  0  0  0  0
   -0.0095    2.5316    1.1193 H   0  0  0  0  0  0  0  0  0  0  0  0
  1  2  1  0
  1  3  1  0
  4  8  1  0
  5  6  1  0
  5  9  1  0
  5 10  1  0
  5 11  1  0
  6  7  2  3
  6 12  1  0
  7  8  1  0
  7 13  1  0
M  RAD  1   2   2
M  END
>  <reaction>  (7) 
rxn_437

>  <mol_properties>  (7) 
{"0": {"label": "*4", "atom_type": "O2s"}, "1": {"label": "*3", "atom_type": "O2s"}, "3": {"label": "*2", "atom_type": "H0"}, "6": {"label": "*0", "atom_type": "Cd"}, "7": {"label": "*1", "atom_type": "O2s"}}

>  <type>  (7) 
unop_3

>  <geom_source>  (7) 
Heuristics

$$$$

     RDKit          3D

 13 10  0  0  0  0  0  0  0  0999 V2000
   -0.3129   -1.3837   -0.5054 O   0  0  0  0  0  0  0  0  0  0  0  0
   -0.3129   -1.3837    0.9192 O   0  0  0  0  0 15  0  0  0  0  0  0
    0.5479   -1.7720   -0.6925 H   0  0  0  0  0  0  0  0  0  0  0  0
   -0.3129   -0.2506    1.1437 H   0  0  0  0  0  0  0  0  0  0  0  0
    0.1776   -0.2020   -1.4478 C   0  0  0  0  0  3  0  0  0  0  0  0
    0.5636    1.1215   -0.8632 C   0  0  0  0  0  0  0  0  0  0  0  0
    0.3250    1.5440    0.3728 C   0  0  0  0  0  0  0  0  0  0  0  0
   -0.3129    0.8793    1.3675 O   0  0  0  0  0  0  0  0  0  0  0  0
   -0.4753   -0.0734   -2.3143 H   0  0  0  0  0  0  0  0  0  0  0  0
   -0.3522   -0.8495   -0.7446 H   0  0  0  0  0  0  0  0  0  0  0  0
    1.0579   -0.7540   -1.7858 H   0  0  0  0  0  0  0  0  0  0  0  0
    1.0922    1.8104   -1.5098 H   0  0  0  0  0  0  0  0  0  0  0  0
    0.6434    2.5223    0.7089 H   0  0  0  0  0  0  0  0  0  0  0  0
  1  3  1  0
  1 10  1  0
  4  8  1  0
  5  6  1  0
  5  9  1  0
  5 11  1  0
  6  7  2  3
  6 12  1  0
  7  8  1  0
  7 13  1  0
M  RAD  1   5   2
M  END
>  <reaction>  (8) 
rxn_437

>  <mol_properties>  (8) 
{"0": {"label": "*4", "atom_type": "O2s"}, "1": {"label": "*3", "atom_type": "O2s"}, "3": {"label": "*2", "atom_type": "H0"}, "6": {"label": "*0", "atom_type": "Cd"}, "7": {"label": "*1", "atom_type": "O2s"}}

>  <type>  (8) 
unop_4

>  <geom_source>  (8) 
Heuristics

$$$$

     RDKit          3D

 13 11  0  0  0  0  0  0  0  0999 V2000
   -0.7293   -1.1305   -2.0411 O   0  0  0  0  0  0  0  0  0  0  0  0
   -0.7293   -1.1305   -0.6164 O   0  0  0  0  0  1  0  0  0  0  0  0
    0.1314   -1.5188   -2.2281 H   0  0  0  0  0  0  0  0  0  0  0  0
   -0.7293    0.0026   -0.3920 H   0  0  0  0  0  0  0  0  0  0  0  0
    1.6119   -0.4969    0.9269 C   0  0  0  0  0  0  0  0  0  0  0  0
    0.9270    0.6929    1.5248 C   0  0  0  0  0  0  0  0  0  0  0  0
   -0.0914    1.3678    1.0049 C   0  0  0  0  0  0  0  0  0  0  0  0
   -0.7293    1.1326   -0.1681 O   0  0  0  0  0  0  0  0  0  0  0  0
    2.6735   -0.2976    0.7622 H   0  0  0  0  0  0  0  0  0  0  0  0
    1.1931   -0.8009   -0.0357 H   0  0  0  0  0  0  0  0  0  0  0  0
    1.5450   -1.3630    1.5896 H   0  0  0  0  0  0  0  0  0  0  0  0
    1.2952    1.0448    2.4802 H   0  0  0  0  0  0  0  0  0  0  0  0
   -0.5245    2.2203    1.5119 H   0  0  0  0  0  0  0  0  0  0  0  0
  1  2  1  0
  1  3  1  0
  4  8  1  0
  5  6  1  0
  5  9  1  0
  5 10  1  0
  5 11  1  0
  6  7  2  3
  6 12  1  0
  7  8  1  0
  7 13  1  0
M  RAD  1   2   2
M  END
>  <reaction>  (9) 
rxn_437

>  <mol_properties>  (9) 
{"0": {"label": "*4", "atom_type": "O2s"}, "1": {"label": "*3", "atom_type": "O2s"}, "3": {"label": "*2", "atom_type": "H0"}, "6": {"label": "*0", "atom_type": "Cd"}, "7": {"label": "*1", "atom_type": "O2s"}}

>  <type>  (9) 
unop_5

>  <geom_source>  (9) 
Heuristics

$$$$

     RDKit          3D

 13 10  0  0  0  0  0  0  0  0999 V2000
   -0.6434   -1.4106   -0.6882 O   0  0  0  0  0  0  0  0  0  0  0  0
   -0.6434   -1.4106    0.7364 O   0  0  0  0  0 15  0  0  0  0  0  0
    0.2173   -1.7989   -0.8753 H   0  0  0  0  0  0  0  0  0  0  0  0
   -0.6434   -0.2775    0.9609 H   0  0  0  0  0  0  0  0  0  0  0  0
    0.6882    0.0127   -1.4340 C   0  0  0  0  0  3  0  0  0  0  0  0
    1.0778    1.1011   -0.4822 C   0  0  0  0  0  0  0  0  0  0  0  0
    0.4615    1.4264    0.6481 C   0  0  0  0  0  0  0  0  0  0  0  0
   -0.6434    0.8524    1.1847 O   0  0  0  0  0  0  0  0  0  0  0  0
    0.4768    0.4161   -2.4271 H   0  0  0  0  0  0  0  0  0  0  0  0
   -0.2005   -0.5408   -1.1206 H   0  0  0  0  0  0  0  0  0  0  0  0
    1.4932   -0.7174   -1.5467 H   0  0  0  0  0  0  0  0  0  0  0  0
    1.9517    1.6878   -0.7356 H   0  0  0  0  0  0  0  0  0  0  0  0
    0.8172    2.2329    1.2760 H   0  0  0  0  0  0  0  0  0  0  0  0
  1  3  1  0
  1 10  1  0
  4  8  1  0
  5  6  1  0
  5  9  1  0
  5 11  1  0
  6  7  2  3
  6 12  1  0
  7  8  1  0
  7 13  1  0
M  RAD  1   5   2
M  END
>  <reaction>  (10) 
rxn_437

>  <mol_properties>  (10) 
{"0": {"label": "*4", "atom_type": "O2s"}, "1": {"label": "*3", "atom_type": "O2s"}, "3": {"label": "*2", "atom_type": "H0"}, "6": {"label": "*0", "atom_type": "Cd"}, "7": {"label": "*1", "atom_type": "O2s"}}

>  <type>  (10) 
unop_6

>  <geom_source>  (10) 
Heuristics

$$$$

     RDKit          3D

 13 11  0  0  0  0  0  0  0  0999 V2000
   -0.9090   -1.3873   -1.0444 O   0  0  0  0  0  0  0  0  0  0  0  0
   -0.9090   -1.3873    0.3803 O   0  0  0  0  0  1  0  0  0  0  0  0
   -0.0483   -1.7756   -1.2314 H   0  0  0  0  0  0  0  0  0  0  0  0
   -0.9090   -0.2542    0.6048 H   0  0  0  0  0  0  0  0  0  0  0  0
    1.3730    0.0988   -1.0487 C   0  0  0  0  0  0  0  0  0  0  0  0
    1.3921    1.0208    0.1311 C   0  0  0  0  0  0  0  0  0  0  0  0
    0.3668    1.3258    0.9177 C   0  0  0  0  0  0  0  0  0  0  0  0
   -0.9090    0.8758    0.8286 O   0  0  0  0  0  0  0  0  0  0  0  0
    1.6683    0.6222   -1.9612 H   0  0  0  0  0  0  0  0  0  0  0  0
    0.3915   -0.3422   -1.2394 H   0  0  0  0  0  0  0  0  0  0  0  0
    2.0718   -0.7298   -0.9113 H   0  0  0  0  0  0  0  0  0  0  0  0
    2.3367    1.4910    0.3737 H   0  0  0  0  0  0  0  0  0  0  0  0
    0.4754    2.0062    1.7523 H   0  0  0  0  0  0  0  0  0  0  0  0
  1  2  1  0
  1  3  1  0
  4  8  1  0
  5  6  1  0
  5  9  1  0
  5 10  1  0
  5 11  1  0
  6  7  2  3
  6 12  1  0
  7  8  1  0
  7 13  1  0
M  RAD  1   2   2
M  END
>  <reaction>  (11) 
rxn_437

>  <mol_properties>  (11) 
{"0": {"label": "*4", "atom_type": "O2s"}, "1": {"label": "*3", "atom_type": "O2s"}, "3": {"label": "*2", "atom_type": "H0"}, "6": {"label": "*0", "atom_type": "Cd"}, "7": {"label": "*1", "atom_type": "O2s"}}

>  <type>  (11) 
unop_7

>  <geom_source>  (11) 
Heuristics

$$$$

     RDKit          3D

 13 11  0  0  0  0  0  0  0  0999 V2000
    0.9608   -1.2956   -1.5311 O   0  0  0  0  0  0  0  0  0  0  0  0
    0.9608   -1.2956   -0.1065 O   0  0  0  0  0  1  0  0  0  0  0  0
    1.8216   -1.6839   -1.7182 H   0  0  0  0  0  0  0  0  0  0  0  0
    0.9608   -0.1625    0.1180 H   0  0  0  0  0  0  0  0  0  0  0  0
   -1.8661   -0.0503   -0.2136 C   0  0  0  0  0  0  0  0  0  0  0  0
   -1.3904    0.8809    0.8583 C   0  0  0  0  0  0  0  0  0  0  0  0
   -0.1441    1.2935    1.0568 C   0  0  0  0  0  0  0  0  0  0  0  0
    0.9608    0.9675    0.3419 O   0  0  0  0  0  0  0  0  0  0  0  0
   -2.3306   -0.9405    0.2169 H   0  0  0  0  0  0  0  0  0  0  0  0
   -1.0670   -0.3971   -0.8736 H   0  0  0  0  0  0  0  0  0  0  0  0
   -2.6150    0.4302   -0.8476 H   0  0  0  0  0  0  0  0  0  0  0  0
   -2.1347    1.2610    1.5466 H   0  0  0  0  0  0  0  0  0  0  0  0
    0.1073    1.9712    1.8623 H   0  0  0  0  0  0  0  0  0  0  0  0
  1  2  1  0
  1  3  1  0
  4  8  1  0
  5  6  1  0
  5  9  1  0
  5 10  1  0
  5 11  1  0
  6  7  2  3
  6 12  1  0
  7  8  1  0
  7 13  1  0
M  RAD  1   2   2
M  END
>  <reaction>  (12) 
rxn_437

>  <mol_properties>  (12) 
{"0": {"label": "*4", "atom_type": "O2s"}, "1": {"label": "*3", "atom_type": "O2s"}, "3": {"label": "*2", "atom_type": "H0"}, "6": {"label": "*0", "atom_type": "Cd"}, "7": {"label": "*1", "atom_type": "O2s"}}

>  <type>  (12) 
unop_8

>  <geom_source>  (12) 
Heuristics

$$$$

     RDKit          3D

 13 11  0  0  0  0  0  0  0  0999 V2000
    0.8899   -1.3873   -1.0444 O   0  0  0  0  0  0  0  0  0  0  0  0
    0.8899   -1.3873    0.3803 O   0  0  0  0  0  1  0  0  0  0  0  0
    1.7507   -1.7756   -1.2314 H   0  0  0  0  0  0  0  0  0  0  0  0
    0.8899   -0.2542    0.6048 H   0  0  0  0  0  0  0  0  0  0  0  0
   -1.3921    0.0988   -1.0487 C   0  0  0  0  0  0  0  0  0  0  0  0
   -1.4112    1.0208    0.1311 C   0  0  0  0  0  0  0  0  0  0  0  0
   -0.3859    1.3258    0.9177 C   0  0  0  0  0  0  0  0  0  0  0  0
    0.8899    0.8758    0.8286 O   0  0  0  0  0  0  0  0  0  0  0  0
   -2.0908   -0.7298   -0.9113 H   0  0  0  0  0  0  0  0  0  0  0  0
   -0.4105   -0.3422   -1.2395 H   0  0  0  0  0  0  0  0  0  0  0  0
   -1.6874    0.6222   -1.9612 H   0  0  0  0  0  0  0  0  0  0  0  0
   -2.3558    1.4910    0.3737 H   0  0  0  0  0  0  0  0  0  0  0  0
   -0.4944    2.0062    1.7523 H   0  0  0  0  0  0  0  0  0  0  0  0
  1  2  1  0
  1  3  1  0
  4  8  1  0
  5  6  1  0
  5  9  1  0
  5 10  1  0
  5 11  1  0
  6  7  2  3
  6 12  1  0
  7  8  1  0
  7 13  1  0
M  RAD  1   2   2
M  END
>  <reaction>  (13) 
rxn_437

>  <mol_properties>  (13) 
{"0": {"label": "*4", "atom_type": "O2s"}, "1": {"label": "*3", "atom_type": "O2s"}, "3": {"label": "*2", "atom_type": "H0"}, "6": {"label": "*0", "atom_type": "Cd"}, "7": {"label": "*1", "atom_type": "O2s"}}

>  <type>  (13) 
unop_9

>  <geom_source>  (13) 
Heuristics

$$$$

     RDKit          3D

 13 11  0  0  0  0  0  0  0  0999 V2000
   -0.9799   -1.2956   -1.5311 O   0  0  0  0  0  0  0  0  0  0  0  0
   -0.9799   -1.2956   -0.1065 O   0  0  0  0  0  1  0  0  0  0  0  0
   -0.1192   -1.6839   -1.7182 H   0  0  0  0  0  0  0  0  0  0  0  0
   -0.9799   -0.1625    0.1180 H   0  0  0  0  0  0  0  0  0  0  0  0
    1.8470   -0.0503   -0.2136 C   0  0  0  0  0  0  0  0  0  0  0  0
    1.3714    0.8809    0.8583 C   0  0  0  0  0  0  0  0  0  0  0  0
    0.1250    1.2935    1.0568 C   0  0  0  0  0  0  0  0  0  0  0  0
   -0.9799    0.9675    0.3419 O   0  0  0  0  0  0  0  0  0  0  0  0
    2.5959    0.4302   -0.8476 H   0  0  0  0  0  0  0  0  0  0  0  0
    1.0479   -0.3971   -0.8736 H   0  0  0  0  0  0  0  0  0  0  0  0
    2.3116   -0.9405    0.2169 H   0  0  0  0  0  0  0  0  0  0  0  0
    2.1156    1.2610    1.5466 H   0  0  0  0  0  0  0  0  0  0  0  0
   -0.1264    1.9712    1.8623 H   0  0  0  0  0  0  0  0  0  0  0  0
  1  2  1  0
  1  3  1  0
  4  8  1  0
  5  6  1  0
  5  9  1  0
  5 10  1  0
  5 11  1  0
  6  7  2  3
  6 12  1  0
  7  8  1  0
  7 13  1  0
M  RAD  1   2   2
M  END
>  <reaction>  (14) 
rxn_437

>  <mol_properties>  (14) 
{"0": {"label": "*4", "atom_type": "O2s"}, "1": {"label": "*3", "atom_type": "O2s"}, "3": {"label": "*2", "atom_type": "H0"}, "6": {"label": "*0", "atom_type": "Cd"}, "7": {"label": "*1", "atom_type": "O2s"}}

>  <type>  (14) 
unop_10

>  <geom_source>  (14) 
Heuristics

$$$$

     RDKit          3D

 13 10  0  0  0  0  0  0  0  0999 V2000
    0.2938   -1.3837   -0.5054 O   0  0  0  0  0  0  0  0  0  0  0  0
    0.2938   -1.3837    0.9192 O   0  0  0  0  0 15  0  0  0  0  0  0
    1.1546   -1.7720   -0.6925 H   0  0  0  0  0  0  0  0  0  0  0  0
    0.2938   -0.2506    1.1437 H   0  0  0  0  0  0  0  0  0  0  0  0
   -0.1967   -0.2020   -1.4478 C   0  0  0  0  0  3  0  0  0  0  0  0
   -0.5826    1.1215   -0.8632 C   0  0  0  0  0  0  0  0  0  0  0  0
   -0.3441    1.5440    0.3728 C   0  0  0  0  0  0  0  0  0  0  0  0
    0.2938    0.8793    1.3675 O   0  0  0  0  0  0  0  0  0  0  0  0
   -1.0769   -0.7540   -1.7858 H   0  0  0  0  0  0  0  0  0  0  0  0
    0.3331   -0.8495   -0.7446 H   0  0  0  0  0  0  0  0  0  0  0  0
    0.4562   -0.0734   -2.3143 H   0  0  0  0  0  0  0  0  0  0  0  0
   -1.1113    1.8104   -1.5098 H   0  0  0  0  0  0  0  0  0  0  0  0
   -0.6625    2.5223    0.7089 H   0  0  0  0  0  0  0  0  0  0  0  0
  1  3  1  0
  1 10  1  0
  4  8  1  0
  5  6  1  0
  5  9  1  0
  5 11  1  0
  6  7  2  3
  6 12  1  0
  7  8  1  0
  7 13  1  0
M  RAD  1   5   2
M  END
>  <reaction>  (15) 
rxn_437

>  <mol_properties>  (15) 
{"0": {"label": "*4", "atom_type": "O2s"}, "1": {"label": "*3", "atom_type": "O2s"}, "3": {"label": "*2", "atom_type": "H0"}, "6": {"label": "*0", "atom_type": "Cd"}, "7": {"label": "*1", "atom_type": "O2s"}}

>  <type>  (15) 
unop_11

>  <geom_source>  (15) 
Heuristics

$$$$

     RDKit          3D

 13 11  0  0  0  0  0  0  0  0999 V2000
    1.2513   -0.3694    0.0109 O   0  0  0  0  0  0  0  0  0  0  0  0
    3.6972    1.9903   -0.0980 O   0  0  0  0  0  0  0  0  0  0  0  0
    2.7553    1.1075   -0.3538 O   0  0  0  0  0  1  0  0  0  0  0  0
   -2.4685   -0.7617    0.0733 C   0  0  0  0  0  0  0  0  0  0  0  0
   -1.0160   -0.8749    0.4065 C   0  0  0  0  0  0  0  0  0  0  0  0
   -0.0933   -0.2487   -0.3191 C   0  0  0  0  0  0  0  0  0  0  0  0
   -2.6544   -1.1502   -0.9504 H   0  0  0  0  0  0  0  0  0  0  0  0
   -3.0660   -1.3557    0.7962 H   0  0  0  0  0  0  0  0  0  0  0  0
   -2.7892    0.3001    0.1297 H   0  0  0  0  0  0  0  0  0  0  0  0
   -0.7140   -1.4781    1.2542 H   0  0  0  0  0  0  0  0  0  0  0  0
   -0.3805    0.3582   -1.1698 H   0  0  0  0  0  0  0  0  0  0  0  0
    2.0081    0.1401   -0.5788 H   0  0  0  0  0  0  0  0  0  0  0  0
    3.4700    2.3426    0.7991 H   0  0  0  0  0  0  0  0  0  0  0  0
  1  6  1  0
  1 12  1  0
  2  3  1  0
  2 13  1  0
  4  5  1  0
  4  7  1  0
  4  8  1  0
  4  9  1  0
  5  6  2  3
  5 10  1  0
  6 11  1  0
M  RAD  1   3   2
M  END
>  <reaction>  (16) 
rxn_437

>  <mol_properties>  (16) 
{"0": {"label": "*4", "atom_type": "O2s"}, "1": {"label": "*3", "atom_type": "O2s"}, "3": {"label": "*2", "atom_type": "H0"}, "6": {"label": "*0", "atom_type": "Cd"}, "7": {"label": "*1", "atom_type": "O2s"}}

>  <type>  (16) 
unop_12

>  <geom_source>  (16) 
AutoTST

$$$$
