
     RDKit          3D

  6  5  0  0  0  0  0  0  0  0999 V2000
   -0.6628   -0.1053   -0.2416 N   0  0  0  0  0  0  0  0  0  0  0  0
    0.6229    0.0313    0.3460 N   0  0  0  0  0  0  0  0  0  0  0  0
   -1.1552    0.7686   -0.1293 H   0  0  0  0  0  0  0  0  0  0  0  0
   -1.2103   -0.8412    0.1876 H   0  0  0  0  0  0  0  0  0  0  0  0
    1.2634   -0.5674   -0.1542 H   0  0  0  0  0  0  0  0  0  0  0  0
    0.6334   -0.2313    1.3241 H   0  0  0  0  0  0  0  0  0  0  0  0
  1  2  1  0
  1  3  1  0
  1  4  1  0
  2  5  1  0
  2  6  1  0
M  END
>  <reaction>  (1) 
rxn_124

>  <mol_properties>  (1) 
{"1": {"label": "donator", "atom_type": "N3s"}, "4": {"label": "d_hydrogen", "atom_type": "H0"}}

>  <type>  (1) 
r1h

$$$$

     RDKit          3D

  4  3  0  0  0  0  0  0  0  0999 V2000
    0.0000    0.0000    0.0000 C   0  0  0  0  0  3  0  0  0  0  0  0
    1.0638   -0.1747    0.0540 H   0  0  0  0  0  0  0  0  0  0  0  0
   -0.6833   -0.8351   -0.0280 H   0  0  0  0  0  0  0  0  0  0  0  0
   -0.3805    1.0098   -0.0260 H   0  0  0  0  0  0  0  0  0  0  0  0
  1  2  1  0
  1  3  1  0
  1  4  1  0
M  RAD  1   1   2
M  END
>  <reaction>  (2) 
rxn_124

>  <mol_properties>  (2) 
{"0": {"label": "acceptor", "atom_type": "Cs"}}

>  <type>  (2) 
r2

$$$$

     RDKit          3D

  5  4  0  0  0  0  0  0  0  0999 V2000
    0.0000    0.0000    0.0000 C   0  0  0  0  0  0  0  0  0  0  0  0
   -0.6486   -0.7720   -0.4113 H   0  0  0  0  0  0  0  0  0  0  0  0
   -0.3482    0.9787   -0.3267 H   0  0  0  0  0  0  0  0  0  0  0  0
   -0.0223   -0.0487    1.0876 H   0  0  0  0  0  0  0  0  0  0  0  0
    1.0191   -0.1580   -0.3496 H   0  0  0  0  0  0  0  0  0  0  0  0
  1  2  1  0
  1  3  1  0
  1  4  1  0
  1  5  1  0
M  END
>  <reaction>  (3) 
rxn_124

>  <mol_properties>  (3) 
{"0": {"label": "a_hydrogen", "atom_type": "H0"}, "1": {"label": "acceptor", "atom_type": "Cs"}}

>  <type>  (3) 
r2h

$$$$

     RDKit          3D

 10  8  0  0  0  0  0  0  0  0999 V2000
   -0.4138   -1.1705   -0.5527 N   0  0  0  0  0  0  0  0  0  0  0  0
    0.8031   -0.5731   -0.1991 N   0  0  0  0  0  0  0  0  0  0  0  0
   -0.3914   -2.1490   -0.3083 H   0  0  0  0  0  0  0  0  0  0  0  0
   -0.6641   -1.0568   -1.5235 H   0  0  0  0  0  0  0  0  0  0  0  0
    0.5545    0.3506    0.4711 H   0  0  0  0  0  0  0  0  0  0  0  0
    1.2110   -0.1308   -1.0193 H   0  0  0  0  0  0  0  0  0  0  0  0
    0.0828    1.5687    1.1020 C   0  0  0  0  0  3  0  0  0  0  0  0
    0.5704    1.5396    2.0712 H   0  0  0  0  0  0  0  0  0  0  0  0
   -0.9846    1.3734    1.1182 H   0  0  0  0  0  0  0  0  0  0  0  0
    0.3856    2.3963    0.4684 H   0  0  0  0  0  0  0  0  0  0  0  0
  1  2  1  0
  1  3  1  0
  1  4  1  0
  2  5  1  0
  2  6  1  0
  7  8  1  0
  7  9  1  0
  7 10  1  0
M  RAD  1   7   2
M  END
>  <reaction>  (4) 
rxn_124

>  <mol_properties>  (4) 
{"0": {"label": "*0", "atom_type": "N3s"}, "1": {"label": "*1", "atom_type": "N3s"}, "4": {"label": "*2", "atom_type": "H0"}, "6": {"label": "*3", "atom_type": "Cs"}, "7": {"label": "*4", "atom_type": "H0"}}

>  <type>  (4) 
ts

$$$$

     RDKit          3D

 10  8  0  0  0  0  0  0  0  0999 V2000
   -0.0301   -0.7748   -1.2103 N   0  0  0  0  0  0  0  0  0  0  0  0
   -0.0301   -0.7748    0.2099 N   0  0  0  0  0  0  0  0  0  0  0  0
   -0.5111   -1.6042   -1.5257 H   0  0  0  0  0  0  0  0  0  0  0  0
    0.9051   -0.7771   -1.5992 H   0  0  0  0  0  0  0  0  0  0  0  0
   -0.0301    0.3758    0.5883 H   0  0  0  0  0  0  0  0  0  0  0  0
    0.7800   -1.2420    0.5987 H   0  0  0  0  0  0  0  0  0  0  0  0
   -0.0301    1.6171    0.9965 C   0  0  0  0  0  3  0  0  0  0  0  0
   -0.9192    1.8015    1.5976 H   0  0  0  0  0  0  0  0  0  0  0  0
    0.3601    2.5636    0.6257 H   0  0  0  0  0  0  0  0  0  0  0  0
    0.6091    1.1588    1.7497 H   0  0  0  0  0  0  0  0  0  0  0  0
  1  2  1  0
  1  3  1  0
  1  4  1  0
  2  5  1  0
  2  6  1  0
  7  8  1  0
  7  9  1  0
  7 10  1  0
M  RAD  1   7   2
M  END
>  <reaction>  (5) 
rxn_124

>  <mol_properties>  (5) 
{"0": {"label": "*0", "atom_type": "N3s"}, "1": {"label": "*1", "atom_type": "N3s"}, "4": {"label": "*2", "atom_type": "H0"}, "6": {"label": "*3", "atom_type": "Cs"}, "7": {"label": "*4", "atom_type": "H0"}}

>  <type>  (5) 
unop_1

>  <geom_source>  (5) 
Heuristics

$$$$

     RDKit          3D

 10  8  0  0  0  0  0  0  0  0999 V2000
   -0.0292   -0.7717   -1.1995 N   0  0  0  0  0  0  0  0  0  0  0  0
   -0.0292   -0.7717    0.2206 N   0  0  0  0  0  0  0  0  0  0  0  0
   -0.5103   -1.6011   -1.5149 H   0  0  0  0  0  0  0  0  0  0  0  0
    0.9060   -0.7740   -1.5884 H   0  0  0  0  0  0  0  0  0  0  0  0
   -0.0292    0.3789    0.5991 H   0  0  0  0  0  0  0  0  0  0  0  0
    0.7809   -1.2389    0.6095 H   0  0  0  0  0  0  0  0  0  0  0  0
   -0.0292    1.6202    1.0073 C   0  0  0  0  0  3  0  0  0  0  0  0
   -0.5425    2.2428    0.2761 H   0  0  0  0  0  0  0  0  0  0  0  0
    0.8621    2.1360    1.3614 H   0  0  0  0  0  0  0  0  0  0  0  0
   -0.3083    1.0096    1.8646 H   0  0  0  0  0  0  0  0  0  0  0  0
  1  2  1  0
  1  3  1  0
  1  4  1  0
  2  5  1  0
  2  6  1  0
  7  8  1  0
  7  9  1  0
  7 10  1  0
M  RAD  1   7   2
M  END
>  <reaction>  (6) 
rxn_124

>  <mol_properties>  (6) 
{"0": {"label": "*0", "atom_type": "N3s"}, "1": {"label": "*1", "atom_type": "N3s"}, "4": {"label": "*2", "atom_type": "H0"}, "6": {"label": "*3", "atom_type": "Cs"}, "7": {"label": "*4", "atom_type": "H0"}}

>  <type>  (6) 
unop_2

>  <geom_source>  (6) 
Heuristics

$$$$

     RDKit          3D

 10  8  0  0  0  0  0  0  0  0999 V2000
   -0.0332   -0.7792   -1.2088 N   0  0  0  0  0  0  0  0  0  0  0  0
   -0.0332   -0.7792    0.2114 N   0  0  0  0  0  0  0  0  0  0  0  0
   -0.5142   -1.6086   -1.5241 H   0  0  0  0  0  0  0  0  0  0  0  0
    0.9020   -0.7815   -1.5977 H   0  0  0  0  0  0  0  0  0  0  0  0
   -0.0332    0.3714    0.5898 H   0  0  0  0  0  0  0  0  0  0  0  0
    0.7769   -1.2464    0.6003 H   0  0  0  0  0  0  0  0  0  0  0  0
   -0.0332    1.6127    0.9981 C   0  0  0  0  0  3  0  0  0  0  0  0
   -0.5465    1.6797    1.9561 H   0  0  0  0  0  0  0  0  0  0  0  0
   -0.1892    2.5331    0.4375 H   0  0  0  0  0  0  0  0  0  0  0  0
    0.9204    1.5035    1.5124 H   0  0  0  0  0  0  0  0  0  0  0  0
  1  2  1  0
  1  3  1  0
  1  4  1  0
  2  5  1  0
  2  6  1  0
  7  8  1  0
  7  9  1  0
  7 10  1  0
M  RAD  1   7   2
M  END
>  <reaction>  (7) 
rxn_124

>  <mol_properties>  (7) 
{"0": {"label": "*0", "atom_type": "N3s"}, "1": {"label": "*1", "atom_type": "N3s"}, "4": {"label": "*2", "atom_type": "H0"}, "6": {"label": "*3", "atom_type": "Cs"}, "7": {"label": "*4", "atom_type": "H0"}}

>  <type>  (7) 
unop_3

>  <geom_source>  (7) 
Heuristics

$$$$

     RDKit          3D

 10  8  0  0  0  0  0  0  0  0999 V2000
   -0.0299   -0.7706   -1.2046 N   0  0  0  0  0  0  0  0  0  0  0  0
   -0.0299   -0.7706    0.2156 N   0  0  0  0  0  0  0  0  0  0  0  0
   -0.5109   -1.6000   -1.5200 H   0  0  0  0  0  0  0  0  0  0  0  0
    0.9053   -0.7728   -1.5935 H   0  0  0  0  0  0  0  0  0  0  0  0
   -0.0299    0.3800    0.5940 H   0  0  0  0  0  0  0  0  0  0  0  0
    0.7802   -1.2378    0.6044 H   0  0  0  0  0  0  0  0  0  0  0  0
   -0.0299    1.6213    1.0022 C   0  0  0  0  0  3  0  0  0  0  0  0
    0.8593    2.1265    0.6280 H   0  0  0  0  0  0  0  0  0  0  0  0
    0.1960    1.1486    1.9569 H   0  0  0  0  0  0  0  0  0  0  0  0
   -1.0150    2.0646    1.1388 H   0  0  0  0  0  0  0  0  0  0  0  0
  1  2  1  0
  1  3  1  0
  1  4  1  0
  2  5  1  0
  2  6  1  0
  7  8  1  0
  7  9  1  0
  7 10  1  0
M  RAD  1   7   2
M  END
>  <reaction>  (8) 
rxn_124

>  <mol_properties>  (8) 
{"0": {"label": "*0", "atom_type": "N3s"}, "1": {"label": "*1", "atom_type": "N3s"}, "4": {"label": "*2", "atom_type": "H0"}, "6": {"label": "*3", "atom_type": "Cs"}, "7": {"label": "*4", "atom_type": "H0"}}

>  <type>  (8) 
unop_4

>  <geom_source>  (8) 
Heuristics

$$$$

     RDKit          3D

 10  8  0  0  0  0  0  0  0  0999 V2000
   -0.0280   -0.7837   -1.2058 N   0  0  0  0  0  0  0  0  0  0  0  0
   -0.0280   -0.7837    0.2144 N   0  0  0  0  0  0  0  0  0  0  0  0
   -0.5091   -1.6131   -1.5211 H   0  0  0  0  0  0  0  0  0  0  0  0
    0.9071   -0.7860   -1.5947 H   0  0  0  0  0  0  0  0  0  0  0  0
   -0.0280    0.3669    0.5928 H   0  0  0  0  0  0  0  0  0  0  0  0
    0.7821   -1.2509    0.6033 H   0  0  0  0  0  0  0  0  0  0  0  0
   -0.0280    1.6082    1.0011 C   0  0  0  0  0  3  0  0  0  0  0  0
   -0.0280    1.6322    2.0897 H   0  0  0  0  0  0  0  0  0  0  0  0
   -0.9171    2.1133    0.6269 H   0  0  0  0  0  0  0  0  0  0  0  0
    0.9043    2.1679    1.0580 H   0  0  0  0  0  0  0  0  0  0  0  0
  1  2  1  0
  1  3  1  0
  1  4  1  0
  2  5  1  0
  2  6  1  0
  7  8  1  0
  7  9  1  0
  7 10  1  0
M  RAD  1   7   2
M  END
>  <reaction>  (9) 
rxn_124

>  <mol_properties>  (9) 
{"0": {"label": "*0", "atom_type": "N3s"}, "1": {"label": "*1", "atom_type": "N3s"}, "4": {"label": "*2", "atom_type": "H0"}, "6": {"label": "*3", "atom_type": "Cs"}, "7": {"label": "*4", "atom_type": "H0"}}

>  <type>  (9) 
unop_5

>  <geom_source>  (9) 
Heuristics

$$$$

     RDKit          3D

 10  8  0  0  0  0  0  0  0  0999 V2000
   -0.0278   -0.7730   -1.2079 N   0  0  0  0  0  0  0  0  0  0  0  0
   -0.0278   -0.7730    0.2123 N   0  0  0  0  0  0  0  0  0  0  0  0
   -0.5088   -1.6024   -1.5232 H   0  0  0  0  0  0  0  0  0  0  0  0
    0.9074   -0.7752   -1.5968 H   0  0  0  0  0  0  0  0  0  0  0  0
   -0.0278    0.3776    0.5907 H   0  0  0  0  0  0  0  0  0  0  0  0
    0.7823   -1.2402    0.6012 H   0  0  0  0  0  0  0  0  0  0  0  0
   -0.0278    1.6189    0.9990 C   0  0  0  0  0  3  0  0  0  0  0  0
    0.9989    1.9637    1.1124 H   0  0  0  0  0  0  0  0  0  0  0  0
   -0.3161    1.0423    1.8766 H   0  0  0  0  0  0  0  0  0  0  0  0
   -0.7341    2.4388    0.8780 H   0  0  0  0  0  0  0  0  0  0  0  0
  1  2  1  0
  1  3  1  0
  1  4  1  0
  2  5  1  0
  2  6  1  0
  7  8  1  0
  7  9  1  0
  7 10  1  0
M  RAD  1   7   2
M  END
>  <reaction>  (10) 
rxn_124

>  <mol_properties>  (10) 
{"0": {"label": "*0", "atom_type": "N3s"}, "1": {"label": "*1", "atom_type": "N3s"}, "4": {"label": "*2", "atom_type": "H0"}, "6": {"label": "*3", "atom_type": "Cs"}, "7": {"label": "*4", "atom_type": "H0"}}

>  <type>  (10) 
unop_6

>  <geom_source>  (10) 
Heuristics

$$$$

     RDKit          3D

 10  8  0  0  0  0  0  0  0  0999 V2000
   -0.0243   -0.7758   -1.2096 N   0  0  0  0  0  0  0  0  0  0  0  0
   -0.0243   -0.7758    0.2105 N   0  0  0  0  0  0  0  0  0  0  0  0
   -0.5054   -1.6052   -1.5250 H   0  0  0  0  0  0  0  0  0  0  0  0
    0.9108   -0.7781   -1.5985 H   0  0  0  0  0  0  0  0  0  0  0  0
   -0.0243    0.3748    0.5890 H   0  0  0  0  0  0  0  0  0  0  0  0
    0.7857   -1.2430    0.5994 H   0  0  0  0  0  0  0  0  0  0  0  0
   -0.0243    1.6161    0.9972 C   0  0  0  0  0  3  0  0  0  0  0  0
    0.8648    1.8005    1.5983 H   0  0  0  0  0  0  0  0  0  0  0  0
   -0.7806    1.1263    1.6087 H   0  0  0  0  0  0  0  0  0  0  0  0
   -0.2855    2.6405    0.7363 H   0  0  0  0  0  0  0  0  0  0  0  0
  1  2  1  0
  1  3  1  0
  1  4  1  0
  2  5  1  0
  2  6  1  0
  7  8  1  0
  7  9  1  0
  7 10  1  0
M  RAD  1   7   2
M  END
>  <reaction>  (11) 
rxn_124

>  <mol_properties>  (11) 
{"0": {"label": "*0", "atom_type": "N3s"}, "1": {"label": "*1", "atom_type": "N3s"}, "4": {"label": "*2", "atom_type": "H0"}, "6": {"label": "*3", "atom_type": "Cs"}, "7": {"label": "*4", "atom_type": "H0"}}

>  <type>  (11) 
unop_7

>  <geom_source>  (11) 
Heuristics

$$$$

     RDKit          3D

 10  8  0  0  0  0  0  0  0  0999 V2000
   -0.0265   -0.7734   -1.2076 N   0  0  0  0  0  0  0  0  0  0  0  0
   -0.0265   -0.7734    0.2126 N   0  0  0  0  0  0  0  0  0  0  0  0
   -0.5076   -1.6028   -1.5230 H   0  0  0  0  0  0  0  0  0  0  0  0
    0.9086   -0.7757   -1.5965 H   0  0  0  0  0  0  0  0  0  0  0  0
   -0.0265    0.3772    0.5910 H   0  0  0  0  0  0  0  0  0  0  0  0
    0.7836   -1.2406    0.6015 H   0  0  0  0  0  0  0  0  0  0  0  0
   -0.0265    1.6185    0.9993 C   0  0  0  0  0  3  0  0  0  0  0  0
   -1.0531    1.9633    1.1127 H   0  0  0  0  0  0  0  0  0  0  0  0
    0.6354    2.4769    0.8955 H   0  0  0  0  0  0  0  0  0  0  0  0
    0.3114    1.0231    1.8461 H   0  0  0  0  0  0  0  0  0  0  0  0
  1  2  1  0
  1  3  1  0
  1  4  1  0
  2  5  1  0
  2  6  1  0
  7  8  1  0
  7  9  1  0
  7 10  1  0
M  RAD  1   7   2
M  END
>  <reaction>  (12) 
rxn_124

>  <mol_properties>  (12) 
{"0": {"label": "*0", "atom_type": "N3s"}, "1": {"label": "*1", "atom_type": "N3s"}, "4": {"label": "*2", "atom_type": "H0"}, "6": {"label": "*3", "atom_type": "Cs"}, "7": {"label": "*4", "atom_type": "H0"}}

>  <type>  (12) 
unop_8

>  <geom_source>  (12) 
Heuristics

$$$$

     RDKit          3D

 10  8  0  0  0  0  0  0  0  0999 V2000
   -0.0312   -0.7688   -1.2015 N   0  0  0  0  0  0  0  0  0  0  0  0
   -0.0312   -0.7688    0.2187 N   0  0  0  0  0  0  0  0  0  0  0  0
   -0.5122   -1.5982   -1.5168 H   0  0  0  0  0  0  0  0  0  0  0  0
    0.9040   -0.7711   -1.5904 H   0  0  0  0  0  0  0  0  0  0  0  0
   -0.0312    0.3817    0.5971 H   0  0  0  0  0  0  0  0  0  0  0  0
    0.7789   -1.2361    0.6076 H   0  0  0  0  0  0  0  0  0  0  0  0
   -0.0312    1.6230    1.0054 C   0  0  0  0  0  3  0  0  0  0  0  0
    0.4821    2.2456    0.2742 H   0  0  0  0  0  0  0  0  0  0  0  0
    0.6330    1.4276    1.8458 H   0  0  0  0  0  0  0  0  0  0  0  0
   -1.0168    1.5907    1.4672 H   0  0  0  0  0  0  0  0  0  0  0  0
  1  2  1  0
  1  3  1  0
  1  4  1  0
  2  5  1  0
  2  6  1  0
  7  8  1  0
  7  9  1  0
  7 10  1  0
M  RAD  1   7   2
M  END
>  <reaction>  (13) 
rxn_124

>  <mol_properties>  (13) 
{"0": {"label": "*0", "atom_type": "N3s"}, "1": {"label": "*1", "atom_type": "N3s"}, "4": {"label": "*2", "atom_type": "H0"}, "6": {"label": "*3", "atom_type": "Cs"}, "7": {"label": "*4", "atom_type": "H0"}}

>  <type>  (13) 
unop_9

>  <geom_source>  (13) 
Heuristics

$$$$

     RDKit          3D

 10  8  0  0  0  0  0  0  0  0999 V2000
   -0.0264   -0.7730   -1.2029 N   0  0  0  0  0  0  0  0  0  0  0  0
   -0.0264   -0.7730    0.2172 N   0  0  0  0  0  0  0  0  0  0  0  0
   -0.5075   -1.6024   -1.5183 H   0  0  0  0  0  0  0  0  0  0  0  0
    0.9088   -0.7753   -1.5918 H   0  0  0  0  0  0  0  0  0  0  0  0
   -0.0264    0.3775    0.5957 H   0  0  0  0  0  0  0  0  0  0  0  0
    0.7837   -1.2403    0.6061 H   0  0  0  0  0  0  0  0  0  0  0  0
   -0.0264    1.6188    1.0039 C   0  0  0  0  0  3  0  0  0  0  0  0
   -0.9155    2.1240    0.6297 H   0  0  0  0  0  0  0  0  0  0  0  0
    0.7739    2.3448    1.1387 H   0  0  0  0  0  0  0  0  0  0  0  0
    0.0304    0.9776    1.8822 H   0  0  0  0  0  0  0  0  0  0  0  0
  1  2  1  0
  1  3  1  0
  1  4  1  0
  2  5  1  0
  2  6  1  0
  7  8  1  0
  7  9  1  0
  7 10  1  0
M  RAD  1   7   2
M  END
>  <reaction>  (14) 
rxn_124

>  <mol_properties>  (14) 
{"0": {"label": "*0", "atom_type": "N3s"}, "1": {"label": "*1", "atom_type": "N3s"}, "4": {"label": "*2", "atom_type": "H0"}, "6": {"label": "*3", "atom_type": "Cs"}, "7": {"label": "*4", "atom_type": "H0"}}

>  <type>  (14) 
unop_10

>  <geom_source>  (14) 
Heuristics

$$$$

     RDKit          3D

 10  8  0  0  0  0  0  0  0  0999 V2000
   -0.0222   -0.7803   -1.2080 N   0  0  0  0  0  0  0  0  0  0  0  0
   -0.0222   -0.7803    0.2121 N   0  0  0  0  0  0  0  0  0  0  0  0
   -0.5033   -1.6097   -1.5234 H   0  0  0  0  0  0  0  0  0  0  0  0
    0.9129   -0.7826   -1.5969 H   0  0  0  0  0  0  0  0  0  0  0  0
   -0.0222    0.3703    0.5906 H   0  0  0  0  0  0  0  0  0  0  0  0
    0.7878   -1.2475    0.6010 H   0  0  0  0  0  0  0  0  0  0  0  0
   -0.0222    1.6116    0.9988 C   0  0  0  0  0  3  0  0  0  0  0  0
    0.4911    1.6786    1.9568 H   0  0  0  0  0  0  0  0  0  0  0  0
   -1.0881    1.4656    1.1675 H   0  0  0  0  0  0  0  0  0  0  0  0
    0.3045    2.6198    0.7490 H   0  0  0  0  0  0  0  0  0  0  0  0
  1  2  1  0
  1  3  1  0
  1  4  1  0
  2  5  1  0
  2  6  1  0
  7  8  1  0
  7  9  1  0
  7 10  1  0
M  RAD  1   7   2
M  END
>  <reaction>  (15) 
rxn_124

>  <mol_properties>  (15) 
{"0": {"label": "*0", "atom_type": "N3s"}, "1": {"label": "*1", "atom_type": "N3s"}, "4": {"label": "*2", "atom_type": "H0"}, "6": {"label": "*3", "atom_type": "Cs"}, "7": {"label": "*4", "atom_type": "H0"}}

>  <type>  (15) 
unop_11

>  <geom_source>  (15) 
Heuristics

$$$$

     RDKit          3D

 10  8  0  0  0  0  0  0  0  0999 V2000
   -0.0314   -0.7695   -1.1993 N   0  0  0  0  0  0  0  0  0  0  0  0
   -0.0314   -0.7695    0.2209 N   0  0  0  0  0  0  0  0  0  0  0  0
   -0.5125   -1.5989   -1.5147 H   0  0  0  0  0  0  0  0  0  0  0  0
    0.9037   -0.7717   -1.5882 H   0  0  0  0  0  0  0  0  0  0  0  0
   -0.0314    0.3811    0.5993 H   0  0  0  0  0  0  0  0  0  0  0  0
    0.7786   -1.2367    0.6097 H   0  0  0  0  0  0  0  0  0  0  0  0
   -0.0314    1.6224    1.0075 C   0  0  0  0  0  3  0  0  0  0  0  0
   -0.0314    2.2880    0.1457 H   0  0  0  0  0  0  0  0  0  0  0  0
    0.8577    1.8068    1.6086 H   0  0  0  0  0  0  0  0  0  0  0  0
   -0.7168    1.1964    1.7386 H   0  0  0  0  0  0  0  0  0  0  0  0
  1  2  1  0
  1  3  1  0
  1  4  1  0
  2  5  1  0
  2  6  1  0
  7  8  1  0
  7  9  1  0
  7 10  1  0
M  RAD  1   7   2
M  END
>  <reaction>  (16) 
rxn_124

>  <mol_properties>  (16) 
{"0": {"label": "*0", "atom_type": "N3s"}, "1": {"label": "*1", "atom_type": "N3s"}, "4": {"label": "*2", "atom_type": "H0"}, "6": {"label": "*3", "atom_type": "Cs"}, "7": {"label": "*4", "atom_type": "H0"}}

>  <type>  (16) 
unop_12

>  <geom_source>  (16) 
Heuristics

$$$$
