
     RDKit          3D

 11 10  0  0  0  0  0  0  0  0999 V2000
   -1.2710    0.1907   -0.2084 C   0  0  0  0  0  0  0  0  0  0  0  0
    0.0202   -0.6130   -0.2928 C   0  0  0  0  0  0  0  0  0  0  0  0
    0.1086   -1.6953    0.7756 C   0  0  0  0  0  0  0  0  0  0  0  0
   -1.3607    0.6851    0.7620 H   0  0  0  0  0  0  0  0  0  0  0  0
   -2.1429   -0.4567   -0.3299 H   0  0  0  0  0  0  0  0  0  0  0  0
   -1.3158    0.9602   -0.9809 H   0  0  0  0  0  0  0  0  0  0  0  0
    0.8757    0.0616   -0.1992 H   0  0  0  0  0  0  0  0  0  0  0  0
    0.0997   -1.0712   -1.2825 H   0  0  0  0  0  0  0  0  0  0  0  0
   -0.7198   -2.4022    0.6850 H   0  0  0  0  0  0  0  0  0  0  0  0
    1.0395   -2.2596    0.6989 H   0  0  0  0  0  0  0  0  0  0  0  0
    0.0624   -1.2603    1.7770 H   0  0  0  0  0  0  0  0  0  0  0  0
  1  2  1  0
  1  4  1  0
  1  5  1  0
  1  6  1  0
  2  3  1  0
  2  7  1  0
  2  8  1  0
  3  9  1  0
  3 10  1  0
  3 11  1  0
M  END
>  <reaction>  (1) 
rxn_922

>  <mol_properties>  (1) 
{"1": {"label": "donator", "atom_type": "Cs"}, "6": {"label": "d_hydrogen", "atom_type": "H0"}}

>  <type>  (1) 
r1h

$$$$

     RDKit          3D

 11 10  0  0  0  0  0  0  0  0999 V2000
   -0.9580    1.1013   -2.2955 C   0  0  0  0  0  0  0  0  0  0  0  0
   -0.5129    0.5941   -1.2929 C   0  0  0  0  0  0  0  0  0  0  0  0
   -0.0301   -0.0160   -0.1357 C   0  0  0  0  0  3  0  0  0  0  0  0
   -0.6593   -1.2845    0.3661 C   0  0  0  0  0  0  0  0  0  0  0  0
    1.0691    0.5292    0.5269 C   0  0  0  0  0  0  0  0  0  0  0  0
    2.0168    0.9794    1.1266 C   0  0  0  0  0  0  0  0  0  0  0  0
   -1.3415    1.5561   -3.1769 H   0  0  0  0  0  0  0  0  0  0  0  0
   -1.7166   -1.3186    0.1054 H   0  0  0  0  0  0  0  0  0  0  0  0
   -0.1742   -2.1550   -0.0865 H   0  0  0  0  0  0  0  0  0  0  0  0
   -0.5505   -1.3663    1.4470 H   0  0  0  0  0  0  0  0  0  0  0  0
    2.8514    1.3842    1.6465 H   0  0  0  0  0  0  0  0  0  0  0  0
  1  2  3  0
  1  7  1  0
  2  3  1  0
  3  4  1  0
  3  5  1  0
  4  8  1  0
  4  9  1  0
  4 10  1  0
  5  6  3  0
  6 11  1  0
M  RAD  1   3   2
M  END
>  <reaction>  (2) 
rxn_922

>  <mol_properties>  (2) 
{"2": {"label": "acceptor", "atom_type": "Cs"}}

>  <type>  (2) 
r2

$$$$

     RDKit          3D

 12 11  0  0  0  0  0  0  0  0999 V2000
    2.1696    0.6854    1.1310 C   0  0  0  0  0  0  0  0  0  0  0  0
    1.2518    0.4145    0.4134 C   0  0  0  0  0  0  0  0  0  0  0  0
    0.1391    0.0443   -0.4683 C   0  0  0  0  0  0  0  0  0  0  0  0
   -0.2054   -1.4492   -0.3339 C   0  0  0  0  0  0  0  0  0  0  0  0
   -1.0375    0.8853   -0.2222 C   0  0  0  0  0  0  0  0  0  0  0  0
   -2.0160    1.5463   -0.0311 C   0  0  0  0  0  0  0  0  0  0  0  0
    2.9819    0.9356    1.7702 H   0  0  0  0  0  0  0  0  0  0  0  0
    0.4629    0.2285   -1.4981 H   0  0  0  0  0  0  0  0  0  0  0  0
   -0.5327   -1.6703    0.6812 H   0  0  0  0  0  0  0  0  0  0  0  0
    0.6727   -2.0535   -0.5593 H   0  0  0  0  0  0  0  0  0  0  0  0
   -1.0064   -1.7081   -1.0256 H   0  0  0  0  0  0  0  0  0  0  0  0
   -2.8802    2.1413    0.1426 H   0  0  0  0  0  0  0  0  0  0  0  0
  1  2  3  0
  1  7  1  0
  2  3  1  0
  3  4  1  0
  3  5  1  0
  3  8  1  0
  4  9  1  0
  4 10  1  0
  4 11  1  0
  5  6  3  0
  6 12  1  0
M  END
>  <reaction>  (3) 
rxn_922

>  <mol_properties>  (3) 
{"2": {"label": "acceptor", "atom_type": "Cs"}, "11": {"label": "a_hydrogen", "atom_type": "H0"}}

>  <type>  (3) 
r2h

$$$$

     RDKit          3D

 22 20  0  0  0  0  0  0  0  0999 V2000
    2.2243    0.1825   -1.3504 C   0  0  0  0  0  0  0  0  0  0  0  0
    1.4607   -0.1559   -0.4890 C   0  0  0  0  0  0  0  0  0  0  0  0
    0.4852   -0.5630    0.4938 C   0  0  0  0  0  0  0  0  0  0  0  0
    0.1877   -2.0598    0.5032 C   0  0  0  0  0  0  0  0  0  0  0  0
    0.6837    0.0151    1.8014 C   0  0  0  0  0  0  0  0  0  0  0  0
    0.7859    0.4981    2.8947 C   0  0  0  0  0  0  0  0  0  0  0  0
    2.9189    0.4803   -2.0983 H   0  0  0  0  0  0  0  0  0  0  0  0
   -0.0608   -2.3939   -0.5041 H   0  0  0  0  0  0  0  0  0  0  0  0
    1.0512   -2.6268    0.8539 H   0  0  0  0  0  0  0  0  0  0  0  0
   -0.6546   -2.2656    1.1638 H   0  0  0  0  0  0  0  0  0  0  0  0
    0.8973    0.9240    3.8625 H   0  0  0  0  0  0  0  0  0  0  0  0
   -1.8903   -0.0317   -1.8309 C   0  0  0  0  0  0  0  0  0  0  0  0
   -1.7706    0.5868   -0.4703 C   0  0  0  0  0  3  0  0  0  0  0  0
   -1.3909    2.0352   -0.3997 C   0  0  0  0  0  0  0  0  0  0  0  0
   -0.9638    0.0959   -2.3969 H   0  0  0  0  0  0  0  0  0  0  0  0
   -2.6928    0.4428   -2.4088 H   0  0  0  0  0  0  0  0  0  0  0  0
   -2.1130   -1.0981   -1.7733 H   0  0  0  0  0  0  0  0  0  0  0  0
   -0.6025   -0.0409    0.0831 H   0  0  0  0  0  0  0  0  0  0  0  0
   -2.5274    0.2751    0.2481 H   0  0  0  0  0  0  0  0  0  0  0  0
   -2.1863    2.6704   -0.8075 H   0  0  0  0  0  0  0  0  0  0  0  0
   -1.2059    2.3495    0.6283 H   0  0  0  0  0  0  0  0  0  0  0  0
   -0.4865    2.2269   -0.9825 H   0  0  0  0  0  0  0  0  0  0  0  0
  1  2  3  0
  1  7  1  0
  2  3  1  0
  3  4  1  0
  3  5  1  0
  3 18  1  0
  4  8  1  0
  4  9  1  0
  4 10  1  0
  5  6  3  0
  6 11  1  0
 12 13  1  0
 12 15  1  0
 12 16  1  0
 12 17  1  0
 13 14  1  0
 13 19  1  0
 14 20  1  0
 14 21  1  0
 14 22  1  0
M  RAD  1  13   2
M  END
>  <reaction>  (4) 
rxn_922

>  <mol_properties>  (4) 
{"1": {"label": "*0", "atom_type": "Ct"}, "2": {"label": "*1", "atom_type": "Cs"}, "11": {"label": "*4", "atom_type": "Cs"}, "12": {"label": "*3", "atom_type": "Cs"}, "17": {"label": "*2", "atom_type": "H0"}}

>  <type>  (4) 
ts

$$$$

     RDKit          3D

 22 20  0  0  0  0  0  0  0  0999 V2000
    2.2212    1.0625    1.4853 C   0  0  0  0  0  0  0  0  0  0  0  0
    1.5464    0.3103    0.8452 C   0  0  0  0  0  0  0  0  0  0  0  0
    0.7513   -0.6228    0.0393 C   0  0  0  0  0  3  0  0  0  0  0  0
    1.6211   -1.7688   -0.5065 C   0  0  0  0  0  0  0  0  0  0  0  0
   -0.3934   -1.1394    0.7977 C   0  0  0  0  0  0  0  0  0  0  0  0
   -1.3254   -1.5881    1.3983 C   0  0  0  0  0  0  0  0  0  0  0  0
    2.8211    1.7312    2.0544 H   0  0  0  0  0  0  0  0  0  0  0  0
    2.4408   -1.3621   -1.0979 H   0  0  0  0  0  0  0  0  0  0  0  0
    2.0360   -2.3509    0.3153 H   0  0  0  0  0  0  0  0  0  0  0  0
    1.0181   -2.4253   -1.1328 H   0  0  0  0  0  0  0  0  0  0  0  0
   -2.1541   -1.9870    1.9323 H   0  0  0  0  0  0  0  0  0  0  0  0
   -1.3490    0.6893   -2.3583 C   0  0  0  0  0  0  0  0  0  0  0  0
   -1.3490    0.6893   -0.8349 C   0  0  0  0  0  0  0  0  0  0  0  0
   -1.3490    2.0951   -0.2482 C   0  0  0  0  0  0  0  0  0  0  0  0
   -0.4676    1.2036   -2.7489 H   0  0  0  0  0  0  0  0  0  0  0  0
   -2.2305    1.2036   -2.7489 H   0  0  0  0  0  0  0  0  0  0  0  0
   -1.3490   -0.3256   -2.7594 H   0  0  0  0  0  0  0  0  0  0  0  0
   -0.2996    0.0337   -0.3981 H   0  0  0  0  0  0  0  0  0  0  0  0
   -2.2236    0.1430   -0.4709 H   0  0  0  0  0  0  0  0  0  0  0  0
   -2.2305    2.6537   -0.5724 H   0  0  0  0  0  0  0  0  0  0  0  0
   -1.3490    2.0745    0.8429 H   0  0  0  0  0  0  0  0  0  0  0  0
   -0.4676    2.6537   -0.5724 H   0  0  0  0  0  0  0  0  0  0  0  0
  1  2  3  0
  1  7  1  0
  2  3  1  0
  3  4  1  0
  3  5  1  0
  4  8  1  0
  4  9  1  0
  4 10  1  0
  5  6  3  0
  6 11  1  0
 12 13  1  0
 12 15  1  0
 12 16  1  0
 12 17  1  0
 13 14  1  0
 13 18  1  0
 13 19  1  0
 14 20  1  0
 14 21  1  0
 14 22  1  0
M  RAD  1   3   2
M  END
>  <reaction>  (5) 
rxn_922

>  <mol_properties>  (5) 
{"1": {"label": "*0", "atom_type": "Ct"}, "2": {"label": "*1", "atom_type": "Cs"}, "11": {"label": "*4", "atom_type": "Cs"}, "12": {"label": "*3", "atom_type": "Cs"}, "17": {"label": "*2", "atom_type": "H0"}}

>  <type>  (5) 
unop_1

>  <geom_source>  (5) 
Heuristics

$$$$

     RDKit          3D

 22 20  0  0  0  0  0  0  0  0999 V2000
    2.3319   -0.5236   -1.4873 C   0  0  0  0  0  0  0  0  0  0  0  0
    1.4680   -0.6234   -0.6659 C   0  0  0  0  0  0  0  0  0  0  0  0
    0.4045   -0.7845    0.3317 C   0  0  0  0  0  3  0  0  0  0  0  0
    0.3218   -2.2385    0.8283 C   0  0  0  0  0  0  0  0  0  0  0  0
    0.5774    0.1497    1.4496 C   0  0  0  0  0  0  0  0  0  0  0  0
    0.7036    0.8899    2.3807 C   0  0  0  0  0  0  0  0  0  0  0  0
    3.0999   -0.4349   -2.2175 H   0  0  0  0  0  0  0  0  0  0  0  0
    0.1542   -2.9086   -0.0144 H   0  0  0  0  0  0  0  0  0  0  0  0
    1.2504   -2.5211    1.3225 H   0  0  0  0  0  0  0  0  0  0  0  0
   -0.4990   -2.3415    1.5373 H   0  0  0  0  0  0  0  0  0  0  0  0
    0.8157    1.5480    3.2086 H   0  0  0  0  0  0  0  0  0  0  0  0
   -1.6958    0.5276   -2.0658 C   0  0  0  0  0  0  0  0  0  0  0  0
   -1.6958    0.5276   -0.5425 C   0  0  0  0  0  0  0  0  0  0  0  0
   -1.6958    1.9334    0.0442 C   0  0  0  0  0  0  0  0  0  0  0  0
   -0.8144    1.0419   -2.4564 H   0  0  0  0  0  0  0  0  0  0  0  0
   -2.5773    1.0419   -2.4564 H   0  0  0  0  0  0  0  0  0  0  0  0
   -1.6958   -0.4873   -2.4670 H   0  0  0  0  0  0  0  0  0  0  0  0
   -0.6464   -0.1280   -0.1057 H   0  0  0  0  0  0  0  0  0  0  0  0
   -2.5704   -0.0187   -0.1785 H   0  0  0  0  0  0  0  0  0  0  0  0
   -2.5773    2.4920   -0.2799 H   0  0  0  0  0  0  0  0  0  0  0  0
   -1.6958    1.9128    1.1353 H   0  0  0  0  0  0  0  0  0  0  0  0
   -0.8144    2.4920   -0.2799 H   0  0  0  0  0  0  0  0  0  0  0  0
  1  2  3  0
  1  7  1  0
  2  3  1  0
  3  4  1  0
  3  5  1  0
  4  8  1  0
  4  9  1  0
  4 10  1  0
  5  6  3  0
  6 11  1  0
 12 13  1  0
 12 15  1  0
 12 16  1  0
 12 17  1  0
 13 14  1  0
 13 18  1  0
 13 19  1  0
 14 20  1  0
 14 21  1  0
 14 22  1  0
M  RAD  1   3   2
M  END
>  <reaction>  (6) 
rxn_922

>  <mol_properties>  (6) 
{"1": {"label": "*0", "atom_type": "Ct"}, "2": {"label": "*1", "atom_type": "Cs"}, "11": {"label": "*4", "atom_type": "Cs"}, "12": {"label": "*3", "atom_type": "Cs"}, "17": {"label": "*2", "atom_type": "H0"}}

>  <type>  (6) 
unop_2

>  <geom_source>  (6) 
Heuristics

$$$$

     RDKit          3D

 22 20  0  0  0  0  0  0  0  0999 V2000
    1.4842    0.6405    2.4288 C   0  0  0  0  0  0  0  0  0  0  0  0
    1.1464    0.1521    1.3905 C   0  0  0  0  0  0  0  0  0  0  0  0
    0.7676   -0.4367    0.1012 C   0  0  0  0  0  3  0  0  0  0  0  0
    2.0071   -0.8870   -0.6915 C   0  0  0  0  0  0  0  0  0  0  0  0
   -0.1801   -1.5425    0.2790 C   0  0  0  0  0  0  0  0  0  0  0  0
   -0.9411   -2.4578    0.3966 C   0  0  0  0  0  0  0  0  0  0  0  0
    1.7845    1.0747    3.3520 H   0  0  0  0  0  0  0  0  0  0  0  0
    2.6762   -0.0409   -0.8444 H   0  0  0  0  0  0  0  0  0  0  0  0
    2.5415   -1.6634   -0.1456 H   0  0  0  0  0  0  0  0  0  0  0  0
    1.7033   -1.2838   -1.6596 H   0  0  0  0  0  0  0  0  0  0  0  0
   -1.6177   -3.2715    0.5012 H   0  0  0  0  0  0  0  0  0  0  0  0
   -1.3328    0.8754   -2.2963 C   0  0  0  0  0  0  0  0  0  0  0  0
   -1.3328    0.8754   -0.7730 C   0  0  0  0  0  0  0  0  0  0  0  0
   -1.3328    2.2813   -0.1863 C   0  0  0  0  0  0  0  0  0  0  0  0
   -0.4513    1.3897   -2.6870 H   0  0  0  0  0  0  0  0  0  0  0  0
   -2.2143    1.3897   -2.6870 H   0  0  0  0  0  0  0  0  0  0  0  0
   -1.3328   -0.1395   -2.6975 H   0  0  0  0  0  0  0  0  0  0  0  0
   -0.2834    0.2198   -0.3362 H   0  0  0  0  0  0  0  0  0  0  0  0
   -2.2073    0.3291   -0.4090 H   0  0  0  0  0  0  0  0  0  0  0  0
   -2.2143    2.8398   -0.5104 H   0  0  0  0  0  0  0  0  0  0  0  0
   -1.3328    2.2606    0.9048 H   0  0  0  0  0  0  0  0  0  0  0  0
   -0.4513    2.8398   -0.5104 H   0  0  0  0  0  0  0  0  0  0  0  0
  1  2  3  0
  1  7  1  0
  2  3  1  0
  3  4  1  0
  3  5  1  0
  4  8  1  0
  4  9  1  0
  4 10  1  0
  5  6  3  0
  6 11  1  0
 12 13  1  0
 12 15  1  0
 12 16  1  0
 12 17  1  0
 13 14  1  0
 13 18  1  0
 13 19  1  0
 14 20  1  0
 14 21  1  0
 14 22  1  0
M  RAD  1   3   2
M  END
>  <reaction>  (7) 
rxn_922

>  <mol_properties>  (7) 
{"1": {"label": "*0", "atom_type": "Ct"}, "2": {"label": "*1", "atom_type": "Cs"}, "11": {"label": "*4", "atom_type": "Cs"}, "12": {"label": "*3", "atom_type": "Cs"}, "17": {"label": "*2", "atom_type": "H0"}}

>  <type>  (7) 
unop_3

>  <geom_source>  (7) 
Heuristics

$$$$

     RDKit          3D

 22 20  0  0  0  0  0  0  0  0999 V2000
    0.2756   -2.8787   -0.5507 C   0  0  0  0  0  0  0  0  0  0  0  0
    0.3811   -1.7576   -0.1471 C   0  0  0  0  0  0  0  0  0  0  0  0
    0.4758   -0.3869    0.3673 C   0  0  0  0  0  3  0  0  0  0  0  0
   -0.2932   -0.2342    1.6913 C   0  0  0  0  0  0  0  0  0  0  0  0
    1.8743    0.0313    0.5139 C   0  0  0  0  0  0  0  0  0  0  0  0
    3.0057    0.3920    0.6578 C   0  0  0  0  0  0  0  0  0  0  0  0
    0.1818   -3.8754   -0.9095 H   0  0  0  0  0  0  0  0  0  0  0  0
   -1.3367   -0.5129    1.5476 H   0  0  0  0  0  0  0  0  0  0  0  0
    0.1404   -0.8784    2.4550 H   0  0  0  0  0  0  0  0  0  0  0  0
   -0.2415    0.7992    2.0324 H   0  0  0  0  0  0  0  0  0  0  0  0
    4.0115    0.7128    0.7857 H   0  0  0  0  0  0  0  0  0  0  0  0
   -1.6246    0.9252   -2.0303 C   0  0  0  0  0  0  0  0  0  0  0  0
   -1.6246    0.9252   -0.5069 C   0  0  0  0  0  0  0  0  0  0  0  0
   -1.6246    2.3310    0.0798 C   0  0  0  0  0  0  0  0  0  0  0  0
   -0.7431    1.4395   -2.4209 H   0  0  0  0  0  0  0  0  0  0  0  0
   -2.5061    1.4395   -2.4209 H   0  0  0  0  0  0  0  0  0  0  0  0
   -1.6246   -0.0897   -2.4314 H   0  0  0  0  0  0  0  0  0  0  0  0
   -0.5752    0.2696   -0.0701 H   0  0  0  0  0  0  0  0  0  0  0  0
   -2.4991    0.3789   -0.1429 H   0  0  0  0  0  0  0  0  0  0  0  0
   -2.5061    2.8896   -0.2443 H   0  0  0  0  0  0  0  0  0  0  0  0
   -1.6246    2.3103    1.1709 H   0  0  0  0  0  0  0  0  0  0  0  0
   -0.7431    2.8896   -0.2443 H   0  0  0  0  0  0  0  0  0  0  0  0
  1  2  3  0
  1  7  1  0
  2  3  1  0
  3  4  1  0
  3  5  1  0
  4  8  1  0
  4  9  1  0
  4 10  1  0
  5  6  3  0
  6 11  1  0
 12 13  1  0
 12 15  1  0
 12 16  1  0
 12 17  1  0
 13 14  1  0
 13 18  1  0
 13 19  1  0
 14 20  1  0
 14 21  1  0
 14 22  1  0
M  RAD  1   3   2
M  END
>  <reaction>  (8) 
rxn_922

>  <mol_properties>  (8) 
{"1": {"label": "*0", "atom_type": "Ct"}, "2": {"label": "*1", "atom_type": "Cs"}, "11": {"label": "*4", "atom_type": "Cs"}, "12": {"label": "*3", "atom_type": "Cs"}, "17": {"label": "*2", "atom_type": "H0"}}

>  <type>  (8) 
unop_4

>  <geom_source>  (8) 
Heuristics

$$$$

     RDKit          3D

 22 20  0  0  0  0  0  0  0  0999 V2000
    0.5739   -0.2650    2.8800 C   0  0  0  0  0  0  0  0  0  0  0  0
    0.5925   -0.3152    1.6851 C   0  0  0  0  0  0  0  0  0  0  0  0
    0.6375   -0.3433    0.2189 C   0  0  0  0  0  3  0  0  0  0  0  0
    1.8981    0.3602   -0.3135 C   0  0  0  0  0  0  0  0  0  0  0  0
    0.5397   -1.7157   -0.2904 C   0  0  0  0  0  0  0  0  0  0  0  0
    0.4775   -2.8257   -0.7318 C   0  0  0  0  0  0  0  0  0  0  0  0
    0.5574   -0.2205    3.9424 H   0  0  0  0  0  0  0  0  0  0  0  0
    1.9281    1.3883    0.0459 H   0  0  0  0  0  0  0  0  0  0  0  0
    2.7922   -0.1583    0.0302 H   0  0  0  0  0  0  0  0  0  0  0  0
    1.8894    0.3611   -1.4030 H   0  0  0  0  0  0  0  0  0  0  0  0
    0.4221   -3.8125   -1.1242 H   0  0  0  0  0  0  0  0  0  0  0  0
   -1.4628    0.9688   -2.1786 C   0  0  0  0  0  0  0  0  0  0  0  0
   -1.4628    0.9688   -0.6553 C   0  0  0  0  0  0  0  0  0  0  0  0
   -1.4628    2.3747   -0.0686 C   0  0  0  0  0  0  0  0  0  0  0  0
   -0.5814    1.4831   -2.5693 H   0  0  0  0  0  0  0  0  0  0  0  0
   -2.3443    1.4831   -2.5693 H   0  0  0  0  0  0  0  0  0  0  0  0
   -1.4628   -0.0461   -2.5798 H   0  0  0  0  0  0  0  0  0  0  0  0
   -0.4134    0.3132   -0.2185 H   0  0  0  0  0  0  0  0  0  0  0  0
   -2.3374    0.4225   -0.2913 H   0  0  0  0  0  0  0  0  0  0  0  0
   -2.3443    2.9332   -0.3927 H   0  0  0  0  0  0  0  0  0  0  0  0
   -1.4628    2.3540    1.0225 H   0  0  0  0  0  0  0  0  0  0  0  0
   -0.5814    2.9332   -0.3927 H   0  0  0  0  0  0  0  0  0  0  0  0
  1  2  3  0
  1  7  1  0
  2  3  1  0
  3  4  1  0
  3  5  1  0
  4  8  1  0
  4  9  1  0
  4 10  1  0
  5  6  3  0
  6 11  1  0
 12 13  1  0
 12 15  1  0
 12 16  1  0
 12 17  1  0
 13 14  1  0
 13 18  1  0
 13 19  1  0
 14 20  1  0
 14 21  1  0
 14 22  1  0
M  RAD  1   3   2
M  END
>  <reaction>  (9) 
rxn_922

>  <mol_properties>  (9) 
{"1": {"label": "*0", "atom_type": "Ct"}, "2": {"label": "*1", "atom_type": "Cs"}, "11": {"label": "*4", "atom_type": "Cs"}, "12": {"label": "*3", "atom_type": "Cs"}, "17": {"label": "*2", "atom_type": "H0"}}

>  <type>  (9) 
unop_5

>  <geom_source>  (9) 
Heuristics

$$$$

     RDKit          3D

 22 20  0  0  0  0  0  0  0  0999 V2000
   -0.2243   -2.9261    0.5699 C   0  0  0  0  0  0  0  0  0  0  0  0
    0.1203   -1.7890    0.4326 C   0  0  0  0  0  0  0  0  0  0  0  0
    0.5119   -0.3826    0.2868 C   0  0  0  0  0  3  0  0  0  0  0  0
    0.0236    0.4584    1.4792 C   0  0  0  0  0  0  0  0  0  0  0  0
    1.9612   -0.2502    0.1013 C   0  0  0  0  0  0  0  0  0  0  0  0
    3.1415   -0.1127   -0.0358 C   0  0  0  0  0  0  0  0  0  0  0  0
   -0.5308   -3.9372    0.6919 H   0  0  0  0  0  0  0  0  0  0  0  0
   -1.0588    0.3751    1.5724 H   0  0  0  0  0  0  0  0  0  0  0  0
    0.4836    0.1065    2.4017 H   0  0  0  0  0  0  0  0  0  0  0  0
    0.2915    1.5037    1.3294 H   0  0  0  0  0  0  0  0  0  0  0  0
    4.1909    0.0095   -0.1578 H   0  0  0  0  0  0  0  0  0  0  0  0
   -1.5884    0.9295   -2.1107 C   0  0  0  0  0  0  0  0  0  0  0  0
   -1.5884    0.9295   -0.5874 C   0  0  0  0  0  0  0  0  0  0  0  0
   -1.5884    2.3353   -0.0007 C   0  0  0  0  0  0  0  0  0  0  0  0
   -0.7070    1.4438   -2.5014 H   0  0  0  0  0  0  0  0  0  0  0  0
   -2.4699    1.4438   -2.5014 H   0  0  0  0  0  0  0  0  0  0  0  0
   -1.5884   -0.0854   -2.5119 H   0  0  0  0  0  0  0  0  0  0  0  0
   -0.5390    0.2739   -0.1506 H   0  0  0  0  0  0  0  0  0  0  0  0
   -2.4629    0.3832   -0.2234 H   0  0  0  0  0  0  0  0  0  0  0  0
   -2.4699    2.8939   -0.3248 H   0  0  0  0  0  0  0  0  0  0  0  0
   -1.5884    2.3147    1.0904 H   0  0  0  0  0  0  0  0  0  0  0  0
   -0.7070    2.8939   -0.3248 H   0  0  0  0  0  0  0  0  0  0  0  0
  1  2  3  0
  1  7  1  0
  2  3  1  0
  3  4  1  0
  3  5  1  0
  4  8  1  0
  4  9  1  0
  4 10  1  0
  5  6  3  0
  6 11  1  0
 12 13  1  0
 12 15  1  0
 12 16  1  0
 12 17  1  0
 13 14  1  0
 13 18  1  0
 13 19  1  0
 14 20  1  0
 14 21  1  0
 14 22  1  0
M  RAD  1   3   2
M  END
>  <reaction>  (10) 
rxn_922

>  <mol_properties>  (10) 
{"1": {"label": "*0", "atom_type": "Ct"}, "2": {"label": "*1", "atom_type": "Cs"}, "11": {"label": "*4", "atom_type": "Cs"}, "12": {"label": "*3", "atom_type": "Cs"}, "17": {"label": "*2", "atom_type": "H0"}}

>  <type>  (10) 
unop_6

>  <geom_source>  (10) 
Heuristics

$$$$

     RDKit          3D

 22 20  0  0  0  0  0  0  0  0999 V2000
   -0.3946   -2.4272    1.7279 C   0  0  0  0  0  0  0  0  0  0  0  0
    0.0224   -1.5320    1.0530 C   0  0  0  0  0  0  0  0  0  0  0  0
    0.5123   -0.4083    0.2470 C   0  0  0  0  0  3  0  0  0  0  0  0
    0.4940    0.9037    1.0507 C   0  0  0  0  0  0  0  0  0  0  0  0
    1.8490   -0.6826   -0.2920 C   0  0  0  0  0  0  0  0  0  0  0  0
    2.9450   -0.8742   -0.7311 C   0  0  0  0  0  0  0  0  0  0  0  0
   -0.7653   -3.2231    2.3279 H   0  0  0  0  0  0  0  0  0  0  0  0
   -0.5157    1.1058    1.4067 H   0  0  0  0  0  0  0  0  0  0  0  0
    1.1606    0.8289    1.9088 H   0  0  0  0  0  0  0  0  0  0  0  0
    0.8240    1.7288    0.4202 H   0  0  0  0  0  0  0  0  0  0  0  0
    3.9194   -1.0445   -1.1216 H   0  0  0  0  0  0  0  0  0  0  0  0
   -1.5880    0.9039   -2.1505 C   0  0  0  0  0  0  0  0  0  0  0  0
   -1.5880    0.9039   -0.6272 C   0  0  0  0  0  0  0  0  0  0  0  0
   -1.5880    2.3097   -0.0405 C   0  0  0  0  0  0  0  0  0  0  0  0
   -0.7066    1.4182   -2.5412 H   0  0  0  0  0  0  0  0  0  0  0  0
   -2.4695    1.4182   -2.5412 H   0  0  0  0  0  0  0  0  0  0  0  0
   -1.5880   -0.1110   -2.5517 H   0  0  0  0  0  0  0  0  0  0  0  0
   -0.5386    0.2483   -0.1904 H   0  0  0  0  0  0  0  0  0  0  0  0
   -2.4626    0.3575   -0.2632 H   0  0  0  0  0  0  0  0  0  0  0  0
   -2.4695    2.8683   -0.3646 H   0  0  0  0  0  0  0  0  0  0  0  0
   -1.5880    2.2890    1.0506 H   0  0  0  0  0  0  0  0  0  0  0  0
   -0.7066    2.8683   -0.3646 H   0  0  0  0  0  0  0  0  0  0  0  0
  1  2  3  0
  1  7  1  0
  2  3  1  0
  3  4  1  0
  3  5  1  0
  4  8  1  0
  4  9  1  0
  4 10  1  0
  5  6  3  0
  6 11  1  0
 12 13  1  0
 12 15  1  0
 12 16  1  0
 12 17  1  0
 13 14  1  0
 13 18  1  0
 13 19  1  0
 14 20  1  0
 14 21  1  0
 14 22  1  0
M  RAD  1   3   2
M  END
>  <reaction>  (11) 
rxn_922

>  <mol_properties>  (11) 
{"1": {"label": "*0", "atom_type": "Ct"}, "2": {"label": "*1", "atom_type": "Cs"}, "11": {"label": "*4", "atom_type": "Cs"}, "12": {"label": "*3", "atom_type": "Cs"}, "17": {"label": "*2", "atom_type": "H0"}}

>  <type>  (11) 
unop_7

>  <geom_source>  (11) 
Heuristics

$$$$

     RDKit          3D

 22 20  0  0  0  0  0  0  0  0999 V2000
    2.6463    0.9642    0.3247 C   0  0  0  0  0  0  0  0  0  0  0  0
    1.7364    0.1945    0.2227 C   0  0  0  0  0  0  0  0  0  0  0  0
    0.6443   -0.7742    0.0769 C   0  0  0  0  0  3  0  0  0  0  0  0
    1.1867   -2.2039   -0.0945 C   0  0  0  0  0  0  0  0  0  0  0  0
   -0.2931   -0.6930    1.2025 C   0  0  0  0  0  0  0  0  0  0  0  0
   -1.0643   -0.6584    2.1162 C   0  0  0  0  0  0  0  0  0  0  0  0
    3.4553    1.6485    0.4154 H   0  0  0  0  0  0  0  0  0  0  0  0
    1.8486   -2.2476   -0.9588 H   0  0  0  0  0  0  0  0  0  0  0  0
    1.7453   -2.5034    0.7913 H   0  0  0  0  0  0  0  0  0  0  0  0
    0.3601   -2.8985   -0.2402 H   0  0  0  0  0  0  0  0  0  0  0  0
   -1.7500   -0.6276    2.9285 H   0  0  0  0  0  0  0  0  0  0  0  0
   -1.4560    0.5379   -2.3206 C   0  0  0  0  0  0  0  0  0  0  0  0
   -1.4560    0.5379   -0.7973 C   0  0  0  0  0  0  0  0  0  0  0  0
   -1.4560    1.9437   -0.2106 C   0  0  0  0  0  0  0  0  0  0  0  0
   -0.5746    1.0522   -2.7113 H   0  0  0  0  0  0  0  0  0  0  0  0
   -2.3375    1.0522   -2.7113 H   0  0  0  0  0  0  0  0  0  0  0  0
   -1.4560   -0.4770   -2.7218 H   0  0  0  0  0  0  0  0  0  0  0  0
   -0.4066   -0.1177   -0.3605 H   0  0  0  0  0  0  0  0  0  0  0  0
   -2.3306   -0.0084   -0.4333 H   0  0  0  0  0  0  0  0  0  0  0  0
   -2.3375    2.5023   -0.5347 H   0  0  0  0  0  0  0  0  0  0  0  0
   -1.4560    1.9231    0.8805 H   0  0  0  0  0  0  0  0  0  0  0  0
   -0.5746    2.5023   -0.5347 H   0  0  0  0  0  0  0  0  0  0  0  0
  1  2  3  0
  1  7  1  0
  2  3  1  0
  3  4  1  0
  3  5  1  0
  4  8  1  0
  4  9  1  0
  4 10  1  0
  5  6  3  0
  6 11  1  0
 12 13  1  0
 12 15  1  0
 12 16  1  0
 12 17  1  0
 13 14  1  0
 13 18  1  0
 13 19  1  0
 14 20  1  0
 14 21  1  0
 14 22  1  0
M  RAD  1   3   2
M  END
>  <reaction>  (12) 
rxn_922

>  <mol_properties>  (12) 
{"1": {"label": "*0", "atom_type": "Ct"}, "2": {"label": "*1", "atom_type": "Cs"}, "11": {"label": "*4", "atom_type": "Cs"}, "12": {"label": "*3", "atom_type": "Cs"}, "17": {"label": "*2", "atom_type": "H0"}}

>  <type>  (12) 
unop_8

>  <geom_source>  (12) 
Heuristics

$$$$

     RDKit          3D

 22 20  0  0  0  0  0  0  0  0999 V2000
    0.9676   -2.3526   -1.3639 C   0  0  0  0  0  0  0  0  0  0  0  0
    0.7314   -1.4987   -0.5603 C   0  0  0  0  0  0  0  0  0  0  0  0
    0.4098   -0.4723    0.4374 C   0  0  0  0  0  3  0  0  0  0  0  0
   -0.3712   -1.0704    1.6205 C   0  0  0  0  0  0  0  0  0  0  0  0
    1.6183    0.2222    0.8953 C   0  0  0  0  0  0  0  0  0  0  0  0
    2.5891    0.7937    1.2974 C   0  0  0  0  0  0  0  0  0  0  0  0
    1.1776   -3.1119   -2.0783 H   0  0  0  0  0  0  0  0  0  0  0  0
   -1.2829   -1.5458    1.2599 H   0  0  0  0  0  0  0  0  0  0  0  0
    0.2347   -1.8163    2.1332 H   0  0  0  0  0  0  0  0  0  0  0  0
   -0.6324   -0.2836    2.3275 H   0  0  0  0  0  0  0  0  0  0  0  0
    3.4522    1.3018    1.6549 H   0  0  0  0  0  0  0  0  0  0  0  0
   -1.6905    0.8399   -1.9601 C   0  0  0  0  0  0  0  0  0  0  0  0
   -1.6905    0.8399   -0.4368 C   0  0  0  0  0  0  0  0  0  0  0  0
   -1.6905    2.2457    0.1499 C   0  0  0  0  0  0  0  0  0  0  0  0
   -0.8091    1.3542   -2.3508 H   0  0  0  0  0  0  0  0  0  0  0  0
   -2.5720    1.3542   -2.3508 H   0  0  0  0  0  0  0  0  0  0  0  0
   -1.6905   -0.1750   -2.3613 H   0  0  0  0  0  0  0  0  0  0  0  0
   -0.6411    0.1843    0.0000 H   0  0  0  0  0  0  0  0  0  0  0  0
   -2.5651    0.2935   -0.0728 H   0  0  0  0  0  0  0  0  0  0  0  0
   -2.5720    2.8043   -0.1742 H   0  0  0  0  0  0  0  0  0  0  0  0
   -1.6905    2.2250    1.2410 H   0  0  0  0  0  0  0  0  0  0  0  0
   -0.8091    2.8043   -0.1742 H   0  0  0  0  0  0  0  0  0  0  0  0
  1  2  3  0
  1  7  1  0
  2  3  1  0
  3  4  1  0
  3  5  1  0
  4  8  1  0
  4  9  1  0
  4 10  1  0
  5  6  3  0
  6 11  1  0
 12 13  1  0
 12 15  1  0
 12 16  1  0
 12 17  1  0
 13 14  1  0
 13 18  1  0
 13 19  1  0
 14 20  1  0
 14 21  1  0
 14 22  1  0
M  RAD  1   3   2
M  END
>  <reaction>  (13) 
rxn_922

>  <mol_properties>  (13) 
{"1": {"label": "*0", "atom_type": "Ct"}, "2": {"label": "*1", "atom_type": "Cs"}, "11": {"label": "*4", "atom_type": "Cs"}, "12": {"label": "*3", "atom_type": "Cs"}, "17": {"label": "*2", "atom_type": "H0"}}

>  <type>  (13) 
unop_9

>  <geom_source>  (13) 
Heuristics

$$$$

     RDKit          3D

 22 20  0  0  0  0  0  0  0  0999 V2000
    2.6827    0.3806   -0.7572 C   0  0  0  0  0  0  0  0  0  0  0  0
    1.7025   -0.1508   -0.3239 C   0  0  0  0  0  0  0  0  0  0  0  0
    0.5122   -0.8370    0.1905 C   0  0  0  0  0  3  0  0  0  0  0  0
    0.7696   -2.3438    0.3656 C   0  0  0  0  0  0  0  0  0  0  0  0
    0.0461   -0.2286    1.4415 C   0  0  0  0  0  0  0  0  0  0  0  0
   -0.3460    0.2384    2.4705 C   0  0  0  0  0  0  0  0  0  0  0  0
    3.5540    0.8531   -1.1424 H   0  0  0  0  0  0  0  0  0  0  0  0
    1.0762   -2.7800   -0.5846 H   0  0  0  0  0  0  0  0  0  0  0  0
    1.5584   -2.5084    1.0985 H   0  0  0  0  0  0  0  0  0  0  0  0
   -0.1387   -2.8370    0.7103 H   0  0  0  0  0  0  0  0  0  0  0  0
   -0.6945    0.6536    3.3855 H   0  0  0  0  0  0  0  0  0  0  0  0
   -1.5882    0.4752   -2.2071 C   0  0  0  0  0  0  0  0  0  0  0  0
   -1.5882    0.4752   -0.6838 C   0  0  0  0  0  0  0  0  0  0  0  0
   -1.5882    1.8810   -0.0970 C   0  0  0  0  0  0  0  0  0  0  0  0
   -0.7067    0.9894   -2.5977 H   0  0  0  0  0  0  0  0  0  0  0  0
   -2.4696    0.9894   -2.5977 H   0  0  0  0  0  0  0  0  0  0  0  0
   -1.5882   -0.5397   -2.6082 H   0  0  0  0  0  0  0  0  0  0  0  0
   -0.5387   -0.1804   -0.2469 H   0  0  0  0  0  0  0  0  0  0  0  0
   -2.4627   -0.0712   -0.3198 H   0  0  0  0  0  0  0  0  0  0  0  0
   -2.4696    2.4396   -0.4212 H   0  0  0  0  0  0  0  0  0  0  0  0
   -1.5882    1.8603    0.9941 H   0  0  0  0  0  0  0  0  0  0  0  0
   -0.7067    2.4396   -0.4212 H   0  0  0  0  0  0  0  0  0  0  0  0
  1  2  3  0
  1  7  1  0
  2  3  1  0
  3  4  1  0
  3  5  1  0
  4  8  1  0
  4  9  1  0
  4 10  1  0
  5  6  3  0
  6 11  1  0
 12 13  1  0
 12 15  1  0
 12 16  1  0
 12 17  1  0
 13 14  1  0
 13 18  1  0
 13 19  1  0
 14 20  1  0
 14 21  1  0
 14 22  1  0
M  RAD  1   3   2
M  END
>  <reaction>  (14) 
rxn_922

>  <mol_properties>  (14) 
{"1": {"label": "*0", "atom_type": "Ct"}, "2": {"label": "*1", "atom_type": "Cs"}, "11": {"label": "*4", "atom_type": "Cs"}, "12": {"label": "*3", "atom_type": "Cs"}, "17": {"label": "*2", "atom_type": "H0"}}

>  <type>  (14) 
unop_10

>  <geom_source>  (14) 
Heuristics

$$$$

     RDKit          3D

 22 20  0  0  0  0  0  0  0  0999 V2000
   -0.1393   -1.4508    2.6053 C   0  0  0  0  0  0  0  0  0  0  0  0
    0.1598   -0.9927    1.5416 C   0  0  0  0  0  0  0  0  0  0  0  0
    0.5228   -0.3940    0.2524 C   0  0  0  0  0  3  0  0  0  0  0  0
    1.1503    0.9982    0.4414 C   0  0  0  0  0  0  0  0  0  0  0  0
    1.4095   -1.2769   -0.5137 C   0  0  0  0  0  0  0  0  0  0  0  0
    2.1455   -1.9704   -1.1525 C   0  0  0  0  0  0  0  0  0  0  0  0
   -0.4052   -1.8581    3.5510 H   0  0  0  0  0  0  0  0  0  0  0  0
    0.4581    1.6465    0.9776 H   0  0  0  0  0  0  0  0  0  0  0  0
    2.0738    0.9204    1.0136 H   0  0  0  0  0  0  0  0  0  0  0  0
    1.3747    1.4381   -0.5298 H   0  0  0  0  0  0  0  0  0  0  0  0
    2.7999   -2.5870   -1.7204 H   0  0  0  0  0  0  0  0  0  0  0  0
   -1.5775    0.9181   -2.1452 C   0  0  0  0  0  0  0  0  0  0  0  0
   -1.5775    0.9181   -0.6219 C   0  0  0  0  0  0  0  0  0  0  0  0
   -1.5775    2.3240   -0.0352 C   0  0  0  0  0  0  0  0  0  0  0  0
   -0.6961    1.4324   -2.5358 H   0  0  0  0  0  0  0  0  0  0  0  0
   -2.4590    1.4324   -2.5358 H   0  0  0  0  0  0  0  0  0  0  0  0
   -1.5775   -0.0968   -2.5464 H   0  0  0  0  0  0  0  0  0  0  0  0
   -0.5281    0.2625   -0.1851 H   0  0  0  0  0  0  0  0  0  0  0  0
   -2.4521    0.3718   -0.2579 H   0  0  0  0  0  0  0  0  0  0  0  0
   -2.4590    2.8825   -0.3593 H   0  0  0  0  0  0  0  0  0  0  0  0
   -1.5775    2.3033    1.0560 H   0  0  0  0  0  0  0  0  0  0  0  0
   -0.6961    2.8825   -0.3593 H   0  0  0  0  0  0  0  0  0  0  0  0
  1  2  3  0
  1  7  1  0
  2  3  1  0
  3  4  1  0
  3  5  1  0
  4  8  1  0
  4  9  1  0
  4 10  1  0
  5  6  3  0
  6 11  1  0
 12 13  1  0
 12 15  1  0
 12 16  1  0
 12 17  1  0
 13 14  1  0
 13 18  1  0
 13 19  1  0
 14 20  1  0
 14 21  1  0
 14 22  1  0
M  RAD  1   3   2
M  END
>  <reaction>  (15) 
rxn_922

>  <mol_properties>  (15) 
{"1": {"label": "*0", "atom_type": "Ct"}, "2": {"label": "*1", "atom_type": "Cs"}, "11": {"label": "*4", "atom_type": "Cs"}, "12": {"label": "*3", "atom_type": "Cs"}, "17": {"label": "*2", "atom_type": "H0"}}

>  <type>  (15) 
unop_11

>  <geom_source>  (15) 
Heuristics

$$$$

     RDKit          3D

 22 20  0  0  0  0  0  0  0  0999 V2000
    1.7040   -1.5071   -1.6993 C   0  0  0  0  0  0  0  0  0  0  0  0
    1.1130   -1.0994   -0.7426 C   0  0  0  0  0  0  0  0  0  0  0  0
    0.3675   -0.6336    0.4320 C   0  0  0  0  0  3  0  0  0  0  0  0
   -0.1263   -1.8162    1.2836 C   0  0  0  0  0  0  0  0  0  0  0  0
    1.1657    0.3011    1.2328 C   0  0  0  0  0  0  0  0  0  0  0  0
    1.8004    1.0535    1.9125 C   0  0  0  0  0  0  0  0  0  0  0  0
    2.2294   -1.8696   -2.5499 H   0  0  0  0  0  0  0  0  0  0  0  0
   -0.7482   -2.4745    0.6778 H   0  0  0  0  0  0  0  0  0  0  0  0
    0.7206   -2.3854    1.6645 H   0  0  0  0  0  0  0  0  0  0  0  0
   -0.7095   -1.4473    2.1267 H   0  0  0  0  0  0  0  0  0  0  0  0
    2.3646    1.7225    2.5167 H   0  0  0  0  0  0  0  0  0  0  0  0
   -1.7329    0.6785   -1.9656 C   0  0  0  0  0  0  0  0  0  0  0  0
   -1.7329    0.6785   -0.4423 C   0  0  0  0  0  0  0  0  0  0  0  0
   -1.7329    2.0843    0.1445 C   0  0  0  0  0  0  0  0  0  0  0  0
   -0.8514    1.1928   -2.3562 H   0  0  0  0  0  0  0  0  0  0  0  0
   -2.6143    1.1928   -2.3562 H   0  0  0  0  0  0  0  0  0  0  0  0
   -1.7329   -0.3364   -2.3667 H   0  0  0  0  0  0  0  0  0  0  0  0
   -0.6834    0.0229   -0.0055 H   0  0  0  0  0  0  0  0  0  0  0  0
   -2.6074    0.1322   -0.0783 H   0  0  0  0  0  0  0  0  0  0  0  0
   -2.6143    2.6429   -0.1797 H   0  0  0  0  0  0  0  0  0  0  0  0
   -1.7329    2.0637    1.2356 H   0  0  0  0  0  0  0  0  0  0  0  0
   -0.8514    2.6429   -0.1797 H   0  0  0  0  0  0  0  0  0  0  0  0
  1  2  3  0
  1  7  1  0
  2  3  1  0
  3  4  1  0
  3  5  1  0
  4  8  1  0
  4  9  1  0
  4 10  1  0
  5  6  3  0
  6 11  1  0
 12 13  1  0
 12 15  1  0
 12 16  1  0
 12 17  1  0
 13 14  1  0
 13 18  1  0
 13 19  1  0
 14 20  1  0
 14 21  1  0
 14 22  1  0
M  RAD  1   3   2
M  END
>  <reaction>  (16) 
rxn_922

>  <mol_properties>  (16) 
{"1": {"label": "*0", "atom_type": "Ct"}, "2": {"label": "*1", "atom_type": "Cs"}, "11": {"label": "*4", "atom_type": "Cs"}, "12": {"label": "*3", "atom_type": "Cs"}, "17": {"label": "*2", "atom_type": "H0"}}

>  <type>  (16) 
unop_12

>  <geom_source>  (16) 
Heuristics

$$$$

     RDKit          3D

 22 20  0  0  0  0  0  0  0  0999 V2000
   -1.1555   -0.0051    0.0456 C   0  0  0  0  0  3  0  0  0  0  0  0
   -1.5378   -1.2675   -0.7238 C   0  0  0  0  0  0  0  0  0  0  0  0
    2.3120   -0.2838   -1.2481 C   0  0  0  0  0  0  0  0  0  0  0  0
    1.7380    0.5121    1.0744 C   0  0  0  0  0  0  0  0  0  0  0  0
    1.3932   -0.4616   -0.0457 C   0  0  0  0  0  0  0  0  0  0  0  0
   -1.6432    1.1888   -0.6558 C   0  0  0  0  0  0  0  0  0  0  0  0
   -1.7223   -0.0398    1.3993 C   0  0  0  0  0  0  0  0  0  0  0  0
   -2.0421    2.1696   -1.2329 C   0  0  0  0  0  0  0  0  0  0  0  0
   -2.1863   -0.0691    2.5120 C   0  0  0  0  0  0  0  0  0  0  0  0
    0.1932    0.0636    0.1386 H   0  0  0  0  0  0  0  0  0  0  0  0
   -1.1488   -2.1651   -0.1970 H   0  0  0  0  0  0  0  0  0  0  0  0
   -2.6424   -1.3556   -0.8190 H   0  0  0  0  0  0  0  0  0  0  0  0
   -1.0894   -1.2427   -1.7401 H   0  0  0  0  0  0  0  0  0  0  0  0
    3.3669   -0.4810   -0.9612 H   0  0  0  0  0  0  0  0  0  0  0  0
    2.0167   -0.9984   -2.0441 H   0  0  0  0  0  0  0  0  0  0  0  0
    2.2234    0.7485   -1.6476 H   0  0  0  0  0  0  0  0  0  0  0  0
    1.6394    1.5583    0.7154 H   0  0  0  0  0  0  0  0  0  0  0  0
    1.0367    0.3604    1.9211 H   0  0  0  0  0  0  0  0  0  0  0  0
    2.7756    0.3390    1.4316 H   0  0  0  0  0  0  0  0  0  0  0  0
    1.4587   -1.5060    0.3284 H   0  0  0  0  0  0  0  0  0  0  0  0
   -2.3923    3.0302   -1.7394 H   0  0  0  0  0  0  0  0  0  0  0  0
   -2.5937   -0.0948    3.4884 H   0  0  0  0  0  0  0  0  0  0  0  0
  1  2  1  0
  1  6  1  0
  1  7  1  0
  2 11  1  0
  2 12  1  0
  2 13  1  0
  3  5  1  0
  3 14  1  0
  3 15  1  0
  3 16  1  0
  4  5  1  0
  4 17  1  0
  4 18  1  0
  4 19  1  0
  5 10  1  0
  5 20  1  0
  6  8  3  0
  7  9  3  0
  8 21  1  0
  9 22  1  0
M  RAD  1   1   2
M  END
>  <reaction>  (17) 
rxn_922

>  <mol_properties>  (17) 
{"1": {"label": "*0", "atom_type": "Ct"}, "2": {"label": "*1", "atom_type": "Cs"}, "11": {"label": "*4", "atom_type": "Cs"}, "12": {"label": "*3", "atom_type": "Cs"}, "17": {"label": "*2", "atom_type": "H0"}}

>  <type>  (17) 
unop_13

>  <geom_source>  (17) 
AutoTST

$$$$
