
     RDKit          3D

  8  7  0  0  0  0  0  0  0  0999 V2000
    0.7610    0.0250    0.0051 C   0  0  0  0  0  0  0  0  0  0  0  0
   -0.7610   -0.0250   -0.0051 C   0  0  0  0  0  0  0  0  0  0  0  0
    1.1904   -0.9237   -0.3217 H   0  0  0  0  0  0  0  0  0  0  0  0
    1.1359    0.8041   -0.6609 H   0  0  0  0  0  0  0  0  0  0  0  0
    1.1435    0.2336    1.0058 H   0  0  0  0  0  0  0  0  0  0  0  0
   -1.1435   -0.2336   -1.0058 H   0  0  0  0  0  0  0  0  0  0  0  0
   -1.1904    0.9237    0.3216 H   0  0  0  0  0  0  0  0  0  0  0  0
   -1.1359   -0.8041    0.6609 H   0  0  0  0  0  0  0  0  0  0  0  0
  1  2  1  0
  1  3  1  0
  1  4  1  0
  1  5  1  0
  2  6  1  0
  2  7  1  0
  2  8  1  0
M  END
>  <reaction>  (1) 
rxn_210

>  <mol_properties>  (1) 
{"0": {"label": "donator", "atom_type": "Cs"}, "2": {"label": "d_hydrogen", "atom_type": "H0"}}

>  <type>  (1) 
r1h

$$$$

     RDKit          3D

  1  0  0  0  0  0  0  0  0  0999 V2000
    0.0000    0.0000    0.0000 H   0  0  0  0  0 15  0  0  0  0  0  0
M  END
>  <reaction>  (2) 
rxn_210

>  <mol_properties>  (2) 
{"0": {"label": "acceptor", "atom_type": "H0"}}

>  <type>  (2) 
r2

$$$$

     RDKit          3D

  2  1  0  0  0  0  0  0  0  0999 V2000
    0.0000    0.0000    0.3721 H   0  0  0  0  0  0  0  0  0  0  0  0
    0.0000    0.0000   -0.3721 H   0  0  0  0  0  0  0  0  0  0  0  0
  1  2  1  0
M  END
>  <reaction>  (3) 
rxn_210

>  <mol_properties>  (3) 
{"0": {"label": "a_hydrogen", "atom_type": "H0"}, "1": {"label": "acceptor", "atom_type": "H0"}}

>  <type>  (3) 
r2h

$$$$

     RDKit          3D

  9  7  0  0  0  0  0  0  0  0999 V2000
    0.3690    0.5141   -0.1724 C   0  0  0  0  0  0  0  0  0  0  0  0
   -0.9416   -0.1390    0.1648 C   0  0  0  0  0  0  0  0  0  0  0  0
    1.3079   -0.4341   -0.0818 H   0  0  0  0  0  0  0  0  0  0  0  0
    0.4759    0.8495   -1.2016 H   0  0  0  0  0  0  0  0  0  0  0  0
    0.7203    1.2578    0.5395 H   0  0  0  0  0  0  0  0  0  0  0  0
   -0.9316   -0.5503    1.1753 H   0  0  0  0  0  0  0  0  0  0  0  0
   -1.1707   -0.9498   -0.5284 H   0  0  0  0  0  0  0  0  0  0  0  0
   -1.7629    0.5821    0.1110 H   0  0  0  0  0  0  0  0  0  0  0  0
    1.9336   -1.1302   -0.0064 H   0  0  0  0  0 15  0  0  0  0  0  0
  1  2  1  0
  1  3  1  0
  1  4  1  0
  1  5  1  0
  2  6  1  0
  2  7  1  0
  2  8  1  0
M  END
>  <reaction>  (4) 
rxn_210

>  <mol_properties>  (4) 
{"0": {"label": "*3", "atom_type": "Cs"}, "1": {"label": "*4", "atom_type": "Cs"}, "2": {"label": "*2", "atom_type": "H0"}, "8": {"label": "*1", "atom_type": "H0"}}

>  <type>  (4) 
ts

$$$$

     RDKit          3D

  9  7  0  0  0  0  0  0  0  0999 V2000
   -0.0000   -0.0732   -0.8146 C   0  0  0  0  0  0  0  0  0  0  0  0
   -0.0000   -0.0732    0.7082 C   0  0  0  0  0  0  0  0  0  0  0  0
   -0.8808    0.4353   -1.2104 H   0  0  0  0  0  0  0  0  0  0  0  0
    0.8808    0.4353   -1.2104 H   0  0  0  0  0  0  0  0  0  0  0  0
   -0.0000   -1.0903   -1.2104 H   0  0  0  0  0  0  0  0  0  0  0  0
   -0.0000    1.1473    1.1832 H   0  0  0  0  0  0  0  0  0  0  0  0
    0.8808   -0.5818    1.1040 H   0  0  0  0  0  0  0  0  0  0  0  0
   -0.8808   -0.5818    1.1040 H   0  0  0  0  0  0  0  0  0  0  0  0
   -0.0000    1.9795    1.5071 H   0  0  0  0  0 15  0  0  0  0  0  0
  1  2  1  0
  1  3  1  0
  1  4  1  0
  1  5  1  0
  2  6  1  0
  2  7  1  0
  2  8  1  0
M  END
>  <reaction>  (5) 
rxn_210

>  <mol_properties>  (5) 
{"0": {"label": "*3", "atom_type": "Cs"}, "1": {"label": "*4", "atom_type": "Cs"}, "2": {"label": "*2", "atom_type": "H0"}, "8": {"label": "*1", "atom_type": "H0"}}

>  <type>  (5) 
unop_1

>  <geom_source>  (5) 
Heuristics

$$$$

     RDKit          3D

  9  7  0  0  0  0  0  0  0  0999 V2000
   -0.8721   -0.3297    0.0143 C   0  0  0  0  0  0  0  0  0  0  0  0
    0.3761    0.5298    0.0913 C   0  0  0  0  0  0  0  0  0  0  0  0
   -1.7226    0.2717   -0.3702 H   0  0  0  0  0  0  0  0  0  0  0  0
   -1.1217   -0.7145    1.0250 H   0  0  0  0  0  0  0  0  0  0  0  0
   -0.6916   -1.1876   -0.6663 H   0  0  0  0  0  0  0  0  0  0  0  0
    0.2063    1.3860    0.7777 H   0  0  0  0  0  0  0  0  0  0  0  0
    0.6376    0.9117   -0.9180 H   0  0  0  0  0  0  0  0  0  0  0  0
    2.0368   -0.8726   -0.1893 H   0  0  0  0  0 15  0  0  0  0  0  0
    1.1512    0.0050    0.2354 H   0  0  0  0  0  0  0  0  0  0  0  0
  1  2  1  0
  1  3  1  0
  1  4  1  0
  1  5  1  0
  2  6  1  0
  2  7  1  0
  2  9  1  0
M  END
>  <reaction>  (6) 
rxn_210

>  <mol_properties>  (6) 
{"0": {"label": "*3", "atom_type": "Cs"}, "1": {"label": "*4", "atom_type": "Cs"}, "2": {"label": "*2", "atom_type": "H0"}, "8": {"label": "*1", "atom_type": "H0"}}

>  <type>  (6) 
unop_2

>  <geom_source>  (6) 
AutoTST

$$$$
