
     RDKit          3D

  7  6  0  0  0  0  0  0  0  0999 V2000
    1.6964   -0.0938    0.0583 C   0  0  0  0  0  0  0  0  0  0  0  0
    0.5019   -0.0278    0.0173 C   0  0  0  0  0  0  0  0  0  0  0  0
   -0.9505    0.0525   -0.0327 C   0  0  0  0  0  0  0  0  0  0  0  0
    2.7574   -0.1524    0.0947 H   0  0  0  0  0  0  0  0  0  0  0  0
   -1.2692    0.9972   -0.4754 H   0  0  0  0  0  0  0  0  0  0  0  0
   -1.3749   -0.0147    0.9700 H   0  0  0  0  0  0  0  0  0  0  0  0
   -1.3610   -0.7611   -0.6323 H   0  0  0  0  0  0  0  0  0  0  0  0
  1  2  3  0
  1  4  1  0
  2  3  1  0
  3  5  1  0
  3  6  1  0
  3  7  1  0
M  END
>  <reaction>  (1) 
rxn_247

>  <mol_properties>  (1) 
{"2": {"label": "donator", "atom_type": "Cs"}, "4": {"label": "d_hydrogen", "atom_type": "H0"}}

>  <type>  (1) 
r1h

$$$$

     RDKit          3D

  1  0  0  0  0  0  0  0  0  0999 V2000
    0.0000    0.0000    0.0000 H   0  0  0  0  0 15  0  0  0  0  0  0
M  END
>  <reaction>  (2) 
rxn_247

>  <mol_properties>  (2) 
{"0": {"label": "acceptor", "atom_type": "H0"}}

>  <type>  (2) 
r2

$$$$

     RDKit          3D

  2  1  0  0  0  0  0  0  0  0999 V2000
    0.0000    0.0000    0.3721 H   0  0  0  0  0  0  0  0  0  0  0  0
    0.0000    0.0000   -0.3721 H   0  0  0  0  0  0  0  0  0  0  0  0
  1  2  1  0
M  END
>  <reaction>  (3) 
rxn_247

>  <mol_properties>  (3) 
{"0": {"label": "a_hydrogen", "atom_type": "H0"}, "1": {"label": "acceptor", "atom_type": "H0"}}

>  <type>  (3) 
r2h

$$$$

     RDKit          3D

  8  6  0  0  0  0  0  0  0  0999 V2000
   -0.0040   -0.0433   -1.4045 C   0  0  0  0  0  0  0  0  0  0  0  0
   -0.0085   -0.0925   -0.2054 C   0  0  0  0  0  0  0  0  0  0  0  0
   -0.0094   -0.1033    1.2238 C   0  0  0  0  0  0  0  0  0  0  0  0
   -0.0011   -0.0119   -2.4675 H   0  0  0  0  0  0  0  0  0  0  0  0
    0.0988    1.0807    1.6372 H   0  0  0  0  0  0  0  0  0  0  0  0
    0.8501   -0.6035    1.6651 H   0  0  0  0  0  0  0  0  0  0  0  0
   -0.9455   -0.4394    1.6651 H   0  0  0  0  0  0  0  0  0  0  0  0
    0.1851    2.0249    2.0178 H   0  0  0  0  0 15  0  0  0  0  0  0
  1  2  3  0
  1  4  1  0
  2  3  1  0
  3  5  1  0
  3  6  1  0
  3  7  1  0
M  END
>  <reaction>  (4) 
rxn_247

>  <mol_properties>  (4) 
{"1": {"label": "*4", "atom_type": "Ct"}, "2": {"label": "*3", "atom_type": "Cs"}, "4": {"label": "*2", "atom_type": "H0"}, "7": {"label": "*1", "atom_type": "H0"}}

>  <type>  (4) 
ts

$$$$

     RDKit          3D

  8  6  0  0  0  0  0  0  0  0999 V2000
   -0.0051   -0.0554   -1.4094 C   0  0  0  0  0  0  0  0  0  0  0  0
   -0.0051   -0.0554   -0.2124 C   0  0  0  0  0  0  0  0  0  0  0  0
   -0.0051   -0.0554    1.2430 C   0  0  0  0  0  0  0  0  0  0  0  0
   -0.0051   -0.0554   -2.4727 H   0  0  0  0  0  0  0  0  0  0  0  0
    0.1064    1.1642    1.7054 H   0  0  0  0  0  0  0  0  0  0  0  0
    0.8286   -0.6440    1.6284 H   0  0  0  0  0  0  0  0  0  0  0  0
   -0.9317   -0.4831    1.6284 H   0  0  0  0  0  0  0  0  0  0  0  0
    0.1824    1.9961    2.0209 H   0  0  0  0  0 15  0  0  0  0  0  0
  1  2  3  0
  1  4  1  0
  2  3  1  0
  3  5  1  0
  3  6  1  0
  3  7  1  0
M  END
>  <reaction>  (5) 
rxn_247

>  <mol_properties>  (5) 
{"1": {"label": "*4", "atom_type": "Ct"}, "2": {"label": "*3", "atom_type": "Cs"}, "4": {"label": "*2", "atom_type": "H0"}, "7": {"label": "*1", "atom_type": "H0"}}

>  <type>  (5) 
unop_1

>  <geom_source>  (5) 
Heuristics

$$$$

     RDKit          3D

  8  6  0  0  0  0  0  0  0  0999 V2000
   -0.7406   -0.5285    0.0120 C   0  0  0  0  0  0  0  0  0  0  0  0
    0.6444   -0.0702   -0.0995 C   0  0  0  0  0  0  0  0  0  0  0  0
    1.7854    0.3076   -0.1914 C   0  0  0  0  0  0  0  0  0  0  0  0
   -0.9230   -0.9095    1.0379 H   0  0  0  0  0  0  0  0  0  0  0  0
   -0.9221   -1.3405   -0.7218 H   0  0  0  0  0  0  0  0  0  0  0  0
    2.7872    0.6392   -0.2722 H   0  0  0  0  0  0  0  0  0  0  0  0
   -1.4034    1.5746    0.2593 H   0  0  0  0  0 15  0  0  0  0  0  0
   -1.2279    0.3272   -0.0243 H   0  0  0  0  0  0  0  0  0  0  0  0
  1  2  1  0
  1  4  1  0
  1  5  1  0
  1  8  1  0
  2  3  3  0
  3  6  1  0
M  END
>  <reaction>  (6) 
rxn_247

>  <mol_properties>  (6) 
{"1": {"label": "*4", "atom_type": "Ct"}, "2": {"label": "*3", "atom_type": "Cs"}, "4": {"label": "*2", "atom_type": "H0"}, "7": {"label": "*1", "atom_type": "H0"}}

>  <type>  (6) 
unop_2

>  <geom_source>  (6) 
AutoTST

$$$$
