
     RDKit          3D

  9  8  0  0  0  0  0  0  0  0999 V2000
    1.1303   -0.2933   -0.7510 C   0  0  0  0  0  0  0  0  0  0  0  0
    0.2866    0.4560   -0.0588 C   0  0  0  0  0  0  0  0  0  0  0  0
   -0.9719   -0.0331    0.5823 C   0  0  0  0  0  0  0  0  0  0  0  0
    2.0274    0.1230   -1.1916 H   0  0  0  0  0  0  0  0  0  0  0  0
    0.9532   -1.3530   -0.9023 H   0  0  0  0  0  0  0  0  0  0  0  0
    0.5065    1.5132    0.0659 H   0  0  0  0  0  0  0  0  0  0  0  0
   -0.9526    0.1426    1.6610 H   0  0  0  0  0  0  0  0  0  0  0  0
   -1.1182   -1.1002    0.4106 H   0  0  0  0  0  0  0  0  0  0  0  0
   -1.8412    0.5010    0.1901 H   0  0  0  0  0  0  0  0  0  0  0  0
  1  2  2  3
  1  4  1  0
  1  5  1  0
  2  3  1  0
  2  6  1  0
  3  7  1  0
  3  8  1  0
  3  9  1  0
M  END
>  <reaction>  (1) 
rxn_1026

>  <mol_properties>  (1) 
{"2": {"label": "donator", "atom_type": "Cs"}, "6": {"label": "d_hydrogen", "atom_type": "H0"}}

>  <type>  (1) 
r1h

$$$$

     RDKit          3D

  9  8  0  0  0  0  0  0  0  0999 V2000
    2.3991   -0.1292   -0.2384 S   0  0  0  0  0  0  0  0  0  0  0  0
    0.7460    0.2807    0.0931 C   0  0  0  0  0  3  0  0  0  0  0  0
   -0.3131   -0.5719   -0.2043 C   0  0  0  0  0  0  0  0  0  0  0  0
   -0.2286   -1.8095   -0.7775 C   0  0  0  0  0  0  0  0  0  0  0  0
    2.9373    1.0009    0.2312 H   0  0  0  0  0  0  0  0  0  0  0  0
    0.5618    1.2421    0.5487 H   0  0  0  0  0  0  0  0  0  0  0  0
   -1.2978   -0.1954    0.0537 H   0  0  0  0  0  0  0  0  0  0  0  0
    0.7207   -2.2479   -1.0607 H   0  0  0  0  0  0  0  0  0  0  0  0
   -1.1177   -2.3938   -0.9670 H   0  0  0  0  0  0  0  0  0  0  0  0
  1  2  1  0
  1  5  1  0
  2  3  1  0
  2  6  1  0
  3  4  2  3
  3  7  1  0
  4  8  1  0
  4  9  1  0
M  RAD  1   2   2
M  END
>  <reaction>  (2) 
rxn_1026

>  <mol_properties>  (2) 
{"1": {"label": "acceptor", "atom_type": "Cs"}}

>  <type>  (2) 
r2

$$$$

     RDKit          3D

 10  9  0  0  0  0  0  0  0  0999 V2000
    2.2097   -0.5315    0.2575 S   0  0  0  0  0  0  0  0  0  0  0  0
    0.5401   -0.7188   -0.4494 C   0  0  0  0  0  0  0  0  0  0  0  0
   -0.5263   -0.1678    0.4365 C   0  0  0  0  0  0  0  0  0  0  0  0
   -1.3394    0.8185    0.0912 C   0  0  0  0  0  0  0  0  0  0  0  0
    2.1701    0.8016    0.3806 H   0  0  0  0  0  0  0  0  0  0  0  0
    0.4238   -1.7978   -0.5701 H   0  0  0  0  0  0  0  0  0  0  0  0
    0.5053   -0.2663   -1.4400 H   0  0  0  0  0  0  0  0  0  0  0  0
   -0.6005   -0.6141    1.4236 H   0  0  0  0  0  0  0  0  0  0  0  0
   -2.0960    1.1907    0.7700 H   0  0  0  0  0  0  0  0  0  0  0  0
   -1.2784    1.2877   -0.8850 H   0  0  0  0  0  0  0  0  0  0  0  0
  1  2  1  0
  1  5  1  0
  2  3  1  0
  2  6  1  0
  2  7  1  0
  3  4  2  3
  3  8  1  0
  4  9  1  0
  4 10  1  0
M  END
>  <reaction>  (3) 
rxn_1026

>  <mol_properties>  (3) 
{"1": {"label": "acceptor", "atom_type": "Cs"}, "9": {"label": "a_hydrogen", "atom_type": "H0"}}

>  <type>  (3) 
r2h

$$$$

     RDKit          3D

 18 16  0  0  0  0  0  0  0  0999 V2000
   -0.7525   -1.5525    1.4550 S   0  0  0  0  0  0  0  0  0  0  0  0
   -0.2348    0.1471    1.2548 C   0  0  0  0  0  3  0  0  0  0  0  0
   -1.0078    0.9889    0.3562 C   0  0  0  0  0  0  0  0  0  0  0  0
   -1.1496    2.3089    0.5033 C   0  0  0  0  0  0  0  0  0  0  0  0
   -2.0671   -1.3286    1.5969 H   0  0  0  0  0  0  0  0  0  0  0  0
    0.0768    0.6233    2.1822 H   0  0  0  0  0  0  0  0  0  0  0  0
   -1.4477    0.4938   -0.5041 H   0  0  0  0  0  0  0  0  0  0  0  0
   -0.7248    2.8337    1.3517 H   0  0  0  0  0  0  0  0  0  0  0  0
   -1.6996    2.8982   -0.2185 H   0  0  0  0  0  0  0  0  0  0  0  0
    1.2630    0.2217   -2.3931 C   0  0  0  0  0  0  0  0  0  0  0  0
    1.6336   -0.5997   -1.4036 C   0  0  0  0  0  0  0  0  0  0  0  0
    2.0783   -0.1574   -0.0984 C   0  0  0  0  0  0  0  0  0  0  0  0
    0.8925   -0.1602   -3.3353 H   0  0  0  0  0  0  0  0  0  0  0  0
    1.3322    1.2985   -2.2856 H   0  0  0  0  0  0  0  0  0  0  0  0
    1.5351   -1.6709   -1.5508 H   0  0  0  0  0  0  0  0  0  0  0  0
    0.9482   -0.0382    0.6250 H   0  0  0  0  0  0  0  0  0  0  0  0
    2.4427    0.8659   -0.0383 H   0  0  0  0  0  0  0  0  0  0  0  0
    2.6610   -0.8633    0.4865 H   0  0  0  0  0  0  0  0  0  0  0  0
  1  2  1  0
  1  5  1  0
  2  3  1  0
  2  6  1  0
  3  4  2  3
  3  7  1  0
  4  8  1  0
  4  9  1  0
 10 11  2  3
 10 13  1  0
 10 14  1  0
 11 12  1  0
 11 15  1  0
 12 16  1  0
 12 17  1  0
 12 18  1  0
M  RAD  1   2   2
M  END
>  <reaction>  (4) 
rxn_1026

>  <mol_properties>  (4) 
{"0": {"label": "*4", "atom_type": "S2s"}, "1": {"label": "*3", "atom_type": "Cs"}, "10": {"label": "*0", "atom_type": "Cd"}, "11": {"label": "*1", "atom_type": "Cs"}, "15": {"label": "*2", "atom_type": "H0"}}

>  <type>  (4) 
ts

$$$$

     RDKit          3D

 18 16  0  0  0  0  0  0  0  0999 V2000
    0.2030    0.3408    2.1915 S   0  0  0  0  0  0  0  0  0  0  0  0
   -0.4968    0.3231    0.5085 C   0  0  0  0  0  0  0  0  0  0  0  0
   -1.8925   -0.2024    0.4700 C   0  0  0  0  0  0  0  0  0  0  0  0
   -2.9364    0.4985    0.0547 C   0  0  0  0  0  0  0  0  0  0  0  0
   -0.7401    1.1203    2.7363 H   0  0  0  0  0  0  0  0  0  0  0  0
   -0.4365    1.3200    0.0727 H   0  0  0  0  0  0  0  0  0  0  0  0
   -2.0268   -1.2186    0.8279 H   0  0  0  0  0  0  0  0  0  0  0  0
   -2.8298    1.5189   -0.2976 H   0  0  0  0  0  0  0  0  0  0  0  0
   -3.9335    0.0774    0.0498 H   0  0  0  0  0  0  0  0  0  0  0  0
    1.6086   -0.9401   -3.2378 C   0  0  0  0  0  0  0  0  0  0  0  0
    1.6086   -0.9401   -1.9141 C   0  0  0  0  0  0  0  0  0  0  0  0
    1.6086    0.2821   -1.0536 C   0  0  0  0  0  3  0  0  0  0  0  0
    1.6086   -1.8628   -3.8043 H   0  0  0  0  0  0  0  0  0  0  0  0
    1.6086   -0.0145   -3.8038 H   0  0  0  0  0  0  0  0  0  0  0  0
    1.6086   -1.8927   -1.3905 H   0  0  0  0  0  0  0  0  0  0  0  0
    0.5554    0.3026   -0.2721 H   0  0  0  0  0  0  0  0  0  0  0  0
    1.6086    1.1925   -1.6541 H   0  0  0  0  0  0  0  0  0  0  0  0
    2.4863    0.2992   -0.4023 H   0  0  0  0  0  0  0  0  0  0  0  0
  1  2  1  0
  1  5  1  0
  2  3  1  0
  2  6  1  0
  2 16  1  0
  3  4  2  3
  3  7  1  0
  4  8  1  0
  4  9  1  0
 10 11  2  3
 10 13  1  0
 10 14  1  0
 11 12  1  0
 11 15  1  0
 12 17  1  0
 12 18  1  0
M  RAD  1  12   2
M  END
>  <reaction>  (5) 
rxn_1026

>  <mol_properties>  (5) 
{"0": {"label": "*4", "atom_type": "S2s"}, "1": {"label": "*3", "atom_type": "Cs"}, "10": {"label": "*0", "atom_type": "Cd"}, "11": {"label": "*1", "atom_type": "Cs"}, "15": {"label": "*2", "atom_type": "H0"}}

>  <type>  (5) 
unop_1

>  <geom_source>  (5) 
Heuristics

$$$$

     RDKit          3D

 18 16  0  0  0  0  0  0  0  0999 V2000
   -0.6884   -1.2795    1.0817 S   0  0  0  0  0  0  0  0  0  0  0  0
   -0.3185    0.4820    0.7938 C   0  0  0  0  0  0  0  0  0  0  0  0
   -1.5458    1.2994    0.5674 C   0  0  0  0  0  0  0  0  0  0  0  0
   -1.9167    2.3081    1.3408 C   0  0  0  0  0  0  0  0  0  0  0  0
   -1.4818   -1.0927    2.1445 H   0  0  0  0  0  0  0  0  0  0  0  0
    0.2726    0.8754    1.6202 H   0  0  0  0  0  0  0  0  0  0  0  0
   -2.1580    1.0108   -0.2816 H   0  0  0  0  0  0  0  0  0  0  0  0
   -1.3279    2.6091    2.2007 H   0  0  0  0  0  0  0  0  0  0  0  0
   -2.8199    2.8703    1.1413 H   0  0  0  0  0  0  0  0  0  0  0  0
    1.7869   -0.7812   -2.9526 C   0  0  0  0  0  0  0  0  0  0  0  0
    1.7869   -0.7812   -1.6288 C   0  0  0  0  0  0  0  0  0  0  0  0
    1.7869    0.4409   -0.7683 C   0  0  0  0  0  3  0  0  0  0  0  0
    1.7869   -1.7040   -3.5190 H   0  0  0  0  0  0  0  0  0  0  0  0
    1.7869    0.1444   -3.5186 H   0  0  0  0  0  0  0  0  0  0  0  0
    1.7869   -1.7339   -1.1053 H   0  0  0  0  0  0  0  0  0  0  0  0
    0.7336    0.4615    0.0132 H   0  0  0  0  0  0  0  0  0  0  0  0
    1.7869    1.3514   -1.3689 H   0  0  0  0  0  0  0  0  0  0  0  0
    2.6646    0.4580   -0.1171 H   0  0  0  0  0  0  0  0  0  0  0  0
  1  2  1  0
  1  5  1  0
  2  3  1  0
  2  6  1  0
  2 16  1  0
  3  4  2  3
  3  7  1  0
  4  8  1  0
  4  9  1  0
 10 11  2  3
 10 13  1  0
 10 14  1  0
 11 12  1  0
 11 15  1  0
 12 17  1  0
 12 18  1  0
M  RAD  1  12   2
M  END
>  <reaction>  (6) 
rxn_1026

>  <mol_properties>  (6) 
{"0": {"label": "*4", "atom_type": "S2s"}, "1": {"label": "*3", "atom_type": "Cs"}, "10": {"label": "*0", "atom_type": "Cd"}, "11": {"label": "*1", "atom_type": "Cs"}, "15": {"label": "*2", "atom_type": "H0"}}

>  <type>  (6) 
unop_2

>  <geom_source>  (6) 
Heuristics

$$$$

     RDKit          3D

 18 16  0  0  0  0  0  0  0  0999 V2000
    0.0369    1.2008    1.9688 S   0  0  0  0  0  0  0  0  0  0  0  0
   -0.5297    0.3004    0.4887 C   0  0  0  0  0  0  0  0  0  0  0  0
   -1.5046   -0.7821    0.8104 C   0  0  0  0  0  0  0  0  0  0  0  0
   -2.7461   -0.8207    0.3517 C   0  0  0  0  0  0  0  0  0  0  0  0
   -1.1764    1.5962    2.3756 H   0  0  0  0  0  0  0  0  0  0  0  0
   -0.9417    1.0023   -0.2357 H   0  0  0  0  0  0  0  0  0  0  0  0
   -1.1465   -1.5600    1.4779 H   0  0  0  0  0  0  0  0  0  0  0  0
   -3.1307   -0.0501   -0.3079 H   0  0  0  0  0  0  0  0  0  0  0  0
   -3.4214   -1.6240    0.6168 H   0  0  0  0  0  0  0  0  0  0  0  0
    1.5757   -0.9628   -3.2576 C   0  0  0  0  0  0  0  0  0  0  0  0
    1.5757   -0.9628   -1.9339 C   0  0  0  0  0  0  0  0  0  0  0  0
    1.5757    0.2594   -1.0734 C   0  0  0  0  0  3  0  0  0  0  0  0
    1.5757   -1.8856   -3.8241 H   0  0  0  0  0  0  0  0  0  0  0  0
    1.5757   -0.0372   -3.8236 H   0  0  0  0  0  0  0  0  0  0  0  0
    1.5757   -1.9155   -1.4104 H   0  0  0  0  0  0  0  0  0  0  0  0
    0.5225    0.2799   -0.2919 H   0  0  0  0  0  0  0  0  0  0  0  0
    1.5757    1.1698   -1.6740 H   0  0  0  0  0  0  0  0  0  0  0  0
    2.4535    0.2765   -0.4222 H   0  0  0  0  0  0  0  0  0  0  0  0
  1  2  1  0
  1  5  1  0
  2  3  1  0
  2  6  1  0
  2 16  1  0
  3  4  2  3
  3  7  1  0
  4  8  1  0
  4  9  1  0
 10 11  2  3
 10 13  1  0
 10 14  1  0
 11 12  1  0
 11 15  1  0
 12 17  1  0
 12 18  1  0
M  RAD  1  12   2
M  END
>  <reaction>  (7) 
rxn_1026

>  <mol_properties>  (7) 
{"0": {"label": "*4", "atom_type": "S2s"}, "1": {"label": "*3", "atom_type": "Cs"}, "10": {"label": "*0", "atom_type": "Cd"}, "11": {"label": "*1", "atom_type": "Cs"}, "15": {"label": "*2", "atom_type": "H0"}}

>  <type>  (7) 
unop_3

>  <geom_source>  (7) 
Heuristics

$$$$

     RDKit          3D

 18 16  0  0  0  0  0  0  0  0999 V2000
   -1.8808   -0.0986   -0.1311 S   0  0  0  0  0  0  0  0  0  0  0  0
   -0.4727   -0.0948    1.0264 C   0  0  0  0  0  0  0  0  0  0  0  0
    0.0131    1.2807    1.3388 C   0  0  0  0  0  0  0  0  0  0  0  0
    0.0187    1.8057    2.5544 C   0  0  0  0  0  0  0  0  0  0  0  0
   -2.6906    0.6612    0.6177 H   0  0  0  0  0  0  0  0  0  0  0  0
   -0.7385   -0.6367    1.9335 H   0  0  0  0  0  0  0  0  0  0  0  0
    0.3594    1.8653    0.4919 H   0  0  0  0  0  0  0  0  0  0  0  0
   -0.3318    1.2460    3.4150 H   0  0  0  0  0  0  0  0  0  0  0  0
    0.3756    2.8118    2.7334 H   0  0  0  0  0  0  0  0  0  0  0  0
    1.6327   -1.3580   -2.7200 C   0  0  0  0  0  0  0  0  0  0  0  0
    1.6327   -1.3580   -1.3962 C   0  0  0  0  0  0  0  0  0  0  0  0
    1.6327   -0.1358   -0.5357 C   0  0  0  0  0  3  0  0  0  0  0  0
    1.6327   -2.2807   -3.2864 H   0  0  0  0  0  0  0  0  0  0  0  0
    1.6327   -0.4324   -3.2860 H   0  0  0  0  0  0  0  0  0  0  0  0
    1.6327   -2.3106   -0.8727 H   0  0  0  0  0  0  0  0  0  0  0  0
    0.5794   -0.1153    0.2458 H   0  0  0  0  0  0  0  0  0  0  0  0
    1.6327    0.7746   -1.1363 H   0  0  0  0  0  0  0  0  0  0  0  0
    2.5104   -0.1187    0.1155 H   0  0  0  0  0  0  0  0  0  0  0  0
  1  2  1  0
  1  5  1  0
  2  3  1  0
  2  6  1  0
  2 16  1  0
  3  4  2  3
  3  7  1  0
  4  8  1  0
  4  9  1  0
 10 11  2  3
 10 13  1  0
 10 14  1  0
 11 12  1  0
 11 15  1  0
 12 17  1  0
 12 18  1  0
M  RAD  1  12   2
M  END
>  <reaction>  (8) 
rxn_1026

>  <mol_properties>  (8) 
{"0": {"label": "*4", "atom_type": "S2s"}, "1": {"label": "*3", "atom_type": "Cs"}, "10": {"label": "*0", "atom_type": "Cd"}, "11": {"label": "*1", "atom_type": "Cs"}, "15": {"label": "*2", "atom_type": "H0"}}

>  <type>  (8) 
unop_4

>  <geom_source>  (8) 
Heuristics

$$$$

     RDKit          3D

 18 16  0  0  0  0  0  0  0  0999 V2000
   -0.4836    1.7980    1.3917 S   0  0  0  0  0  0  0  0  0  0  0  0
   -0.6702    0.2543    0.4407 C   0  0  0  0  0  0  0  0  0  0  0  0
   -0.7074   -0.9575    1.3100 C   0  0  0  0  0  0  0  0  0  0  0  0
   -1.7341   -1.7912    1.3746 C   0  0  0  0  0  0  0  0  0  0  0  0
   -1.5797    1.6415    2.1454 H   0  0  0  0  0  0  0  0  0  0  0  0
   -1.5548    0.3150   -0.1926 H   0  0  0  0  0  0  0  0  0  0  0  0
    0.1701   -1.1260    1.9269 H   0  0  0  0  0  0  0  0  0  0  0  0
   -2.6261   -1.6390    0.7764 H   0  0  0  0  0  0  0  0  0  0  0  0
   -1.7193   -2.6561    2.0253 H   0  0  0  0  0  0  0  0  0  0  0  0
    1.4352   -1.0089   -3.3057 C   0  0  0  0  0  0  0  0  0  0  0  0
    1.4352   -1.0089   -1.9819 C   0  0  0  0  0  0  0  0  0  0  0  0
    1.4352    0.2133   -1.1214 C   0  0  0  0  0  3  0  0  0  0  0  0
    1.4352   -1.9317   -3.8722 H   0  0  0  0  0  0  0  0  0  0  0  0
    1.4352   -0.0833   -3.8717 H   0  0  0  0  0  0  0  0  0  0  0  0
    1.4352   -1.9616   -1.4584 H   0  0  0  0  0  0  0  0  0  0  0  0
    0.3820    0.2338   -0.3399 H   0  0  0  0  0  0  0  0  0  0  0  0
    1.4352    1.1237   -1.7220 H   0  0  0  0  0  0  0  0  0  0  0  0
    2.3129    0.2304   -0.4702 H   0  0  0  0  0  0  0  0  0  0  0  0
  1  2  1  0
  1  5  1  0
  2  3  1  0
  2  6  1  0
  2 16  1  0
  3  4  2  3
  3  7  1  0
  4  8  1  0
  4  9  1  0
 10 11  2  3
 10 13  1  0
 10 14  1  0
 11 12  1  0
 11 15  1  0
 12 17  1  0
 12 18  1  0
M  RAD  1  12   2
M  END
>  <reaction>  (9) 
rxn_1026

>  <mol_properties>  (9) 
{"0": {"label": "*4", "atom_type": "S2s"}, "1": {"label": "*3", "atom_type": "Cs"}, "10": {"label": "*0", "atom_type": "Cd"}, "11": {"label": "*1", "atom_type": "Cs"}, "15": {"label": "*2", "atom_type": "H0"}}

>  <type>  (9) 
unop_5

>  <geom_source>  (9) 
Heuristics

$$$$

     RDKit          3D

 18 16  0  0  0  0  0  0  0  0999 V2000
   -1.9023    0.6999   -0.1092 S   0  0  0  0  0  0  0  0  0  0  0  0
   -0.6434   -0.1818    0.8706 C   0  0  0  0  0  0  0  0  0  0  0  0
    0.2991    0.7432    1.5648 C   0  0  0  0  0  0  0  0  0  0  0  0
    0.4436    0.8035    2.8796 C   0  0  0  0  0  0  0  0  0  0  0  0
   -2.4089    1.4117    0.9060 H   0  0  0  0  0  0  0  0  0  0  0  0
   -1.1290   -0.8554    1.5760 H   0  0  0  0  0  0  0  0  0  0  0  0
    0.8726    1.4053    0.9233 H   0  0  0  0  0  0  0  0  0  0  0  0
   -0.1254    0.1600    3.5423 H   0  0  0  0  0  0  0  0  0  0  0  0
    1.1365    1.4957    3.3404 H   0  0  0  0  0  0  0  0  0  0  0  0
    1.4620   -1.4451   -2.8758 C   0  0  0  0  0  0  0  0  0  0  0  0
    1.4620   -1.4451   -1.5520 C   0  0  0  0  0  0  0  0  0  0  0  0
    1.4620   -0.2229   -0.6915 C   0  0  0  0  0  3  0  0  0  0  0  0
    1.4620   -2.3678   -3.4422 H   0  0  0  0  0  0  0  0  0  0  0  0
    1.4620   -0.5195   -3.4418 H   0  0  0  0  0  0  0  0  0  0  0  0
    1.4620   -2.3977   -1.0285 H   0  0  0  0  0  0  0  0  0  0  0  0
    0.4088   -0.2024    0.0900 H   0  0  0  0  0  0  0  0  0  0  0  0
    1.4620    0.6876   -1.2921 H   0  0  0  0  0  0  0  0  0  0  0  0
    2.3397   -0.2058   -0.0403 H   0  0  0  0  0  0  0  0  0  0  0  0
  1  2  1  0
  1  5  1  0
  2  3  1  0
  2  6  1  0
  2 16  1  0
  3  4  2  3
  3  7  1  0
  4  8  1  0
  4  9  1  0
 10 11  2  3
 10 13  1  0
 10 14  1  0
 11 12  1  0
 11 15  1  0
 12 17  1  0
 12 18  1  0
M  RAD  1  12   2
M  END
>  <reaction>  (10) 
rxn_1026

>  <mol_properties>  (10) 
{"0": {"label": "*4", "atom_type": "S2s"}, "1": {"label": "*3", "atom_type": "Cs"}, "10": {"label": "*0", "atom_type": "Cd"}, "11": {"label": "*1", "atom_type": "Cs"}, "15": {"label": "*2", "atom_type": "H0"}}

>  <type>  (10) 
unop_6

>  <geom_source>  (10) 
Heuristics

$$$$

     RDKit          3D

 18 16  0  0  0  0  0  0  0  0999 V2000
   -1.6486    1.4058    0.2002 S   0  0  0  0  0  0  0  0  0  0  0  0
   -0.7812   -0.1271    0.6694 C   0  0  0  0  0  0  0  0  0  0  0  0
    0.3219    0.1102    1.6453 C   0  0  0  0  0  0  0  0  0  0  0  0
    0.3640   -0.4191    2.8583 C   0  0  0  0  0  0  0  0  0  0  0  0
   -2.0173    1.7532    1.4401 H   0  0  0  0  0  0  0  0  0  0  0  0
   -1.4970   -0.8551    1.0499 H   0  0  0  0  0  0  0  0  0  0  0  0
    1.1129    0.7763    1.3144 H   0  0  0  0  0  0  0  0  0  0  0  0
   -0.4190   -1.0791    3.2160 H   0  0  0  0  0  0  0  0  0  0  0  0
    1.1828   -0.2139    3.5359 H   0  0  0  0  0  0  0  0  0  0  0  0
    1.3242   -1.3903   -3.0770 C   0  0  0  0  0  0  0  0  0  0  0  0
    1.3242   -1.3903   -1.7532 C   0  0  0  0  0  0  0  0  0  0  0  0
    1.3242   -0.1682   -0.8927 C   0  0  0  0  0  3  0  0  0  0  0  0
    1.3242   -2.3131   -3.6434 H   0  0  0  0  0  0  0  0  0  0  0  0
    1.3242   -0.4647   -3.6430 H   0  0  0  0  0  0  0  0  0  0  0  0
    1.3242   -2.3430   -1.2297 H   0  0  0  0  0  0  0  0  0  0  0  0
    0.2709   -0.1476   -0.1112 H   0  0  0  0  0  0  0  0  0  0  0  0
    1.3242    0.7423   -1.4933 H   0  0  0  0  0  0  0  0  0  0  0  0
    2.2019   -0.1510   -0.2415 H   0  0  0  0  0  0  0  0  0  0  0  0
  1  2  1  0
  1  5  1  0
  2  3  1  0
  2  6  1  0
  2 16  1  0
  3  4  2  3
  3  7  1  0
  4  8  1  0
  4  9  1  0
 10 11  2  3
 10 13  1  0
 10 14  1  0
 11 12  1  0
 11 15  1  0
 12 17  1  0
 12 18  1  0
M  RAD  1  12   2
M  END
>  <reaction>  (11) 
rxn_1026

>  <mol_properties>  (11) 
{"0": {"label": "*4", "atom_type": "S2s"}, "1": {"label": "*3", "atom_type": "Cs"}, "10": {"label": "*0", "atom_type": "Cd"}, "11": {"label": "*1", "atom_type": "Cs"}, "15": {"label": "*2", "atom_type": "H0"}}

>  <type>  (11) 
unop_7

>  <geom_source>  (11) 
Heuristics

$$$$

     RDKit          3D

 18 16  0  0  0  0  0  0  0  0999 V2000
    0.0756   -0.4669    2.0400 S   0  0  0  0  0  0  0  0  0  0  0  0
   -0.4752    0.4010    0.5348 C   0  0  0  0  0  0  0  0  0  0  0  0
   -1.9591    0.4044    0.3815 C   0  0  0  0  0  0  0  0  0  0  0  0
   -2.6971    1.5031    0.3436 C   0  0  0  0  0  0  0  0  0  0  0  0
   -0.6092    0.2904    2.9070 H   0  0  0  0  0  0  0  0  0  0  0  0
   -0.0734    1.4138    0.5242 H   0  0  0  0  0  0  0  0  0  0  0  0
   -2.4317   -0.5711    0.3176 H   0  0  0  0  0  0  0  0  0  0  0  0
   -2.2499    2.4888    0.4159 H   0  0  0  0  0  0  0  0  0  0  0  0
   -3.7733    1.4573    0.2369 H   0  0  0  0  0  0  0  0  0  0  0  0
    1.6302   -0.8622   -3.2116 C   0  0  0  0  0  0  0  0  0  0  0  0
    1.6302   -0.8622   -1.8878 C   0  0  0  0  0  0  0  0  0  0  0  0
    1.6302    0.3600   -1.0273 C   0  0  0  0  0  3  0  0  0  0  0  0
    1.6302   -1.7849   -3.7781 H   0  0  0  0  0  0  0  0  0  0  0  0
    1.6302    0.0634   -3.7776 H   0  0  0  0  0  0  0  0  0  0  0  0
    1.6302   -1.8148   -1.3643 H   0  0  0  0  0  0  0  0  0  0  0  0
    0.5770    0.3805   -0.2459 H   0  0  0  0  0  0  0  0  0  0  0  0
    1.6302    1.2704   -1.6279 H   0  0  0  0  0  0  0  0  0  0  0  0
    2.5080    0.3771   -0.3761 H   0  0  0  0  0  0  0  0  0  0  0  0
  1  2  1  0
  1  5  1  0
  2  3  1  0
  2  6  1  0
  2 16  1  0
  3  4  2  3
  3  7  1  0
  4  8  1  0
  4  9  1  0
 10 11  2  3
 10 13  1  0
 10 14  1  0
 11 12  1  0
 11 15  1  0
 12 17  1  0
 12 18  1  0
M  RAD  1  12   2
M  END
>  <reaction>  (12) 
rxn_1026

>  <mol_properties>  (12) 
{"0": {"label": "*4", "atom_type": "S2s"}, "1": {"label": "*3", "atom_type": "Cs"}, "10": {"label": "*0", "atom_type": "Cd"}, "11": {"label": "*1", "atom_type": "Cs"}, "15": {"label": "*2", "atom_type": "H0"}}

>  <type>  (12) 
unop_8

>  <geom_source>  (12) 
Heuristics

$$$$

     RDKit          3D

 18 16  0  0  0  0  0  0  0  0999 V2000
   -1.6020   -0.7819    0.1204 S   0  0  0  0  0  0  0  0  0  0  0  0
   -0.3273    0.1047    1.0751 C   0  0  0  0  0  0  0  0  0  0  0  0
   -0.4929    1.5864    1.0210 C   0  0  0  0  0  0  0  0  0  0  0  0
   -0.7061    2.3468    2.0838 C   0  0  0  0  0  0  0  0  0  0  0  0
   -2.6557   -0.2779    0.7760 H   0  0  0  0  0  0  0  0  0  0  0  0
   -0.3181   -0.2557    2.1033 H   0  0  0  0  0  0  0  0  0  0  0  0
   -0.4478    2.0330    0.0324 H   0  0  0  0  0  0  0  0  0  0  0  0
   -0.7657    1.9234    3.0808 H   0  0  0  0  0  0  0  0  0  0  0  0
   -0.8264    3.4190    1.9962 H   0  0  0  0  0  0  0  0  0  0  0  0
    1.7781   -1.1585   -2.6713 C   0  0  0  0  0  0  0  0  0  0  0  0
    1.7781   -1.1585   -1.3475 C   0  0  0  0  0  0  0  0  0  0  0  0
    1.7781    0.0637   -0.4870 C   0  0  0  0  0  3  0  0  0  0  0  0
    1.7781   -2.0812   -3.2378 H   0  0  0  0  0  0  0  0  0  0  0  0
    1.7781   -0.2329   -3.2373 H   0  0  0  0  0  0  0  0  0  0  0  0
    1.7781   -2.1111   -0.8240 H   0  0  0  0  0  0  0  0  0  0  0  0
    0.7249    0.0842    0.2944 H   0  0  0  0  0  0  0  0  0  0  0  0
    1.7781    0.9741   -1.0876 H   0  0  0  0  0  0  0  0  0  0  0  0
    2.6558    0.0808    0.1642 H   0  0  0  0  0  0  0  0  0  0  0  0
  1  2  1  0
  1  5  1  0
  2  3  1  0
  2  6  1  0
  2 16  1  0
  3  4  2  3
  3  7  1  0
  4  8  1  0
  4  9  1  0
 10 11  2  3
 10 13  1  0
 10 14  1  0
 11 12  1  0
 11 15  1  0
 12 17  1  0
 12 18  1  0
M  RAD  1  12   2
M  END
>  <reaction>  (13) 
rxn_1026

>  <mol_properties>  (13) 
{"0": {"label": "*4", "atom_type": "S2s"}, "1": {"label": "*3", "atom_type": "Cs"}, "10": {"label": "*0", "atom_type": "Cd"}, "11": {"label": "*1", "atom_type": "Cs"}, "15": {"label": "*2", "atom_type": "H0"}}

>  <type>  (13) 
unop_9

>  <geom_source>  (13) 
Heuristics

$$$$

     RDKit          3D

 18 16  0  0  0  0  0  0  0  0999 V2000
   -0.2525   -1.0360    1.6206 S   0  0  0  0  0  0  0  0  0  0  0  0
   -0.4117    0.4831    0.6259 C   0  0  0  0  0  0  0  0  0  0  0  0
   -1.8303    0.9083    0.4458 C   0  0  0  0  0  0  0  0  0  0  0  0
   -2.3154    2.0661    0.8670 C   0  0  0  0  0  0  0  0  0  0  0  0
   -0.8744   -0.5662    2.7098 H   0  0  0  0  0  0  0  0  0  0  0  0
    0.1873    1.2787    1.0679 H   0  0  0  0  0  0  0  0  0  0  0  0
   -2.4806    0.1934   -0.0491 H   0  0  0  0  0  0  0  0  0  0  0  0
   -1.6887    2.7926    1.3732 H   0  0  0  0  0  0  0  0  0  0  0  0
   -3.3547    2.3302    0.7194 H   0  0  0  0  0  0  0  0  0  0  0  0
    1.6937   -0.7801   -3.1204 C   0  0  0  0  0  0  0  0  0  0  0  0
    1.6937   -0.7801   -1.7967 C   0  0  0  0  0  0  0  0  0  0  0  0
    1.6937    0.4421   -0.9362 C   0  0  0  0  0  3  0  0  0  0  0  0
    1.6937   -1.7029   -3.6869 H   0  0  0  0  0  0  0  0  0  0  0  0
    1.6937    0.1455   -3.6864 H   0  0  0  0  0  0  0  0  0  0  0  0
    1.6937   -1.7328   -1.2731 H   0  0  0  0  0  0  0  0  0  0  0  0
    0.6405    0.4626   -0.1547 H   0  0  0  0  0  0  0  0  0  0  0  0
    1.6937    1.3525   -1.5367 H   0  0  0  0  0  0  0  0  0  0  0  0
    2.5714    0.4592   -0.2849 H   0  0  0  0  0  0  0  0  0  0  0  0
  1  2  1  0
  1  5  1  0
  2  3  1  0
  2  6  1  0
  2 16  1  0
  3  4  2  3
  3  7  1  0
  4  8  1  0
  4  9  1  0
 10 11  2  3
 10 13  1  0
 10 14  1  0
 11 12  1  0
 11 15  1  0
 12 17  1  0
 12 18  1  0
M  RAD  1  12   2
M  END
>  <reaction>  (14) 
rxn_1026

>  <mol_properties>  (14) 
{"0": {"label": "*4", "atom_type": "S2s"}, "1": {"label": "*3", "atom_type": "Cs"}, "10": {"label": "*0", "atom_type": "Cd"}, "11": {"label": "*1", "atom_type": "Cs"}, "15": {"label": "*2", "atom_type": "H0"}}

>  <type>  (14) 
unop_10

>  <geom_source>  (14) 
Heuristics

$$$$

     RDKit          3D

 18 16  0  0  0  0  0  0  0  0999 V2000
   -1.1486    1.8333    0.7315 S   0  0  0  0  0  0  0  0  0  0  0  0
   -0.8103    0.0580    0.4940 C   0  0  0  0  0  0  0  0  0  0  0  0
    0.0234   -0.5214    1.5871 C   0  0  0  0  0  0  0  0  0  0  0  0
   -0.3758   -1.5021    2.3822 C   0  0  0  0  0  0  0  0  0  0  0  0
   -1.7385    1.7132    1.9280 H   0  0  0  0  0  0  0  0  0  0  0  0
   -1.7481   -0.4850    0.3806 H   0  0  0  0  0  0  0  0  0  0  0  0
    1.0045   -0.0763    1.7222 H   0  0  0  0  0  0  0  0  0  0  0  0
   -1.3551   -1.9561    2.2742 H   0  0  0  0  0  0  0  0  0  0  0  0
    0.2618   -1.8876    3.1674 H   0  0  0  0  0  0  0  0  0  0  0  0
    1.2951   -1.2052   -3.2524 C   0  0  0  0  0  0  0  0  0  0  0  0
    1.2951   -1.2052   -1.9287 C   0  0  0  0  0  0  0  0  0  0  0  0
    1.2951    0.0170   -1.0681 C   0  0  0  0  0  3  0  0  0  0  0  0
    1.2951   -2.1279   -3.8189 H   0  0  0  0  0  0  0  0  0  0  0  0
    1.2951   -0.2796   -3.8184 H   0  0  0  0  0  0  0  0  0  0  0  0
    1.2951   -2.1578   -1.4051 H   0  0  0  0  0  0  0  0  0  0  0  0
    0.2419    0.0375   -0.2867 H   0  0  0  0  0  0  0  0  0  0  0  0
    1.2951    0.9274   -1.6687 H   0  0  0  0  0  0  0  0  0  0  0  0
    2.1728    0.0341   -0.4169 H   0  0  0  0  0  0  0  0  0  0  0  0
  1  2  1  0
  1  5  1  0
  2  3  1  0
  2  6  1  0
  2 16  1  0
  3  4  2  3
  3  7  1  0
  4  8  1  0
  4  9  1  0
 10 11  2  3
 10 13  1  0
 10 14  1  0
 11 12  1  0
 11 15  1  0
 12 17  1  0
 12 18  1  0
M  RAD  1  12   2
M  END
>  <reaction>  (15) 
rxn_1026

>  <mol_properties>  (15) 
{"0": {"label": "*4", "atom_type": "S2s"}, "1": {"label": "*3", "atom_type": "Cs"}, "10": {"label": "*0", "atom_type": "Cd"}, "11": {"label": "*1", "atom_type": "Cs"}, "15": {"label": "*2", "atom_type": "H0"}}

>  <type>  (15) 
unop_11

>  <geom_source>  (15) 
Heuristics

$$$$

     RDKit          3D

 18 16  0  0  0  0  0  0  0  0999 V2000
   -1.1628   -1.1917    0.5549 S   0  0  0  0  0  0  0  0  0  0  0  0
   -0.2680    0.3382    0.9805 C   0  0  0  0  0  0  0  0  0  0  0  0
   -1.0801    1.5666    0.7413 C   0  0  0  0  0  0  0  0  0  0  0  0
   -1.4183    2.4269    1.6894 C   0  0  0  0  0  0  0  0  0  0  0  0
   -2.1974   -0.9936    1.3821 H   0  0  0  0  0  0  0  0  0  0  0  0
    0.0802    0.2880    2.0117 H   0  0  0  0  0  0  0  0  0  0  0  0
   -1.4120    1.7244   -0.2804 H   0  0  0  0  0  0  0  0  0  0  0  0
   -1.1080    2.2860    2.7193 H   0  0  0  0  0  0  0  0  0  0  0  0
   -2.0148    3.3031    1.4703 H   0  0  0  0  0  0  0  0  0  0  0  0
    1.8374   -0.9251   -2.7659 C   0  0  0  0  0  0  0  0  0  0  0  0
    1.8374   -0.9251   -1.4421 C   0  0  0  0  0  0  0  0  0  0  0  0
    1.8374    0.2971   -0.5816 C   0  0  0  0  0  3  0  0  0  0  0  0
    1.8374   -1.8478   -3.3323 H   0  0  0  0  0  0  0  0  0  0  0  0
    1.8374    0.0005   -3.3319 H   0  0  0  0  0  0  0  0  0  0  0  0
    1.8374   -1.8777   -0.9186 H   0  0  0  0  0  0  0  0  0  0  0  0
    0.7841    0.3177    0.1999 H   0  0  0  0  0  0  0  0  0  0  0  0
    1.8374    1.2076   -1.1822 H   0  0  0  0  0  0  0  0  0  0  0  0
    2.7151    0.3142    0.0696 H   0  0  0  0  0  0  0  0  0  0  0  0
  1  2  1  0
  1  5  1  0
  2  3  1  0
  2  6  1  0
  2 16  1  0
  3  4  2  3
  3  7  1  0
  4  8  1  0
  4  9  1  0
 10 11  2  3
 10 13  1  0
 10 14  1  0
 11 12  1  0
 11 15  1  0
 12 17  1  0
 12 18  1  0
M  RAD  1  12   2
M  END
>  <reaction>  (16) 
rxn_1026

>  <mol_properties>  (16) 
{"0": {"label": "*4", "atom_type": "S2s"}, "1": {"label": "*3", "atom_type": "Cs"}, "10": {"label": "*0", "atom_type": "Cd"}, "11": {"label": "*1", "atom_type": "Cs"}, "15": {"label": "*2", "atom_type": "H0"}}

>  <type>  (16) 
unop_12

>  <geom_source>  (16) 
Heuristics

$$$$

     RDKit          3D

 18 16  0  0  0  0  0  0  0  0999 V2000
   -0.4477   -0.8448   -1.9238 S   0  0  0  0  0  0  0  0  0  0  0  0
   -1.0011    0.4173   -0.7353 C   0  0  0  0  0  3  0  0  0  0  0  0
   -2.4340    0.1927   -0.3544 C   0  0  0  0  0  0  0  0  0  0  0  0
    2.2812    0.6924    0.1904 C   0  0  0  0  0  0  0  0  0  0  0  0
   -2.7938   -0.8044    0.4579 C   0  0  0  0  0  0  0  0  0  0  0  0
    0.9960    0.5712    0.9444 C   0  0  0  0  0  0  0  0  0  0  0  0
    3.0133   -0.3867   -0.0899 C   0  0  0  0  0  0  0  0  0  0  0  0
   -0.9044    1.4139   -1.2147 H   0  0  0  0  0  0  0  0  0  0  0  0
   -0.2140    0.3920    0.3671 H   0  0  0  0  0  0  0  0  0  0  0  0
   -3.1919    0.8796   -0.7192 H   0  0  0  0  0  0  0  0  0  0  0  0
    2.6161    1.6699   -0.1439 H   0  0  0  0  0  0  0  0  0  0  0  0
   -2.0572   -1.4927    0.8606 H   0  0  0  0  0  0  0  0  0  0  0  0
   -3.8364   -0.9329    0.7300 H   0  0  0  0  0  0  0  0  0  0  0  0
    2.6952   -1.3752    0.2283 H   0  0  0  0  0  0  0  0  0  0  0  0
    3.9412   -0.2847   -0.6433 H   0  0  0  0  0  0  0  0  0  0  0  0
    1.1895    0.1772    1.9644 H   0  0  0  0  0  0  0  0  0  0  0  0
    0.5078    1.5649    1.0239 H   0  0  0  0  0  0  0  0  0  0  0  0
   -0.3598   -1.8496   -0.9423 H   0  0  0  0  0  0  0  0  0  0  0  0
  1  2  1  0
  1 18  1  0
  2  3  1  0
  2  8  1  0
  3  5  2  3
  3 10  1  0
  4  7  2  3
  4  6  1  0
  4 11  1  0
  5 12  1  0
  5 13  1  0
  6  9  1  0
  6 16  1  0
  6 17  1  0
  7 14  1  0
  7 15  1  0
M  RAD  1   2   2
M  END
>  <reaction>  (17) 
rxn_1026

>  <mol_properties>  (17) 
{"0": {"label": "*4", "atom_type": "S2s"}, "1": {"label": "*3", "atom_type": "Cs"}, "10": {"label": "*0", "atom_type": "Cd"}, "11": {"label": "*1", "atom_type": "Cs"}, "15": {"label": "*2", "atom_type": "H0"}}

>  <type>  (17) 
unop_13

>  <geom_source>  (17) 
AutoTST

$$$$
