
     RDKit          3D

  7  6  0  0  0  0  0  0  0  0999 V2000
    1.6964   -0.0938    0.0583 C   0  0  0  0  0  0  0  0  0  0  0  0
    0.5019   -0.0278    0.0173 C   0  0  0  0  0  0  0  0  0  0  0  0
   -0.9505    0.0525   -0.0327 C   0  0  0  0  0  0  0  0  0  0  0  0
    2.7574   -0.1524    0.0947 H   0  0  0  0  0  0  0  0  0  0  0  0
   -1.2692    0.9972   -0.4754 H   0  0  0  0  0  0  0  0  0  0  0  0
   -1.3749   -0.0147    0.9700 H   0  0  0  0  0  0  0  0  0  0  0  0
   -1.3610   -0.7611   -0.6323 H   0  0  0  0  0  0  0  0  0  0  0  0
  1  2  3  0
  1  4  1  0
  2  3  1  0
  3  5  1  0
  3  6  1  0
  3  7  1  0
M  END
>  <reaction>  (1) 
rxn_1255

>  <mol_properties>  (1) 
{"2": {"label": "donator", "atom_type": "Cs"}, "4": {"label": "d_hydrogen", "atom_type": "H0"}}

>  <type>  (1) 
r1h

$$$$

     RDKit          3D

  7  6  0  0  0  0  0  0  0  0999 V2000
   -0.6904   -0.9066   -0.0346 C   0  0  0  0  0  0  0  0  0  0  0  0
    0.1413    0.0254   -0.6161 C   0  0  0  0  0  0  0  0  0  0  0  0
    0.4603    0.1105   -1.9267 C   0  0  0  0  0  3  0  0  0  0  0  0
    0.8318    0.2180   -3.4201 S   0  0  0  0  0  0  0  0  0  0  0  0
   -0.8731   -0.8770    1.0287 H   0  0  0  0  0  0  0  0  0  0  0  0
   -1.1718   -1.6767   -0.6199 H   0  0  0  0  0  0  0  0  0  0  0  0
    0.6090    0.7866    0.0044 H   0  0  0  0  0  0  0  0  0  0  0  0
  1  2  2  3
  1  5  1  0
  1  6  1  0
  2  3  1  0
  2  7  1  0
  3  4  2  0
M  RAD  1   3   2
M  END
>  <reaction>  (2) 
rxn_1255

>  <mol_properties>  (2) 
{"2": {"label": "acceptor", "atom_type": "CS"}}

>  <type>  (2) 
r2

$$$$

     RDKit          3D

  8  7  0  0  0  0  0  0  0  0999 V2000
   -1.1617    0.0338    0.5053 C   0  0  0  0  0  0  0  0  0  0  0  0
   -0.1023    0.4503   -0.1863 C   0  0  0  0  0  0  0  0  0  0  0  0
    1.0978   -0.3557   -0.3104 C   0  0  0  0  0  0  0  0  0  0  0  0
    2.4251    0.0667   -1.1256 S   0  0  0  0  0  0  0  0  0  0  0  0
   -1.1653   -0.9292    1.0039 H   0  0  0  0  0  0  0  0  0  0  0  0
   -2.0546    0.6389    0.5948 H   0  0  0  0  0  0  0  0  0  0  0  0
   -0.0991    1.4132   -0.6847 H   0  0  0  0  0  0  0  0  0  0  0  0
    1.0601   -1.3180    0.2032 H   0  0  0  0  0  0  0  0  0  0  0  0
  1  2  2  3
  1  5  1  0
  1  6  1  0
  2  3  1  0
  2  7  1  0
  3  4  2  0
  3  8  1  0
M  END
>  <reaction>  (3) 
rxn_1255

>  <mol_properties>  (3) 
{"0": {"label": "a_hydrogen", "atom_type": "H0"}, "3": {"label": "acceptor", "atom_type": "CS"}}

>  <type>  (3) 
r2h

$$$$

     RDKit          3D

 14 12  0  0  0  0  0  0  0  0999 V2000
    0.2259   -2.1600   -2.7872 C   0  0  0  0  0  0  0  0  0  0  0  0
   -0.0730   -2.0572   -1.6256 C   0  0  0  0  0  0  0  0  0  0  0  0
   -0.4048   -1.8606   -0.2603 C   0  0  0  0  0  3  0  0  0  0  0  0
    0.4870   -2.2818   -3.8107 H   0  0  0  0  0  0  0  0  0  0  0  0
   -0.0319   -0.6111    0.1350 H   0  0  0  0  0  0  0  0  0  0  0  0
    0.1768   -2.4468    0.4479 H   0  0  0  0  0  0  0  0  0  0  0  0
   -1.4698   -1.8675   -0.0401 H   0  0  0  0  0  0  0  0  0  0  0  0
   -0.2048    1.5270   -1.4785 C   0  0  0  0  0  0  0  0  0  0  0  0
    0.1719    1.6818   -0.2092 C   0  0  0  0  0  0  0  0  0  0  0  0
    0.3232    0.5635    0.6931 C   0  0  0  0  0  0  0  0  0  0  0  0
    0.8164    0.5210    2.2035 S   0  0  0  0  0  0  0  0  0  0  0  0
   -0.3053    2.3819   -2.1353 H   0  0  0  0  0  0  0  0  0  0  0  0
   -0.4083    0.5492   -1.8981 H   0  0  0  0  0  0  0  0  0  0  0  0
    0.3868    2.6687    0.1910 H   0  0  0  0  0  0  0  0  0  0  0  0
  1  2  3  0
  1  4  1  0
  2  3  1  0
  3  6  1  0
  3  7  1  0
  5 10  1  0
  8  9  2  3
  8 12  1  0
  8 13  1  0
  9 10  1  0
  9 14  1  0
 10 11  2  0
M  RAD  1   3   2
M  END
>  <reaction>  (4) 
rxn_1255

>  <mol_properties>  (4) 
{"1": {"label": "*4", "atom_type": "Ct"}, "2": {"label": "*3", "atom_type": "Cs"}, "4": {"label": "*2", "atom_type": "H0"}, "9": {"label": "*1", "atom_type": "CS"}, "10": {"label": "*0", "atom_type": "S2d"}}

>  <type>  (4) 
ts

$$$$

     RDKit          3D

 14 12  0  0  0  0  0  0  0  0999 V2000
   -0.1562   -1.7197   -3.0314 C   0  0  0  0  0  0  0  0  0  0  0  0
   -0.1562   -1.7197   -1.8344 C   0  0  0  0  0  0  0  0  0  0  0  0
   -0.1562   -1.7197   -0.3790 C   0  0  0  0  0  0  0  0  0  0  0  0
   -0.1562   -1.7197   -4.0947 H   0  0  0  0  0  0  0  0  0  0  0  0
   -0.0448   -0.5001    0.0835 H   0  0  0  0  0  0  0  0  0  0  0  0
    0.6775   -2.3082    0.0064 H   0  0  0  0  0  0  0  0  0  0  0  0
   -1.0828   -2.1474    0.0064 H   0  0  0  0  0  0  0  0  0  0  0  0
   -2.3041    0.8883    1.0690 C   0  0  0  0  0  0  0  0  0  0  0  0
   -1.0375    1.1615    1.3776 C   0  0  0  0  0  0  0  0  0  0  0  0
    0.0668    0.7202    0.5462 C   0  0  0  0  0  3  0  0  0  0  0  0
    1.6280    1.0040    0.8408 S   0  0  0  0  0  0  0  0  0  0  0  0
   -3.1242    1.2198    1.6927 H   0  0  0  0  0  0  0  0  0  0  0  0
   -2.5572    0.3224    0.1793 H   0  0  0  0  0  0  0  0  0  0  0  0
   -0.7847    1.7273    2.2673 H   0  0  0  0  0  0  0  0  0  0  0  0
  1  2  3  0
  1  4  1  0
  2  3  1  0
  3  5  1  0
  3  6  1  0
  3  7  1  0
  8  9  2  3
  8 12  1  0
  8 13  1  0
  9 10  1  0
  9 14  1  0
 10 11  2  0
M  RAD  1  10   2
M  END
>  <reaction>  (5) 
rxn_1255

>  <mol_properties>  (5) 
{"1": {"label": "*4", "atom_type": "Ct"}, "2": {"label": "*3", "atom_type": "Cs"}, "4": {"label": "*2", "atom_type": "H0"}, "9": {"label": "*1", "atom_type": "CS"}, "10": {"label": "*0", "atom_type": "S2d"}}

>  <type>  (5) 
unop_1

>  <geom_source>  (5) 
Heuristics

$$$$

     RDKit          3D

 14 12  0  0  0  0  0  0  0  0999 V2000
   -0.0694   -1.8421   -2.8530 C   0  0  0  0  0  0  0  0  0  0  0  0
   -0.0694   -1.8421   -1.6559 C   0  0  0  0  0  0  0  0  0  0  0  0
   -0.0694   -1.8421   -0.2005 C   0  0  0  0  0  0  0  0  0  0  0  0
   -0.0694   -1.8421   -3.9162 H   0  0  0  0  0  0  0  0  0  0  0  0
    0.0420   -0.6225    0.2619 H   0  0  0  0  0  0  0  0  0  0  0  0
    0.7643   -2.4307    0.1849 H   0  0  0  0  0  0  0  0  0  0  0  0
   -0.9960   -2.2698    0.1849 H   0  0  0  0  0  0  0  0  0  0  0  0
   -0.6798    1.4102   -1.4127 C   0  0  0  0  0  0  0  0  0  0  0  0
   -0.4132    1.6277   -0.1260 C   0  0  0  0  0  0  0  0  0  0  0  0
    0.1535    0.5978    0.7246 C   0  0  0  0  0  3  0  0  0  0  0  0
    0.5082    0.7709    2.2895 S   0  0  0  0  0  0  0  0  0  0  0  0
   -1.1025    2.1819   -2.0429 H   0  0  0  0  0  0  0  0  0  0  0  0
   -0.4815    0.4491   -1.8740 H   0  0  0  0  0  0  0  0  0  0  0  0
   -0.6115    2.5888    0.3350 H   0  0  0  0  0  0  0  0  0  0  0  0
  1  2  3  0
  1  4  1  0
  2  3  1  0
  3  5  1  0
  3  6  1  0
  3  7  1  0
  8  9  2  3
  8 12  1  0
  8 13  1  0
  9 10  1  0
  9 14  1  0
 10 11  2  0
M  RAD  1  10   2
M  END
>  <reaction>  (6) 
rxn_1255

>  <mol_properties>  (6) 
{"1": {"label": "*4", "atom_type": "Ct"}, "2": {"label": "*3", "atom_type": "Cs"}, "4": {"label": "*2", "atom_type": "H0"}, "9": {"label": "*1", "atom_type": "CS"}, "10": {"label": "*0", "atom_type": "S2d"}}

>  <type>  (6) 
unop_2

>  <geom_source>  (6) 
Heuristics

$$$$

     RDKit          3D

 14 12  0  0  0  0  0  0  0  0999 V2000
   -0.2262   -1.7524   -2.9926 C   0  0  0  0  0  0  0  0  0  0  0  0
   -0.2262   -1.7524   -1.7956 C   0  0  0  0  0  0  0  0  0  0  0  0
   -0.2262   -1.7524   -0.3402 C   0  0  0  0  0  0  0  0  0  0  0  0
   -0.2262   -1.7524   -4.0559 H   0  0  0  0  0  0  0  0  0  0  0  0
   -0.1148   -0.5329    0.1223 H   0  0  0  0  0  0  0  0  0  0  0  0
    0.6075   -2.3410    0.0452 H   0  0  0  0  0  0  0  0  0  0  0  0
   -1.1528   -2.1801    0.0452 H   0  0  0  0  0  0  0  0  0  0  0  0
   -1.7389    0.2532    2.2346 C   0  0  0  0  0  0  0  0  0  0  0  0
   -0.6432    0.9154    1.8670 C   0  0  0  0  0  0  0  0  0  0  0  0
   -0.0032    0.6874    0.5849 C   0  0  0  0  0  3  0  0  0  0  0  0
    1.3228    1.4409    0.0570 S   0  0  0  0  0  0  0  0  0  0  0  0
   -2.2125    0.4270    3.1922 H   0  0  0  0  0  0  0  0  0  0  0  0
   -2.1952   -0.4850    1.5844 H   0  0  0  0  0  0  0  0  0  0  0  0
   -0.1873    1.6535    2.5174 H   0  0  0  0  0  0  0  0  0  0  0  0
  1  2  3  0
  1  4  1  0
  2  3  1  0
  3  5  1  0
  3  6  1  0
  3  7  1  0
  8  9  2  3
  8 12  1  0
  8 13  1  0
  9 10  1  0
  9 14  1  0
 10 11  2  0
M  RAD  1  10   2
M  END
>  <reaction>  (7) 
rxn_1255

>  <mol_properties>  (7) 
{"1": {"label": "*4", "atom_type": "Ct"}, "2": {"label": "*3", "atom_type": "Cs"}, "4": {"label": "*2", "atom_type": "H0"}, "9": {"label": "*1", "atom_type": "CS"}, "10": {"label": "*0", "atom_type": "S2d"}}

>  <type>  (7) 
unop_3

>  <geom_source>  (7) 
Heuristics

$$$$

     RDKit          3D

 14 12  0  0  0  0  0  0  0  0999 V2000
   -0.2950   -1.7681   -2.9319 C   0  0  0  0  0  0  0  0  0  0  0  0
   -0.2950   -1.7681   -1.7349 C   0  0  0  0  0  0  0  0  0  0  0  0
   -0.2950   -1.7681   -0.2795 C   0  0  0  0  0  0  0  0  0  0  0  0
   -0.2950   -1.7681   -3.9952 H   0  0  0  0  0  0  0  0  0  0  0  0
   -0.1835   -0.5485    0.1829 H   0  0  0  0  0  0  0  0  0  0  0  0
    0.5387   -2.3567    0.1059 H   0  0  0  0  0  0  0  0  0  0  0  0
   -1.2216   -2.1958    0.1059 H   0  0  0  0  0  0  0  0  0  0  0  0
    1.7239    1.1420   -0.9279 C   0  0  0  0  0  0  0  0  0  0  0  0
    1.1362    1.3685    0.2457 C   0  0  0  0  0  0  0  0  0  0  0  0
   -0.0720    0.6717    0.6456 C   0  0  0  0  0  3  0  0  0  0  0  0
   -0.8506    0.8814    2.0437 S   0  0  0  0  0  0  0  0  0  0  0  0
    2.6252    1.6645   -1.2214 H   0  0  0  0  0  0  0  0  0  0  0  0
    1.3178    0.4238   -1.6314 H   0  0  0  0  0  0  0  0  0  0  0  0
    1.5426    2.0868    0.9490 H   0  0  0  0  0  0  0  0  0  0  0  0
  1  2  3  0
  1  4  1  0
  2  3  1  0
  3  5  1  0
  3  6  1  0
  3  7  1  0
  8  9  2  3
  8 12  1  0
  8 13  1  0
  9 10  1  0
  9 14  1  0
 10 11  2  0
M  RAD  1  10   2
M  END
>  <reaction>  (8) 
rxn_1255

>  <mol_properties>  (8) 
{"1": {"label": "*4", "atom_type": "Ct"}, "2": {"label": "*3", "atom_type": "Cs"}, "4": {"label": "*2", "atom_type": "H0"}, "9": {"label": "*1", "atom_type": "CS"}, "10": {"label": "*0", "atom_type": "S2d"}}

>  <type>  (8) 
unop_4

>  <geom_source>  (8) 
Heuristics

$$$$

     RDKit          3D

 14 12  0  0  0  0  0  0  0  0999 V2000
   -0.1654   -1.8103   -2.9428 C   0  0  0  0  0  0  0  0  0  0  0  0
   -0.1654   -1.8103   -1.7458 C   0  0  0  0  0  0  0  0  0  0  0  0
   -0.1654   -1.8103   -0.2904 C   0  0  0  0  0  0  0  0  0  0  0  0
   -0.1654   -1.8103   -4.0061 H   0  0  0  0  0  0  0  0  0  0  0  0
   -0.0540   -0.5907    0.1720 H   0  0  0  0  0  0  0  0  0  0  0  0
    0.6683   -2.3989    0.0950 H   0  0  0  0  0  0  0  0  0  0  0  0
   -1.0920   -2.2380    0.0950 H   0  0  0  0  0  0  0  0  0  0  0  0
   -0.0307   -0.3359    2.8669 C   0  0  0  0  0  0  0  0  0  0  0  0
    0.0672    0.7356    2.0818 C   0  0  0  0  0  0  0  0  0  0  0  0
    0.0575    0.6295    0.6347 C   0  0  0  0  0  3  0  0  0  0  0  0
    0.1708    1.8693   -0.3924 S   0  0  0  0  0  0  0  0  0  0  0  0
   -0.0230   -0.2513    3.9459 H   0  0  0  0  0  0  0  0  0  0  0  0
   -0.1218   -1.3328    2.4500 H   0  0  0  0  0  0  0  0  0  0  0  0
    0.1583    1.7322    2.4990 H   0  0  0  0  0  0  0  0  0  0  0  0
  1  2  3  0
  1  4  1  0
  2  3  1  0
  3  5  1  0
  3  6  1  0
  3  7  1  0
  8  9  2  3
  8 12  1  0
  8 13  1  0
  9 10  1  0
  9 14  1  0
 10 11  2  0
M  RAD  1  10   2
M  END
>  <reaction>  (9) 
rxn_1255

>  <mol_properties>  (9) 
{"1": {"label": "*4", "atom_type": "Ct"}, "2": {"label": "*3", "atom_type": "Cs"}, "4": {"label": "*2", "atom_type": "H0"}, "9": {"label": "*1", "atom_type": "CS"}, "10": {"label": "*0", "atom_type": "S2d"}}

>  <type>  (9) 
unop_5

>  <geom_source>  (9) 
Heuristics

$$$$

     RDKit          3D

 14 12  0  0  0  0  0  0  0  0999 V2000
   -0.2480   -1.7250   -3.0052 C   0  0  0  0  0  0  0  0  0  0  0  0
   -0.2480   -1.7250   -1.8082 C   0  0  0  0  0  0  0  0  0  0  0  0
   -0.2480   -1.7250   -0.3528 C   0  0  0  0  0  0  0  0  0  0  0  0
   -0.2480   -1.7250   -4.0685 H   0  0  0  0  0  0  0  0  0  0  0  0
   -0.1366   -0.5054    0.1096 H   0  0  0  0  0  0  0  0  0  0  0  0
    0.5857   -2.3136    0.0326 H   0  0  0  0  0  0  0  0  0  0  0  0
   -1.1746   -2.1527    0.0326 H   0  0  0  0  0  0  0  0  0  0  0  0
    2.3181    0.8740   -0.0655 C   0  0  0  0  0  0  0  0  0  0  0  0
    1.3377    1.1641    0.7881 C   0  0  0  0  0  0  0  0  0  0  0  0
   -0.0250    0.7148    0.5723 C   0  0  0  0  0  3  0  0  0  0  0  0
   -1.2731    1.0177    1.5498 S   0  0  0  0  0  0  0  0  0  0  0  0
    3.3330    1.2116    0.1001 H   0  0  0  0  0  0  0  0  0  0  0  0
    2.1318    0.2877   -0.9585 H   0  0  0  0  0  0  0  0  0  0  0  0
    1.5242    1.7504    1.6809 H   0  0  0  0  0  0  0  0  0  0  0  0
  1  2  3  0
  1  4  1  0
  2  3  1  0
  3  5  1  0
  3  6  1  0
  3  7  1  0
  8  9  2  3
  8 12  1  0
  8 13  1  0
  9 10  1  0
  9 14  1  0
 10 11  2  0
M  RAD  1  10   2
M  END
>  <reaction>  (10) 
rxn_1255

>  <mol_properties>  (10) 
{"1": {"label": "*4", "atom_type": "Ct"}, "2": {"label": "*3", "atom_type": "Cs"}, "4": {"label": "*2", "atom_type": "H0"}, "9": {"label": "*1", "atom_type": "CS"}, "10": {"label": "*0", "atom_type": "S2d"}}

>  <type>  (10) 
unop_6

>  <geom_source>  (10) 
Heuristics

$$$$

     RDKit          3D

 14 12  0  0  0  0  0  0  0  0999 V2000
   -0.1581   -1.7195   -3.0314 C   0  0  0  0  0  0  0  0  0  0  0  0
   -0.1581   -1.7195   -1.8344 C   0  0  0  0  0  0  0  0  0  0  0  0
   -0.1581   -1.7195   -0.3790 C   0  0  0  0  0  0  0  0  0  0  0  0
   -0.1581   -1.7195   -4.0947 H   0  0  0  0  0  0  0  0  0  0  0  0
   -0.0466   -0.4999    0.0835 H   0  0  0  0  0  0  0  0  0  0  0  0
    0.6756   -2.3081    0.0064 H   0  0  0  0  0  0  0  0  0  0  0  0
   -1.0847   -2.1472    0.0064 H   0  0  0  0  0  0  0  0  0  0  0  0
    2.4269    0.4559    1.0690 C   0  0  0  0  0  0  0  0  0  0  0  0
    1.2308    0.9542    1.3776 C   0  0  0  0  0  0  0  0  0  0  0  0
    0.0649    0.7204    0.5462 C   0  0  0  0  0  3  0  0  0  0  0  0
   -1.4190    1.2825    0.8408 S   0  0  0  0  0  0  0  0  0  0  0  0
    3.2935    0.6333    1.6927 H   0  0  0  0  0  0  0  0  0  0  0  0
    2.5733   -0.1465    0.1793 H   0  0  0  0  0  0  0  0  0  0  0  0
    1.0848    1.5564    2.2673 H   0  0  0  0  0  0  0  0  0  0  0  0
  1  2  3  0
  1  4  1  0
  2  3  1  0
  3  5  1  0
  3  6  1  0
  3  7  1  0
  8  9  2  3
  8 12  1  0
  8 13  1  0
  9 10  1  0
  9 14  1  0
 10 11  2  0
M  RAD  1  10   2
M  END
>  <reaction>  (11) 
rxn_1255

>  <mol_properties>  (11) 
{"1": {"label": "*4", "atom_type": "Ct"}, "2": {"label": "*3", "atom_type": "Cs"}, "4": {"label": "*2", "atom_type": "H0"}, "9": {"label": "*1", "atom_type": "CS"}, "10": {"label": "*0", "atom_type": "S2d"}}

>  <type>  (11) 
unop_7

>  <geom_source>  (11) 
Heuristics

$$$$

     RDKit          3D

 14 12  0  0  0  0  0  0  0  0999 V2000
   -0.0688   -1.7414   -3.0052 C   0  0  0  0  0  0  0  0  0  0  0  0
   -0.0688   -1.7414   -1.8082 C   0  0  0  0  0  0  0  0  0  0  0  0
   -0.0688   -1.7414   -0.3528 C   0  0  0  0  0  0  0  0  0  0  0  0
   -0.0688   -1.7414   -4.0685 H   0  0  0  0  0  0  0  0  0  0  0  0
    0.0427   -0.5218    0.1096 H   0  0  0  0  0  0  0  0  0  0  0  0
    0.7649   -2.3300    0.0326 H   0  0  0  0  0  0  0  0  0  0  0  0
   -0.9954   -2.1691    0.0326 H   0  0  0  0  0  0  0  0  0  0  0  0
   -2.1213    1.2798   -0.0655 C   0  0  0  0  0  0  0  0  0  0  0  0
   -1.1045    1.3873    0.7881 C   0  0  0  0  0  0  0  0  0  0  0  0
    0.1542    0.6985    0.5723 C   0  0  0  0  0  3  0  0  0  0  0  0
    1.4365    0.7701    1.5498 S   0  0  0  0  0  0  0  0  0  0  0  0
   -3.0581    1.7957    0.1001 H   0  0  0  0  0  0  0  0  0  0  0  0
   -2.0444    0.6694   -0.9585 H   0  0  0  0  0  0  0  0  0  0  0  0
   -1.1817    1.9977    1.6809 H   0  0  0  0  0  0  0  0  0  0  0  0
  1  2  3  0
  1  4  1  0
  2  3  1  0
  3  5  1  0
  3  6  1  0
  3  7  1  0
  8  9  2  3
  8 12  1  0
  8 13  1  0
  9 10  1  0
  9 14  1  0
 10 11  2  0
M  RAD  1  10   2
M  END
>  <reaction>  (12) 
rxn_1255

>  <mol_properties>  (12) 
{"1": {"label": "*4", "atom_type": "Ct"}, "2": {"label": "*3", "atom_type": "Cs"}, "4": {"label": "*2", "atom_type": "H0"}, "9": {"label": "*1", "atom_type": "CS"}, "10": {"label": "*0", "atom_type": "S2d"}}

>  <type>  (12) 
unop_8

>  <geom_source>  (12) 
Heuristics

$$$$

     RDKit          3D

 14 12  0  0  0  0  0  0  0  0999 V2000
   -0.2656   -1.8241   -2.8530 C   0  0  0  0  0  0  0  0  0  0  0  0
   -0.2656   -1.8241   -1.6559 C   0  0  0  0  0  0  0  0  0  0  0  0
   -0.2656   -1.8241   -0.2005 C   0  0  0  0  0  0  0  0  0  0  0  0
   -0.2656   -1.8241   -3.9162 H   0  0  0  0  0  0  0  0  0  0  0  0
   -0.1542   -0.6046    0.2619 H   0  0  0  0  0  0  0  0  0  0  0  0
    0.5681   -2.4127    0.1849 H   0  0  0  0  0  0  0  0  0  0  0  0
   -1.1922   -2.2519    0.1849 H   0  0  0  0  0  0  0  0  0  0  0  0
    0.9241    1.2636   -1.4127 C   0  0  0  0  0  0  0  0  0  0  0  0
    0.7014    1.5258   -0.1260 C   0  0  0  0  0  0  0  0  0  0  0  0
   -0.0426    0.6157    0.7246 C   0  0  0  0  0  3  0  0  0  0  0  0
   -0.3600    0.8503    2.2895 S   0  0  0  0  0  0  0  0  0  0  0  0
    1.4797    1.9459   -2.0429 H   0  0  0  0  0  0  0  0  0  0  0  0
    0.5549    0.3543   -1.8740 H   0  0  0  0  0  0  0  0  0  0  0  0
    1.0707    2.4351    0.3350 H   0  0  0  0  0  0  0  0  0  0  0  0
  1  2  3  0
  1  4  1  0
  2  3  1  0
  3  5  1  0
  3  6  1  0
  3  7  1  0
  8  9  2  3
  8 12  1  0
  8 13  1  0
  9 10  1  0
  9 14  1  0
 10 11  2  0
M  RAD  1  10   2
M  END
>  <reaction>  (13) 
rxn_1255

>  <mol_properties>  (13) 
{"1": {"label": "*4", "atom_type": "Ct"}, "2": {"label": "*3", "atom_type": "Cs"}, "4": {"label": "*2", "atom_type": "H0"}, "9": {"label": "*1", "atom_type": "CS"}, "10": {"label": "*0", "atom_type": "S2d"}}

>  <type>  (13) 
unop_9

>  <geom_source>  (13) 
Heuristics

$$$$

     RDKit          3D

 14 12  0  0  0  0  0  0  0  0999 V2000
   -0.0304   -1.7923   -2.9319 C   0  0  0  0  0  0  0  0  0  0  0  0
   -0.0304   -1.7923   -1.7349 C   0  0  0  0  0  0  0  0  0  0  0  0
   -0.0304   -1.7923   -0.2795 C   0  0  0  0  0  0  0  0  0  0  0  0
   -0.0304   -1.7923   -3.9952 H   0  0  0  0  0  0  0  0  0  0  0  0
    0.0811   -0.5727    0.1829 H   0  0  0  0  0  0  0  0  0  0  0  0
    0.8033   -2.3809    0.1059 H   0  0  0  0  0  0  0  0  0  0  0  0
   -0.9570   -2.2200    0.1059 H   0  0  0  0  0  0  0  0  0  0  0  0
   -1.4884    1.4356   -0.9279 C   0  0  0  0  0  0  0  0  0  0  0  0
   -0.8693    1.5518    0.2457 C   0  0  0  0  0  0  0  0  0  0  0  0
    0.1926    0.6476    0.6456 C   0  0  0  0  0  3  0  0  0  0  0  0
    0.9963    0.7126    2.0437 S   0  0  0  0  0  0  0  0  0  0  0  0
   -2.2800    2.1128   -1.2213 H   0  0  0  0  0  0  0  0  0  0  0  0
   -1.2191    0.6556   -1.6314 H   0  0  0  0  0  0  0  0  0  0  0  0
   -1.1388    2.3318    0.9490 H   0  0  0  0  0  0  0  0  0  0  0  0
  1  2  3  0
  1  4  1  0
  2  3  1  0
  3  5  1  0
  3  6  1  0
  3  7  1  0
  8  9  2  3
  8 12  1  0
  8 13  1  0
  9 10  1  0
  9 14  1  0
 10 11  2  0
M  RAD  1  10   2
M  END
>  <reaction>  (14) 
rxn_1255

>  <mol_properties>  (14) 
{"1": {"label": "*4", "atom_type": "Ct"}, "2": {"label": "*3", "atom_type": "Cs"}, "4": {"label": "*2", "atom_type": "H0"}, "9": {"label": "*1", "atom_type": "CS"}, "10": {"label": "*0", "atom_type": "S2d"}}

>  <type>  (14) 
unop_10

>  <geom_source>  (14) 
Heuristics

$$$$

     RDKit          3D

 14 12  0  0  0  0  0  0  0  0999 V2000
   -0.0952   -1.7644   -2.9926 C   0  0  0  0  0  0  0  0  0  0  0  0
   -0.0952   -1.7644   -1.7956 C   0  0  0  0  0  0  0  0  0  0  0  0
   -0.0952   -1.7644   -0.3402 C   0  0  0  0  0  0  0  0  0  0  0  0
   -0.0952   -1.7644   -4.0559 H   0  0  0  0  0  0  0  0  0  0  0  0
    0.0163   -0.5448    0.1223 H   0  0  0  0  0  0  0  0  0  0  0  0
    0.7385   -2.3530    0.0452 H   0  0  0  0  0  0  0  0  0  0  0  0
   -1.0218   -2.1921    0.0452 H   0  0  0  0  0  0  0  0  0  0  0  0
    1.7560   -0.0662    2.2346 C   0  0  0  0  0  0  0  0  0  0  0  0
    0.7985    0.7836    1.8670 C   0  0  0  0  0  0  0  0  0  0  0  0
    0.1278    0.6754    0.5849 C   0  0  0  0  0  3  0  0  0  0  0  0
   -1.0397    1.6568    0.0570 S   0  0  0  0  0  0  0  0  0  0  0  0
    2.2532    0.0189    3.1922 H   0  0  0  0  0  0  0  0  0  0  0  0
    2.0709   -0.8749    1.5844 H   0  0  0  0  0  0  0  0  0  0  0  0
    0.4839    1.5921    2.5174 H   0  0  0  0  0  0  0  0  0  0  0  0
  1  2  3  0
  1  4  1  0
  2  3  1  0
  3  5  1  0
  3  6  1  0
  3  7  1  0
  8  9  2  3
  8 12  1  0
  8 13  1  0
  9 10  1  0
  9 14  1  0
 10 11  2  0
M  RAD  1  10   2
M  END
>  <reaction>  (15) 
rxn_1255

>  <mol_properties>  (15) 
{"1": {"label": "*4", "atom_type": "Ct"}, "2": {"label": "*3", "atom_type": "Cs"}, "4": {"label": "*2", "atom_type": "H0"}, "9": {"label": "*1", "atom_type": "CS"}, "10": {"label": "*0", "atom_type": "S2d"}}

>  <type>  (15) 
unop_11

>  <geom_source>  (15) 
Heuristics

$$$$

     RDKit          3D

 14 12  0  0  0  0  0  0  0  0999 V2000
   -0.1697   -1.8572   -2.8182 C   0  0  0  0  0  0  0  0  0  0  0  0
   -0.1697   -1.8572   -1.6212 C   0  0  0  0  0  0  0  0  0  0  0  0
   -0.1697   -1.8572   -0.1658 C   0  0  0  0  0  0  0  0  0  0  0  0
   -0.1697   -1.8572   -3.8815 H   0  0  0  0  0  0  0  0  0  0  0  0
   -0.0583   -0.6376    0.2967 H   0  0  0  0  0  0  0  0  0  0  0  0
    0.6640   -2.4457    0.2196 H   0  0  0  0  0  0  0  0  0  0  0  0
   -1.0963   -2.2849    0.2196 H   0  0  0  0  0  0  0  0  0  0  0  0
    0.1213    1.3274   -1.5565 C   0  0  0  0  0  0  0  0  0  0  0  0
    0.1476    1.6147   -0.2562 C   0  0  0  0  0  0  0  0  0  0  0  0
    0.0533    0.5827    0.7593 C   0  0  0  0  0  3  0  0  0  0  0  0
    0.0765    0.8370    2.3529 S   0  0  0  0  0  0  0  0  0  0  0  0
    0.1920    2.1011   -2.3101 H   0  0  0  0  0  0  0  0  0  0  0  0
    0.0279    0.3049   -1.9053 H   0  0  0  0  0  0  0  0  0  0  0  0
    0.2410    2.6372    0.0922 H   0  0  0  0  0  0  0  0  0  0  0  0
  1  2  3  0
  1  4  1  0
  2  3  1  0
  3  5  1  0
  3  6  1  0
  3  7  1  0
  8  9  2  3
  8 12  1  0
  8 13  1  0
  9 10  1  0
  9 14  1  0
 10 11  2  0
M  RAD  1  10   2
M  END
>  <reaction>  (16) 
rxn_1255

>  <mol_properties>  (16) 
{"1": {"label": "*4", "atom_type": "Ct"}, "2": {"label": "*3", "atom_type": "Cs"}, "4": {"label": "*2", "atom_type": "H0"}, "9": {"label": "*1", "atom_type": "CS"}, "10": {"label": "*0", "atom_type": "S2d"}}

>  <type>  (16) 
unop_12

>  <geom_source>  (16) 
Heuristics

$$$$

     RDKit          3D

 14 12  0  0  0  0  0  0  0  0999 V2000
   -1.1568   -1.8425   -1.3841 S   0  0  0  0  0  0  0  0  0  0  0  0
   -1.8997    0.0339    0.4727 C   0  0  0  0  0  0  0  0  0  0  0  0
   -3.2016   -0.2239    0.3467 C   0  0  0  0  0  0  0  0  0  0  0  0
   -0.8461   -0.6630   -0.2883 C   0  0  0  0  0  0  0  0  0  0  0  0
    1.6149    0.0800   -0.6469 C   0  0  0  0  0  3  0  0  0  0  0  0
    2.7474    0.5438    0.1550 C   0  0  0  0  0  0  0  0  0  0  0  0
    3.6803    0.9259    0.8159 C   0  0  0  0  0  0  0  0  0  0  0  0
   -1.5897    0.7986    1.1732 H   0  0  0  0  0  0  0  0  0  0  0  0
   -3.9180    0.3294    0.9399 H   0  0  0  0  0  0  0  0  0  0  0  0
   -3.5743   -0.9759   -0.3358 H   0  0  0  0  0  0  0  0  0  0  0  0
    0.4218   -0.3162   -0.0744 H   0  0  0  0  0  0  0  0  0  0  0  0
    1.9089   -0.8283   -1.2123 H   0  0  0  0  0  0  0  0  0  0  0  0
    1.3136    0.8767   -1.3578 H   0  0  0  0  0  0  0  0  0  0  0  0
    4.4993    1.2614    1.3961 H   0  0  0  0  0  0  0  0  0  0  0  0
  1  4  2  0
  2  3  2  3
  2  4  1  0
  2  8  1  0
  3  9  1  0
  3 10  1  0
  4 11  1  0
  5  6  1  0
  5 12  1  0
  5 13  1  0
  6  7  3  0
  7 14  1  0
M  RAD  1   5   2
M  END
>  <reaction>  (17) 
rxn_1255

>  <mol_properties>  (17) 
{"1": {"label": "*4", "atom_type": "Ct"}, "2": {"label": "*3", "atom_type": "Cs"}, "4": {"label": "*2", "atom_type": "H0"}, "9": {"label": "*1", "atom_type": "CS"}, "10": {"label": "*0", "atom_type": "S2d"}}

>  <type>  (17) 
unop_13

>  <geom_source>  (17) 
AutoTST

$$$$
