
     RDKit          3D

  7  6  0  0  0  0  0  0  0  0999 V2000
   -0.6782    0.0507    0.0301 C   0  0  0  0  0  0  0  0  0  0  0  0
    0.8092    0.0996    0.0213 C   0  0  0  0  0  0  0  0  0  0  0  0
    1.7473    0.7521    1.1507 S   0  0  0  0  0  0  0  0  0  0  0  0
   -1.0667    0.5456   -0.8653 H   0  0  0  0  0  0  0  0  0  0  0  0
   -1.0112   -0.9904   -0.0239 H   0  0  0  0  0  0  0  0  0  0  0  0
   -1.0920    0.5225    0.9188 H   0  0  0  0  0  0  0  0  0  0  0  0
    1.2740   -0.3620   -0.8520 H   0  0  0  0  0  0  0  0  0  0  0  0
  1  2  1  0
  1  4  1  0
  1  5  1  0
  1  6  1  0
  2  3  2  0
  2  7  1  0
M  END
>  <reaction>  (1) 
rxn_1983

>  <mol_properties>  (1) 
{"0": {"label": "donator", "atom_type": "Cs"}, "3": {"label": "d_hydrogen", "atom_type": "H0"}}

>  <type>  (1) 
r1h

$$$$

     RDKit          3D

  7  6  0  0  0  0  0  0  0  0999 V2000
    1.8092   -0.3013   -0.2242 S   0  0  0  0  0  0  0  0  0  0  0  0
    0.1552   -0.6967   -0.1137 C   0  0  0  0  0  0  0  0  0  0  0  0
   -0.8921    0.1788    0.1148 C   0  0  0  0  0  0  0  0  0  0  0  0
   -0.7548    1.8245    0.3328 S   0  0  0  0  0  1  0  0  0  0  0  0
    1.6168    1.0210   -0.0187 H   0  0  0  0  0  0  0  0  0  0  0  0
   -0.0550   -1.7522   -0.2412 H   0  0  0  0  0  0  0  0  0  0  0  0
   -1.8791   -0.2740    0.1502 H   0  0  0  0  0  0  0  0  0  0  0  0
  1  2  1  0
  1  5  1  0
  2  3  2  3
  2  6  1  0
  3  4  1  0
  3  7  1  0
M  RAD  1   4   2
M  END
>  <reaction>  (2) 
rxn_1983

>  <mol_properties>  (2) 
{"1": {"label": "acceptor", "atom_type": "Cs"}}

>  <type>  (2) 
r2

$$$$

     RDKit          3D

  8  7  0  0  0  0  0  0  0  0999 V2000
    1.7301   -0.0562    0.5281 S   0  0  0  0  0  0  0  0  0  0  0  0
    0.1858    0.6127   -0.1669 C   0  0  0  0  0  0  0  0  0  0  0  0
   -0.9621   -0.2567    0.2171 C   0  0  0  0  0  0  0  0  0  0  0  0
   -1.8663   -1.1002   -0.8086 S   0  0  0  0  0  0  0  0  0  0  0  0
    1.7025   -1.2092   -0.1540 H   0  0  0  0  0  0  0  0  0  0  0  0
    0.2619    0.7246   -1.2458 H   0  0  0  0  0  0  0  0  0  0  0  0
    0.0809    1.5982    0.2929 H   0  0  0  0  0  0  0  0  0  0  0  0
   -1.1456   -0.3126    1.2907 H   0  0  0  0  0  0  0  0  0  0  0  0
  1  2  1  0
  1  5  1  0
  2  3  1  0
  2  6  1  0
  2  7  1  0
  3  4  2  0
  3  8  1  0
M  END
>  <reaction>  (3) 
rxn_1983

>  <mol_properties>  (3) 
{"1": {"label": "acceptor", "atom_type": "Cs"}, "7": {"label": "a_hydrogen", "atom_type": "H0"}}

>  <type>  (3) 
r2h

$$$$

     RDKit          3D

 14 12  0  0  0  0  0  0  0  0999 V2000
   -1.0790   -1.5253    1.9462 S   0  0  0  0  0  0  0  0  0  0  0  0
   -0.4997    0.1074    1.6103 C   0  0  0  0  0  0  0  0  0  0  0  0
   -1.1415    0.9612    0.6360 C   0  0  0  0  0  0  0  0  0  0  0  0
   -2.0993    0.4787   -0.5854 S   0  0  0  0  0  0  0  0  0  0  0  0
   -1.7667   -1.6342    0.7933 H   0  0  0  0  0  0  0  0  0  0  0  0
   -0.1704    0.6098    2.5169 H   0  0  0  0  0  0  0  0  0  0  0  0
   -0.8510    2.0080    0.7054 H   0  0  0  0  0  0  0  0  0  0  0  0
    1.8947   -0.2790    0.3918 C   0  0  0  0  0  0  0  0  0  0  0  0
    1.5512   -0.2964   -0.9803 C   0  0  0  0  0  0  0  0  0  0  0  0
    1.4819    1.0444   -1.9300 S   0  0  0  0  0  1  0  0  0  0  0  0
    0.6569   -0.0405    0.9883 H   0  0  0  0  0  0  0  0  0  0  0  0
    2.1258   -1.2232    0.8776 H   0  0  0  0  0  0  0  0  0  0  0  0
    2.4174    0.5974    0.7631 H   0  0  0  0  0  0  0  0  0  0  0  0
    1.2564   -1.2573   -1.3982 H   0  0  0  0  0  0  0  0  0  0  0  0
  1  2  1  0
  1  5  1  0
  2  3  1  0
  2  6  1  0
  2 11  1  0
  3  4  2  0
  3  7  1  0
  8  9  2  3
  8 12  1  0
  8 13  1  0
  9 10  1  0
  9 14  1  0
M  RAD  1  10   2
M  END
>  <reaction>  (4) 
rxn_1983

>  <mol_properties>  (4) 
{"1": {"label": "*1", "atom_type": "Cs"}, "2": {"label": "*0", "atom_type": "CS"}, "7": {"label": "*3", "atom_type": "Cd"}, "8": {"label": "*4", "atom_type": "Cd"}, "10": {"label": "*2", "atom_type": "H0"}}

>  <type>  (4) 
ts

$$$$

     RDKit          3D

 14 12  0  0  0  0  0  0  0  0999 V2000
    0.0966    0.7140    2.7806 S   0  0  0  0  0  0  0  0  0  0  0  0
   -0.4015    0.7376    1.0294 C   0  0  0  0  0  0  0  0  0  0  0  0
   -1.8277    0.3247    0.9017 C   0  0  0  0  0  0  0  0  0  0  0  0
   -2.3432   -0.9973    0.1482 S   0  0  0  0  0  0  0  0  0  0  0  0
   -0.0796   -0.6023    2.9583 H   0  0  0  0  0  0  0  0  0  0  0  0
   -0.2833    1.7798    0.7234 H   0  0  0  0  0  0  0  0  0  0  0  0
   -2.5356    0.9898    1.3976 H   0  0  0  0  0  0  0  0  0  0  0  0
    1.6945    0.8020   -0.5381 C   0  0  0  0  0  0  0  0  0  0  0  0
    1.6945   -0.3965   -1.4203 C   0  0  0  0  0  0  0  0  0  0  0  0
    1.6945   -0.3965   -3.0270 S   0  0  0  0  0  1  0  0  0  0  0  0
    0.6431    0.7697    0.2481 H   0  0  0  0  0  0  0  0  0  0  0  0
    2.5706    0.7751    0.1171 H   0  0  0  0  0  0  0  0  0  0  0  0
    1.6945    1.7258   -1.1128 H   0  0  0  0  0  0  0  0  0  0  0  0
    1.6945   -1.3509   -0.8904 H   0  0  0  0  0  0  0  0  0  0  0  0
  1  2  1  0
  1  5  1  0
  2  3  1  0
  2  6  1  0
  2 11  1  0
  3  4  2  0
  3  7  1  0
  8  9  2  3
  8 12  1  0
  8 13  1  0
  9 10  1  0
  9 14  1  0
M  RAD  1  10   2
M  END
>  <reaction>  (5) 
rxn_1983

>  <mol_properties>  (5) 
{"1": {"label": "*1", "atom_type": "Cs"}, "2": {"label": "*0", "atom_type": "CS"}, "7": {"label": "*3", "atom_type": "Cd"}, "8": {"label": "*4", "atom_type": "Cd"}, "10": {"label": "*2", "atom_type": "H0"}}

>  <type>  (5) 
unop_1

>  <geom_source>  (5) 
Heuristics

$$$$

     RDKit          3D

 14 12  0  0  0  0  0  0  0  0999 V2000
   -0.7587   -1.4211    1.8287 S   0  0  0  0  0  0  0  0  0  0  0  0
   -0.2670    0.2951    1.4705 C   0  0  0  0  0  0  0  0  0  0  0  0
   -1.4789    1.1470    1.3079 C   0  0  0  0  0  0  0  0  0  0  0  0
   -1.9124    1.8880   -0.0501 S   0  0  0  0  0  0  0  0  0  0  0  0
   -1.3880   -1.6320    0.6647 H   0  0  0  0  0  0  0  0  0  0  0  0
    0.2977    0.6094    2.3514 H   0  0  0  0  0  0  0  0  0  0  0  0
   -2.1013    1.2202    2.2005 H   0  0  0  0  0  0  0  0  0  0  0  0
    1.8290    0.3594   -0.0971 C   0  0  0  0  0  0  0  0  0  0  0  0
    1.8290   -0.8390   -0.9793 C   0  0  0  0  0  0  0  0  0  0  0  0
    1.8290   -0.8390   -2.5859 S   0  0  0  0  0  1  0  0  0  0  0  0
    0.7776    0.3271    0.6892 H   0  0  0  0  0  0  0  0  0  0  0  0
    2.7051    0.3325    0.5582 H   0  0  0  0  0  0  0  0  0  0  0  0
    1.8290    1.2832   -0.6717 H   0  0  0  0  0  0  0  0  0  0  0  0
    1.8290   -1.7935   -0.4493 H   0  0  0  0  0  0  0  0  0  0  0  0
  1  2  1  0
  1  5  1  0
  2  3  1  0
  2  6  1  0
  2 11  1  0
  3  4  2  0
  3  7  1  0
  8  9  2  3
  8 12  1  0
  8 13  1  0
  9 10  1  0
  9 14  1  0
M  RAD  1  10   2
M  END
>  <reaction>  (6) 
rxn_1983

>  <mol_properties>  (6) 
{"1": {"label": "*1", "atom_type": "Cs"}, "2": {"label": "*0", "atom_type": "CS"}, "7": {"label": "*3", "atom_type": "Cd"}, "8": {"label": "*4", "atom_type": "Cd"}, "10": {"label": "*2", "atom_type": "H0"}}

>  <type>  (6) 
unop_2

>  <geom_source>  (6) 
Heuristics

$$$$

     RDKit          3D

 14 12  0  0  0  0  0  0  0  0999 V2000
   -0.2851    1.6215    2.4383 S   0  0  0  0  0  0  0  0  0  0  0  0
   -0.6323    0.7939    0.8540 C   0  0  0  0  0  0  0  0  0  0  0  0
   -1.6871   -0.2416    1.0426 C   0  0  0  0  0  0  0  0  0  0  0  0
   -1.4761   -1.8223    0.8467 S   0  0  0  0  0  0  0  0  0  0  0  0
    0.1675    0.5299    3.0699 H   0  0  0  0  0  0  0  0  0  0  0  0
   -0.9997    1.5901    0.2021 H   0  0  0  0  0  0  0  0  0  0  0  0
   -2.6522    0.1515    1.3644 H   0  0  0  0  0  0  0  0  0  0  0  0
    1.4637    0.8583   -0.7136 C   0  0  0  0  0  0  0  0  0  0  0  0
    1.4637   -0.3402   -1.5958 C   0  0  0  0  0  0  0  0  0  0  0  0
    1.4637   -0.3402   -3.2025 S   0  0  0  0  0  1  0  0  0  0  0  0
    0.4124    0.8260    0.0727 H   0  0  0  0  0  0  0  0  0  0  0  0
    2.3399    0.8314   -0.0584 H   0  0  0  0  0  0  0  0  0  0  0  0
    1.4637    1.7821   -1.2883 H   0  0  0  0  0  0  0  0  0  0  0  0
    1.4637   -1.2946   -1.0659 H   0  0  0  0  0  0  0  0  0  0  0  0
  1  2  1  0
  1  5  1  0
  2  3  1  0
  2  6  1  0
  2 11  1  0
  3  4  2  0
  3  7  1  0
  8  9  2  3
  8 12  1  0
  8 13  1  0
  9 10  1  0
  9 14  1  0
M  RAD  1  10   2
M  END
>  <reaction>  (7) 
rxn_1983

>  <mol_properties>  (7) 
{"1": {"label": "*1", "atom_type": "Cs"}, "2": {"label": "*0", "atom_type": "CS"}, "7": {"label": "*3", "atom_type": "Cd"}, "8": {"label": "*4", "atom_type": "Cd"}, "10": {"label": "*2", "atom_type": "H0"}}

>  <type>  (7) 
unop_3

>  <geom_source>  (7) 
Heuristics

$$$$

     RDKit          3D

 14 12  0  0  0  0  0  0  0  0999 V2000
   -2.4241   -0.2555    0.4598 S   0  0  0  0  0  0  0  0  0  0  0  0
   -0.8848   -0.2472    1.4323 C   0  0  0  0  0  0  0  0  0  0  0  0
   -0.5086    1.1534    1.7752 C   0  0  0  0  0  0  0  0  0  0  0  0
    0.8148    1.9068    1.2629 S   0  0  0  0  0  0  0  0  0  0  0  0
   -1.9315    0.4199   -0.5874 H   0  0  0  0  0  0  0  0  0  0  0  0
   -1.1296   -0.8035    2.3403 H   0  0  0  0  0  0  0  0  0  0  0  0
   -1.2328    1.6737    2.4030 H   0  0  0  0  0  0  0  0  0  0  0  0
    1.2112   -0.1828   -0.1353 C   0  0  0  0  0  0  0  0  0  0  0  0
    1.2112   -1.3813   -1.0175 C   0  0  0  0  0  0  0  0  0  0  0  0
    1.2112   -1.3813   -2.6241 S   0  0  0  0  0  1  0  0  0  0  0  0
    0.1599   -0.2151    0.6510 H   0  0  0  0  0  0  0  0  0  0  0  0
    2.0874   -0.2097    0.5200 H   0  0  0  0  0  0  0  0  0  0  0  0
    1.2112    0.7410   -0.7099 H   0  0  0  0  0  0  0  0  0  0  0  0
    1.2112   -2.3357   -0.4875 H   0  0  0  0  0  0  0  0  0  0  0  0
  1  2  1  0
  1  5  1  0
  2  3  1  0
  2  6  1  0
  2 11  1  0
  3  4  2  0
  3  7  1  0
  8  9  2  3
  8 12  1  0
  8 13  1  0
  9 10  1  0
  9 14  1  0
M  RAD  1  10   2
M  END
>  <reaction>  (8) 
rxn_1983

>  <mol_properties>  (8) 
{"1": {"label": "*1", "atom_type": "Cs"}, "2": {"label": "*0", "atom_type": "CS"}, "7": {"label": "*3", "atom_type": "Cd"}, "8": {"label": "*4", "atom_type": "Cd"}, "10": {"label": "*2", "atom_type": "H0"}}

>  <type>  (8) 
unop_4

>  <geom_source>  (8) 
Heuristics

$$$$

     RDKit          3D

 14 12  0  0  0  0  0  0  0  0999 V2000
   -1.0917    2.0732    1.8124 S   0  0  0  0  0  0  0  0  0  0  0  0
   -1.0555    0.6205    0.7152 C   0  0  0  0  0  0  0  0  0  0  0  0
   -1.0991   -0.6292    1.5258 C   0  0  0  0  0  0  0  0  0  0  0  0
    0.0761   -1.7221    1.6033 S   0  0  0  0  0  0  0  0  0  0  0  0
    0.0703    1.8133    2.4268 H   0  0  0  0  0  0  0  0  0  0  0  0
   -1.9620    0.7085    0.1115 H   0  0  0  0  0  0  0  0  0  0  0  0
   -2.0084   -0.7527    2.1150 H   0  0  0  0  0  0  0  0  0  0  0  0
    1.0405    0.6849   -0.8524 C   0  0  0  0  0  0  0  0  0  0  0  0
    1.0405   -0.5136   -1.7346 C   0  0  0  0  0  0  0  0  0  0  0  0
    1.0405   -0.5136   -3.3412 S   0  0  0  0  0  1  0  0  0  0  0  0
   -0.0108    0.6526   -0.0661 H   0  0  0  0  0  0  0  0  0  0  0  0
    1.9167    0.6580   -0.1972 H   0  0  0  0  0  0  0  0  0  0  0  0
    1.0405    1.6086   -1.4271 H   0  0  0  0  0  0  0  0  0  0  0  0
    1.0405   -1.4680   -1.2046 H   0  0  0  0  0  0  0  0  0  0  0  0
  1  2  1  0
  1  5  1  0
  2  3  1  0
  2  6  1  0
  2 11  1  0
  3  4  2  0
  3  7  1  0
  8  9  2  3
  8 12  1  0
  8 13  1  0
  9 10  1  0
  9 14  1  0
M  RAD  1  10   2
M  END
>  <reaction>  (9) 
rxn_1983

>  <mol_properties>  (9) 
{"1": {"label": "*1", "atom_type": "Cs"}, "2": {"label": "*0", "atom_type": "CS"}, "7": {"label": "*3", "atom_type": "Cd"}, "8": {"label": "*4", "atom_type": "Cd"}, "10": {"label": "*2", "atom_type": "H0"}}

>  <type>  (9) 
unop_5

>  <geom_source>  (9) 
Heuristics

$$$$

     RDKit          3D

 14 12  0  0  0  0  0  0  0  0999 V2000
   -2.5171    0.6151    0.4863 S   0  0  0  0  0  0  0  0  0  0  0  0
   -1.0998   -0.2257    1.2608 C   0  0  0  0  0  0  0  0  0  0  0  0
   -0.2343    0.7710    1.9525 C   0  0  0  0  0  0  0  0  0  0  0  0
    1.2818    1.1168    1.5485 S   0  0  0  0  0  0  0  0  0  0  0  0
   -1.7931    1.3528   -0.3663 H   0  0  0  0  0  0  0  0  0  0  0  0
   -1.5474   -0.9049    1.9902 H   0  0  0  0  0  0  0  0  0  0  0  0
   -0.7220    1.2992    2.7726 H   0  0  0  0  0  0  0  0  0  0  0  0
    0.9962   -0.1613   -0.3068 C   0  0  0  0  0  0  0  0  0  0  0  0
    0.9962   -1.3598   -1.1889 C   0  0  0  0  0  0  0  0  0  0  0  0
    0.9962   -1.3598   -2.7956 S   0  0  0  0  0  1  0  0  0  0  0  0
   -0.0551   -0.1936    0.4795 H   0  0  0  0  0  0  0  0  0  0  0  0
    1.8724   -0.1882    0.3485 H   0  0  0  0  0  0  0  0  0  0  0  0
    0.9962    0.7625   -0.8814 H   0  0  0  0  0  0  0  0  0  0  0  0
    0.9962   -2.3142   -0.6590 H   0  0  0  0  0  0  0  0  0  0  0  0
  1  2  1  0
  1  5  1  0
  2  3  1  0
  2  6  1  0
  2 11  1  0
  3  4  2  0
  3  7  1  0
  8  9  2  3
  8 12  1  0
  8 13  1  0
  9 10  1  0
  9 14  1  0
M  RAD  1  10   2
M  END
>  <reaction>  (10) 
rxn_1983

>  <mol_properties>  (10) 
{"1": {"label": "*1", "atom_type": "Cs"}, "2": {"label": "*0", "atom_type": "CS"}, "7": {"label": "*3", "atom_type": "Cd"}, "8": {"label": "*4", "atom_type": "Cd"}, "10": {"label": "*2", "atom_type": "H0"}}

>  <type>  (10) 
unop_6

>  <geom_source>  (10) 
Heuristics

$$$$

     RDKit          3D

 14 12  0  0  0  0  0  0  0  0999 V2000
   -2.3140    1.3709    0.7949 S   0  0  0  0  0  0  0  0  0  0  0  0
   -1.2590   -0.0894    1.0596 C   0  0  0  0  0  0  0  0  0  0  0  0
   -0.1643    0.2416    2.0149 C   0  0  0  0  0  0  0  0  0  0  0  0
    1.4023    0.2507    1.6584 S   0  0  0  0  0  0  0  0  0  0  0  0
   -1.3600    2.1347    0.2454 H   0  0  0  0  0  0  0  0  0  0  0  0
   -1.9264   -0.8358    1.4969 H   0  0  0  0  0  0  0  0  0  0  0  0
   -0.5056    0.5184    3.0131 H   0  0  0  0  0  0  0  0  0  0  0  0
    0.8370   -0.0251   -0.5080 C   0  0  0  0  0  0  0  0  0  0  0  0
    0.8370   -1.2235   -1.3902 C   0  0  0  0  0  0  0  0  0  0  0  0
    0.8370   -1.2235   -2.9969 S   0  0  0  0  0  1  0  0  0  0  0  0
   -0.2143   -0.0573    0.2783 H   0  0  0  0  0  0  0  0  0  0  0  0
    1.7132   -0.0519    0.1472 H   0  0  0  0  0  0  0  0  0  0  0  0
    0.8370    0.8987   -1.0827 H   0  0  0  0  0  0  0  0  0  0  0  0
    0.8370   -2.1780   -0.8603 H   0  0  0  0  0  0  0  0  0  0  0  0
  1  2  1  0
  1  5  1  0
  2  3  1  0
  2  6  1  0
  2 11  1  0
  3  4  2  0
  3  7  1  0
  8  9  2  3
  8 12  1  0
  8 13  1  0
  9 10  1  0
  9 14  1  0
M  RAD  1  10   2
M  END
>  <reaction>  (11) 
rxn_1983

>  <mol_properties>  (11) 
{"1": {"label": "*1", "atom_type": "Cs"}, "2": {"label": "*0", "atom_type": "CS"}, "7": {"label": "*3", "atom_type": "Cd"}, "8": {"label": "*4", "atom_type": "Cd"}, "10": {"label": "*2", "atom_type": "H0"}}

>  <type>  (11) 
unop_7

>  <geom_source>  (11) 
Heuristics

$$$$

     RDKit          3D

 14 12  0  0  0  0  0  0  0  0999 V2000
    0.0844   -0.2383    2.7296 S   0  0  0  0  0  0  0  0  0  0  0  0
   -0.2917    0.6344    1.1764 C   0  0  0  0  0  0  0  0  0  0  0  0
   -1.7674    0.7425    0.9994 C   0  0  0  0  0  0  0  0  0  0  0  0
   -2.6100    0.0502   -0.1804 S   0  0  0  0  0  0  0  0  0  0  0  0
   -0.4818   -1.4006    2.3775 H   0  0  0  0  0  0  0  0  0  0  0  0
    0.1450    1.6276    1.3058 H   0  0  0  0  0  0  0  0  0  0  0  0
   -2.2724    1.3250    1.7709 H   0  0  0  0  0  0  0  0  0  0  0  0
    1.8043    0.6987   -0.3911 C   0  0  0  0  0  0  0  0  0  0  0  0
    1.8043   -0.4997   -1.2733 C   0  0  0  0  0  0  0  0  0  0  0  0
    1.8043   -0.4997   -2.8800 S   0  0  0  0  0  1  0  0  0  0  0  0
    0.7529    0.6664    0.3952 H   0  0  0  0  0  0  0  0  0  0  0  0
    2.6805    0.6718    0.2641 H   0  0  0  0  0  0  0  0  0  0  0  0
    1.8043    1.6225   -0.9658 H   0  0  0  0  0  0  0  0  0  0  0  0
    1.8043   -1.4542   -0.7434 H   0  0  0  0  0  0  0  0  0  0  0  0
  1  2  1  0
  1  5  1  0
  2  3  1  0
  2  6  1  0
  2 11  1  0
  3  4  2  0
  3  7  1  0
  8  9  2  3
  8 12  1  0
  8 13  1  0
  9 10  1  0
  9 14  1  0
M  RAD  1  10   2
M  END
>  <reaction>  (12) 
rxn_1983

>  <mol_properties>  (12) 
{"1": {"label": "*1", "atom_type": "Cs"}, "2": {"label": "*0", "atom_type": "CS"}, "7": {"label": "*3", "atom_type": "Cd"}, "8": {"label": "*4", "atom_type": "Cd"}, "10": {"label": "*2", "atom_type": "H0"}}

>  <type>  (12) 
unop_8

>  <geom_source>  (12) 
Heuristics

$$$$

     RDKit          3D

 14 12  0  0  0  0  0  0  0  0999 V2000
   -2.0233   -1.0131    0.7430 S   0  0  0  0  0  0  0  0  0  0  0  0
   -0.6349   -0.1536    1.5486 C   0  0  0  0  0  0  0  0  0  0  0  0
   -0.8883    1.3148    1.5662 C   0  0  0  0  0  0  0  0  0  0  0  0
   -0.0075    2.4140    0.7934 S   0  0  0  0  0  0  0  0  0  0  0  0
   -1.8606   -0.4448   -0.4595 H   0  0  0  0  0  0  0  0  0  0  0  0
   -0.6232   -0.5451    2.5686 H   0  0  0  0  0  0  0  0  0  0  0  0
   -1.7664    1.6137    2.1397 H   0  0  0  0  0  0  0  0  0  0  0  0
    1.4611   -0.0893   -0.0190 C   0  0  0  0  0  0  0  0  0  0  0  0
    1.4611   -1.2877   -0.9012 C   0  0  0  0  0  0  0  0  0  0  0  0
    1.4611   -1.2877   -2.5078 S   0  0  0  0  0  1  0  0  0  0  0  0
    0.4097   -0.1215    0.7673 H   0  0  0  0  0  0  0  0  0  0  0  0
    2.3372   -0.1161    0.6363 H   0  0  0  0  0  0  0  0  0  0  0  0
    1.4611    0.8345   -0.5936 H   0  0  0  0  0  0  0  0  0  0  0  0
    1.4611   -2.2422   -0.3712 H   0  0  0  0  0  0  0  0  0  0  0  0
  1  2  1  0
  1  5  1  0
  2  3  1  0
  2  6  1  0
  2 11  1  0
  3  4  2  0
  3  7  1  0
  8  9  2  3
  8 12  1  0
  8 13  1  0
  9 10  1  0
  9 14  1  0
M  RAD  1  10   2
M  END
>  <reaction>  (13) 
rxn_1983

>  <mol_properties>  (13) 
{"1": {"label": "*1", "atom_type": "Cs"}, "2": {"label": "*0", "atom_type": "CS"}, "7": {"label": "*3", "atom_type": "Cd"}, "8": {"label": "*4", "atom_type": "Cd"}, "10": {"label": "*2", "atom_type": "H0"}}

>  <type>  (13) 
unop_9

>  <geom_source>  (13) 
Heuristics

$$$$

     RDKit          3D

 14 12  0  0  0  0  0  0  0  0999 V2000
   -0.2293   -0.9970    2.3674 S   0  0  0  0  0  0  0  0  0  0  0  0
   -0.2431    0.4952    1.3241 C   0  0  0  0  0  0  0  0  0  0  0  0
   -1.6390    0.9933    1.1690 C   0  0  0  0  0  0  0  0  0  0  0  0
   -2.4507    1.0528   -0.2162 S   0  0  0  0  0  0  0  0  0  0  0  0
   -0.9605   -1.7541    1.5382 H   0  0  0  0  0  0  0  0  0  0  0  0
    0.3564    1.2229    1.8762 H   0  0  0  0  0  0  0  0  0  0  0  0
   -2.1122    1.3053    2.1008 H   0  0  0  0  0  0  0  0  0  0  0  0
    1.8529    0.5595   -0.2435 C   0  0  0  0  0  0  0  0  0  0  0  0
    1.8529   -0.6389   -1.1257 C   0  0  0  0  0  0  0  0  0  0  0  0
    1.8529   -0.6389   -2.7324 S   0  0  0  0  0  1  0  0  0  0  0  0
    0.8016    0.5273    0.5428 H   0  0  0  0  0  0  0  0  0  0  0  0
    2.7291    0.5327    0.4117 H   0  0  0  0  0  0  0  0  0  0  0  0
    1.8529    1.4833   -0.8182 H   0  0  0  0  0  0  0  0  0  0  0  0
    1.8529   -1.5934   -0.5958 H   0  0  0  0  0  0  0  0  0  0  0  0
  1  2  1  0
  1  5  1  0
  2  3  1  0
  2  6  1  0
  2 11  1  0
  3  4  2  0
  3  7  1  0
  8  9  2  3
  8 12  1  0
  8 13  1  0
  9 10  1  0
  9 14  1  0
M  RAD  1  10   2
M  END
>  <reaction>  (14) 
rxn_1983

>  <mol_properties>  (14) 
{"1": {"label": "*1", "atom_type": "Cs"}, "2": {"label": "*0", "atom_type": "CS"}, "7": {"label": "*3", "atom_type": "Cd"}, "8": {"label": "*4", "atom_type": "Cd"}, "10": {"label": "*2", "atom_type": "H0"}}

>  <type>  (14) 
unop_10

>  <geom_source>  (14) 
Heuristics

$$$$

     RDKit          3D

 14 12  0  0  0  0  0  0  0  0999 V2000
   -1.8556    1.8825    1.2605 S   0  0  0  0  0  0  0  0  0  0  0  0
   -1.3061    0.1982    0.8400 C   0  0  0  0  0  0  0  0  0  0  0  0
   -0.4118   -0.3261    1.9105 C   0  0  0  0  0  0  0  0  0  0  0  0
    1.1418   -0.6894    1.7213 S   0  0  0  0  0  0  0  0  0  0  0  0
   -0.6364    2.4377    1.2351 H   0  0  0  0  0  0  0  0  0  0  0  0
   -2.2264   -0.3894    0.7980 H   0  0  0  0  0  0  0  0  0  0  0  0
   -0.8885   -0.4283    2.8861 H   0  0  0  0  0  0  0  0  0  0  0  0
    0.7899    0.2626   -0.7276 C   0  0  0  0  0  0  0  0  0  0  0  0
    0.7899   -0.9359   -1.6098 C   0  0  0  0  0  0  0  0  0  0  0  0
    0.7899   -0.9359   -3.2164 S   0  0  0  0  0  1  0  0  0  0  0  0
   -0.2615    0.2303    0.0587 H   0  0  0  0  0  0  0  0  0  0  0  0
    1.6660    0.2357   -0.0723 H   0  0  0  0  0  0  0  0  0  0  0  0
    0.7899    1.1864   -1.3022 H   0  0  0  0  0  0  0  0  0  0  0  0
    0.7899   -1.8903   -1.0798 H   0  0  0  0  0  0  0  0  0  0  0  0
  1  2  1  0
  1  5  1  0
  2  3  1  0
  2  6  1  0
  2 11  1  0
  3  4  2  0
  3  7  1  0
  8  9  2  3
  8 12  1  0
  8 13  1  0
  9 10  1  0
  9 14  1  0
M  RAD  1  10   2
M  END
>  <reaction>  (15) 
rxn_1983

>  <mol_properties>  (15) 
{"1": {"label": "*1", "atom_type": "Cs"}, "2": {"label": "*0", "atom_type": "CS"}, "7": {"label": "*3", "atom_type": "Cd"}, "8": {"label": "*4", "atom_type": "Cd"}, "10": {"label": "*2", "atom_type": "H0"}}

>  <type>  (15) 
unop_11

>  <geom_source>  (15) 
Heuristics

$$$$

     RDKit          3D

 14 12  0  0  0  0  0  0  0  0999 V2000
   -1.4076   -1.4346    1.2461 S   0  0  0  0  0  0  0  0  0  0  0  0
   -0.4027    0.0500    1.5646 C   0  0  0  0  0  0  0  0  0  0  0  0
   -1.2412    1.2726    1.4137 C   0  0  0  0  0  0  0  0  0  0  0  0
   -1.0273    2.4081    0.2974 S   0  0  0  0  0  0  0  0  0  0  0  0
   -1.6793   -1.1474   -0.0342 H   0  0  0  0  0  0  0  0  0  0  0  0
   -0.0760   -0.0558    2.6019 H   0  0  0  0  0  0  0  0  0  0  0  0
   -2.0672    1.3428    2.1224 H   0  0  0  0  0  0  0  0  0  0  0  0
    1.6933    0.1143   -0.0029 C   0  0  0  0  0  0  0  0  0  0  0  0
    1.6933   -1.0841   -0.8851 C   0  0  0  0  0  0  0  0  0  0  0  0
    1.6933   -1.0841   -2.4918 S   0  0  0  0  0  1  0  0  0  0  0  0
    0.6420    0.0821    0.7834 H   0  0  0  0  0  0  0  0  0  0  0  0
    2.5695    0.0875    0.6523 H   0  0  0  0  0  0  0  0  0  0  0  0
    1.6933    1.0381   -0.5776 H   0  0  0  0  0  0  0  0  0  0  0  0
    1.6933   -2.0386   -0.3552 H   0  0  0  0  0  0  0  0  0  0  0  0
  1  2  1  0
  1  5  1  0
  2  3  1  0
  2  6  1  0
  2 11  1  0
  3  4  2  0
  3  7  1  0
  8  9  2  3
  8 12  1  0
  8 13  1  0
  9 10  1  0
  9 14  1  0
M  RAD  1  10   2
M  END
>  <reaction>  (16) 
rxn_1983

>  <mol_properties>  (16) 
{"1": {"label": "*1", "atom_type": "Cs"}, "2": {"label": "*0", "atom_type": "CS"}, "7": {"label": "*3", "atom_type": "Cd"}, "8": {"label": "*4", "atom_type": "Cd"}, "10": {"label": "*2", "atom_type": "H0"}}

>  <type>  (16) 
unop_12

>  <geom_source>  (16) 
Heuristics

$$$$

     RDKit          3D

 14 12  0  0  0  0  0  0  0  0999 V2000
   -2.4697    0.6367   -1.1270 S   0  0  0  0  0  0  0  0  0  0  0  0
   -1.3262   -2.4888   -0.3855 S   0  0  0  0  0  1  0  0  0  0  0  0
    3.1837    1.3434    0.6791 S   0  0  0  0  0  0  0  0  0  0  0  0
   -1.2283    0.0242    0.0544 C   0  0  0  0  0  0  0  0  0  0  0  0
   -1.5579   -1.3719    0.4877 C   0  0  0  0  0  0  0  0  0  0  0  0
    1.3332    0.0552   -0.5076 C   0  0  0  0  0  0  0  0  0  0  0  0
    2.1844    0.3126    0.6938 C   0  0  0  0  0  0  0  0  0  0  0  0
   -1.2265    0.6911    0.9421 H   0  0  0  0  0  0  0  0  0  0  0  0
    0.0351    0.0628   -0.5290 H   0  0  0  0  0  0  0  0  0  0  0  0
   -1.8524   -1.5565    1.5157 H   0  0  0  0  0  0  0  0  0  0  0  0
    2.0444   -0.2872    1.5863 H   0  0  0  0  0  0  0  0  0  0  0  0
    1.9586   -0.2460   -1.3751 H   0  0  0  0  0  0  0  0  0  0  0  0
    0.7306    0.9533   -0.7619 H   0  0  0  0  0  0  0  0  0  0  0  0
   -1.8090    1.8710   -1.2730 H   0  0  0  0  0  0  0  0  0  0  0  0
  1  4  1  0
  1 14  1  0
  2  5  1  0
  3  7  2  0
  4  5  2  3
  4  8  1  0
  5 10  1  0
  6  7  1  0
  6  9  1  0
  6 12  1  0
  6 13  1  0
  7 11  1  0
M  RAD  1   2   2
M  END
>  <reaction>  (17) 
rxn_1983

>  <mol_properties>  (17) 
{"1": {"label": "*1", "atom_type": "Cs"}, "2": {"label": "*0", "atom_type": "CS"}, "7": {"label": "*3", "atom_type": "Cd"}, "8": {"label": "*4", "atom_type": "Cd"}, "10": {"label": "*2", "atom_type": "H0"}}

>  <type>  (17) 
unop_13

>  <geom_source>  (17) 
AutoTST

$$$$
