
     RDKit          3D

  9  8  0  0  0  0  0  0  0  0999 V2000
   -2.1022   -0.6873    0.3932 C   0  0  0  0  0  0  0  0  0  0  0  0
   -1.2072   -0.1086   -0.1482 C   0  0  0  0  0  0  0  0  0  0  0  0
   -0.1242    0.6105   -0.8193 C   0  0  0  0  0  0  0  0  0  0  0  0
    1.2067    0.1106   -0.4741 C   0  0  0  0  0  0  0  0  0  0  0  0
    2.3005   -0.2875   -0.2012 C   0  0  0  0  0  0  0  0  0  0  0  0
   -2.8942   -1.2059    0.8778 H   0  0  0  0  0  0  0  0  0  0  0  0
   -0.1862    1.6723   -0.5649 H   0  0  0  0  0  0  0  0  0  0  0  0
   -0.2641    0.5418   -1.9017 H   0  0  0  0  0  0  0  0  0  0  0  0
    3.2709   -0.6459    0.0455 H   0  0  0  0  0  0  0  0  0  0  0  0
  1  2  3  0
  1  6  1  0
  2  3  1  0
  3  4  1  0
  3  7  1  0
  3  8  1  0
  4  5  3  0
  5  9  1  0
M  END
>  <reaction>  (1) 
rxn_1351

>  <mol_properties>  (1) 
{"2": {"label": "donator", "atom_type": "Cs"}, "6": {"label": "d_hydrogen", "atom_type": "H0"}}

>  <type>  (1) 
r1h

$$$$

     RDKit          3D

 11 10  0  0  0  0  0  0  0  0999 V2000
    2.0591    0.2533   -0.1061 C   0  0  0  0  0  0  0  0  0  0  0  0
    0.8045   -0.3111   -0.1535 C   0  0  0  0  0  0  0  0  0  0  0  0
   -0.3816    0.3942   -0.1885 C   0  0  0  0  0  3  0  0  0  0  0  0
   -1.7316   -0.2294   -0.2396 C   0  0  0  0  0  0  0  0  0  0  0  0
    2.9505   -0.3576   -0.0805 H   0  0  0  0  0  0  0  0  0  0  0  0
    2.1872    1.3290   -0.0933 H   0  0  0  0  0  0  0  0  0  0  0  0
    0.7385   -1.3970   -0.1643 H   0  0  0  0  0  0  0  0  0  0  0  0
   -0.3340    1.4795   -0.1783 H   0  0  0  0  0  0  0  0  0  0  0  0
   -1.6704   -1.3186   -0.2461 H   0  0  0  0  0  0  0  0  0  0  0  0
   -2.3404    0.0713    0.6191 H   0  0  0  0  0  0  0  0  0  0  0  0
   -2.2805    0.0851   -1.1331 H   0  0  0  0  0  0  0  0  0  0  0  0
  1  2  2  3
  1  5  1  0
  1  6  1  0
  2  3  1  0
  2  7  1  0
  3  4  1  0
  3  8  1  0
  4  9  1  0
  4 10  1  0
  4 11  1  0
M  RAD  1   3   2
M  END
>  <reaction>  (2) 
rxn_1351

>  <mol_properties>  (2) 
{"2": {"label": "acceptor", "atom_type": "Cs"}}

>  <type>  (2) 
r2

$$$$

     RDKit          3D

 12 11  0  0  0  0  0  0  0  0999 V2000
    1.9877    0.1011    0.4814 C   0  0  0  0  0  0  0  0  0  0  0  0
    0.8179    0.5502    0.0525 C   0  0  0  0  0  0  0  0  0  0  0  0
   -0.2939   -0.2692   -0.5320 C   0  0  0  0  0  0  0  0  0  0  0  0
   -0.0292   -1.7631   -0.6328 C   0  0  0  0  0  0  0  0  0  0  0  0
    2.2522   -0.9490    0.4436 H   0  0  0  0  0  0  0  0  0  0  0  0
    2.7295    0.7757    0.8896 H   0  0  0  0  0  0  0  0  0  0  0  0
    0.6162    1.6164    0.1190 H   0  0  0  0  0  0  0  0  0  0  0  0
   -0.5268    0.1319   -1.5245 H   0  0  0  0  0  0  0  0  0  0  0  0
   -1.1959   -0.0938    0.0644 H   0  0  0  0  0  0  0  0  0  0  0  0
    0.1590   -2.1992    0.3502 H   0  0  0  0  0  0  0  0  0  0  0  0
    0.8382   -1.9701   -1.2626 H   0  0  0  0  0  0  0  0  0  0  0  0
   -0.8879   -2.2759   -1.0672 H   0  0  0  0  0  0  0  0  0  0  0  0
  1  2  2  3
  1  5  1  0
  1  6  1  0
  2  3  1  0
  2  7  1  0
  3  4  1  0
  3  8  1  0
  3  9  1  0
  4 10  1  0
  4 11  1  0
  4 12  1  0
M  END
>  <reaction>  (3) 
rxn_1351

>  <mol_properties>  (3) 
{"0": {"label": "a_hydrogen", "atom_type": "H0"}, "3": {"label": "acceptor", "atom_type": "Cs"}}

>  <type>  (3) 
r2h

$$$$

     RDKit          3D

 20 18  0  0  0  0  0  0  0  0999 V2000
    0.7742   -3.0685   -1.1136 C   0  0  0  0  0  0  0  0  0  0  0  0
    0.1220   -2.2346   -0.5478 C   0  0  0  0  0  0  0  0  0  0  0  0
   -0.5878   -1.2131    0.1597 C   0  0  0  0  0  3  0  0  0  0  0  0
   -1.4214   -0.3338   -0.5987 C   0  0  0  0  0  0  0  0  0  0  0  0
   -2.0881    0.4573   -1.2081 C   0  0  0  0  0  0  0  0  0  0  0  0
    1.3300   -3.8173   -1.6245 H   0  0  0  0  0  0  0  0  0  0  0  0
    0.3743   -0.3969    0.6605 H   0  0  0  0  0  0  0  0  0  0  0  0
   -1.0426   -1.5553    1.0883 H   0  0  0  0  0  0  0  0  0  0  0  0
   -2.6931    1.1404   -1.7539 H   0  0  0  0  0  0  0  0  0  0  0  0
    0.2574    2.6400    1.4394 C   0  0  0  0  0  0  0  0  0  0  0  0
    0.7217    1.4472    1.8267 C   0  0  0  0  0  0  0  0  0  0  0  0
    1.3647    0.4662    0.9690 C   0  0  0  0  0  0  0  0  0  0  0  0
    1.8507    0.8617   -0.3988 C   0  0  0  0  0  0  0  0  0  0  0  0
   -0.2403    3.2986    2.1389 H   0  0  0  0  0  0  0  0  0  0  0  0
    0.3647    2.9948    0.4219 H   0  0  0  0  0  0  0  0  0  0  0  0
    0.5786    1.1504    2.8619 H   0  0  0  0  0  0  0  0  0  0  0  0
    2.0207   -0.2235    1.4985 H   0  0  0  0  0  0  0  0  0  0  0  0
    2.6550    1.5998   -0.3302 H   0  0  0  0  0  0  0  0  0  0  0  0
    2.2283   -0.0081   -0.9364 H   0  0  0  0  0  0  0  0  0  0  0  0
    1.0457    1.2964   -0.9944 H   0  0  0  0  0  0  0  0  0  0  0  0
  1  2  3  0
  1  6  1  0
  2  3  1  0
  3  4  1  0
  3  8  1  0
  4  5  3  0
  5  9  1  0
  7 12  1  0
 10 11  2  3
 10 14  1  0
 10 15  1  0
 11 12  1  0
 11 16  1  0
 12 13  1  0
 12 17  1  0
 13 18  1  0
 13 19  1  0
 13 20  1  0
M  RAD  1   3   2
M  END
>  <reaction>  (4) 
rxn_1351

>  <mol_properties>  (4) 
{"1": {"label": "*4", "atom_type": "Ct"}, "2": {"label": "*3", "atom_type": "Cs"}, "6": {"label": "*2", "atom_type": "H0"}, "10": {"label": "*0", "atom_type": "Cd"}, "11": {"label": "*1", "atom_type": "Cs"}}

>  <type>  (4) 
ts

$$$$

     RDKit          3D

 20 18  0  0  0  0  0  0  0  0999 V2000
   -0.4586   -1.3390   -2.9652 C   0  0  0  0  0  0  0  0  0  0  0  0
   -0.4586   -1.3390   -1.7697 C   0  0  0  0  0  0  0  0  0  0  0  0
   -0.4586   -1.3390   -0.3067 C   0  0  0  0  0  0  0  0  0  0  0  0
   -1.7726   -1.0634    0.2745 C   0  0  0  0  0  0  0  0  0  0  0  0
   -2.8464   -0.8382    0.7494 C   0  0  0  0  0  0  0  0  0  0  0  0
   -0.4586   -1.3390   -4.0287 H   0  0  0  0  0  0  0  0  0  0  0  0
    0.3995   -0.4447    0.1243 H   0  0  0  0  0  0  0  0  0  0  0  0
   -0.1033   -2.3089    0.0525 H   0  0  0  0  0  0  0  0  0  0  0  0
   -3.8016   -0.6379    1.1718 H   0  0  0  0  0  0  0  0  0  0  0  0
    0.9227    2.6696    1.7118 C   0  0  0  0  0  0  0  0  0  0  0  0
    0.5111    1.4547    1.3824 C   0  0  0  0  0  0  0  0  0  0  0  0
    1.2592    0.4513    0.5561 C   0  0  0  0  0  3  0  0  0  0  0  0
    2.6252    0.8952    0.0573 C   0  0  0  0  0  0  0  0  0  0  0  0
    0.3066    3.3236    2.3158 H   0  0  0  0  0  0  0  0  0  0  0  0
    1.8830    3.0594    1.3956 H   0  0  0  0  0  0  0  0  0  0  0  0
   -0.4638    1.1252    1.7328 H   0  0  0  0  0  0  0  0  0  0  0  0
    1.3621   -0.4663    1.1457 H   0  0  0  0  0  0  0  0  0  0  0  0
    3.2922    1.1334    0.8881 H   0  0  0  0  0  0  0  0  0  0  0  0
    3.0933    0.1056   -0.5315 H   0  0  0  0  0  0  0  0  0  0  0  0
    2.5472    1.7823   -0.5743 H   0  0  0  0  0  0  0  0  0  0  0  0
  1  2  3  0
  1  6  1  0
  2  3  1  0
  3  4  1  0
  3  7  1  0
  3  8  1  0
  4  5  3  0
  5  9  1  0
 10 11  2  3
 10 14  1  0
 10 15  1  0
 11 12  1  0
 11 16  1  0
 12 13  1  0
 12 17  1  0
 13 18  1  0
 13 19  1  0
 13 20  1  0
M  RAD  1  12   2
M  END
>  <reaction>  (5) 
rxn_1351

>  <mol_properties>  (5) 
{"1": {"label": "*4", "atom_type": "Ct"}, "2": {"label": "*3", "atom_type": "Cs"}, "6": {"label": "*2", "atom_type": "H0"}, "10": {"label": "*0", "atom_type": "Cd"}, "11": {"label": "*1", "atom_type": "Cs"}}

>  <type>  (5) 
unop_1

>  <geom_source>  (5) 
Heuristics

$$$$

     RDKit          3D

 20 18  0  0  0  0  0  0  0  0999 V2000
   -0.7158   -1.1981   -2.6075 C   0  0  0  0  0  0  0  0  0  0  0  0
   -0.7158   -1.1981   -1.4120 C   0  0  0  0  0  0  0  0  0  0  0  0
   -0.7158   -1.1981    0.0510 C   0  0  0  0  0  0  0  0  0  0  0  0
   -2.0298   -0.9225    0.6322 C   0  0  0  0  0  0  0  0  0  0  0  0
   -3.1036   -0.6973    1.1071 C   0  0  0  0  0  0  0  0  0  0  0  0
   -0.7158   -1.1981   -3.6710 H   0  0  0  0  0  0  0  0  0  0  0  0
    0.1423   -0.3037    0.4820 H   0  0  0  0  0  0  0  0  0  0  0  0
   -0.3604   -2.1679    0.4102 H   0  0  0  0  0  0  0  0  0  0  0  0
   -4.0588   -0.4969    1.5295 H   0  0  0  0  0  0  0  0  0  0  0  0
    2.1591    2.3561   -0.4716 C   0  0  0  0  0  0  0  0  0  0  0  0
    1.0732    1.6960   -0.0990 C   0  0  0  0  0  0  0  0  0  0  0  0
    1.0020    0.5923    0.9138 C   0  0  0  0  0  3  0  0  0  0  0  0
    2.3213    0.2096    1.5656 C   0  0  0  0  0  0  0  0  0  0  0  0
    2.1080    3.1414   -1.2151 H   0  0  0  0  0  0  0  0  0  0  0  0
    3.1361    2.1428   -0.0543 H   0  0  0  0  0  0  0  0  0  0  0  0
    0.1235    1.9600   -0.5575 H   0  0  0  0  0  0  0  0  0  0  0  0
    0.2806    0.8839    1.6850 H   0  0  0  0  0  0  0  0  0  0  0  0
    2.7606    1.0558    2.0975 H   0  0  0  0  0  0  0  0  0  0  0  0
    2.1737   -0.5971    2.2845 H   0  0  0  0  0  0  0  0  0  0  0  0
    3.0455   -0.1319    0.8234 H   0  0  0  0  0  0  0  0  0  0  0  0
  1  2  3  0
  1  6  1  0
  2  3  1  0
  3  4  1  0
  3  7  1  0
  3  8  1  0
  4  5  3  0
  5  9  1  0
 10 11  2  3
 10 14  1  0
 10 15  1  0
 11 12  1  0
 11 16  1  0
 12 13  1  0
 12 17  1  0
 13 18  1  0
 13 19  1  0
 13 20  1  0
M  RAD  1  12   2
M  END
>  <reaction>  (6) 
rxn_1351

>  <mol_properties>  (6) 
{"1": {"label": "*4", "atom_type": "Ct"}, "2": {"label": "*3", "atom_type": "Cs"}, "6": {"label": "*2", "atom_type": "H0"}, "10": {"label": "*0", "atom_type": "Cd"}, "11": {"label": "*1", "atom_type": "Cs"}}

>  <type>  (6) 
unop_2

>  <geom_source>  (6) 
Heuristics

$$$$

     RDKit          3D

 20 18  0  0  0  0  0  0  0  0999 V2000
   -0.4263   -1.2959   -3.0529 C   0  0  0  0  0  0  0  0  0  0  0  0
   -0.4263   -1.2959   -1.8574 C   0  0  0  0  0  0  0  0  0  0  0  0
   -0.4263   -1.2959   -0.3944 C   0  0  0  0  0  0  0  0  0  0  0  0
   -1.7404   -1.0203    0.1868 C   0  0  0  0  0  0  0  0  0  0  0  0
   -2.8141   -0.7951    0.6617 C   0  0  0  0  0  0  0  0  0  0  0  0
   -0.4263   -1.2959   -4.1164 H   0  0  0  0  0  0  0  0  0  0  0  0
    0.4318   -0.4015    0.0366 H   0  0  0  0  0  0  0  0  0  0  0  0
   -0.0710   -2.2658   -0.0352 H   0  0  0  0  0  0  0  0  0  0  0  0
   -3.7693   -0.5948    1.0841 H   0  0  0  0  0  0  0  0  0  0  0  0
    1.0101    2.2216    2.2871 C   0  0  0  0  0  0  0  0  0  0  0  0
    0.8012    1.0130    1.7875 C   0  0  0  0  0  0  0  0  0  0  0  0
    1.2914    0.4945    0.4684 C   0  0  0  0  0  3  0  0  0  0  0  0
    2.1082    1.4720   -0.3618 C   0  0  0  0  0  0  0  0  0  0  0  0
    0.6123    2.5029    3.2539 H   0  0  0  0  0  0  0  0  0  0  0  0
    1.5816    2.9745    1.7574 H   0  0  0  0  0  0  0  0  0  0  0  0
    0.2187    0.3045    2.3712 H   0  0  0  0  0  0  0  0  0  0  0  0
    1.8789   -0.4111    0.6557 H   0  0  0  0  0  0  0  0  0  0  0  0
    3.0068    1.7896    0.1707 H   0  0  0  0  0  0  0  0  0  0  0  0
    2.4205    1.0108   -1.2993 H   0  0  0  0  0  0  0  0  0  0  0  0
    1.5296    2.3654   -0.6047 H   0  0  0  0  0  0  0  0  0  0  0  0
  1  2  3  0
  1  6  1  0
  2  3  1  0
  3  4  1  0
  3  7  1  0
  3  8  1  0
  4  5  3  0
  5  9  1  0
 10 11  2  3
 10 14  1  0
 10 15  1  0
 11 12  1  0
 11 16  1  0
 12 13  1  0
 12 17  1  0
 13 18  1  0
 13 19  1  0
 13 20  1  0
M  RAD  1  12   2
M  END
>  <reaction>  (7) 
rxn_1351

>  <mol_properties>  (7) 
{"1": {"label": "*4", "atom_type": "Ct"}, "2": {"label": "*3", "atom_type": "Cs"}, "6": {"label": "*2", "atom_type": "H0"}, "10": {"label": "*0", "atom_type": "Cd"}, "11": {"label": "*1", "atom_type": "Cs"}}

>  <type>  (7) 
unop_3

>  <geom_source>  (7) 
Heuristics

$$$$

     RDKit          3D

 20 18  0  0  0  0  0  0  0  0999 V2000
   -0.7780   -0.6719   -2.9264 C   0  0  0  0  0  0  0  0  0  0  0  0
   -0.7780   -0.6719   -1.7309 C   0  0  0  0  0  0  0  0  0  0  0  0
   -0.7780   -0.6719   -0.2679 C   0  0  0  0  0  0  0  0  0  0  0  0
   -2.0920   -0.3963    0.3133 C   0  0  0  0  0  0  0  0  0  0  0  0
   -3.1657   -0.1711    0.7881 C   0  0  0  0  0  0  0  0  0  0  0  0
   -0.7780   -0.6719   -3.9899 H   0  0  0  0  0  0  0  0  0  0  0  0
    0.0802    0.2225    0.1631 H   0  0  0  0  0  0  0  0  0  0  0  0
   -0.4226   -1.6417    0.0913 H   0  0  0  0  0  0  0  0  0  0  0  0
   -4.1209    0.0293    1.2106 H   0  0  0  0  0  0  0  0  0  0  0  0
    3.1986   -0.0037    0.6857 C   0  0  0  0  0  0  0  0  0  0  0  0
    2.2974    0.7504    0.0748 C   0  0  0  0  0  0  0  0  0  0  0  0
    0.9398    1.1185    0.5949 C   0  0  0  0  0  3  0  0  0  0  0  0
    0.5838    0.5583    1.9629 C   0  0  0  0  0  0  0  0  0  0  0  0
    4.1559   -0.2135    0.2257 H   0  0  0  0  0  0  0  0  0  0  0  0
    3.0208   -0.4396    1.6617 H   0  0  0  0  0  0  0  0  0  0  0  0
    2.5397    1.1571   -0.9039 H   0  0  0  0  0  0  0  0  0  0  0  0
    0.8672    2.2115    0.6137 H   0  0  0  0  0  0  0  0  0  0  0  0
    1.2839    0.9028    2.7265 H   0  0  0  0  0  0  0  0  0  0  0  0
   -0.4166    0.8762    2.2586 H   0  0  0  0  0  0  0  0  0  0  0  0
    0.6012   -0.5333    1.9608 H   0  0  0  0  0  0  0  0  0  0  0  0
  1  2  3  0
  1  6  1  0
  2  3  1  0
  3  4  1  0
  3  7  1  0
  3  8  1  0
  4  5  3  0
  5  9  1  0
 10 11  2  3
 10 14  1  0
 10 15  1  0
 11 12  1  0
 11 16  1  0
 12 13  1  0
 12 17  1  0
 13 18  1  0
 13 19  1  0
 13 20  1  0
M  RAD  1  12   2
M  END
>  <reaction>  (8) 
rxn_1351

>  <mol_properties>  (8) 
{"1": {"label": "*4", "atom_type": "Ct"}, "2": {"label": "*3", "atom_type": "Cs"}, "6": {"label": "*2", "atom_type": "H0"}, "10": {"label": "*0", "atom_type": "Cd"}, "11": {"label": "*1", "atom_type": "Cs"}}

>  <type>  (8) 
unop_4

>  <geom_source>  (8) 
Heuristics

$$$$

     RDKit          3D

 20 18  0  0  0  0  0  0  0  0999 V2000
   -0.3390   -1.2021   -3.1503 C   0  0  0  0  0  0  0  0  0  0  0  0
   -0.3390   -1.2021   -1.9548 C   0  0  0  0  0  0  0  0  0  0  0  0
   -0.3390   -1.2021   -0.4918 C   0  0  0  0  0  0  0  0  0  0  0  0
   -1.6530   -0.9265    0.0893 C   0  0  0  0  0  0  0  0  0  0  0  0
   -2.7267   -0.7013    0.5642 C   0  0  0  0  0  0  0  0  0  0  0  0
   -0.3390   -1.2021   -4.2138 H   0  0  0  0  0  0  0  0  0  0  0  0
    0.5192   -0.3077   -0.0608 H   0  0  0  0  0  0  0  0  0  0  0  0
    0.0164   -2.1719   -0.1327 H   0  0  0  0  0  0  0  0  0  0  0  0
   -3.6819   -0.5009    0.9867 H   0  0  0  0  0  0  0  0  0  0  0  0
    1.1137    1.5947    2.6702 C   0  0  0  0  0  0  0  0  0  0  0  0
    1.3595    0.5681    1.8704 C   0  0  0  0  0  0  0  0  0  0  0  0
    1.3788    0.5883    0.3710 C   0  0  0  0  0  3  0  0  0  0  0  0
    1.0839    1.9332   -0.2741 C   0  0  0  0  0  0  0  0  0  0  0  0
    1.1227    1.4790    3.7466 H   0  0  0  0  0  0  0  0  0  0  0  0
    0.8950    2.5849    2.2882 H   0  0  0  0  0  0  0  0  0  0  0  0
    1.5718   -0.3991    2.3191 H   0  0  0  0  0  0  0  0  0  0  0  0
    2.3579    0.2265    0.0382 H   0  0  0  0  0  0  0  0  0  0  0  0
    1.8130    2.6868    0.0299 H   0  0  0  0  0  0  0  0  0  0  0  0
    1.1195    1.8529   -1.3610 H   0  0  0  0  0  0  0  0  0  0  0  0
    0.0921    2.2962    0.0025 H   0  0  0  0  0  0  0  0  0  0  0  0
  1  2  3  0
  1  6  1  0
  2  3  1  0
  3  4  1  0
  3  7  1  0
  3  8  1  0
  4  5  3  0
  5  9  1  0
 10 11  2  3
 10 14  1  0
 10 15  1  0
 11 12  1  0
 11 16  1  0
 12 13  1  0
 12 17  1  0
 13 18  1  0
 13 19  1  0
 13 20  1  0
M  RAD  1  12   2
M  END
>  <reaction>  (9) 
rxn_1351

>  <mol_properties>  (9) 
{"1": {"label": "*4", "atom_type": "Ct"}, "2": {"label": "*3", "atom_type": "Cs"}, "6": {"label": "*2", "atom_type": "H0"}, "10": {"label": "*0", "atom_type": "Cd"}, "11": {"label": "*1", "atom_type": "Cs"}}

>  <type>  (9) 
unop_5

>  <geom_source>  (9) 
Heuristics

$$$$

     RDKit          3D

 20 18  0  0  0  0  0  0  0  0999 V2000
   -0.6399   -0.6651   -3.1085 C   0  0  0  0  0  0  0  0  0  0  0  0
   -0.6399   -0.6651   -1.9130 C   0  0  0  0  0  0  0  0  0  0  0  0
   -0.6399   -0.6651   -0.4500 C   0  0  0  0  0  0  0  0  0  0  0  0
   -1.9540   -0.3895    0.1311 C   0  0  0  0  0  0  0  0  0  0  0  0
   -3.0277   -0.1643    0.6060 C   0  0  0  0  0  0  0  0  0  0  0  0
   -0.6399   -0.6651   -4.1720 H   0  0  0  0  0  0  0  0  0  0  0  0
    0.2182    0.2293   -0.0190 H   0  0  0  0  0  0  0  0  0  0  0  0
   -0.2846   -1.6349   -0.0908 H   0  0  0  0  0  0  0  0  0  0  0  0
   -3.9829    0.0361    1.0285 H   0  0  0  0  0  0  0  0  0  0  0  0
    2.8330   -0.2314    1.6163 C   0  0  0  0  0  0  0  0  0  0  0  0
    2.4112    0.4561    0.5659 C   0  0  0  0  0  0  0  0  0  0  0  0
    1.0779    1.1253    0.4128 C   0  0  0  0  0  3  0  0  0  0  0  0
    0.1314    0.9874    1.5948 C   0  0  0  0  0  0  0  0  0  0  0  0
    3.8184   -0.6796    1.6317 H   0  0  0  0  0  0  0  0  0  0  0  0
    2.2185   -0.3749    2.4972 H   0  0  0  0  0  0  0  0  0  0  0  0
    3.0784    0.5622   -0.2859 H   0  0  0  0  0  0  0  0  0  0  0  0
    1.2516    2.1861    0.2013 H   0  0  0  0  0  0  0  0  0  0  0  0
    0.5633    1.4177    2.5004 H   0  0  0  0  0  0  0  0  0  0  0  0
   -0.8087    1.5028    1.3952 H   0  0  0  0  0  0  0  0  0  0  0  0
   -0.0980   -0.0604    1.7985 H   0  0  0  0  0  0  0  0  0  0  0  0
  1  2  3  0
  1  6  1  0
  2  3  1  0
  3  4  1  0
  3  7  1  0
  3  8  1  0
  4  5  3  0
  5  9  1  0
 10 11  2  3
 10 14  1  0
 10 15  1  0
 11 12  1  0
 11 16  1  0
 12 13  1  0
 12 17  1  0
 13 18  1  0
 13 19  1  0
 13 20  1  0
M  RAD  1  12   2
M  END
>  <reaction>  (10) 
rxn_1351

>  <mol_properties>  (10) 
{"1": {"label": "*4", "atom_type": "Ct"}, "2": {"label": "*3", "atom_type": "Cs"}, "6": {"label": "*2", "atom_type": "H0"}, "10": {"label": "*0", "atom_type": "Cd"}, "11": {"label": "*1", "atom_type": "Cs"}}

>  <type>  (10) 
unop_6

>  <geom_source>  (10) 
Heuristics

$$$$

     RDKit          3D

 20 18  0  0  0  0  0  0  0  0999 V2000
   -0.4694   -0.7714   -3.2320 C   0  0  0  0  0  0  0  0  0  0  0  0
   -0.4694   -0.7714   -2.0365 C   0  0  0  0  0  0  0  0  0  0  0  0
   -0.4694   -0.7714   -0.5735 C   0  0  0  0  0  0  0  0  0  0  0  0
   -1.7835   -0.4958    0.0077 C   0  0  0  0  0  0  0  0  0  0  0  0
   -2.8572   -0.2706    0.4826 C   0  0  0  0  0  0  0  0  0  0  0  0
   -0.4694   -0.7714   -4.2955 H   0  0  0  0  0  0  0  0  0  0  0  0
    0.3887    0.1230   -0.1425 H   0  0  0  0  0  0  0  0  0  0  0  0
   -0.1141   -1.7413   -0.2143 H   0  0  0  0  0  0  0  0  0  0  0  0
   -3.8124   -0.0702    0.9050 H   0  0  0  0  0  0  0  0  0  0  0  0
    2.1919    0.0108    2.4018 C   0  0  0  0  0  0  0  0  0  0  0  0
    2.2818    0.3131    1.1156 C   0  0  0  0  0  0  0  0  0  0  0  0
    1.2484    1.0190    0.2893 C   0  0  0  0  0  3  0  0  0  0  0  0
   -0.0221    1.4183    1.0230 C   0  0  0  0  0  0  0  0  0  0  0  0
    2.9963   -0.5032    2.9125 H   0  0  0  0  0  0  0  0  0  0  0  0
    1.3198    0.2611    2.9942 H   0  0  0  0  0  0  0  0  0  0  0  0
    3.1852    0.0331    0.5794 H   0  0  0  0  0  0  0  0  0  0  0  0
    1.7138    1.9070   -0.1522 H   0  0  0  0  0  0  0  0  0  0  0  0
    0.1945    2.0983    1.8492 H   0  0  0  0  0  0  0  0  0  0  0  0
   -0.7126    1.9232    0.3466 H   0  0  0  0  0  0  0  0  0  0  0  0
   -0.5337    0.5454    1.4333 H   0  0  0  0  0  0  0  0  0  0  0  0
  1  2  3  0
  1  6  1  0
  2  3  1  0
  3  4  1  0
  3  7  1  0
  3  8  1  0
  4  5  3  0
  5  9  1  0
 10 11  2  3
 10 14  1  0
 10 15  1  0
 11 12  1  0
 11 16  1  0
 12 13  1  0
 12 17  1  0
 13 18  1  0
 13 19  1  0
 13 20  1  0
M  RAD  1  12   2
M  END
>  <reaction>  (11) 
rxn_1351

>  <mol_properties>  (11) 
{"1": {"label": "*4", "atom_type": "Ct"}, "2": {"label": "*3", "atom_type": "Cs"}, "6": {"label": "*2", "atom_type": "H0"}, "10": {"label": "*0", "atom_type": "Cd"}, "11": {"label": "*1", "atom_type": "Cs"}}

>  <type>  (11) 
unop_7

>  <geom_source>  (11) 
Heuristics

$$$$

     RDKit          3D

 20 18  0  0  0  0  0  0  0  0999 V2000
   -0.4970   -1.3632   -2.8399 C   0  0  0  0  0  0  0  0  0  0  0  0
   -0.4970   -1.3632   -1.6444 C   0  0  0  0  0  0  0  0  0  0  0  0
   -0.4970   -1.3632   -0.1814 C   0  0  0  0  0  0  0  0  0  0  0  0
   -1.8110   -1.0876    0.3998 C   0  0  0  0  0  0  0  0  0  0  0  0
   -2.8848   -0.8624    0.8747 C   0  0  0  0  0  0  0  0  0  0  0  0
   -0.4970   -1.3632   -3.9034 H   0  0  0  0  0  0  0  0  0  0  0  0
    0.3611   -0.4688    0.2496 H   0  0  0  0  0  0  0  0  0  0  0  0
   -0.1417   -2.3331    0.1778 H   0  0  0  0  0  0  0  0  0  0  0  0
   -3.8400   -0.6621    1.2971 H   0  0  0  0  0  0  0  0  0  0  0  0
    1.0466    2.9334    0.9216 C   0  0  0  0  0  0  0  0  0  0  0  0
    0.4970    1.7317    0.8345 C   0  0  0  0  0  0  0  0  0  0  0  0
    1.2208    0.4272    0.6814 C   0  0  0  0  0  3  0  0  0  0  0  0
    2.7374    0.5177    0.6225 C   0  0  0  0  0  0  0  0  0  0  0  0
    0.4357    3.8206    1.0309 H   0  0  0  0  0  0  0  0  0  0  0  0
    2.1195    3.0816    0.8877 H   0  0  0  0  0  0  0  0  0  0  0  0
   -0.5866    1.6532    0.8753 H   0  0  0  0  0  0  0  0  0  0  0  0
    0.9222   -0.2269    1.5080 H   0  0  0  0  0  0  0  0  0  0  0  0
    3.1433    0.9630    1.5329 H   0  0  0  0  0  0  0  0  0  0  0  0
    3.1765   -0.4743    0.5111 H   0  0  0  0  0  0  0  0  0  0  0  0
    3.0654    1.1258   -0.2227 H   0  0  0  0  0  0  0  0  0  0  0  0
  1  2  3  0
  1  6  1  0
  2  3  1  0
  3  4  1  0
  3  7  1  0
  3  8  1  0
  4  5  3  0
  5  9  1  0
 10 11  2  3
 10 14  1  0
 10 15  1  0
 11 12  1  0
 11 16  1  0
 12 13  1  0
 12 17  1  0
 13 18  1  0
 13 19  1  0
 13 20  1  0
M  RAD  1  12   2
M  END
>  <reaction>  (12) 
rxn_1351

>  <mol_properties>  (12) 
{"1": {"label": "*4", "atom_type": "Ct"}, "2": {"label": "*3", "atom_type": "Cs"}, "6": {"label": "*2", "atom_type": "H0"}, "10": {"label": "*0", "atom_type": "Cd"}, "11": {"label": "*1", "atom_type": "Cs"}}

>  <type>  (12) 
unop_8

>  <geom_source>  (12) 
Heuristics

$$$$

     RDKit          3D

 20 18  0  0  0  0  0  0  0  0999 V2000
   -0.8478   -0.7906   -2.7419 C   0  0  0  0  0  0  0  0  0  0  0  0
   -0.8478   -0.7906   -1.5464 C   0  0  0  0  0  0  0  0  0  0  0  0
   -0.8478   -0.7906   -0.0834 C   0  0  0  0  0  0  0  0  0  0  0  0
   -2.1619   -0.5150    0.4977 C   0  0  0  0  0  0  0  0  0  0  0  0
   -3.2356   -0.2898    0.9726 C   0  0  0  0  0  0  0  0  0  0  0  0
   -0.8478   -0.7906   -3.8054 H   0  0  0  0  0  0  0  0  0  0  0  0
    0.0103    0.1038    0.3476 H   0  0  0  0  0  0  0  0  0  0  0  0
   -0.4925   -1.7605    0.2758 H   0  0  0  0  0  0  0  0  0  0  0  0
   -4.1908   -0.0895    1.3951 H   0  0  0  0  0  0  0  0  0  0  0  0
    3.1979    0.6333   -0.1239 C   0  0  0  0  0  0  0  0  0  0  0  0
    1.9697    1.1166   -0.2335 C   0  0  0  0  0  0  0  0  0  0  0  0
    0.8699    0.9998    0.7794 C   0  0  0  0  0  3  0  0  0  0  0  0
    1.2232    0.2468    2.0522 C   0  0  0  0  0  0  0  0  0  0  0  0
    3.9248    0.7704   -0.9144 H   0  0  0  0  0  0  0  0  0  0  0  0
    3.5269    0.0855    0.7512 H   0  0  0  0  0  0  0  0  0  0  0  0
    1.7044    1.6570   -1.1387 H   0  0  0  0  0  0  0  0  0  0  0  0
    0.5301    2.0104    1.0310 H   0  0  0  0  0  0  0  0  0  0  0  0
    2.0475    0.7286    2.5817 H   0  0  0  0  0  0  0  0  0  0  0  0
    0.3672    0.2121    2.7270 H   0  0  0  0  0  0  0  0  0  0  0  0
    1.5201   -0.7811    1.8350 H   0  0  0  0  0  0  0  0  0  0  0  0
  1  2  3  0
  1  6  1  0
  2  3  1  0
  3  4  1  0
  3  7  1  0
  3  8  1  0
  4  5  3  0
  5  9  1  0
 10 11  2  3
 10 14  1  0
 10 15  1  0
 11 12  1  0
 11 16  1  0
 12 13  1  0
 12 17  1  0
 13 18  1  0
 13 19  1  0
 13 20  1  0
M  RAD  1  12   2
M  END
>  <reaction>  (13) 
rxn_1351

>  <mol_properties>  (13) 
{"1": {"label": "*4", "atom_type": "Ct"}, "2": {"label": "*3", "atom_type": "Cs"}, "6": {"label": "*2", "atom_type": "H0"}, "10": {"label": "*0", "atom_type": "Cd"}, "11": {"label": "*1", "atom_type": "Cs"}}

>  <type>  (13) 
unop_9

>  <geom_source>  (13) 
Heuristics

$$$$

     RDKit          3D

 20 18  0  0  0  0  0  0  0  0999 V2000
   -0.5864   -1.3268   -2.7008 C   0  0  0  0  0  0  0  0  0  0  0  0
   -0.5864   -1.3268   -1.5053 C   0  0  0  0  0  0  0  0  0  0  0  0
   -0.5864   -1.3268   -0.0423 C   0  0  0  0  0  0  0  0  0  0  0  0
   -1.9004   -1.0512    0.5388 C   0  0  0  0  0  0  0  0  0  0  0  0
   -2.9742   -0.8260    1.0137 C   0  0  0  0  0  0  0  0  0  0  0  0
   -0.5864   -1.3268   -3.7643 H   0  0  0  0  0  0  0  0  0  0  0  0
    0.2717   -0.4324    0.3887 H   0  0  0  0  0  0  0  0  0  0  0  0
   -0.2311   -2.2967    0.3169 H   0  0  0  0  0  0  0  0  0  0  0  0
   -3.9294   -0.6257    1.4362 H   0  0  0  0  0  0  0  0  0  0  0  0
    1.4873    2.8567    0.1023 C   0  0  0  0  0  0  0  0  0  0  0  0
    0.7074    1.8048    0.3004 C   0  0  0  0  0  0  0  0  0  0  0  0
    1.1314    0.4636    0.8205 C   0  0  0  0  0  3  0  0  0  0  0  0
    2.6096    0.3200    1.1464 C   0  0  0  0  0  0  0  0  0  0  0  0
    1.0849    3.7867   -0.2788 H   0  0  0  0  0  0  0  0  0  0  0  0
    2.5506    2.8345    0.3101 H   0  0  0  0  0  0  0  0  0  0  0  0
   -0.3515    1.8943    0.0713 H   0  0  0  0  0  0  0  0  0  0  0  0
    0.5339    0.2393    1.7110 H   0  0  0  0  0  0  0  0  0  0  0  0
    2.9171    1.0329    1.9140 H   0  0  0  0  0  0  0  0  0  0  0  0
    2.8248   -0.6831    1.5161 H   0  0  0  0  0  0  0  0  0  0  0  0
    3.2283    0.4912    0.2634 H   0  0  0  0  0  0  0  0  0  0  0  0
  1  2  3  0
  1  6  1  0
  2  3  1  0
  3  4  1  0
  3  7  1  0
  3  8  1  0
  4  5  3  0
  5  9  1  0
 10 11  2  3
 10 14  1  0
 10 15  1  0
 11 12  1  0
 11 16  1  0
 12 13  1  0
 12 17  1  0
 13 18  1  0
 13 19  1  0
 13 20  1  0
M  RAD  1  12   2
M  END
>  <reaction>  (14) 
rxn_1351

>  <mol_properties>  (14) 
{"1": {"label": "*4", "atom_type": "Ct"}, "2": {"label": "*3", "atom_type": "Cs"}, "6": {"label": "*2", "atom_type": "H0"}, "10": {"label": "*0", "atom_type": "Cd"}, "11": {"label": "*1", "atom_type": "Cs"}}

>  <type>  (14) 
unop_10

>  <geom_source>  (14) 
Heuristics

$$$$

     RDKit          3D

 20 18  0  0  0  0  0  0  0  0999 V2000
   -0.3322   -0.9783   -3.2482 C   0  0  0  0  0  0  0  0  0  0  0  0
   -0.3322   -0.9783   -2.0527 C   0  0  0  0  0  0  0  0  0  0  0  0
   -0.3322   -0.9783   -0.5897 C   0  0  0  0  0  0  0  0  0  0  0  0
   -1.6462   -0.7027   -0.0085 C   0  0  0  0  0  0  0  0  0  0  0  0
   -2.7200   -0.4775    0.4663 C   0  0  0  0  0  0  0  0  0  0  0  0
   -0.3322   -0.9783   -4.3117 H   0  0  0  0  0  0  0  0  0  0  0  0
    0.5259   -0.0839   -0.1587 H   0  0  0  0  0  0  0  0  0  0  0  0
    0.0232   -1.9482   -0.2305 H   0  0  0  0  0  0  0  0  0  0  0  0
   -3.6752   -0.2771    0.8888 H   0  0  0  0  0  0  0  0  0  0  0  0
    1.4937    0.7025    2.7922 C   0  0  0  0  0  0  0  0  0  0  0  0
    1.9239    0.3437    1.5922 C   0  0  0  0  0  0  0  0  0  0  0  0
    1.3856    0.8121    0.2731 C   0  0  0  0  0  3  0  0  0  0  0  0
    0.2299    1.7976    0.3452 C   0  0  0  0  0  0  0  0  0  0  0  0
    1.9502    0.3070    3.6907 H   0  0  0  0  0  0  0  0  0  0  0  0
    0.6754    1.3998    2.9276 H   0  0  0  0  0  0  0  0  0  0  0  0
    2.7497   -0.3604    1.5269 H   0  0  0  0  0  0  0  0  0  0  0  0
    2.2120    1.2537   -0.2945 H   0  0  0  0  0  0  0  0  0  0  0  0
    0.5181    2.7081    0.8742 H   0  0  0  0  0  0  0  0  0  0  0  0
   -0.0946    2.0814   -0.6565 H   0  0  0  0  0  0  0  0  0  0  0  0
   -0.6274    1.3655    0.8650 H   0  0  0  0  0  0  0  0  0  0  0  0
  1  2  3  0
  1  6  1  0
  2  3  1  0
  3  4  1  0
  3  7  1  0
  3  8  1  0
  4  5  3  0
  5  9  1  0
 10 11  2  3
 10 14  1  0
 10 15  1  0
 11 12  1  0
 11 16  1  0
 12 13  1  0
 12 17  1  0
 13 18  1  0
 13 19  1  0
 13 20  1  0
M  RAD  1  12   2
M  END
>  <reaction>  (15) 
rxn_1351

>  <mol_properties>  (15) 
{"1": {"label": "*4", "atom_type": "Ct"}, "2": {"label": "*3", "atom_type": "Cs"}, "6": {"label": "*2", "atom_type": "H0"}, "10": {"label": "*0", "atom_type": "Cd"}, "11": {"label": "*1", "atom_type": "Cs"}}

>  <type>  (15) 
unop_11

>  <geom_source>  (15) 
Heuristics

$$$$

     RDKit          3D

 20 18  0  0  0  0  0  0  0  0999 V2000
   -0.8244   -0.9926   -2.6186 C   0  0  0  0  0  0  0  0  0  0  0  0
   -0.8244   -0.9926   -1.4231 C   0  0  0  0  0  0  0  0  0  0  0  0
   -0.8244   -0.9926    0.0399 C   0  0  0  0  0  0  0  0  0  0  0  0
   -2.1384   -0.7170    0.6211 C   0  0  0  0  0  0  0  0  0  0  0  0
   -3.2122   -0.4918    1.0960 C   0  0  0  0  0  0  0  0  0  0  0  0
   -0.8244   -0.9926   -3.6820 H   0  0  0  0  0  0  0  0  0  0  0  0
    0.0337   -0.0982    0.4710 H   0  0  0  0  0  0  0  0  0  0  0  0
   -0.4690   -1.9625    0.3991 H   0  0  0  0  0  0  0  0  0  0  0  0
   -4.1674   -0.2915    1.5185 H   0  0  0  0  0  0  0  0  0  0  0  0
    2.8165    1.5194   -0.5637 C   0  0  0  0  0  0  0  0  0  0  0  0
    1.5223    1.4533   -0.2905 C   0  0  0  0  0  0  0  0  0  0  0  0
    0.8934    0.7978    0.9028 C   0  0  0  0  0  3  0  0  0  0  0  0
    1.8578    0.1506    1.8841 C   0  0  0  0  0  0  0  0  0  0  0  0
    3.1745    2.0176   -1.4557 H   0  0  0  0  0  0  0  0  0  0  0  0
    3.5667    1.0832    0.0853 H   0  0  0  0  0  0  0  0  0  0  0  0
    0.8222    1.9121   -0.9842 H   0  0  0  0  0  0  0  0  0  0  0  0
    0.2862    1.5471    1.4223 H   0  0  0  0  0  0  0  0  0  0  0  0
    2.5546    0.8831    2.2963 H   0  0  0  0  0  0  0  0  0  0  0  0
    1.3141   -0.2987    2.7159 H   0  0  0  0  0  0  0  0  0  0  0  0
    2.4438   -0.6354    1.4037 H   0  0  0  0  0  0  0  0  0  0  0  0
  1  2  3  0
  1  6  1  0
  2  3  1  0
  3  4  1  0
  3  7  1  0
  3  8  1  0
  4  5  3  0
  5  9  1  0
 10 11  2  3
 10 14  1  0
 10 15  1  0
 11 12  1  0
 11 16  1  0
 12 13  1  0
 12 17  1  0
 13 18  1  0
 13 19  1  0
 13 20  1  0
M  RAD  1  12   2
M  END
>  <reaction>  (16) 
rxn_1351

>  <mol_properties>  (16) 
{"1": {"label": "*4", "atom_type": "Ct"}, "2": {"label": "*3", "atom_type": "Cs"}, "6": {"label": "*2", "atom_type": "H0"}, "10": {"label": "*0", "atom_type": "Cd"}, "11": {"label": "*1", "atom_type": "Cs"}}

>  <type>  (16) 
unop_12

>  <geom_source>  (16) 
Heuristics

$$$$

     RDKit          3D

 20 18  0  0  0  0  0  0  0  0999 V2000
   -0.7220   -0.0721    0.2191 C   0  0  0  0  0  3  0  0  0  0  0  0
   -1.5201    1.0372    0.8960 C   0  0  0  0  0  0  0  0  0  0  0  0
   -1.6057   -0.9516   -0.6198 C   0  0  0  0  0  0  0  0  0  0  0  0
   -2.4837   -1.7966   -0.0715 C   0  0  0  0  0  0  0  0  0  0  0  0
    1.5229    0.7461   -0.9151 C   0  0  0  0  0  0  0  0  0  0  0  0
    2.0545   -0.6180   -0.9373 C   0  0  0  0  0  0  0  0  0  0  0  0
    2.1551    1.5061    0.1650 C   0  0  0  0  0  0  0  0  0  0  0  0
    2.4909   -1.7418   -0.9571 C   0  0  0  0  0  0  0  0  0  0  0  0
    2.6746    2.1335    1.0541 C   0  0  0  0  0  0  0  0  0  0  0  0
   -0.1961   -0.6823    0.9851 H   0  0  0  0  0  0  0  0  0  0  0  0
    0.2249    0.5056   -0.5928 H   0  0  0  0  0  0  0  0  0  0  0  0
   -2.0440    1.6518    0.1333 H   0  0  0  0  0  0  0  0  0  0  0  0
   -2.2647    0.6094    1.6004 H   0  0  0  0  0  0  0  0  0  0  0  0
   -0.8286    1.6923    1.4657 H   0  0  0  0  0  0  0  0  0  0  0  0
   -1.5026   -0.9199   -1.7000 H   0  0  0  0  0  0  0  0  0  0  0  0
   -2.5943   -1.8665    1.0064 H   0  0  0  0  0  0  0  0  0  0  0  0
   -3.0967   -2.4292   -0.7051 H   0  0  0  0  0  0  0  0  0  0  0  0
    1.7307    1.2404   -1.8864 H   0  0  0  0  0  0  0  0  0  0  0  0
    2.8741   -2.7281   -0.9744 H   0  0  0  0  0  0  0  0  0  0  0  0
    3.1306    2.6840    1.8344 H   0  0  0  0  0  0  0  0  0  0  0  0
  1  2  1  0
  1  3  1  0
  1 10  1  0
  2 12  1  0
  2 13  1  0
  2 14  1  0
  3  4  2  3
  3 15  1  0
  4 16  1  0
  4 17  1  0
  5  6  1  0
  5  7  1  0
  5 11  1  0
  5 18  1  0
  6  8  3  0
  7  9  3  0
  8 19  1  0
  9 20  1  0
M  RAD  1   1   2
M  END
>  <reaction>  (17) 
rxn_1351

>  <mol_properties>  (17) 
{"1": {"label": "*4", "atom_type": "Ct"}, "2": {"label": "*3", "atom_type": "Cs"}, "6": {"label": "*2", "atom_type": "H0"}, "10": {"label": "*0", "atom_type": "Cd"}, "11": {"label": "*1", "atom_type": "Cs"}}

>  <type>  (17) 
unop_13

>  <geom_source>  (17) 
AutoTST

$$$$
