
     RDKit          3D

  9  8  0  0  0  0  0  0  0  0999 V2000
    1.1303   -0.2933   -0.7510 C   0  0  0  0  0  0  0  0  0  0  0  0
    0.2866    0.4560   -0.0588 C   0  0  0  0  0  0  0  0  0  0  0  0
   -0.9719   -0.0331    0.5823 C   0  0  0  0  0  0  0  0  0  0  0  0
    2.0274    0.1230   -1.1916 H   0  0  0  0  0  0  0  0  0  0  0  0
    0.9532   -1.3530   -0.9023 H   0  0  0  0  0  0  0  0  0  0  0  0
    0.5065    1.5132    0.0659 H   0  0  0  0  0  0  0  0  0  0  0  0
   -0.9526    0.1426    1.6610 H   0  0  0  0  0  0  0  0  0  0  0  0
   -1.1182   -1.1002    0.4106 H   0  0  0  0  0  0  0  0  0  0  0  0
   -1.8412    0.5010    0.1901 H   0  0  0  0  0  0  0  0  0  0  0  0
  1  2  2  3
  1  4  1  0
  1  5  1  0
  2  3  1  0
  2  6  1  0
  3  7  1  0
  3  8  1  0
  3  9  1  0
M  END
>  <reaction>  (1) 
rxn_1020

>  <mol_properties>  (1) 
{"2": {"label": "donator", "atom_type": "Cs"}, "6": {"label": "d_hydrogen", "atom_type": "H0"}}

>  <type>  (1) 
r1h

$$$$

     RDKit          3D

  6  5  0  0  0  0  0  0  0  0999 V2000
   -0.7309   -0.0987    0.0327 C   0  0  0  0  0  0  0  0  0  0  0  0
    0.6208    0.0065   -0.0096 C   0  0  0  0  0  0  0  0  0  0  0  0
    1.6572   -1.2972    0.2837 S   0  0  0  0  0  1  0  0  0  0  0  0
   -1.3651    0.7588   -0.1608 H   0  0  0  0  0  0  0  0  0  0  0  0
   -1.2044   -1.0453    0.2616 H   0  0  0  0  0  0  0  0  0  0  0  0
    1.0609    0.9725   -0.2426 H   0  0  0  0  0  0  0  0  0  0  0  0
  1  2  2  3
  1  4  1  0
  1  5  1  0
  2  3  1  0
  2  6  1  0
M  RAD  1   3   2
M  END
>  <reaction>  (2) 
rxn_1020

>  <mol_properties>  (2) 
{"0": {"label": "acceptor", "atom_type": "Cs"}}

>  <type>  (2) 
r2

$$$$

     RDKit          3D

  7  6  0  0  0  0  0  0  0  0999 V2000
   -0.6782    0.0507    0.0301 C   0  0  0  0  0  0  0  0  0  0  0  0
    0.8092    0.0996    0.0213 C   0  0  0  0  0  0  0  0  0  0  0  0
    1.7473    0.7521    1.1507 S   0  0  0  0  0  0  0  0  0  0  0  0
   -1.0667    0.5456   -0.8653 H   0  0  0  0  0  0  0  0  0  0  0  0
   -1.0112   -0.9904   -0.0239 H   0  0  0  0  0  0  0  0  0  0  0  0
   -1.0920    0.5225    0.9188 H   0  0  0  0  0  0  0  0  0  0  0  0
    1.2740   -0.3620   -0.8520 H   0  0  0  0  0  0  0  0  0  0  0  0
  1  2  1  0
  1  4  1  0
  1  5  1  0
  1  6  1  0
  2  3  2  0
  2  7  1  0
M  END
>  <reaction>  (3) 
rxn_1020

>  <mol_properties>  (3) 
{"0": {"label": "a_hydrogen", "atom_type": "H0"}, "1": {"label": "acceptor", "atom_type": "Cs"}}

>  <type>  (3) 
r2h

$$$$

     RDKit          3D

 15 13  0  0  0  0  0  0  0  0999 V2000
    1.6106   -0.6766   -1.9468 C   0  0  0  0  0  0  0  0  0  0  0  0
    2.3691   -0.2264   -0.9370 C   0  0  0  0  0  0  0  0  0  0  0  0
    2.1742    1.0489   -0.2971 C   0  0  0  0  0  3  0  0  0  0  0  0
    1.7564   -1.6640   -2.3646 H   0  0  0  0  0  0  0  0  0  0  0  0
    0.8344   -0.0610   -2.3859 H   0  0  0  0  0  0  0  0  0  0  0  0
    3.1266   -0.8817   -0.5179 H   0  0  0  0  0  0  0  0  0  0  0  0
    1.1679    0.7958    0.6191 H   0  0  0  0  0  0  0  0  0  0  0  0
    1.6441    1.8082   -0.8659 H   0  0  0  0  0  0  0  0  0  0  0  0
    2.9725    1.4305    0.3310 H   0  0  0  0  0  0  0  0  0  0  0  0
    0.0983    0.6262    1.3603 C   0  0  0  0  0  0  0  0  0  0  0  0
   -0.7862   -0.1211    0.5207 C   0  0  0  0  0  0  0  0  0  0  0  0
   -1.8517    0.5338   -0.5363 S   0  0  0  0  0  0  0  0  0  0  0  0
    0.5167    0.1028    2.2172 H   0  0  0  0  0  0  0  0  0  0  0  0
   -0.1809    1.6592    1.5478 H   0  0  0  0  0  0  0  0  0  0  0  0
   -0.6871   -1.2049    0.5629 H   0  0  0  0  0  0  0  0  0  0  0  0
  1  2  2  3
  1  4  1  0
  1  5  1  0
  2  3  1  0
  2  6  1  0
  3  8  1  0
  3  9  1  0
  7 10  1  0
 10 11  1  0
 10 13  1  0
 10 14  1  0
 11 12  2  0
 11 15  1  0
M  RAD  1   3   2
M  END
>  <reaction>  (4) 
rxn_1020

>  <mol_properties>  (4) 
{"1": {"label": "*4", "atom_type": "Cd"}, "2": {"label": "*3", "atom_type": "Cs"}, "6": {"label": "*2", "atom_type": "H0"}, "9": {"label": "*1", "atom_type": "Cs"}, "10": {"label": "*0", "atom_type": "CS"}}

>  <type>  (4) 
ts

$$$$

     RDKit          3D

 15 13  0  0  0  0  0  0  0  0999 V2000
    1.3205   -0.8102   -3.7186 C   0  0  0  0  0  0  0  0  0  0  0  0
    1.3205   -0.8102   -2.3949 C   0  0  0  0  0  0  0  0  0  0  0  0
    1.3205    0.4120   -1.5344 C   0  0  0  0  0  0  0  0  0  0  0  0
    1.3205   -1.7329   -4.2851 H   0  0  0  0  0  0  0  0  0  0  0  0
    1.3205    0.1154   -4.2846 H   0  0  0  0  0  0  0  0  0  0  0  0
    1.3205   -1.7628   -1.8714 H   0  0  0  0  0  0  0  0  0  0  0  0
    0.2672    0.4326   -0.7529 H   0  0  0  0  0  0  0  0  0  0  0  0
    1.3205    1.3225   -2.1350 H   0  0  0  0  0  0  0  0  0  0  0  0
    2.1982    0.4291   -0.8832 H   0  0  0  0  0  0  0  0  0  0  0  0
   -0.7873    0.4531    0.0295 C   0  0  0  0  0  0  0  0  0  0  0  0
   -0.3523    0.4695    1.4525 C   0  0  0  0  0  0  0  0  0  0  0  0
   -1.2462    0.0702    2.7265 S   0  0  0  0  0  1  0  0  0  0  0  0
   -0.6700    1.4522   -0.4014 H   0  0  0  0  0  0  0  0  0  0  0  0
   -1.8208    0.1287   -0.0726 H   0  0  0  0  0  0  0  0  0  0  0  0
    0.6799    0.7888    1.6086 H   0  0  0  0  0  0  0  0  0  0  0  0
  1  2  2  3
  1  4  1  0
  1  5  1  0
  2  3  1  0
  2  6  1  0
  3  7  1  0
  3  8  1  0
  3  9  1  0
 10 11  2  3
 10 13  1  0
 10 14  1  0
 11 12  1  0
 11 15  1  0
M  RAD  1  12   2
M  END
>  <reaction>  (5) 
rxn_1020

>  <mol_properties>  (5) 
{"1": {"label": "*4", "atom_type": "Cd"}, "2": {"label": "*3", "atom_type": "Cs"}, "6": {"label": "*2", "atom_type": "H0"}, "9": {"label": "*1", "atom_type": "Cs"}, "10": {"label": "*0", "atom_type": "CS"}}

>  <type>  (5) 
unop_1

>  <geom_source>  (5) 
Heuristics

$$$$

     RDKit          3D

 15 13  0  0  0  0  0  0  0  0999 V2000
    1.8874   -0.1280   -2.8623 C   0  0  0  0  0  0  0  0  0  0  0  0
    1.8874   -0.1280   -1.5386 C   0  0  0  0  0  0  0  0  0  0  0  0
    1.8874    1.0942   -0.6781 C   0  0  0  0  0  0  0  0  0  0  0  0
    1.8874   -1.0507   -3.4288 H   0  0  0  0  0  0  0  0  0  0  0  0
    1.8874    0.7976   -3.4283 H   0  0  0  0  0  0  0  0  0  0  0  0
    1.8874   -1.0806   -1.0150 H   0  0  0  0  0  0  0  0  0  0  0  0
    0.8342    1.1147    0.1034 H   0  0  0  0  0  0  0  0  0  0  0  0
    1.8874    2.0046   -1.2786 H   0  0  0  0  0  0  0  0  0  0  0  0
    2.7651    1.1113   -0.0268 H   0  0  0  0  0  0  0  0  0  0  0  0
   -0.2204    1.1353    0.8858 C   0  0  0  0  0  0  0  0  0  0  0  0
   -0.6334   -0.2588    1.2029 C   0  0  0  0  0  0  0  0  0  0  0  0
   -2.1402   -0.8096    1.2883 S   0  0  0  0  0  1  0  0  0  0  0  0
    0.3782    1.5368    1.7093 H   0  0  0  0  0  0  0  0  0  0  0  0
   -1.0787    1.7797    0.7081 H   0  0  0  0  0  0  0  0  0  0  0  0
    0.1936   -0.9464    1.3899 H   0  0  0  0  0  0  0  0  0  0  0  0
  1  2  2  3
  1  4  1  0
  1  5  1  0
  2  3  1  0
  2  6  1  0
  3  7  1  0
  3  8  1  0
  3  9  1  0
 10 11  2  3
 10 13  1  0
 10 14  1  0
 11 12  1  0
 11 15  1  0
M  RAD  1  12   2
M  END
>  <reaction>  (6) 
rxn_1020

>  <mol_properties>  (6) 
{"1": {"label": "*4", "atom_type": "Cd"}, "2": {"label": "*3", "atom_type": "Cs"}, "6": {"label": "*2", "atom_type": "H0"}, "9": {"label": "*1", "atom_type": "Cs"}, "10": {"label": "*0", "atom_type": "CS"}}

>  <type>  (6) 
unop_2

>  <geom_source>  (6) 
Heuristics

$$$$

     RDKit          3D

 15 13  0  0  0  0  0  0  0  0999 V2000
    1.2915   -1.1573   -3.6989 C   0  0  0  0  0  0  0  0  0  0  0  0
    1.2915   -1.1573   -2.3751 C   0  0  0  0  0  0  0  0  0  0  0  0
    1.2915    0.0649   -1.5146 C   0  0  0  0  0  0  0  0  0  0  0  0
    1.2915   -2.0800   -4.2653 H   0  0  0  0  0  0  0  0  0  0  0  0
    1.2915   -0.2317   -4.2649 H   0  0  0  0  0  0  0  0  0  0  0  0
    1.2915   -2.1099   -1.8516 H   0  0  0  0  0  0  0  0  0  0  0  0
    0.2383    0.0854   -0.7331 H   0  0  0  0  0  0  0  0  0  0  0  0
    1.2915    0.9753   -2.1152 H   0  0  0  0  0  0  0  0  0  0  0  0
    2.1693    0.0820   -0.8634 H   0  0  0  0  0  0  0  0  0  0  0  0
   -0.8162    0.1060    0.0493 C   0  0  0  0  0  0  0  0  0  0  0  0
   -0.4869    0.8221    1.3115 C   0  0  0  0  0  0  0  0  0  0  0  0
   -1.1259    0.5438    2.7591 S   0  0  0  0  0  1  0  0  0  0  0  0
   -1.1720    0.8229   -0.6971 H   0  0  0  0  0  0  0  0  0  0  0  0
   -1.5692   -0.6634    0.2068 H   0  0  0  0  0  0  0  0  0  0  0  0
    0.2656    1.6060    1.2062 H   0  0  0  0  0  0  0  0  0  0  0  0
  1  2  2  3
  1  4  1  0
  1  5  1  0
  2  3  1  0
  2  6  1  0
  3  7  1  0
  3  8  1  0
  3  9  1  0
 10 11  2  3
 10 13  1  0
 10 14  1  0
 11 12  1  0
 11 15  1  0
M  RAD  1  12   2
M  END
>  <reaction>  (7) 
rxn_1020

>  <mol_properties>  (7) 
{"1": {"label": "*4", "atom_type": "Cd"}, "2": {"label": "*3", "atom_type": "Cs"}, "6": {"label": "*2", "atom_type": "H0"}, "9": {"label": "*1", "atom_type": "Cs"}, "10": {"label": "*0", "atom_type": "CS"}}

>  <type>  (7) 
unop_3

>  <geom_source>  (7) 
Heuristics

$$$$

     RDKit          3D

 15 13  0  0  0  0  0  0  0  0999 V2000
    2.0323   -1.3231   -2.1533 C   0  0  0  0  0  0  0  0  0  0  0  0
    2.0323   -1.3231   -0.8295 C   0  0  0  0  0  0  0  0  0  0  0  0
    2.0323   -0.1009    0.0310 C   0  0  0  0  0  0  0  0  0  0  0  0
    2.0323   -2.2458   -2.7198 H   0  0  0  0  0  0  0  0  0  0  0  0
    2.0323   -0.3975   -2.7193 H   0  0  0  0  0  0  0  0  0  0  0  0
    2.0323   -2.2757   -0.3060 H   0  0  0  0  0  0  0  0  0  0  0  0
    0.9790   -0.0804    0.8124 H   0  0  0  0  0  0  0  0  0  0  0  0
    2.0323    0.8095   -0.5696 H   0  0  0  0  0  0  0  0  0  0  0  0
    2.9100   -0.0838    0.6822 H   0  0  0  0  0  0  0  0  0  0  0  0
   -0.0755   -0.0598    1.5949 C   0  0  0  0  0  0  0  0  0  0  0  0
   -1.3116   -0.0605    0.7661 C   0  0  0  0  0  0  0  0  0  0  0  0
   -2.0932    1.2328    0.2204 S   0  0  0  0  0  1  0  0  0  0  0  0
   -0.2628   -0.5910    2.5332 H   0  0  0  0  0  0  0  0  0  0  0  0
    0.2668    0.9507    1.8075 H   0  0  0  0  0  0  0  0  0  0  0  0
   -1.6963   -1.0532    0.5247 H   0  0  0  0  0  0  0  0  0  0  0  0
  1  2  2  3
  1  4  1  0
  1  5  1  0
  2  3  1  0
  2  6  1  0
  3  7  1  0
  3  8  1  0
  3  9  1  0
 10 11  2  3
 10 13  1  0
 10 14  1  0
 11 12  1  0
 11 15  1  0
M  RAD  1  12   2
M  END
>  <reaction>  (8) 
rxn_1020

>  <mol_properties>  (8) 
{"1": {"label": "*4", "atom_type": "Cd"}, "2": {"label": "*3", "atom_type": "Cs"}, "6": {"label": "*2", "atom_type": "H0"}, "9": {"label": "*1", "atom_type": "Cs"}, "10": {"label": "*0", "atom_type": "CS"}}

>  <type>  (8) 
unop_4

>  <geom_source>  (8) 
Heuristics

$$$$

     RDKit          3D

 15 13  0  0  0  0  0  0  0  0999 V2000
    1.2303   -1.4823   -3.5630 C   0  0  0  0  0  0  0  0  0  0  0  0
    1.2303   -1.4823   -2.2392 C   0  0  0  0  0  0  0  0  0  0  0  0
    1.2303   -0.2601   -1.3787 C   0  0  0  0  0  0  0  0  0  0  0  0
    1.2303   -2.4050   -4.1295 H   0  0  0  0  0  0  0  0  0  0  0  0
    1.2303   -0.5567   -4.1290 H   0  0  0  0  0  0  0  0  0  0  0  0
    1.2303   -2.4349   -1.7157 H   0  0  0  0  0  0  0  0  0  0  0  0
    0.1771   -0.2396   -0.5973 H   0  0  0  0  0  0  0  0  0  0  0  0
    1.2303    0.6503   -1.9793 H   0  0  0  0  0  0  0  0  0  0  0  0
    2.1080   -0.2430   -0.7275 H   0  0  0  0  0  0  0  0  0  0  0  0
   -0.8775   -0.2190    0.1852 C   0  0  0  0  0  0  0  0  0  0  0  0
   -0.8493    1.0072    1.0280 C   0  0  0  0  0  0  0  0  0  0  0  0
   -0.8548    1.0595    2.6338 S   0  0  0  0  0  1  0  0  0  0  0  0
   -1.7504   -0.1908   -0.4743 H   0  0  0  0  0  0  0  0  0  0  0  0
   -0.9034   -1.1233    0.7895 H   0  0  0  0  0  0  0  0  0  0  0  0
   -0.8227    1.9435    0.4673 H   0  0  0  0  0  0  0  0  0  0  0  0
  1  2  2  3
  1  4  1  0
  1  5  1  0
  2  3  1  0
  2  6  1  0
  3  7  1  0
  3  8  1  0
  3  9  1  0
 10 11  2  3
 10 13  1  0
 10 14  1  0
 11 12  1  0
 11 15  1  0
M  RAD  1  12   2
M  END
>  <reaction>  (9) 
rxn_1020

>  <mol_properties>  (9) 
{"1": {"label": "*4", "atom_type": "Cd"}, "2": {"label": "*3", "atom_type": "Cs"}, "6": {"label": "*2", "atom_type": "H0"}, "9": {"label": "*1", "atom_type": "Cs"}, "10": {"label": "*0", "atom_type": "CS"}}

>  <type>  (9) 
unop_5

>  <geom_source>  (9) 
Heuristics

$$$$

     RDKit          3D

 15 13  0  0  0  0  0  0  0  0999 V2000
    1.8068   -1.7278   -2.3652 C   0  0  0  0  0  0  0  0  0  0  0  0
    1.8068   -1.7278   -1.0415 C   0  0  0  0  0  0  0  0  0  0  0  0
    1.8068   -0.5056   -0.1809 C   0  0  0  0  0  0  0  0  0  0  0  0
    1.8068   -2.6505   -2.9317 H   0  0  0  0  0  0  0  0  0  0  0  0
    1.8068   -0.8022   -2.9312 H   0  0  0  0  0  0  0  0  0  0  0  0
    1.8068   -2.6804   -0.5179 H   0  0  0  0  0  0  0  0  0  0  0  0
    0.7536   -0.4850    0.6005 H   0  0  0  0  0  0  0  0  0  0  0  0
    1.8068    0.4049   -0.7815 H   0  0  0  0  0  0  0  0  0  0  0  0
    2.6845   -0.4885    0.4703 H   0  0  0  0  0  0  0  0  0  0  0  0
   -0.3010   -0.4645    1.3829 C   0  0  0  0  0  0  0  0  0  0  0  0
   -1.4188    0.2369    0.6950 C   0  0  0  0  0  0  0  0  0  0  0  0
   -1.6478    1.8257    0.6265 S   0  0  0  0  0  1  0  0  0  0  0  0
   -0.7053   -1.1531    2.1313 H   0  0  0  0  0  0  0  0  0  0  0  0
    0.3818    0.2356    1.8597 H   0  0  0  0  0  0  0  0  0  0  0  0
   -2.1333   -0.4234    0.1998 H   0  0  0  0  0  0  0  0  0  0  0  0
  1  2  2  3
  1  4  1  0
  1  5  1  0
  2  3  1  0
  2  6  1  0
  3  7  1  0
  3  8  1  0
  3  9  1  0
 10 11  2  3
 10 13  1  0
 10 14  1  0
 11 12  1  0
 11 15  1  0
M  RAD  1  12   2
M  END
>  <reaction>  (10) 
rxn_1020

>  <mol_properties>  (10) 
{"1": {"label": "*4", "atom_type": "Cd"}, "2": {"label": "*3", "atom_type": "Cs"}, "6": {"label": "*2", "atom_type": "H0"}, "9": {"label": "*1", "atom_type": "Cs"}, "10": {"label": "*0", "atom_type": "CS"}}

>  <type>  (10) 
unop_6

>  <geom_source>  (10) 
Heuristics

$$$$

     RDKit          3D

 15 13  0  0  0  0  0  0  0  0999 V2000
    1.5168   -1.9200   -2.7506 C   0  0  0  0  0  0  0  0  0  0  0  0
    1.5168   -1.9200   -1.4268 C   0  0  0  0  0  0  0  0  0  0  0  0
    1.5168   -0.6978   -0.5663 C   0  0  0  0  0  0  0  0  0  0  0  0
    1.5168   -2.8427   -3.3171 H   0  0  0  0  0  0  0  0  0  0  0  0
    1.5168   -0.9944   -3.3166 H   0  0  0  0  0  0  0  0  0  0  0  0
    1.5168   -2.8726   -0.9033 H   0  0  0  0  0  0  0  0  0  0  0  0
    0.4635   -0.6772    0.2151 H   0  0  0  0  0  0  0  0  0  0  0  0
    1.5168    0.2127   -1.1669 H   0  0  0  0  0  0  0  0  0  0  0  0
    2.3945   -0.6807    0.0849 H   0  0  0  0  0  0  0  0  0  0  0  0
   -0.5910   -0.6567    0.9976 C   0  0  0  0  0  0  0  0  0  0  0  0
   -1.3984    0.5609    0.7145 C   0  0  0  0  0  0  0  0  0  0  0  0
   -1.1403    2.0332    1.3038 S   0  0  0  0  0  1  0  0  0  0  0  0
   -1.2337   -1.4312    1.4274 H   0  0  0  0  0  0  0  0  0  0  0  0
    0.2328   -0.4455    1.6760 H   0  0  0  0  0  0  0  0  0  0  0  0
   -2.2394    0.4013    0.0369 H   0  0  0  0  0  0  0  0  0  0  0  0
  1  2  2  3
  1  4  1  0
  1  5  1  0
  2  3  1  0
  2  6  1  0
  3  7  1  0
  3  8  1  0
  3  9  1  0
 10 11  2  3
 10 13  1  0
 10 14  1  0
 11 12  1  0
 11 15  1  0
M  RAD  1  12   2
M  END
>  <reaction>  (11) 
rxn_1020

>  <mol_properties>  (11) 
{"1": {"label": "*4", "atom_type": "Cd"}, "2": {"label": "*3", "atom_type": "Cs"}, "6": {"label": "*2", "atom_type": "H0"}, "9": {"label": "*1", "atom_type": "Cs"}, "10": {"label": "*0", "atom_type": "CS"}}

>  <type>  (11) 
unop_7

>  <geom_source>  (11) 
Heuristics

$$$$

     RDKit          3D

 15 13  0  0  0  0  0  0  0  0999 V2000
    1.4229   -0.4375   -3.5902 C   0  0  0  0  0  0  0  0  0  0  0  0
    1.4229   -0.4375   -2.2665 C   0  0  0  0  0  0  0  0  0  0  0  0
    1.4229    0.7847   -1.4060 C   0  0  0  0  0  0  0  0  0  0  0  0
    1.4229   -1.3602   -4.1567 H   0  0  0  0  0  0  0  0  0  0  0  0
    1.4229    0.4881   -4.1562 H   0  0  0  0  0  0  0  0  0  0  0  0
    1.4229   -1.3901   -1.7430 H   0  0  0  0  0  0  0  0  0  0  0  0
    0.3696    0.8052   -0.6245 H   0  0  0  0  0  0  0  0  0  0  0  0
    1.4229    1.6952   -2.0066 H   0  0  0  0  0  0  0  0  0  0  0  0
    2.3006    0.8018   -0.7547 H   0  0  0  0  0  0  0  0  0  0  0  0
   -0.6849    0.8258    0.1579 C   0  0  0  0  0  0  0  0  0  0  0  0
   -0.3681    0.1401    1.4401 C   0  0  0  0  0  0  0  0  0  0  0  0
   -1.4293   -0.4487    2.4929 S   0  0  0  0  0  1  0  0  0  0  0  0
   -0.2469    1.8287    0.1604 H   0  0  0  0  0  0  0  0  0  0  0  0
   -1.7579    0.8946   -0.0082 H   0  0  0  0  0  0  0  0  0  0  0  0
    0.6984    0.0456    1.6536 H   0  0  0  0  0  0  0  0  0  0  0  0
  1  2  2  3
  1  4  1  0
  1  5  1  0
  2  3  1  0
  2  6  1  0
  3  7  1  0
  3  8  1  0
  3  9  1  0
 10 11  2  3
 10 13  1  0
 10 14  1  0
 11 12  1  0
 11 15  1  0
M  RAD  1  12   2
M  END
>  <reaction>  (12) 
rxn_1020

>  <mol_properties>  (12) 
{"1": {"label": "*4", "atom_type": "Cd"}, "2": {"label": "*3", "atom_type": "Cs"}, "6": {"label": "*2", "atom_type": "H0"}, "9": {"label": "*1", "atom_type": "Cs"}, "10": {"label": "*0", "atom_type": "CS"}}

>  <type>  (12) 
unop_8

>  <geom_source>  (12) 
Heuristics

$$$$

     RDKit          3D

 15 13  0  0  0  0  0  0  0  0999 V2000
    2.1361   -0.8233   -2.1755 C   0  0  0  0  0  0  0  0  0  0  0  0
    2.1361   -0.8233   -0.8517 C   0  0  0  0  0  0  0  0  0  0  0  0
    2.1361    0.3989    0.0088 C   0  0  0  0  0  0  0  0  0  0  0  0
    2.1361   -1.7460   -2.7420 H   0  0  0  0  0  0  0  0  0  0  0  0
    2.1361    0.1023   -2.7415 H   0  0  0  0  0  0  0  0  0  0  0  0
    2.1361   -1.7759   -0.3282 H   0  0  0  0  0  0  0  0  0  0  0  0
    1.0829    0.4194    0.7903 H   0  0  0  0  0  0  0  0  0  0  0  0
    2.1361    1.3093   -0.5918 H   0  0  0  0  0  0  0  0  0  0  0  0
    3.0138    0.4160    0.6600 H   0  0  0  0  0  0  0  0  0  0  0  0
    0.0283    0.4400    1.5727 C   0  0  0  0  0  0  0  0  0  0  0  0
   -1.1020   -0.2605    0.9047 C   0  0  0  0  0  0  0  0  0  0  0  0
   -2.3686    0.4322    0.1996 S   0  0  0  0  0  1  0  0  0  0  0  0
    0.0998    0.1110    2.6140 H   0  0  0  0  0  0  0  0  0  0  0  0
   -0.0895    1.5210    1.5369 H   0  0  0  0  0  0  0  0  0  0  0  0
   -1.0306   -1.3498    0.9137 H   0  0  0  0  0  0  0  0  0  0  0  0
  1  2  2  3
  1  4  1  0
  1  5  1  0
  2  3  1  0
  2  6  1  0
  3  7  1  0
  3  8  1  0
  3  9  1  0
 10 11  2  3
 10 13  1  0
 10 14  1  0
 11 12  1  0
 11 15  1  0
M  RAD  1  12   2
M  END
>  <reaction>  (13) 
rxn_1020

>  <mol_properties>  (13) 
{"1": {"label": "*4", "atom_type": "Cd"}, "2": {"label": "*3", "atom_type": "Cs"}, "6": {"label": "*2", "atom_type": "H0"}, "9": {"label": "*1", "atom_type": "Cs"}, "10": {"label": "*0", "atom_type": "CS"}}

>  <type>  (13) 
unop_9

>  <geom_source>  (13) 
Heuristics

$$$$

     RDKit          3D

 15 13  0  0  0  0  0  0  0  0999 V2000
    1.6303   -0.1672   -3.2878 C   0  0  0  0  0  0  0  0  0  0  0  0
    1.6303   -0.1672   -1.9641 C   0  0  0  0  0  0  0  0  0  0  0  0
    1.6303    1.0550   -1.1035 C   0  0  0  0  0  0  0  0  0  0  0  0
    1.6303   -1.0899   -3.8543 H   0  0  0  0  0  0  0  0  0  0  0  0
    1.6303    0.7584   -3.8538 H   0  0  0  0  0  0  0  0  0  0  0  0
    1.6303   -1.1198   -1.4405 H   0  0  0  0  0  0  0  0  0  0  0  0
    0.5770    1.0756   -0.3221 H   0  0  0  0  0  0  0  0  0  0  0  0
    1.6303    1.9655   -1.7041 H   0  0  0  0  0  0  0  0  0  0  0  0
    2.5080    1.0721   -0.4523 H   0  0  0  0  0  0  0  0  0  0  0  0
   -0.4775    1.0961    0.4603 C   0  0  0  0  0  0  0  0  0  0  0  0
   -0.4711   -0.1059    1.3377 C   0  0  0  0  0  0  0  0  0  0  0  0
   -1.7563   -0.8153    1.9907 S   0  0  0  0  0  1  0  0  0  0  0  0
    0.1365    1.8822    0.9106 H   0  0  0  0  0  0  0  0  0  0  0  0
   -1.4861    1.4686    0.2940 H   0  0  0  0  0  0  0  0  0  0  0  0
    0.5199   -0.5189    1.5355 H   0  0  0  0  0  0  0  0  0  0  0  0
  1  2  2  3
  1  4  1  0
  1  5  1  0
  2  3  1  0
  2  6  1  0
  3  7  1  0
  3  8  1  0
  3  9  1  0
 10 11  2  3
 10 13  1  0
 10 14  1  0
 11 12  1  0
 11 15  1  0
M  RAD  1  12   2
M  END
>  <reaction>  (14) 
rxn_1020

>  <mol_properties>  (14) 
{"1": {"label": "*4", "atom_type": "Cd"}, "2": {"label": "*3", "atom_type": "Cs"}, "6": {"label": "*2", "atom_type": "H0"}, "9": {"label": "*1", "atom_type": "Cs"}, "10": {"label": "*0", "atom_type": "CS"}}

>  <type>  (14) 
unop_10

>  <geom_source>  (14) 
Heuristics

$$$$

     RDKit          3D

 15 13  0  0  0  0  0  0  0  0999 V2000
    1.2709   -1.8200   -3.2089 C   0  0  0  0  0  0  0  0  0  0  0  0
    1.2709   -1.8200   -1.8852 C   0  0  0  0  0  0  0  0  0  0  0  0
    1.2709   -0.5978   -1.0246 C   0  0  0  0  0  0  0  0  0  0  0  0
    1.2709   -2.7427   -3.7754 H   0  0  0  0  0  0  0  0  0  0  0  0
    1.2709   -0.8944   -3.7749 H   0  0  0  0  0  0  0  0  0  0  0  0
    1.2709   -2.7726   -1.3616 H   0  0  0  0  0  0  0  0  0  0  0  0
    0.2177   -0.5773   -0.2432 H   0  0  0  0  0  0  0  0  0  0  0  0
    1.2709    0.3126   -1.6252 H   0  0  0  0  0  0  0  0  0  0  0  0
    2.1486   -0.5807   -0.3734 H   0  0  0  0  0  0  0  0  0  0  0  0
   -0.8369   -0.5567    0.5392 C   0  0  0  0  0  0  0  0  0  0  0  0
   -1.2248    0.8530    0.8164 C   0  0  0  0  0  0  0  0  0  0  0  0
   -0.7722    1.7343    2.0813 S   0  0  0  0  0  1  0  0  0  0  0  0
   -1.7359   -1.1757    0.4599 H   0  0  0  0  0  0  0  0  0  0  0  0
   -0.1844   -0.9551    1.3133 H   0  0  0  0  0  0  0  0  0  0  0  0
   -1.8810    1.2996    0.0669 H   0  0  0  0  0  0  0  0  0  0  0  0
  1  2  2  3
  1  4  1  0
  1  5  1  0
  2  3  1  0
  2  6  1  0
  3  7  1  0
  3  8  1  0
  3  9  1  0
 10 11  2  3
 10 13  1  0
 10 14  1  0
 11 12  1  0
 11 15  1  0
M  RAD  1  12   2
M  END
>  <reaction>  (15) 
rxn_1020

>  <mol_properties>  (15) 
{"1": {"label": "*4", "atom_type": "Cd"}, "2": {"label": "*3", "atom_type": "Cs"}, "6": {"label": "*2", "atom_type": "H0"}, "9": {"label": "*1", "atom_type": "Cs"}, "10": {"label": "*0", "atom_type": "CS"}}

>  <type>  (15) 
unop_11

>  <geom_source>  (15) 
Heuristics

$$$$

     RDKit          3D

 15 13  0  0  0  0  0  0  0  0999 V2000
    2.0853   -0.3729   -2.4399 C   0  0  0  0  0  0  0  0  0  0  0  0
    2.0853   -0.3729   -1.1161 C   0  0  0  0  0  0  0  0  0  0  0  0
    2.0853    0.8493   -0.2556 C   0  0  0  0  0  0  0  0  0  0  0  0
    2.0853   -1.2956   -3.0064 H   0  0  0  0  0  0  0  0  0  0  0  0
    2.0853    0.5527   -3.0059 H   0  0  0  0  0  0  0  0  0  0  0  0
    2.0853   -1.3255   -0.5926 H   0  0  0  0  0  0  0  0  0  0  0  0
    1.0320    0.8698    0.5259 H   0  0  0  0  0  0  0  0  0  0  0  0
    2.0853    1.7597   -0.8562 H   0  0  0  0  0  0  0  0  0  0  0  0
    2.9630    0.8664    0.3956 H   0  0  0  0  0  0  0  0  0  0  0  0
   -0.0225    0.8904    1.3083 C   0  0  0  0  0  0  0  0  0  0  0  0
   -0.8516   -0.3202    1.0597 C   0  0  0  0  0  0  0  0  0  0  0  0
   -2.3910   -0.3423    0.6001 S   0  0  0  0  0  1  0  0  0  0  0  0
    0.3550    0.8718    2.3353 H   0  0  0  0  0  0  0  0  0  0  0  0
   -0.5856    1.8062    1.1409 H   0  0  0  0  0  0  0  0  0  0  0  0
   -0.3311   -1.2672    1.2144 H   0  0  0  0  0  0  0  0  0  0  0  0
  1  2  2  3
  1  4  1  0
  1  5  1  0
  2  3  1  0
  2  6  1  0
  3  7  1  0
  3  8  1  0
  3  9  1  0
 10 11  2  3
 10 13  1  0
 10 14  1  0
 11 12  1  0
 11 15  1  0
M  RAD  1  12   2
M  END
>  <reaction>  (16) 
rxn_1020

>  <mol_properties>  (16) 
{"1": {"label": "*4", "atom_type": "Cd"}, "2": {"label": "*3", "atom_type": "Cs"}, "6": {"label": "*2", "atom_type": "H0"}, "9": {"label": "*1", "atom_type": "Cs"}, "10": {"label": "*0", "atom_type": "CS"}}

>  <type>  (16) 
unop_12

>  <geom_source>  (16) 
Heuristics

$$$$

     RDKit          3D

 15 13  0  0  0  0  0  0  0  0999 V2000
   -1.9469    2.0146   -1.4230 S   0  0  0  0  0  0  0  0  0  0  0  0
   -1.8109   -0.1557   -0.0996 C   0  0  0  0  0  0  0  0  0  0  0  0
    1.5817   -0.5656    0.0735 C   0  0  0  0  0  0  0  0  0  0  0  0
   -2.2437    0.6152   -1.3060 C   0  0  0  0  0  0  0  0  0  0  0  0
    0.6782    0.6184    0.2067 C   0  0  0  0  0  0  0  0  0  0  0  0
    2.5919   -0.7648    0.9228 C   0  0  0  0  0  3  0  0  0  0  0  0
   -2.2946    0.2545    0.8127 H   0  0  0  0  0  0  0  0  0  0  0  0
   -2.1073   -1.2196   -0.2115 H   0  0  0  0  0  0  0  0  0  0  0  0
   -0.5198   -0.0933    0.0292 H   0  0  0  0  0  0  0  0  0  0  0  0
    1.4075   -1.2726   -0.7311 H   0  0  0  0  0  0  0  0  0  0  0  0
   -2.7729    0.1121   -2.1088 H   0  0  0  0  0  0  0  0  0  0  0  0
    1.2591    1.5594    0.1048 H   0  0  0  0  0  0  0  0  0  0  0  0
    0.1587    0.5979    1.1879 H   0  0  0  0  0  0  0  0  0  0  0  0
    2.7835   -0.0695    1.7348 H   0  0  0  0  0  0  0  0  0  0  0  0
    3.2354   -1.6309    0.8077 H   0  0  0  0  0  0  0  0  0  0  0  0
  1  4  2  0
  2  4  1  0
  2  7  1  0
  2  8  1  0
  2  9  1  0
  3  5  2  3
  3  6  1  0
  3 10  1  0
  4 11  1  0
  5 12  1  0
  5 13  1  0
  6 14  1  0
  6 15  1  0
M  RAD  1   6   2
M  END
>  <reaction>  (17) 
rxn_1020

>  <mol_properties>  (17) 
{"1": {"label": "*4", "atom_type": "Cd"}, "2": {"label": "*3", "atom_type": "Cs"}, "6": {"label": "*2", "atom_type": "H0"}, "9": {"label": "*1", "atom_type": "Cs"}, "10": {"label": "*0", "atom_type": "CS"}}

>  <type>  (17) 
unop_13

>  <geom_source>  (17) 
AutoTST

$$$$
