
     RDKit          3D

 15 14  0  0  0  0  0  0  0  0999 V2000
    2.1787    0.5096   -0.5764 C   0  0  0  0  0  0  0  0  0  0  0  0
    1.1279    0.2043    0.1695 C   0  0  0  0  0  0  0  0  0  0  0  0
   -0.2775   -0.0485   -0.3027 C   0  0  0  0  0  0  0  0  0  0  0  0
   -0.7353   -1.4386    0.1499 C   0  0  0  0  0  0  0  0  0  0  0  0
   -0.4688    0.1290   -1.8029 C   0  0  0  0  0  0  0  0  0  0  0  0
    3.1538    0.6614   -0.1309 H   0  0  0  0  0  0  0  0  0  0  0  0
    2.1121    0.6215   -1.6520 H   0  0  0  0  0  0  0  0  0  0  0  0
    1.2677    0.1056    1.2440 H   0  0  0  0  0  0  0  0  0  0  0  0
   -0.9149    0.6839    0.2083 H   0  0  0  0  0  0  0  0  0  0  0  0
   -0.6261   -1.5617    1.2291 H   0  0  0  0  0  0  0  0  0  0  0  0
   -0.1399   -2.2137   -0.3385 H   0  0  0  0  0  0  0  0  0  0  0  0
   -1.7840   -1.6037   -0.1046 H   0  0  0  0  0  0  0  0  0  0  0  0
    0.1345   -0.5907   -2.3620 H   0  0  0  0  0  0  0  0  0  0  0  0
   -0.1879    1.1320   -2.1284 H   0  0  0  0  0  0  0  0  0  0  0  0
   -1.5136   -0.0324   -2.0734 H   0  0  0  0  0  0  0  0  0  0  0  0
  1  2  2  3
  1  6  1  0
  1  7  1  0
  2  3  1  0
  2  8  1  0
  3  4  1  0
  3  5  1  0
  3  9  1  0
  4 10  1  0
  4 11  1  0
  4 12  1  0
  5 13  1  0
  5 14  1  0
  5 15  1  0
M  END
>  <reaction>  (1) 
rxn_1099

>  <mol_properties>  (1) 
{"2": {"label": "donator", "atom_type": "Cs"}, "8": {"label": "d_hydrogen", "atom_type": "H0"}}

>  <type>  (1) 
r1h

$$$$

     RDKit          3D

  8  7  0  0  0  0  0  0  0  0999 V2000
    1.4097   -0.3618   -0.1144 C   0  0  0  0  0  0  0  0  0  0  0  0
    0.1804   -0.1811   -0.5085 C   0  0  0  0  0  3  0  0  0  0  0  0
   -1.1132    0.2655    0.0162 C   0  0  0  0  0  0  0  0  0  0  0  0
    2.1849   -0.7256   -0.7809 H   0  0  0  0  0  0  0  0  0  0  0  0
    1.7118   -0.1519    0.9143 H   0  0  0  0  0  0  0  0  0  0  0  0
   -1.8662   -0.5198   -0.0756 H   0  0  0  0  0  0  0  0  0  0  0  0
   -1.0300    0.5356    1.0772 H   0  0  0  0  0  0  0  0  0  0  0  0
   -1.4772    1.1391   -0.5284 H   0  0  0  0  0  0  0  0  0  0  0  0
  1  2  2  3
  1  4  1  0
  1  5  1  0
  2  3  1  0
  3  6  1  0
  3  7  1  0
  3  8  1  0
M  RAD  1   2   2
M  END
>  <reaction>  (2) 
rxn_1099

>  <mol_properties>  (2) 
{"1": {"label": "acceptor", "atom_type": "Cd"}}

>  <type>  (2) 
r2

$$$$

     RDKit          3D

  9  8  0  0  0  0  0  0  0  0999 V2000
    1.1303   -0.2933   -0.7510 C   0  0  0  0  0  0  0  0  0  0  0  0
    0.2866    0.4560   -0.0588 C   0  0  0  0  0  0  0  0  0  0  0  0
   -0.9719   -0.0331    0.5823 C   0  0  0  0  0  0  0  0  0  0  0  0
    2.0274    0.1230   -1.1916 H   0  0  0  0  0  0  0  0  0  0  0  0
    0.9532   -1.3530   -0.9023 H   0  0  0  0  0  0  0  0  0  0  0  0
    0.5065    1.5132    0.0659 H   0  0  0  0  0  0  0  0  0  0  0  0
   -0.9526    0.1426    1.6610 H   0  0  0  0  0  0  0  0  0  0  0  0
   -1.1182   -1.1002    0.4106 H   0  0  0  0  0  0  0  0  0  0  0  0
   -1.8412    0.5010    0.1901 H   0  0  0  0  0  0  0  0  0  0  0  0
  1  2  2  3
  1  4  1  0
  1  5  1  0
  2  3  1  0
  2  6  1  0
  3  7  1  0
  3  8  1  0
  3  9  1  0
M  END
>  <reaction>  (3) 
rxn_1099

>  <mol_properties>  (3) 
{"1": {"label": "acceptor", "atom_type": "Cd"}, "8": {"label": "a_hydrogen", "atom_type": "H0"}}

>  <type>  (3) 
r2h

$$$$

     RDKit          3D

 23 21  0  0  0  0  0  0  0  0999 V2000
    2.2392   -0.8595    0.6897 C   0  0  0  0  0  0  0  0  0  0  0  0
    1.4021    0.0264    1.1734 C   0  0  0  0  0  3  0  0  0  0  0  0
    1.4538    0.9562    2.3204 C   0  0  0  0  0  0  0  0  0  0  0  0
    1.9930   -1.4474   -0.1891 H   0  0  0  0  0  0  0  0  0  0  0  0
    3.2120   -1.0385    1.1476 H   0  0  0  0  0  0  0  0  0  0  0  0
    0.6409    0.7552    3.0219 H   0  0  0  0  0  0  0  0  0  0  0  0
    2.4030    0.8674    2.8603 H   0  0  0  0  0  0  0  0  0  0  0  0
    1.3460    1.9911    1.9871 H   0  0  0  0  0  0  0  0  0  0  0  0
   -0.6098   -1.2022   -2.4131 C   0  0  0  0  0  0  0  0  0  0  0  0
   -0.8751   -1.0687   -1.1167 C   0  0  0  0  0  0  0  0  0  0  0  0
   -0.8652    0.1856   -0.3316 C   0  0  0  0  0  0  0  0  0  0  0  0
   -1.9977    0.2669    0.6779 C   0  0  0  0  0  0  0  0  0  0  0  0
   -0.6703    1.4620   -1.1216 C   0  0  0  0  0  0  0  0  0  0  0  0
   -0.6228   -2.1754   -2.8870 H   0  0  0  0  0  0  0  0  0  0  0  0
   -0.3783   -0.3539   -3.0457 H   0  0  0  0  0  0  0  0  0  0  0  0
   -1.1051   -1.9642   -0.5433 H   0  0  0  0  0  0  0  0  0  0  0  0
    0.1461    0.0952    0.3660 H   0  0  0  0  0  0  0  0  0  0  0  0
   -2.0575   -0.6429    1.2787 H   0  0  0  0  0  0  0  0  0  0  0  0
   -2.9606    0.4013    0.1758 H   0  0  0  0  0  0  0  0  0  0  0  0
   -1.8539    1.1114    1.3553 H   0  0  0  0  0  0  0  0  0  0  0  0
   -1.5059    1.6332   -1.8073 H   0  0  0  0  0  0  0  0  0  0  0  0
    0.2491    1.4324   -1.7084 H   0  0  0  0  0  0  0  0  0  0  0  0
   -0.6088    2.3196   -0.4490 H   0  0  0  0  0  0  0  0  0  0  0  0
  1  2  2  3
  1  4  1  0
  1  5  1  0
  2  3  1  0
  3  6  1  0
  3  7  1  0
  3  8  1  0
  9 10  2  3
  9 14  1  0
  9 15  1  0
 10 11  1  0
 10 16  1  0
 11 12  1  0
 11 13  1  0
 11 17  1  0
 12 18  1  0
 12 19  1  0
 12 20  1  0
 13 21  1  0
 13 22  1  0
 13 23  1  0
M  RAD  1   2   2
M  END
>  <reaction>  (4) 
rxn_1099

>  <mol_properties>  (4) 
{"0": {"label": "*4", "atom_type": "Cd"}, "1": {"label": "*3", "atom_type": "Cd"}, "9": {"label": "*0", "atom_type": "Cd"}, "10": {"label": "*1", "atom_type": "Cs"}, "16": {"label": "*2", "atom_type": "H0"}}

>  <type>  (4) 
ts

$$$$

     RDKit          3D

 23 21  0  0  0  0  0  0  0  0999 V2000
    2.3605    0.9263    1.0735 C   0  0  0  0  0  0  0  0  0  0  0  0
    1.4567   -0.0393    1.1276 C   0  0  0  0  0  0  0  0  0  0  0  0
    0.9639   -0.6875    2.3811 C   0  0  0  0  0  0  0  0  0  0  0  0
    2.6758    1.3550    0.1305 H   0  0  0  0  0  0  0  0  0  0  0  0
    2.8187    1.3238    1.9730 H   0  0  0  0  0  0  0  0  0  0  0  0
    1.1583   -1.7630    2.3652 H   0  0  0  0  0  0  0  0  0  0  0  0
    1.4446   -0.2645    3.2641 H   0  0  0  0  0  0  0  0  0  0  0  0
   -0.1170   -0.5627    2.4844 H   0  0  0  0  0  0  0  0  0  0  0  0
   -0.6892   -1.0444   -2.5965 C   0  0  0  0  0  0  0  0  0  0  0  0
   -0.6892   -1.0444   -1.2723 C   0  0  0  0  0  0  0  0  0  0  0  0
   -0.6892    0.1550   -0.3648 C   0  0  0  0  0  3  0  0  0  0  0  0
   -1.8984    0.0960    0.5739 C   0  0  0  0  0  0  0  0  0  0  0  0
   -0.6309    1.4879   -1.0988 C   0  0  0  0  0  0  0  0  0  0  0  0
   -0.7000   -1.9722   -3.1543 H   0  0  0  0  0  0  0  0  0  0  0  0
   -0.6771   -0.1285   -3.1752 H   0  0  0  0  0  0  0  0  0  0  0  0
   -0.7039   -2.0016   -0.7552 H   0  0  0  0  0  0  0  0  0  0  0  0
    0.3888    0.0574    0.3849 H   0  0  0  0  0  0  0  0  0  0  0  0
   -1.9299   -0.8467    1.1235 H   0  0  0  0  0  0  0  0  0  0  0  0
   -2.8271    0.1845    0.0051 H   0  0  0  0  0  0  0  0  0  0  0  0
   -1.8655    0.9099    1.3008 H   0  0  0  0  0  0  0  0  0  0  0  0
   -1.5146    1.6277   -1.7265 H   0  0  0  0  0  0  0  0  0  0  0  0
    0.2520    1.5577   -1.7363 H   0  0  0  0  0  0  0  0  0  0  0  0
   -0.5968    2.3125   -0.3850 H   0  0  0  0  0  0  0  0  0  0  0  0
  1  2  2  3
  1  4  1  0
  1  5  1  0
  2  3  1  0
  2 17  1  0
  3  6  1  0
  3  7  1  0
  3  8  1  0
  9 10  2  3
  9 14  1  0
  9 15  1  0
 10 11  1  0
 10 16  1  0
 11 12  1  0
 11 13  1  0
 12 18  1  0
 12 19  1  0
 12 20  1  0
 13 21  1  0
 13 22  1  0
 13 23  1  0
M  RAD  1  11   2
M  END
>  <reaction>  (5) 
rxn_1099

>  <mol_properties>  (5) 
{"0": {"label": "*4", "atom_type": "Cd"}, "1": {"label": "*3", "atom_type": "Cd"}, "9": {"label": "*0", "atom_type": "Cd"}, "10": {"label": "*1", "atom_type": "Cs"}, "16": {"label": "*2", "atom_type": "H0"}}

>  <type>  (5) 
unop_1

>  <geom_source>  (5) 
Heuristics

$$$$

     RDKit          3D

 23 21  0  0  0  0  0  0  0  0999 V2000
    2.4325   -0.6576    0.7019 C   0  0  0  0  0  0  0  0  0  0  0  0
    1.3647   -0.0515    1.1966 C   0  0  0  0  0  0  0  0  0  0  0  0
    1.3647    0.8627    2.3792 C   0  0  0  0  0  0  0  0  0  0  0  0
    2.3654   -1.3097   -0.1599 H   0  0  0  0  0  0  0  0  0  0  0  0
    3.4148   -0.5230    1.1425 H   0  0  0  0  0  0  0  0  0  0  0  0
    0.7055    0.4831    3.1641 H   0  0  0  0  0  0  0  0  0  0  0  0
    2.3663    0.9751    2.7962 H   0  0  0  0  0  0  0  0  0  0  0  0
    0.9927    1.8532    2.1050 H   0  0  0  0  0  0  0  0  0  0  0  0
   -0.7812   -1.0565   -2.5275 C   0  0  0  0  0  0  0  0  0  0  0  0
   -0.7812   -1.0565   -1.2033 C   0  0  0  0  0  0  0  0  0  0  0  0
   -0.7812    0.1429   -0.2958 C   0  0  0  0  0  3  0  0  0  0  0  0
   -1.9904    0.0839    0.6429 C   0  0  0  0  0  0  0  0  0  0  0  0
   -0.7229    1.4757   -1.0299 C   0  0  0  0  0  0  0  0  0  0  0  0
   -0.7920   -1.9844   -3.0854 H   0  0  0  0  0  0  0  0  0  0  0  0
   -0.7691   -0.1407   -3.1063 H   0  0  0  0  0  0  0  0  0  0  0  0
   -0.7959   -2.0137   -0.6862 H   0  0  0  0  0  0  0  0  0  0  0  0
    0.2968    0.0453    0.4539 H   0  0  0  0  0  0  0  0  0  0  0  0
   -2.0219   -0.8589    1.1925 H   0  0  0  0  0  0  0  0  0  0  0  0
   -2.9191    0.1723    0.0741 H   0  0  0  0  0  0  0  0  0  0  0  0
   -1.9575    0.8978    1.3697 H   0  0  0  0  0  0  0  0  0  0  0  0
   -1.6066    1.6155   -1.6576 H   0  0  0  0  0  0  0  0  0  0  0  0
    0.1600    1.5456   -1.6673 H   0  0  0  0  0  0  0  0  0  0  0  0
   -0.6888    2.3004   -0.3160 H   0  0  0  0  0  0  0  0  0  0  0  0
  1  2  2  3
  1  4  1  0
  1  5  1  0
  2  3  1  0
  2 17  1  0
  3  6  1  0
  3  7  1  0
  3  8  1  0
  9 10  2  3
  9 14  1  0
  9 15  1  0
 10 11  1  0
 10 16  1  0
 11 12  1  0
 11 13  1  0
 12 18  1  0
 12 19  1  0
 12 20  1  0
 13 21  1  0
 13 22  1  0
 13 23  1  0
M  RAD  1  11   2
M  END
>  <reaction>  (6) 
rxn_1099

>  <mol_properties>  (6) 
{"0": {"label": "*4", "atom_type": "Cd"}, "1": {"label": "*3", "atom_type": "Cd"}, "9": {"label": "*0", "atom_type": "Cd"}, "10": {"label": "*1", "atom_type": "Cs"}, "16": {"label": "*2", "atom_type": "H0"}}

>  <type>  (6) 
unop_2

>  <geom_source>  (6) 
Heuristics

$$$$

     RDKit          3D

 23 21  0  0  0  0  0  0  0  0999 V2000
    2.0204    1.1412    1.5632 C   0  0  0  0  0  0  0  0  0  0  0  0
    1.4406    0.0318    1.1326 C   0  0  0  0  0  0  0  0  0  0  0  0
    1.3654   -1.2516    1.8952 C   0  0  0  0  0  0  0  0  0  0  0  0
    2.0408    2.0404    0.9605 H   0  0  0  0  0  0  0  0  0  0  0  0
    2.4967    1.1898    2.5368 H   0  0  0  0  0  0  0  0  0  0  0  0
    1.8432   -2.0626    1.3396 H   0  0  0  0  0  0  0  0  0  0  0  0
    1.8531   -1.1670    2.8671 H   0  0  0  0  0  0  0  0  0  0  0  0
    0.3257   -1.5478    2.0563 H   0  0  0  0  0  0  0  0  0  0  0  0
   -0.7053   -0.9732   -2.5914 C   0  0  0  0  0  0  0  0  0  0  0  0
   -0.7053   -0.9732   -1.2672 C   0  0  0  0  0  0  0  0  0  0  0  0
   -0.7053    0.2262   -0.3597 C   0  0  0  0  0  3  0  0  0  0  0  0
   -1.9145    0.1672    0.5790 C   0  0  0  0  0  0  0  0  0  0  0  0
   -0.6470    1.5590   -1.0938 C   0  0  0  0  0  0  0  0  0  0  0  0
   -0.7161   -1.9011   -3.1493 H   0  0  0  0  0  0  0  0  0  0  0  0
   -0.6932   -0.0574   -3.1702 H   0  0  0  0  0  0  0  0  0  0  0  0
   -0.7200   -1.9304   -0.7502 H   0  0  0  0  0  0  0  0  0  0  0  0
    0.3727    0.1285    0.3900 H   0  0  0  0  0  0  0  0  0  0  0  0
   -1.9460   -0.7756    1.1286 H   0  0  0  0  0  0  0  0  0  0  0  0
   -2.8431    0.2556    0.0102 H   0  0  0  0  0  0  0  0  0  0  0  0
   -1.8815    0.9810    1.3058 H   0  0  0  0  0  0  0  0  0  0  0  0
   -1.5307    1.6988   -1.7215 H   0  0  0  0  0  0  0  0  0  0  0  0
    0.2360    1.6289   -1.7313 H   0  0  0  0  0  0  0  0  0  0  0  0
   -0.6129    2.3836   -0.3799 H   0  0  0  0  0  0  0  0  0  0  0  0
  1  2  2  3
  1  4  1  0
  1  5  1  0
  2  3  1  0
  2 17  1  0
  3  6  1  0
  3  7  1  0
  3  8  1  0
  9 10  2  3
  9 14  1  0
  9 15  1  0
 10 11  1  0
 10 16  1  0
 11 12  1  0
 11 13  1  0
 12 18  1  0
 12 19  1  0
 12 20  1  0
 13 21  1  0
 13 22  1  0
 13 23  1  0
M  RAD  1  11   2
M  END
>  <reaction>  (7) 
rxn_1099

>  <mol_properties>  (7) 
{"0": {"label": "*4", "atom_type": "Cd"}, "1": {"label": "*3", "atom_type": "Cd"}, "9": {"label": "*0", "atom_type": "Cd"}, "10": {"label": "*1", "atom_type": "Cs"}, "16": {"label": "*2", "atom_type": "H0"}}

>  <type>  (7) 
unop_3

>  <geom_source>  (7) 
Heuristics

$$$$

     RDKit          3D

 23 21  0  0  0  0  0  0  0  0999 V2000
    1.5561   -1.1158    1.9305 C   0  0  0  0  0  0  0  0  0  0  0  0
    1.4159   -0.0556    1.1503 C   0  0  0  0  0  0  0  0  0  0  0  0
    1.9274    1.3143    1.4601 C   0  0  0  0  0  0  0  0  0  0  0  0
    1.1611   -2.0835    1.6476 H   0  0  0  0  0  0  0  0  0  0  0  0
    2.0724   -1.0536    2.8827 H   0  0  0  0  0  0  0  0  0  0  0  0
    1.1090    2.0383    1.4861 H   0  0  0  0  0  0  0  0  0  0  0  0
    2.4399    1.3404    2.4225 H   0  0  0  0  0  0  0  0  0  0  0  0
    2.6249    1.6525    0.6894 H   0  0  0  0  0  0  0  0  0  0  0  0
   -0.7300   -1.0606   -2.5738 C   0  0  0  0  0  0  0  0  0  0  0  0
   -0.7300   -1.0606   -1.2495 C   0  0  0  0  0  0  0  0  0  0  0  0
   -0.7300    0.1388   -0.3420 C   0  0  0  0  0  3  0  0  0  0  0  0
   -1.9392    0.0798    0.5967 C   0  0  0  0  0  0  0  0  0  0  0  0
   -0.6717    1.4716   -1.0761 C   0  0  0  0  0  0  0  0  0  0  0  0
   -0.7408   -1.9885   -3.1316 H   0  0  0  0  0  0  0  0  0  0  0  0
   -0.7179   -0.1448   -3.1525 H   0  0  0  0  0  0  0  0  0  0  0  0
   -0.7447   -2.0178   -0.7325 H   0  0  0  0  0  0  0  0  0  0  0  0
    0.3480    0.0411    0.4076 H   0  0  0  0  0  0  0  0  0  0  0  0
   -1.9707   -0.8630    1.1462 H   0  0  0  0  0  0  0  0  0  0  0  0
   -2.8678    0.1682    0.0279 H   0  0  0  0  0  0  0  0  0  0  0  0
   -1.9062    0.8936    1.3235 H   0  0  0  0  0  0  0  0  0  0  0  0
   -1.5554    1.6114   -1.7038 H   0  0  0  0  0  0  0  0  0  0  0  0
    0.2113    1.5415   -1.7136 H   0  0  0  0  0  0  0  0  0  0  0  0
   -0.6376    2.2962   -0.3622 H   0  0  0  0  0  0  0  0  0  0  0  0
  1  2  2  3
  1  4  1  0
  1  5  1  0
  2  3  1  0
  2 17  1  0
  3  6  1  0
  3  7  1  0
  3  8  1  0
  9 10  2  3
  9 14  1  0
  9 15  1  0
 10 11  1  0
 10 16  1  0
 11 12  1  0
 11 13  1  0
 12 18  1  0
 12 19  1  0
 12 20  1  0
 13 21  1  0
 13 22  1  0
 13 23  1  0
M  RAD  1  11   2
M  END
>  <reaction>  (8) 
rxn_1099

>  <mol_properties>  (8) 
{"0": {"label": "*4", "atom_type": "Cd"}, "1": {"label": "*3", "atom_type": "Cd"}, "9": {"label": "*0", "atom_type": "Cd"}, "10": {"label": "*1", "atom_type": "Cs"}, "16": {"label": "*2", "atom_type": "H0"}}

>  <type>  (8) 
unop_4

>  <geom_source>  (8) 
Heuristics

$$$$

     RDKit          3D

 23 21  0  0  0  0  0  0  0  0999 V2000
    1.5927    0.9847    2.1107 C   0  0  0  0  0  0  0  0  0  0  0  0
    1.3525    0.0415    1.2135 C   0  0  0  0  0  0  0  0  0  0  0  0
    2.2162   -1.1537    0.9691 C   0  0  0  0  0  0  0  0  0  0  0  0
    0.9254    1.8277    2.2388 H   0  0  0  0  0  0  0  0  0  0  0  0
    2.4678    0.9472    2.7509 H   0  0  0  0  0  0  0  0  0  0  0  0
    2.5690   -1.1736   -0.0653 H   0  0  0  0  0  0  0  0  0  0  0  0
    3.0850   -1.1593    1.6286 H   0  0  0  0  0  0  0  0  0  0  0  0
    1.6557   -2.0781    1.1302 H   0  0  0  0  0  0  0  0  0  0  0  0
   -0.7935   -0.9636   -2.5106 C   0  0  0  0  0  0  0  0  0  0  0  0
   -0.7935   -0.9636   -1.1864 C   0  0  0  0  0  0  0  0  0  0  0  0
   -0.7935    0.2358   -0.2789 C   0  0  0  0  0  3  0  0  0  0  0  0
   -2.0027    0.1769    0.6598 C   0  0  0  0  0  0  0  0  0  0  0  0
   -0.7351    1.5687   -1.0129 C   0  0  0  0  0  0  0  0  0  0  0  0
   -0.8043   -1.8914   -3.0684 H   0  0  0  0  0  0  0  0  0  0  0  0
   -0.7813   -0.0477   -3.0893 H   0  0  0  0  0  0  0  0  0  0  0  0
   -0.8082   -1.9208   -0.6693 H   0  0  0  0  0  0  0  0  0  0  0  0
    0.2845    0.1382    0.4708 H   0  0  0  0  0  0  0  0  0  0  0  0
   -2.0342   -0.7659    1.2094 H   0  0  0  0  0  0  0  0  0  0  0  0
   -2.9313    0.2653    0.0911 H   0  0  0  0  0  0  0  0  0  0  0  0
   -1.9697    0.9907    1.3867 H   0  0  0  0  0  0  0  0  0  0  0  0
   -1.6188    1.7085   -1.6406 H   0  0  0  0  0  0  0  0  0  0  0  0
    0.1478    1.6386   -1.6504 H   0  0  0  0  0  0  0  0  0  0  0  0
   -0.7010    2.3933   -0.2991 H   0  0  0  0  0  0  0  0  0  0  0  0
  1  2  2  3
  1  4  1  0
  1  5  1  0
  2  3  1  0
  2 17  1  0
  3  6  1  0
  3  7  1  0
  3  8  1  0
  9 10  2  3
  9 14  1  0
  9 15  1  0
 10 11  1  0
 10 16  1  0
 11 12  1  0
 11 13  1  0
 12 18  1  0
 12 19  1  0
 12 20  1  0
 13 21  1  0
 13 22  1  0
 13 23  1  0
M  RAD  1  11   2
M  END
>  <reaction>  (9) 
rxn_1099

>  <mol_properties>  (9) 
{"0": {"label": "*4", "atom_type": "Cd"}, "1": {"label": "*3", "atom_type": "Cd"}, "9": {"label": "*0", "atom_type": "Cd"}, "10": {"label": "*1", "atom_type": "Cs"}, "16": {"label": "*2", "atom_type": "H0"}}

>  <type>  (9) 
unop_5

>  <geom_source>  (9) 
Heuristics

$$$$

     RDKit          3D

 23 21  0  0  0  0  0  0  0  0999 V2000
    1.3303   -0.7426    2.3291 C   0  0  0  0  0  0  0  0  0  0  0  0
    1.4119   -0.0976    1.1761 C   0  0  0  0  0  0  0  0  0  0  0  0
    2.1601    1.1773    0.9544 C   0  0  0  0  0  0  0  0  0  0  0  0
    0.7706   -1.6646    2.4241 H   0  0  0  0  0  0  0  0  0  0  0  0
    1.8218   -0.3705    3.2219 H   0  0  0  0  0  0  0  0  0  0  0  0
    1.4900    1.9648    0.5999 H   0  0  0  0  0  0  0  0  0  0  0  0
    2.6408    1.5220    1.8707 H   0  0  0  0  0  0  0  0  0  0  0  0
    2.9299    1.0485    0.1891 H   0  0  0  0  0  0  0  0  0  0  0  0
   -0.7340   -1.1026   -2.5480 C   0  0  0  0  0  0  0  0  0  0  0  0
   -0.7340   -1.1026   -1.2238 C   0  0  0  0  0  0  0  0  0  0  0  0
   -0.7340    0.0968   -0.3163 C   0  0  0  0  0  3  0  0  0  0  0  0
   -1.9432    0.0378    0.6224 C   0  0  0  0  0  0  0  0  0  0  0  0
   -0.6757    1.4296   -1.0504 C   0  0  0  0  0  0  0  0  0  0  0  0
   -0.7448   -2.0305   -3.1059 H   0  0  0  0  0  0  0  0  0  0  0  0
   -0.7219   -0.1868   -3.1268 H   0  0  0  0  0  0  0  0  0  0  0  0
   -0.7487   -2.0598   -0.7067 H   0  0  0  0  0  0  0  0  0  0  0  0
    0.3440   -0.0008    0.4334 H   0  0  0  0  0  0  0  0  0  0  0  0
   -1.9747   -0.9050    1.1720 H   0  0  0  0  0  0  0  0  0  0  0  0
   -2.8719    0.1262    0.0536 H   0  0  0  0  0  0  0  0  0  0  0  0
   -1.9103    0.8517    1.3493 H   0  0  0  0  0  0  0  0  0  0  0  0
   -1.5594    1.5694   -1.6780 H   0  0  0  0  0  0  0  0  0  0  0  0
    0.2072    1.4995   -1.6878 H   0  0  0  0  0  0  0  0  0  0  0  0
   -0.6416    2.2543   -0.3365 H   0  0  0  0  0  0  0  0  0  0  0  0
  1  2  2  3
  1  4  1  0
  1  5  1  0
  2  3  1  0
  2 17  1  0
  3  6  1  0
  3  7  1  0
  3  8  1  0
  9 10  2  3
  9 14  1  0
  9 15  1  0
 10 11  1  0
 10 16  1  0
 11 12  1  0
 11 13  1  0
 12 18  1  0
 12 19  1  0
 12 20  1  0
 13 21  1  0
 13 22  1  0
 13 23  1  0
M  RAD  1  11   2
M  END
>  <reaction>  (10) 
rxn_1099

>  <mol_properties>  (10) 
{"0": {"label": "*4", "atom_type": "Cd"}, "1": {"label": "*3", "atom_type": "Cd"}, "9": {"label": "*0", "atom_type": "Cd"}, "10": {"label": "*1", "atom_type": "Cs"}, "16": {"label": "*2", "atom_type": "H0"}}

>  <type>  (10) 
unop_6

>  <geom_source>  (10) 
Heuristics

$$$$

     RDKit          3D

 23 21  0  0  0  0  0  0  0  0999 V2000
    1.2411   -0.1823    2.5388 C   0  0  0  0  0  0  0  0  0  0  0  0
    1.3827   -0.1126    1.2245 C   0  0  0  0  0  0  0  0  0  0  0  0
    2.3925    0.7274    0.5111 C   0  0  0  0  0  0  0  0  0  0  0  0
    0.4876   -0.8122    2.9947 H   0  0  0  0  0  0  0  0  0  0  0  0
    1.8756    0.3897    3.2076 H   0  0  0  0  0  0  0  0  0  0  0  0
    1.9031    1.4381   -0.1598 H   0  0  0  0  0  0  0  0  0  0  0  0
    3.0120    1.2878    1.2125 H   0  0  0  0  0  0  0  0  0  0  0  0
    3.0471    0.1076   -0.1071 H   0  0  0  0  0  0  0  0  0  0  0  0
   -0.7632   -1.1176   -2.4996 C   0  0  0  0  0  0  0  0  0  0  0  0
   -0.7632   -1.1176   -1.1754 C   0  0  0  0  0  0  0  0  0  0  0  0
   -0.7632    0.0817   -0.2679 C   0  0  0  0  0  3  0  0  0  0  0  0
   -1.9724    0.0228    0.6708 C   0  0  0  0  0  0  0  0  0  0  0  0
   -0.7049    1.4146   -1.0020 C   0  0  0  0  0  0  0  0  0  0  0  0
   -0.7740   -2.0455   -3.0575 H   0  0  0  0  0  0  0  0  0  0  0  0
   -0.7511   -0.2018   -3.0784 H   0  0  0  0  0  0  0  0  0  0  0  0
   -0.7779   -2.0749   -0.6584 H   0  0  0  0  0  0  0  0  0  0  0  0
    0.3148   -0.0159    0.4818 H   0  0  0  0  0  0  0  0  0  0  0  0
   -2.0039   -0.9200    1.2204 H   0  0  0  0  0  0  0  0  0  0  0  0
   -2.9011    0.1112    0.1020 H   0  0  0  0  0  0  0  0  0  0  0  0
   -1.9395    0.8366    1.3976 H   0  0  0  0  0  0  0  0  0  0  0  0
   -1.5886    1.5544   -1.6297 H   0  0  0  0  0  0  0  0  0  0  0  0
    0.1780    1.4845   -1.6395 H   0  0  0  0  0  0  0  0  0  0  0  0
   -0.6708    2.2392   -0.2881 H   0  0  0  0  0  0  0  0  0  0  0  0
  1  2  2  3
  1  4  1  0
  1  5  1  0
  2  3  1  0
  2 17  1  0
  3  6  1  0
  3  7  1  0
  3  8  1  0
  9 10  2  3
  9 14  1  0
  9 15  1  0
 10 11  1  0
 10 16  1  0
 11 12  1  0
 11 13  1  0
 12 18  1  0
 12 19  1  0
 12 20  1  0
 13 21  1  0
 13 22  1  0
 13 23  1  0
M  RAD  1  11   2
M  END
>  <reaction>  (11) 
rxn_1099

>  <mol_properties>  (11) 
{"0": {"label": "*4", "atom_type": "Cd"}, "1": {"label": "*3", "atom_type": "Cd"}, "9": {"label": "*0", "atom_type": "Cd"}, "10": {"label": "*1", "atom_type": "Cs"}, "16": {"label": "*2", "atom_type": "H0"}}

>  <type>  (11) 
unop_7

>  <geom_source>  (11) 
Heuristics

$$$$

     RDKit          3D

 23 21  0  0  0  0  0  0  0  0999 V2000
    2.5533    0.4686    0.7283 C   0  0  0  0  0  0  0  0  0  0  0  0
    1.4278   -0.0819    1.1553 C   0  0  0  0  0  0  0  0  0  0  0  0
    0.9302   -0.0408    2.5642 C   0  0  0  0  0  0  0  0  0  0  0  0
    2.8583    0.4030   -0.3086 H   0  0  0  0  0  0  0  0  0  0  0  0
    3.2119    1.0062    1.4024 H   0  0  0  0  0  0  0  0  0  0  0  0
    0.8100   -1.0510    2.9639 H   0  0  0  0  0  0  0  0  0  0  0  0
    1.6152    0.5062    3.2132 H   0  0  0  0  0  0  0  0  0  0  0  0
   -0.0506    0.4390    2.6164 H   0  0  0  0  0  0  0  0  0  0  0  0
   -0.7182   -1.0869   -2.5687 C   0  0  0  0  0  0  0  0  0  0  0  0
   -0.7182   -1.0869   -1.2445 C   0  0  0  0  0  0  0  0  0  0  0  0
   -0.7182    0.1125   -0.3370 C   0  0  0  0  0  3  0  0  0  0  0  0
   -1.9274    0.0535    0.6017 C   0  0  0  0  0  0  0  0  0  0  0  0
   -0.6598    1.4453   -1.0711 C   0  0  0  0  0  0  0  0  0  0  0  0
   -0.7290   -2.0148   -3.1266 H   0  0  0  0  0  0  0  0  0  0  0  0
   -0.7060   -0.1711   -3.1475 H   0  0  0  0  0  0  0  0  0  0  0  0
   -0.7329   -2.0441   -0.7275 H   0  0  0  0  0  0  0  0  0  0  0  0
    0.3598    0.0148    0.4127 H   0  0  0  0  0  0  0  0  0  0  0  0
   -1.9589   -0.8893    1.1512 H   0  0  0  0  0  0  0  0  0  0  0  0
   -2.8560    0.1419    0.0329 H   0  0  0  0  0  0  0  0  0  0  0  0
   -1.8944    0.8673    1.3285 H   0  0  0  0  0  0  0  0  0  0  0  0
   -1.5435    1.5851   -1.6988 H   0  0  0  0  0  0  0  0  0  0  0  0
    0.2231    1.5152   -1.7086 H   0  0  0  0  0  0  0  0  0  0  0  0
   -0.6257    2.2699   -0.3572 H   0  0  0  0  0  0  0  0  0  0  0  0
  1  2  2  3
  1  4  1  0
  1  5  1  0
  2  3  1  0
  2 17  1  0
  3  6  1  0
  3  7  1  0
  3  8  1  0
  9 10  2  3
  9 14  1  0
  9 15  1  0
 10 11  1  0
 10 16  1  0
 11 12  1  0
 11 13  1  0
 12 18  1  0
 12 19  1  0
 12 20  1  0
 13 21  1  0
 13 22  1  0
 13 23  1  0
M  RAD  1  11   2
M  END
>  <reaction>  (12) 
rxn_1099

>  <mol_properties>  (12) 
{"0": {"label": "*4", "atom_type": "Cd"}, "1": {"label": "*3", "atom_type": "Cd"}, "9": {"label": "*0", "atom_type": "Cd"}, "10": {"label": "*1", "atom_type": "Cs"}, "16": {"label": "*2", "atom_type": "H0"}}

>  <type>  (12) 
unop_8

>  <geom_source>  (12) 
Heuristics

$$$$

     RDKit          3D

 23 21  0  0  0  0  0  0  0  0999 V2000
    1.8601   -1.2245    1.4511 C   0  0  0  0  0  0  0  0  0  0  0  0
    1.3959   -0.0206    1.1557 C   0  0  0  0  0  0  0  0  0  0  0  0
    1.7438    1.2381    1.8830 C   0  0  0  0  0  0  0  0  0  0  0  0
    1.5683   -2.0992    0.8835 H   0  0  0  0  0  0  0  0  0  0  0  0
    2.5506   -1.3788    2.2737 H   0  0  0  0  0  0  0  0  0  0  0  0
    0.8478    1.7097    2.2947 H   0  0  0  0  0  0  0  0  0  0  0  0
    2.4384    1.0465    2.7018 H   0  0  0  0  0  0  0  0  0  0  0  0
    2.2013    1.9645    1.2063 H   0  0  0  0  0  0  0  0  0  0  0  0
   -0.7500   -1.0256   -2.5684 C   0  0  0  0  0  0  0  0  0  0  0  0
   -0.7500   -1.0256   -1.2441 C   0  0  0  0  0  0  0  0  0  0  0  0
   -0.7500    0.1738   -0.3366 C   0  0  0  0  0  3  0  0  0  0  0  0
   -1.9592    0.1148    0.6021 C   0  0  0  0  0  0  0  0  0  0  0  0
   -0.6917    1.5066   -1.0707 C   0  0  0  0  0  0  0  0  0  0  0  0
   -0.7608   -1.9535   -3.1262 H   0  0  0  0  0  0  0  0  0  0  0  0
   -0.7379   -0.1098   -3.1471 H   0  0  0  0  0  0  0  0  0  0  0  0
   -0.7648   -1.9828   -0.7271 H   0  0  0  0  0  0  0  0  0  0  0  0
    0.3279    0.0762    0.4130 H   0  0  0  0  0  0  0  0  0  0  0  0
   -1.9907   -0.8280    1.1516 H   0  0  0  0  0  0  0  0  0  0  0  0
   -2.8879    0.2032    0.0333 H   0  0  0  0  0  0  0  0  0  0  0  0
   -1.9263    0.9287    1.3289 H   0  0  0  0  0  0  0  0  0  0  0  0
   -1.5754    1.6464   -1.6984 H   0  0  0  0  0  0  0  0  0  0  0  0
    0.1912    1.5765   -1.7082 H   0  0  0  0  0  0  0  0  0  0  0  0
   -0.6576    2.3313   -0.3568 H   0  0  0  0  0  0  0  0  0  0  0  0
  1  2  2  3
  1  4  1  0
  1  5  1  0
  2  3  1  0
  2 17  1  0
  3  6  1  0
  3  7  1  0
  3  8  1  0
  9 10  2  3
  9 14  1  0
  9 15  1  0
 10 11  1  0
 10 16  1  0
 11 12  1  0
 11 13  1  0
 12 18  1  0
 12 19  1  0
 12 20  1  0
 13 21  1  0
 13 22  1  0
 13 23  1  0
M  RAD  1  11   2
M  END
>  <reaction>  (13) 
rxn_1099

>  <mol_properties>  (13) 
{"0": {"label": "*4", "atom_type": "Cd"}, "1": {"label": "*3", "atom_type": "Cd"}, "9": {"label": "*0", "atom_type": "Cd"}, "10": {"label": "*1", "atom_type": "Cs"}, "16": {"label": "*2", "atom_type": "H0"}}

>  <type>  (13) 
unop_9

>  <geom_source>  (13) 
Heuristics

$$$$

     RDKit          3D

 23 21  0  0  0  0  0  0  0  0999 V2000
    2.5744   -0.1073    0.5975 C   0  0  0  0  0  0  0  0  0  0  0  0
    1.3889   -0.0824    1.1858 C   0  0  0  0  0  0  0  0  0  0  0  0
    1.1084    0.5031    2.5321 C   0  0  0  0  0  0  0  0  0  0  0  0
    2.7117   -0.5478   -0.3820 H   0  0  0  0  0  0  0  0  0  0  0  0
    3.4526    0.3134    1.0759 H   0  0  0  0  0  0  0  0  0  0  0  0
    0.7008   -0.2531    3.2079 H   0  0  0  0  0  0  0  0  0  0  0  0
    2.0115    0.9161    2.9833 H   0  0  0  0  0  0  0  0  0  0  0  0
    0.3633    1.2998    2.4622 H   0  0  0  0  0  0  0  0  0  0  0  0
   -0.7571   -1.0875   -2.5383 C   0  0  0  0  0  0  0  0  0  0  0  0
   -0.7571   -1.0875   -1.2141 C   0  0  0  0  0  0  0  0  0  0  0  0
   -0.7571    0.1119   -0.3066 C   0  0  0  0  0  3  0  0  0  0  0  0
   -1.9663    0.0530    0.6321 C   0  0  0  0  0  0  0  0  0  0  0  0
   -0.6987    1.4448   -1.0407 C   0  0  0  0  0  0  0  0  0  0  0  0
   -0.7679   -2.0153   -3.0961 H   0  0  0  0  0  0  0  0  0  0  0  0
   -0.7450   -0.1716   -3.1170 H   0  0  0  0  0  0  0  0  0  0  0  0
   -0.7718   -2.0447   -0.6970 H   0  0  0  0  0  0  0  0  0  0  0  0
    0.3209    0.0143    0.4431 H   0  0  0  0  0  0  0  0  0  0  0  0
   -1.9978   -0.8898    1.1817 H   0  0  0  0  0  0  0  0  0  0  0  0
   -2.8949    0.1414    0.0633 H   0  0  0  0  0  0  0  0  0  0  0  0
   -1.9333    0.8668    1.3590 H   0  0  0  0  0  0  0  0  0  0  0  0
   -1.5824    1.5846   -1.6683 H   0  0  0  0  0  0  0  0  0  0  0  0
    0.1842    1.5147   -1.6781 H   0  0  0  0  0  0  0  0  0  0  0  0
   -0.6647    2.2694   -0.3268 H   0  0  0  0  0  0  0  0  0  0  0  0
  1  2  2  3
  1  4  1  0
  1  5  1  0
  2  3  1  0
  2 17  1  0
  3  6  1  0
  3  7  1  0
  3  8  1  0
  9 10  2  3
  9 14  1  0
  9 15  1  0
 10 11  1  0
 10 16  1  0
 11 12  1  0
 11 13  1  0
 12 18  1  0
 12 19  1  0
 12 20  1  0
 13 21  1  0
 13 22  1  0
 13 23  1  0
M  RAD  1  11   2
M  END
>  <reaction>  (14) 
rxn_1099

>  <mol_properties>  (14) 
{"0": {"label": "*4", "atom_type": "Cd"}, "1": {"label": "*3", "atom_type": "Cd"}, "9": {"label": "*0", "atom_type": "Cd"}, "10": {"label": "*1", "atom_type": "Cs"}, "16": {"label": "*2", "atom_type": "H0"}}

>  <type>  (14) 
unop_10

>  <geom_source>  (14) 
Heuristics

$$$$

     RDKit          3D

 23 21  0  0  0  0  0  0  0  0999 V2000
    1.3169    0.4445    2.4840 C   0  0  0  0  0  0  0  0  0  0  0  0
    1.3408   -0.0671    1.2634 C   0  0  0  0  0  0  0  0  0  0  0  0
    2.5348   -0.0934    0.3645 C   0  0  0  0  0  0  0  0  0  0  0  0
    0.4170    0.4322    3.0859 H   0  0  0  0  0  0  0  0  0  0  0  0
    2.1992    0.8953    2.9261 H   0  0  0  0  0  0  0  0  0  0  0  0
    2.3309    0.4382   -0.5685 H   0  0  0  0  0  0  0  0  0  0  0  0
    3.4018    0.3669    0.8398 H   0  0  0  0  0  0  0  0  0  0  0  0
    2.7951   -1.1199    0.0936 H   0  0  0  0  0  0  0  0  0  0  0  0
   -0.8051   -1.0721   -2.4607 C   0  0  0  0  0  0  0  0  0  0  0  0
   -0.8051   -1.0721   -1.1365 C   0  0  0  0  0  0  0  0  0  0  0  0
   -0.8051    0.1273   -0.2290 C   0  0  0  0  0  3  0  0  0  0  0  0
   -2.0143    0.0683    0.7097 C   0  0  0  0  0  0  0  0  0  0  0  0
   -0.7468    1.4601   -0.9631 C   0  0  0  0  0  0  0  0  0  0  0  0
   -0.8160   -2.0000   -3.0186 H   0  0  0  0  0  0  0  0  0  0  0  0
   -0.7930   -0.1563   -3.0395 H   0  0  0  0  0  0  0  0  0  0  0  0
   -0.8199   -2.0293   -0.6194 H   0  0  0  0  0  0  0  0  0  0  0  0
    0.2728    0.0296    0.5207 H   0  0  0  0  0  0  0  0  0  0  0  0
   -2.0459   -0.8745    1.2593 H   0  0  0  0  0  0  0  0  0  0  0  0
   -2.9430    0.1567    0.1409 H   0  0  0  0  0  0  0  0  0  0  0  0
   -1.9814    0.8821    1.4365 H   0  0  0  0  0  0  0  0  0  0  0  0
   -1.6305    1.5999   -1.5908 H   0  0  0  0  0  0  0  0  0  0  0  0
    0.1361    1.5300   -1.6005 H   0  0  0  0  0  0  0  0  0  0  0  0
   -0.7127    2.2847   -0.2492 H   0  0  0  0  0  0  0  0  0  0  0  0
  1  2  2  3
  1  4  1  0
  1  5  1  0
  2  3  1  0
  2 17  1  0
  3  6  1  0
  3  7  1  0
  3  8  1  0
  9 10  2  3
  9 14  1  0
  9 15  1  0
 10 11  1  0
 10 16  1  0
 11 12  1  0
 11 13  1  0
 12 18  1  0
 12 19  1  0
 12 20  1  0
 13 21  1  0
 13 22  1  0
 13 23  1  0
M  RAD  1  11   2
M  END
>  <reaction>  (15) 
rxn_1099

>  <mol_properties>  (15) 
{"0": {"label": "*4", "atom_type": "Cd"}, "1": {"label": "*3", "atom_type": "Cd"}, "9": {"label": "*0", "atom_type": "Cd"}, "10": {"label": "*1", "atom_type": "Cs"}, "16": {"label": "*2", "atom_type": "H0"}}

>  <type>  (15) 
unop_11

>  <geom_source>  (15) 
Heuristics

$$$$

     RDKit          3D

 23 21  0  0  0  0  0  0  0  0999 V2000
    2.1737   -1.0577    1.0092 C   0  0  0  0  0  0  0  0  0  0  0  0
    1.3699   -0.0199    1.1804 C   0  0  0  0  0  0  0  0  0  0  0  0
    1.5814    1.0779    2.1726 C   0  0  0  0  0  0  0  0  0  0  0  0
    1.9635   -1.8212    0.2709 H   0  0  0  0  0  0  0  0  0  0  0  0
    3.0732   -1.1810    1.6032 H   0  0  0  0  0  0  0  0  0  0  0  0
    0.7396    1.1421    2.8669 H   0  0  0  0  0  0  0  0  0  0  0  0
    2.4928    0.9222    2.7511 H   0  0  0  0  0  0  0  0  0  0  0  0
    1.6529    2.0466    1.6714 H   0  0  0  0  0  0  0  0  0  0  0  0
   -0.7760   -1.0249   -2.5437 C   0  0  0  0  0  0  0  0  0  0  0  0
   -0.7760   -1.0249   -1.2195 C   0  0  0  0  0  0  0  0  0  0  0  0
   -0.7760    0.1745   -0.3119 C   0  0  0  0  0  3  0  0  0  0  0  0
   -1.9852    0.1155    0.6267 C   0  0  0  0  0  0  0  0  0  0  0  0
   -0.7177    1.5073   -1.0460 C   0  0  0  0  0  0  0  0  0  0  0  0
   -0.7868   -1.9528   -3.1015 H   0  0  0  0  0  0  0  0  0  0  0  0
   -0.7639   -0.1091   -3.1224 H   0  0  0  0  0  0  0  0  0  0  0  0
   -0.7907   -1.9821   -0.7024 H   0  0  0  0  0  0  0  0  0  0  0  0
    0.3020    0.0768    0.4377 H   0  0  0  0  0  0  0  0  0  0  0  0
   -2.0167   -0.8273    1.1763 H   0  0  0  0  0  0  0  0  0  0  0  0
   -2.9139    0.2039    0.0580 H   0  0  0  0  0  0  0  0  0  0  0  0
   -1.9523    0.9293    1.3536 H   0  0  0  0  0  0  0  0  0  0  0  0
   -1.6014    1.6471   -1.6737 H   0  0  0  0  0  0  0  0  0  0  0  0
    0.1652    1.5772   -1.6835 H   0  0  0  0  0  0  0  0  0  0  0  0
   -0.6836    2.3319   -0.3321 H   0  0  0  0  0  0  0  0  0  0  0  0
  1  2  2  3
  1  4  1  0
  1  5  1  0
  2  3  1  0
  2 17  1  0
  3  6  1  0
  3  7  1  0
  3  8  1  0
  9 10  2  3
  9 14  1  0
  9 15  1  0
 10 11  1  0
 10 16  1  0
 11 12  1  0
 11 13  1  0
 12 18  1  0
 12 19  1  0
 12 20  1  0
 13 21  1  0
 13 22  1  0
 13 23  1  0
M  RAD  1  11   2
M  END
>  <reaction>  (16) 
rxn_1099

>  <mol_properties>  (16) 
{"0": {"label": "*4", "atom_type": "Cd"}, "1": {"label": "*3", "atom_type": "Cd"}, "9": {"label": "*0", "atom_type": "Cd"}, "10": {"label": "*1", "atom_type": "Cs"}, "16": {"label": "*2", "atom_type": "H0"}}

>  <type>  (16) 
unop_12

>  <geom_source>  (16) 
Heuristics

$$$$

     RDKit          3D

 23 21  0  0  0  0  0  0  0  0999 V2000
   -0.1908    0.9260   -1.0427 C   0  0  0  0  0  0  0  0  0  0  0  0
   -1.5592   -1.1773   -1.3302 C   0  0  0  0  0  0  0  0  0  0  0  0
    2.2341   -1.2593    1.1108 C   0  0  0  0  0  0  0  0  0  0  0  0
   -0.9961   -0.1642   -0.3325 C   0  0  0  0  0  3  0  0  0  0  0  0
    1.4968   -0.1894    0.3686 C   0  0  0  0  0  0  0  0  0  0  0  0
   -2.0886    0.4325    0.5150 C   0  0  0  0  0  0  0  0  0  0  0  0
    2.1491    0.7718   -0.2881 C   0  0  0  0  0  0  0  0  0  0  0  0
   -1.8117    0.9927    1.6945 C   0  0  0  0  0  0  0  0  0  0  0  0
    1.5065   -1.9521    1.5821 H   0  0  0  0  0  0  0  0  0  0  0  0
    2.8764   -1.8337    0.4102 H   0  0  0  0  0  0  0  0  0  0  0  0
    2.8647   -0.8052    1.9042 H   0  0  0  0  0  0  0  0  0  0  0  0
   -0.8433    1.5125   -1.7249 H   0  0  0  0  0  0  0  0  0  0  0  0
    0.6307    0.4668   -1.6320 H   0  0  0  0  0  0  0  0  0  0  0  0
    0.2636    1.6120   -0.2971 H   0  0  0  0  0  0  0  0  0  0  0  0
   -0.7300   -1.6519   -1.8959 H   0  0  0  0  0  0  0  0  0  0  0  0
   -2.2502   -0.6820   -2.0461 H   0  0  0  0  0  0  0  0  0  0  0  0
   -2.1088   -1.9754   -0.7876 H   0  0  0  0  0  0  0  0  0  0  0  0
    0.2546   -0.1970    0.3641 H   0  0  0  0  0  0  0  0  0  0  0  0
   -3.1223    0.3870    0.1826 H   0  0  0  0  0  0  0  0  0  0  0  0
    1.5928    1.5369   -0.8190 H   0  0  0  0  0  0  0  0  0  0  0  0
    3.2346    0.8022   -0.3005 H   0  0  0  0  0  0  0  0  0  0  0  0
   -2.6111    1.4075    2.2999 H   0  0  0  0  0  0  0  0  0  0  0  0
   -0.7919    1.0396    2.0646 H   0  0  0  0  0  0  0  0  0  0  0  0
  1  4  1  0
  1 12  1  0
  1 13  1  0
  1 14  1  0
  2  4  1  0
  2 15  1  0
  2 16  1  0
  2 17  1  0
  3  5  1  0
  3  9  1  0
  3 10  1  0
  3 11  1  0
  4  6  1  0
  5  7  2  3
  5 18  1  0
  6  8  2  3
  6 19  1  0
  7 20  1  0
  7 21  1  0
  8 22  1  0
  8 23  1  0
M  RAD  1   4   2
M  END
>  <reaction>  (17) 
rxn_1099

>  <mol_properties>  (17) 
{"0": {"label": "*4", "atom_type": "Cd"}, "1": {"label": "*3", "atom_type": "Cd"}, "9": {"label": "*0", "atom_type": "Cd"}, "10": {"label": "*1", "atom_type": "Cs"}, "16": {"label": "*2", "atom_type": "H0"}}

>  <type>  (17) 
unop_13

>  <geom_source>  (17) 
AutoTST

$$$$
