
     RDKit          3D

 22 23  0  0  0  0  0  0  0  0999 V2000
   -2.1093   -0.3263    0.3079 C   0  0  0  0  0  0  0  0  0  0  0  0
   -1.3270    0.9803    0.4115 C   0  0  0  0  0  0  0  0  0  0  0  0
   -0.1818    0.8289   -0.6044 C   0  0  0  0  0  0  0  0  0  0  0  0
    1.1682    1.3904   -0.1341 C   0  0  0  0  0  0  0  0  0  0  0  0
    1.8508    0.2041    0.5479 C   0  0  0  0  0  0  0  0  0  0  0  0
    1.4982   -0.9663   -0.3710 C   0  0  0  0  0  0  0  0  0  0  0  0
    0.0340   -0.7124   -0.7594 C   0  0  0  0  0  0  0  0  0  0  0  0
   -0.9986   -1.3650    0.1756 C   0  0  0  0  0  0  0  0  0  0  0  0
   -2.7686   -0.5042    1.1589 H   0  0  0  0  0  0  0  0  0  0  0  0
   -2.7285   -0.3223   -0.5943 H   0  0  0  0  0  0  0  0  0  0  0  0
   -1.9339    1.8682    0.2289 H   0  0  0  0  0  0  0  0  0  0  0  0
   -0.9144    1.0729    1.4218 H   0  0  0  0  0  0  0  0  0  0  0  0
   -0.4804    1.2763   -1.5535 H   0  0  0  0  0  0  0  0  0  0  0  0
    1.7667    1.7058   -0.9931 H   0  0  0  0  0  0  0  0  0  0  0  0
    1.0540    2.2578    0.5189 H   0  0  0  0  0  0  0  0  0  0  0  0
    1.4197    0.0438    1.5410 H   0  0  0  0  0  0  0  0  0  0  0  0
    2.9248    0.3413    0.6788 H   0  0  0  0  0  0  0  0  0  0  0  0
    2.1362   -0.9329   -1.2584 H   0  0  0  0  0  0  0  0  0  0  0  0
    1.6421   -1.9421    0.0966 H   0  0  0  0  0  0  0  0  0  0  0  0
   -0.1575   -1.0299   -1.7854 H   0  0  0  0  0  0  0  0  0  0  0  0
   -1.3459   -2.3310   -0.1933 H   0  0  0  0  0  0  0  0  0  0  0  0
   -0.5489   -1.5373    1.1593 H   0  0  0  0  0  0  0  0  0  0  0  0
  1  2  1  0
  1  8  1  0
  1  9  1  0
  1 10  1  0
  2  3  1  0
  2 11  1  0
  2 12  1  0
  3  4  1  0
  3  7  1  0
  3 13  1  0
  4  5  1  0
  4 14  1  0
  4 15  1  0
  5  6  1  0
  5 16  1  0
  5 17  1  0
  6  7  1  0
  6 18  1  0
  6 19  1  0
  7  8  1  0
  7 20  1  0
  8 21  1  0
  8 22  1  0
M  END
>  <reaction>  (1) 
rxn_570

>  <mol_properties>  (1) 
{"2": {"label": "donator", "atom_type": "Cs"}, "12": {"label": "d_hydrogen", "atom_type": "H0"}}

>  <type>  (1) 
r1h

$$$$

     RDKit          3D

 17 17  0  0  0  0  0  0  0  0999 V2000
    2.7069    0.2860   -0.1817 C   0  0  0  0  0  0  0  0  0  0  0  0
    1.6304   -0.7245    0.0085 C   0  0  0  0  0  0  0  0  0  0  0  0
    1.4786   -1.8800   -0.7837 C   0  0  0  0  0  0  0  0  0  0  0  0
    0.4231   -2.7891   -0.5312 C   0  0  0  0  0  3  0  0  0  0  0  0
    0.2582   -3.9235   -1.2940 C   0  0  0  0  0  0  0  0  0  0  0  0
    1.1348   -4.2030   -2.3401 C   0  0  0  0  0  0  0  0  0  0  0  0
    2.1804   -3.3260   -2.6093 C   0  0  0  0  0  0  0  0  0  0  0  0
    2.3549   -2.1866   -1.8513 C   0  0  0  0  0  0  0  0  0  0  0  0
    2.6698    0.7343   -1.1808 H   0  0  0  0  0  0  0  0  0  0  0  0
    3.7029   -0.1584   -0.0766 H   0  0  0  0  0  0  0  0  0  0  0  0
    2.6250    1.0917    0.5463 H   0  0  0  0  0  0  0  0  0  0  0  0
    0.9136   -0.5677    0.8059 H   0  0  0  0  0  0  0  0  0  0  0  0
   -0.2629   -2.5783    0.2811 H   0  0  0  0  0  0  0  0  0  0  0  0
   -0.5582   -4.6017   -1.0785 H   0  0  0  0  0  0  0  0  0  0  0  0
    1.0033   -5.0952   -2.9384 H   0  0  0  0  0  0  0  0  0  0  0  0
    2.8650   -3.5382   -3.4214 H   0  0  0  0  0  0  0  0  0  0  0  0
    3.1750   -1.5169   -2.0772 H   0  0  0  0  0  0  0  0  0  0  0  0
  1  2  1  0
  1  9  1  0
  1 10  1  0
  1 11  1  0
  2  3  2  3
  2 12  1  0
  3  4  1  0
  3  8  1  0
  4  5  1  0
  4 13  1  0
  5  6  2  0
  5 14  1  0
  6  7  1  0
  6 15  1  0
  7  8  2  0
  7 16  1  0
  8 17  1  0
M  RAD  1   4   2
M  END
>  <reaction>  (2) 
rxn_570

>  <mol_properties>  (2) 
{"1": {"label": "acceptor", "atom_type": "Cs"}}

>  <type>  (2) 
r2

$$$$

     RDKit          3D

 18 18  0  0  0  0  0  0  0  0999 V2000
   -2.4852    0.3210   -0.3966 C   0  0  0  0  0  0  0  0  0  0  0  0
   -1.5917   -0.2708    0.6941 C   0  0  0  0  0  0  0  0  0  0  0  0
   -0.1292   -0.1692    0.3493 C   0  0  0  0  0  0  0  0  0  0  0  0
    0.6099    0.9558    0.7015 C   0  0  0  0  0  0  0  0  0  0  0  0
    1.9447    1.0728    0.3458 C   0  0  0  0  0  0  0  0  0  0  0  0
    2.5646    0.0613   -0.3720 C   0  0  0  0  0  0  0  0  0  0  0  0
    1.8399   -1.0657   -0.7287 C   0  0  0  0  0  0  0  0  0  0  0  0
    0.5055   -1.1769   -0.3700 C   0  0  0  0  0  0  0  0  0  0  0  0
   -2.3325   -0.1971   -1.3452 H   0  0  0  0  0  0  0  0  0  0  0  0
   -2.2554    1.3763   -0.5546 H   0  0  0  0  0  0  0  0  0  0  0  0
   -3.5397    0.2376   -0.1280 H   0  0  0  0  0  0  0  0  0  0  0  0
   -1.7801    0.2462    1.6380 H   0  0  0  0  0  0  0  0  0  0  0  0
   -1.8568   -1.3190    0.8516 H   0  0  0  0  0  0  0  0  0  0  0  0
    0.1327    1.7497    1.2656 H   0  0  0  0  0  0  0  0  0  0  0  0
    2.5033    1.9550    0.6330 H   0  0  0  0  0  0  0  0  0  0  0  0
    3.6077    0.1491   -0.6484 H   0  0  0  0  0  0  0  0  0  0  0  0
    2.3163   -1.8632   -1.2854 H   0  0  0  0  0  0  0  0  0  0  0  0
   -0.0540   -2.0629   -0.6500 H   0  0  0  0  0  0  0  0  0  0  0  0
  1  2  1  0
  1  9  1  0
  1 10  1  0
  1 11  1  0
  2  3  1  0
  2 12  1  0
  2 13  1  0
  3  4  2  0
  3  8  1  0
  4  5  1  0
  4 14  1  0
  5  6  2  0
  5 15  1  0
  6  7  1  0
  6 16  1  0
  7  8  2  0
  7 17  1  0
  8 18  1  0
M  END
>  <reaction>  (3) 
rxn_570

>  <mol_properties>  (3) 
{"1": {"label": "acceptor", "atom_type": "Cs"}, "17": {"label": "a_hydrogen", "atom_type": "H0"}}

>  <type>  (3) 
r2h

$$$$

     RDKit          3D

 39 40  0  0  0  0  0  0  0  0999 V2000
   -0.5555   -1.3750    2.6738 C   0  0  0  0  0  0  0  0  0  0  0  0
   -0.9239   -0.3519    1.6270 C   0  0  0  0  0  0  0  0  0  0  0  0
   -1.6135   -0.7918    0.4010 C   0  0  0  0  0  0  0  0  0  0  0  0
   -2.2740    0.1477   -0.3981 C   0  0  0  0  0  0  0  0  0  0  0  0
   -2.8343   -0.2059   -1.6116 C   0  0  0  0  0  0  0  0  0  0  0  0
   -2.7531   -1.5167   -2.0630 C   0  0  0  0  0  0  0  0  0  0  0  0
   -2.1163   -2.4649   -1.2773 C   0  0  0  0  0  0  0  0  0  0  0  0
   -1.5554   -2.1087   -0.0610 C   0  0  0  0  0  0  0  0  0  0  0  0
    0.1479   -2.1147    2.2845 H   0  0  0  0  0  0  0  0  0  0  0  0
   -1.4325   -1.9150    3.0429 H   0  0  0  0  0  0  0  0  0  0  0  0
   -0.0753   -0.8913    3.5251 H   0  0  0  0  0  0  0  0  0  0  0  0
   -1.3706    0.5489    2.0481 H   0  0  0  0  0  0  0  0  0  0  0  0
   -2.3383    1.1750   -0.0566 H   0  0  0  0  0  0  0  0  0  0  0  0
   -3.3369    0.5437   -2.2104 H   0  0  0  0  0  0  0  0  0  0  0  0
   -3.1878   -1.7961   -3.0141 H   0  0  0  0  0  0  0  0  0  0  0  0
   -2.0538   -3.4924   -1.6141 H   0  0  0  0  0  0  0  0  0  0  0  0
   -1.0606   -2.8664    0.5332 H   0  0  0  0  0  0  0  0  0  0  0  0
    1.3844   -0.2544   -1.6388 C   0  0  0  0  0  0  0  0  0  0  0  0
    1.8366   -0.6877   -0.2415 C   0  0  0  0  0  0  0  0  0  0  0  0
    1.4369    0.4659    0.6593 C   0  0  0  0  0  3  0  0  0  0  0  0
    2.3451    0.8944    1.7930 C   0  0  0  0  0  0  0  0  0  0  0  0
    3.0589    2.1292    1.2250 C   0  0  0  0  0  0  0  0  0  0  0  0
    1.9600    2.8358    0.4254 C   0  0  0  0  0  0  0  0  0  0  0  0
    1.1626    1.6921   -0.2219 C   0  0  0  0  0  0  0  0  0  0  0  0
    1.6167    1.2563   -1.6242 C   0  0  0  0  0  0  0  0  0  0  0  0
    1.9226   -0.7647   -2.4385 H   0  0  0  0  0  0  0  0  0  0  0  0
    0.3196   -0.4674   -1.7653 H   0  0  0  0  0  0  0  0  0  0  0  0
    1.4012   -1.6412    0.0681 H   0  0  0  0  0  0  0  0  0  0  0  0
    2.9266   -0.8140   -0.2174 H   0  0  0  0  0  0  0  0  0  0  0  0
    0.2185    0.0921    1.1940 H   0  0  0  0  0  0  0  0  0  0  0  0
    1.7575    1.1859    2.6709 H   0  0  0  0  0  0  0  0  0  0  0  0
    3.0289    0.1043    2.1080 H   0  0  0  0  0  0  0  0  0  0  0  0
    3.8618    1.8098    0.5540 H   0  0  0  0  0  0  0  0  0  0  0  0
    3.5067    2.7617    1.9928 H   0  0  0  0  0  0  0  0  0  0  0  0
    1.3195    3.4002    1.1084 H   0  0  0  0  0  0  0  0  0  0  0  0
    2.3515    3.5406   -0.3102 H   0  0  0  0  0  0  0  0  0  0  0  0
    0.0950    1.9277   -0.2541 H   0  0  0  0  0  0  0  0  0  0  0  0
    1.0891    1.7831   -2.4205 H   0  0  0  0  0  0  0  0  0  0  0  0
    2.6856    1.4649   -1.7436 H   0  0  0  0  0  0  0  0  0  0  0  0
  1  2  1  0
  1  9  1  0
  1 10  1  0
  1 11  1  0
  2  3  1  0
  2 12  1  0
  2 30  1  0
  3  4  2  0
  3  8  1  0
  4  5  1  0
  4 13  1  0
  5  6  2  0
  5 14  1  0
  6  7  1  0
  6 15  1  0
  7  8  2  0
  7 16  1  0
  8 17  1  0
 18 25  1  0
 18 19  1  0
 18 26  1  0
 18 27  1  0
 19 20  1  0
 19 28  1  0
 19 29  1  0
 20 21  1  0
 20 24  1  0
 21 22  1  0
 21 31  1  0
 21 32  1  0
 22 23  1  0
 22 33  1  0
 22 34  1  0
 23 24  1  0
 23 35  1  0
 23 36  1  0
 24 25  1  0
 24 37  1  0
 25 38  1  0
 25 39  1  0
M  RAD  1  20   2
M  END
>  <reaction>  (4) 
rxn_570

>  <mol_properties>  (4) 
{"1": {"label": "*1", "atom_type": "Cs"}, "2": {"label": "*0", "atom_type": "Cd"}, "19": {"label": "*3", "atom_type": "Cs"}, "23": {"label": "*4", "atom_type": "Cs"}, "29": {"label": "*2", "atom_type": "H0"}}

>  <type>  (4) 
ts

$$$$

     RDKit          3D

 39 40  0  0  0  0  0  0  0  0999 V2000
   -1.3954    0.2696    2.2543 C   0  0  0  0  0  0  0  0  0  0  0  0
   -0.9582   -0.0178    0.8175 C   0  0  0  0  0  0  0  0  0  0  0  0
   -1.7482   -1.1389    0.1953 C   0  0  0  0  0  0  0  0  0  0  0  0
   -2.9369   -0.8837   -0.4811 C   0  0  0  0  0  3  0  0  0  0  0  0
   -3.6901   -1.9177   -1.0154 C   0  0  0  0  0  0  0  0  0  0  0  0
   -3.2642   -3.2304   -0.8806 C   0  0  0  0  0  0  0  0  0  0  0  0
   -2.0808   -3.4988   -0.2095 C   0  0  0  0  0  0  0  0  0  0  0  0
   -1.3320   -2.4605    0.3226 C   0  0  0  0  0  0  0  0  0  0  0  0
   -1.2660   -0.6140    2.8821 H   0  0  0  0  0  0  0  0  0  0  0  0
   -2.4500    0.5493    2.2891 H   0  0  0  0  0  0  0  0  0  0  0  0
   -0.8116    1.0841    2.6866 H   0  0  0  0  0  0  0  0  0  0  0  0
   -1.0731    0.8866    0.2152 H   0  0  0  0  0  0  0  0  0  0  0  0
   -3.2749    0.1407   -0.5933 H   0  0  0  0  0  0  0  0  0  0  0  0
   -4.6106   -1.6974   -1.5416 H   0  0  0  0  0  0  0  0  0  0  0  0
   -3.8492   -4.0393   -1.2995 H   0  0  0  0  0  0  0  0  0  0  0  0
   -1.7374   -4.5203   -0.1028 H   0  0  0  0  0  0  0  0  0  0  0  0
   -0.4060   -2.6780    0.8434 H   0  0  0  0  0  0  0  0  0  0  0  0
    2.3970   -0.1591   -1.4950 C   0  0  0  0  0  0  0  0  0  0  0  0
    2.3970   -0.1591    0.0315 C   0  0  0  0  0  0  0  0  0  0  0  0
    1.4337    0.9756    0.4198 C   0  0  0  0  0  0  0  0  0  0  0  0
    1.8865    1.8142    1.6243 C   0  0  0  0  0  0  0  0  0  0  0  0
    2.6984    2.9524    1.0049 C   0  0  0  0  0  0  0  0  0  0  0  0
    1.8865    3.3120   -0.2400 C   0  0  0  0  0  0  0  0  0  0  0  0
    1.4337    1.9552   -0.7994 C   0  0  0  0  0  0  0  0  0  0  0  0
    2.3970    1.3315   -1.8238 C   0  0  0  0  0  0  0  0  0  0  0  0
    3.2419   -0.6973   -1.9273 H   0  0  0  0  0  0  0  0  0  0  0  0
    1.4812   -0.6259   -1.8700 H   0  0  0  0  0  0  0  0  0  0  0  0
    2.1127   -1.1175    0.4681 H   0  0  0  0  0  0  0  0  0  0  0  0
    3.4052    0.0735    0.3908 H   0  0  0  0  0  0  0  0  0  0  0  0
    0.2386    0.4793    0.6185 H   0  0  0  0  0  0  0  0  0  0  0  0
    1.0186    2.2310    2.1427 H   0  0  0  0  0  0  0  0  0  0  0  0
    2.4495    1.2275    2.3526 H   0  0  0  0  0  0  0  0  0  0  0  0
    3.6896    2.5906    0.7142 H   0  0  0  0  0  0  0  0  0  0  0  0
    2.8464    3.7947    1.6817 H   0  0  0  0  0  0  0  0  0  0  0  0
    1.0186    3.9081    0.0553 H   0  0  0  0  0  0  0  0  0  0  0  0
    2.4495    3.8968   -0.9698 H   0  0  0  0  0  0  0  0  0  0  0  0
    0.4378    2.0278   -1.2390 H   0  0  0  0  0  0  0  0  0  0  0  0
    2.1127    1.5514   -2.8537 H   0  0  0  0  0  0  0  0  0  0  0  0
    3.4052    1.7324   -1.6741 H   0  0  0  0  0  0  0  0  0  0  0  0
  1  2  1  0
  1  9  1  0
  1 10  1  0
  1 11  1  0
  2  3  2  3
  2 12  1  0
  3  4  1  0
  3  8  1  0
  4  5  1  0
  4 13  1  0
  5  6  2  0
  5 14  1  0
  6  7  1  0
  6 15  1  0
  7  8  2  0
  7 16  1  0
  8 17  1  0
 18 19  1  0
 18 25  1  0
 18 26  1  0
 18 27  1  0
 19 20  1  0
 19 28  1  0
 19 29  1  0
 20 21  1  0
 20 24  1  0
 20 30  1  0
 21 22  1  0
 21 31  1  0
 21 32  1  0
 22 23  1  0
 22 33  1  0
 22 34  1  0
 23 24  1  0
 23 35  1  0
 23 36  1  0
 24 25  1  0
 24 37  1  0
 25 38  1  0
 25 39  1  0
M  RAD  1   4   2
M  END
>  <reaction>  (5) 
rxn_570

>  <mol_properties>  (5) 
{"1": {"label": "*1", "atom_type": "Cs"}, "2": {"label": "*0", "atom_type": "Cd"}, "19": {"label": "*3", "atom_type": "Cs"}, "23": {"label": "*4", "atom_type": "Cs"}, "29": {"label": "*2", "atom_type": "H0"}}

>  <type>  (5) 
unop_1

>  <geom_source>  (5) 
Heuristics

$$$$

     RDKit          3D

 39 40  0  0  0  0  0  0  0  0999 V2000
   -0.6455   -2.2098    1.6529 C   0  0  0  0  0  0  0  0  0  0  0  0
   -0.7699   -0.7719    1.1478 C   0  0  0  0  0  0  0  0  0  0  0  0
   -1.8952   -0.6108    0.1599 C   0  0  0  0  0  0  0  0  0  0  0  0
   -3.1833   -0.3079    0.5896 C   0  0  0  0  0  3  0  0  0  0  0  0
   -4.2307   -0.2040   -0.3126 C   0  0  0  0  0  0  0  0  0  0  0  0
   -4.0052   -0.4029   -1.6663 C   0  0  0  0  0  0  0  0  0  0  0  0
   -2.7260   -0.7047   -2.1082 C   0  0  0  0  0  0  0  0  0  0  0  0
   -1.6827   -0.8071   -1.2011 C   0  0  0  0  0  0  0  0  0  0  0  0
   -0.4590   -2.8960    0.8247 H   0  0  0  0  0  0  0  0  0  0  0  0
   -1.5661   -2.5277    2.1458 H   0  0  0  0  0  0  0  0  0  0  0  0
    0.1746   -2.3053    2.3667 H   0  0  0  0  0  0  0  0  0  0  0  0
   -0.9309   -0.1018    1.9956 H   0  0  0  0  0  0  0  0  0  0  0  0
   -3.3669   -0.1478    1.6465 H   0  0  0  0  0  0  0  0  0  0  0  0
   -5.2253    0.0364    0.0420 H   0  0  0  0  0  0  0  0  0  0  0  0
   -4.8209   -0.3195   -2.3731 H   0  0  0  0  0  0  0  0  0  0  0  0
   -2.5388   -0.8574   -3.1639 H   0  0  0  0  0  0  0  0  0  0  0  0
   -0.6843   -1.0404   -1.5547 H   0  0  0  0  0  0  0  0  0  0  0  0
    2.5853   -0.9133   -1.1647 C   0  0  0  0  0  0  0  0  0  0  0  0
    2.5853   -0.9133    0.3618 C   0  0  0  0  0  0  0  0  0  0  0  0
    1.6220    0.2215    0.7501 C   0  0  0  0  0  0  0  0  0  0  0  0
    2.0747    1.0600    1.9546 C   0  0  0  0  0  0  0  0  0  0  0  0
    2.8867    2.1982    1.3352 C   0  0  0  0  0  0  0  0  0  0  0  0
    2.0747    2.5578    0.0903 C   0  0  0  0  0  0  0  0  0  0  0  0
    1.6220    1.2010   -0.4691 C   0  0  0  0  0  0  0  0  0  0  0  0
    2.5853    0.5773   -1.4935 C   0  0  0  0  0  0  0  0  0  0  0  0
    3.4302   -1.4515   -1.5970 H   0  0  0  0  0  0  0  0  0  0  0  0
    1.6695   -1.3801   -1.5397 H   0  0  0  0  0  0  0  0  0  0  0  0
    2.3010   -1.8716    0.7984 H   0  0  0  0  0  0  0  0  0  0  0  0
    3.5935   -0.6807    0.7211 H   0  0  0  0  0  0  0  0  0  0  0  0
    0.4269   -0.2749    0.9488 H   0  0  0  0  0  0  0  0  0  0  0  0
    1.2069    1.4769    2.4730 H   0  0  0  0  0  0  0  0  0  0  0  0
    2.6378    0.4733    2.6829 H   0  0  0  0  0  0  0  0  0  0  0  0
    3.8778    1.8364    1.0445 H   0  0  0  0  0  0  0  0  0  0  0  0
    3.0346    3.0406    2.0120 H   0  0  0  0  0  0  0  0  0  0  0  0
    1.2069    3.1539    0.3856 H   0  0  0  0  0  0  0  0  0  0  0  0
    2.6378    3.1426   -0.6395 H   0  0  0  0  0  0  0  0  0  0  0  0
    0.6261    1.2736   -0.9086 H   0  0  0  0  0  0  0  0  0  0  0  0
    2.3010    0.7972   -2.5234 H   0  0  0  0  0  0  0  0  0  0  0  0
    3.5935    0.9783   -1.3438 H   0  0  0  0  0  0  0  0  0  0  0  0
  1  2  1  0
  1  9  1  0
  1 10  1  0
  1 11  1  0
  2  3  2  3
  2 12  1  0
  3  4  1  0
  3  8  1  0
  4  5  1  0
  4 13  1  0
  5  6  2  0
  5 14  1  0
  6  7  1  0
  6 15  1  0
  7  8  2  0
  7 16  1  0
  8 17  1  0
 18 19  1  0
 18 25  1  0
 18 26  1  0
 18 27  1  0
 19 20  1  0
 19 28  1  0
 19 29  1  0
 20 21  1  0
 20 24  1  0
 20 30  1  0
 21 22  1  0
 21 31  1  0
 21 32  1  0
 22 23  1  0
 22 33  1  0
 22 34  1  0
 23 24  1  0
 23 35  1  0
 23 36  1  0
 24 25  1  0
 24 37  1  0
 25 38  1  0
 25 39  1  0
M  RAD  1   4   2
M  END
>  <reaction>  (6) 
rxn_570

>  <mol_properties>  (6) 
{"1": {"label": "*1", "atom_type": "Cs"}, "2": {"label": "*0", "atom_type": "Cd"}, "19": {"label": "*3", "atom_type": "Cs"}, "23": {"label": "*4", "atom_type": "Cs"}, "29": {"label": "*2", "atom_type": "H0"}}

>  <type>  (6) 
unop_2

>  <geom_source>  (6) 
Heuristics

$$$$

     RDKit          3D

 39 40  0  0  0  0  0  0  0  0999 V2000
   -1.9215    1.0092    1.4325 C   0  0  0  0  0  0  0  0  0  0  0  0
   -1.1865    0.1636    0.3919 C   0  0  0  0  0  0  0  0  0  0  0  0
   -1.6156   -1.2797    0.4250 C   0  0  0  0  0  0  0  0  0  0  0  0
   -2.6908   -1.7216   -0.3394 C   0  0  0  0  0  3  0  0  0  0  0  0
   -3.1173   -3.0391   -0.2766 C   0  0  0  0  0  0  0  0  0  0  0  0
   -2.4719   -3.9404    0.5563 C   0  0  0  0  0  0  0  0  0  0  0  0
   -1.3982   -3.5135    1.3229 C   0  0  0  0  0  0  0  0  0  0  0  0
   -0.9764   -2.1946    1.2558 C   0  0  0  0  0  0  0  0  0  0  0  0
   -1.7346    0.6318    2.4396 H   0  0  0  0  0  0  0  0  0  0  0  0
   -2.9994    0.9808    1.2627 H   0  0  0  0  0  0  0  0  0  0  0  0
   -1.5968    2.0504    1.3922 H   0  0  0  0  0  0  0  0  0  0  0  0
   -1.3681    0.5747   -0.6040 H   0  0  0  0  0  0  0  0  0  0  0  0
   -3.1987   -1.0232   -0.9956 H   0  0  0  0  0  0  0  0  0  0  0  0
   -3.9540   -3.3639   -0.8827 H   0  0  0  0  0  0  0  0  0  0  0  0
   -2.8012   -4.9705    0.6048 H   0  0  0  0  0  0  0  0  0  0  0  0
   -0.8847   -4.2108    1.9732 H   0  0  0  0  0  0  0  0  0  0  0  0
   -0.1339   -1.8688    1.8561 H   0  0  0  0  0  0  0  0  0  0  0  0
    2.1687    0.0223   -1.9206 C   0  0  0  0  0  0  0  0  0  0  0  0
    2.1687    0.0223   -0.3941 C   0  0  0  0  0  0  0  0  0  0  0  0
    1.2053    1.1570   -0.0058 C   0  0  0  0  0  0  0  0  0  0  0  0
    1.6581    1.9956    1.1987 C   0  0  0  0  0  0  0  0  0  0  0  0
    2.4701    3.1338    0.5793 C   0  0  0  0  0  0  0  0  0  0  0  0
    1.6581    3.4934   -0.6656 C   0  0  0  0  0  0  0  0  0  0  0  0
    1.2053    2.1366   -1.2250 C   0  0  0  0  0  0  0  0  0  0  0  0
    2.1687    1.5128   -2.2494 C   0  0  0  0  0  0  0  0  0  0  0  0
    3.0135   -0.5159   -2.3530 H   0  0  0  0  0  0  0  0  0  0  0  0
    1.2529   -0.4446   -2.2956 H   0  0  0  0  0  0  0  0  0  0  0  0
    1.8844   -0.9361    0.0425 H   0  0  0  0  0  0  0  0  0  0  0  0
    3.1768    0.2548   -0.0348 H   0  0  0  0  0  0  0  0  0  0  0  0
    0.0103    0.6607    0.1929 H   0  0  0  0  0  0  0  0  0  0  0  0
    0.7903    2.4124    1.7171 H   0  0  0  0  0  0  0  0  0  0  0  0
    2.2212    1.4088    1.9269 H   0  0  0  0  0  0  0  0  0  0  0  0
    3.4612    2.7719    0.2886 H   0  0  0  0  0  0  0  0  0  0  0  0
    2.6180    3.9761    1.2560 H   0  0  0  0  0  0  0  0  0  0  0  0
    0.7903    4.0894   -0.3703 H   0  0  0  0  0  0  0  0  0  0  0  0
    2.2212    4.0781   -1.3955 H   0  0  0  0  0  0  0  0  0  0  0  0
    0.2095    2.2091   -1.6646 H   0  0  0  0  0  0  0  0  0  0  0  0
    1.8844    1.7327   -3.2793 H   0  0  0  0  0  0  0  0  0  0  0  0
    3.1768    1.9138   -2.0997 H   0  0  0  0  0  0  0  0  0  0  0  0
  1  2  1  0
  1  9  1  0
  1 10  1  0
  1 11  1  0
  2  3  2  3
  2 12  1  0
  3  4  1  0
  3  8  1  0
  4  5  1  0
  4 13  1  0
  5  6  2  0
  5 14  1  0
  6  7  1  0
  6 15  1  0
  7  8  2  0
  7 16  1  0
  8 17  1  0
 18 19  1  0
 18 25  1  0
 18 26  1  0
 18 27  1  0
 19 20  1  0
 19 28  1  0
 19 29  1  0
 20 21  1  0
 20 24  1  0
 20 30  1  0
 21 22  1  0
 21 31  1  0
 21 32  1  0
 22 23  1  0
 22 33  1  0
 22 34  1  0
 23 24  1  0
 23 35  1  0
 23 36  1  0
 24 25  1  0
 24 37  1  0
 25 38  1  0
 25 39  1  0
M  RAD  1   4   2
M  END
>  <reaction>  (7) 
rxn_570

>  <mol_properties>  (7) 
{"1": {"label": "*1", "atom_type": "Cs"}, "2": {"label": "*0", "atom_type": "Cd"}, "19": {"label": "*3", "atom_type": "Cs"}, "23": {"label": "*4", "atom_type": "Cs"}, "29": {"label": "*2", "atom_type": "H0"}}

>  <type>  (7) 
unop_3

>  <geom_source>  (7) 
Heuristics

$$$$

     RDKit          3D

 39 40  0  0  0  0  0  0  0  0999 V2000
   -1.7268   -2.4147   -0.7227 C   0  0  0  0  0  0  0  0  0  0  0  0
   -1.2362   -1.7420    0.5599 C   0  0  0  0  0  0  0  0  0  0  0  0
   -1.6228   -0.2878    0.6239 C   0  0  0  0  0  0  0  0  0  0  0  0
   -2.8373    0.1033    1.1787 C   0  0  0  0  0  3  0  0  0  0  0  0
   -3.2166    1.4365    1.1979 C   0  0  0  0  0  0  0  0  0  0  0  0
   -2.3829    2.4049    0.6595 C   0  0  0  0  0  0  0  0  0  0  0  0
   -1.1693    2.0289    0.1041 C   0  0  0  0  0  0  0  0  0  0  0  0
   -0.7955    0.6940    0.0879 C   0  0  0  0  0  0  0  0  0  0  0  0
   -1.3080   -1.9223   -1.6023 H   0  0  0  0  0  0  0  0  0  0  0  0
   -2.8144   -2.3582   -0.7975 H   0  0  0  0  0  0  0  0  0  0  0  0
   -1.4369   -3.4665   -0.7496 H   0  0  0  0  0  0  0  0  0  0  0  0
   -1.6478   -2.2667    1.4254 H   0  0  0  0  0  0  0  0  0  0  0  0
   -3.4933   -0.6481    1.6046 H   0  0  0  0  0  0  0  0  0  0  0  0
   -4.1645    1.7206    1.6380 H   0  0  0  0  0  0  0  0  0  0  0  0
   -2.6757    3.4470    0.6759 H   0  0  0  0  0  0  0  0  0  0  0  0
   -0.5092    2.7782   -0.3149 H   0  0  0  0  0  0  0  0  0  0  0  0
    0.1567    0.4080   -0.3454 H   0  0  0  0  0  0  0  0  0  0  0  0
    2.1190   -1.8834   -1.7525 C   0  0  0  0  0  0  0  0  0  0  0  0
    2.1190   -1.8834   -0.2261 C   0  0  0  0  0  0  0  0  0  0  0  0
    1.1556   -0.7486    0.1623 C   0  0  0  0  0  0  0  0  0  0  0  0
    1.6084    0.0899    1.3667 C   0  0  0  0  0  0  0  0  0  0  0  0
    2.4204    1.2281    0.7473 C   0  0  0  0  0  0  0  0  0  0  0  0
    1.6084    1.5877   -0.4976 C   0  0  0  0  0  0  0  0  0  0  0  0
    1.1556    0.2309   -1.0569 C   0  0  0  0  0  0  0  0  0  0  0  0
    2.1190   -0.3928   -2.0814 C   0  0  0  0  0  0  0  0  0  0  0  0
    2.9638   -2.4216   -2.1849 H   0  0  0  0  0  0  0  0  0  0  0  0
    1.2031   -2.3502   -2.1276 H   0  0  0  0  0  0  0  0  0  0  0  0
    1.8347   -2.8417    0.2105 H   0  0  0  0  0  0  0  0  0  0  0  0
    3.1271   -1.6508    0.1332 H   0  0  0  0  0  0  0  0  0  0  0  0
   -0.0394   -1.2450    0.3609 H   0  0  0  0  0  0  0  0  0  0  0  0
    0.7406    0.5067    1.8851 H   0  0  0  0  0  0  0  0  0  0  0  0
    2.1715   -0.4968    2.0950 H   0  0  0  0  0  0  0  0  0  0  0  0
    3.4115    0.8663    0.4566 H   0  0  0  0  0  0  0  0  0  0  0  0
    2.5683    2.0704    1.4241 H   0  0  0  0  0  0  0  0  0  0  0  0
    0.7406    2.1838   -0.2022 H   0  0  0  0  0  0  0  0  0  0  0  0
    2.1715    2.1725   -1.2274 H   0  0  0  0  0  0  0  0  0  0  0  0
    0.1598    0.3035   -1.4965 H   0  0  0  0  0  0  0  0  0  0  0  0
    1.8347   -0.1729   -3.1113 H   0  0  0  0  0  0  0  0  0  0  0  0
    3.1271    0.0082   -1.9317 H   0  0  0  0  0  0  0  0  0  0  0  0
  1  2  1  0
  1  9  1  0
  1 10  1  0
  1 11  1  0
  2  3  2  3
  2 12  1  0
  3  4  1  0
  3  8  1  0
  4  5  1  0
  4 13  1  0
  5  6  2  0
  5 14  1  0
  6  7  1  0
  6 15  1  0
  7  8  2  0
  7 16  1  0
  8 17  1  0
 18 19  1  0
 18 25  1  0
 18 26  1  0
 18 27  1  0
 19 20  1  0
 19 28  1  0
 19 29  1  0
 20 21  1  0
 20 24  1  0
 20 30  1  0
 21 22  1  0
 21 31  1  0
 21 32  1  0
 22 23  1  0
 22 33  1  0
 22 34  1  0
 23 24  1  0
 23 35  1  0
 23 36  1  0
 24 25  1  0
 24 37  1  0
 25 38  1  0
 25 39  1  0
M  RAD  1   4   2
M  END
>  <reaction>  (8) 
rxn_570

>  <mol_properties>  (8) 
{"1": {"label": "*1", "atom_type": "Cs"}, "2": {"label": "*0", "atom_type": "Cd"}, "19": {"label": "*3", "atom_type": "Cs"}, "23": {"label": "*4", "atom_type": "Cs"}, "29": {"label": "*2", "atom_type": "H0"}}

>  <type>  (8) 
unop_4

>  <geom_source>  (8) 
Heuristics

$$$$

     RDKit          3D

 39 40  0  0  0  0  0  0  0  0999 V2000
   -2.4789    1.0095    0.1156 C   0  0  0  0  0  0  0  0  0  0  0  0
   -1.5188   -0.1162   -0.2706 C   0  0  0  0  0  0  0  0  0  0  0  0
   -1.4476   -1.1904    0.7827 C   0  0  0  0  0  0  0  0  0  0  0  0
   -2.3262   -2.2690    0.7616 C   0  0  0  0  0  3  0  0  0  0  0  0
   -2.2936   -3.2353    1.7551 C   0  0  0  0  0  0  0  0  0  0  0  0
   -1.3771   -3.1376    2.7910 C   0  0  0  0  0  0  0  0  0  0  0  0
   -0.4951   -2.0681    2.8236 C   0  0  0  0  0  0  0  0  0  0  0  0
   -0.5326   -1.1049    1.8273 C   0  0  0  0  0  0  0  0  0  0  0  0
   -2.1659    1.4817    1.0487 H   0  0  0  0  0  0  0  0  0  0  0  0
   -3.4892    0.6229    0.2625 H   0  0  0  0  0  0  0  0  0  0  0  0
   -2.5162    1.7767   -0.6597 H   0  0  0  0  0  0  0  0  0  0  0  0
   -1.8378   -0.5563   -1.2185 H   0  0  0  0  0  0  0  0  0  0  0  0
   -3.0438   -2.3539   -0.0471 H   0  0  0  0  0  0  0  0  0  0  0  0
   -2.9837   -4.0692    1.7182 H   0  0  0  0  0  0  0  0  0  0  0  0
   -1.3477   -3.8926    3.5663 H   0  0  0  0  0  0  0  0  0  0  0  0
    0.2275   -1.9852    3.6261 H   0  0  0  0  0  0  0  0  0  0  0  0
    0.1626   -0.2730    1.8579 H   0  0  0  0  0  0  0  0  0  0  0  0
    1.8364   -0.2576   -2.5831 C   0  0  0  0  0  0  0  0  0  0  0  0
    1.8364   -0.2576   -1.0566 C   0  0  0  0  0  0  0  0  0  0  0  0
    0.8730    0.8772   -0.6683 C   0  0  0  0  0  0  0  0  0  0  0  0
    1.3258    1.7157    0.5362 C   0  0  0  0  0  0  0  0  0  0  0  0
    2.1378    2.8539   -0.0832 C   0  0  0  0  0  0  0  0  0  0  0  0
    1.3258    3.2135   -1.3281 C   0  0  0  0  0  0  0  0  0  0  0  0
    0.8730    1.8567   -1.8875 C   0  0  0  0  0  0  0  0  0  0  0  0
    1.8364    1.2330   -2.9119 C   0  0  0  0  0  0  0  0  0  0  0  0
    2.6812   -0.7958   -3.0155 H   0  0  0  0  0  0  0  0  0  0  0  0
    0.9205   -0.7244   -2.9581 H   0  0  0  0  0  0  0  0  0  0  0  0
    1.5521   -1.2159   -0.6200 H   0  0  0  0  0  0  0  0  0  0  0  0
    2.8445   -0.0250   -0.6973 H   0  0  0  0  0  0  0  0  0  0  0  0
   -0.3220    0.3808   -0.4696 H   0  0  0  0  0  0  0  0  0  0  0  0
    0.4580    2.1325    1.0546 H   0  0  0  0  0  0  0  0  0  0  0  0
    1.8889    1.1290    1.2644 H   0  0  0  0  0  0  0  0  0  0  0  0
    3.1289    2.4921   -0.3739 H   0  0  0  0  0  0  0  0  0  0  0  0
    2.2857    3.6962    0.5935 H   0  0  0  0  0  0  0  0  0  0  0  0
    0.4580    3.8096   -1.0328 H   0  0  0  0  0  0  0  0  0  0  0  0
    1.8889    3.7983   -2.0579 H   0  0  0  0  0  0  0  0  0  0  0  0
   -0.1229    1.9293   -2.3271 H   0  0  0  0  0  0  0  0  0  0  0  0
    1.5521    1.4529   -3.9418 H   0  0  0  0  0  0  0  0  0  0  0  0
    2.8445    1.6340   -2.7622 H   0  0  0  0  0  0  0  0  0  0  0  0
  1  2  1  0
  1  9  1  0
  1 10  1  0
  1 11  1  0
  2  3  2  3
  2 12  1  0
  3  4  1  0
  3  8  1  0
  4  5  1  0
  4 13  1  0
  5  6  2  0
  5 14  1  0
  6  7  1  0
  6 15  1  0
  7  8  2  0
  7 16  1  0
  8 17  1  0
 18 19  1  0
 18 25  1  0
 18 26  1  0
 18 27  1  0
 19 20  1  0
 19 28  1  0
 19 29  1  0
 20 21  1  0
 20 24  1  0
 20 30  1  0
 21 22  1  0
 21 31  1  0
 21 32  1  0
 22 23  1  0
 22 33  1  0
 22 34  1  0
 23 24  1  0
 23 35  1  0
 23 36  1  0
 24 25  1  0
 24 37  1  0
 25 38  1  0
 25 39  1  0
M  RAD  1   4   2
M  END
>  <reaction>  (9) 
rxn_570

>  <mol_properties>  (9) 
{"1": {"label": "*1", "atom_type": "Cs"}, "2": {"label": "*0", "atom_type": "Cd"}, "19": {"label": "*3", "atom_type": "Cs"}, "23": {"label": "*4", "atom_type": "Cs"}, "29": {"label": "*2", "atom_type": "H0"}}

>  <type>  (9) 
unop_5

>  <geom_source>  (9) 
Heuristics

$$$$

     RDKit          3D

 39 40  0  0  0  0  0  0  0  0999 V2000
   -2.2321   -1.6982   -1.2016 C   0  0  0  0  0  0  0  0  0  0  0  0
   -1.4509   -1.7124    0.1128 C   0  0  0  0  0  0  0  0  0  0  0  0
   -1.4973   -0.3820    0.8172 C   0  0  0  0  0  0  0  0  0  0  0  0
   -2.5179   -0.0859    1.7152 C   0  0  0  0  0  3  0  0  0  0  0  0
   -2.5894    1.1543    2.3306 C   0  0  0  0  0  0  0  0  0  0  0  0
   -1.6363    2.1232    2.0559 C   0  0  0  0  0  0  0  0  0  0  0  0
   -0.6132    1.8410    1.1635 C   0  0  0  0  0  0  0  0  0  0  0  0
   -0.5471    0.5989    0.5513 C   0  0  0  0  0  0  0  0  0  0  0  0
   -1.8273   -0.9485   -1.8841 H   0  0  0  0  0  0  0  0  0  0  0  0
   -3.2813   -1.4538   -1.0254 H   0  0  0  0  0  0  0  0  0  0  0  0
   -2.1862   -2.6702   -1.6958 H   0  0  0  0  0  0  0  0  0  0  0  0
   -1.8576   -2.4860    0.7686 H   0  0  0  0  0  0  0  0  0  0  0  0
   -3.2653   -0.8398    1.9374 H   0  0  0  0  0  0  0  0  0  0  0  0
   -3.3898    1.3634    3.0295 H   0  0  0  0  0  0  0  0  0  0  0  0
   -1.6883    3.0914    2.5375 H   0  0  0  0  0  0  0  0  0  0  0  0
    0.1386    2.5895    0.9458 H   0  0  0  0  0  0  0  0  0  0  0  0
    0.2579    0.3845   -0.1431 H   0  0  0  0  0  0  0  0  0  0  0  0
    1.9043   -1.8538   -2.1996 C   0  0  0  0  0  0  0  0  0  0  0  0
    1.9043   -1.8538   -0.6732 C   0  0  0  0  0  0  0  0  0  0  0  0
    0.9409   -0.7190   -0.2848 C   0  0  0  0  0  0  0  0  0  0  0  0
    1.3937    0.1195    0.9196 C   0  0  0  0  0  0  0  0  0  0  0  0
    2.2057    1.2577    0.3003 C   0  0  0  0  0  0  0  0  0  0  0  0
    1.3937    1.6174   -0.9446 C   0  0  0  0  0  0  0  0  0  0  0  0
    0.9409    0.2605   -1.5040 C   0  0  0  0  0  0  0  0  0  0  0  0
    1.9043   -0.3632   -2.5284 C   0  0  0  0  0  0  0  0  0  0  0  0
    2.7491   -2.3920   -2.6320 H   0  0  0  0  0  0  0  0  0  0  0  0
    0.9884   -2.3206   -2.5747 H   0  0  0  0  0  0  0  0  0  0  0  0
    1.6200   -2.8121   -0.2366 H   0  0  0  0  0  0  0  0  0  0  0  0
    2.9124   -1.6212   -0.3139 H   0  0  0  0  0  0  0  0  0  0  0  0
   -0.2541   -1.2154   -0.0861 H   0  0  0  0  0  0  0  0  0  0  0  0
    0.5259    0.5364    1.4381 H   0  0  0  0  0  0  0  0  0  0  0  0
    1.9568   -0.4672    1.6479 H   0  0  0  0  0  0  0  0  0  0  0  0
    3.1968    0.8959    0.0096 H   0  0  0  0  0  0  0  0  0  0  0  0
    2.3536    2.1001    0.9770 H   0  0  0  0  0  0  0  0  0  0  0  0
    0.5259    2.2134   -0.6493 H   0  0  0  0  0  0  0  0  0  0  0  0
    1.9568    2.2021   -1.6745 H   0  0  0  0  0  0  0  0  0  0  0  0
   -0.0549    0.3331   -1.9436 H   0  0  0  0  0  0  0  0  0  0  0  0
    1.6200   -0.1433   -3.5584 H   0  0  0  0  0  0  0  0  0  0  0  0
    2.9124    0.0378   -2.3787 H   0  0  0  0  0  0  0  0  0  0  0  0
  1  2  1  0
  1  9  1  0
  1 10  1  0
  1 11  1  0
  2  3  2  3
  2 12  1  0
  3  4  1  0
  3  8  1  0
  4  5  1  0
  4 13  1  0
  5  6  2  0
  5 14  1  0
  6  7  1  0
  6 15  1  0
  7  8  2  0
  7 16  1  0
  8 17  1  0
 18 19  1  0
 18 25  1  0
 18 26  1  0
 18 27  1  0
 19 20  1  0
 19 28  1  0
 19 29  1  0
 20 21  1  0
 20 24  1  0
 20 30  1  0
 21 22  1  0
 21 31  1  0
 21 32  1  0
 22 23  1  0
 22 33  1  0
 22 34  1  0
 23 24  1  0
 23 35  1  0
 23 36  1  0
 24 25  1  0
 24 37  1  0
 25 38  1  0
 25 39  1  0
M  RAD  1   4   2
M  END
>  <reaction>  (10) 
rxn_570

>  <mol_properties>  (10) 
{"1": {"label": "*1", "atom_type": "Cs"}, "2": {"label": "*0", "atom_type": "Cd"}, "19": {"label": "*3", "atom_type": "Cs"}, "23": {"label": "*4", "atom_type": "Cs"}, "29": {"label": "*2", "atom_type": "H0"}}

>  <type>  (10) 
unop_6

>  <geom_source>  (10) 
Heuristics

$$$$

     RDKit          3D

 39 37  0  0  0  0  0  0  0  0999 V2000
   -2.6204   -0.7832   -1.2501 C   0  0  0  0  0  0  0  0  0  0  0  0
   -1.6337   -1.4289   -0.2767 C   0  0  0  0  0  3  0  0  0  0  0  0
   -1.3957   -0.5765    0.9419 C   0  0  0  0  0  0  0  0  0  0  0  0
   -2.2036   -0.7007    2.0677 C   0  0  0  0  0  0  0  0  0  0  0  0
   -2.0165    0.1138    3.1738 C   0  0  0  0  0  0  0  0  0  0  0  0
   -1.0130    1.0708    3.1713 C   0  0  0  0  0  3  0  0  0  0  0  0
   -0.2000    1.2046    2.0560 C   0  0  0  0  0  1  0  0  0  0  0  0
   -0.3921    0.3871    0.9530 C   0  0  0  0  0  2  0  0  0  0  0  0
   -2.2496    0.1851   -1.5913 H   0  0  0  0  0  0  0  0  0  0  0  0
   -3.5861   -0.6174   -0.7689 H   0  0  0  0  0  0  0  0  0  0  0  0
   -2.7790   -1.4158   -2.1252 H   0  0  0  0  0  0  0  0  0  0  0  0
   -2.0138   -2.4060    0.0309 H   0  0  0  0  0  0  0  0  0  0  0  0
   -2.9886   -1.4491    2.0784 H   0  0  0  0  0  0  0  0  0  0  0  0
   -2.6539   -0.0016    4.0417 H   0  0  0  0  0  0  0  0  0  0  0  0
   -0.8630    1.7060    4.0350 H   0  0  0  0  0  0  0  0  0  0  0  0
    0.5893    1.9460    2.0460 H   0  0  0  0  0  0  0  0  0  0  0  0
    0.2498    0.4956    0.0856 H   0  0  0  0  0  0  0  0  0  0  0  0
    1.7216   -1.5703   -2.5891 C   0  0  0  0  0  0  0  0  0  0  0  0
    1.7216   -1.5703   -1.0627 C   0  0  0  0  0  0  0  0  0  0  0  0
    0.7582   -0.4355   -0.6743 C   0  0  0  0  0  3  0  0  0  0  0  0
    1.2110    0.4030    0.5301 C   0  0  0  0  0  3  0  0  0  0  0  0
    2.0230    1.5412   -0.0893 C   0  0  0  0  0  0  0  0  0  0  0  0
    1.2110    1.9009   -1.3342 C   0  0  0  0  0  0  0  0  0  0  0  0
    0.7582    0.5440   -1.8936 C   0  0  0  0  0  0  0  0  0  0  0  0
    1.7216   -0.0797   -2.9180 C   0  0  0  0  0  0  0  0  0  0  0  0
    2.5664   -2.1085   -3.0215 H   0  0  0  0  0  0  0  0  0  0  0  0
    0.8057   -2.0371   -2.9642 H   0  0  0  0  0  0  0  0  0  0  0  0
    1.4372   -2.5286   -0.6261 H   0  0  0  0  0  0  0  0  0  0  0  0
    2.7297   -1.3377   -0.7034 H   0  0  0  0  0  0  0  0  0  0  0  0
   -0.4368   -0.9319   -0.4757 H   0  0  0  0  0  0  0  0  0  0  0  0
    0.3431    0.8199    1.0485 H   0  0  0  0  0  0  0  0  0  0  0  0
    1.7740   -0.1837    1.2584 H   0  0  0  0  0  0  0  0  0  0  0  0
    3.0141    1.1794   -0.3800 H   0  0  0  0  0  0  0  0  0  0  0  0
    2.1709    2.3836    0.5875 H   0  0  0  0  0  0  0  0  0  0  0  0
    0.3431    2.4969   -1.0388 H   0  0  0  0  0  0  0  0  0  0  0  0
    1.7740    2.4856   -2.0640 H   0  0  0  0  0  0  0  0  0  0  0  0
   -0.2377    0.6166   -2.3331 H   0  0  0  0  0  0  0  0  0  0  0  0
    1.4372    0.1402   -3.9479 H   0  0  0  0  0  0  0  0  0  0  0  0
    2.7297    0.3213   -2.7683 H   0  0  0  0  0  0  0  0  0  0  0  0
  1  2  1  0
  1  9  1  0
  1 10  1  0
  1 11  1  0
  2  3  1  0
  2 12  1  0
  3  8  1  0
  3  4  2  3
  4  5  1  0
  4 13  1  0
  5  6  2  3
  5 14  1  0
  6 15  1  0
  7 16  1  0
  8 31  1  0
 17 21  1  0
 18 19  1  0
 18 25  1  0
 18 26  1  0
 18 27  1  0
 19 20  1  0
 19 28  1  0
 19 29  1  0
 20 24  1  0
 20 30  1  0
 21 22  1  0
 21 32  1  0
 22 23  1  0
 22 33  1  0
 22 34  1  0
 23 24  1  0
 23 35  1  0
 23 36  1  0
 24 25  1  0
 24 37  1  0
 25 38  1  0
 25 39  1  0
M  CHG  4   6  -1   8   1  20   1  21  -1
M  RAD  3   2   2   7   2   8   2
M  END
>  <reaction>  (11) 
rxn_570

>  <mol_properties>  (11) 
{"1": {"label": "*1", "atom_type": "Cs"}, "2": {"label": "*0", "atom_type": "Cd"}, "19": {"label": "*3", "atom_type": "Cs"}, "23": {"label": "*4", "atom_type": "Cs"}, "29": {"label": "*2", "atom_type": "H0"}}

>  <type>  (11) 
unop_7

>  <geom_source>  (11) 
Heuristics

$$$$

     RDKit          3D

 39 40  0  0  0  0  0  0  0  0999 V2000
   -0.9709   -0.6695    2.4622 C   0  0  0  0  0  0  0  0  0  0  0  0
   -0.8242   -0.2700    0.9935 C   0  0  0  0  0  0  0  0  0  0  0  0
   -1.8398   -0.9507    0.1140 C   0  0  0  0  0  0  0  0  0  0  0  0
   -3.0866   -0.3760   -0.1120 C   0  0  0  0  0  3  0  0  0  0  0  0
   -4.0405   -1.0214   -0.8836 C   0  0  0  0  0  0  0  0  0  0  0  0
   -3.7612   -2.2586   -1.4440 C   0  0  0  0  0  0  0  0  0  0  0  0
   -2.5223   -2.8423   -1.2274 C   0  0  0  0  0  0  0  0  0  0  0  0
   -1.5725   -2.1919   -0.4549 C   0  0  0  0  0  0  0  0  0  0  0  0
   -0.8448   -1.7469    2.5844 H   0  0  0  0  0  0  0  0  0  0  0  0
   -1.9618   -0.4072    2.8373 H   0  0  0  0  0  0  0  0  0  0  0  0
   -0.2268   -0.1661    3.0819 H   0  0  0  0  0  0  0  0  0  0  0  0
   -0.9292    0.8135    0.8997 H   0  0  0  0  0  0  0  0  0  0  0  0
   -3.3112    0.5929    0.3205 H   0  0  0  0  0  0  0  0  0  0  0  0
   -5.0036   -0.5552   -1.0506 H   0  0  0  0  0  0  0  0  0  0  0  0
   -4.5035   -2.7632   -2.0494 H   0  0  0  0  0  0  0  0  0  0  0  0
   -2.2929   -3.8062   -1.6645 H   0  0  0  0  0  0  0  0  0  0  0  0
   -0.6045   -2.6533   -0.2925 H   0  0  0  0  0  0  0  0  0  0  0  0
    2.5310   -0.4113   -1.3189 C   0  0  0  0  0  0  0  0  0  0  0  0
    2.5310   -0.4113    0.2075 C   0  0  0  0  0  0  0  0  0  0  0  0
    1.5676    0.7234    0.5959 C   0  0  0  0  0  0  0  0  0  0  0  0
    2.0204    1.5620    1.8003 C   0  0  0  0  0  0  0  0  0  0  0  0
    2.8324    2.7002    1.1809 C   0  0  0  0  0  0  0  0  0  0  0  0
    2.0204    3.0598   -0.0640 C   0  0  0  0  0  0  0  0  0  0  0  0
    1.5676    1.7030   -0.6234 C   0  0  0  0  0  0  0  0  0  0  0  0
    2.5310    1.0793   -1.6478 C   0  0  0  0  0  0  0  0  0  0  0  0
    3.3758   -0.9495   -1.7513 H   0  0  0  0  0  0  0  0  0  0  0  0
    1.6151   -0.8781   -1.6940 H   0  0  0  0  0  0  0  0  0  0  0  0
    2.2467   -1.3697    0.6441 H   0  0  0  0  0  0  0  0  0  0  0  0
    3.5391   -0.1787    0.5668 H   0  0  0  0  0  0  0  0  0  0  0  0
    0.3726    0.2271    0.7945 H   0  0  0  0  0  0  0  0  0  0  0  0
    1.1526    1.9788    2.3187 H   0  0  0  0  0  0  0  0  0  0  0  0
    2.5835    0.9753    2.5286 H   0  0  0  0  0  0  0  0  0  0  0  0
    3.8235    2.3384    0.8902 H   0  0  0  0  0  0  0  0  0  0  0  0
    2.9803    3.5425    1.8577 H   0  0  0  0  0  0  0  0  0  0  0  0
    1.1526    3.6559    0.2314 H   0  0  0  0  0  0  0  0  0  0  0  0
    2.5835    3.6446   -0.7938 H   0  0  0  0  0  0  0  0  0  0  0  0
    0.5718    1.7756   -1.0629 H   0  0  0  0  0  0  0  0  0  0  0  0
    2.2467    1.2992   -2.6777 H   0  0  0  0  0  0  0  0  0  0  0  0
    3.5391    1.4802   -1.4981 H   0  0  0  0  0  0  0  0  0  0  0  0
  1  2  1  0
  1  9  1  0
  1 10  1  0
  1 11  1  0
  2  3  2  3
  2 12  1  0
  3  4  1  0
  3  8  1  0
  4  5  1  0
  4 13  1  0
  5  6  2  0
  5 14  1  0
  6  7  1  0
  6 15  1  0
  7  8  2  0
  7 16  1  0
  8 17  1  0
 18 19  1  0
 18 25  1  0
 18 26  1  0
 18 27  1  0
 19 20  1  0
 19 28  1  0
 19 29  1  0
 20 21  1  0
 20 24  1  0
 20 30  1  0
 21 22  1  0
 21 31  1  0
 21 32  1  0
 22 23  1  0
 22 33  1  0
 22 34  1  0
 23 24  1  0
 23 35  1  0
 23 36  1  0
 24 25  1  0
 24 37  1  0
 25 38  1  0
 25 39  1  0
M  RAD  1   4   2
M  END
>  <reaction>  (12) 
rxn_570

>  <mol_properties>  (12) 
{"1": {"label": "*1", "atom_type": "Cs"}, "2": {"label": "*0", "atom_type": "Cd"}, "19": {"label": "*3", "atom_type": "Cs"}, "23": {"label": "*4", "atom_type": "Cs"}, "29": {"label": "*2", "atom_type": "H0"}}

>  <type>  (12) 
unop_8

>  <geom_source>  (12) 
Heuristics

$$$$

     RDKit          3D

 39 40  0  0  0  0  0  0  0  0999 V2000
   -1.2191   -2.7532    0.0628 C   0  0  0  0  0  0  0  0  0  0  0  0
   -1.0263   -1.5222    0.9492 C   0  0  0  0  0  0  0  0  0  0  0  0
   -1.7476   -0.3145    0.4112 C   0  0  0  0  0  0  0  0  0  0  0  0
   -3.0677   -0.0557    0.7663 C   0  0  0  0  0  3  0  0  0  0  0  0
   -3.7493    1.0294    0.2373 C   0  0  0  0  0  0  0  0  0  0  0  0
   -3.1181    1.8772   -0.6602 C   0  0  0  0  0  0  0  0  0  0  0  0
   -1.8023    1.6312   -1.0220 C   0  0  0  0  0  0  0  0  0  0  0  0
   -1.1260    0.5445   -0.4896 C   0  0  0  0  0  0  0  0  0  0  0  0
   -0.8446   -2.5664   -0.9454 H   0  0  0  0  0  0  0  0  0  0  0  0
   -2.2771   -3.0092   -0.0188 H   0  0  0  0  0  0  0  0  0  0  0  0
   -0.6893   -3.6164    0.4694 H   0  0  0  0  0  0  0  0  0  0  0  0
   -1.3848   -1.7412    1.9578 H   0  0  0  0  0  0  0  0  0  0  0  0
   -3.5670   -0.7125    1.4702 H   0  0  0  0  0  0  0  0  0  0  0  0
   -4.7753    1.2156    0.5297 H   0  0  0  0  0  0  0  0  0  0  0  0
   -3.6474    2.7269   -1.0724 H   0  0  0  0  0  0  0  0  0  0  0  0
   -1.2991    2.2901   -1.7189 H   0  0  0  0  0  0  0  0  0  0  0  0
   -0.0960    0.3604   -0.7750 H   0  0  0  0  0  0  0  0  0  0  0  0
    2.3289   -1.6636   -1.3632 C   0  0  0  0  0  0  0  0  0  0  0  0
    2.3289   -1.6636    0.1632 C   0  0  0  0  0  0  0  0  0  0  0  0
    1.3656   -0.5288    0.5516 C   0  0  0  0  0  0  0  0  0  0  0  0
    1.8183    0.3097    1.7560 C   0  0  0  0  0  0  0  0  0  0  0  0
    2.6303    1.4479    1.1366 C   0  0  0  0  0  0  0  0  0  0  0  0
    1.8183    1.8075   -0.1083 C   0  0  0  0  0  0  0  0  0  0  0  0
    1.3656    0.4507   -0.6677 C   0  0  0  0  0  0  0  0  0  0  0  0
    2.3289   -0.1730   -1.6921 C   0  0  0  0  0  0  0  0  0  0  0  0
    3.1738   -2.2018   -1.7956 H   0  0  0  0  0  0  0  0  0  0  0  0
    1.4131   -2.1304   -1.7383 H   0  0  0  0  0  0  0  0  0  0  0  0
    2.0446   -2.6219    0.5998 H   0  0  0  0  0  0  0  0  0  0  0  0
    3.3371   -1.4310    0.5225 H   0  0  0  0  0  0  0  0  0  0  0  0
    0.1705   -1.0252    0.7502 H   0  0  0  0  0  0  0  0  0  0  0  0
    0.9505    0.7265    2.2744 H   0  0  0  0  0  0  0  0  0  0  0  0
    2.3814   -0.2770    2.4843 H   0  0  0  0  0  0  0  0  0  0  0  0
    3.6215    1.0861    0.8459 H   0  0  0  0  0  0  0  0  0  0  0  0
    2.7783    2.2902    1.8134 H   0  0  0  0  0  0  0  0  0  0  0  0
    0.9505    2.4036    0.1870 H   0  0  0  0  0  0  0  0  0  0  0  0
    2.3814    2.3923   -0.8381 H   0  0  0  0  0  0  0  0  0  0  0  0
    0.3697    0.5233   -1.1072 H   0  0  0  0  0  0  0  0  0  0  0  0
    2.0446    0.0469   -2.7220 H   0  0  0  0  0  0  0  0  0  0  0  0
    3.3371    0.2280   -1.5424 H   0  0  0  0  0  0  0  0  0  0  0  0
  1  2  1  0
  1  9  1  0
  1 10  1  0
  1 11  1  0
  2  3  2  3
  2 12  1  0
  3  4  1  0
  3  8  1  0
  4  5  1  0
  4 13  1  0
  5  6  2  0
  5 14  1  0
  6  7  1  0
  6 15  1  0
  7  8  2  0
  7 16  1  0
  8 17  1  0
 18 19  1  0
 18 25  1  0
 18 26  1  0
 18 27  1  0
 19 20  1  0
 19 28  1  0
 19 29  1  0
 20 21  1  0
 20 24  1  0
 20 30  1  0
 21 22  1  0
 21 31  1  0
 21 32  1  0
 22 23  1  0
 22 33  1  0
 22 34  1  0
 23 24  1  0
 23 35  1  0
 23 36  1  0
 24 25  1  0
 24 37  1  0
 25 38  1  0
 25 39  1  0
M  RAD  1   4   2
M  END
>  <reaction>  (13) 
rxn_570

>  <mol_properties>  (13) 
{"1": {"label": "*1", "atom_type": "Cs"}, "2": {"label": "*0", "atom_type": "Cd"}, "19": {"label": "*3", "atom_type": "Cs"}, "23": {"label": "*4", "atom_type": "Cs"}, "29": {"label": "*2", "atom_type": "H0"}}

>  <type>  (13) 
unop_9

>  <geom_source>  (13) 
Heuristics

$$$$

     RDKit          3D

 39 40  0  0  0  0  0  0  0  0999 V2000
   -0.7035   -1.5355    2.2048 C   0  0  0  0  0  0  0  0  0  0  0  0
   -0.7625   -0.5045    1.0772 C   0  0  0  0  0  0  0  0  0  0  0  0
   -1.8907   -0.7749    0.1168 C   0  0  0  0  0  0  0  0  0  0  0  0
   -3.1566   -0.2407    0.3354 C   0  0  0  0  0  3  0  0  0  0  0  0
   -4.2087   -0.5247   -0.5214 C   0  0  0  0  0  0  0  0  0  0  0  0
   -4.0104   -1.3522   -1.6162 C   0  0  0  0  0  0  0  0  0  0  0  0
   -2.7535   -1.8906   -1.8464 C   0  0  0  0  0  0  0  0  0  0  0  0
   -1.7053   -1.6028   -0.9859 C   0  0  0  0  0  0  0  0  0  0  0  0
   -0.5619   -2.5406    1.8030 H   0  0  0  0  0  0  0  0  0  0  0  0
   -1.6326   -1.5356    2.7779 H   0  0  0  0  0  0  0  0  0  0  0  0
    0.1196   -1.3221    2.8889 H   0  0  0  0  0  0  0  0  0  0  0  0
   -0.8792    0.4944    1.5042 H   0  0  0  0  0  0  0  0  0  0  0  0
   -3.3187    0.4099    1.1879 H   0  0  0  0  0  0  0  0  0  0  0  0
   -5.1856   -0.0957   -0.3356 H   0  0  0  0  0  0  0  0  0  0  0  0
   -4.8298   -1.5731   -2.2884 H   0  0  0  0  0  0  0  0  0  0  0  0
   -2.5874   -2.5344   -2.7012 H   0  0  0  0  0  0  0  0  0  0  0  0
   -0.7243   -2.0252   -1.1742 H   0  0  0  0  0  0  0  0  0  0  0  0
    2.5927   -0.6458   -1.2353 C   0  0  0  0  0  0  0  0  0  0  0  0
    2.5927   -0.6458    0.2912 C   0  0  0  0  0  0  0  0  0  0  0  0
    1.6294    0.4889    0.6795 C   0  0  0  0  0  0  0  0  0  0  0  0
    2.0821    1.3275    1.8840 C   0  0  0  0  0  0  0  0  0  0  0  0
    2.8941    2.4657    1.2646 C   0  0  0  0  0  0  0  0  0  0  0  0
    2.0821    2.8253    0.0197 C   0  0  0  0  0  0  0  0  0  0  0  0
    1.6294    1.4685   -0.5397 C   0  0  0  0  0  0  0  0  0  0  0  0
    2.5927    0.8448   -1.5641 C   0  0  0  0  0  0  0  0  0  0  0  0
    3.4376   -1.1840   -1.6677 H   0  0  0  0  0  0  0  0  0  0  0  0
    1.6769   -1.1127   -1.6103 H   0  0  0  0  0  0  0  0  0  0  0  0
    2.3084   -1.6042    0.7278 H   0  0  0  0  0  0  0  0  0  0  0  0
    3.6009   -0.4132    0.6505 H   0  0  0  0  0  0  0  0  0  0  0  0
    0.4343   -0.0074    0.8782 H   0  0  0  0  0  0  0  0  0  0  0  0
    1.2143    1.7443    2.4024 H   0  0  0  0  0  0  0  0  0  0  0  0
    2.6452    0.7408    2.6122 H   0  0  0  0  0  0  0  0  0  0  0  0
    3.8852    2.1038    0.9739 H   0  0  0  0  0  0  0  0  0  0  0  0
    3.0421    3.3080    1.9413 H   0  0  0  0  0  0  0  0  0  0  0  0
    1.2143    3.4214    0.3150 H   0  0  0  0  0  0  0  0  0  0  0  0
    2.6452    3.4101   -0.7101 H   0  0  0  0  0  0  0  0  0  0  0  0
    0.6335    1.5410   -0.9793 H   0  0  0  0  0  0  0  0  0  0  0  0
    2.3084    1.0646   -2.5940 H   0  0  0  0  0  0  0  0  0  0  0  0
    3.6009    1.2457   -1.4144 H   0  0  0  0  0  0  0  0  0  0  0  0
  1  2  1  0
  1  9  1  0
  1 10  1  0
  1 11  1  0
  2  3  2  3
  2 12  1  0
  3  4  1  0
  3  8  1  0
  4  5  1  0
  4 13  1  0
  5  6  2  0
  5 14  1  0
  6  7  1  0
  6 15  1  0
  7  8  2  0
  7 16  1  0
  8 17  1  0
 18 19  1  0
 18 25  1  0
 18 26  1  0
 18 27  1  0
 19 20  1  0
 19 28  1  0
 19 29  1  0
 20 21  1  0
 20 24  1  0
 20 30  1  0
 21 22  1  0
 21 31  1  0
 21 32  1  0
 22 23  1  0
 22 33  1  0
 22 34  1  0
 23 24  1  0
 23 35  1  0
 23 36  1  0
 24 25  1  0
 24 37  1  0
 25 38  1  0
 25 39  1  0
M  RAD  1   4   2
M  END
>  <reaction>  (14) 
rxn_570

>  <mol_properties>  (14) 
{"1": {"label": "*1", "atom_type": "Cs"}, "2": {"label": "*0", "atom_type": "Cd"}, "19": {"label": "*3", "atom_type": "Cs"}, "23": {"label": "*4", "atom_type": "Cs"}, "29": {"label": "*2", "atom_type": "H0"}}

>  <type>  (14) 
unop_10

>  <geom_source>  (14) 
Heuristics

$$$$

     RDKit          3D

 39 40  0  0  0  0  0  0  0  0999 V2000
   -2.7580    0.1823   -0.8516 C   0  0  0  0  0  0  0  0  0  0  0  0
   -1.7058   -0.8703   -0.5007 C   0  0  0  0  0  0  0  0  0  0  0  0
   -1.3574   -0.8607    0.9645 C   0  0  0  0  0  0  0  0  0  0  0  0
   -2.0737   -1.6339    1.8727 C   0  0  0  0  0  3  0  0  0  0  0  0
   -1.7857   -1.5928    3.2281 C   0  0  0  0  0  0  0  0  0  0  0  0
   -0.7714   -0.7730    3.6992 C   0  0  0  0  0  0  0  0  0  0  0  0
   -0.0491    0.0022    2.8048 C   0  0  0  0  0  0  0  0  0  0  0  0
   -0.3419   -0.0433    1.4505 C   0  0  0  0  0  0  0  0  0  0  0  0
   -2.4014    1.1836   -0.6032 H   0  0  0  0  0  0  0  0  0  0  0  0
   -3.6791    0.0101   -0.2917 H   0  0  0  0  0  0  0  0  0  0  0  0
   -2.9963    0.1590   -1.9164 H   0  0  0  0  0  0  0  0  0  0  0  0
   -2.0745   -1.8599   -0.7809 H   0  0  0  0  0  0  0  0  0  0  0  0
   -2.8664   -2.2799    1.5113 H   0  0  0  0  0  0  0  0  0  0  0  0
   -2.3526   -2.2054    3.9181 H   0  0  0  0  0  0  0  0  0  0  0  0
   -0.5427   -0.7413    4.7569 H   0  0  0  0  0  0  0  0  0  0  0  0
    0.7480    0.6423    3.1623 H   0  0  0  0  0  0  0  0  0  0  0  0
    0.2296    0.5635    0.7567 H   0  0  0  0  0  0  0  0  0  0  0  0
    1.6494   -1.0116   -2.8131 C   0  0  0  0  0  0  0  0  0  0  0  0
    1.6494   -1.0116   -1.2867 C   0  0  0  0  0  0  0  0  0  0  0  0
    0.6861    0.1231   -0.8984 C   0  0  0  0  0  0  0  0  0  0  0  0
    1.1388    0.9617    0.3061 C   0  0  0  0  0  0  0  0  0  0  0  0
    1.9508    2.0999   -0.3133 C   0  0  0  0  0  0  0  0  0  0  0  0
    1.1388    2.4595   -1.5582 C   0  0  0  0  0  0  0  0  0  0  0  0
    0.6861    1.1027   -2.1176 C   0  0  0  0  0  0  0  0  0  0  0  0
    1.6494    0.4790   -3.1420 C   0  0  0  0  0  0  0  0  0  0  0  0
    2.4943   -1.5498   -3.2455 H   0  0  0  0  0  0  0  0  0  0  0  0
    0.7336   -1.4785   -3.1882 H   0  0  0  0  0  0  0  0  0  0  0  0
    1.3651   -1.9700   -0.8501 H   0  0  0  0  0  0  0  0  0  0  0  0
    2.6576   -0.7791   -0.9274 H   0  0  0  0  0  0  0  0  0  0  0  0
   -0.5090   -0.3732   -0.6997 H   0  0  0  0  0  0  0  0  0  0  0  0
    0.2710    1.3785    0.8245 H   0  0  0  0  0  0  0  0  0  0  0  0
    1.7019    0.3750    1.0344 H   0  0  0  0  0  0  0  0  0  0  0  0
    2.9419    1.7380   -0.6040 H   0  0  0  0  0  0  0  0  0  0  0  0
    2.0987    2.9422    0.3635 H   0  0  0  0  0  0  0  0  0  0  0  0
    0.2710    3.0555   -1.2629 H   0  0  0  0  0  0  0  0  0  0  0  0
    1.7019    3.0443   -2.2880 H   0  0  0  0  0  0  0  0  0  0  0  0
   -0.3098    1.1752   -2.5571 H   0  0  0  0  0  0  0  0  0  0  0  0
    1.3651    0.6988   -4.1719 H   0  0  0  0  0  0  0  0  0  0  0  0
    2.6576    0.8799   -2.9923 H   0  0  0  0  0  0  0  0  0  0  0  0
  1  2  1  0
  1  9  1  0
  1 10  1  0
  1 11  1  0
  2  3  2  3
  2 12  1  0
  3  4  1  0
  3  8  1  0
  4  5  1  0
  4 13  1  0
  5  6  2  0
  5 14  1  0
  6  7  1  0
  6 15  1  0
  7  8  2  0
  7 16  1  0
  8 17  1  0
 18 19  1  0
 18 25  1  0
 18 26  1  0
 18 27  1  0
 19 20  1  0
 19 28  1  0
 19 29  1  0
 20 21  1  0
 20 24  1  0
 20 30  1  0
 21 22  1  0
 21 31  1  0
 21 32  1  0
 22 23  1  0
 22 33  1  0
 22 34  1  0
 23 24  1  0
 23 35  1  0
 23 36  1  0
 24 25  1  0
 24 37  1  0
 25 38  1  0
 25 39  1  0
M  RAD  1   4   2
M  END
>  <reaction>  (15) 
rxn_570

>  <mol_properties>  (15) 
{"1": {"label": "*1", "atom_type": "Cs"}, "2": {"label": "*0", "atom_type": "Cd"}, "19": {"label": "*3", "atom_type": "Cs"}, "23": {"label": "*4", "atom_type": "Cs"}, "29": {"label": "*2", "atom_type": "H0"}}

>  <type>  (15) 
unop_11

>  <geom_source>  (15) 
Heuristics

$$$$

     RDKit          3D

 39 40  0  0  0  0  0  0  0  0999 V2000
   -0.8262   -2.6493    0.9166 C   0  0  0  0  0  0  0  0  0  0  0  0
   -0.8584   -1.1383    1.1486 C   0  0  0  0  0  0  0  0  0  0  0  0
   -1.8462   -0.4448    0.2477 C   0  0  0  0  0  0  0  0  0  0  0  0
   -3.1724   -0.2819    0.6353 C   0  0  0  0  0  3  0  0  0  0  0  0
   -4.0948    0.3149   -0.2102 C   0  0  0  0  0  0  0  0  0  0  0  0
   -3.7033    0.7604   -1.4636 C   0  0  0  0  0  0  0  0  0  0  0  0
   -2.3843    0.6051   -1.8622 C   0  0  0  0  0  0  0  0  0  0  0  0
   -1.4666    0.0075   -1.0121 C   0  0  0  0  0  0  0  0  0  0  0  0
   -0.5492   -2.8765   -0.1145 H   0  0  0  0  0  0  0  0  0  0  0  0
   -1.8077   -3.0900    1.1009 H   0  0  0  0  0  0  0  0  0  0  0  0
   -0.1052   -3.1325    1.5783 H   0  0  0  0  0  0  0  0  0  0  0  0
   -1.1130   -0.9364    2.1918 H   0  0  0  0  0  0  0  0  0  0  0  0
   -3.4855   -0.6250    1.6153 H   0  0  0  0  0  0  0  0  0  0  0  0
   -5.1217    0.4357    0.1120 H   0  0  0  0  0  0  0  0  0  0  0  0
   -4.4211    1.2294   -2.1245 H   0  0  0  0  0  0  0  0  0  0  0  0
   -2.0676    0.9538   -2.8374 H   0  0  0  0  0  0  0  0  0  0  0  0
   -0.4360   -0.1077   -1.3297 H   0  0  0  0  0  0  0  0  0  0  0  0
    2.4968   -1.2796   -1.1638 C   0  0  0  0  0  0  0  0  0  0  0  0
    2.4968   -1.2796    0.3626 C   0  0  0  0  0  0  0  0  0  0  0  0
    1.5334   -0.1449    0.7510 C   0  0  0  0  0  0  0  0  0  0  0  0
    1.9862    0.6937    1.9554 C   0  0  0  0  0  0  0  0  0  0  0  0
    2.7982    1.8319    1.3361 C   0  0  0  0  0  0  0  0  0  0  0  0
    1.9862    2.1915    0.0912 C   0  0  0  0  0  0  0  0  0  0  0  0
    1.5334    0.8347   -0.4682 C   0  0  0  0  0  0  0  0  0  0  0  0
    2.4968    0.2110   -1.4927 C   0  0  0  0  0  0  0  0  0  0  0  0
    3.3416   -1.8178   -1.5962 H   0  0  0  0  0  0  0  0  0  0  0  0
    1.5809   -1.7465   -1.5389 H   0  0  0  0  0  0  0  0  0  0  0  0
    2.2125   -2.2380    0.7992 H   0  0  0  0  0  0  0  0  0  0  0  0
    3.5049   -1.0470    0.7219 H   0  0  0  0  0  0  0  0  0  0  0  0
    0.3384   -0.6412    0.9497 H   0  0  0  0  0  0  0  0  0  0  0  0
    1.1184    1.1105    2.4739 H   0  0  0  0  0  0  0  0  0  0  0  0
    2.5493    0.1070    2.6837 H   0  0  0  0  0  0  0  0  0  0  0  0
    3.7893    1.4700    1.0454 H   0  0  0  0  0  0  0  0  0  0  0  0
    2.9461    2.6742    2.0128 H   0  0  0  0  0  0  0  0  0  0  0  0
    1.1184    2.7876    0.3865 H   0  0  0  0  0  0  0  0  0  0  0  0
    2.5493    2.7763   -0.6387 H   0  0  0  0  0  0  0  0  0  0  0  0
    0.5376    0.9072   -0.9078 H   0  0  0  0  0  0  0  0  0  0  0  0
    2.2125    0.4308   -2.5226 H   0  0  0  0  0  0  0  0  0  0  0  0
    3.5049    0.6119   -1.3429 H   0  0  0  0  0  0  0  0  0  0  0  0
  1  2  1  0
  1  9  1  0
  1 10  1  0
  1 11  1  0
  2  3  2  3
  2 12  1  0
  3  4  1  0
  3  8  1  0
  4  5  1  0
  4 13  1  0
  5  6  2  0
  5 14  1  0
  6  7  1  0
  6 15  1  0
  7  8  2  0
  7 16  1  0
  8 17  1  0
 18 19  1  0
 18 25  1  0
 18 26  1  0
 18 27  1  0
 19 20  1  0
 19 28  1  0
 19 29  1  0
 20 21  1  0
 20 24  1  0
 20 30  1  0
 21 22  1  0
 21 31  1  0
 21 32  1  0
 22 23  1  0
 22 33  1  0
 22 34  1  0
 23 24  1  0
 23 35  1  0
 23 36  1  0
 24 25  1  0
 24 37  1  0
 25 38  1  0
 25 39  1  0
M  RAD  1   4   2
M  END
>  <reaction>  (16) 
rxn_570

>  <mol_properties>  (16) 
{"1": {"label": "*1", "atom_type": "Cs"}, "2": {"label": "*0", "atom_type": "Cd"}, "19": {"label": "*3", "atom_type": "Cs"}, "23": {"label": "*4", "atom_type": "Cs"}, "29": {"label": "*2", "atom_type": "H0"}}

>  <type>  (16) 
unop_12

>  <geom_source>  (16) 
Heuristics

$$$$

     RDKit          3D

 39 40  0  0  0  0  0  0  0  0999 V2000
   -1.3733   -0.7320    0.6379 C   0  0  0  0  0  0  0  0  0  0  0  0
   -2.6550   -1.5683    0.7086 C   0  0  0  0  0  0  0  0  0  0  0  0
   -1.1994    0.2762    1.7783 C   0  0  0  0  0  0  0  0  0  0  0  0
   -3.1840   -1.6125   -0.7155 C   0  0  0  0  0  0  0  0  0  0  0  0
   -0.6911    1.5465    1.1165 C   0  0  0  0  0  0  0  0  0  0  0  0
   -2.7568   -0.2963   -1.3433 C   0  0  0  0  0  0  0  0  0  0  0  0
   -1.3025    1.5465   -0.2746 C   0  0  0  0  0  0  0  0  0  0  0  0
    1.0053    0.4292   -1.4864 C   0  0  0  0  0  0  0  0  0  0  0  0
    1.5016    1.7831   -1.9792 C   0  0  0  0  0  0  0  0  0  0  0  0
   -1.4444    0.0717   -0.6512 C   0  0  0  0  0  0  0  0  0  0  0  0
    1.9136   -0.1167   -0.4198 C   0  0  0  0  0  0  0  0  0  0  0  0
    1.6779    0.1867    0.9309 C   0  0  0  0  0  3  0  0  0  0  0  0
    3.0333   -0.8907   -0.7675 C   0  0  0  0  0  0  0  0  0  0  0  0
    2.5391   -0.2965    1.9213 C   0  0  0  0  0  0  0  0  0  0  0  0
    3.6440   -1.0768    1.5693 C   0  0  0  0  0  0  0  0  0  0  0  0
    3.8920   -1.3720    0.2259 C   0  0  0  0  0  0  0  0  0  0  0  0
   -0.4851   -1.3993    0.5801 H   0  0  0  0  0  0  0  0  0  0  0  0
   -3.4235   -1.0961    1.3588 H   0  0  0  0  0  0  0  0  0  0  0  0
   -2.4454   -2.5919    1.0878 H   0  0  0  0  0  0  0  0  0  0  0  0
   -4.2888   -1.7342   -0.7362 H   0  0  0  0  0  0  0  0  0  0  0  0
   -2.7112   -2.4582   -1.2627 H   0  0  0  0  0  0  0  0  0  0  0  0
   -0.4756   -0.0957    2.5354 H   0  0  0  0  0  0  0  0  0  0  0  0
   -2.1636    0.5006    2.2846 H   0  0  0  0  0  0  0  0  0  0  0  0
    0.4181    1.5072    1.0370 H   0  0  0  0  0  0  0  0  0  0  0  0
   -0.9858    2.4514    1.6910 H   0  0  0  0  0  0  0  0  0  0  0  0
    0.9520   -0.2779   -2.3428 H   0  0  0  0  0  0  0  0  0  0  0  0
   -0.2567    0.5715   -0.9943 H   0  0  0  0  0  0  0  0  0  0  0  0
   -2.5986   -0.4088   -2.4366 H   0  0  0  0  0  0  0  0  0  0  0  0
   -3.5501    0.4620   -1.1646 H   0  0  0  0  0  0  0  0  0  0  0  0
   -2.2859    2.0640   -0.2357 H   0  0  0  0  0  0  0  0  0  0  0  0
   -0.6434    2.0686   -0.9999 H   0  0  0  0  0  0  0  0  0  0  0  0
    2.5190    1.6868   -2.4153 H   0  0  0  0  0  0  0  0  0  0  0  0
    1.5275    2.5104   -1.1401 H   0  0  0  0  0  0  0  0  0  0  0  0
    0.8126    2.1666   -2.7605 H   0  0  0  0  0  0  0  0  0  0  0  0
    0.8306    0.7978    1.2164 H   0  0  0  0  0  0  0  0  0  0  0  0
    2.3516   -0.0632    2.9614 H   0  0  0  0  0  0  0  0  0  0  0  0
    4.3101   -1.4489    2.3370 H   0  0  0  0  0  0  0  0  0  0  0  0
    4.7513   -1.9712   -0.0461 H   0  0  0  0  0  0  0  0  0  0  0  0
    3.2407   -1.1194   -1.8056 H   0  0  0  0  0  0  0  0  0  0  0  0
  1  2  1  0
  1  3  1  0
  1 10  1  0
  1 17  1  0
  2  4  1  0
  2 18  1  0
  2 19  1  0
  3  5  1  0
  3 22  1  0
  3 23  1  0
  4  6  1  0
  4 20  1  0
  4 21  1  0
  5  7  1  0
  5 24  1  0
  5 25  1  0
  6 10  1  0
  6 28  1  0
  6 29  1  0
  7 10  1  0
  7 30  1  0
  7 31  1  0
  8  9  1  0
  8 11  2  3
  8 26  1  0
  9 32  1  0
  9 33  1  0
  9 34  1  0
 10 27  1  0
 11 12  1  0
 11 13  1  0
 12 14  1  0
 12 35  1  0
 13 16  2  0
 13 39  1  0
 14 15  2  0
 14 36  1  0
 15 16  1  0
 15 37  1  0
 16 38  1  0
M  RAD  1  12   2
M  END
>  <reaction>  (17) 
rxn_570

>  <mol_properties>  (17) 
{"1": {"label": "*1", "atom_type": "Cs"}, "2": {"label": "*0", "atom_type": "Cd"}, "19": {"label": "*3", "atom_type": "Cs"}, "23": {"label": "*4", "atom_type": "Cs"}, "29": {"label": "*2", "atom_type": "H0"}}

>  <type>  (17) 
unop_13

>  <geom_source>  (17) 
AutoTST

$$$$

     RDKit          3D

 39 40  0  0  0  0  0  0  0  0999 V2000
   -0.6455   -2.2098    1.6529 C   0  0  0  0  0  0  0  0  0  0  0  0
   -0.7699   -0.7719    1.1478 C   0  0  0  0  0  0  0  0  0  0  0  0
   -1.8952   -0.6108    0.1599 C   0  0  0  0  0  0  0  0  0  0  0  0
   -3.1833   -0.3079    0.5896 C   0  0  0  0  0  3  0  0  0  0  0  0
   -4.2307   -0.2040   -0.3126 C   0  0  0  0  0  0  0  0  0  0  0  0
   -4.0052   -0.4029   -1.6663 C   0  0  0  0  0  0  0  0  0  0  0  0
   -2.7260   -0.7047   -2.1082 C   0  0  0  0  0  0  0  0  0  0  0  0
   -1.6827   -0.8071   -1.2010 C   0  0  0  0  0  0  0  0  0  0  0  0
   -0.4590   -2.8960    0.8247 H   0  0  0  0  0  0  0  0  0  0  0  0
   -1.5661   -2.5277    2.1458 H   0  0  0  0  0  0  0  0  0  0  0  0
    0.1746   -2.3053    2.3668 H   0  0  0  0  0  0  0  0  0  0  0  0
   -0.9309   -0.1018    1.9956 H   0  0  0  0  0  0  0  0  0  0  0  0
   -3.3669   -0.1478    1.6465 H   0  0  0  0  0  0  0  0  0  0  0  0
   -5.2253    0.0365    0.0420 H   0  0  0  0  0  0  0  0  0  0  0  0
   -4.8209   -0.3195   -2.3731 H   0  0  0  0  0  0  0  0  0  0  0  0
   -2.5388   -0.8574   -3.1639 H   0  0  0  0  0  0  0  0  0  0  0  0
   -0.6843   -1.0404   -1.5547 H   0  0  0  0  0  0  0  0  0  0  0  0
    2.5853   -0.9133   -1.1646 C   0  0  0  0  0  0  0  0  0  0  0  0
    2.5853   -0.9133    0.3618 C   0  0  0  0  0  0  0  0  0  0  0  0
    1.6220    0.2215    0.7501 C   0  0  0  0  0  0  0  0  0  0  0  0
    2.0747    1.0600    1.9546 C   0  0  0  0  0  0  0  0  0  0  0  0
    2.8867    2.1982    1.3352 C   0  0  0  0  0  0  0  0  0  0  0  0
    2.0747    2.5579    0.0903 C   0  0  0  0  0  0  0  0  0  0  0  0
    1.6220    1.2010   -0.4691 C   0  0  0  0  0  0  0  0  0  0  0  0
    2.5853    0.5773   -1.4935 C   0  0  0  0  0  0  0  0  0  0  0  0
    3.4302   -1.4515   -1.5971 H   0  0  0  0  0  0  0  0  0  0  0  0
    1.6695   -1.3801   -1.5397 H   0  0  0  0  0  0  0  0  0  0  0  0
    2.3010   -1.8716    0.7984 H   0  0  0  0  0  0  0  0  0  0  0  0
    3.5935   -0.6807    0.7211 H   0  0  0  0  0  0  0  0  0  0  0  0
    0.4269   -0.2749    0.9488 H   0  0  0  0  0  0  0  0  0  0  0  0
    1.2069    1.4768    2.4730 H   0  0  0  0  0  0  0  0  0  0  0  0
    2.6378    0.4733    2.6829 H   0  0  0  0  0  0  0  0  0  0  0  0
    3.8778    1.8364    1.0445 H   0  0  0  0  0  0  0  0  0  0  0  0
    3.0346    3.0406    2.0120 H   0  0  0  0  0  0  0  0  0  0  0  0
    1.2069    3.1539    0.3856 H   0  0  0  0  0  0  0  0  0  0  0  0
    2.6378    3.1426   -0.6395 H   0  0  0  0  0  0  0  0  0  0  0  0
    0.6261    1.2736   -0.9086 H   0  0  0  0  0  0  0  0  0  0  0  0
    2.3010    0.7972   -2.5234 H   0  0  0  0  0  0  0  0  0  0  0  0
    3.5935    0.9783   -1.3438 H   0  0  0  0  0  0  0  0  0  0  0  0
  1  2  1  0
  1  9  1  0
  1 10  1  0
  1 11  1  0
  2  3  2  3
  2 12  1  0
  3  4  1  0
  3  8  1  0
  4  5  1  0
  4 13  1  0
  5  6  2  0
  5 14  1  0
  6  7  1  0
  6 15  1  0
  7  8  2  0
  7 16  1  0
  8 17  1  0
 18 19  1  0
 18 25  1  0
 18 26  1  0
 18 27  1  0
 19 20  1  0
 19 28  1  0
 19 29  1  0
 20 21  1  0
 20 24  1  0
 20 30  1  0
 21 22  1  0
 21 31  1  0
 21 32  1  0
 22 23  1  0
 22 33  1  0
 22 34  1  0
 23 24  1  0
 23 35  1  0
 23 36  1  0
 24 25  1  0
 24 37  1  0
 25 38  1  0
 25 39  1  0
M  RAD  1   4   2
M  END
>  <reaction>  (18) 
rxn_570

>  <mol_properties>  (18) 
{"1": {"label": "*1", "atom_type": "Cs"}, "2": {"label": "*0", "atom_type": "Cd"}, "19": {"label": "*3", "atom_type": "Cs"}, "23": {"label": "*4", "atom_type": "Cs"}, "29": {"label": "*2", "atom_type": "H0"}}

>  <type>  (18) 
unop_14

>  <geom_source>  (18) 
gaussian_log

$$$$
