
     RDKit          3D

 12 11  0  0  0  0  0  0  0  0999 V2000
    1.9877    0.1011    0.4814 C   0  0  0  0  0  0  0  0  0  0  0  0
    0.8179    0.5502    0.0525 C   0  0  0  0  0  0  0  0  0  0  0  0
   -0.2939   -0.2692   -0.5320 C   0  0  0  0  0  0  0  0  0  0  0  0
   -0.0292   -1.7631   -0.6328 C   0  0  0  0  0  0  0  0  0  0  0  0
    2.2522   -0.9490    0.4436 H   0  0  0  0  0  0  0  0  0  0  0  0
    2.7295    0.7757    0.8896 H   0  0  0  0  0  0  0  0  0  0  0  0
    0.6162    1.6164    0.1190 H   0  0  0  0  0  0  0  0  0  0  0  0
   -0.5268    0.1319   -1.5245 H   0  0  0  0  0  0  0  0  0  0  0  0
   -1.1959   -0.0938    0.0644 H   0  0  0  0  0  0  0  0  0  0  0  0
    0.1590   -2.1992    0.3502 H   0  0  0  0  0  0  0  0  0  0  0  0
    0.8382   -1.9701   -1.2626 H   0  0  0  0  0  0  0  0  0  0  0  0
   -0.8879   -2.2759   -1.0672 H   0  0  0  0  0  0  0  0  0  0  0  0
  1  2  2  3
  1  5  1  0
  1  6  1  0
  2  3  1  0
  2  7  1  0
  3  4  1  0
  3  8  1  0
  3  9  1  0
  4 10  1  0
  4 11  1  0
  4 12  1  0
M  END
>  <reaction>  (1) 
rxn_754

>  <mol_properties>  (1) 
{"2": {"label": "donator", "atom_type": "Cs"}, "7": {"label": "d_hydrogen", "atom_type": "H0"}}

>  <type>  (1) 
r1h

$$$$

     RDKit          3D

  4  3  0  0  0  0  0  0  0  0999 V2000
    0.0000    0.0000    0.0000 C   0  0  0  0  0  3  0  0  0  0  0  0
    1.0638   -0.1747    0.0540 H   0  0  0  0  0  0  0  0  0  0  0  0
   -0.6833   -0.8351   -0.0280 H   0  0  0  0  0  0  0  0  0  0  0  0
   -0.3805    1.0098   -0.0260 H   0  0  0  0  0  0  0  0  0  0  0  0
  1  2  1  0
  1  3  1  0
  1  4  1  0
M  RAD  1   1   2
M  END
>  <reaction>  (2) 
rxn_754

>  <mol_properties>  (2) 
{"0": {"label": "acceptor", "atom_type": "Cs"}}

>  <type>  (2) 
r2

$$$$

     RDKit          3D

  5  4  0  0  0  0  0  0  0  0999 V2000
    0.0000    0.0000    0.0000 C   0  0  0  0  0  0  0  0  0  0  0  0
   -0.6486   -0.7720   -0.4113 H   0  0  0  0  0  0  0  0  0  0  0  0
   -0.3482    0.9787   -0.3267 H   0  0  0  0  0  0  0  0  0  0  0  0
   -0.0223   -0.0487    1.0876 H   0  0  0  0  0  0  0  0  0  0  0  0
    1.0191   -0.1580   -0.3496 H   0  0  0  0  0  0  0  0  0  0  0  0
  1  2  1  0
  1  3  1  0
  1  4  1  0
  1  5  1  0
M  END
>  <reaction>  (3) 
rxn_754

>  <mol_properties>  (3) 
{"0": {"label": "acceptor", "atom_type": "Cs"}, "4": {"label": "a_hydrogen", "atom_type": "H0"}}

>  <type>  (3) 
r2h

$$$$

     RDKit          3D

 16 14  0  0  0  0  0  0  0  0999 V2000
    1.6576    0.1432    1.9212 C   0  0  0  0  0  3  0  0  0  0  0  0
    2.4179    0.0710    1.1508 H   0  0  0  0  0  0  0  0  0  0  0  0
    1.5648   -0.7325    2.5545 H   0  0  0  0  0  0  0  0  0  0  0  0
    1.6230    1.0927    2.4446 H   0  0  0  0  0  0  0  0  0  0  0  0
   -0.2791   -1.0304   -1.7517 C   0  0  0  0  0  0  0  0  0  0  0  0
   -0.5650   -0.9986   -0.4525 C   0  0  0  0  0  0  0  0  0  0  0  0
   -0.5941    0.1989    0.4043 C   0  0  0  0  0  0  0  0  0  0  0  0
   -0.5044    1.5511   -0.2624 C   0  0  0  0  0  0  0  0  0  0  0  0
   -0.0715   -0.1304   -2.3182 H   0  0  0  0  0  0  0  0  0  0  0  0
   -0.2546   -1.9658   -2.2956 H   0  0  0  0  0  0  0  0  0  0  0  0
   -0.7693   -1.9385    0.0534 H   0  0  0  0  0  0  0  0  0  0  0  0
    0.4241    0.1218    1.1368 H   0  0  0  0  0  0  0  0  0  0  0  0
   -1.3940    0.1459    1.1450 H   0  0  0  0  0  0  0  0  0  0  0  0
   -1.3433    1.7155   -0.9439 H   0  0  0  0  0  0  0  0  0  0  0  0
    0.4171    1.6469   -0.8406 H   0  0  0  0  0  0  0  0  0  0  0  0
   -0.5130    2.3481    0.4821 H   0  0  0  0  0  0  0  0  0  0  0  0
  1  2  1  0
  1  3  1  0
  1  4  1  0
  5  6  2  3
  5  9  1  0
  5 10  1  0
  6  7  1  0
  6 11  1  0
  7  8  1  0
  7 12  1  0
  7 13  1  0
  8 14  1  0
  8 15  1  0
  8 16  1  0
M  RAD  1   1   2
M  END
>  <reaction>  (4) 
rxn_754

>  <mol_properties>  (4) 
{"0": {"label": "*3", "atom_type": "Cs"}, "1": {"label": "*4", "atom_type": "H0"}, "5": {"label": "*0", "atom_type": "Cd"}, "6": {"label": "*1", "atom_type": "Cs"}, "11": {"label": "*2", "atom_type": "H0"}}

>  <type>  (4) 
ts

$$$$

     RDKit          3D

 16 14  0  0  0  0  0  0  0  0999 V2000
    1.6313    0.0392    1.9836 C   0  0  0  0  0  0  0  0  0  0  0  0
    2.2754    0.9031    1.8272 H   0  0  0  0  0  0  0  0  0  0  0  0
    2.2063   -0.7643    2.4414 H   0  0  0  0  0  0  0  0  0  0  0  0
    0.8980    0.4766    2.6593 H   0  0  0  0  0  0  0  0  0  0  0  0
   -0.4490   -1.0027   -1.8209 C   0  0  0  0  0  0  0  0  0  0  0  0
   -0.4490   -1.0027   -0.4966 C   0  0  0  0  0  0  0  0  0  0  0  0
   -0.4490    0.2018    0.3969 C   0  0  0  0  0  3  0  0  0  0  0  0
   -0.4490    1.5476   -0.3108 C   0  0  0  0  0  0  0  0  0  0  0  0
   -0.4490   -0.0858   -2.3984 H   0  0  0  0  0  0  0  0  0  0  0  0
   -0.4490   -1.9300   -2.3796 H   0  0  0  0  0  0  0  0  0  0  0  0
   -0.4490   -1.9584    0.0216 H   0  0  0  0  0  0  0  0  0  0  0  0
    0.5943    0.1202    1.1926 H   0  0  0  0  0  0  0  0  0  0  0  0
   -1.3184    0.1338    1.0600 H   0  0  0  0  0  0  0  0  0  0  0  0
   -1.3314    1.6626   -0.9433 H   0  0  0  0  0  0  0  0  0  0  0  0
    0.4334    1.6626   -0.9433 H   0  0  0  0  0  0  0  0  0  0  0  0
   -0.4490    2.3619    0.4145 H   0  0  0  0  0  0  0  0  0  0  0  0
  1  2  1  0
  1  3  1  0
  1  4  1  0
  1 12  1  0
  5  6  2  3
  5  9  1  0
  5 10  1  0
  6  7  1  0
  6 11  1  0
  7  8  1  0
  7 13  1  0
  8 14  1  0
  8 15  1  0
  8 16  1  0
M  RAD  1   7   2
M  END
>  <reaction>  (5) 
rxn_754

>  <mol_properties>  (5) 
{"0": {"label": "*3", "atom_type": "Cs"}, "1": {"label": "*4", "atom_type": "H0"}, "5": {"label": "*0", "atom_type": "Cd"}, "6": {"label": "*1", "atom_type": "Cs"}, "11": {"label": "*2", "atom_type": "H0"}}

>  <type>  (5) 
unop_1

>  <geom_source>  (5) 
Heuristics

$$$$

     RDKit          3D

 16 14  0  0  0  0  0  0  0  0999 V2000
    1.6327    0.0439    1.9891 C   0  0  0  0  0  0  0  0  0  0  0  0
    2.4339   -0.4926    1.4833 H   0  0  0  0  0  0  0  0  0  0  0  0
    1.5733   -0.2851    3.0255 H   0  0  0  0  0  0  0  0  0  0  0  0
    1.2777    1.0719    2.0441 H   0  0  0  0  0  0  0  0  0  0  0  0
   -0.4476   -0.9979   -1.8154 C   0  0  0  0  0  0  0  0  0  0  0  0
   -0.4476   -0.9979   -0.4910 C   0  0  0  0  0  0  0  0  0  0  0  0
   -0.4476    0.2066    0.4024 C   0  0  0  0  0  3  0  0  0  0  0  0
   -0.4476    1.5523   -0.3053 C   0  0  0  0  0  0  0  0  0  0  0  0
   -0.4476   -0.0810   -2.3928 H   0  0  0  0  0  0  0  0  0  0  0  0
   -0.4476   -1.9253   -2.3741 H   0  0  0  0  0  0  0  0  0  0  0  0
   -0.4476   -1.9537    0.0271 H   0  0  0  0  0  0  0  0  0  0  0  0
    0.5957    0.1250    1.1982 H   0  0  0  0  0  0  0  0  0  0  0  0
   -1.3170    0.1386    1.0655 H   0  0  0  0  0  0  0  0  0  0  0  0
   -1.3300    1.6673   -0.9377 H   0  0  0  0  0  0  0  0  0  0  0  0
    0.4348    1.6673   -0.9377 H   0  0  0  0  0  0  0  0  0  0  0  0
   -0.4476    2.3667    0.4200 H   0  0  0  0  0  0  0  0  0  0  0  0
  1  2  1  0
  1  3  1  0
  1  4  1  0
  1 12  1  0
  5  6  2  3
  5  9  1  0
  5 10  1  0
  6  7  1  0
  6 11  1  0
  7  8  1  0
  7 13  1  0
  8 14  1  0
  8 15  1  0
  8 16  1  0
M  RAD  1   7   2
M  END
>  <reaction>  (6) 
rxn_754

>  <mol_properties>  (6) 
{"0": {"label": "*3", "atom_type": "Cs"}, "1": {"label": "*4", "atom_type": "H0"}, "5": {"label": "*0", "atom_type": "Cd"}, "6": {"label": "*1", "atom_type": "Cs"}, "11": {"label": "*2", "atom_type": "H0"}}

>  <type>  (6) 
unop_2

>  <geom_source>  (6) 
Heuristics

$$$$

     RDKit          3D

 16 14  0  0  0  0  0  0  0  0999 V2000
    1.6299    0.0419    1.9815 C   0  0  0  0  0  0  0  0  0  0  0  0
    1.9698    1.0441    2.2383 H   0  0  0  0  0  0  0  0  0  0  0  0
    2.4835   -0.6334    1.9484 H   0  0  0  0  0  0  0  0  0  0  0  0
    1.0148    0.0164    2.8797 H   0  0  0  0  0  0  0  0  0  0  0  0
   -0.4503   -0.9999   -1.8230 C   0  0  0  0  0  0  0  0  0  0  0  0
   -0.4503   -0.9999   -0.4986 C   0  0  0  0  0  0  0  0  0  0  0  0
   -0.4503    0.2046    0.3948 C   0  0  0  0  0  3  0  0  0  0  0  0
   -0.4503    1.5503   -0.3129 C   0  0  0  0  0  0  0  0  0  0  0  0
   -0.4503   -0.0830   -2.4004 H   0  0  0  0  0  0  0  0  0  0  0  0
   -0.4503   -1.9272   -2.3817 H   0  0  0  0  0  0  0  0  0  0  0  0
   -0.4503   -1.9556    0.0195 H   0  0  0  0  0  0  0  0  0  0  0  0
    0.5930    0.1230    1.1906 H   0  0  0  0  0  0  0  0  0  0  0  0
   -1.3197    0.1366    1.0579 H   0  0  0  0  0  0  0  0  0  0  0  0
   -1.3327    1.6654   -0.9453 H   0  0  0  0  0  0  0  0  0  0  0  0
    0.4321    1.6654   -0.9453 H   0  0  0  0  0  0  0  0  0  0  0  0
   -0.4503    2.3647    0.4124 H   0  0  0  0  0  0  0  0  0  0  0  0
  1  2  1  0
  1  3  1  0
  1  4  1  0
  1 12  1  0
  5  6  2  3
  5  9  1  0
  5 10  1  0
  6  7  1  0
  6 11  1  0
  7  8  1  0
  7 13  1  0
  8 14  1  0
  8 15  1  0
  8 16  1  0
M  RAD  1   7   2
M  END
>  <reaction>  (7) 
rxn_754

>  <mol_properties>  (7) 
{"0": {"label": "*3", "atom_type": "Cs"}, "1": {"label": "*4", "atom_type": "H0"}, "5": {"label": "*0", "atom_type": "Cd"}, "6": {"label": "*1", "atom_type": "Cs"}, "11": {"label": "*2", "atom_type": "H0"}}

>  <type>  (7) 
unop_3

>  <geom_source>  (7) 
Heuristics

$$$$

     RDKit          3D

 16 14  0  0  0  0  0  0  0  0999 V2000
    1.6335    0.0412    1.9872 C   0  0  0  0  0  0  0  0  0  0  0  0
    1.5654   -0.8678    2.5829 H   0  0  0  0  0  0  0  0  0  0  0  0
    1.1159    0.8507    2.4996 H   0  0  0  0  0  0  0  0  0  0  0  0
    2.5460    0.4949    1.6035 H   0  0  0  0  0  0  0  0  0  0  0  0
   -0.4467   -1.0007   -1.8174 C   0  0  0  0  0  0  0  0  0  0  0  0
   -0.4467   -1.0007   -0.4930 C   0  0  0  0  0  0  0  0  0  0  0  0
   -0.4467    0.2038    0.4004 C   0  0  0  0  0  3  0  0  0  0  0  0
   -0.4467    1.5496   -0.3073 C   0  0  0  0  0  0  0  0  0  0  0  0
   -0.4467   -0.0838   -2.3948 H   0  0  0  0  0  0  0  0  0  0  0  0
   -0.4467   -1.9280   -2.3760 H   0  0  0  0  0  0  0  0  0  0  0  0
   -0.4467   -1.9564    0.0252 H   0  0  0  0  0  0  0  0  0  0  0  0
    0.5965    0.1223    1.1962 H   0  0  0  0  0  0  0  0  0  0  0  0
   -1.3161    0.1359    1.0636 H   0  0  0  0  0  0  0  0  0  0  0  0
   -1.3292    1.6646   -0.9397 H   0  0  0  0  0  0  0  0  0  0  0  0
    0.4357    1.6646   -0.9397 H   0  0  0  0  0  0  0  0  0  0  0  0
   -0.4467    2.3640    0.4180 H   0  0  0  0  0  0  0  0  0  0  0  0
  1  2  1  0
  1  3  1  0
  1  4  1  0
  1 12  1  0
  5  6  2  3
  5  9  1  0
  5 10  1  0
  6  7  1  0
  6 11  1  0
  7  8  1  0
  7 13  1  0
  8 14  1  0
  8 15  1  0
  8 16  1  0
M  RAD  1   7   2
M  END
>  <reaction>  (8) 
rxn_754

>  <mol_properties>  (8) 
{"0": {"label": "*3", "atom_type": "Cs"}, "1": {"label": "*4", "atom_type": "H0"}, "5": {"label": "*0", "atom_type": "Cd"}, "6": {"label": "*1", "atom_type": "Cs"}, "11": {"label": "*2", "atom_type": "H0"}}

>  <type>  (8) 
unop_4

>  <geom_source>  (8) 
Heuristics

$$$$

     RDKit          3D

 16 14  0  0  0  0  0  0  0  0999 V2000
    1.6256    0.0428    1.9837 C   0  0  0  0  0  0  0  0  0  0  0  0
    1.6472    0.9087    2.6437 H   0  0  0  0  0  0  0  0  0  0  0  0
    2.5362    0.0184    1.3870 H   0  0  0  0  0  0  0  0  0  0  0  0
    1.5799   -0.5595    2.8897 H   0  0  0  0  0  0  0  0  0  0  0  0
   -0.4547   -0.9990   -1.8208 C   0  0  0  0  0  0  0  0  0  0  0  0
   -0.4547   -0.9990   -0.4965 C   0  0  0  0  0  0  0  0  0  0  0  0
   -0.4547    0.2055    0.3970 C   0  0  0  0  0  3  0  0  0  0  0  0
   -0.4547    1.5512   -0.3107 C   0  0  0  0  0  0  0  0  0  0  0  0
   -0.4547   -0.0821   -2.3983 H   0  0  0  0  0  0  0  0  0  0  0  0
   -0.4547   -1.9264   -2.3795 H   0  0  0  0  0  0  0  0  0  0  0  0
   -0.4547   -1.9547    0.0217 H   0  0  0  0  0  0  0  0  0  0  0  0
    0.5886    0.1239    1.1927 H   0  0  0  0  0  0  0  0  0  0  0  0
   -1.3241    0.1375    1.0601 H   0  0  0  0  0  0  0  0  0  0  0  0
   -1.3371    1.6662   -0.9431 H   0  0  0  0  0  0  0  0  0  0  0  0
    0.4278    1.6662   -0.9431 H   0  0  0  0  0  0  0  0  0  0  0  0
   -0.4547    2.3656    0.4146 H   0  0  0  0  0  0  0  0  0  0  0  0
  1  2  1  0
  1  3  1  0
  1  4  1  0
  1 12  1  0
  5  6  2  3
  5  9  1  0
  5 10  1  0
  6  7  1  0
  6 11  1  0
  7  8  1  0
  7 13  1  0
  8 14  1  0
  8 15  1  0
  8 16  1  0
M  RAD  1   7   2
M  END
>  <reaction>  (9) 
rxn_754

>  <mol_properties>  (9) 
{"0": {"label": "*3", "atom_type": "Cs"}, "1": {"label": "*4", "atom_type": "H0"}, "5": {"label": "*0", "atom_type": "Cd"}, "6": {"label": "*1", "atom_type": "Cs"}, "11": {"label": "*2", "atom_type": "H0"}}

>  <type>  (9) 
unop_5

>  <geom_source>  (9) 
Heuristics

$$$$

     RDKit          3D

 16 14  0  0  0  0  0  0  0  0999 V2000
    1.6314    0.0393    1.9861 C   0  0  0  0  0  0  0  0  0  0  0  0
    1.3544   -0.4939    2.8942 H   0  0  0  0  0  0  0  0  0  0  0  0
    1.3100    1.0769    2.0620 H   0  0  0  0  0  0  0  0  0  0  0  0
    2.7045    0.0235    1.8019 H   0  0  0  0  0  0  0  0  0  0  0  0
   -0.4488   -1.0026   -1.8184 C   0  0  0  0  0  0  0  0  0  0  0  0
   -0.4488   -1.0026   -0.4941 C   0  0  0  0  0  0  0  0  0  0  0  0
   -0.4488    0.2019    0.3994 C   0  0  0  0  0  3  0  0  0  0  0  0
   -0.4488    1.5477   -0.3083 C   0  0  0  0  0  0  0  0  0  0  0  0
   -0.4488   -0.0857   -2.3959 H   0  0  0  0  0  0  0  0  0  0  0  0
   -0.4488   -1.9299   -2.3771 H   0  0  0  0  0  0  0  0  0  0  0  0
   -0.4488   -1.9583    0.0241 H   0  0  0  0  0  0  0  0  0  0  0  0
    0.5944    0.1204    1.1951 H   0  0  0  0  0  0  0  0  0  0  0  0
   -1.3182    0.1340    1.0625 H   0  0  0  0  0  0  0  0  0  0  0  0
   -1.3313    1.6627   -0.9407 H   0  0  0  0  0  0  0  0  0  0  0  0
    0.4336    1.6627   -0.9407 H   0  0  0  0  0  0  0  0  0  0  0  0
   -0.4488    2.3620    0.4170 H   0  0  0  0  0  0  0  0  0  0  0  0
  1  2  1  0
  1  3  1  0
  1  4  1  0
  1 12  1  0
  5  6  2  3
  5  9  1  0
  5 10  1  0
  6  7  1  0
  6 11  1  0
  7  8  1  0
  7 13  1  0
  8 14  1  0
  8 15  1  0
  8 16  1  0
M  RAD  1   7   2
M  END
>  <reaction>  (10) 
rxn_754

>  <mol_properties>  (10) 
{"0": {"label": "*3", "atom_type": "Cs"}, "1": {"label": "*4", "atom_type": "H0"}, "5": {"label": "*0", "atom_type": "Cd"}, "6": {"label": "*1", "atom_type": "Cs"}, "11": {"label": "*2", "atom_type": "H0"}}

>  <type>  (10) 
unop_6

>  <geom_source>  (10) 
Heuristics

$$$$

     RDKit          3D

 16 14  0  0  0  0  0  0  0  0999 V2000
    1.6286    0.0378    1.9861 C   0  0  0  0  0  0  0  0  0  0  0  0
    1.2941    0.0172    3.0222 H   0  0  0  0  0  0  0  0  0  0  0  0
    1.6368    1.0661    1.6277 H   0  0  0  0  0  0  0  0  0  0  0  0
    2.6273   -0.3789    2.1071 H   0  0  0  0  0  0  0  0  0  0  0  0
   -0.4516   -1.0040   -1.8184 C   0  0  0  0  0  0  0  0  0  0  0  0
   -0.4516   -1.0040   -0.4941 C   0  0  0  0  0  0  0  0  0  0  0  0
   -0.4516    0.2005    0.3994 C   0  0  0  0  0  3  0  0  0  0  0  0
   -0.4516    1.5462   -0.3083 C   0  0  0  0  0  0  0  0  0  0  0  0
   -0.4516   -0.0871   -2.3958 H   0  0  0  0  0  0  0  0  0  0  0  0
   -0.4516   -1.9313   -2.3771 H   0  0  0  0  0  0  0  0  0  0  0  0
   -0.4516   -1.9597    0.0241 H   0  0  0  0  0  0  0  0  0  0  0  0
    0.5916    0.1189    1.1951 H   0  0  0  0  0  0  0  0  0  0  0  0
   -1.3210    0.1325    1.0625 H   0  0  0  0  0  0  0  0  0  0  0  0
   -1.3341    1.6613   -0.9407 H   0  0  0  0  0  0  0  0  0  0  0  0
    0.4308    1.6613   -0.9407 H   0  0  0  0  0  0  0  0  0  0  0  0
   -0.4516    2.3606    0.4170 H   0  0  0  0  0  0  0  0  0  0  0  0
  1  2  1  0
  1  3  1  0
  1  4  1  0
  1 12  1  0
  5  6  2  3
  5  9  1  0
  5 10  1  0
  6  7  1  0
  6 11  1  0
  7  8  1  0
  7 13  1  0
  8 14  1  0
  8 15  1  0
  8 16  1  0
M  RAD  1   7   2
M  END
>  <reaction>  (11) 
rxn_754

>  <mol_properties>  (11) 
{"0": {"label": "*3", "atom_type": "Cs"}, "1": {"label": "*4", "atom_type": "H0"}, "5": {"label": "*0", "atom_type": "Cd"}, "6": {"label": "*1", "atom_type": "Cs"}, "11": {"label": "*2", "atom_type": "H0"}}

>  <type>  (11) 
unop_7

>  <geom_source>  (11) 
Heuristics

$$$$

     RDKit          3D

 16 14  0  0  0  0  0  0  0  0999 V2000
    1.6307    0.0391    1.9866 C   0  0  0  0  0  0  0  0  0  0  0  0
    2.4838    0.5273    1.5179 H   0  0  0  0  0  0  0  0  0  0  0  0
    1.9830   -0.6561    2.7471 H   0  0  0  0  0  0  0  0  0  0  0  0
    0.9489    0.7468    2.4559 H   0  0  0  0  0  0  0  0  0  0  0  0
   -0.4495   -1.0027   -1.8179 C   0  0  0  0  0  0  0  0  0  0  0  0
   -0.4495   -1.0027   -0.4935 C   0  0  0  0  0  0  0  0  0  0  0  0
   -0.4495    0.2018    0.3999 C   0  0  0  0  0  3  0  0  0  0  0  0
   -0.4495    1.5475   -0.3078 C   0  0  0  0  0  0  0  0  0  0  0  0
   -0.4495   -0.0858   -2.3953 H   0  0  0  0  0  0  0  0  0  0  0  0
   -0.4495   -1.9301   -2.3766 H   0  0  0  0  0  0  0  0  0  0  0  0
   -0.4495   -1.9585    0.0247 H   0  0  0  0  0  0  0  0  0  0  0  0
    0.5937    0.1202    1.1957 H   0  0  0  0  0  0  0  0  0  0  0  0
   -1.3189    0.1338    1.0631 H   0  0  0  0  0  0  0  0  0  0  0  0
   -1.3320    1.6625   -0.9402 H   0  0  0  0  0  0  0  0  0  0  0  0
    0.4329    1.6625   -0.9402 H   0  0  0  0  0  0  0  0  0  0  0  0
   -0.4495    2.3619    0.4175 H   0  0  0  0  0  0  0  0  0  0  0  0
  1  2  1  0
  1  3  1  0
  1  4  1  0
  1 12  1  0
  5  6  2  3
  5  9  1  0
  5 10  1  0
  6  7  1  0
  6 11  1  0
  7  8  1  0
  7 13  1  0
  8 14  1  0
  8 15  1  0
  8 16  1  0
M  RAD  1   7   2
M  END
>  <reaction>  (12) 
rxn_754

>  <mol_properties>  (12) 
{"0": {"label": "*3", "atom_type": "Cs"}, "1": {"label": "*4", "atom_type": "H0"}, "5": {"label": "*0", "atom_type": "Cd"}, "6": {"label": "*1", "atom_type": "Cs"}, "11": {"label": "*2", "atom_type": "H0"}}

>  <type>  (12) 
unop_8

>  <geom_source>  (12) 
Heuristics

$$$$

     RDKit          3D

 16 14  0  0  0  0  0  0  0  0999 V2000
    1.6350    0.0429    1.9883 C   0  0  0  0  0  0  0  0  0  0  0  0
    1.8712   -1.0043    2.1709 H   0  0  0  0  0  0  0  0  0  0  0  0
    1.1074    0.4514    2.8489 H   0  0  0  0  0  0  0  0  0  0  0  0
    2.1511    0.9145    1.5886 H   0  0  0  0  0  0  0  0  0  0  0  0
   -0.4453   -0.9989   -1.8162 C   0  0  0  0  0  0  0  0  0  0  0  0
   -0.4453   -0.9989   -0.4919 C   0  0  0  0  0  0  0  0  0  0  0  0
   -0.4453    0.2056    0.4016 C   0  0  0  0  0  3  0  0  0  0  0  0
   -0.4453    1.5513   -0.3061 C   0  0  0  0  0  0  0  0  0  0  0  0
   -0.4453   -0.0820   -2.3936 H   0  0  0  0  0  0  0  0  0  0  0  0
   -0.4453   -1.9263   -2.3749 H   0  0  0  0  0  0  0  0  0  0  0  0
   -0.4453   -1.9547    0.0263 H   0  0  0  0  0  0  0  0  0  0  0  0
    0.5980    0.1240    1.1973 H   0  0  0  0  0  0  0  0  0  0  0  0
   -1.3147    0.1376    1.0647 H   0  0  0  0  0  0  0  0  0  0  0  0
   -1.3277    1.6663   -0.9385 H   0  0  0  0  0  0  0  0  0  0  0  0
    0.4371    1.6663   -0.9385 H   0  0  0  0  0  0  0  0  0  0  0  0
   -0.4453    2.3657    0.4192 H   0  0  0  0  0  0  0  0  0  0  0  0
  1  2  1  0
  1  3  1  0
  1  4  1  0
  1 12  1  0
  5  6  2  3
  5  9  1  0
  5 10  1  0
  6  7  1  0
  6 11  1  0
  7  8  1  0
  7 13  1  0
  8 14  1  0
  8 15  1  0
  8 16  1  0
M  RAD  1   7   2
M  END
>  <reaction>  (13) 
rxn_754

>  <mol_properties>  (13) 
{"0": {"label": "*3", "atom_type": "Cs"}, "1": {"label": "*4", "atom_type": "H0"}, "5": {"label": "*0", "atom_type": "Cd"}, "6": {"label": "*1", "atom_type": "Cs"}, "11": {"label": "*2", "atom_type": "H0"}}

>  <type>  (13) 
unop_9

>  <geom_source>  (13) 
Heuristics

$$$$

     RDKit          3D

 16 14  0  0  0  0  0  0  0  0999 V2000
    1.6309    0.0415    1.9886 C   0  0  0  0  0  0  0  0  0  0  0  0
    2.5415    0.0170    1.3920 H   0  0  0  0  0  0  0  0  0  0  0  0
    1.7968   -0.4875    2.9259 H   0  0  0  0  0  0  0  0  0  0  0  0
    1.0655    0.9293    2.2679 H   0  0  0  0  0  0  0  0  0  0  0  0
   -0.4494   -1.0004   -1.8159 C   0  0  0  0  0  0  0  0  0  0  0  0
   -0.4494   -1.0004   -0.4915 C   0  0  0  0  0  0  0  0  0  0  0  0
   -0.4494    0.2041    0.4019 C   0  0  0  0  0  3  0  0  0  0  0  0
   -0.4494    1.5499   -0.3058 C   0  0  0  0  0  0  0  0  0  0  0  0
   -0.4494   -0.0835   -2.3933 H   0  0  0  0  0  0  0  0  0  0  0  0
   -0.4494   -1.9277   -2.3746 H   0  0  0  0  0  0  0  0  0  0  0  0
   -0.4494   -1.9561    0.0267 H   0  0  0  0  0  0  0  0  0  0  0  0
    0.5939    0.1226    1.1977 H   0  0  0  0  0  0  0  0  0  0  0  0
   -1.3187    0.1361    1.0651 H   0  0  0  0  0  0  0  0  0  0  0  0
   -1.3318    1.6649   -0.9382 H   0  0  0  0  0  0  0  0  0  0  0  0
    0.4331    1.6649   -0.9382 H   0  0  0  0  0  0  0  0  0  0  0  0
   -0.4494    2.3642    0.4195 H   0  0  0  0  0  0  0  0  0  0  0  0
  1  2  1  0
  1  3  1  0
  1  4  1  0
  1 12  1  0
  5  6  2  3
  5  9  1  0
  5 10  1  0
  6  7  1  0
  6 11  1  0
  7  8  1  0
  7 13  1  0
  8 14  1  0
  8 15  1  0
  8 16  1  0
M  RAD  1   7   2
M  END
>  <reaction>  (14) 
rxn_754

>  <mol_properties>  (14) 
{"0": {"label": "*3", "atom_type": "Cs"}, "1": {"label": "*4", "atom_type": "H0"}, "5": {"label": "*0", "atom_type": "Cd"}, "6": {"label": "*1", "atom_type": "Cs"}, "11": {"label": "*2", "atom_type": "H0"}}

>  <type>  (14) 
unop_10

>  <geom_source>  (14) 
Heuristics

$$$$

     RDKit          3D

 16 14  0  0  0  0  0  0  0  0999 V2000
    1.6254    0.0390    1.9863 C   0  0  0  0  0  0  0  0  0  0  0  0
    1.4002    0.5305    2.9316 H   0  0  0  0  0  0  0  0  0  0  0  0
    2.0903    0.7526    1.3079 H   0  0  0  0  0  0  0  0  0  0  0  0
    2.2870   -0.6560    2.5011 H   0  0  0  0  0  0  0  0  0  0  0  0
   -0.4549   -1.0029   -1.8182 C   0  0  0  0  0  0  0  0  0  0  0  0
   -0.4549   -1.0029   -0.4938 C   0  0  0  0  0  0  0  0  0  0  0  0
   -0.4549    0.2016    0.3996 C   0  0  0  0  0  3  0  0  0  0  0  0
   -0.4549    1.5474   -0.3081 C   0  0  0  0  0  0  0  0  0  0  0  0
   -0.4549   -0.0860   -2.3956 H   0  0  0  0  0  0  0  0  0  0  0  0
   -0.4549   -1.9302   -2.3768 H   0  0  0  0  0  0  0  0  0  0  0  0
   -0.4549   -1.9586    0.0244 H   0  0  0  0  0  0  0  0  0  0  0  0
    0.5884    0.1201    1.1954 H   0  0  0  0  0  0  0  0  0  0  0  0
   -1.3243    0.1337    1.0628 H   0  0  0  0  0  0  0  0  0  0  0  0
   -1.3373    1.6624   -0.9405 H   0  0  0  0  0  0  0  0  0  0  0  0
    0.4276    1.6624   -0.9405 H   0  0  0  0  0  0  0  0  0  0  0  0
   -0.4549    2.3617    0.4172 H   0  0  0  0  0  0  0  0  0  0  0  0
  1  2  1  0
  1  3  1  0
  1  4  1  0
  1 12  1  0
  5  6  2  3
  5  9  1  0
  5 10  1  0
  6  7  1  0
  6 11  1  0
  7  8  1  0
  7 13  1  0
  8 14  1  0
  8 15  1  0
  8 16  1  0
M  RAD  1   7   2
M  END
>  <reaction>  (15) 
rxn_754

>  <mol_properties>  (15) 
{"0": {"label": "*3", "atom_type": "Cs"}, "1": {"label": "*4", "atom_type": "H0"}, "5": {"label": "*0", "atom_type": "Cd"}, "6": {"label": "*1", "atom_type": "Cs"}, "11": {"label": "*2", "atom_type": "H0"}}

>  <type>  (15) 
unop_11

>  <geom_source>  (15) 
Heuristics

$$$$

     RDKit          3D

 16 14  0  0  0  0  0  0  0  0999 V2000
    1.6347    0.0443    1.9889 C   0  0  0  0  0  0  0  0  0  0  0  0
    2.1891   -0.8666    1.7683 H   0  0  0  0  0  0  0  0  0  0  0  0
    1.3002    0.0237    3.0249 H   0  0  0  0  0  0  0  0  0  0  0  0
    1.6573    1.1123    1.7775 H   0  0  0  0  0  0  0  0  0  0  0  0
   -0.4455   -0.9976   -1.8156 C   0  0  0  0  0  0  0  0  0  0  0  0
   -0.4455   -0.9976   -0.4913 C   0  0  0  0  0  0  0  0  0  0  0  0
   -0.4455    0.2069    0.4022 C   0  0  0  0  0  3  0  0  0  0  0  0
   -0.4455    1.5527   -0.3056 C   0  0  0  0  0  0  0  0  0  0  0  0
   -0.4455   -0.0807   -2.3931 H   0  0  0  0  0  0  0  0  0  0  0  0
   -0.4455   -1.9249   -2.3743 H   0  0  0  0  0  0  0  0  0  0  0  0
   -0.4455   -1.9533    0.0269 H   0  0  0  0  0  0  0  0  0  0  0  0
    0.5977    0.1254    1.1979 H   0  0  0  0  0  0  0  0  0  0  0  0
   -1.3149    0.1390    1.0653 H   0  0  0  0  0  0  0  0  0  0  0  0
   -1.3280    1.6677   -0.9380 H   0  0  0  0  0  0  0  0  0  0  0  0
    0.4369    1.6677   -0.9380 H   0  0  0  0  0  0  0  0  0  0  0  0
   -0.4455    2.3670    0.4198 H   0  0  0  0  0  0  0  0  0  0  0  0
  1  2  1  0
  1  3  1  0
  1  4  1  0
  1 12  1  0
  5  6  2  3
  5  9  1  0
  5 10  1  0
  6  7  1  0
  6 11  1  0
  7  8  1  0
  7 13  1  0
  8 14  1  0
  8 15  1  0
  8 16  1  0
M  RAD  1   7   2
M  END
>  <reaction>  (16) 
rxn_754

>  <mol_properties>  (16) 
{"0": {"label": "*3", "atom_type": "Cs"}, "1": {"label": "*4", "atom_type": "H0"}, "5": {"label": "*0", "atom_type": "Cd"}, "6": {"label": "*1", "atom_type": "Cs"}, "11": {"label": "*2", "atom_type": "H0"}}

>  <type>  (16) 
unop_12

>  <geom_source>  (16) 
Heuristics

$$$$

     RDKit          3D

 16 14  0  0  0  0  0  0  0  0999 V2000
   -0.8441   -1.7601   -0.2852 C   0  0  0  0  0  0  0  0  0  0  0  0
    2.2935    0.6207    0.0050 C   0  0  0  0  0  0  0  0  0  0  0  0
   -0.0575   -0.5312    0.1544 C   0  0  0  0  0  3  0  0  0  0  0  0
   -0.9475    0.5212    0.7493 C   0  0  0  0  0  0  0  0  0  0  0  0
   -1.7924    1.2348   -0.0003 C   0  0  0  0  0  0  0  0  0  0  0  0
   -1.4104   -2.1781    0.5739 H   0  0  0  0  0  0  0  0  0  0  0  0
   -0.1385   -2.5328   -0.6547 H   0  0  0  0  0  0  0  0  0  0  0  0
   -1.5494   -1.4998   -1.1027 H   0  0  0  0  0  0  0  0  0  0  0  0
    2.9342    0.7515    0.9012 H   0  0  0  0  0  0  0  0  0  0  0  0
    2.7289   -0.1617   -0.6499 H   0  0  0  0  0  0  0  0  0  0  0  0
    2.2359    1.5788   -0.5514 H   0  0  0  0  0  0  0  0  0  0  0  0
    1.1736    0.2839    0.3515 H   0  0  0  0  0  0  0  0  0  0  0  0
    0.5311   -0.1158   -0.6919 H   0  0  0  0  0  0  0  0  0  0  0  0
   -0.8755    0.7240    1.8129 H   0  0  0  0  0  0  0  0  0  0  0  0
   -1.8696    1.0661   -1.0701 H   0  0  0  0  0  0  0  0  0  0  0  0
   -2.4122    1.9986    0.4579 H   0  0  0  0  0  0  0  0  0  0  0  0
  1  3  1  0
  1  6  1  0
  1  7  1  0
  1  8  1  0
  2  9  1  0
  2 10  1  0
  2 11  1  0
  2 12  1  0
  3  4  1  0
  3 13  1  0
  4  5  2  3
  4 14  1  0
  5 15  1  0
  5 16  1  0
M  RAD  1   3   2
M  END
>  <reaction>  (17) 
rxn_754

>  <mol_properties>  (17) 
{"0": {"label": "*3", "atom_type": "Cs"}, "1": {"label": "*4", "atom_type": "H0"}, "5": {"label": "*0", "atom_type": "Cd"}, "6": {"label": "*1", "atom_type": "Cs"}, "11": {"label": "*2", "atom_type": "H0"}}

>  <type>  (17) 
unop_13

>  <geom_source>  (17) 
AutoTST

$$$$
