
     RDKit          3D

 19 20  0  0  0  0  0  0  0  0999 V2000
    1.1087   -0.4716   -0.9619 C   0  0  0  0  0  0  0  0  0  0  0  0
    0.9355    1.0407   -0.6470 C   0  0  0  0  0  0  0  0  0  0  0  0
   -0.0085    1.0377    0.5657 C   0  0  0  0  0  0  0  0  0  0  0  0
   -1.4093    0.6181    0.0927 C   0  0  0  0  0  0  0  0  0  0  0  0
   -1.2361   -0.8942   -0.2222 C   0  0  0  0  0  0  0  0  0  0  0  0
    0.2422   -1.1516    0.1099 C   0  0  0  0  0  0  0  0  0  0  0  0
    0.4537   -0.2211    1.3118 C   0  0  0  0  0  0  0  0  0  0  0  0
    2.1524   -0.7752   -0.8653 H   0  0  0  0  0  0  0  0  0  0  0  0
    0.7855   -0.7316   -1.9710 H   0  0  0  0  0  0  0  0  0  0  0  0
    1.8918    1.5001   -0.3916 H   0  0  0  0  0  0  0  0  0  0  0  0
    0.5184    1.6005   -1.4855 H   0  0  0  0  0  0  0  0  0  0  0  0
    0.0038    1.9661    1.1351 H   0  0  0  0  0  0  0  0  0  0  0  0
   -1.7351    1.1944   -0.7746 H   0  0  0  0  0  0  0  0  0  0  0  0
   -2.1465    0.7723    0.8824 H   0  0  0  0  0  0  0  0  0  0  0  0
   -1.4680   -1.1377   -1.2601 H   0  0  0  0  0  0  0  0  0  0  0  0
   -1.8859   -1.5030    0.4087 H   0  0  0  0  0  0  0  0  0  0  0  0
    0.4812   -2.2025    0.2673 H   0  0  0  0  0  0  0  0  0  0  0  0
    1.4942   -0.1701    1.6391 H   0  0  0  0  0  0  0  0  0  0  0  0
   -0.1779   -0.4714    2.1666 H   0  0  0  0  0  0  0  0  0  0  0  0
  1  2  1  0
  1  6  1  0
  1  8  1  0
  1  9  1  0
  2  3  1  0
  2 10  1  0
  2 11  1  0
  3  4  1  0
  3  7  1  0
  3 12  1  0
  4  5  1  0
  4 13  1  0
  4 14  1  0
  5  6  1  0
  5 15  1  0
  5 16  1  0
  6  7  1  0
  6 17  1  0
  7 18  1  0
  7 19  1  0
M  END
>  <reaction>  (1) 
rxn_552

>  <mol_properties>  (1) 
{"6": {"label": "donator", "atom_type": "Cs"}, "17": {"label": "d_hydrogen", "atom_type": "H0"}}

>  <type>  (1) 
r1h

$$$$

     RDKit          3D

  9  8  0  0  0  0  0  0  0  0999 V2000
    1.8963   -0.1405   -0.2150 C   0  0  0  0  0  0  0  0  0  0  0  0
    0.6340    0.1486   -0.2254 C   0  0  0  0  0  3  0  0  0  0  0  0
   -0.6770    0.4501   -0.2373 C   0  0  0  0  0  0  0  0  0  0  0  0
   -1.6600   -0.2303    0.4662 C   0  0  0  0  0  0  0  0  0  0  0  0
    2.3274   -0.8354   -0.9313 H   0  0  0  0  0  0  0  0  0  0  0  0
    2.5751    0.2988    0.5117 H   0  0  0  0  0  0  0  0  0  0  0  0
   -0.9723    1.2966   -0.8520 H   0  0  0  0  0  0  0  0  0  0  0  0
   -2.6934    0.0777    0.4015 H   0  0  0  0  0  0  0  0  0  0  0  0
   -1.4140   -1.0782    1.0904 H   0  0  0  0  0  0  0  0  0  0  0  0
  1  2  2  3
  1  5  1  0
  1  6  1  0
  2  3  1  0
  3  4  2  3
  3  7  1  0
  4  8  1  0
  4  9  1  0
M  RAD  1   2   2
M  END
>  <reaction>  (2) 
rxn_552

>  <mol_properties>  (2) 
{"1": {"label": "acceptor", "atom_type": "Cd"}}

>  <type>  (2) 
r2

$$$$

     RDKit          3D

 10  9  0  0  0  0  0  0  0  0999 V2000
    1.8334    0.0847   -0.1062 C   0  0  0  0  0  0  0  0  0  0  0  0
    0.5993   -0.4071   -0.0750 C   0  0  0  0  0  0  0  0  0  0  0  0
   -0.5993    0.4071    0.0750 C   0  0  0  0  0  0  0  0  0  0  0  0
   -1.8334   -0.0847    0.1062 C   0  0  0  0  0  0  0  0  0  0  0  0
    2.0179    1.1498   -0.0189 H   0  0  0  0  0  0  0  0  0  0  0  0
    2.6972   -0.5572   -0.2194 H   0  0  0  0  0  0  0  0  0  0  0  0
    0.4465   -1.4793   -0.1649 H   0  0  0  0  0  0  0  0  0  0  0  0
   -0.4465    1.4793    0.1649 H   0  0  0  0  0  0  0  0  0  0  0  0
   -2.0179   -1.1498    0.0189 H   0  0  0  0  0  0  0  0  0  0  0  0
   -2.6972    0.5572    0.2194 H   0  0  0  0  0  0  0  0  0  0  0  0
  1  2  2  3
  1  5  1  0
  1  6  1  0
  2  3  1  0
  2  7  1  0
  3  4  2  3
  3  8  1  0
  4  9  1  0
  4 10  1  0
M  END
>  <reaction>  (3) 
rxn_552

>  <mol_properties>  (3) 
{"1": {"label": "acceptor", "atom_type": "Cd"}, "9": {"label": "a_hydrogen", "atom_type": "H0"}}

>  <type>  (3) 
r2h

$$$$

     RDKit          3D

 28 28  0  0  0  0  0  0  0  0999 V2000
   -2.6734   -0.1455   -1.3462 C   0  0  0  0  0  0  0  0  0  0  0  0
   -2.1811   -0.1920   -0.1217 C   0  0  0  0  0  3  0  0  0  0  0  0
   -2.7629   -0.7830    1.0644 C   0  0  0  0  0  0  0  0  0  0  0  0
   -2.1956   -0.7750    2.2666 C   0  0  0  0  0  0  0  0  0  0  0  0
   -2.1303    0.3278   -2.1568 H   0  0  0  0  0  0  0  0  0  0  0  0
   -3.6417   -0.5781   -1.5909 H   0  0  0  0  0  0  0  0  0  0  0  0
   -3.7337   -1.2618    0.9351 H   0  0  0  0  0  0  0  0  0  0  0  0
   -2.6770   -1.2334    3.1203 H   0  0  0  0  0  0  0  0  0  0  0  0
   -1.2326   -0.3063    2.4291 H   0  0  0  0  0  0  0  0  0  0  0  0
    1.0398   -0.8569   -1.2624 C   0  0  0  0  0  0  0  0  0  0  0  0
    1.1844   -1.2080    0.2448 C   0  0  0  0  0  0  0  0  0  0  0  0
    1.2080    0.1707    0.9226 C   0  0  1  0  0  0  0  0  0  0  0  0
    2.5384    0.8677    0.5723 C   0  0  0  0  0  0  0  0  0  0  0  0
    2.3627    1.2328   -0.9294 C   0  0  0  0  0  0  0  0  0  0  0  0
    0.9625    0.6798   -1.2592 C   0  0  2  0  0  0  0  0  0  0  0  0
    0.2347    0.9525    0.0507 C   0  0  0  0  0  0  0  0  0  0  0  0
    0.1292   -1.2902   -1.6760 H   0  0  0  0  0  0  0  0  0  0  0  0
    1.8796   -1.2148   -1.8598 H   0  0  0  0  0  0  0  0  0  0  0  0
    0.3285   -1.7889    0.5918 H   0  0  0  0  0  0  0  0  0  0  0  0
    2.0860   -1.7828    0.4609 H   0  0  0  0  0  0  0  0  0  0  0  0
    0.9992    0.1457    1.9911 H   0  0  0  0  0  0  0  0  0  0  0  0
    3.3937    0.2135    0.7502 H   0  0  0  0  0  0  0  0  0  0  0  0
    2.6781    1.7627    1.1802 H   0  0  0  0  0  0  0  0  0  0  0  0
    3.1321    0.7907   -1.5646 H   0  0  0  0  0  0  0  0  0  0  0  0
    2.3960    2.3134   -1.0763 H   0  0  0  0  0  0  0  0  0  0  0  0
    0.5215    1.1065   -2.1588 H   0  0  0  0  0  0  0  0  0  0  0  0
   -0.9509    0.3967    0.0335 H   0  0  0  0  0  0  0  0  0  0  0  0
    0.0604    1.9965    0.3118 H   0  0  0  0  0  0  0  0  0  0  0  0
  1  2  2  3
  1  5  1  0
  1  6  1  0
  2  3  1  0
  3  4  2  3
  3  7  1  0
  4  8  1  0
  4  9  1  0
 10 11  1  0
 10 15  1  0
 10 17  1  0
 10 18  1  0
 11 12  1  0
 11 19  1  0
 11 20  1  0
 12 13  1  0
 12 16  1  0
 12 21  1  1
 13 14  1  0
 13 22  1  0
 13 23  1  0
 14 15  1  0
 14 24  1  0
 14 25  1  0
 15 16  1  0
 15 26  1  6
 16 27  1  0
 16 28  1  0
M  RAD  1   2   2
M  END
>  <reaction>  (4) 
rxn_552

>  <mol_properties>  (4) 
{"1": {"label": "*3", "atom_type": "Cd"}, "2": {"label": "*4", "atom_type": "Cd"}, "11": {"label": "*0", "atom_type": "Cs"}, "15": {"label": "*1", "atom_type": "Cs"}, "26": {"label": "*2", "atom_type": "H0"}}

>  <type>  (4) 
ts

$$$$

     RDKit          3D

 28 28  0  0  0  0  0  0  0  0999 V2000
   -2.1489   -1.2978   -0.8892 C   0  0  0  0  0  0  0  0  0  0  0  0
   -2.1102   -0.2892   -0.0248 C   0  0  0  0  0  0  0  0  0  0  0  0
   -3.1784    0.6882    0.1359 C   0  0  0  0  0  0  0  0  0  0  0  0
   -3.1397    1.6968    1.0003 C   0  0  0  0  0  0  0  0  0  0  0  0
   -1.3320   -2.0021   -0.9761 H   0  0  0  0  0  0  0  0  0  0  0  0
   -3.0034   -1.4501   -1.5395 H   0  0  0  0  0  0  0  0  0  0  0  0
   -4.0487    0.5617   -0.5024 H   0  0  0  0  0  0  0  0  0  0  0  0
   -3.9567    2.4011    1.0872 H   0  0  0  0  0  0  0  0  0  0  0  0
   -2.2853    1.8491    1.6506 H   0  0  0  0  0  0  0  0  0  0  0  0
    1.2002   -1.4268   -0.8020 C   0  0  0  0  0  0  0  0  0  0  0  0
    1.2002   -1.4268    0.7524 C   0  0  0  0  0  0  0  0  0  0  0  0
    1.2002    0.0701    1.1003 C   0  0  0  0  0  0  0  0  0  0  0  0
    2.5795    0.6520    0.7524 C   0  0  0  0  0  0  0  0  0  0  0  0
    2.5795    0.6520   -0.8020 C   0  0  0  0  0  0  0  0  0  0  0  0
    1.2002    0.0701   -1.1499 C   0  0  0  0  0  0  0  0  0  0  0  0
    0.3307    0.6471   -0.0248 C   0  0  0  0  0  3  0  0  0  0  0  0
    0.3065   -1.9150   -1.1941 H   0  0  0  0  0  0  0  0  0  0  0  0
    2.0647   -1.9421   -1.2233 H   0  0  0  0  0  0  0  0  0  0  0  0
    0.3065   -1.9150    1.1445 H   0  0  0  0  0  0  0  0  0  0  0  0
    2.0647   -1.9421    1.1737 H   0  0  0  0  0  0  0  0  0  0  0  0
    0.8758    0.2854    2.1175 H   0  0  0  0  0  0  0  0  0  0  0  0
    3.3903    0.0558    1.1737 H   0  0  0  0  0  0  0  0  0  0  0  0
    2.6819    1.6652    1.1445 H   0  0  0  0  0  0  0  0  0  0  0  0
    3.3903    0.0558   -1.2233 H   0  0  0  0  0  0  0  0  0  0  0  0
    2.6819    1.6652   -1.1941 H   0  0  0  0  0  0  0  0  0  0  0  0
    0.8758    0.2854   -2.1671 H   0  0  0  0  0  0  0  0  0  0  0  0
   -0.8927    0.1778   -0.0248 H   0  0  0  0  0  0  0  0  0  0  0  0
    0.2947    1.7384   -0.0248 H   0  0  0  0  0  0  0  0  0  0  0  0
  1  2  2  3
  1  5  1  0
  1  6  1  0
  2  3  1  0
  2 27  1  0
  3  4  2  3
  3  7  1  0
  4  8  1  0
  4  9  1  0
 10 11  1  0
 10 15  1  0
 10 17  1  0
 10 18  1  0
 11 12  1  0
 11 19  1  0
 11 20  1  0
 12 13  1  0
 12 16  1  0
 12 21  1  0
 13 14  1  0
 13 22  1  0
 13 23  1  0
 14 15  1  0
 14 24  1  0
 14 25  1  0
 15 16  1  0
 15 26  1  0
 16 28  1  0
M  RAD  1  16   2
M  END
>  <reaction>  (5) 
rxn_552

>  <mol_properties>  (5) 
{"1": {"label": "*3", "atom_type": "Cd"}, "2": {"label": "*4", "atom_type": "Cd"}, "11": {"label": "*0", "atom_type": "Cs"}, "15": {"label": "*1", "atom_type": "Cs"}, "26": {"label": "*2", "atom_type": "H0"}}

>  <type>  (5) 
unop_1

>  <geom_source>  (5) 
Heuristics

$$$$

     RDKit          3D

 28 28  0  0  0  0  0  0  0  0999 V2000
   -2.9415    0.1817   -1.3169 C   0  0  0  0  0  0  0  0  0  0  0  0
   -2.2033   -0.0431   -0.2351 C   0  0  0  0  0  0  0  0  0  0  0  0
   -2.7501   -0.4250    1.0601 C   0  0  0  0  0  0  0  0  0  0  0  0
   -2.0118   -0.6498    2.1420 C   0  0  0  0  0  0  0  0  0  0  0  0
   -2.4936    0.4639   -2.2607 H   0  0  0  0  0  0  0  0  0  0  0  0
   -4.0218    0.0899   -1.2910 H   0  0  0  0  0  0  0  0  0  0  0  0
   -3.8306   -0.5251    1.1175 H   0  0  0  0  0  0  0  0  0  0  0  0
   -2.4597   -0.9320    3.0857 H   0  0  0  0  0  0  0  0  0  0  0  0
   -0.9315   -0.5580    2.1160 H   0  0  0  0  0  0  0  0  0  0  0  0
    1.1072   -1.1807   -1.0123 C   0  0  0  0  0  0  0  0  0  0  0  0
    1.1072   -1.1807    0.5421 C   0  0  0  0  0  0  0  0  0  0  0  0
    1.1072    0.3163    0.8900 C   0  0  0  0  0  0  0  0  0  0  0  0
    2.4864    0.8981    0.5421 C   0  0  0  0  0  0  0  0  0  0  0  0
    2.4864    0.8981   -1.0123 C   0  0  0  0  0  0  0  0  0  0  0  0
    1.1072    0.3163   -1.3602 C   0  0  0  0  0  0  0  0  0  0  0  0
    0.2376    0.8932   -0.2351 C   0  0  0  0  0  3  0  0  0  0  0  0
    0.2134   -1.6689   -1.4044 H   0  0  0  0  0  0  0  0  0  0  0  0
    1.9717   -1.6960   -1.4336 H   0  0  0  0  0  0  0  0  0  0  0  0
    0.2134   -1.6689    0.9342 H   0  0  0  0  0  0  0  0  0  0  0  0
    1.9717   -1.6960    0.9634 H   0  0  0  0  0  0  0  0  0  0  0  0
    0.7827    0.5315    1.9073 H   0  0  0  0  0  0  0  0  0  0  0  0
    3.2972    0.3019    0.9634 H   0  0  0  0  0  0  0  0  0  0  0  0
    2.5889    1.9114    0.9342 H   0  0  0  0  0  0  0  0  0  0  0  0
    3.2972    0.3019   -1.4336 H   0  0  0  0  0  0  0  0  0  0  0  0
    2.5889    1.9114   -1.4044 H   0  0  0  0  0  0  0  0  0  0  0  0
    0.7827    0.5315   -2.3774 H   0  0  0  0  0  0  0  0  0  0  0  0
   -0.9858    0.4239   -0.2351 H   0  0  0  0  0  0  0  0  0  0  0  0
    0.2017    1.9846   -0.2351 H   0  0  0  0  0  0  0  0  0  0  0  0
  1  2  2  3
  1  5  1  0
  1  6  1  0
  2  3  1  0
  2 27  1  0
  3  4  2  3
  3  7  1  0
  4  8  1  0
  4  9  1  0
 10 11  1  0
 10 15  1  0
 10 17  1  0
 10 18  1  0
 11 12  1  0
 11 19  1  0
 11 20  1  0
 12 13  1  0
 12 16  1  0
 12 21  1  0
 13 14  1  0
 13 22  1  0
 13 23  1  0
 14 15  1  0
 14 24  1  0
 14 25  1  0
 15 16  1  0
 15 26  1  0
 16 28  1  0
M  RAD  1  16   2
M  END
>  <reaction>  (6) 
rxn_552

>  <mol_properties>  (6) 
{"1": {"label": "*3", "atom_type": "Cd"}, "2": {"label": "*4", "atom_type": "Cd"}, "11": {"label": "*0", "atom_type": "Cs"}, "15": {"label": "*1", "atom_type": "Cs"}, "26": {"label": "*2", "atom_type": "H0"}}

>  <type>  (6) 
unop_2

>  <geom_source>  (6) 
Heuristics

$$$$

     RDKit          3D

 28 28  0  0  0  0  0  0  0  0999 V2000
   -2.1460   -1.5938   -0.0299 C   0  0  0  0  0  0  0  0  0  0  0  0
   -2.1165   -0.2711    0.0956 C   0  0  0  0  0  0  0  0  0  0  0  0
   -3.1513    0.6193   -0.4129 C   0  0  0  0  0  0  0  0  0  0  0  0
   -3.1218    1.9420   -0.2874 C   0  0  0  0  0  0  0  0  0  0  0  0
   -1.3549   -2.2186    0.3634 H   0  0  0  0  0  0  0  0  0  0  0  0
   -2.9667   -2.0939   -0.5324 H   0  0  0  0  0  0  0  0  0  0  0  0
   -3.9874    0.1471   -0.9217 H   0  0  0  0  0  0  0  0  0  0  0  0
   -3.9129    2.5668   -0.6807 H   0  0  0  0  0  0  0  0  0  0  0  0
   -2.3012    2.4421    0.2151 H   0  0  0  0  0  0  0  0  0  0  0  0
    1.1940   -1.4087   -0.6816 C   0  0  0  0  0  0  0  0  0  0  0  0
    1.1940   -1.4087    0.8728 C   0  0  0  0  0  0  0  0  0  0  0  0
    1.1940    0.0882    1.2207 C   0  0  0  0  0  0  0  0  0  0  0  0
    2.5732    0.6701    0.8728 C   0  0  0  0  0  0  0  0  0  0  0  0
    2.5732    0.6701   -0.6816 C   0  0  0  0  0  0  0  0  0  0  0  0
    1.1940    0.0882   -1.0296 C   0  0  0  0  0  0  0  0  0  0  0  0
    0.3244    0.6652    0.0956 C   0  0  0  0  0  3  0  0  0  0  0  0
    0.3002   -1.8969   -1.0738 H   0  0  0  0  0  0  0  0  0  0  0  0
    2.0584   -1.9240   -1.1030 H   0  0  0  0  0  0  0  0  0  0  0  0
    0.3002   -1.8969    1.2649 H   0  0  0  0  0  0  0  0  0  0  0  0
    2.0584   -1.9240    1.2941 H   0  0  0  0  0  0  0  0  0  0  0  0
    0.8695    0.3035    2.2379 H   0  0  0  0  0  0  0  0  0  0  0  0
    3.3840    0.0739    1.2941 H   0  0  0  0  0  0  0  0  0  0  0  0
    2.6756    1.6833    1.2649 H   0  0  0  0  0  0  0  0  0  0  0  0
    3.3840    0.0739   -1.1030 H   0  0  0  0  0  0  0  0  0  0  0  0
    2.6756    1.6833   -1.0738 H   0  0  0  0  0  0  0  0  0  0  0  0
    0.8695    0.3035   -2.0468 H   0  0  0  0  0  0  0  0  0  0  0  0
   -0.8990    0.1959    0.0956 H   0  0  0  0  0  0  0  0  0  0  0  0
    0.2885    1.7565    0.0956 H   0  0  0  0  0  0  0  0  0  0  0  0
  1  2  2  3
  1  5  1  0
  1  6  1  0
  2  3  1  0
  2 27  1  0
  3  4  2  3
  3  7  1  0
  4  8  1  0
  4  9  1  0
 10 11  1  0
 10 15  1  0
 10 17  1  0
 10 18  1  0
 11 12  1  0
 11 19  1  0
 11 20  1  0
 12 13  1  0
 12 16  1  0
 12 21  1  0
 13 14  1  0
 13 22  1  0
 13 23  1  0
 14 15  1  0
 14 24  1  0
 14 25  1  0
 15 16  1  0
 15 26  1  0
 16 28  1  0
M  RAD  1  16   2
M  END
>  <reaction>  (7) 
rxn_552

>  <mol_properties>  (7) 
{"1": {"label": "*3", "atom_type": "Cd"}, "2": {"label": "*4", "atom_type": "Cd"}, "11": {"label": "*0", "atom_type": "Cs"}, "15": {"label": "*1", "atom_type": "Cs"}, "26": {"label": "*2", "atom_type": "H0"}}

>  <type>  (7) 
unop_3

>  <geom_source>  (7) 
Heuristics

$$$$

     RDKit          3D

 28 28  0  0  0  0  0  0  0  0999 V2000
   -3.1617    1.0380   -0.4120 C   0  0  0  0  0  0  0  0  0  0  0  0
   -2.2782    0.1505    0.0326 C   0  0  0  0  0  0  0  0  0  0  0  0
   -2.4186   -1.2906   -0.1281 C   0  0  0  0  0  0  0  0  0  0  0  0
   -1.5351   -2.1781    0.3166 C   0  0  0  0  0  0  0  0  0  0  0  0
   -3.0179    2.1011   -0.2709 H   0  0  0  0  0  0  0  0  0  0  0  0
   -4.0601    0.7261   -0.9332 H   0  0  0  0  0  0  0  0  0  0  0  0
   -3.3096   -1.6340   -0.6469 H   0  0  0  0  0  0  0  0  0  0  0  0
   -1.6789   -3.2413    0.1754 H   0  0  0  0  0  0  0  0  0  0  0  0
   -0.6367   -1.8663    0.8378 H   0  0  0  0  0  0  0  0  0  0  0  0
    1.0323   -0.9871   -0.7446 C   0  0  0  0  0  0  0  0  0  0  0  0
    1.0323   -0.9871    0.8098 C   0  0  0  0  0  0  0  0  0  0  0  0
    1.0323    0.5099    1.1578 C   0  0  0  0  0  0  0  0  0  0  0  0
    2.4115    1.0917    0.8098 C   0  0  0  0  0  0  0  0  0  0  0  0
    2.4115    1.0917   -0.7446 C   0  0  0  0  0  0  0  0  0  0  0  0
    1.0323    0.5099   -1.0925 C   0  0  0  0  0  0  0  0  0  0  0  0
    0.1627    1.0868    0.0326 C   0  0  0  0  0  3  0  0  0  0  0  0
    0.1385   -1.4753   -1.1367 H   0  0  0  0  0  0  0  0  0  0  0  0
    1.8967   -1.5024   -1.1659 H   0  0  0  0  0  0  0  0  0  0  0  0
    0.1385   -1.4753    1.2020 H   0  0  0  0  0  0  0  0  0  0  0  0
    1.8967   -1.5024    1.2312 H   0  0  0  0  0  0  0  0  0  0  0  0
    0.7078    0.7251    2.1750 H   0  0  0  0  0  0  0  0  0  0  0  0
    3.2223    0.4955    1.2312 H   0  0  0  0  0  0  0  0  0  0  0  0
    2.5140    2.1049    1.2020 H   0  0  0  0  0  0  0  0  0  0  0  0
    3.2223    0.4955   -1.1659 H   0  0  0  0  0  0  0  0  0  0  0  0
    2.5140    2.1049   -1.1367 H   0  0  0  0  0  0  0  0  0  0  0  0
    0.7078    0.7251   -2.1097 H   0  0  0  0  0  0  0  0  0  0  0  0
   -1.0607    0.6175    0.0326 H   0  0  0  0  0  0  0  0  0  0  0  0
    0.1268    2.1782    0.0326 H   0  0  0  0  0  0  0  0  0  0  0  0
  1  2  2  3
  1  5  1  0
  1  6  1  0
  2  3  1  0
  2 27  1  0
  3  4  2  3
  3  7  1  0
  4  8  1  0
  4  9  1  0
 10 11  1  0
 10 15  1  0
 10 17  1  0
 10 18  1  0
 11 12  1  0
 11 19  1  0
 11 20  1  0
 12 13  1  0
 12 16  1  0
 12 21  1  0
 13 14  1  0
 13 22  1  0
 13 23  1  0
 14 15  1  0
 14 24  1  0
 14 25  1  0
 15 16  1  0
 15 26  1  0
 16 28  1  0
M  RAD  1  16   2
M  END
>  <reaction>  (8) 
rxn_552

>  <mol_properties>  (8) 
{"1": {"label": "*3", "atom_type": "Cd"}, "2": {"label": "*4", "atom_type": "Cd"}, "11": {"label": "*0", "atom_type": "Cs"}, "15": {"label": "*1", "atom_type": "Cs"}, "26": {"label": "*2", "atom_type": "H0"}}

>  <type>  (8) 
unop_4

>  <geom_source>  (8) 
Heuristics

$$$$

     RDKit          3D

 28 28  0  0  0  0  0  0  0  0999 V2000
   -2.5054   -1.0869    1.1107 C   0  0  0  0  0  0  0  0  0  0  0  0
   -2.1422   -0.2015    0.1887 C   0  0  0  0  0  0  0  0  0  0  0  0
   -3.0284    0.3013   -0.8526 C   0  0  0  0  0  0  0  0  0  0  0  0
   -2.6652    1.1868   -1.7746 C   0  0  0  0  0  0  0  0  0  0  0  0
   -1.8140   -1.4339    1.8673 H   0  0  0  0  0  0  0  0  0  0  0  0
   -3.5105   -1.4933    1.1365 H   0  0  0  0  0  0  0  0  0  0  0  0
   -4.0429   -0.0879   -0.8526 H   0  0  0  0  0  0  0  0  0  0  0  0
   -3.3566    1.5338   -2.5312 H   0  0  0  0  0  0  0  0  0  0  0  0
   -1.6601    1.5932   -1.8005 H   0  0  0  0  0  0  0  0  0  0  0  0
    1.1682   -1.3390   -0.5885 C   0  0  0  0  0  0  0  0  0  0  0  0
    1.1682   -1.3390    0.9659 C   0  0  0  0  0  0  0  0  0  0  0  0
    1.1682    0.1579    1.3138 C   0  0  0  0  0  0  0  0  0  0  0  0
    2.5475    0.7398    0.9659 C   0  0  0  0  0  0  0  0  0  0  0  0
    2.5475    0.7398   -0.5885 C   0  0  0  0  0  0  0  0  0  0  0  0
    1.1682    0.1579   -0.9364 C   0  0  0  0  0  0  0  0  0  0  0  0
    0.2986    0.7349    0.1887 C   0  0  0  0  0  3  0  0  0  0  0  0
    0.2745   -1.8272   -0.9806 H   0  0  0  0  0  0  0  0  0  0  0  0
    2.0327   -1.8543   -1.0098 H   0  0  0  0  0  0  0  0  0  0  0  0
    0.2745   -1.8272    1.3580 H   0  0  0  0  0  0  0  0  0  0  0  0
    2.0327   -1.8543    1.3872 H   0  0  0  0  0  0  0  0  0  0  0  0
    0.8438    0.3732    2.3310 H   0  0  0  0  0  0  0  0  0  0  0  0
    3.3583    0.1436    1.3872 H   0  0  0  0  0  0  0  0  0  0  0  0
    2.6499    1.7530    1.3580 H   0  0  0  0  0  0  0  0  0  0  0  0
    3.3583    0.1436   -1.0098 H   0  0  0  0  0  0  0  0  0  0  0  0
    2.6499    1.7530   -0.9806 H   0  0  0  0  0  0  0  0  0  0  0  0
    0.8438    0.3732   -1.9536 H   0  0  0  0  0  0  0  0  0  0  0  0
   -0.9248    0.2656    0.1887 H   0  0  0  0  0  0  0  0  0  0  0  0
    0.2627    1.8262    0.1887 H   0  0  0  0  0  0  0  0  0  0  0  0
  1  2  2  3
  1  5  1  0
  1  6  1  0
  2  3  1  0
  2 27  1  0
  3  4  2  3
  3  7  1  0
  4  8  1  0
  4  9  1  0
 10 11  1  0
 10 15  1  0
 10 17  1  0
 10 18  1  0
 11 12  1  0
 11 19  1  0
 11 20  1  0
 12 13  1  0
 12 16  1  0
 12 21  1  0
 13 14  1  0
 13 22  1  0
 13 23  1  0
 14 15  1  0
 14 24  1  0
 14 25  1  0
 15 16  1  0
 15 26  1  0
 16 28  1  0
M  RAD  1  16   2
M  END
>  <reaction>  (9) 
rxn_552

>  <mol_properties>  (9) 
{"1": {"label": "*3", "atom_type": "Cd"}, "2": {"label": "*4", "atom_type": "Cd"}, "11": {"label": "*0", "atom_type": "Cs"}, "15": {"label": "*1", "atom_type": "Cs"}, "26": {"label": "*2", "atom_type": "H0"}}

>  <type>  (9) 
unop_5

>  <geom_source>  (9) 
Heuristics

$$$$

     RDKit          3D

 28 28  0  0  0  0  0  0  0  0999 V2000
   -3.1040    1.1316    0.2007 C   0  0  0  0  0  0  0  0  0  0  0  0
   -2.2615    0.1054    0.1464 C   0  0  0  0  0  0  0  0  0  0  0  0
   -2.4929   -1.0986   -0.6404 C   0  0  0  0  0  0  0  0  0  0  0  0
   -1.6503   -2.1248   -0.6947 C   0  0  0  0  0  0  0  0  0  0  0  0
   -2.8925    2.0081    0.7990 H   0  0  0  0  0  0  0  0  0  0  0  0
   -4.0356    1.1259   -0.3545 H   0  0  0  0  0  0  0  0  0  0  0  0
   -3.4187   -1.1339   -1.2082 H   0  0  0  0  0  0  0  0  0  0  0  0
   -1.8618   -3.0013   -1.2930 H   0  0  0  0  0  0  0  0  0  0  0  0
   -0.7188   -2.1190   -0.1395 H   0  0  0  0  0  0  0  0  0  0  0  0
    1.0490   -1.0321   -0.6308 C   0  0  0  0  0  0  0  0  0  0  0  0
    1.0490   -1.0321    0.9236 C   0  0  0  0  0  0  0  0  0  0  0  0
    1.0490    0.4648    1.2715 C   0  0  0  0  0  0  0  0  0  0  0  0
    2.4282    1.0467    0.9236 C   0  0  0  0  0  0  0  0  0  0  0  0
    2.4282    1.0467   -0.6308 C   0  0  0  0  0  0  0  0  0  0  0  0
    1.0490    0.4648   -0.9787 C   0  0  0  0  0  0  0  0  0  0  0  0
    0.1794    1.0418    0.1464 C   0  0  0  0  0  3  0  0  0  0  0  0
    0.1552   -1.5203   -1.0229 H   0  0  0  0  0  0  0  0  0  0  0  0
    1.9135   -1.5474   -1.0521 H   0  0  0  0  0  0  0  0  0  0  0  0
    0.1552   -1.5203    1.3157 H   0  0  0  0  0  0  0  0  0  0  0  0
    1.9135   -1.5474    1.3449 H   0  0  0  0  0  0  0  0  0  0  0  0
    0.7245    0.6801    2.2887 H   0  0  0  0  0  0  0  0  0  0  0  0
    3.2390    0.4505    1.3449 H   0  0  0  0  0  0  0  0  0  0  0  0
    2.5307    2.0599    1.3157 H   0  0  0  0  0  0  0  0  0  0  0  0
    3.2390    0.4505   -1.0521 H   0  0  0  0  0  0  0  0  0  0  0  0
    2.5307    2.0599   -1.0229 H   0  0  0  0  0  0  0  0  0  0  0  0
    0.7245    0.6801   -1.9959 H   0  0  0  0  0  0  0  0  0  0  0  0
   -1.0440    0.5725    0.1464 H   0  0  0  0  0  0  0  0  0  0  0  0
    0.1435    2.1331    0.1464 H   0  0  0  0  0  0  0  0  0  0  0  0
  1  2  2  3
  1  5  1  0
  1  6  1  0
  2  3  1  0
  2 27  1  0
  3  4  2  3
  3  7  1  0
  4  8  1  0
  4  9  1  0
 10 11  1  0
 10 15  1  0
 10 17  1  0
 10 18  1  0
 11 12  1  0
 11 19  1  0
 11 20  1  0
 12 13  1  0
 12 16  1  0
 12 21  1  0
 13 14  1  0
 13 22  1  0
 13 23  1  0
 14 15  1  0
 14 24  1  0
 14 25  1  0
 15 16  1  0
 15 26  1  0
 16 28  1  0
M  RAD  1  16   2
M  END
>  <reaction>  (10) 
rxn_552

>  <mol_properties>  (10) 
{"1": {"label": "*3", "atom_type": "Cd"}, "2": {"label": "*4", "atom_type": "Cd"}, "11": {"label": "*0", "atom_type": "Cs"}, "15": {"label": "*1", "atom_type": "Cs"}, "26": {"label": "*2", "atom_type": "H0"}}

>  <type>  (10) 
unop_6

>  <geom_source>  (10) 
Heuristics

$$$$

     RDKit          3D

 28 28  0  0  0  0  0  0  0  0999 V2000
   -2.9860    0.8843    0.8766 C   0  0  0  0  0  0  0  0  0  0  0  0
   -2.2264    0.0136    0.2203 C   0  0  0  0  0  0  0  0  0  0  0  0
   -2.6486   -0.6929   -0.9818 C   0  0  0  0  0  0  0  0  0  0  0  0
   -1.8890   -1.5636   -1.6382 C   0  0  0  0  0  0  0  0  0  0  0  0
   -2.6322    1.3875    1.7669 H   0  0  0  0  0  0  0  0  0  0  0  0
   -3.9898    1.1212    0.5414 H   0  0  0  0  0  0  0  0  0  0  0  0
   -3.6505   -0.4762   -1.3424 H   0  0  0  0  0  0  0  0  0  0  0  0
   -2.2428   -2.0668   -2.5284 H   0  0  0  0  0  0  0  0  0  0  0  0
   -0.8852   -1.8006   -1.3030 H   0  0  0  0  0  0  0  0  0  0  0  0
    1.0841   -1.1240   -0.5569 C   0  0  0  0  0  0  0  0  0  0  0  0
    1.0841   -1.1240    0.9974 C   0  0  0  0  0  0  0  0  0  0  0  0
    1.0841    0.3730    1.3454 C   0  0  0  0  0  0  0  0  0  0  0  0
    2.4633    0.9548    0.9974 C   0  0  0  0  0  0  0  0  0  0  0  0
    2.4633    0.9548   -0.5569 C   0  0  0  0  0  0  0  0  0  0  0  0
    1.0841    0.3730   -0.9049 C   0  0  0  0  0  0  0  0  0  0  0  0
    0.2145    0.9499    0.2203 C   0  0  0  0  0  3  0  0  0  0  0  0
    0.1903   -1.6122   -0.9491 H   0  0  0  0  0  0  0  0  0  0  0  0
    1.9486   -1.6393   -0.9783 H   0  0  0  0  0  0  0  0  0  0  0  0
    0.1903   -1.6122    1.3896 H   0  0  0  0  0  0  0  0  0  0  0  0
    1.9486   -1.6393    1.4188 H   0  0  0  0  0  0  0  0  0  0  0  0
    0.7596    0.5882    2.3626 H   0  0  0  0  0  0  0  0  0  0  0  0
    3.2741    0.3586    1.4188 H   0  0  0  0  0  0  0  0  0  0  0  0
    2.5658    1.9680    1.3896 H   0  0  0  0  0  0  0  0  0  0  0  0
    3.2741    0.3586   -0.9783 H   0  0  0  0  0  0  0  0  0  0  0  0
    2.5658    1.9680   -0.9491 H   0  0  0  0  0  0  0  0  0  0  0  0
    0.7596    0.5882   -1.9221 H   0  0  0  0  0  0  0  0  0  0  0  0
   -1.0089    0.4806    0.2203 H   0  0  0  0  0  0  0  0  0  0  0  0
    0.1786    2.0413    0.2203 H   0  0  0  0  0  0  0  0  0  0  0  0
  1  2  2  3
  1  5  1  0
  1  6  1  0
  2  3  1  0
  2 27  1  0
  3  4  2  3
  3  7  1  0
  4  8  1  0
  4  9  1  0
 10 11  1  0
 10 15  1  0
 10 17  1  0
 10 18  1  0
 11 12  1  0
 11 19  1  0
 11 20  1  0
 12 13  1  0
 12 16  1  0
 12 21  1  0
 13 14  1  0
 13 22  1  0
 13 23  1  0
 14 15  1  0
 14 24  1  0
 14 25  1  0
 15 16  1  0
 15 26  1  0
 16 28  1  0
M  RAD  1  16   2
M  END
>  <reaction>  (11) 
rxn_552

>  <mol_properties>  (11) 
{"1": {"label": "*3", "atom_type": "Cd"}, "2": {"label": "*4", "atom_type": "Cd"}, "11": {"label": "*0", "atom_type": "Cs"}, "15": {"label": "*1", "atom_type": "Cs"}, "26": {"label": "*2", "atom_type": "H0"}}

>  <type>  (11) 
unop_7

>  <geom_source>  (11) 
Heuristics

$$$$

     RDKit          3D

 28 28  0  0  0  0  0  0  0  0999 V2000
   -2.3753   -0.7682   -1.3367 C   0  0  0  0  0  0  0  0  0  0  0  0
   -2.1259   -0.2480   -0.1396 C   0  0  0  0  0  0  0  0  0  0  0  0
   -3.1032    0.4925    0.6472 C   0  0  0  0  0  0  0  0  0  0  0  0
   -2.8539    1.0127    1.8443 C   0  0  0  0  0  0  0  0  0  0  0  0
   -1.6190   -1.3118   -1.8876 H   0  0  0  0  0  0  0  0  0  0  0  0
   -3.3484   -0.6655   -1.8041 H   0  0  0  0  0  0  0  0  0  0  0  0
   -4.0885    0.6121    0.2048 H   0  0  0  0  0  0  0  0  0  0  0  0
   -3.6101    1.5563    2.3952 H   0  0  0  0  0  0  0  0  0  0  0  0
   -1.8807    0.9100    2.3118 H   0  0  0  0  0  0  0  0  0  0  0  0
    1.1845   -1.3855   -0.9168 C   0  0  0  0  0  0  0  0  0  0  0  0
    1.1845   -1.3855    0.6376 C   0  0  0  0  0  0  0  0  0  0  0  0
    1.1845    0.1114    0.9856 C   0  0  0  0  0  0  0  0  0  0  0  0
    2.5638    0.6933    0.6376 C   0  0  0  0  0  0  0  0  0  0  0  0
    2.5638    0.6933   -0.9168 C   0  0  0  0  0  0  0  0  0  0  0  0
    1.1845    0.1114   -1.2647 C   0  0  0  0  0  0  0  0  0  0  0  0
    0.3150    0.6884   -0.1396 C   0  0  0  0  0  3  0  0  0  0  0  0
    0.2908   -1.8737   -1.3089 H   0  0  0  0  0  0  0  0  0  0  0  0
    2.0490   -1.9008   -1.3381 H   0  0  0  0  0  0  0  0  0  0  0  0
    0.2908   -1.8737    1.0297 H   0  0  0  0  0  0  0  0  0  0  0  0
    2.0490   -1.9008    1.0590 H   0  0  0  0  0  0  0  0  0  0  0  0
    0.8601    0.3267    2.0028 H   0  0  0  0  0  0  0  0  0  0  0  0
    3.3746    0.0971    1.0590 H   0  0  0  0  0  0  0  0  0  0  0  0
    2.6662    1.7065    1.0297 H   0  0  0  0  0  0  0  0  0  0  0  0
    3.3746    0.0971   -1.3381 H   0  0  0  0  0  0  0  0  0  0  0  0
    2.6662    1.7065   -1.3089 H   0  0  0  0  0  0  0  0  0  0  0  0
    0.8601    0.3267   -2.2819 H   0  0  0  0  0  0  0  0  0  0  0  0
   -0.9084    0.2191   -0.1396 H   0  0  0  0  0  0  0  0  0  0  0  0
    0.2790    1.7797   -0.1396 H   0  0  0  0  0  0  0  0  0  0  0  0
  1  2  2  3
  1  5  1  0
  1  6  1  0
  2  3  1  0
  2 27  1  0
  3  4  2  3
  3  7  1  0
  4  8  1  0
  4  9  1  0
 10 11  1  0
 10 15  1  0
 10 17  1  0
 10 18  1  0
 11 12  1  0
 11 19  1  0
 11 20  1  0
 12 13  1  0
 12 16  1  0
 12 21  1  0
 13 14  1  0
 13 22  1  0
 13 23  1  0
 14 15  1  0
 14 24  1  0
 14 25  1  0
 15 16  1  0
 15 26  1  0
 16 28  1  0
M  RAD  1  16   2
M  END
>  <reaction>  (12) 
rxn_552

>  <mol_properties>  (12) 
{"1": {"label": "*3", "atom_type": "Cd"}, "2": {"label": "*4", "atom_type": "Cd"}, "11": {"label": "*0", "atom_type": "Cs"}, "15": {"label": "*1", "atom_type": "Cs"}, "26": {"label": "*2", "atom_type": "H0"}}

>  <type>  (12) 
unop_8

>  <geom_source>  (12) 
Heuristics

$$$$

     RDKit          3D

 28 28  0  0  0  0  0  0  0  0999 V2000
   -3.1666    0.7684   -0.8422 C   0  0  0  0  0  0  0  0  0  0  0  0
   -2.2719    0.1358   -0.0903 C   0  0  0  0  0  0  0  0  0  0  0  0
   -2.4457   -1.2183    0.4181 C   0  0  0  0  0  0  0  0  0  0  0  0
   -1.5510   -1.8510    1.1699 C   0  0  0  0  0  0  0  0  0  0  0  0
   -2.9968    1.7758   -1.1990 H   0  0  0  0  0  0  0  0  0  0  0  0
   -4.1006    0.2953   -1.1247 H   0  0  0  0  0  0  0  0  0  0  0  0
   -3.3726   -1.7189    0.1514 H   0  0  0  0  0  0  0  0  0  0  0  0
   -1.7208   -2.8583    1.5268 H   0  0  0  0  0  0  0  0  0  0  0  0
   -0.6170   -1.3779    1.4525 H   0  0  0  0  0  0  0  0  0  0  0  0
    1.0385   -1.0018   -0.8675 C   0  0  0  0  0  0  0  0  0  0  0  0
    1.0385   -1.0018    0.6869 C   0  0  0  0  0  0  0  0  0  0  0  0
    1.0386    0.4952    1.0348 C   0  0  0  0  0  0  0  0  0  0  0  0
    2.4178    1.0770    0.6869 C   0  0  0  0  0  0  0  0  0  0  0  0
    2.4178    1.0770   -0.8675 C   0  0  0  0  0  0  0  0  0  0  0  0
    1.0385    0.4952   -1.2155 C   0  0  0  0  0  0  0  0  0  0  0  0
    0.1690    1.0721   -0.0903 C   0  0  0  0  0  3  0  0  0  0  0  0
    0.1448   -1.4900   -1.2596 H   0  0  0  0  0  0  0  0  0  0  0  0
    1.9030   -1.5171   -1.2889 H   0  0  0  0  0  0  0  0  0  0  0  0
    0.1448   -1.4900    1.0790 H   0  0  0  0  0  0  0  0  0  0  0  0
    1.9030   -1.5171    1.1082 H   0  0  0  0  0  0  0  0  0  0  0  0
    0.7141    0.7104    2.0520 H   0  0  0  0  0  0  0  0  0  0  0  0
    3.2286    0.4808    1.1082 H   0  0  0  0  0  0  0  0  0  0  0  0
    2.5202    2.0902    1.0790 H   0  0  0  0  0  0  0  0  0  0  0  0
    3.2286    0.4808   -1.2889 H   0  0  0  0  0  0  0  0  0  0  0  0
    2.5202    2.0902   -1.2596 H   0  0  0  0  0  0  0  0  0  0  0  0
    0.7141    0.7104   -2.2327 H   0  0  0  0  0  0  0  0  0  0  0  0
   -1.0544    0.6028   -0.0903 H   0  0  0  0  0  0  0  0  0  0  0  0
    0.1330    2.1635   -0.0903 H   0  0  0  0  0  0  0  0  0  0  0  0
  1  2  2  3
  1  5  1  0
  1  6  1  0
  2  3  1  0
  2 27  1  0
  3  4  2  3
  3  7  1  0
  4  8  1  0
  4  9  1  0
 10 11  1  0
 10 15  1  0
 10 17  1  0
 10 18  1  0
 11 12  1  0
 11 19  1  0
 11 20  1  0
 12 13  1  0
 12 16  1  0
 12 21  1  0
 13 14  1  0
 13 22  1  0
 13 23  1  0
 14 15  1  0
 14 24  1  0
 14 25  1  0
 15 16  1  0
 15 26  1  0
 16 28  1  0
M  RAD  1  16   2
M  END
>  <reaction>  (13) 
rxn_552

>  <mol_properties>  (13) 
{"1": {"label": "*3", "atom_type": "Cd"}, "2": {"label": "*4", "atom_type": "Cd"}, "11": {"label": "*0", "atom_type": "Cs"}, "15": {"label": "*1", "atom_type": "Cs"}, "26": {"label": "*2", "atom_type": "H0"}}

>  <type>  (13) 
unop_9

>  <geom_source>  (13) 
Heuristics

$$$$

     RDKit          3D

 28 28  0  0  0  0  0  0  0  0999 V2000
   -2.6745   -0.2321   -1.4398 C   0  0  0  0  0  0  0  0  0  0  0  0
   -2.1599   -0.1578   -0.2169 C   0  0  0  0  0  0  0  0  0  0  0  0
   -2.9464    0.0850    0.9852 C   0  0  0  0  0  0  0  0  0  0  0  0
   -2.4318    0.1593    2.2081 C   0  0  0  0  0  0  0  0  0  0  0  0
   -2.0529   -0.4144   -2.3066 H   0  0  0  0  0  0  0  0  0  0  0  0
   -3.7386   -0.1122   -1.6117 H   0  0  0  0  0  0  0  0  0  0  0  0
   -4.0167    0.2095    0.8449 H   0  0  0  0  0  0  0  0  0  0  0  0
   -3.0534    0.3416    3.0749 H   0  0  0  0  0  0  0  0  0  0  0  0
   -1.3677    0.0394    2.3800 H   0  0  0  0  0  0  0  0  0  0  0  0
    1.1505   -1.2954   -0.9941 C   0  0  0  0  0  0  0  0  0  0  0  0
    1.1505   -1.2954    0.5603 C   0  0  0  0  0  0  0  0  0  0  0  0
    1.1505    0.2016    0.9083 C   0  0  0  0  0  0  0  0  0  0  0  0
    2.5298    0.7834    0.5603 C   0  0  0  0  0  0  0  0  0  0  0  0
    2.5298    0.7834   -0.9941 C   0  0  0  0  0  0  0  0  0  0  0  0
    1.1505    0.2016   -1.3420 C   0  0  0  0  0  0  0  0  0  0  0  0
    0.2810    0.7785   -0.2169 C   0  0  0  0  0  3  0  0  0  0  0  0
    0.2568   -1.7836   -1.3862 H   0  0  0  0  0  0  0  0  0  0  0  0
    2.0150   -1.8107   -1.4154 H   0  0  0  0  0  0  0  0  0  0  0  0
    0.2568   -1.7836    0.9525 H   0  0  0  0  0  0  0  0  0  0  0  0
    2.0150   -1.8107    0.9817 H   0  0  0  0  0  0  0  0  0  0  0  0
    0.8261    0.4168    1.9255 H   0  0  0  0  0  0  0  0  0  0  0  0
    3.3406    0.1872    0.9817 H   0  0  0  0  0  0  0  0  0  0  0  0
    2.6322    1.7966    0.9525 H   0  0  0  0  0  0  0  0  0  0  0  0
    3.3406    0.1872   -1.4154 H   0  0  0  0  0  0  0  0  0  0  0  0
    2.6322    1.7966   -1.3862 H   0  0  0  0  0  0  0  0  0  0  0  0
    0.8261    0.4168   -2.3592 H   0  0  0  0  0  0  0  0  0  0  0  0
   -0.9424    0.3092   -0.2169 H   0  0  0  0  0  0  0  0  0  0  0  0
    0.2450    1.8698   -0.2169 H   0  0  0  0  0  0  0  0  0  0  0  0
  1  2  2  3
  1  5  1  0
  1  6  1  0
  2  3  1  0
  2 27  1  0
  3  4  2  3
  3  7  1  0
  4  8  1  0
  4  9  1  0
 10 11  1  0
 10 15  1  0
 10 17  1  0
 10 18  1  0
 11 12  1  0
 11 19  1  0
 11 20  1  0
 12 13  1  0
 12 16  1  0
 12 21  1  0
 13 14  1  0
 13 22  1  0
 13 23  1  0
 14 15  1  0
 14 24  1  0
 14 25  1  0
 15 16  1  0
 15 26  1  0
 16 28  1  0
M  RAD  1  16   2
M  END
>  <reaction>  (14) 
rxn_552

>  <mol_properties>  (14) 
{"1": {"label": "*3", "atom_type": "Cd"}, "2": {"label": "*4", "atom_type": "Cd"}, "11": {"label": "*0", "atom_type": "Cs"}, "15": {"label": "*1", "atom_type": "Cs"}, "26": {"label": "*2", "atom_type": "H0"}}

>  <type>  (14) 
unop_10

>  <geom_source>  (14) 
Heuristics

$$$$

     RDKit          3D

 28 28  0  0  0  0  0  0  0  0999 V2000
   -2.8135    0.1462    1.3782 C   0  0  0  0  0  0  0  0  0  0  0  0
   -2.1825   -0.0992    0.2347 C   0  0  0  0  0  0  0  0  0  0  0  0
   -2.8444   -0.1810   -1.0605 C   0  0  0  0  0  0  0  0  0  0  0  0
   -2.2133   -0.4264   -2.2040 C   0  0  0  0  0  0  0  0  0  0  0  0
   -2.2821    0.1984    2.3194 H   0  0  0  0  0  0  0  0  0  0  0  0
   -3.8862    0.3031    1.4074 H   0  0  0  0  0  0  0  0  0  0  0  0
   -3.9202   -0.0280   -1.0634 H   0  0  0  0  0  0  0  0  0  0  0  0
   -2.7447   -0.4786   -3.1452 H   0  0  0  0  0  0  0  0  0  0  0  0
   -1.1406   -0.5832   -2.2332 H   0  0  0  0  0  0  0  0  0  0  0  0
    1.1280   -1.2368   -0.5425 C   0  0  0  0  0  0  0  0  0  0  0  0
    1.1280   -1.2368    1.0119 C   0  0  0  0  0  0  0  0  0  0  0  0
    1.1280    0.2602    1.3599 C   0  0  0  0  0  0  0  0  0  0  0  0
    2.5072    0.8420    1.0119 C   0  0  0  0  0  0  0  0  0  0  0  0
    2.5072    0.8420   -0.5425 C   0  0  0  0  0  0  0  0  0  0  0  0
    1.1280    0.2602   -0.8904 C   0  0  0  0  0  0  0  0  0  0  0  0
    0.2584    0.8371    0.2347 C   0  0  0  0  0  3  0  0  0  0  0  0
    0.2343   -1.7250   -0.9346 H   0  0  0  0  0  0  0  0  0  0  0  0
    1.9925   -1.7521   -0.9638 H   0  0  0  0  0  0  0  0  0  0  0  0
    0.2343   -1.7250    1.4040 H   0  0  0  0  0  0  0  0  0  0  0  0
    1.9925   -1.7521    1.4332 H   0  0  0  0  0  0  0  0  0  0  0  0
    0.8036    0.4755    2.3771 H   0  0  0  0  0  0  0  0  0  0  0  0
    3.3180    0.2458    1.4332 H   0  0  0  0  0  0  0  0  0  0  0  0
    2.6097    1.8553    1.4040 H   0  0  0  0  0  0  0  0  0  0  0  0
    3.3180    0.2458   -0.9638 H   0  0  0  0  0  0  0  0  0  0  0  0
    2.6097    1.8553   -0.9346 H   0  0  0  0  0  0  0  0  0  0  0  0
    0.8036    0.4755   -1.9076 H   0  0  0  0  0  0  0  0  0  0  0  0
   -0.9650    0.3678    0.2347 H   0  0  0  0  0  0  0  0  0  0  0  0
    0.2225    1.9285    0.2347 H   0  0  0  0  0  0  0  0  0  0  0  0
  1  2  2  3
  1  5  1  0
  1  6  1  0
  2  3  1  0
  2 27  1  0
  3  4  2  3
  3  7  1  0
  4  8  1  0
  4  9  1  0
 10 11  1  0
 10 15  1  0
 10 17  1  0
 10 18  1  0
 11 12  1  0
 11 19  1  0
 11 20  1  0
 12 13  1  0
 12 16  1  0
 12 21  1  0
 13 14  1  0
 13 22  1  0
 13 23  1  0
 14 15  1  0
 14 24  1  0
 14 25  1  0
 15 16  1  0
 15 26  1  0
 16 28  1  0
M  RAD  1  16   2
M  END
>  <reaction>  (15) 
rxn_552

>  <mol_properties>  (15) 
{"1": {"label": "*3", "atom_type": "Cd"}, "2": {"label": "*4", "atom_type": "Cd"}, "11": {"label": "*0", "atom_type": "Cs"}, "15": {"label": "*1", "atom_type": "Cs"}, "26": {"label": "*2", "atom_type": "H0"}}

>  <type>  (15) 
unop_11

>  <geom_source>  (15) 
Heuristics

$$$$

     RDKit          3D

 28 28  0  0  0  0  0  0  0  0999 V2000
   -3.1066    0.4801   -1.1107 C   0  0  0  0  0  0  0  0  0  0  0  0
   -2.2444    0.0648   -0.1887 C   0  0  0  0  0  0  0  0  0  0  0  0
   -2.5669   -0.9016    0.8526 C   0  0  0  0  0  0  0  0  0  0  0  0
   -1.7047   -1.3170    1.7746 C   0  0  0  0  0  0  0  0  0  0  0  0
   -2.8246    1.2006   -1.8673 H   0  0  0  0  0  0  0  0  0  0  0  0
   -4.1256    0.1101   -1.1365 H   0  0  0  0  0  0  0  0  0  0  0  0
   -3.5815   -1.2908    0.8526 H   0  0  0  0  0  0  0  0  0  0  0  0
   -1.9866   -2.0374    2.5312 H   0  0  0  0  0  0  0  0  0  0  0  0
   -0.6856   -0.9470    1.8005 H   0  0  0  0  0  0  0  0  0  0  0  0
    1.0661   -1.0728   -0.9659 C   0  0  0  0  0  0  0  0  0  0  0  0
    1.0661   -1.0728    0.5885 C   0  0  0  0  0  0  0  0  0  0  0  0
    1.0661    0.4242    0.9364 C   0  0  0  0  0  0  0  0  0  0  0  0
    2.4453    1.0060    0.5885 C   0  0  0  0  0  0  0  0  0  0  0  0
    2.4453    1.0060   -0.9659 C   0  0  0  0  0  0  0  0  0  0  0  0
    1.0661    0.4242   -1.3138 C   0  0  0  0  0  0  0  0  0  0  0  0
    0.1965    1.0011   -0.1887 C   0  0  0  0  0  3  0  0  0  0  0  0
    0.1724   -1.5610   -1.3580 H   0  0  0  0  0  0  0  0  0  0  0  0
    1.9306   -1.5881   -1.3872 H   0  0  0  0  0  0  0  0  0  0  0  0
    0.1724   -1.5610    0.9806 H   0  0  0  0  0  0  0  0  0  0  0  0
    1.9306   -1.5881    1.0098 H   0  0  0  0  0  0  0  0  0  0  0  0
    0.7417    0.6394    1.9536 H   0  0  0  0  0  0  0  0  0  0  0  0
    3.2561    0.4098    1.0098 H   0  0  0  0  0  0  0  0  0  0  0  0
    2.5478    2.0192    0.9806 H   0  0  0  0  0  0  0  0  0  0  0  0
    3.2561    0.4098   -1.3872 H   0  0  0  0  0  0  0  0  0  0  0  0
    2.5478    2.0192   -1.3580 H   0  0  0  0  0  0  0  0  0  0  0  0
    0.7417    0.6394   -2.3310 H   0  0  0  0  0  0  0  0  0  0  0  0
   -1.0269    0.5318   -0.1887 H   0  0  0  0  0  0  0  0  0  0  0  0
    0.1606    2.0924   -0.1887 H   0  0  0  0  0  0  0  0  0  0  0  0
  1  2  2  3
  1  5  1  0
  1  6  1  0
  2  3  1  0
  2 27  1  0
  3  4  2  3
  3  7  1  0
  4  8  1  0
  4  9  1  0
 10 11  1  0
 10 15  1  0
 10 17  1  0
 10 18  1  0
 11 12  1  0
 11 19  1  0
 11 20  1  0
 12 13  1  0
 12 16  1  0
 12 21  1  0
 13 14  1  0
 13 22  1  0
 13 23  1  0
 14 15  1  0
 14 24  1  0
 14 25  1  0
 15 16  1  0
 15 26  1  0
 16 28  1  0
M  RAD  1  16   2
M  END
>  <reaction>  (16) 
rxn_552

>  <mol_properties>  (16) 
{"1": {"label": "*3", "atom_type": "Cd"}, "2": {"label": "*4", "atom_type": "Cd"}, "11": {"label": "*0", "atom_type": "Cs"}, "15": {"label": "*1", "atom_type": "Cs"}, "26": {"label": "*2", "atom_type": "H0"}}

>  <type>  (16) 
unop_12

>  <geom_source>  (16) 
Heuristics

$$$$

     RDKit          3D

 28 28  0  0  0  0  0  0  0  0999 V2000
   -1.3532    1.1328   -0.2301 C   0  0  0  0  0  0  0  0  0  0  0  0
   -1.1834   -1.0759   -0.2079 C   0  0  0  0  0  0  0  0  0  0  0  0
   -2.2644    0.7348    0.9407 C   0  0  0  0  0  0  0  0  0  0  0  0
   -2.0279    0.7269   -1.5517 C   0  0  0  0  0  0  0  0  0  0  0  0
   -1.9102   -0.8044   -1.5363 C   0  0  0  0  0  0  0  0  0  0  0  0
   -2.1465   -0.7984    0.9561 C   0  0  0  0  0  0  0  0  0  0  0  0
   -0.2565    0.1074   -0.0988 C   0  0  0  0  0  3  0  0  0  0  0  0
    3.0445    0.9085    0.1756 C   0  0  0  0  0  0  0  0  0  0  0  0
    2.1782   -0.1738    0.6924 C   0  0  0  0  0  0  0  0  0  0  0  0
    4.3769    0.8625    0.1228 C   0  0  0  0  0  0  0  0  0  0  0  0
    2.6136   -1.3387    1.1740 C   0  0  0  0  0  0  0  0  0  0  0  0
   -1.0072    2.1878   -0.1989 H   0  0  0  0  0  0  0  0  0  0  0  0
   -0.6803   -2.0648   -0.1560 H   0  0  0  0  0  0  0  0  0  0  0  0
   -1.8802    1.1653    1.8918 H   0  0  0  0  0  0  0  0  0  0  0  0
   -3.3142    1.0669    0.7850 H   0  0  0  0  0  0  0  0  0  0  0  0
   -3.0880    1.0595   -1.5992 H   0  0  0  0  0  0  0  0  0  0  0  0
   -1.4704    1.1525   -2.4150 H   0  0  0  0  0  0  0  0  0  0  0  0
   -1.2928   -1.1570   -2.3917 H   0  0  0  0  0  0  0  0  0  0  0  0
   -2.9069   -1.2960   -1.5754 H   0  0  0  0  0  0  0  0  0  0  0  0
   -3.1330   -1.2901    0.8087 H   0  0  0  0  0  0  0  0  0  0  0  0
   -1.7025   -1.1461    1.9151 H   0  0  0  0  0  0  0  0  0  0  0  0
    0.4805    0.1557   -0.9337 H   0  0  0  0  0  0  0  0  0  0  0  0
    2.5523    1.8027   -0.1853 H   0  0  0  0  0  0  0  0  0  0  0  0
    0.9442    0.0255    0.6734 H   0  0  0  0  0  0  0  0  0  0  0  0
    4.9464    0.0101    0.4614 H   0  0  0  0  0  0  0  0  0  0  0  0
    4.9241    1.7080   -0.2738 H   0  0  0  0  0  0  0  0  0  0  0  0
    1.8960   -2.0664    1.5288 H   0  0  0  0  0  0  0  0  0  0  0  0
    3.6608   -1.5953    1.2281 H   0  0  0  0  0  0  0  0  0  0  0  0
  1  3  1  0
  1  4  1  0
  1  7  1  0
  1 12  1  0
  2  6  1  0
  2  5  1  0
  2  7  1  0
  2 13  1  0
  3  6  1  0
  3 14  1  0
  3 15  1  0
  4  5  1  0
  4 16  1  0
  4 17  1  0
  5 18  1  0
  5 19  1  0
  6 20  1  0
  6 21  1  0
  7 22  1  0
  8 10  2  3
  8  9  1  0
  8 23  1  0
  9 11  2  3
  9 24  1  0
 10 25  1  0
 10 26  1  0
 11 27  1  0
 11 28  1  0
M  RAD  1   7   2
M  END
>  <reaction>  (17) 
rxn_552

>  <mol_properties>  (17) 
{"1": {"label": "*3", "atom_type": "Cd"}, "2": {"label": "*4", "atom_type": "Cd"}, "11": {"label": "*0", "atom_type": "Cs"}, "15": {"label": "*1", "atom_type": "Cs"}, "26": {"label": "*2", "atom_type": "H0"}}

>  <type>  (17) 
unop_13

>  <geom_source>  (17) 
AutoTST

$$$$
