
     RDKit          3D

  5  4  0  0  0  0  0  0  0  0999 V2000
    0.0000    0.0000    0.0000 C   0  0  0  0  0  0  0  0  0  0  0  0
   -0.6486   -0.7720   -0.4113 H   0  0  0  0  0  0  0  0  0  0  0  0
   -0.3482    0.9787   -0.3267 H   0  0  0  0  0  0  0  0  0  0  0  0
   -0.0223   -0.0487    1.0876 H   0  0  0  0  0  0  0  0  0  0  0  0
    1.0191   -0.1580   -0.3496 H   0  0  0  0  0  0  0  0  0  0  0  0
  1  2  1  0
  1  3  1  0
  1  4  1  0
  1  5  1  0
M  END
>  <reaction>  (1) 
rxn_318

>  <mol_properties>  (1) 
{"0": {"label": "donator", "atom_type": "Cs"}, "1": {"label": "d_hydrogen", "atom_type": "H0"}}

>  <type>  (1) 
r1h

$$$$

     RDKit          3D

  3  2  0  0  0  0  0  0  0  0999 V2000
   -0.0494   -0.2484    0.2507 C   0  0  0  0  0  3  0  0  0  0  0  0
    1.0305   -0.0025   -0.1225 O   0  0  0  0  0  0  0  0  0  0  0  0
   -0.9811    0.2509   -0.1282 H   0  0  0  0  0  0  0  0  0  0  0  0
  1  2  2  0
  1  3  1  0
M  RAD  1   1   2
M  END
>  <reaction>  (2) 
rxn_318

>  <mol_properties>  (2) 
{"0": {"label": "acceptor", "atom_type": "CO"}}

>  <type>  (2) 
r2

$$$$

     RDKit          3D

  4  3  0  0  0  0  0  0  0  0999 V2000
   -0.0057    0.0001   -0.0008 C   0  0  0  0  0  0  0  0  0  0  0  0
    1.1789   -0.0174    0.1563 O   0  0  0  0  0  0  0  0  0  0  0  0
   -0.5891    0.9399    0.0445 H   0  0  0  0  0  0  0  0  0  0  0  0
   -0.5841   -0.9226   -0.2001 H   0  0  0  0  0  0  0  0  0  0  0  0
  1  2  2  0
  1  3  1  0
  1  4  1  0
M  END
>  <reaction>  (3) 
rxn_318

>  <mol_properties>  (3) 
{"0": {"label": "acceptor", "atom_type": "CO"}, "3": {"label": "a_hydrogen", "atom_type": "H0"}}

>  <type>  (3) 
r2h

$$$$

     RDKit          3D

  8  6  0  0  0  0  0  0  0  0999 V2000
    0.0042    0.5509    0.5621 C   0  0  0  0  0  0  0  0  0  0  0  0
    0.5402    0.8022    1.5879 O   0  0  0  0  0  0  0  0  0  0  0  0
   -0.5090    1.3203   -0.0600 H   0  0  0  0  0  0  0  0  0  0  0  0
   -0.0074   -2.0296   -0.3783 C   0  0  0  0  0  3  0  0  0  0  0  0
   -0.0213   -0.6329    0.0954 H   0  0  0  0  0  0  0  0  0  0  0  0
    0.5047   -1.9786   -1.3338 H   0  0  0  0  0  0  0  0  0  0  0  0
    0.5459   -2.5293    0.4097 H   0  0  0  0  0  0  0  0  0  0  0  0
   -1.0574   -2.2976   -0.4392 H   0  0  0  0  0  0  0  0  0  0  0  0
  1  2  2  0
  1  3  1  0
  1  5  1  0
  4  6  1  0
  4  7  1  0
  4  8  1  0
M  RAD  1   4   2
M  END
>  <reaction>  (4) 
rxn_318

>  <mol_properties>  (4) 
{"0": {"label": "*1", "atom_type": "CO"}, "1": {"label": "*0", "atom_type": "O2d"}, "3": {"label": "*3", "atom_type": "Cs"}, "4": {"label": "*2", "atom_type": "H0"}, "5": {"label": "*4", "atom_type": "H0"}}

>  <type>  (4) 
ts

$$$$

     RDKit          3D

  8  6  0  0  0  0  0  0  0  0999 V2000
    0.2880    0.7238    0.0613 C   0  0  0  0  0  3  0  0  0  0  0  0
   -0.5901    1.1513    0.7501 O   0  0  0  0  0  0  0  0  0  0  0  0
    1.3552    0.9106    0.2889 H   0  0  0  0  0  0  0  0  0  0  0  0
    0.2880   -1.7607   -0.8171 C   0  0  0  0  0  0  0  0  0  0  0  0
    0.2880   -0.5287   -0.3815 H   0  0  0  0  0  0  0  0  0  0  0  0
    1.1771   -2.2740   -0.4541 H   0  0  0  0  0  0  0  0  0  0  0  0
   -0.6011   -2.2740   -0.4541 H   0  0  0  0  0  0  0  0  0  0  0  0
    0.2880   -1.7607   -1.9060 H   0  0  0  0  0  0  0  0  0  0  0  0
  1  2  2  0
  1  3  1  0
  4  5  1  0
  4  6  1  0
  4  7  1  0
  4  8  1  0
M  RAD  1   1   2
M  END
>  <reaction>  (5) 
rxn_318

>  <mol_properties>  (5) 
{"0": {"label": "*1", "atom_type": "CO"}, "1": {"label": "*0", "atom_type": "O2d"}, "3": {"label": "*3", "atom_type": "Cs"}, "4": {"label": "*2", "atom_type": "H0"}, "5": {"label": "*4", "atom_type": "H0"}}

>  <type>  (5) 
unop_1

>  <geom_source>  (5) 
Heuristics

$$$$

     RDKit          3D

  8  6  0  0  0  0  0  0  0  0999 V2000
    0.1747    0.5619    0.5061 C   0  0  0  0  0  3  0  0  0  0  0  0
   -0.3323    1.4510   -0.1108 O   0  0  0  0  0  0  0  0  0  0  0  0
    0.4157    0.6583    1.5823 H   0  0  0  0  0  0  0  0  0  0  0  0
    0.1747   -1.9226   -0.3723 C   0  0  0  0  0  0  0  0  0  0  0  0
    0.1747   -0.6906    0.0633 H   0  0  0  0  0  0  0  0  0  0  0  0
    1.0638   -2.4359   -0.0093 H   0  0  0  0  0  0  0  0  0  0  0  0
   -0.7145   -2.4359   -0.0093 H   0  0  0  0  0  0  0  0  0  0  0  0
    0.1747   -1.9226   -1.4612 H   0  0  0  0  0  0  0  0  0  0  0  0
  1  2  2  0
  1  3  1  0
  4  5  1  0
  4  6  1  0
  4  7  1  0
  4  8  1  0
M  RAD  1   1   2
M  END
>  <reaction>  (6) 
rxn_318

>  <mol_properties>  (6) 
{"0": {"label": "*1", "atom_type": "CO"}, "1": {"label": "*0", "atom_type": "O2d"}, "3": {"label": "*3", "atom_type": "Cs"}, "4": {"label": "*2", "atom_type": "H0"}, "5": {"label": "*4", "atom_type": "H0"}}

>  <type>  (6) 
unop_2

>  <geom_source>  (6) 
Heuristics

$$$$

     RDKit          3D

  8  6  0  0  0  0  0  0  0  0999 V2000
    0.1591    0.7613   -0.0499 C   0  0  0  0  0  3  0  0  0  0  0  0
   -0.3478    1.0651    0.9888 O   0  0  0  0  0  0  0  0  0  0  0  0
    1.0940    1.2352   -0.4065 H   0  0  0  0  0  0  0  0  0  0  0  0
    0.1591   -1.7232   -0.9283 C   0  0  0  0  0  0  0  0  0  0  0  0
    0.1591   -0.4912   -0.4927 H   0  0  0  0  0  0  0  0  0  0  0  0
    1.0482   -2.2365   -0.5653 H   0  0  0  0  0  0  0  0  0  0  0  0
   -0.7300   -2.2365   -0.5653 H   0  0  0  0  0  0  0  0  0  0  0  0
    0.1591   -1.7232   -2.0172 H   0  0  0  0  0  0  0  0  0  0  0  0
  1  2  2  0
  1  3  1  0
  4  5  1  0
  4  6  1  0
  4  7  1  0
  4  8  1  0
M  RAD  1   1   2
M  END
>  <reaction>  (7) 
rxn_318

>  <mol_properties>  (7) 
{"0": {"label": "*1", "atom_type": "CO"}, "1": {"label": "*0", "atom_type": "O2d"}, "3": {"label": "*3", "atom_type": "Cs"}, "4": {"label": "*2", "atom_type": "H0"}, "5": {"label": "*4", "atom_type": "H0"}}

>  <type>  (7) 
unop_3

>  <geom_source>  (7) 
Heuristics

$$$$

     RDKit          3D

  8  6  0  0  0  0  0  0  0  0999 V2000
   -0.2996    0.6069    0.3844 C   0  0  0  0  0  3  0  0  0  0  0  0
    0.5784    1.3723    0.1174 O   0  0  0  0  0  0  0  0  0  0  0  0
   -0.8477    0.6557    1.3451 H   0  0  0  0  0  0  0  0  0  0  0  0
   -0.2996   -1.8776   -0.4940 C   0  0  0  0  0  0  0  0  0  0  0  0
   -0.2996   -0.6456   -0.0584 H   0  0  0  0  0  0  0  0  0  0  0  0
    0.5895   -2.3909   -0.1310 H   0  0  0  0  0  0  0  0  0  0  0  0
   -1.1887   -2.3909   -0.1310 H   0  0  0  0  0  0  0  0  0  0  0  0
   -0.2996   -1.8776   -1.5829 H   0  0  0  0  0  0  0  0  0  0  0  0
  1  2  2  0
  1  3  1  0
  4  5  1  0
  4  6  1  0
  4  7  1  0
  4  8  1  0
M  RAD  1   1   2
M  END
>  <reaction>  (8) 
rxn_318

>  <mol_properties>  (8) 
{"0": {"label": "*1", "atom_type": "CO"}, "1": {"label": "*0", "atom_type": "O2d"}, "3": {"label": "*3", "atom_type": "Cs"}, "4": {"label": "*2", "atom_type": "H0"}, "5": {"label": "*4", "atom_type": "H0"}}

>  <type>  (8) 
unop_4

>  <geom_source>  (8) 
Heuristics

$$$$

     RDKit          3D

  8  6  0  0  0  0  0  0  0  0999 V2000
    0.0000    0.7703   -0.0860 C   0  0  0  0  0  3  0  0  0  0  0  0
    0.0000    1.0289    1.0808 O   0  0  0  0  0  0  0  0  0  0  0  0
    0.0000    1.5605   -0.8614 H   0  0  0  0  0  0  0  0  0  0  0  0
    0.0000   -1.7142   -0.9644 C   0  0  0  0  0  0  0  0  0  0  0  0
    0.0000   -0.4822   -0.5288 H   0  0  0  0  0  0  0  0  0  0  0  0
    0.8891   -2.2275   -0.6014 H   0  0  0  0  0  0  0  0  0  0  0  0
   -0.8891   -2.2275   -0.6014 H   0  0  0  0  0  0  0  0  0  0  0  0
    0.0000   -1.7142   -2.0533 H   0  0  0  0  0  0  0  0  0  0  0  0
  1  2  2  0
  1  3  1  0
  4  5  1  0
  4  6  1  0
  4  7  1  0
  4  8  1  0
M  RAD  1   1   2
M  END
>  <reaction>  (9) 
rxn_318

>  <mol_properties>  (9) 
{"0": {"label": "*1", "atom_type": "CO"}, "1": {"label": "*0", "atom_type": "O2d"}, "3": {"label": "*3", "atom_type": "Cs"}, "4": {"label": "*2", "atom_type": "H0"}, "5": {"label": "*4", "atom_type": "H0"}}

>  <type>  (9) 
unop_5

>  <geom_source>  (9) 
Heuristics

$$$$

     RDKit          3D

  8  6  0  0  0  0  0  0  0  0999 V2000
   -0.3406    0.6666    0.2209 C   0  0  0  0  0  3  0  0  0  0  0  0
    0.6732    1.2631    0.4318 O   0  0  0  0  0  0  0  0  0  0  0  0
   -1.2098    0.7282    0.9038 H   0  0  0  0  0  0  0  0  0  0  0  0
   -0.3406   -1.8179   -0.6575 C   0  0  0  0  0  0  0  0  0  0  0  0
   -0.3406   -0.5859   -0.2219 H   0  0  0  0  0  0  0  0  0  0  0  0
    0.5485   -2.3312   -0.2945 H   0  0  0  0  0  0  0  0  0  0  0  0
   -1.2298   -2.3312   -0.2945 H   0  0  0  0  0  0  0  0  0  0  0  0
   -0.3406   -1.8179   -1.7464 H   0  0  0  0  0  0  0  0  0  0  0  0
  1  2  2  0
  1  3  1  0
  4  5  1  0
  4  6  1  0
  4  7  1  0
  4  8  1  0
M  RAD  1   1   2
M  END
>  <reaction>  (10) 
rxn_318

>  <mol_properties>  (10) 
{"0": {"label": "*1", "atom_type": "CO"}, "1": {"label": "*0", "atom_type": "O2d"}, "3": {"label": "*3", "atom_type": "Cs"}, "4": {"label": "*2", "atom_type": "H0"}, "5": {"label": "*4", "atom_type": "H0"}}

>  <type>  (10) 
unop_6

>  <geom_source>  (10) 
Heuristics

$$$$

     RDKit          3D

  8  6  0  0  0  0  0  0  0  0999 V2000
   -0.2880    0.7238    0.0613 C   0  0  0  0  0  3  0  0  0  0  0  0
    0.5901    1.1513    0.7501 O   0  0  0  0  0  0  0  0  0  0  0  0
   -1.3552    0.9106    0.2889 H   0  0  0  0  0  0  0  0  0  0  0  0
   -0.2880   -1.7607   -0.8171 C   0  0  0  0  0  0  0  0  0  0  0  0
   -0.2880   -0.5287   -0.3815 H   0  0  0  0  0  0  0  0  0  0  0  0
    0.6011   -2.2740   -0.4541 H   0  0  0  0  0  0  0  0  0  0  0  0
   -1.1771   -2.2740   -0.4541 H   0  0  0  0  0  0  0  0  0  0  0  0
   -0.2880   -1.7607   -1.9060 H   0  0  0  0  0  0  0  0  0  0  0  0
  1  2  2  0
  1  3  1  0
  4  5  1  0
  4  6  1  0
  4  7  1  0
  4  8  1  0
M  RAD  1   1   2
M  END
>  <reaction>  (11) 
rxn_318

>  <mol_properties>  (11) 
{"0": {"label": "*1", "atom_type": "CO"}, "1": {"label": "*0", "atom_type": "O2d"}, "3": {"label": "*3", "atom_type": "Cs"}, "4": {"label": "*2", "atom_type": "H0"}, "5": {"label": "*4", "atom_type": "H0"}}

>  <type>  (11) 
unop_7

>  <geom_source>  (11) 
Heuristics

$$$$

     RDKit          3D

  8  6  0  0  0  0  0  0  0  0999 V2000
    0.3406    0.6666    0.2209 C   0  0  0  0  0  3  0  0  0  0  0  0
   -0.6732    1.2631    0.4318 O   0  0  0  0  0  0  0  0  0  0  0  0
    1.2098    0.7282    0.9038 H   0  0  0  0  0  0  0  0  0  0  0  0
    0.3406   -1.8179   -0.6575 C   0  0  0  0  0  0  0  0  0  0  0  0
    0.3406   -0.5859   -0.2219 H   0  0  0  0  0  0  0  0  0  0  0  0
    1.2298   -2.3312   -0.2945 H   0  0  0  0  0  0  0  0  0  0  0  0
   -0.5485   -2.3312   -0.2945 H   0  0  0  0  0  0  0  0  0  0  0  0
    0.3406   -1.8179   -1.7464 H   0  0  0  0  0  0  0  0  0  0  0  0
  1  2  2  0
  1  3  1  0
  4  5  1  0
  4  6  1  0
  4  7  1  0
  4  8  1  0
M  RAD  1   1   2
M  END
>  <reaction>  (12) 
rxn_318

>  <mol_properties>  (12) 
{"0": {"label": "*1", "atom_type": "CO"}, "1": {"label": "*0", "atom_type": "O2d"}, "3": {"label": "*3", "atom_type": "Cs"}, "4": {"label": "*2", "atom_type": "H0"}, "5": {"label": "*4", "atom_type": "H0"}}

>  <type>  (12) 
unop_8

>  <geom_source>  (12) 
Heuristics

$$$$

     RDKit          3D

  8  6  0  0  0  0  0  0  0  0999 V2000
   -0.1747    0.5619    0.5061 C   0  0  0  0  0  3  0  0  0  0  0  0
    0.3323    1.4510   -0.1108 O   0  0  0  0  0  0  0  0  0  0  0  0
   -0.4157    0.6583    1.5823 H   0  0  0  0  0  0  0  0  0  0  0  0
   -0.1747   -1.9226   -0.3723 C   0  0  0  0  0  0  0  0  0  0  0  0
   -0.1747   -0.6906    0.0633 H   0  0  0  0  0  0  0  0  0  0  0  0
    0.7145   -2.4359   -0.0093 H   0  0  0  0  0  0  0  0  0  0  0  0
   -1.0638   -2.4359   -0.0093 H   0  0  0  0  0  0  0  0  0  0  0  0
   -0.1747   -1.9226   -1.4612 H   0  0  0  0  0  0  0  0  0  0  0  0
  1  2  2  0
  1  3  1  0
  4  5  1  0
  4  6  1  0
  4  7  1  0
  4  8  1  0
M  RAD  1   1   2
M  END
>  <reaction>  (13) 
rxn_318

>  <mol_properties>  (13) 
{"0": {"label": "*1", "atom_type": "CO"}, "1": {"label": "*0", "atom_type": "O2d"}, "3": {"label": "*3", "atom_type": "Cs"}, "4": {"label": "*2", "atom_type": "H0"}, "5": {"label": "*4", "atom_type": "H0"}}

>  <type>  (13) 
unop_9

>  <geom_source>  (13) 
Heuristics

$$$$

     RDKit          3D

  8  6  0  0  0  0  0  0  0  0999 V2000
    0.2996    0.6069    0.3844 C   0  0  0  0  0  3  0  0  0  0  0  0
   -0.5784    1.3723    0.1174 O   0  0  0  0  0  0  0  0  0  0  0  0
    0.8477    0.6557    1.3451 H   0  0  0  0  0  0  0  0  0  0  0  0
    0.2996   -1.8776   -0.4940 C   0  0  0  0  0  0  0  0  0  0  0  0
    0.2996   -0.6456   -0.0584 H   0  0  0  0  0  0  0  0  0  0  0  0
    1.1887   -2.3909   -0.1310 H   0  0  0  0  0  0  0  0  0  0  0  0
   -0.5895   -2.3909   -0.1310 H   0  0  0  0  0  0  0  0  0  0  0  0
    0.2996   -1.8776   -1.5829 H   0  0  0  0  0  0  0  0  0  0  0  0
  1  2  2  0
  1  3  1  0
  4  5  1  0
  4  6  1  0
  4  7  1  0
  4  8  1  0
M  RAD  1   1   2
M  END
>  <reaction>  (14) 
rxn_318

>  <mol_properties>  (14) 
{"0": {"label": "*1", "atom_type": "CO"}, "1": {"label": "*0", "atom_type": "O2d"}, "3": {"label": "*3", "atom_type": "Cs"}, "4": {"label": "*2", "atom_type": "H0"}, "5": {"label": "*4", "atom_type": "H0"}}

>  <type>  (14) 
unop_10

>  <geom_source>  (14) 
Heuristics

$$$$

     RDKit          3D

  8  6  0  0  0  0  0  0  0  0999 V2000
   -0.1591    0.7613   -0.0499 C   0  0  0  0  0  3  0  0  0  0  0  0
    0.3478    1.0651    0.9888 O   0  0  0  0  0  0  0  0  0  0  0  0
   -1.0940    1.2352   -0.4065 H   0  0  0  0  0  0  0  0  0  0  0  0
   -0.1591   -1.7232   -0.9283 C   0  0  0  0  0  0  0  0  0  0  0  0
   -0.1591   -0.4912   -0.4927 H   0  0  0  0  0  0  0  0  0  0  0  0
    0.7300   -2.2365   -0.5653 H   0  0  0  0  0  0  0  0  0  0  0  0
   -1.0482   -2.2365   -0.5653 H   0  0  0  0  0  0  0  0  0  0  0  0
   -0.1591   -1.7232   -2.0172 H   0  0  0  0  0  0  0  0  0  0  0  0
  1  2  2  0
  1  3  1  0
  4  5  1  0
  4  6  1  0
  4  7  1  0
  4  8  1  0
M  RAD  1   1   2
M  END
>  <reaction>  (15) 
rxn_318

>  <mol_properties>  (15) 
{"0": {"label": "*1", "atom_type": "CO"}, "1": {"label": "*0", "atom_type": "O2d"}, "3": {"label": "*3", "atom_type": "Cs"}, "4": {"label": "*2", "atom_type": "H0"}, "5": {"label": "*4", "atom_type": "H0"}}

>  <type>  (15) 
unop_11

>  <geom_source>  (15) 
Heuristics

$$$$

     RDKit          3D

  8  6  0  0  0  0  0  0  0  0999 V2000
    0.0000    0.5451    0.5511 C   0  0  0  0  0  3  0  0  0  0  0  0
    0.0000    1.4795   -0.1939 O   0  0  0  0  0  0  0  0  0  0  0  0
   -0.0000    0.6723    1.6508 H   0  0  0  0  0  0  0  0  0  0  0  0
    0.0000   -1.9394   -0.3273 C   0  0  0  0  0  0  0  0  0  0  0  0
    0.0000   -0.7074    0.1082 H   0  0  0  0  0  0  0  0  0  0  0  0
    0.8891   -2.4527    0.0356 H   0  0  0  0  0  0  0  0  0  0  0  0
   -0.8891   -2.4527    0.0356 H   0  0  0  0  0  0  0  0  0  0  0  0
    0.0000   -1.9394   -1.4163 H   0  0  0  0  0  0  0  0  0  0  0  0
  1  2  2  0
  1  3  1  0
  4  5  1  0
  4  6  1  0
  4  7  1  0
  4  8  1  0
M  RAD  1   1   2
M  END
>  <reaction>  (16) 
rxn_318

>  <mol_properties>  (16) 
{"0": {"label": "*1", "atom_type": "CO"}, "1": {"label": "*0", "atom_type": "O2d"}, "3": {"label": "*3", "atom_type": "Cs"}, "4": {"label": "*2", "atom_type": "H0"}, "5": {"label": "*4", "atom_type": "H0"}}

>  <type>  (16) 
unop_12

>  <geom_source>  (16) 
Heuristics

$$$$

     RDKit          3D

  8  6  0  0  0  0  0  0  0  0999 V2000
   -2.1710    0.9498   -0.3497 O   0  0  0  0  0  0  0  0  0  0  0  0
    1.1455   -0.0023    0.0470 C   0  0  0  0  0  0  0  0  0  0  0  0
   -1.4616    0.0289    0.0189 C   0  0  0  0  0  3  0  0  0  0  0  0
   -1.8857   -0.9590    0.1606 H   0  0  0  0  0  0  0  0  0  0  0  0
   -0.1071    0.2461    0.2579 H   0  0  0  0  0  0  0  0  0  0  0  0
    1.8438    0.4534    0.7787 H   0  0  0  0  0  0  0  0  0  0  0  0
    1.2696   -1.1047    0.0544 H   0  0  0  0  0  0  0  0  0  0  0  0
    1.3665    0.3879   -0.9677 H   0  0  0  0  0  0  0  0  0  0  0  0
  1  3  2  0
  2  5  1  0
  2  6  1  0
  2  7  1  0
  2  8  1  0
  3  4  1  0
M  RAD  1   3   2
M  END
>  <reaction>  (17) 
rxn_318

>  <mol_properties>  (17) 
{"0": {"label": "*1", "atom_type": "CO"}, "1": {"label": "*0", "atom_type": "O2d"}, "3": {"label": "*3", "atom_type": "Cs"}, "4": {"label": "*2", "atom_type": "H0"}, "5": {"label": "*4", "atom_type": "H0"}}

>  <type>  (17) 
unop_13

>  <geom_source>  (17) 
AutoTST

$$$$
