
     RDKit          3D

 16 15  0  0  0  0  0  0  0  0999 V2000
    1.7961   -0.3807    1.6176 C   0  0  0  0  0  0  0  0  0  0  0  0
    0.8562   -0.8708    0.8256 C   0  0  0  0  0  0  0  0  0  0  0  0
    0.0895   -0.0826   -0.2048 C   0  0  0  0  0  0  0  0  0  0  0  0
   -1.4061   -0.1111    0.0982 C   0  0  0  0  0  0  0  0  0  0  0  0
    0.4476   -0.5902   -1.5797 C   0  0  0  0  0  0  0  0  0  0  0  0
   -0.3793   -1.1113   -2.4728 C   0  0  0  0  0  0  0  0  0  0  0  0
    2.3110   -1.0032    2.3386 H   0  0  0  0  0  0  0  0  0  0  0  0
    2.0846    0.6643    1.5737 H   0  0  0  0  0  0  0  0  0  0  0  0
    0.5921   -1.9241    0.8925 H   0  0  0  0  0  0  0  0  0  0  0  0
    0.4358    0.9557   -0.1462 H   0  0  0  0  0  0  0  0  0  0  0  0
   -1.5968    0.3080    1.0865 H   0  0  0  0  0  0  0  0  0  0  0  0
   -1.9674    0.4693   -0.6359 H   0  0  0  0  0  0  0  0  0  0  0  0
   -1.7902   -1.1338    0.0883 H   0  0  0  0  0  0  0  0  0  0  0  0
    1.5049   -0.5197   -1.8214 H   0  0  0  0  0  0  0  0  0  0  0  0
   -1.4421   -1.2131   -2.2889 H   0  0  0  0  0  0  0  0  0  0  0  0
   -0.0162   -1.4558   -3.4328 H   0  0  0  0  0  0  0  0  0  0  0  0
  1  2  2  3
  1  7  1  0
  1  8  1  0
  2  3  1  0
  2  9  1  0
  3  4  1  0
  3  5  1  0
  3 10  1  0
  4 11  1  0
  4 12  1  0
  4 13  1  0
  5  6  2  3
  5 14  1  0
  6 15  1  0
  6 16  1  0
M  END
>  <reaction>  (1) 
rxn_1184

>  <mol_properties>  (1) 
{"2": {"label": "donator", "atom_type": "Cs"}, "9": {"label": "d_hydrogen", "atom_type": "H0"}}

>  <type>  (1) 
r1h

$$$$

     RDKit          3D

 17 17  0  0  0  0  0  0  0  0999 V2000
    2.7069    0.2860   -0.1817 C   0  0  0  0  0  0  0  0  0  0  0  0
    1.6304   -0.7245    0.0085 C   0  0  0  0  0  0  0  0  0  0  0  0
    1.4786   -1.8800   -0.7837 C   0  0  0  0  0  0  0  0  0  0  0  0
    0.4231   -2.7891   -0.5312 C   0  0  0  0  0  3  0  0  0  0  0  0
    0.2582   -3.9235   -1.2940 C   0  0  0  0  0  0  0  0  0  0  0  0
    1.1348   -4.2030   -2.3401 C   0  0  0  0  0  0  0  0  0  0  0  0
    2.1804   -3.3260   -2.6093 C   0  0  0  0  0  0  0  0  0  0  0  0
    2.3549   -2.1866   -1.8513 C   0  0  0  0  0  0  0  0  0  0  0  0
    2.6698    0.7343   -1.1808 H   0  0  0  0  0  0  0  0  0  0  0  0
    3.7029   -0.1584   -0.0766 H   0  0  0  0  0  0  0  0  0  0  0  0
    2.6250    1.0917    0.5463 H   0  0  0  0  0  0  0  0  0  0  0  0
    0.9136   -0.5677    0.8059 H   0  0  0  0  0  0  0  0  0  0  0  0
   -0.2629   -2.5783    0.2811 H   0  0  0  0  0  0  0  0  0  0  0  0
   -0.5582   -4.6017   -1.0785 H   0  0  0  0  0  0  0  0  0  0  0  0
    1.0033   -5.0952   -2.9384 H   0  0  0  0  0  0  0  0  0  0  0  0
    2.8650   -3.5382   -3.4214 H   0  0  0  0  0  0  0  0  0  0  0  0
    3.1750   -1.5169   -2.0772 H   0  0  0  0  0  0  0  0  0  0  0  0
  1  2  1  0
  1  9  1  0
  1 10  1  0
  1 11  1  0
  2  3  2  3
  2 12  1  0
  3  4  1  0
  3  8  1  0
  4  5  1  0
  4 13  1  0
  5  6  2  0
  5 14  1  0
  6  7  1  0
  6 15  1  0
  7  8  2  0
  7 16  1  0
  8 17  1  0
M  RAD  1   4   2
M  END
>  <reaction>  (2) 
rxn_1184

>  <mol_properties>  (2) 
{"1": {"label": "acceptor", "atom_type": "Cs"}}

>  <type>  (2) 
r2

$$$$

     RDKit          3D

 18 18  0  0  0  0  0  0  0  0999 V2000
   -2.4852    0.3210   -0.3966 C   0  0  0  0  0  0  0  0  0  0  0  0
   -1.5917   -0.2708    0.6941 C   0  0  0  0  0  0  0  0  0  0  0  0
   -0.1292   -0.1692    0.3493 C   0  0  0  0  0  0  0  0  0  0  0  0
    0.6099    0.9558    0.7015 C   0  0  0  0  0  0  0  0  0  0  0  0
    1.9447    1.0728    0.3458 C   0  0  0  0  0  0  0  0  0  0  0  0
    2.5646    0.0613   -0.3720 C   0  0  0  0  0  0  0  0  0  0  0  0
    1.8399   -1.0657   -0.7287 C   0  0  0  0  0  0  0  0  0  0  0  0
    0.5055   -1.1769   -0.3700 C   0  0  0  0  0  0  0  0  0  0  0  0
   -2.3325   -0.1971   -1.3452 H   0  0  0  0  0  0  0  0  0  0  0  0
   -2.2554    1.3763   -0.5546 H   0  0  0  0  0  0  0  0  0  0  0  0
   -3.5397    0.2376   -0.1280 H   0  0  0  0  0  0  0  0  0  0  0  0
   -1.7801    0.2462    1.6380 H   0  0  0  0  0  0  0  0  0  0  0  0
   -1.8568   -1.3190    0.8516 H   0  0  0  0  0  0  0  0  0  0  0  0
    0.1327    1.7497    1.2656 H   0  0  0  0  0  0  0  0  0  0  0  0
    2.5033    1.9550    0.6330 H   0  0  0  0  0  0  0  0  0  0  0  0
    3.6077    0.1491   -0.6484 H   0  0  0  0  0  0  0  0  0  0  0  0
    2.3163   -1.8632   -1.2854 H   0  0  0  0  0  0  0  0  0  0  0  0
   -0.0540   -2.0629   -0.6500 H   0  0  0  0  0  0  0  0  0  0  0  0
  1  2  1  0
  1  9  1  0
  1 10  1  0
  1 11  1  0
  2  3  1  0
  2 12  1  0
  2 13  1  0
  3  4  2  0
  3  8  1  0
  4  5  1  0
  4 14  1  0
  5  6  2  0
  5 15  1  0
  6  7  1  0
  6 16  1  0
  7  8  2  0
  7 17  1  0
  8 18  1  0
M  END
>  <reaction>  (3) 
rxn_1184

>  <mol_properties>  (3) 
{"0": {"label": "a_hydrogen", "atom_type": "H0"}, "2": {"label": "acceptor", "atom_type": "Cs"}}

>  <type>  (3) 
r2h

$$$$

     RDKit          3D

 33 32  0  0  0  0  0  0  0  0999 V2000
   -0.7643   -2.7029   -0.4465 C   0  0  0  0  0  0  0  0  0  0  0  0
   -1.2265   -2.0815    0.6373 C   0  0  0  0  0  0  0  0  0  0  0  0
   -0.4676   -1.1981    1.5423 C   0  0  0  0  0  0  0  0  0  0  0  0
    1.0388   -1.2410    1.4320 C   0  0  0  0  0  0  0  0  0  0  0  0
   -1.0375   -1.1088    2.9015 C   0  0  0  0  0  0  0  0  0  0  0  0
   -0.3757   -0.8837    4.0336 C   0  0  0  0  0  0  0  0  0  0  0  0
   -1.4208   -3.3078   -1.0585 H   0  0  0  0  0  0  0  0  0  0  0  0
    0.2711   -2.6390   -0.7562 H   0  0  0  0  0  0  0  0  0  0  0  0
   -2.2802   -2.1955    0.8810 H   0  0  0  0  0  0  0  0  0  0  0  0
   -0.7217   -0.0298    1.0532 H   0  0  0  0  0  0  0  0  0  0  0  0
    1.3593   -1.1180    0.3976 H   0  0  0  0  0  0  0  0  0  0  0  0
    1.4940   -0.4320    2.0042 H   0  0  0  0  0  0  0  0  0  0  0  0
    1.4307   -2.1905    1.8061 H   0  0  0  0  0  0  0  0  0  0  0  0
   -2.1191   -1.2127    2.9524 H   0  0  0  0  0  0  0  0  0  0  0  0
    0.7019   -0.7816    4.0657 H   0  0  0  0  0  0  0  0  0  0  0  0
   -0.9012   -0.8087    4.9767 H   0  0  0  0  0  0  0  0  0  0  0  0
   -2.3978    1.0661    0.0389 C   0  0  0  0  0  0  0  0  0  0  0  0
   -0.9523    1.2242    0.4162 C   0  0  0  0  0  0  0  0  0  0  0  0
    0.0880    1.2837   -0.6001 C   0  0  0  0  0  0  0  0  0  0  0  0
    1.3291    1.8627   -0.2976 C   0  0  0  0  0  3  0  0  0  0  0  0
    2.3612    1.8667   -1.2154 C   0  0  0  0  0  0  0  0  0  0  0  0
    2.1860    1.2897   -2.4673 C   0  0  0  0  0  0  0  0  0  0  0  0
    0.9637    0.7161   -2.7870 C   0  0  0  0  0  0  0  0  0  0  0  0
   -0.0723    0.7119   -1.8691 C   0  0  0  0  0  0  0  0  0  0  0  0
   -2.5637    0.1647   -0.5549 H   0  0  0  0  0  0  0  0  0  0  0  0
   -2.7536    1.9190   -0.5472 H   0  0  0  0  0  0  0  0  0  0  0  0
   -3.0183    0.9904    0.9328 H   0  0  0  0  0  0  0  0  0  0  0  0
   -0.7736    1.8744    1.2703 H   0  0  0  0  0  0  0  0  0  0  0  0
    1.4750    2.3101    0.6792 H   0  0  0  0  0  0  0  0  0  0  0  0
    3.3091    2.3222   -0.9566 H   0  0  0  0  0  0  0  0  0  0  0  0
    2.9940    1.2912   -3.1875 H   0  0  0  0  0  0  0  0  0  0  0  0
    0.8162    0.2663   -3.7611 H   0  0  0  0  0  0  0  0  0  0  0  0
   -1.0140    0.2505   -2.1354 H   0  0  0  0  0  0  0  0  0  0  0  0
  1  2  2  3
  1  7  1  0
  1  8  1  0
  2  3  1  0
  2  9  1  0
  3  4  1  0
  3  5  1  0
  3 10  1  0
  4 11  1  0
  4 12  1  0
  4 13  1  0
  5  6  2  3
  5 14  1  0
  6 15  1  0
  6 16  1  0
 17 18  1  0
 17 25  1  0
 17 26  1  0
 17 27  1  0
 18 19  2  3
 18 28  1  0
 19 20  1  0
 19 24  1  0
 20 21  1  0
 20 29  1  0
 21 22  2  0
 21 30  1  0
 22 23  1  0
 22 31  1  0
 23 24  2  0
 23 32  1  0
 24 33  1  0
M  RAD  1  20   2
M  END
>  <reaction>  (4) 
rxn_1184

>  <mol_properties>  (4) 
{"1": {"label": "*0", "atom_type": "Cd"}, "2": {"label": "*1", "atom_type": "Cs"}, "9": {"label": "*2", "atom_type": "H0"}, "17": {"label": "*3", "atom_type": "Cd"}, "18": {"label": "*4", "atom_type": "Cd"}}

>  <type>  (4) 
ts

$$$$

     RDKit          3D

 33 32  0  0  0  0  0  0  0  0999 V2000
   -0.3485   -2.5542   -0.3028 C   0  0  0  0  0  0  0  0  0  0  0  0
   -0.3485   -2.5542    1.0204 C   0  0  0  0  0  0  0  0  0  0  0  0
   -0.3485   -1.3234    1.8898 C   0  0  0  0  0  3  0  0  0  0  0  0
    0.8899   -1.2936    2.7814 C   0  0  0  0  0  0  0  0  0  0  0  0
   -1.6520   -1.2548    2.6463 C   0  0  0  0  0  0  0  0  0  0  0  0
   -1.8066   -1.2546    3.9612 C   0  0  0  0  0  0  0  0  0  0  0  0
   -0.3492   -3.4768   -0.8695 H   0  0  0  0  0  0  0  0  0  0  0  0
   -0.3467   -1.6284   -0.8685 H   0  0  0  0  0  0  0  0  0  0  0  0
   -0.3532   -3.5000    1.5580 H   0  0  0  0  0  0  0  0  0  0  0  0
   -0.3119   -0.2791    1.0910 H   0  0  0  0  0  0  0  0  0  0  0  0
    1.7927   -1.3020    2.1702 H   0  0  0  0  0  0  0  0  0  0  0  0
    0.9046   -0.3979    3.4045 H   0  0  0  0  0  0  0  0  0  0  0  0
    0.9225   -2.1654    3.4390 H   0  0  0  0  0  0  0  0  0  0  0  0
   -2.5352   -1.2191    2.0138 H   0  0  0  0  0  0  0  0  0  0  0  0
   -0.9663   -1.2939    4.6438 H   0  0  0  0  0  0  0  0  0  0  0  0
   -2.7930   -1.2115    4.4055 H   0  0  0  0  0  0  0  0  0  0  0  0
   -1.5160    1.6247    0.5290 C   0  0  0  0  0  0  0  0  0  0  0  0
   -0.2754    0.7619    0.2947 C   0  0  0  0  0  0  0  0  0  0  0  0
    0.3746    1.0479   -1.0334 C   0  0  0  0  0  0  0  0  0  0  0  0
    1.3453    2.0374   -1.1538 C   0  0  0  0  0  0  0  0  0  0  0  0
    1.9127    2.3346   -2.3832 C   0  0  0  0  0  0  0  0  0  0  0  0
    1.5158    1.6435   -3.5179 C   0  0  0  0  0  0  0  0  0  0  0  0
    0.5499    0.6543   -3.4120 C   0  0  0  0  0  0  0  0  0  0  0  0
   -0.0138    0.3617   -2.1797 C   0  0  0  0  0  0  0  0  0  0  0  0
   -2.2617    1.4491   -0.2486 H   0  0  0  0  0  0  0  0  0  0  0  0
   -1.2590    2.6854    0.5083 H   0  0  0  0  0  0  0  0  0  0  0  0
   -1.9716    1.4024    1.4955 H   0  0  0  0  0  0  0  0  0  0  0  0
    0.4449    0.9360    1.0977 H   0  0  0  0  0  0  0  0  0  0  0  0
    1.6631    2.5801   -0.2702 H   0  0  0  0  0  0  0  0  0  0  0  0
    2.6696    3.1059   -2.4548 H   0  0  0  0  0  0  0  0  0  0  0  0
    1.9595    1.8718   -4.4787 H   0  0  0  0  0  0  0  0  0  0  0  0
    0.2364    0.1058   -4.2916 H   0  0  0  0  0  0  0  0  0  0  0  0
   -0.7665   -0.4155   -2.1042 H   0  0  0  0  0  0  0  0  0  0  0  0
  1  2  2  3
  1  7  1  0
  1  8  1  0
  2  3  1  0
  2  9  1  0
  3  4  1  0
  3  5  1  0
  4 11  1  0
  4 12  1  0
  4 13  1  0
  5  6  2  3
  5 14  1  0
  6 15  1  0
  6 16  1  0
 10 18  1  0
 17 18  1  0
 17 25  1  0
 17 26  1  0
 17 27  1  0
 18 19  1  0
 18 28  1  0
 19 20  2  0
 19 24  1  0
 20 21  1  0
 20 29  1  0
 21 22  2  0
 21 30  1  0
 22 23  1  0
 22 31  1  0
 23 24  2  0
 23 32  1  0
 24 33  1  0
M  RAD  1   3   2
M  END
>  <reaction>  (5) 
rxn_1184

>  <mol_properties>  (5) 
{"1": {"label": "*0", "atom_type": "Cd"}, "2": {"label": "*1", "atom_type": "Cs"}, "9": {"label": "*2", "atom_type": "H0"}, "17": {"label": "*3", "atom_type": "Cd"}, "18": {"label": "*4", "atom_type": "Cd"}}

>  <type>  (5) 
unop_1

>  <geom_source>  (5) 
Heuristics

$$$$

     RDKit          3D

 33 32  0  0  0  0  0  0  0  0999 V2000
   -0.8746   -2.8728   -1.0543 C   0  0  0  0  0  0  0  0  0  0  0  0
   -0.8746   -2.8728    0.2690 C   0  0  0  0  0  0  0  0  0  0  0  0
   -0.8746   -1.6420    1.1384 C   0  0  0  0  0  3  0  0  0  0  0  0
    0.3637   -1.6122    2.0300 C   0  0  0  0  0  0  0  0  0  0  0  0
   -2.1782   -1.5734    1.8949 C   0  0  0  0  0  0  0  0  0  0  0  0
   -2.3328   -1.5732    3.2098 C   0  0  0  0  0  0  0  0  0  0  0  0
   -0.8754   -3.7954   -1.6210 H   0  0  0  0  0  0  0  0  0  0  0  0
   -0.8729   -1.9470   -1.6200 H   0  0  0  0  0  0  0  0  0  0  0  0
   -0.8794   -3.8186    0.8066 H   0  0  0  0  0  0  0  0  0  0  0  0
   -0.8380   -0.5976    0.3395 H   0  0  0  0  0  0  0  0  0  0  0  0
    1.2665   -1.6206    1.4187 H   0  0  0  0  0  0  0  0  0  0  0  0
    0.3784   -0.7164    2.6531 H   0  0  0  0  0  0  0  0  0  0  0  0
    0.3963   -2.4840    2.6876 H   0  0  0  0  0  0  0  0  0  0  0  0
   -3.0613   -1.5377    1.2623 H   0  0  0  0  0  0  0  0  0  0  0  0
   -1.4924   -1.6125    3.8923 H   0  0  0  0  0  0  0  0  0  0  0  0
   -3.3192   -1.5301    3.6540 H   0  0  0  0  0  0  0  0  0  0  0  0
   -1.4974    0.1000   -1.7743 C   0  0  0  0  0  0  0  0  0  0  0  0
   -0.8016    0.4433   -0.4567 C   0  0  0  0  0  0  0  0  0  0  0  0
    0.4417    1.2669   -0.6671 C   0  0  0  0  0  0  0  0  0  0  0  0
    0.3782    2.6561   -0.7081 C   0  0  0  0  0  0  0  0  0  0  0  0
    1.5131    3.4156   -0.9472 C   0  0  0  0  0  0  0  0  0  0  0  0
    2.7359    2.7943   -1.1504 C   0  0  0  0  0  0  0  0  0  0  0  0
    2.8135    1.4104   -1.1113 C   0  0  0  0  0  0  0  0  0  0  0  0
    1.6751    0.6564   -0.8718 C   0  0  0  0  0  0  0  0  0  0  0  0
   -0.8314   -0.4676   -2.4270 H   0  0  0  0  0  0  0  0  0  0  0  0
   -1.7882    1.0077   -2.3062 H   0  0  0  0  0  0  0  0  0  0  0  0
   -2.3948   -0.4963   -1.6004 H   0  0  0  0  0  0  0  0  0  0  0  0
   -1.4946    0.9884    0.1886 H   0  0  0  0  0  0  0  0  0  0  0  0
   -0.5742    3.1494   -0.5470 H   0  0  0  0  0  0  0  0  0  0  0  0
    1.4429    4.4961   -0.9713 H   0  0  0  0  0  0  0  0  0  0  0  0
    3.6241    3.3854   -1.3344 H   0  0  0  0  0  0  0  0  0  0  0  0
    3.7648    0.9159   -1.2644 H   0  0  0  0  0  0  0  0  0  0  0  0
    1.7442   -0.4254   -0.8396 H   0  0  0  0  0  0  0  0  0  0  0  0
  1  2  2  3
  1  7  1  0
  1  8  1  0
  2  3  1  0
  2  9  1  0
  3  4  1  0
  3  5  1  0
  4 11  1  0
  4 12  1  0
  4 13  1  0
  5  6  2  3
  5 14  1  0
  6 15  1  0
  6 16  1  0
 10 18  1  0
 17 18  1  0
 17 25  1  0
 17 26  1  0
 17 27  1  0
 18 19  1  0
 18 28  1  0
 19 20  2  0
 19 24  1  0
 20 21  1  0
 20 29  1  0
 21 22  2  0
 21 30  1  0
 22 23  1  0
 22 31  1  0
 23 24  2  0
 23 32  1  0
 24 33  1  0
M  RAD  1   3   2
M  END
>  <reaction>  (6) 
rxn_1184

>  <mol_properties>  (6) 
{"1": {"label": "*0", "atom_type": "Cd"}, "2": {"label": "*1", "atom_type": "Cs"}, "9": {"label": "*2", "atom_type": "H0"}, "17": {"label": "*3", "atom_type": "Cd"}, "18": {"label": "*4", "atom_type": "Cd"}}

>  <type>  (6) 
unop_2

>  <geom_source>  (6) 
Heuristics

$$$$

     RDKit          3D

 33 32  0  0  0  0  0  0  0  0999 V2000
    0.2120   -2.3880   -0.2021 C   0  0  0  0  0  0  0  0  0  0  0  0
    0.2120   -2.3880    1.1211 C   0  0  0  0  0  0  0  0  0  0  0  0
    0.2120   -1.1573    1.9905 C   0  0  0  0  0  3  0  0  0  0  0  0
    1.4504   -1.1275    2.8821 C   0  0  0  0  0  0  0  0  0  0  0  0
   -1.0915   -1.0887    2.7470 C   0  0  0  0  0  0  0  0  0  0  0  0
   -1.2461   -1.0885    4.0619 C   0  0  0  0  0  0  0  0  0  0  0  0
    0.2113   -3.3107   -0.7689 H   0  0  0  0  0  0  0  0  0  0  0  0
    0.2138   -1.4623   -0.7679 H   0  0  0  0  0  0  0  0  0  0  0  0
    0.2073   -3.3339    1.6587 H   0  0  0  0  0  0  0  0  0  0  0  0
    0.2486   -0.1129    1.1917 H   0  0  0  0  0  0  0  0  0  0  0  0
    2.3532   -1.1358    2.2708 H   0  0  0  0  0  0  0  0  0  0  0  0
    1.4651   -0.2317    3.5052 H   0  0  0  0  0  0  0  0  0  0  0  0
    1.4830   -1.9992    3.5397 H   0  0  0  0  0  0  0  0  0  0  0  0
   -1.9747   -1.0530    2.1145 H   0  0  0  0  0  0  0  0  0  0  0  0
   -0.4058   -1.1278    4.7445 H   0  0  0  0  0  0  0  0  0  0  0  0
   -2.2325   -1.0453    4.5062 H   0  0  0  0  0  0  0  0  0  0  0  0
   -0.4324    2.1027    1.0614 C   0  0  0  0  0  0  0  0  0  0  0  0
    0.2851    0.9281    0.3954 C   0  0  0  0  0  0  0  0  0  0  0  0
    0.1769    0.9721   -1.1061 C   0  0  0  0  0  0  0  0  0  0  0  0
    1.1177    1.6567   -1.8690 C   0  0  0  0  0  0  0  0  0  0  0  0
    0.9960    1.7380   -3.2475 C   0  0  0  0  0  0  0  0  0  0  0  0
   -0.0743    1.1328   -3.8884 C   0  0  0  0  0  0  0  0  0  0  0  0
   -1.0188    0.4465   -3.1402 C   0  0  0  0  0  0  0  0  0  0  0  0
   -0.8916    0.3687   -1.7619 C   0  0  0  0  0  0  0  0  0  0  0  0
   -1.4938    2.1026    0.8063 H   0  0  0  0  0  0  0  0  0  0  0  0
   -0.0114    3.0528    0.7273 H   0  0  0  0  0  0  0  0  0  0  0  0
   -0.3423    2.0525    2.1479 H   0  0  0  0  0  0  0  0  0  0  0  0
    1.3386    0.9347    0.6850 H   0  0  0  0  0  0  0  0  0  0  0  0
    1.9593    2.1300   -1.3751 H   0  0  0  0  0  0  0  0  0  0  0  0
    1.7413    2.2725   -3.8235 H   0  0  0  0  0  0  0  0  0  0  0  0
   -0.1699    1.1923   -4.9651 H   0  0  0  0  0  0  0  0  0  0  0  0
   -1.8560   -0.0334   -3.6318 H   0  0  0  0  0  0  0  0  0  0  0  0
   -1.6326   -0.1725   -1.1838 H   0  0  0  0  0  0  0  0  0  0  0  0
  1  2  2  3
  1  7  1  0
  1  8  1  0
  2  3  1  0
  2  9  1  0
  3  4  1  0
  3  5  1  0
  4 11  1  0
  4 12  1  0
  4 13  1  0
  5  6  2  3
  5 14  1  0
  6 15  1  0
  6 16  1  0
 10 18  1  0
 17 18  1  0
 17 25  1  0
 17 26  1  0
 17 27  1  0
 18 19  1  0
 18 28  1  0
 19 20  2  0
 19 24  1  0
 20 21  1  0
 20 29  1  0
 21 22  2  0
 21 30  1  0
 22 23  1  0
 22 31  1  0
 23 24  2  0
 23 32  1  0
 24 33  1  0
M  RAD  1   3   2
M  END
>  <reaction>  (7) 
rxn_1184

>  <mol_properties>  (7) 
{"1": {"label": "*0", "atom_type": "Cd"}, "2": {"label": "*1", "atom_type": "Cs"}, "9": {"label": "*2", "atom_type": "H0"}, "17": {"label": "*3", "atom_type": "Cd"}, "18": {"label": "*4", "atom_type": "Cd"}}

>  <type>  (7) 
unop_3

>  <geom_source>  (7) 
Heuristics

$$$$

     RDKit          3D

 33 31  0  0  0  0  0  0  0  0999 V2000
   -0.2337   -2.8357   -2.3098 C   0  0  0  0  0  3  0  0  0  0  0  0
   -0.2337   -2.8357   -0.9866 C   0  0  0  0  0  0  0  0  0  0  0  0
   -0.2337   -1.6050   -0.1172 C   0  0  0  0  0  3  0  0  0  0  0  0
    1.0046   -1.5752    0.7744 C   0  0  0  0  0  3  0  0  0  0  0  0
   -1.5373   -1.5364    0.6393 C   0  0  0  0  0  0  0  0  0  0  0  0
   -1.6919   -1.5361    1.9543 C   0  0  0  0  0  0  0  0  0  0  0  0
   -0.2345   -3.7584   -2.8765 H   0  0  0  0  0  0  0  0  0  0  0  0
   -0.2320   -1.9100   -2.8755 H   0  0  0  0  0  0  0  0  0  0  0  0
   -0.2385   -3.7816   -0.4490 H   0  0  0  0  0  0  0  0  0  0  0  0
   -0.1971   -0.5606   -0.9160 H   0  0  0  0  0  0  0  0  0  0  0  0
    1.9074   -1.5835    0.1632 H   0  0  0  0  0  0  0  0  0  0  0  0
    1.0193   -0.6794    1.3975 H   0  0  0  0  0  0  0  0  0  0  0  0
    1.0372   -2.4469    1.4320 H   0  0  0  0  0  0  0  0  0  0  0  0
   -2.4204   -1.5007    0.0068 H   0  0  0  0  0  0  0  0  0  0  0  0
   -0.8515   -1.5755    2.6368 H   0  0  0  0  0  0  0  0  0  0  0  0
   -2.6783   -1.4930    2.3985 H   0  0  0  0  0  0  0  0  0  0  0  0
    1.1082    0.4247   -2.5638 C   0  0  0  0  0  0  0  0  0  0  0  0
   -0.1607    0.4804   -1.7123 C   0  0  0  0  0  0  0  0  0  0  0  0
    0.0531    1.2237   -0.4200 C   0  0  0  0  0  0  0  0  0  0  0  0
   -0.1376    2.6000   -0.3492 C   0  0  0  0  0  0  0  0  0  0  0  0
    0.1024    3.2942    0.8266 C   0  0  0  0  0  0  0  0  0  0  0  0
    0.5394    2.6191    1.9562 C   0  0  0  0  0  0  0  0  0  0  0  0
    0.7327    1.2472    1.8997 C   0  0  0  0  0  0  0  0  0  0  0  0
    0.4910    0.5587    0.7210 C   0  0  0  0  0  0  0  0  0  0  0  0
    1.9145   -0.0756   -2.0242 H   0  0  0  0  0  0  0  0  0  0  0  0
    1.4508    1.4305   -2.8137 H   0  0  0  0  0  0  0  0  0  0  0  0
    0.9325   -0.1174   -3.4946 H   0  0  0  0  0  0  0  0  0  0  0  0
   -0.9592    0.9620   -2.2816 H   0  0  0  0  0  0  0  0  0  0  0  0
   -0.4823    3.1345   -1.2277 H   0  0  0  0  0  0  0  0  0  0  0  0
   -0.0558    4.3650    0.8618 H   0  0  0  0  0  0  0  0  0  0  0  0
    0.7247    3.1586    2.8764 H   0  0  0  0  0  0  0  0  0  0  0  0
    1.0695    0.7102    2.7778 H   0  0  0  0  0  0  0  0  0  0  0  0
    0.6414   -0.5148    0.6854 H   0  0  0  0  0  0  0  0  0  0  0  0
  1  2  1  0
  1  7  1  0
  1  8  1  0
  2  3  2  3
  2  9  1  0
  3  5  1  0
  4 11  1  0
  4 12  1  0
  4 13  1  0
  5  6  2  3
  5 14  1  0
  6 15  1  0
  6 16  1  0
 10 18  1  0
 17 18  1  0
 17 25  1  0
 17 26  1  0
 17 27  1  0
 18 19  1  0
 18 28  1  0
 19 20  2  0
 19 24  1  0
 20 21  1  0
 20 29  1  0
 21 22  2  0
 21 30  1  0
 22 23  1  0
 22 31  1  0
 23 24  2  0
 23 32  1  0
 24 33  1  0
M  CHG  2   1   1   3  -1
M  RAD  1   4   2
M  END
>  <reaction>  (8) 
rxn_1184

>  <mol_properties>  (8) 
{"1": {"label": "*0", "atom_type": "Cd"}, "2": {"label": "*1", "atom_type": "Cs"}, "9": {"label": "*2", "atom_type": "H0"}, "17": {"label": "*3", "atom_type": "Cd"}, "18": {"label": "*4", "atom_type": "Cd"}}

>  <type>  (8) 
unop_4

>  <geom_source>  (8) 
Heuristics

$$$$

     RDKit          3D

 33 32  0  0  0  0  0  0  0  0999 V2000
    0.9973   -2.3171   -0.6583 C   0  0  0  0  0  0  0  0  0  0  0  0
    0.9973   -2.3171    0.6649 C   0  0  0  0  0  0  0  0  0  0  0  0
    0.9973   -1.0864    1.5343 C   0  0  0  0  0  3  0  0  0  0  0  0
    2.2357   -1.0566    2.4259 C   0  0  0  0  0  0  0  0  0  0  0  0
   -0.3062   -1.0178    2.2908 C   0  0  0  0  0  0  0  0  0  0  0  0
   -0.4609   -1.0175    3.6058 C   0  0  0  0  0  0  0  0  0  0  0  0
    0.9965   -3.2398   -1.2250 H   0  0  0  0  0  0  0  0  0  0  0  0
    0.9990   -1.3914   -1.2240 H   0  0  0  0  0  0  0  0  0  0  0  0
    0.9925   -3.2630    1.2025 H   0  0  0  0  0  0  0  0  0  0  0  0
    1.0339   -0.0420    0.7355 H   0  0  0  0  0  0  0  0  0  0  0  0
    3.1384   -1.0649    1.8147 H   0  0  0  0  0  0  0  0  0  0  0  0
    2.2503   -0.1608    3.0490 H   0  0  0  0  0  0  0  0  0  0  0  0
    2.2682   -1.9283    3.0835 H   0  0  0  0  0  0  0  0  0  0  0  0
   -1.1894   -0.9821    1.6583 H   0  0  0  0  0  0  0  0  0  0  0  0
    0.3795   -1.0569    4.2883 H   0  0  0  0  0  0  0  0  0  0  0  0
   -1.4473   -0.9744    4.0500 H   0  0  0  0  0  0  0  0  0  0  0  0
    1.0720    2.2789    0.7758 C   0  0  0  0  0  0  0  0  0  0  0  0
    1.0704    0.9990   -0.0608 C   0  0  0  0  0  0  0  0  0  0  0  0
   -0.0945    0.9431   -1.0138 C   0  0  0  0  0  0  0  0  0  0  0  0
    0.0039    1.4827   -2.2924 C   0  0  0  0  0  0  0  0  0  0  0  0
   -1.0805    1.4740   -3.1560 C   0  0  0  0  0  0  0  0  0  0  0  0
   -2.2871    0.9227   -2.7522 C   0  0  0  0  0  0  0  0  0  0  0  0
   -2.3986    0.3807   -1.4808 C   0  0  0  0  0  0  0  0  0  0  0  0
   -1.3106    0.3924   -0.6218 C   0  0  0  0  0  0  0  0  0  0  0  0
    0.1574    2.3560    1.3668 H   0  0  0  0  0  0  0  0  0  0  0  0
    1.1272    3.1603    0.1343 H   0  0  0  0  0  0  0  0  0  0  0  0
    1.9228    2.3000    1.4590 H   0  0  0  0  0  0  0  0  0  0  0  0
    2.0046    0.9316   -0.6232 H   0  0  0  0  0  0  0  0  0  0  0  0
    0.9453    1.9129   -2.6165 H   0  0  0  0  0  0  0  0  0  0  0  0
   -0.9820    1.8958   -4.1486 H   0  0  0  0  0  0  0  0  0  0  0  0
   -3.1344    0.9121   -3.4259 H   0  0  0  0  0  0  0  0  0  0  0  0
   -3.3354   -0.0562   -1.1576 H   0  0  0  0  0  0  0  0  0  0  0  0
   -1.4046   -0.0362    0.3701 H   0  0  0  0  0  0  0  0  0  0  0  0
  1  2  2  3
  1  7  1  0
  1  8  1  0
  2  3  1  0
  2  9  1  0
  3  4  1  0
  3  5  1  0
  4 11  1  0
  4 12  1  0
  4 13  1  0
  5  6  2  3
  5 14  1  0
  6 15  1  0
  6 16  1  0
 10 18  1  0
 17 18  1  0
 17 25  1  0
 17 26  1  0
 17 27  1  0
 18 19  1  0
 18 28  1  0
 19 20  2  0
 19 24  1  0
 20 21  1  0
 20 29  1  0
 21 22  2  0
 21 30  1  0
 22 23  1  0
 22 31  1  0
 23 24  2  0
 23 32  1  0
 24 33  1  0
M  RAD  1   3   2
M  END
>  <reaction>  (9) 
rxn_1184

>  <mol_properties>  (9) 
{"1": {"label": "*0", "atom_type": "Cd"}, "2": {"label": "*1", "atom_type": "Cs"}, "9": {"label": "*2", "atom_type": "H0"}, "17": {"label": "*3", "atom_type": "Cd"}, "18": {"label": "*4", "atom_type": "Cd"}}

>  <type>  (9) 
unop_5

>  <geom_source>  (9) 
Heuristics

$$$$

     RDKit          3D

 33 31  0  0  0  0  0  0  0  0999 V2000
    0.3249   -2.7348   -2.3736 C   0  0  0  0  0  3  0  0  0  0  0  0
    0.3249   -2.7348   -1.0503 C   0  0  0  0  0  0  0  0  0  0  0  0
    0.3249   -1.5040   -0.1809 C   0  0  0  0  0  3  0  0  0  0  0  0
    1.5633   -1.4742    0.7107 C   0  0  0  0  0  3  0  0  0  0  0  0
   -0.9786   -1.4354    0.5756 C   0  0  0  0  0  0  0  0  0  0  0  0
   -1.1332   -1.4352    1.8905 C   0  0  0  0  0  0  0  0  0  0  0  0
    0.3242   -3.6574   -2.9403 H   0  0  0  0  0  0  0  0  0  0  0  0
    0.3267   -1.8090   -2.9393 H   0  0  0  0  0  0  0  0  0  0  0  0
    0.3202   -3.6806   -0.5127 H   0  0  0  0  0  0  0  0  0  0  0  0
    0.3615   -0.4597   -0.9798 H   0  0  0  0  0  0  0  0  0  0  0  0
    2.4660   -1.4826    0.0994 H   0  0  0  0  0  0  0  0  0  0  0  0
    1.5780   -0.5785    1.3338 H   0  0  0  0  0  0  0  0  0  0  0  0
    1.5959   -2.3460    1.3683 H   0  0  0  0  0  0  0  0  0  0  0  0
   -1.8618   -1.3997   -0.0570 H   0  0  0  0  0  0  0  0  0  0  0  0
   -0.2929   -1.4745    2.5730 H   0  0  0  0  0  0  0  0  0  0  0  0
   -2.1196   -1.3921    2.3347 H   0  0  0  0  0  0  0  0  0  0  0  0
    1.8537    0.9606   -2.0503 C   0  0  0  0  0  0  0  0  0  0  0  0
    0.3980    0.5813   -1.7760 C   0  0  0  0  0  0  0  0  0  0  0  0
   -0.1023    1.1479   -0.4733 C   0  0  0  0  0  0  0  0  0  0  0  0
   -0.6820    2.4117   -0.4213 C   0  0  0  0  0  0  0  0  0  0  0  0
   -1.1018    2.9551    0.7829 C   0  0  0  0  0  0  0  0  0  0  0  0
   -0.9475    2.2396    1.9605 C   0  0  0  0  0  0  0  0  0  0  0  0
   -0.3720    0.9786    1.9229 C   0  0  0  0  0  0  0  0  0  0  0  0
    0.0458    0.4405    0.7155 C   0  0  0  0  0  0  0  0  0  0  0  0
    2.5059    0.5909   -1.2569 H   0  0  0  0  0  0  0  0  0  0  0  0
    1.9689    2.0451   -2.0956 H   0  0  0  0  0  0  0  0  0  0  0  0
    2.1966    0.5409   -2.9976 H   0  0  0  0  0  0  0  0  0  0  0  0
   -0.2310    0.9396   -2.5944 H   0  0  0  0  0  0  0  0  0  0  0  0
   -0.8089    2.9761   -1.3387 H   0  0  0  0  0  0  0  0  0  0  0  0
   -1.5541    3.9390    0.8013 H   0  0  0  0  0  0  0  0  0  0  0  0
   -1.2772    2.6607    2.9018 H   0  0  0  0  0  0  0  0  0  0  0  0
   -0.2512    0.4099    2.8366 H   0  0  0  0  0  0  0  0  0  0  0  0
    0.4921   -0.5477    0.6936 H   0  0  0  0  0  0  0  0  0  0  0  0
  1  2  1  0
  1  7  1  0
  1  8  1  0
  2  3  2  3
  2  9  1  0
  3  5  1  0
  4 11  1  0
  4 12  1  0
  4 13  1  0
  5  6  2  3
  5 14  1  0
  6 15  1  0
  6 16  1  0
 10 18  1  0
 17 18  1  0
 17 25  1  0
 17 26  1  0
 17 27  1  0
 18 19  1  0
 18 28  1  0
 19 20  2  0
 19 24  1  0
 20 21  1  0
 20 29  1  0
 21 22  2  0
 21 30  1  0
 22 23  1  0
 22 31  1  0
 23 24  2  0
 23 32  1  0
 24 33  1  0
M  CHG  2   1   1   3  -1
M  RAD  1   4   2
M  END
>  <reaction>  (10) 
rxn_1184

>  <mol_properties>  (10) 
{"1": {"label": "*0", "atom_type": "Cd"}, "2": {"label": "*1", "atom_type": "Cs"}, "9": {"label": "*2", "atom_type": "H0"}, "17": {"label": "*3", "atom_type": "Cd"}, "18": {"label": "*4", "atom_type": "Cd"}}

>  <type>  (10) 
unop_6

>  <geom_source>  (10) 
Heuristics

$$$$

     RDKit          3D

 33 31  0  0  0  0  0  0  0  0999 V2000
    0.8474   -2.5767   -2.1434 C   0  0  0  0  0  3  0  0  0  0  0  0
    0.8474   -2.5767   -0.8202 C   0  0  0  0  0  0  0  0  0  0  0  0
    0.8474   -1.3460    0.0492 C   0  0  0  0  0  3  0  0  0  0  0  0
    2.0858   -1.3162    0.9408 C   0  0  0  0  0  3  0  0  0  0  0  0
   -0.4561   -1.2774    0.8057 C   0  0  0  0  0  0  0  0  0  0  0  0
   -0.6107   -1.2772    2.1207 C   0  0  0  0  0  0  0  0  0  0  0  0
    0.8467   -3.4994   -2.7101 H   0  0  0  0  0  0  0  0  0  0  0  0
    0.8492   -1.6510   -2.7091 H   0  0  0  0  0  0  0  0  0  0  0  0
    0.8427   -3.5226   -0.2826 H   0  0  0  0  0  0  0  0  0  0  0  0
    0.8840   -0.3016   -0.7496 H   0  0  0  0  0  0  0  0  0  0  0  0
    2.9886   -1.3246    0.3296 H   0  0  0  0  0  0  0  0  0  0  0  0
    2.1005   -0.4204    1.5639 H   0  0  0  0  0  0  0  0  0  0  0  0
    2.1184   -2.1879    1.5984 H   0  0  0  0  0  0  0  0  0  0  0  0
   -1.3392   -1.2417    0.1732 H   0  0  0  0  0  0  0  0  0  0  0  0
    0.2297   -1.3165    2.8032 H   0  0  0  0  0  0  0  0  0  0  0  0
   -1.5971   -1.2340    2.5649 H   0  0  0  0  0  0  0  0  0  0  0  0
    2.1768    1.5601   -1.2522 C   0  0  0  0  0  0  0  0  0  0  0  0
    0.9205    0.7394   -1.5459 C   0  0  0  0  0  0  0  0  0  0  0  0
   -0.2031    1.0583   -0.5951 C   0  0  0  0  0  0  0  0  0  0  0  0
   -1.1060    2.0790   -0.8752 C   0  0  0  0  0  0  0  0  0  0  0  0
   -2.1138    2.4056    0.0190 C   0  0  0  0  0  0  0  0  0  0  0  0
   -2.2350    1.7129    1.2140 C   0  0  0  0  0  0  0  0  0  0  0  0
   -1.3423    0.6927    1.5054 C   0  0  0  0  0  0  0  0  0  0  0  0
   -0.3366    0.3708    0.6071 C   0  0  0  0  0  0  0  0  0  0  0  0
    2.5362    1.3682   -0.2394 H   0  0  0  0  0  0  0  0  0  0  0  0
    1.9685    2.6286   -1.3330 H   0  0  0  0  0  0  0  0  0  0  0  0
    2.9782    1.3145   -1.9512 H   0  0  0  0  0  0  0  0  0  0  0  0
    0.5946    0.9287   -2.5714 H   0  0  0  0  0  0  0  0  0  0  0  0
   -1.0196    2.6233   -1.8093 H   0  0  0  0  0  0  0  0  0  0  0  0
   -2.8088    3.2011   -0.2198 H   0  0  0  0  0  0  0  0  0  0  0  0
   -3.0229    1.9642    1.9126 H   0  0  0  0  0  0  0  0  0  0  0  0
   -1.4313    0.1427    2.4341 H   0  0  0  0  0  0  0  0  0  0  0  0
    0.3559   -0.4306    0.8405 H   0  0  0  0  0  0  0  0  0  0  0  0
  1  2  1  0
  1  7  1  0
  1  8  1  0
  2  3  2  3
  2  9  1  0
  3  5  1  0
  4 11  1  0
  4 12  1  0
  4 13  1  0
  5  6  2  3
  5 14  1  0
  6 15  1  0
  6 16  1  0
 10 18  1  0
 17 18  1  0
 17 25  1  0
 17 26  1  0
 17 27  1  0
 18 19  1  0
 18 28  1  0
 19 20  2  0
 19 24  1  0
 20 21  1  0
 20 29  1  0
 21 22  2  0
 21 30  1  0
 22 23  1  0
 22 31  1  0
 23 24  2  0
 23 32  1  0
 24 33  1  0
M  CHG  2   1   1   3  -1
M  RAD  1   4   2
M  END
>  <reaction>  (11) 
rxn_1184

>  <mol_properties>  (11) 
{"1": {"label": "*0", "atom_type": "Cd"}, "2": {"label": "*1", "atom_type": "Cs"}, "9": {"label": "*2", "atom_type": "H0"}, "17": {"label": "*3", "atom_type": "Cd"}, "18": {"label": "*4", "atom_type": "Cd"}}

>  <type>  (11) 
unop_7

>  <geom_source>  (11) 
Heuristics

$$$$

     RDKit          3D

 33 32  0  0  0  0  0  0  0  0999 V2000
   -0.6167   -2.7165   -0.5275 C   0  0  0  0  0  0  0  0  0  0  0  0
   -0.6167   -2.7165    0.7958 C   0  0  0  0  0  0  0  0  0  0  0  0
   -0.6167   -1.4857    1.6652 C   0  0  0  0  0  3  0  0  0  0  0  0
    0.6216   -1.4559    2.5568 C   0  0  0  0  0  0  0  0  0  0  0  0
   -1.9203   -1.4171    2.4217 C   0  0  0  0  0  0  0  0  0  0  0  0
   -2.0749   -1.4169    3.7366 C   0  0  0  0  0  0  0  0  0  0  0  0
   -0.6175   -3.6391   -1.0942 H   0  0  0  0  0  0  0  0  0  0  0  0
   -0.6150   -1.7907   -1.0932 H   0  0  0  0  0  0  0  0  0  0  0  0
   -0.6215   -3.6623    1.3334 H   0  0  0  0  0  0  0  0  0  0  0  0
   -0.5801   -0.4414    0.8664 H   0  0  0  0  0  0  0  0  0  0  0  0
    1.5244   -1.4643    1.9455 H   0  0  0  0  0  0  0  0  0  0  0  0
    0.6363   -0.5602    3.1799 H   0  0  0  0  0  0  0  0  0  0  0  0
    0.6542   -2.3277    3.2144 H   0  0  0  0  0  0  0  0  0  0  0  0
   -2.8034   -1.3814    1.7892 H   0  0  0  0  0  0  0  0  0  0  0  0
   -1.2345   -1.4562    4.4192 H   0  0  0  0  0  0  0  0  0  0  0  0
   -3.0613   -1.3738    4.1809 H   0  0  0  0  0  0  0  0  0  0  0  0
   -1.9711    1.0274   -0.2729 C   0  0  0  0  0  0  0  0  0  0  0  0
   -0.5437    0.5996    0.0701 C   0  0  0  0  0  0  0  0  0  0  0  0
    0.4635    1.1378   -0.9118 C   0  0  0  0  0  0  0  0  0  0  0  0
    1.0549    2.3820   -0.7168 C   0  0  0  0  0  0  0  0  0  0  0  0
    1.9478    2.9006   -1.6419 C   0  0  0  0  0  0  0  0  0  0  0  0
    2.2648    2.1792   -2.7829 C   0  0  0  0  0  0  0  0  0  0  0  0
    1.6832    0.9375   -2.9892 C   0  0  0  0  0  0  0  0  0  0  0  0
    0.7911    0.4243   -2.0604 C   0  0  0  0  0  0  0  0  0  0  0  0
   -2.2538    0.6711   -1.2652 H   0  0  0  0  0  0  0  0  0  0  0  0
   -2.0592    2.1154   -0.2739 H   0  0  0  0  0  0  0  0  0  0  0  0
   -2.6847    0.6277    0.4496 H   0  0  0  0  0  0  0  0  0  0  0  0
   -0.2926    0.9454    1.0757 H   0  0  0  0  0  0  0  0  0  0  0  0
    0.8143    2.9507    0.1748 H   0  0  0  0  0  0  0  0  0  0  0  0
    2.4001    3.8693   -1.4694 H   0  0  0  0  0  0  0  0  0  0  0  0
    2.9640    2.5808   -3.5053 H   0  0  0  0  0  0  0  0  0  0  0  0
    1.9278    0.3644   -3.8750 H   0  0  0  0  0  0  0  0  0  0  0  0
    0.3426   -0.5490   -2.2272 H   0  0  0  0  0  0  0  0  0  0  0  0
  1  2  2  3
  1  7  1  0
  1  8  1  0
  2  3  1  0
  2  9  1  0
  3  4  1  0
  3  5  1  0
  4 11  1  0
  4 12  1  0
  4 13  1  0
  5  6  2  3
  5 14  1  0
  6 15  1  0
  6 16  1  0
 10 18  1  0
 17 18  1  0
 17 25  1  0
 17 26  1  0
 17 27  1  0
 18 19  1  0
 18 28  1  0
 19 20  2  0
 19 24  1  0
 20 21  1  0
 20 29  1  0
 21 22  2  0
 21 30  1  0
 22 23  1  0
 22 31  1  0
 23 24  2  0
 23 32  1  0
 24 33  1  0
M  RAD  1   3   2
M  END
>  <reaction>  (12) 
rxn_1184

>  <mol_properties>  (12) 
{"1": {"label": "*0", "atom_type": "Cd"}, "2": {"label": "*1", "atom_type": "Cs"}, "9": {"label": "*2", "atom_type": "H0"}, "17": {"label": "*3", "atom_type": "Cd"}, "18": {"label": "*4", "atom_type": "Cd"}}

>  <type>  (12) 
unop_8

>  <geom_source>  (12) 
Heuristics

$$$$

     RDKit          3D

 33 31  0  0  0  0  0  0  0  0999 V2000
   -0.6913   -2.8771   -1.9760 C   0  0  0  0  0  3  0  0  0  0  0  0
   -0.6913   -2.8771   -0.6528 C   0  0  0  0  0  0  0  0  0  0  0  0
   -0.6913   -1.6463    0.2166 C   0  0  0  0  0  3  0  0  0  0  0  0
    0.5471   -1.6165    1.1082 C   0  0  0  0  0  3  0  0  0  0  0  0
   -1.9948   -1.5777    0.9731 C   0  0  0  0  0  0  0  0  0  0  0  0
   -2.1494   -1.5775    2.2881 C   0  0  0  0  0  0  0  0  0  0  0  0
   -0.6920   -3.7997   -2.5427 H   0  0  0  0  0  0  0  0  0  0  0  0
   -0.6895   -1.9513   -2.5417 H   0  0  0  0  0  0  0  0  0  0  0  0
   -0.6960   -3.8229   -0.1152 H   0  0  0  0  0  0  0  0  0  0  0  0
   -0.6547   -0.6019   -0.5822 H   0  0  0  0  0  0  0  0  0  0  0  0
    1.4498   -1.6249    0.4970 H   0  0  0  0  0  0  0  0  0  0  0  0
    0.5618   -0.7207    1.7313 H   0  0  0  0  0  0  0  0  0  0  0  0
    0.5797   -2.4883    1.7658 H   0  0  0  0  0  0  0  0  0  0  0  0
   -2.8780   -1.5420    0.3406 H   0  0  0  0  0  0  0  0  0  0  0  0
   -1.3091   -1.6168    2.9706 H   0  0  0  0  0  0  0  0  0  0  0  0
   -3.1358   -1.5344    2.7323 H   0  0  0  0  0  0  0  0  0  0  0  0
    0.1276    0.0714   -2.6618 C   0  0  0  0  0  0  0  0  0  0  0  0
   -0.6182    0.4391   -1.3785 C   0  0  0  0  0  0  0  0  0  0  0  0
    0.2250    1.2708   -0.4482 C   0  0  0  0  0  0  0  0  0  0  0  0
    0.2356    2.6588   -0.5445 C   0  0  0  0  0  0  0  0  0  0  0  0
    1.0452    3.4251    0.2795 C   0  0  0  0  0  0  0  0  0  0  0  0
    1.8617    2.8121    1.2177 C   0  0  0  0  0  0  0  0  0  0  0  0
    1.8603    1.4297    1.3249 C   0  0  0  0  0  0  0  0  0  0  0  0
    1.0484    0.6688    0.4980 C   0  0  0  0  0  0  0  0  0  0  0  0
    1.0302   -0.4990   -2.4347 H   0  0  0  0  0  0  0  0  0  0  0  0
    0.4305    0.9692   -3.2039 H   0  0  0  0  0  0  0  0  0  0  0  0
   -0.4999   -0.5305   -3.3214 H   0  0  0  0  0  0  0  0  0  0  0  0
   -1.5291    0.9866   -1.6320 H   0  0  0  0  0  0  0  0  0  0  0  0
   -0.4027    3.1455   -1.2739 H   0  0  0  0  0  0  0  0  0  0  0  0
    1.0358    4.5044    0.1911 H   0  0  0  0  0  0  0  0  0  0  0  0
    2.4927    3.4086    1.8644 H   0  0  0  0  0  0  0  0  0  0  0  0
    2.4911    0.9417    2.0575 H   0  0  0  0  0  0  0  0  0  0  0  0
    1.0504   -0.4119    0.5898 H   0  0  0  0  0  0  0  0  0  0  0  0
  1  2  1  0
  1  7  1  0
  1  8  1  0
  2  3  2  3
  2  9  1  0
  3  5  1  0
  4 11  1  0
  4 12  1  0
  4 13  1  0
  5  6  2  3
  5 14  1  0
  6 15  1  0
  6 16  1  0
 10 18  1  0
 17 18  1  0
 17 25  1  0
 17 26  1  0
 17 27  1  0
 18 19  1  0
 18 28  1  0
 19 20  2  0
 19 24  1  0
 20 21  1  0
 20 29  1  0
 21 22  2  0
 21 30  1  0
 22 23  1  0
 22 31  1  0
 23 24  2  0
 23 32  1  0
 24 33  1  0
M  CHG  2   1   1   3  -1
M  RAD  1   4   2
M  END
>  <reaction>  (13) 
rxn_1184

>  <mol_properties>  (13) 
{"1": {"label": "*0", "atom_type": "Cd"}, "2": {"label": "*1", "atom_type": "Cs"}, "9": {"label": "*2", "atom_type": "H0"}, "17": {"label": "*3", "atom_type": "Cd"}, "18": {"label": "*4", "atom_type": "Cd"}}

>  <type>  (13) 
unop_9

>  <geom_source>  (13) 
Heuristics

$$$$

     RDKit          3D

 33 32  0  0  0  0  0  0  0  0999 V2000
   -0.7602   -2.8248   -0.7613 C   0  0  0  0  0  0  0  0  0  0  0  0
   -0.7602   -2.8248    0.5619 C   0  0  0  0  0  0  0  0  0  0  0  0
   -0.7602   -1.5941    1.4313 C   0  0  0  0  0  3  0  0  0  0  0  0
    0.4782   -1.5643    2.3229 C   0  0  0  0  0  0  0  0  0  0  0  0
   -2.0637   -1.5255    2.1878 C   0  0  0  0  0  0  0  0  0  0  0  0
   -2.2183   -1.5252    3.5028 C   0  0  0  0  0  0  0  0  0  0  0  0
   -0.7609   -3.7475   -1.3280 H   0  0  0  0  0  0  0  0  0  0  0  0
   -0.7584   -1.8990   -1.3270 H   0  0  0  0  0  0  0  0  0  0  0  0
   -0.7649   -3.7707    1.0995 H   0  0  0  0  0  0  0  0  0  0  0  0
   -0.7236   -0.5497    0.6325 H   0  0  0  0  0  0  0  0  0  0  0  0
    1.3810   -1.5726    1.7117 H   0  0  0  0  0  0  0  0  0  0  0  0
    0.4929   -0.6685    2.9460 H   0  0  0  0  0  0  0  0  0  0  0  0
    0.5108   -2.4360    2.9805 H   0  0  0  0  0  0  0  0  0  0  0  0
   -2.9469   -1.4898    1.5553 H   0  0  0  0  0  0  0  0  0  0  0  0
   -1.3780   -1.5646    4.1853 H   0  0  0  0  0  0  0  0  0  0  0  0
   -3.2047   -1.4821    3.9470 H   0  0  0  0  0  0  0  0  0  0  0  0
   -1.9151    0.4776   -1.0748 C   0  0  0  0  0  0  0  0  0  0  0  0
   -0.6871    0.4913   -0.1638 C   0  0  0  0  0  0  0  0  0  0  0  0
    0.4765    1.2161   -0.7874 C   0  0  0  0  0  0  0  0  0  0  0  0
    0.6396    2.5866   -0.6121 C   0  0  0  0  0  0  0  0  0  0  0  0
    1.6835    3.2648   -1.2222 C   0  0  0  0  0  0  0  0  0  0  0  0
    2.5854    2.5794   -2.0218 C   0  0  0  0  0  0  0  0  0  0  0  0
    2.4350    1.2131   -2.2044 C   0  0  0  0  0  0  0  0  0  0  0  0
    1.3891    0.5405   -1.5916 C   0  0  0  0  0  0  0  0  0  0  0  0
   -1.6884   -0.0148   -2.0222 H   0  0  0  0  0  0  0  0  0  0  0  0
   -2.2414    1.4947   -1.2996 H   0  0  0  0  0  0  0  0  0  0  0  0
   -2.7461   -0.0516   -0.6051 H   0  0  0  0  0  0  0  0  0  0  0  0
   -0.9449    0.9657    0.7861 H   0  0  0  0  0  0  0  0  0  0  0  0
   -0.0601    3.1290    0.0145 H   0  0  0  0  0  0  0  0  0  0  0  0
    1.7950    4.3312   -1.0698 H   0  0  0  0  0  0  0  0  0  0  0  0
    3.4031    3.1064   -2.4969 H   0  0  0  0  0  0  0  0  0  0  0  0
    3.1368    0.6681   -2.8234 H   0  0  0  0  0  0  0  0  0  0  0  0
    1.2797   -0.5287   -1.7365 H   0  0  0  0  0  0  0  0  0  0  0  0
  1  2  2  3
  1  7  1  0
  1  8  1  0
  2  3  1  0
  2  9  1  0
  3  4  1  0
  3  5  1  0
  4 11  1  0
  4 12  1  0
  4 13  1  0
  5  6  2  3
  5 14  1  0
  6 15  1  0
  6 16  1  0
 10 18  1  0
 17 18  1  0
 17 25  1  0
 17 26  1  0
 17 27  1  0
 18 19  1  0
 18 28  1  0
 19 20  2  0
 19 24  1  0
 20 21  1  0
 20 29  1  0
 21 22  2  0
 21 30  1  0
 22 23  1  0
 22 31  1  0
 23 24  2  0
 23 32  1  0
 24 33  1  0
M  RAD  1   3   2
M  END
>  <reaction>  (14) 
rxn_1184

>  <mol_properties>  (14) 
{"1": {"label": "*0", "atom_type": "Cd"}, "2": {"label": "*1", "atom_type": "Cs"}, "9": {"label": "*2", "atom_type": "H0"}, "17": {"label": "*3", "atom_type": "Cd"}, "18": {"label": "*4", "atom_type": "Cd"}}

>  <type>  (14) 
unop_10

>  <geom_source>  (14) 
Heuristics

$$$$

     RDKit          3D

 33 32  0  0  0  0  0  0  0  0999 V2000
    1.1956   -2.4064   -1.5642 C   0  0  0  0  0  3  0  0  0  0  0  0
    1.1956   -2.4064   -0.2409 C   0  0  0  0  0  0  0  0  0  0  0  0
    1.1956   -1.1756    0.6285 C   0  0  0  0  0  0  0  0  0  0  0  0
    2.4340   -1.1458    1.5201 C   0  0  0  0  0  0  0  0  0  0  0  0
   -0.1079   -1.1071    1.3850 C   0  0  0  0  0  0  0  0  0  0  0  0
   -0.2625   -1.1068    2.6999 C   0  0  0  0  0  3  0  0  0  0  0  0
    1.1949   -3.3290   -2.1309 H   0  0  0  0  0  0  0  0  0  0  0  0
    1.1974   -1.4806   -2.1299 H   0  0  0  0  0  0  0  0  0  0  0  0
    1.1909   -3.3522    0.2967 H   0  0  0  0  0  0  0  0  0  0  0  0
    1.2322   -0.1313   -0.1703 H   0  0  0  0  0  0  0  0  0  0  0  0
    3.3367   -1.1542    0.9088 H   0  0  0  0  0  0  0  0  0  0  0  0
    2.4487   -0.2501    2.1432 H   0  0  0  0  0  0  0  0  0  0  0  0
    2.4666   -2.0176    2.1777 H   0  0  0  0  0  0  0  0  0  0  0  0
   -0.9911   -1.0713    0.7525 H   0  0  0  0  0  0  0  0  0  0  0  0
    0.5778   -1.1461    3.3825 H   0  0  0  0  0  0  0  0  0  0  0  0
   -1.2489   -1.0637    3.1442 H   0  0  0  0  0  0  0  0  0  0  0  0
    1.9928    2.0601   -0.2663 C   0  0  0  0  0  0  0  0  0  0  0  0
    1.2687    0.9097   -0.9666 C   0  0  0  0  0  0  0  0  0  0  0  0
   -0.2242    0.9793   -0.7806 C   0  0  0  0  0  0  0  0  0  0  0  0
   -1.0211    1.6930   -1.6702 C   0  0  0  0  0  0  0  0  0  0  0  0
   -2.3898    1.7974   -1.4765 C   0  0  0  0  0  0  0  0  0  0  0  0
   -2.9864    1.1864   -0.3840 C   0  0  0  0  0  0  0  0  0  0  0  0
   -2.2041    0.4712    0.5099 C   0  0  0  0  0  0  0  0  0  0  0  0
   -0.8358    0.3705    0.3108 C   0  0  0  0  0  3  0  0  0  0  0  0
    1.7924    2.0472    0.8067 H   0  0  0  0  0  0  0  0  0  0  0  0
    1.6557    3.0229   -0.6548 H   0  0  0  0  0  0  0  0  0  0  0  0
    3.0720    1.9915   -0.4129 H   0  0  0  0  0  0  0  0  0  0  0  0
    1.5040    0.9283   -2.0334 H   0  0  0  0  0  0  0  0  0  0  0  0
   -0.5620    2.1710   -2.5287 H   0  0  0  0  0  0  0  0  0  0  0  0
   -2.9928    2.3545   -2.1828 H   0  0  0  0  0  0  0  0  0  0  0  0
   -4.0555    1.2640   -0.2322 H   0  0  0  0  0  0  0  0  0  0  0  0
   -2.6612   -0.0133    1.3638 H   0  0  0  0  0  0  0  0  0  0  0  0
   -0.2309   -0.1932    1.0126 H   0  0  0  0  0  0  0  0  0  0  0  0
  1  2  1  0
  1  7  1  0
  1  8  1  0
  2  3  2  3
  2  9  1  0
  3  4  1  0
  3  5  1  0
  4 11  1  0
  4 12  1  0
  4 13  1  0
  5  6  1  0
  5 14  1  0
  5 33  1  0
  6 15  1  0
  6 16  1  0
 10 18  1  0
 17 18  1  0
 17 25  1  0
 17 26  1  0
 17 27  1  0
 18 19  1  0
 18 28  1  0
 19 20  2  0
 19 24  1  0
 20 21  1  0
 20 29  1  0
 21 22  2  0
 21 30  1  0
 22 23  1  0
 22 31  1  0
 23 24  2  0
 23 32  1  0
M  CHG  2   1   1   6  -1
M  RAD  1  24   2
M  END
>  <reaction>  (15) 
rxn_1184

>  <mol_properties>  (15) 
{"1": {"label": "*0", "atom_type": "Cd"}, "2": {"label": "*1", "atom_type": "Cs"}, "9": {"label": "*2", "atom_type": "H0"}, "17": {"label": "*3", "atom_type": "Cd"}, "18": {"label": "*4", "atom_type": "Cd"}}

>  <type>  (15) 
unop_11

>  <geom_source>  (15) 
Heuristics

$$$$

     RDKit          3D

 33 32  0  0  0  0  0  0  0  0999 V2000
   -0.9035   -2.8840   -1.4865 C   0  0  0  0  0  0  0  0  0  0  0  0
   -0.9035   -2.8840   -0.1633 C   0  0  0  0  0  0  0  0  0  0  0  0
   -0.9035   -1.6532    0.7061 C   0  0  0  0  0  3  0  0  0  0  0  0
    0.3348   -1.6235    1.5977 C   0  0  0  0  0  0  0  0  0  0  0  0
   -2.2071   -1.5847    1.4626 C   0  0  0  0  0  0  0  0  0  0  0  0
   -2.3617   -1.5844    2.7776 C   0  0  0  0  0  0  0  0  0  0  0  0
   -0.9043   -3.8066   -2.0532 H   0  0  0  0  0  0  0  0  0  0  0  0
   -0.9018   -1.9582   -2.0522 H   0  0  0  0  0  0  0  0  0  0  0  0
   -0.9083   -3.8298    0.3744 H   0  0  0  0  0  0  0  0  0  0  0  0
   -0.8669   -0.6089   -0.0927 H   0  0  0  0  0  0  0  0  0  0  0  0
    1.2376   -1.6318    0.9865 H   0  0  0  0  0  0  0  0  0  0  0  0
    0.3495   -0.7277    2.2208 H   0  0  0  0  0  0  0  0  0  0  0  0
    0.3674   -2.4952    2.2553 H   0  0  0  0  0  0  0  0  0  0  0  0
   -3.0902   -1.5489    0.8301 H   0  0  0  0  0  0  0  0  0  0  0  0
   -1.5213   -1.6237    3.4601 H   0  0  0  0  0  0  0  0  0  0  0  0
   -3.3481   -1.5413    3.2218 H   0  0  0  0  0  0  0  0  0  0  0  0
   -0.8038   -0.0408   -2.3428 C   0  0  0  0  0  0  0  0  0  0  0  0
   -0.8305    0.4321   -0.8889 C   0  0  0  0  0  0  0  0  0  0  0  0
    0.3623    1.2851   -0.5457 C   0  0  0  0  0  0  0  0  0  0  0  0
    0.3311    2.6633   -0.7340 C   0  0  0  0  0  0  0  0  0  0  0  0
    1.4427    3.4459   -0.4624 C   0  0  0  0  0  0  0  0  0  0  0  0
    2.6093    2.8595    0.0041 C   0  0  0  0  0  0  0  0  0  0  0  0
    2.6538    1.4871    0.1970 C   0  0  0  0  0  0  0  0  0  0  0  0
    1.5389    0.7097   -0.0764 C   0  0  0  0  0  0  0  0  0  0  0  0
    0.0928   -0.6311   -2.5412 H   0  0  0  0  0  0  0  0  0  0  0  0
   -0.7983    0.8102   -3.0264 H   0  0  0  0  0  0  0  0  0  0  0  0
   -1.6755   -0.6566   -2.5711 H   0  0  0  0  0  0  0  0  0  0  0  0
   -1.7473    0.9983   -0.7080 H   0  0  0  0  0  0  0  0  0  0  0  0
   -0.5788    3.1296   -1.0956 H   0  0  0  0  0  0  0  0  0  0  0  0
    1.3965    4.5175   -0.6121 H   0  0  0  0  0  0  0  0  0  0  0  0
    3.4777    3.4689    0.2197 H   0  0  0  0  0  0  0  0  0  0  0  0
    3.5589    1.0201    0.5653 H   0  0  0  0  0  0  0  0  0  0  0  0
    1.5803   -0.3627    0.0800 H   0  0  0  0  0  0  0  0  0  0  0  0
  1  2  2  3
  1  7  1  0
  1  8  1  0
  2  3  1  0
  2  9  1  0
  3  4  1  0
  3  5  1  0
  4 11  1  0
  4 12  1  0
  4 13  1  0
  5  6  2  3
  5 14  1  0
  6 15  1  0
  6 16  1  0
 10 18  1  0
 17 18  1  0
 17 25  1  0
 17 26  1  0
 17 27  1  0
 18 19  1  0
 18 28  1  0
 19 20  2  0
 19 24  1  0
 20 21  1  0
 20 29  1  0
 21 22  2  0
 21 30  1  0
 22 23  1  0
 22 31  1  0
 23 24  2  0
 23 32  1  0
 24 33  1  0
M  RAD  1   3   2
M  END
>  <reaction>  (16) 
rxn_1184

>  <mol_properties>  (16) 
{"1": {"label": "*0", "atom_type": "Cd"}, "2": {"label": "*1", "atom_type": "Cs"}, "9": {"label": "*2", "atom_type": "H0"}, "17": {"label": "*3", "atom_type": "Cd"}, "18": {"label": "*4", "atom_type": "Cd"}}

>  <type>  (16) 
unop_12

>  <geom_source>  (16) 
Heuristics

$$$$

     RDKit          3D

 33 32  0  0  0  0  0  0  0  0999 V2000
    0.4610   -0.2685   -1.1430 C   0  0  0  0  0  0  0  0  0  0  0  0
    0.8356    0.7845   -2.1789 C   0  0  0  0  0  0  0  0  0  0  0  0
   -3.5179   -0.2524   -0.9700 C   0  0  0  0  0  0  0  0  0  0  0  0
    1.4869   -0.3263   -0.0452 C   0  0  0  0  0  0  0  0  0  0  0  0
   -2.0684   -0.1925   -0.4898 C   0  0  0  0  0  0  0  0  0  0  0  0
    1.3506    0.4870    1.0914 C   0  0  0  0  0  3  0  0  0  0  0  0
    2.6150   -1.1544   -0.1696 C   0  0  0  0  0  0  0  0  0  0  0  0
   -1.9121   -0.7767    0.8842 C   0  0  0  0  0  0  0  0  0  0  0  0
   -1.4848    1.1937   -0.5766 C   0  0  0  0  0  0  0  0  0  0  0  0
    2.3194    0.4553    2.0995 C   0  0  0  0  0  0  0  0  0  0  0  0
    3.4329   -0.3804    1.9753 C   0  0  0  0  0  0  0  0  0  0  0  0
    3.5815   -1.1832    0.8408 C   0  0  0  0  0  0  0  0  0  0  0  0
   -1.0775   -1.7946    1.0963 C   0  0  0  0  0  0  0  0  0  0  0  0
   -1.9618    2.2241    0.1311 C   0  0  0  0  0  0  0  0  0  0  0  0
    0.3749   -1.2597   -1.6393 H   0  0  0  0  0  0  0  0  0  0  0  0
   -0.7627    0.0365   -0.6214 H   0  0  0  0  0  0  0  0  0  0  0  0
    0.0615    0.8115   -2.9740 H   0  0  0  0  0  0  0  0  0  0  0  0
    1.8157    0.5403   -2.6417 H   0  0  0  0  0  0  0  0  0  0  0  0
    0.8918    1.7868   -1.7035 H   0  0  0  0  0  0  0  0  0  0  0  0
   -3.8614   -1.3082   -0.9908 H   0  0  0  0  0  0  0  0  0  0  0  0
   -3.5915    0.1579   -1.9993 H   0  0  0  0  0  0  0  0  0  0  0  0
   -4.1839    0.3293   -0.2975 H   0  0  0  0  0  0  0  0  0  0  0  0
    0.4974    1.1457    1.1958 H   0  0  0  0  0  0  0  0  0  0  0  0
    2.2086    1.0811    2.9756 H   0  0  0  0  0  0  0  0  0  0  0  0
    2.7456   -1.7749   -1.0476 H   0  0  0  0  0  0  0  0  0  0  0  0
    4.1823   -0.4029    2.7559 H   0  0  0  0  0  0  0  0  0  0  0  0
    4.4472   -1.8254    0.7428 H   0  0  0  0  0  0  0  0  0  0  0  0
   -2.4735   -0.3607    1.7161 H   0  0  0  0  0  0  0  0  0  0  0  0
   -0.6372    1.3527   -1.2352 H   0  0  0  0  0  0  0  0  0  0  0  0
   -0.5018   -2.2226    0.2810 H   0  0  0  0  0  0  0  0  0  0  0  0
   -0.9662   -2.2069    2.0939 H   0  0  0  0  0  0  0  0  0  0  0  0
   -1.5046    3.2037    0.0376 H   0  0  0  0  0  0  0  0  0  0  0  0
   -2.8026    2.1002    0.8062 H   0  0  0  0  0  0  0  0  0  0  0  0
  1  2  1  0
  1  4  2  3
  1 15  1  0
  2 17  1  0
  2 18  1  0
  2 19  1  0
  3  5  1  0
  3 20  1  0
  3 21  1  0
  3 22  1  0
  4  6  1  0
  4  7  1  0
  5  8  1  0
  5  9  1  0
  5 16  1  0
  6 10  1  0
  6 23  1  0
  7 12  2  0
  7 25  1  0
  8 13  2  3
  8 28  1  0
  9 14  2  3
  9 29  1  0
 10 11  2  0
 10 24  1  0
 11 12  1  0
 11 26  1  0
 12 27  1  0
 13 30  1  0
 13 31  1  0
 14 32  1  0
 14 33  1  0
M  RAD  1   6   2
M  END
>  <reaction>  (17) 
rxn_1184

>  <mol_properties>  (17) 
{"1": {"label": "*0", "atom_type": "Cd"}, "2": {"label": "*1", "atom_type": "Cs"}, "9": {"label": "*2", "atom_type": "H0"}, "17": {"label": "*3", "atom_type": "Cd"}, "18": {"label": "*4", "atom_type": "Cd"}}

>  <type>  (17) 
unop_13

>  <geom_source>  (17) 
AutoTST

$$$$
