
     RDKit          3D

  8  7  0  0  0  0  0  0  0  0999 V2000
    0.7610    0.0250    0.0051 C   0  0  0  0  0  0  0  0  0  0  0  0
   -0.7610   -0.0250   -0.0051 C   0  0  0  0  0  0  0  0  0  0  0  0
    1.1904   -0.9237   -0.3217 H   0  0  0  0  0  0  0  0  0  0  0  0
    1.1359    0.8041   -0.6609 H   0  0  0  0  0  0  0  0  0  0  0  0
    1.1435    0.2336    1.0058 H   0  0  0  0  0  0  0  0  0  0  0  0
   -1.1435   -0.2336   -1.0058 H   0  0  0  0  0  0  0  0  0  0  0  0
   -1.1904    0.9237    0.3216 H   0  0  0  0  0  0  0  0  0  0  0  0
   -1.1359   -0.8041    0.6609 H   0  0  0  0  0  0  0  0  0  0  0  0
  1  2  1  0
  1  3  1  0
  1  4  1  0
  1  5  1  0
  2  6  1  0
  2  7  1  0
  2  8  1  0
M  END
>  <reaction>  (1) 
rxn_896

>  <mol_properties>  (1) 
{"1": {"label": "donator", "atom_type": "Cs"}, "5": {"label": "d_hydrogen", "atom_type": "H0"}}

>  <type>  (1) 
r1h

$$$$

     RDKit          3D

  9  8  0  0  0  0  0  0  0  0999 V2000
    2.3991   -0.1292   -0.2384 S   0  0  0  0  0  0  0  0  0  0  0  0
    0.7460    0.2807    0.0931 C   0  0  0  0  0  3  0  0  0  0  0  0
   -0.3131   -0.5719   -0.2043 C   0  0  0  0  0  0  0  0  0  0  0  0
   -0.2286   -1.8095   -0.7775 C   0  0  0  0  0  0  0  0  0  0  0  0
    2.9373    1.0009    0.2312 H   0  0  0  0  0  0  0  0  0  0  0  0
    0.5618    1.2421    0.5487 H   0  0  0  0  0  0  0  0  0  0  0  0
   -1.2978   -0.1954    0.0537 H   0  0  0  0  0  0  0  0  0  0  0  0
    0.7207   -2.2479   -1.0607 H   0  0  0  0  0  0  0  0  0  0  0  0
   -1.1177   -2.3938   -0.9670 H   0  0  0  0  0  0  0  0  0  0  0  0
  1  2  1  0
  1  5  1  0
  2  3  1  0
  2  6  1  0
  3  4  2  3
  3  7  1  0
  4  8  1  0
  4  9  1  0
M  RAD  1   2   2
M  END
>  <reaction>  (2) 
rxn_896

>  <mol_properties>  (2) 
{"1": {"label": "acceptor", "atom_type": "Cs"}}

>  <type>  (2) 
r2

$$$$

     RDKit          3D

 10  9  0  0  0  0  0  0  0  0999 V2000
    2.2097   -0.5315    0.2575 S   0  0  0  0  0  0  0  0  0  0  0  0
    0.5401   -0.7188   -0.4494 C   0  0  0  0  0  0  0  0  0  0  0  0
   -0.5263   -0.1678    0.4365 C   0  0  0  0  0  0  0  0  0  0  0  0
   -1.3394    0.8185    0.0912 C   0  0  0  0  0  0  0  0  0  0  0  0
    2.1701    0.8016    0.3806 H   0  0  0  0  0  0  0  0  0  0  0  0
    0.4238   -1.7978   -0.5701 H   0  0  0  0  0  0  0  0  0  0  0  0
    0.5053   -0.2663   -1.4400 H   0  0  0  0  0  0  0  0  0  0  0  0
   -0.6005   -0.6141    1.4236 H   0  0  0  0  0  0  0  0  0  0  0  0
   -2.0960    1.1907    0.7700 H   0  0  0  0  0  0  0  0  0  0  0  0
   -1.2784    1.2877   -0.8850 H   0  0  0  0  0  0  0  0  0  0  0  0
  1  2  1  0
  1  5  1  0
  2  3  1  0
  2  6  1  0
  2  7  1  0
  3  4  2  3
  3  8  1  0
  4  9  1  0
  4 10  1  0
M  END
>  <reaction>  (3) 
rxn_896

>  <mol_properties>  (3) 
{"1": {"label": "acceptor", "atom_type": "Cs"}, "9": {"label": "a_hydrogen", "atom_type": "H0"}}

>  <type>  (3) 
r2h

$$$$

     RDKit          3D

 17 15  0  0  0  0  0  0  0  0999 V2000
    0.6979    1.3245   -1.1245 S   0  0  0  0  0  0  0  0  0  0  0  0
    0.0625    0.4123    0.2859 C   0  0  0  0  0  0  0  0  0  0  0  0
    0.7722    0.5744    1.5569 C   0  0  0  0  0  0  0  0  0  0  0  0
    0.1794    0.5913    2.7488 C   0  0  0  0  0  0  0  0  0  0  0  0
    0.4633    2.5615   -0.6615 H   0  0  0  0  0  0  0  0  0  0  0  0
   -1.0216    0.4732    0.3710 H   0  0  0  0  0  0  0  0  0  0  0  0
    1.8535    0.6533    1.4921 H   0  0  0  0  0  0  0  0  0  0  0  0
   -0.8987    0.5248    2.8465 H   0  0  0  0  0  0  0  0  0  0  0  0
    0.7535    0.6766    3.6622 H   0  0  0  0  0  0  0  0  0  0  0  0
   -0.8709   -2.2889   -1.5174 C   0  0  0  0  0  0  0  0  0  0  0  0
    0.3235   -2.1116   -0.6273 C   0  0  0  0  0  3  0  0  0  0  0  0
   -1.8026   -2.1844   -0.9584 H   0  0  0  0  0  0  0  0  0  0  0  0
   -0.8755   -1.5534   -2.3239 H   0  0  0  0  0  0  0  0  0  0  0  0
   -0.8778   -3.2820   -1.9790 H   0  0  0  0  0  0  0  0  0  0  0  0
    0.2370   -0.8072   -0.1167 H   0  0  0  0  0  0  0  0  0  0  0  0
    1.2906   -2.0899   -1.1247 H   0  0  0  0  0  0  0  0  0  0  0  0
    0.3339   -2.6978    0.2888 H   0  0  0  0  0  0  0  0  0  0  0  0
  1  2  1  0
  1  5  1  0
  2  3  1  0
  2  6  1  0
  2 15  1  0
  3  4  2  3
  3  7  1  0
  4  8  1  0
  4  9  1  0
 10 11  1  0
 10 12  1  0
 10 13  1  0
 10 14  1  0
 11 16  1  0
 11 17  1  0
M  RAD  1  11   2
M  END
>  <reaction>  (4) 
rxn_896

>  <mol_properties>  (4) 
{"0": {"label": "*0", "atom_type": "S2s"}, "1": {"label": "*1", "atom_type": "Cs"}, "9": {"label": "*4", "atom_type": "Cs"}, "10": {"label": "*3", "atom_type": "Cs"}, "14": {"label": "*2", "atom_type": "H0"}}

>  <type>  (4) 
ts

$$$$

     RDKit          3D

 17 15  0  0  0  0  0  0  0  0999 V2000
   -1.3425    0.3371    1.2258 S   0  0  0  0  0  0  0  0  0  0  0  0
    0.1891    0.2469    0.2417 C   0  0  0  0  0  3  0  0  0  0  0  0
    0.6704    1.5881   -0.2003 C   0  0  0  0  0  0  0  0  0  0  0  0
    1.8428    2.1023    0.1375 C   0  0  0  0  0  0  0  0  0  0  0  0
   -0.8572    1.1388    2.1827 H   0  0  0  0  0  0  0  0  0  0  0  0
    0.9576   -0.2849    0.8020 H   0  0  0  0  0  0  0  0  0  0  0  0
   -0.0151    2.1571   -0.8210 H   0  0  0  0  0  0  0  0  0  0  0  0
    2.5406    1.5582    0.7651 H   0  0  0  0  0  0  0  0  0  0  0  0
    2.1481    3.0836   -0.2023 H   0  0  0  0  0  0  0  0  0  0  0  0
    0.1891   -2.1947   -2.2313 C   0  0  0  0  0  0  0  0  0  0  0  0
    0.1891   -2.1947   -0.7085 C   0  0  0  0  0  0  0  0  0  0  0  0
   -0.6917   -1.6861   -2.6271 H   0  0  0  0  0  0  0  0  0  0  0  0
    1.0700   -1.6862   -2.6271 H   0  0  0  0  0  0  0  0  0  0  0  0
    0.1891   -3.2118   -2.6271 H   0  0  0  0  0  0  0  0  0  0  0  0
    0.1891   -0.9742   -0.2335 H   0  0  0  0  0  0  0  0  0  0  0  0
    1.0700   -2.7033   -0.3127 H   0  0  0  0  0  0  0  0  0  0  0  0
   -0.6917   -2.7033   -0.3127 H   0  0  0  0  0  0  0  0  0  0  0  0
  1  2  1  0
  1  5  1  0
  2  3  1  0
  2  6  1  0
  3  4  2  3
  3  7  1  0
  4  8  1  0
  4  9  1  0
 10 11  1  0
 10 12  1  0
 10 13  1  0
 10 14  1  0
 11 15  1  0
 11 16  1  0
 11 17  1  0
M  RAD  1   2   2
M  END
>  <reaction>  (5) 
rxn_896

>  <mol_properties>  (5) 
{"0": {"label": "*0", "atom_type": "S2s"}, "1": {"label": "*1", "atom_type": "Cs"}, "9": {"label": "*4", "atom_type": "Cs"}, "10": {"label": "*3", "atom_type": "Cs"}, "14": {"label": "*2", "atom_type": "H0"}}

>  <type>  (5) 
unop_1

>  <geom_source>  (5) 
Heuristics

$$$$

     RDKit          3D

 17 15  0  0  0  0  0  0  0  0999 V2000
   -0.9330    1.1209   -0.6980 S   0  0  0  0  0  0  0  0  0  0  0  0
   -0.0487    0.1545    0.5694 C   0  0  0  0  0  3  0  0  0  0  0  0
    1.1426    0.8695    1.1127 C   0  0  0  0  0  0  0  0  0  0  0  0
    1.2880    1.2052    2.3853 C   0  0  0  0  0  0  0  0  0  0  0  0
   -1.1814    2.1866    0.0744 H   0  0  0  0  0  0  0  0  0  0  0  0
   -0.7372   -0.1295    1.3648 H   0  0  0  0  0  0  0  0  0  0  0  0
    1.9095    1.1307    0.3899 H   0  0  0  0  0  0  0  0  0  0  0  0
    0.5314    0.9649    3.1247 H   0  0  0  0  0  0  0  0  0  0  0  0
    2.1683    1.7297    2.7340 H   0  0  0  0  0  0  0  0  0  0  0  0
   -0.0487   -2.2871   -1.9036 C   0  0  0  0  0  0  0  0  0  0  0  0
   -0.0487   -2.2871   -0.3808 C   0  0  0  0  0  0  0  0  0  0  0  0
   -0.9296   -1.7786   -2.2995 H   0  0  0  0  0  0  0  0  0  0  0  0
    0.8321   -1.7786   -2.2995 H   0  0  0  0  0  0  0  0  0  0  0  0
   -0.0487   -3.3043   -2.2995 H   0  0  0  0  0  0  0  0  0  0  0  0
   -0.0487   -1.0666    0.0942 H   0  0  0  0  0  0  0  0  0  0  0  0
    0.8321   -2.7957    0.0150 H   0  0  0  0  0  0  0  0  0  0  0  0
   -0.9296   -2.7957    0.0150 H   0  0  0  0  0  0  0  0  0  0  0  0
  1  2  1  0
  1  5  1  0
  2  3  1  0
  2  6  1  0
  3  4  2  3
  3  7  1  0
  4  8  1  0
  4  9  1  0
 10 11  1  0
 10 12  1  0
 10 13  1  0
 10 14  1  0
 11 15  1  0
 11 16  1  0
 11 17  1  0
M  RAD  1   2   2
M  END
>  <reaction>  (6) 
rxn_896

>  <mol_properties>  (6) 
{"0": {"label": "*0", "atom_type": "S2s"}, "1": {"label": "*1", "atom_type": "Cs"}, "9": {"label": "*4", "atom_type": "Cs"}, "10": {"label": "*3", "atom_type": "Cs"}, "14": {"label": "*2", "atom_type": "H0"}}

>  <type>  (6) 
unop_2

>  <geom_source>  (6) 
Heuristics

$$$$

     RDKit          3D

 17 15  0  0  0  0  0  0  0  0999 V2000
   -0.6734    0.1323    1.7958 S   0  0  0  0  0  0  0  0  0  0  0  0
    0.2109    0.2769    0.2085 C   0  0  0  0  0  3  0  0  0  0  0  0
   -0.0517    1.5731   -0.4819 C   0  0  0  0  0  0  0  0  0  0  0  0
    0.8866    2.4615   -0.7710 C   0  0  0  0  0  0  0  0  0  0  0  0
   -0.1428    1.2244    2.3613 H   0  0  0  0  0  0  0  0  0  0  0  0
    1.2778    0.1200    0.3642 H   0  0  0  0  0  0  0  0  0  0  0  0
   -1.0887    1.7756   -0.7322 H   0  0  0  0  0  0  0  0  0  0  0  0
    1.9279    2.2872   -0.5220 H   0  0  0  0  0  0  0  0  0  0  0  0
    0.6485    3.3929   -1.2684 H   0  0  0  0  0  0  0  0  0  0  0  0
    0.2109   -2.1647   -2.2646 C   0  0  0  0  0  0  0  0  0  0  0  0
    0.2109   -2.1647   -0.7418 C   0  0  0  0  0  0  0  0  0  0  0  0
   -0.6699   -1.6561   -2.6604 H   0  0  0  0  0  0  0  0  0  0  0  0
    1.0918   -1.6561   -2.6604 H   0  0  0  0  0  0  0  0  0  0  0  0
    0.2109   -3.1818   -2.6604 H   0  0  0  0  0  0  0  0  0  0  0  0
    0.2109   -0.9442   -0.2668 H   0  0  0  0  0  0  0  0  0  0  0  0
    1.0918   -2.6733   -0.3459 H   0  0  0  0  0  0  0  0  0  0  0  0
   -0.6699   -2.6733   -0.3459 H   0  0  0  0  0  0  0  0  0  0  0  0
  1  2  1  0
  1  5  1  0
  2  3  1  0
  2  6  1  0
  3  4  2  3
  3  7  1  0
  4  8  1  0
  4  9  1  0
 10 11  1  0
 10 12  1  0
 10 13  1  0
 10 14  1  0
 11 15  1  0
 11 16  1  0
 11 17  1  0
M  RAD  1   2   2
M  END
>  <reaction>  (7) 
rxn_896

>  <mol_properties>  (7) 
{"0": {"label": "*0", "atom_type": "S2s"}, "1": {"label": "*1", "atom_type": "Cs"}, "9": {"label": "*4", "atom_type": "Cs"}, "10": {"label": "*3", "atom_type": "Cs"}, "14": {"label": "*2", "atom_type": "H0"}}

>  <type>  (7) 
unop_3

>  <geom_source>  (7) 
Heuristics

$$$$

     RDKit          3D

 17 15  0  0  0  0  0  0  0  0999 V2000
    1.0701    1.3351   -0.4684 S   0  0  0  0  0  0  0  0  0  0  0  0
   -0.4616    0.6034    0.1957 C   0  0  0  0  0  3  0  0  0  0  0  0
   -0.2492   -0.0980    1.4951 C   0  0  0  0  0  0  0  0  0  0  0  0
   -0.8464    0.2426    2.6267 C   0  0  0  0  0  0  0  0  0  0  0  0
    1.3342    2.1126    0.5897 H   0  0  0  0  0  0  0  0  0  0  0  0
   -1.2310    1.3703    0.2805 H   0  0  0  0  0  0  0  0  0  0  0  0
    0.4578   -0.9220    1.4794 H   0  0  0  0  0  0  0  0  0  0  0  0
   -1.5485    1.0684    2.6706 H   0  0  0  0  0  0  0  0  0  0  0  0
   -0.6570   -0.2922    3.5485 H   0  0  0  0  0  0  0  0  0  0  0  0
   -0.4616   -1.8382   -2.2773 C   0  0  0  0  0  0  0  0  0  0  0  0
   -0.4616   -1.8382   -0.7545 C   0  0  0  0  0  0  0  0  0  0  0  0
   -1.3424   -1.3296   -2.6732 H   0  0  0  0  0  0  0  0  0  0  0  0
    0.4193   -1.3296   -2.6732 H   0  0  0  0  0  0  0  0  0  0  0  0
   -0.4616   -2.8553   -2.6732 H   0  0  0  0  0  0  0  0  0  0  0  0
   -0.4616   -0.6176   -0.2795 H   0  0  0  0  0  0  0  0  0  0  0  0
    0.4193   -2.3467   -0.3587 H   0  0  0  0  0  0  0  0  0  0  0  0
   -1.3424   -2.3467   -0.3587 H   0  0  0  0  0  0  0  0  0  0  0  0
  1  2  1  0
  1  5  1  0
  2  3  1  0
  2  6  1  0
  3  4  2  3
  3  7  1  0
  4  8  1  0
  4  9  1  0
 10 11  1  0
 10 12  1  0
 10 13  1  0
 10 14  1  0
 11 15  1  0
 11 16  1  0
 11 17  1  0
M  RAD  1   2   2
M  END
>  <reaction>  (8) 
rxn_896

>  <mol_properties>  (8) 
{"0": {"label": "*0", "atom_type": "S2s"}, "1": {"label": "*1", "atom_type": "Cs"}, "9": {"label": "*4", "atom_type": "Cs"}, "10": {"label": "*3", "atom_type": "Cs"}, "14": {"label": "*2", "atom_type": "H0"}}

>  <type>  (8) 
unop_4

>  <geom_source>  (8) 
Heuristics

$$$$

     RDKit          3D

 17 15  0  0  0  0  0  0  0  0999 V2000
    0.3034    0.1745    1.9446 S   0  0  0  0  0  0  0  0  0  0  0  0
    0.3034    0.4050    0.1365 C   0  0  0  0  0  3  0  0  0  0  0  0
   -0.8877    1.1611   -0.3484 C   0  0  0  0  0  0  0  0  0  0  0  0
   -0.8202    2.3206   -0.9843 C   0  0  0  0  0  0  0  0  0  0  0  0
    0.2572    1.4753    2.2601 H   0  0  0  0  0  0  0  0  0  0  0  0
    1.2309    0.8845   -0.1750 H   0  0  0  0  0  0  0  0  0  0  0  0
   -1.8534    0.7132   -0.1343 H   0  0  0  0  0  0  0  0  0  0  0  0
    0.1317    2.7935   -1.2008 H   0  0  0  0  0  0  0  0  0  0  0  0
   -1.7128    2.8372   -1.3131 H   0  0  0  0  0  0  0  0  0  0  0  0
    0.3034   -2.0366   -2.3366 C   0  0  0  0  0  0  0  0  0  0  0  0
    0.3034   -2.0366   -0.8138 C   0  0  0  0  0  0  0  0  0  0  0  0
   -0.5774   -1.5281   -2.7324 H   0  0  0  0  0  0  0  0  0  0  0  0
    1.1842   -1.5281   -2.7324 H   0  0  0  0  0  0  0  0  0  0  0  0
    0.3034   -3.0538   -2.7324 H   0  0  0  0  0  0  0  0  0  0  0  0
    0.3034   -0.8161   -0.3388 H   0  0  0  0  0  0  0  0  0  0  0  0
    1.1842   -2.5452   -0.4179 H   0  0  0  0  0  0  0  0  0  0  0  0
   -0.5774   -2.5452   -0.4179 H   0  0  0  0  0  0  0  0  0  0  0  0
  1  2  1  0
  1  5  1  0
  2  3  1  0
  2  6  1  0
  3  4  2  3
  3  7  1  0
  4  8  1  0
  4  9  1  0
 10 11  1  0
 10 12  1  0
 10 13  1  0
 10 14  1  0
 11 15  1  0
 11 16  1  0
 11 17  1  0
M  RAD  1   2   2
M  END
>  <reaction>  (9) 
rxn_896

>  <mol_properties>  (9) 
{"0": {"label": "*0", "atom_type": "S2s"}, "1": {"label": "*1", "atom_type": "Cs"}, "9": {"label": "*4", "atom_type": "Cs"}, "10": {"label": "*3", "atom_type": "Cs"}, "14": {"label": "*2", "atom_type": "H0"}}

>  <type>  (9) 
unop_5

>  <geom_source>  (9) 
Heuristics

$$$$

     RDKit          3D

 17 15  0  0  0  0  0  0  0  0999 V2000
    1.4786    1.1353    0.1769 S   0  0  0  0  0  0  0  0  0  0  0  0
   -0.2900    0.7243    0.0170 C   0  0  0  0  0  3  0  0  0  0  0  0
   -0.8023   -0.0760    1.1671 C   0  0  0  0  0  0  0  0  0  0  0  0
   -1.7701    0.3261    1.9763 C   0  0  0  0  0  0  0  0  0  0  0  0
    1.3766    1.7769    1.3482 H   0  0  0  0  0  0  0  0  0  0  0  0
   -0.8703    1.6362   -0.1209 H   0  0  0  0  0  0  0  0  0  0  0  0
   -0.3175   -1.0334    1.3321 H   0  0  0  0  0  0  0  0  0  0  0  0
   -2.2629    1.2827    1.8388 H   0  0  0  0  0  0  0  0  0  0  0  0
   -2.1060   -0.2864    2.8031 H   0  0  0  0  0  0  0  0  0  0  0  0
   -0.2900   -1.7173   -2.4560 C   0  0  0  0  0  0  0  0  0  0  0  0
   -0.2900   -1.7173   -0.9332 C   0  0  0  0  0  0  0  0  0  0  0  0
   -1.1708   -1.2087   -2.8519 H   0  0  0  0  0  0  0  0  0  0  0  0
    0.5909   -1.2087   -2.8519 H   0  0  0  0  0  0  0  0  0  0  0  0
   -0.2900   -2.7344   -2.8519 H   0  0  0  0  0  0  0  0  0  0  0  0
   -0.2900   -0.4967   -0.4582 H   0  0  0  0  0  0  0  0  0  0  0  0
    0.5909   -2.2258   -0.5374 H   0  0  0  0  0  0  0  0  0  0  0  0
   -1.1708   -2.2258   -0.5374 H   0  0  0  0  0  0  0  0  0  0  0  0
  1  2  1  0
  1  5  1  0
  2  3  1  0
  2  6  1  0
  3  4  2  3
  3  7  1  0
  4  8  1  0
  4  9  1  0
 10 11  1  0
 10 12  1  0
 10 13  1  0
 10 14  1  0
 11 15  1  0
 11 16  1  0
 11 17  1  0
M  RAD  1   2   2
M  END
>  <reaction>  (10) 
rxn_896

>  <mol_properties>  (10) 
{"0": {"label": "*0", "atom_type": "S2s"}, "1": {"label": "*1", "atom_type": "Cs"}, "9": {"label": "*4", "atom_type": "Cs"}, "10": {"label": "*3", "atom_type": "Cs"}, "14": {"label": "*2", "atom_type": "H0"}}

>  <type>  (10) 
unop_6

>  <geom_source>  (10) 
Heuristics

$$$$

     RDKit          3D

 17 15  0  0  0  0  0  0  0  0999 V2000
    1.5084    0.8354    0.9218 S   0  0  0  0  0  0  0  0  0  0  0  0
   -0.0232    0.7452   -0.0622 C   0  0  0  0  0  3  0  0  0  0  0  0
   -1.1559    0.1301    0.6891 C   0  0  0  0  0  0  0  0  0  0  0  0
   -2.2914    0.7553    0.9593 C   0  0  0  0  0  0  0  0  0  0  0  0
    0.9978    1.5612    1.9250 H   0  0  0  0  0  0  0  0  0  0  0  0
   -0.2844    1.7366   -0.4312 H   0  0  0  0  0  0  0  0  0  0  0  0
   -0.9985   -0.8867    1.0358 H   0  0  0  0  0  0  0  0  0  0  0  0
   -2.4686    1.7746    0.6331 H   0  0  0  0  0  0  0  0  0  0  0  0
   -3.0848    0.2707    1.5136 H   0  0  0  0  0  0  0  0  0  0  0  0
   -0.0232   -1.6964   -2.5352 C   0  0  0  0  0  0  0  0  0  0  0  0
   -0.0232   -1.6964   -1.0125 C   0  0  0  0  0  0  0  0  0  0  0  0
   -0.9041   -1.1879   -2.9311 H   0  0  0  0  0  0  0  0  0  0  0  0
    0.8576   -1.1879   -2.9311 H   0  0  0  0  0  0  0  0  0  0  0  0
   -0.0232   -2.7135   -2.9311 H   0  0  0  0  0  0  0  0  0  0  0  0
   -0.0232   -0.4759   -0.5374 H   0  0  0  0  0  0  0  0  0  0  0  0
    0.8576   -2.2050   -0.6166 H   0  0  0  0  0  0  0  0  0  0  0  0
   -0.9041   -2.2050   -0.6166 H   0  0  0  0  0  0  0  0  0  0  0  0
  1  2  1  0
  1  5  1  0
  2  3  1  0
  2  6  1  0
  3  4  2  3
  3  7  1  0
  4  8  1  0
  4  9  1  0
 10 11  1  0
 10 12  1  0
 10 13  1  0
 10 14  1  0
 11 15  1  0
 11 16  1  0
 11 17  1  0
M  RAD  1   2   2
M  END
>  <reaction>  (11) 
rxn_896

>  <mol_properties>  (11) 
{"0": {"label": "*0", "atom_type": "S2s"}, "1": {"label": "*1", "atom_type": "Cs"}, "9": {"label": "*4", "atom_type": "Cs"}, "10": {"label": "*3", "atom_type": "Cs"}, "14": {"label": "*2", "atom_type": "H0"}}

>  <type>  (11) 
unop_7

>  <geom_source>  (11) 
Heuristics

$$$$

     RDKit          3D

 17 15  0  0  0  0  0  0  0  0999 V2000
   -1.5694    0.6231    0.4894 S   0  0  0  0  0  0  0  0  0  0  0  0
    0.1992    0.2121    0.3294 C   0  0  0  0  0  3  0  0  0  0  0  0
    1.0678    1.4227    0.2529 C   0  0  0  0  0  0  0  0  0  0  0  0
    2.0155    1.7108    1.1316 C   0  0  0  0  0  0  0  0  0  0  0  0
   -1.4535    1.3428    1.6130 H   0  0  0  0  0  0  0  0  0  0  0  0
    0.5021   -0.4418    1.1467 H   0  0  0  0  0  0  0  0  0  0  0  0
    0.8719    2.0954   -0.5765 H   0  0  0  0  0  0  0  0  0  0  0  0
    2.2234    1.0603    1.9745 H   0  0  0  0  0  0  0  0  0  0  0  0
    2.6183    2.6050    1.0393 H   0  0  0  0  0  0  0  0  0  0  0  0
    0.1992   -2.2295   -2.1436 C   0  0  0  0  0  0  0  0  0  0  0  0
    0.1992   -2.2295   -0.6208 C   0  0  0  0  0  0  0  0  0  0  0  0
   -0.6816   -1.7209   -2.5394 H   0  0  0  0  0  0  0  0  0  0  0  0
    1.0801   -1.7209   -2.5394 H   0  0  0  0  0  0  0  0  0  0  0  0
    0.1992   -3.2466   -2.5394 H   0  0  0  0  0  0  0  0  0  0  0  0
    0.1992   -1.0089   -0.1458 H   0  0  0  0  0  0  0  0  0  0  0  0
    1.0801   -2.7380   -0.2250 H   0  0  0  0  0  0  0  0  0  0  0  0
   -0.6816   -2.7380   -0.2250 H   0  0  0  0  0  0  0  0  0  0  0  0
  1  2  1  0
  1  5  1  0
  2  3  1  0
  2  6  1  0
  3  4  2  3
  3  7  1  0
  4  8  1  0
  4  9  1  0
 10 11  1  0
 10 12  1  0
 10 13  1  0
 10 14  1  0
 11 15  1  0
 11 16  1  0
 11 17  1  0
M  RAD  1   2   2
M  END
>  <reaction>  (12) 
rxn_896

>  <mol_properties>  (12) 
{"0": {"label": "*0", "atom_type": "S2s"}, "1": {"label": "*1", "atom_type": "Cs"}, "9": {"label": "*4", "atom_type": "Cs"}, "10": {"label": "*3", "atom_type": "Cs"}, "14": {"label": "*2", "atom_type": "H0"}}

>  <type>  (12) 
unop_8

>  <geom_source>  (12) 
Heuristics

$$$$

     RDKit          3D

 17 15  0  0  0  0  0  0  0  0999 V2000
    0.4116    1.3859   -0.8597 S   0  0  0  0  0  0  0  0  0  0  0  0
   -0.4727    0.4195    0.4077 C   0  0  0  0  0  3  0  0  0  0  0  0
    0.3829    0.0940    1.5858 C   0  0  0  0  0  0  0  0  0  0  0  0
    0.1215    0.4887    2.8224 C   0  0  0  0  0  0  0  0  0  0  0  0
    0.7394    2.4112   -0.0626 H   0  0  0  0  0  0  0  0  0  0  0  0
   -1.3780    0.9457    0.7089 H   0  0  0  0  0  0  0  0  0  0  0  0
    1.2754   -0.4883    1.3775 H   0  0  0  0  0  0  0  0  0  0  0  0
   -0.7578    1.0800    3.0545 H   0  0  0  0  0  0  0  0  0  0  0  0
    0.7750    0.2335    3.6467 H   0  0  0  0  0  0  0  0  0  0  0  0
   -0.4727   -2.0221   -2.0653 C   0  0  0  0  0  0  0  0  0  0  0  0
   -0.4727   -2.0221   -0.5425 C   0  0  0  0  0  0  0  0  0  0  0  0
   -1.3535   -1.5136   -2.4611 H   0  0  0  0  0  0  0  0  0  0  0  0
    0.4082   -1.5136   -2.4611 H   0  0  0  0  0  0  0  0  0  0  0  0
   -0.4727   -3.0392   -2.4611 H   0  0  0  0  0  0  0  0  0  0  0  0
   -0.4727   -0.8016   -0.0675 H   0  0  0  0  0  0  0  0  0  0  0  0
    0.4082   -2.5307   -0.1466 H   0  0  0  0  0  0  0  0  0  0  0  0
   -1.3535   -2.5307   -0.1466 H   0  0  0  0  0  0  0  0  0  0  0  0
  1  2  1  0
  1  5  1  0
  2  3  1  0
  2  6  1  0
  3  4  2  3
  3  7  1  0
  4  8  1  0
  4  9  1  0
 10 11  1  0
 10 12  1  0
 10 13  1  0
 10 14  1  0
 11 15  1  0
 11 16  1  0
 11 17  1  0
M  RAD  1   2   2
M  END
>  <reaction>  (13) 
rxn_896

>  <mol_properties>  (13) 
{"0": {"label": "*0", "atom_type": "S2s"}, "1": {"label": "*1", "atom_type": "Cs"}, "9": {"label": "*4", "atom_type": "Cs"}, "10": {"label": "*3", "atom_type": "Cs"}, "14": {"label": "*2", "atom_type": "H0"}}

>  <type>  (13) 
unop_9

>  <geom_source>  (13) 
Heuristics

$$$$

     RDKit          3D

 17 15  0  0  0  0  0  0  0  0999 V2000
   -1.3949    0.8976   -0.2015 S   0  0  0  0  0  0  0  0  0  0  0  0
    0.1368    0.1659    0.4626 C   0  0  0  0  0  3  0  0  0  0  0  0
    1.1995    1.1823    0.7141 C   0  0  0  0  0  0  0  0  0  0  0  0
    1.7244    1.4256    1.9051 C   0  0  0  0  0  0  0  0  0  0  0  0
   -1.6095    1.7416    0.8160 H   0  0  0  0  0  0  0  0  0  0  0  0
   -0.0866   -0.4049    1.3634 H   0  0  0  0  0  0  0  0  0  0  0  0
    1.5262    1.7510   -0.1512 H   0  0  0  0  0  0  0  0  0  0  0  0
    1.4075    0.8784    2.7865 H   0  0  0  0  0  0  0  0  0  0  0  0
    2.4905    2.1780    2.0416 H   0  0  0  0  0  0  0  0  0  0  0  0
    0.1368   -2.2757   -2.0104 C   0  0  0  0  0  0  0  0  0  0  0  0
    0.1368   -2.2757   -0.4876 C   0  0  0  0  0  0  0  0  0  0  0  0
   -0.7440   -1.7672   -2.4062 H   0  0  0  0  0  0  0  0  0  0  0  0
    1.0176   -1.7672   -2.4062 H   0  0  0  0  0  0  0  0  0  0  0  0
    0.1368   -3.2928   -2.4062 H   0  0  0  0  0  0  0  0  0  0  0  0
    0.1368   -1.0552   -0.0126 H   0  0  0  0  0  0  0  0  0  0  0  0
    1.0176   -2.7843   -0.0918 H   0  0  0  0  0  0  0  0  0  0  0  0
   -0.7440   -2.7843   -0.0918 H   0  0  0  0  0  0  0  0  0  0  0  0
  1  2  1  0
  1  5  1  0
  2  3  1  0
  2  6  1  0
  3  4  2  3
  3  7  1  0
  4  8  1  0
  4  9  1  0
 10 11  1  0
 10 12  1  0
 10 13  1  0
 10 14  1  0
 11 15  1  0
 11 16  1  0
 11 17  1  0
M  RAD  1   2   2
M  END
>  <reaction>  (14) 
rxn_896

>  <mol_properties>  (14) 
{"0": {"label": "*0", "atom_type": "S2s"}, "1": {"label": "*1", "atom_type": "Cs"}, "9": {"label": "*4", "atom_type": "Cs"}, "10": {"label": "*3", "atom_type": "Cs"}, "14": {"label": "*2", "atom_type": "H0"}}

>  <type>  (14) 
unop_10

>  <geom_source>  (14) 
Heuristics

$$$$

     RDKit          3D

 17 15  0  0  0  0  0  0  0  0999 V2000
    1.1175    0.4853    1.5805 S   0  0  0  0  0  0  0  0  0  0  0  0
    0.2332    0.6298   -0.0068 C   0  0  0  0  0  3  0  0  0  0  0  0
   -1.2479    0.5403    0.1481 C   0  0  0  0  0  0  0  0  0  0  0  0
   -2.0873    1.5073   -0.1889 C   0  0  0  0  0  0  0  0  0  0  0  0
    0.5194    1.5236    2.1788 H   0  0  0  0  0  0  0  0  0  0  0  0
    0.5241    1.5519   -0.5093 H   0  0  0  0  0  0  0  0  0  0  0  0
   -1.6246   -0.3804    0.5830 H   0  0  0  0  0  0  0  0  0  0  0  0
   -1.7351    2.4404   -0.6155 H   0  0  0  0  0  0  0  0  0  0  0  0
   -3.1558    1.4004   -0.0529 H   0  0  0  0  0  0  0  0  0  0  0  0
    0.2332   -1.8118   -2.4799 C   0  0  0  0  0  0  0  0  0  0  0  0
    0.2332   -1.8118   -0.9571 C   0  0  0  0  0  0  0  0  0  0  0  0
   -0.6476   -1.3032   -2.8757 H   0  0  0  0  0  0  0  0  0  0  0  0
    1.1141   -1.3032   -2.8757 H   0  0  0  0  0  0  0  0  0  0  0  0
    0.2332   -2.8289   -2.8757 H   0  0  0  0  0  0  0  0  0  0  0  0
    0.2332   -0.5912   -0.4821 H   0  0  0  0  0  0  0  0  0  0  0  0
    1.1141   -2.3203   -0.5612 H   0  0  0  0  0  0  0  0  0  0  0  0
   -0.6476   -2.3203   -0.5612 H   0  0  0  0  0  0  0  0  0  0  0  0
  1  2  1  0
  1  5  1  0
  2  3  1  0
  2  6  1  0
  3  4  2  3
  3  7  1  0
  4  8  1  0
  4  9  1  0
 10 11  1  0
 10 12  1  0
 10 13  1  0
 10 14  1  0
 11 15  1  0
 11 16  1  0
 11 17  1  0
M  RAD  1   2   2
M  END
>  <reaction>  (15) 
rxn_896

>  <mol_properties>  (15) 
{"0": {"label": "*0", "atom_type": "S2s"}, "1": {"label": "*1", "atom_type": "Cs"}, "9": {"label": "*4", "atom_type": "Cs"}, "10": {"label": "*3", "atom_type": "Cs"}, "14": {"label": "*2", "atom_type": "H0"}}

>  <type>  (15) 
unop_11

>  <geom_source>  (15) 
Heuristics

$$$$

     RDKit          3D

 17 15  0  0  0  0  0  0  0  0999 V2000
   -0.3034    1.2930   -0.9295 S   0  0  0  0  0  0  0  0  0  0  0  0
   -0.3034    0.2406    0.5588 C   0  0  0  0  0  3  0  0  0  0  0  0
    0.8877    0.4701    1.4272 C   0  0  0  0  0  0  0  0  0  0  0  0
    0.8202    0.8946    2.6796 C   0  0  0  0  0  0  0  0  0  0  0  0
   -0.2572    2.4649   -0.2826 H   0  0  0  0  0  0  0  0  0  0  0  0
   -1.2309    0.3835    1.1125 H   0  0  0  0  0  0  0  0  0  0  0  0
    1.8534    0.2847    0.9667 H   0  0  0  0  0  0  0  0  0  0  0  0
   -0.1317    1.0969    3.1588 H   0  0  0  0  0  0  0  0  0  0  0  0
    1.7128    1.0531    3.2711 H   0  0  0  0  0  0  0  0  0  0  0  0
   -0.3034   -2.2010   -1.9143 C   0  0  0  0  0  0  0  0  0  0  0  0
   -0.3034   -2.2010   -0.3915 C   0  0  0  0  0  0  0  0  0  0  0  0
   -1.1842   -1.6924   -2.3101 H   0  0  0  0  0  0  0  0  0  0  0  0
    0.5775   -1.6924   -2.3101 H   0  0  0  0  0  0  0  0  0  0  0  0
   -0.3034   -3.2181   -2.3101 H   0  0  0  0  0  0  0  0  0  0  0  0
   -0.3034   -0.9805    0.0835 H   0  0  0  0  0  0  0  0  0  0  0  0
    0.5774   -2.7096    0.0044 H   0  0  0  0  0  0  0  0  0  0  0  0
   -1.1842   -2.7096    0.0044 H   0  0  0  0  0  0  0  0  0  0  0  0
  1  2  1  0
  1  5  1  0
  2  3  1  0
  2  6  1  0
  3  4  2  3
  3  7  1  0
  4  8  1  0
  4  9  1  0
 10 11  1  0
 10 12  1  0
 10 13  1  0
 10 14  1  0
 11 15  1  0
 11 16  1  0
 11 17  1  0
M  RAD  1   2   2
M  END
>  <reaction>  (16) 
rxn_896

>  <mol_properties>  (16) 
{"0": {"label": "*0", "atom_type": "S2s"}, "1": {"label": "*1", "atom_type": "Cs"}, "9": {"label": "*4", "atom_type": "Cs"}, "10": {"label": "*3", "atom_type": "Cs"}, "14": {"label": "*2", "atom_type": "H0"}}

>  <type>  (16) 
unop_12

>  <geom_source>  (16) 
Heuristics

$$$$

     RDKit          3D

 17 15  0  0  0  0  0  0  0  0999 V2000
   -0.9767    2.1331    0.0616 S   0  0  0  0  0  0  0  0  0  0  0  0
   -0.6448    0.3433    0.0404 C   0  0  0  0  0  3  0  0  0  0  0  0
    2.5284   -0.1614    0.7454 C   0  0  0  0  0  0  0  0  0  0  0  0
   -1.7154   -0.3855   -0.7158 C   0  0  0  0  0  0  0  0  0  0  0  0
    1.8210   -0.2600   -0.5934 C   0  0  0  0  0  0  0  0  0  0  0  0
   -2.9432   -0.5516   -0.2161 C   0  0  0  0  0  0  0  0  0  0  0  0
   -0.5692   -0.0436    1.0792 H   0  0  0  0  0  0  0  0  0  0  0  0
    0.5931    0.1306   -0.6059 H   0  0  0  0  0  0  0  0  0  0  0  0
    2.1328   -0.9373    1.4333 H   0  0  0  0  0  0  0  0  0  0  0  0
    3.6199   -0.3135    0.6089 H   0  0  0  0  0  0  0  0  0  0  0  0
    2.3498    0.8408    1.1877 H   0  0  0  0  0  0  0  0  0  0  0  0
   -1.4719   -0.8182   -1.6810 H   0  0  0  0  0  0  0  0  0  0  0  0
    2.2053    0.5192   -1.2848 H   0  0  0  0  0  0  0  0  0  0  0  0
    1.9877   -1.2635   -1.0385 H   0  0  0  0  0  0  0  0  0  0  0  0
   -3.2106   -0.1533    0.7578 H   0  0  0  0  0  0  0  0  0  0  0  0
   -3.6901   -1.0979   -0.7828 H   0  0  0  0  0  0  0  0  0  0  0  0
   -2.0162    2.0188    1.0038 H   0  0  0  0  0  0  0  0  0  0  0  0
  1  2  1  0
  1 17  1  0
  2  4  1  0
  2  7  1  0
  3  5  1  0
  3  9  1  0
  3 10  1  0
  3 11  1  0
  4  6  2  3
  4 12  1  0
  5  8  1  0
  5 13  1  0
  5 14  1  0
  6 15  1  0
  6 16  1  0
M  RAD  1   2   2
M  END
>  <reaction>  (17) 
rxn_896

>  <mol_properties>  (17) 
{"0": {"label": "*0", "atom_type": "S2s"}, "1": {"label": "*1", "atom_type": "Cs"}, "9": {"label": "*4", "atom_type": "Cs"}, "10": {"label": "*3", "atom_type": "Cs"}, "14": {"label": "*2", "atom_type": "H0"}}

>  <type>  (17) 
unop_13

>  <geom_source>  (17) 
AutoTST

$$$$

     RDKit          3D

 17 15  0  0  0  0  0  0  0  0999 V2000
   -0.9330    1.1209   -0.6980 S   0  0  0  0  0  0  0  0  0  0  0  0
   -0.0487    0.1545    0.5694 C   0  0  0  0  0  3  0  0  0  0  0  0
    1.1426    0.8695    1.1127 C   0  0  0  0  0  0  0  0  0  0  0  0
    1.2880    1.2052    2.3853 C   0  0  0  0  0  0  0  0  0  0  0  0
   -1.1814    2.1865    0.0744 H   0  0  0  0  0  0  0  0  0  0  0  0
   -0.7372   -0.1295    1.3648 H   0  0  0  0  0  0  0  0  0  0  0  0
    1.9095    1.1307    0.3899 H   0  0  0  0  0  0  0  0  0  0  0  0
    0.5314    0.9649    3.1247 H   0  0  0  0  0  0  0  0  0  0  0  0
    2.1683    1.7297    2.7340 H   0  0  0  0  0  0  0  0  0  0  0  0
   -0.0487   -2.2872   -1.9036 C   0  0  0  0  0  0  0  0  0  0  0  0
   -0.0487   -2.2872   -0.3808 C   0  0  0  0  0  0  0  0  0  0  0  0
   -0.9295   -1.7786   -2.2995 H   0  0  0  0  0  0  0  0  0  0  0  0
    0.8321   -1.7786   -2.2995 H   0  0  0  0  0  0  0  0  0  0  0  0
   -0.0487   -3.3043   -2.2995 H   0  0  0  0  0  0  0  0  0  0  0  0
   -0.0487   -1.0666    0.0942 H   0  0  0  0  0  0  0  0  0  0  0  0
    0.8321   -2.7957    0.0150 H   0  0  0  0  0  0  0  0  0  0  0  0
   -0.9295   -2.7957    0.0150 H   0  0  0  0  0  0  0  0  0  0  0  0
  1  2  1  0
  1  5  1  0
  2  3  1  0
  2  6  1  0
  3  4  2  3
  3  7  1  0
  4  8  1  0
  4  9  1  0
 10 11  1  0
 10 12  1  0
 10 13  1  0
 10 14  1  0
 11 15  1  0
 11 16  1  0
 11 17  1  0
M  RAD  1   2   2
M  END
>  <reaction>  (18) 
rxn_896

>  <mol_properties>  (18) 
{"0": {"label": "*0", "atom_type": "S2s"}, "1": {"label": "*1", "atom_type": "Cs"}, "9": {"label": "*4", "atom_type": "Cs"}, "10": {"label": "*3", "atom_type": "Cs"}, "14": {"label": "*2", "atom_type": "H0"}}

>  <type>  (18) 
unop_14

>  <geom_source>  (18) 
gaussian_log

$$$$
