
     RDKit          3D

 15 15  0  0  0  0  0  0  0  0999 V2000
    2.2031   -0.2111   -0.1693 C   0  0  0  0  0  0  0  0  0  0  0  0
    0.7140   -0.0314   -0.0623 C   0  0  0  0  0  0  0  0  0  0  0  0
   -0.0114    0.5491   -1.0982 C   0  0  0  0  0  0  0  0  0  0  0  0
   -1.3882    0.6886   -1.0150 C   0  0  0  0  0  0  0  0  0  0  0  0
   -2.0661    0.2493    0.1118 C   0  0  0  0  0  0  0  0  0  0  0  0
   -1.3551   -0.3278    1.1528 C   0  0  0  0  0  0  0  0  0  0  0  0
    0.0216   -0.4648    1.0642 C   0  0  0  0  0  0  0  0  0  0  0  0
    2.6776   -0.1836    0.8122 H   0  0  0  0  0  0  0  0  0  0  0  0
    2.4446   -1.1749   -0.6249 H   0  0  0  0  0  0  0  0  0  0  0  0
    2.6532    0.5664   -0.7875 H   0  0  0  0  0  0  0  0  0  0  0  0
    0.5104    0.8989   -1.9819 H   0  0  0  0  0  0  0  0  0  0  0  0
   -1.9328    1.1452   -1.8322 H   0  0  0  0  0  0  0  0  0  0  0  0
   -3.1409    0.3597    0.1800 H   0  0  0  0  0  0  0  0  0  0  0  0
   -1.8736   -0.6702    2.0398 H   0  0  0  0  0  0  0  0  0  0  0  0
    0.5695   -0.9141    1.8849 H   0  0  0  0  0  0  0  0  0  0  0  0
  1  2  1  0
  1  8  1  0
  1  9  1  0
  1 10  1  0
  2  3  2  0
  2  7  1  0
  3  4  1  0
  3 11  1  0
  4  5  2  0
  4 12  1  0
  5  6  1  0
  5 13  1  0
  6  7  2  0
  6 14  1  0
  7 15  1  0
M  END
>  <reaction>  (1) 
rxn_1447

>  <mol_properties>  (1) 
{"0": {"label": "donator", "atom_type": "Cs"}, "7": {"label": "d_hydrogen", "atom_type": "H0"}}

>  <type>  (1) 
r1h

$$$$

     RDKit          3D

 11 10  0  0  0  0  0  0  0  0999 V2000
   -0.9580    1.1013   -2.2955 C   0  0  0  0  0  0  0  0  0  0  0  0
   -0.5129    0.5941   -1.2929 C   0  0  0  0  0  0  0  0  0  0  0  0
   -0.0301   -0.0160   -0.1357 C   0  0  0  0  0  3  0  0  0  0  0  0
   -0.6593   -1.2845    0.3661 C   0  0  0  0  0  0  0  0  0  0  0  0
    1.0691    0.5292    0.5269 C   0  0  0  0  0  0  0  0  0  0  0  0
    2.0168    0.9794    1.1266 C   0  0  0  0  0  0  0  0  0  0  0  0
   -1.3415    1.5561   -3.1769 H   0  0  0  0  0  0  0  0  0  0  0  0
   -1.7166   -1.3186    0.1054 H   0  0  0  0  0  0  0  0  0  0  0  0
   -0.1742   -2.1550   -0.0865 H   0  0  0  0  0  0  0  0  0  0  0  0
   -0.5505   -1.3663    1.4470 H   0  0  0  0  0  0  0  0  0  0  0  0
    2.8514    1.3842    1.6465 H   0  0  0  0  0  0  0  0  0  0  0  0
  1  2  3  0
  1  7  1  0
  2  3  1  0
  3  4  1  0
  3  5  1  0
  4  8  1  0
  4  9  1  0
  4 10  1  0
  5  6  3  0
  6 11  1  0
M  RAD  1   3   2
M  END
>  <reaction>  (2) 
rxn_1447

>  <mol_properties>  (2) 
{"2": {"label": "acceptor", "atom_type": "Cs"}}

>  <type>  (2) 
r2

$$$$

     RDKit          3D

 12 11  0  0  0  0  0  0  0  0999 V2000
    2.1696    0.6854    1.1310 C   0  0  0  0  0  0  0  0  0  0  0  0
    1.2518    0.4145    0.4134 C   0  0  0  0  0  0  0  0  0  0  0  0
    0.1391    0.0443   -0.4683 C   0  0  0  0  0  0  0  0  0  0  0  0
   -0.2054   -1.4492   -0.3339 C   0  0  0  0  0  0  0  0  0  0  0  0
   -1.0375    0.8853   -0.2222 C   0  0  0  0  0  0  0  0  0  0  0  0
   -2.0160    1.5463   -0.0311 C   0  0  0  0  0  0  0  0  0  0  0  0
    2.9819    0.9356    1.7702 H   0  0  0  0  0  0  0  0  0  0  0  0
    0.4629    0.2285   -1.4981 H   0  0  0  0  0  0  0  0  0  0  0  0
   -0.5327   -1.6703    0.6812 H   0  0  0  0  0  0  0  0  0  0  0  0
    0.6727   -2.0535   -0.5593 H   0  0  0  0  0  0  0  0  0  0  0  0
   -1.0064   -1.7081   -1.0256 H   0  0  0  0  0  0  0  0  0  0  0  0
   -2.8802    2.1413    0.1426 H   0  0  0  0  0  0  0  0  0  0  0  0
  1  2  3  0
  1  7  1  0
  2  3  1  0
  3  4  1  0
  3  5  1  0
  3  8  1  0
  4  9  1  0
  4 10  1  0
  4 11  1  0
  5  6  3  0
  6 12  1  0
M  END
>  <reaction>  (3) 
rxn_1447

>  <mol_properties>  (3) 
{"2": {"label": "acceptor", "atom_type": "Cs"}, "11": {"label": "a_hydrogen", "atom_type": "H0"}}

>  <type>  (3) 
r2h

$$$$

     RDKit          3D

 26 25  0  0  0  0  0  0  0  0999 V2000
   -0.0456   -3.8473    1.8246 C   0  0  0  0  0  0  0  0  0  0  0  0
   -0.3021   -2.6845    1.6780 C   0  0  0  0  0  0  0  0  0  0  0  0
   -0.5732   -1.2917    1.4363 C   0  0  0  0  0  0  0  0  0  0  0  0
   -1.7018   -1.0120    0.4523 C   0  0  0  0  0  0  0  0  0  0  0  0
   -0.5755   -0.4598    2.6110 C   0  0  0  0  0  0  0  0  0  0  0  0
   -0.5457    0.2845    3.5517 C   0  0  0  0  0  0  0  0  0  0  0  0
    0.1712   -4.8778    1.9718 H   0  0  0  0  0  0  0  0  0  0  0  0
   -1.5452   -1.5804   -0.4643 H   0  0  0  0  0  0  0  0  0  0  0  0
   -2.6642   -1.2973    0.8804 H   0  0  0  0  0  0  0  0  0  0  0  0
   -1.7268    0.0498    0.2074 H   0  0  0  0  0  0  0  0  0  0  0  0
   -0.5344    0.9265    4.3992 H   0  0  0  0  0  0  0  0  0  0  0  0
    1.5388   -0.3048    0.0732 C   0  0  0  0  0  0  0  0  0  0  0  0
    0.9414    0.7587   -0.7115 C   0  0  0  0  0  0  0  0  0  0  0  0
    0.6774    2.0092   -0.1368 C   0  0  0  0  0  3  0  0  0  0  0  0
    0.0352    2.9993   -0.8572 C   0  0  0  0  0  0  0  0  0  0  0  0
   -0.3603    2.7670   -2.1682 C   0  0  0  0  0  0  0  0  0  0  0  0
   -0.1049    1.5335   -2.7534 C   0  0  0  0  0  0  0  0  0  0  0  0
    0.5348    0.5410   -2.0344 C   0  0  0  0  0  0  0  0  0  0  0  0
    0.4793   -0.8704    0.7817 H   0  0  0  0  0  0  0  0  0  0  0  0
    1.9162   -1.1686   -0.4662 H   0  0  0  0  0  0  0  0  0  0  0  0
    2.1448   -0.0094    0.9250 H   0  0  0  0  0  0  0  0  0  0  0  0
    0.9744    2.1901    0.8895 H   0  0  0  0  0  0  0  0  0  0  0  0
   -0.1603    3.9589   -0.3951 H   0  0  0  0  0  0  0  0  0  0  0  0
   -0.8626    3.5431   -2.7311 H   0  0  0  0  0  0  0  0  0  0  0  0
   -0.4076    1.3467   -3.7761 H   0  0  0  0  0  0  0  0  0  0  0  0
    0.7272   -0.4215   -2.4943 H   0  0  0  0  0  0  0  0  0  0  0  0
  1  2  3  0
  1  7  1  0
  2  3  1  0
  3  4  1  0
  3  5  1  0
  3 19  1  0
  4  8  1  0
  4  9  1  0
  4 10  1  0
  5  6  3  0
  6 11  1  0
 12 13  2  3
 12 20  1  0
 12 21  1  0
 13 14  1  0
 13 18  1  0
 14 15  1  0
 14 22  1  0
 15 16  2  0
 15 23  1  0
 16 17  1  0
 16 24  1  0
 17 18  2  0
 17 25  1  0
 18 26  1  0
M  RAD  1  14   2
M  END
>  <reaction>  (4) 
rxn_1447

>  <mol_properties>  (4) 
{"1": {"label": "*0", "atom_type": "Ct"}, "2": {"label": "*1", "atom_type": "Cs"}, "11": {"label": "*3", "atom_type": "Cd"}, "12": {"label": "*4", "atom_type": "Cd"}, "18": {"label": "*2", "atom_type": "H0"}}

>  <type>  (4) 
ts

$$$$

     RDKit          3D

 26 25  0  0  0  0  0  0  0  0999 V2000
    1.1430   -2.4980    3.0257 C   0  0  0  0  0  0  0  0  0  0  0  0
    0.3457   -1.8828    2.3802 C   0  0  0  0  0  0  0  0  0  0  0  0
   -0.6413   -1.1619    1.5687 C   0  0  0  0  0  3  0  0  0  0  0  0
   -1.7476   -2.1066    1.0676 C   0  0  0  0  0  0  0  0  0  0  0  0
   -1.2062   -0.0248    2.3037 C   0  0  0  0  0  0  0  0  0  0  0  0
   -1.6944    0.8991    2.8858 C   0  0  0  0  0  0  0  0  0  0  0  0
    1.8519   -3.0450    3.5995 H   0  0  0  0  0  0  0  0  0  0  0  0
   -1.3072   -2.9203    0.4923 H   0  0  0  0  0  0  0  0  0  0  0  0
   -2.2935   -2.5279    1.9108 H   0  0  0  0  0  0  0  0  0  0  0  0
   -2.4454   -1.5575    0.4362 H   0  0  0  0  0  0  0  0  0  0  0  0
   -2.1284    1.7205    3.4033 H   0  0  0  0  0  0  0  0  0  0  0  0
    0.5409    0.9760    0.6146 C   0  0  0  0  0  0  0  0  0  0  0  0
    0.5409    0.9760   -0.8891 C   0  0  0  0  0  0  0  0  0  0  0  0
    0.5409    2.1703   -1.6032 C   0  0  0  0  0  0  0  0  0  0  0  0
    0.5714    2.1736   -2.9892 C   0  0  0  0  0  0  0  0  0  0  0  0
    0.6009    0.9766   -3.6882 C   0  0  0  0  0  0  0  0  0  0  0  0
    0.5978   -0.2207   -2.9892 C   0  0  0  0  0  0  0  0  0  0  0  0
    0.5672   -0.2181   -1.6032 C   0  0  0  0  0  0  0  0  0  0  0  0
   -0.0490   -0.0908    1.0907 H   0  0  0  0  0  0  0  0  0  0  0  0
    1.5631    0.9872    1.0014 H   0  0  0  0  0  0  0  0  0  0  0  0
    0.0299    1.8539    1.0113 H   0  0  0  0  0  0  0  0  0  0  0  0
    0.5143    3.1114   -1.0653 H   0  0  0  0  0  0  0  0  0  0  0  0
    0.5687    3.1148   -3.5249 H   0  0  0  0  0  0  0  0  0  0  0  0
    0.6221    0.9769   -4.7705 H   0  0  0  0  0  0  0  0  0  0  0  0
    0.6159   -1.1618   -3.5249 H   0  0  0  0  0  0  0  0  0  0  0  0
    0.5614   -1.1595   -1.0653 H   0  0  0  0  0  0  0  0  0  0  0  0
  1  2  3  0
  1  7  1  0
  2  3  1  0
  3  4  1  0
  3  5  1  0
  4  8  1  0
  4  9  1  0
  4 10  1  0
  5  6  3  0
  6 11  1  0
 12 13  1  0
 12 19  1  0
 12 20  1  0
 12 21  1  0
 13 14  2  0
 13 18  1  0
 14 15  1  0
 14 22  1  0
 15 16  2  0
 15 23  1  0
 16 17  1  0
 16 24  1  0
 17 18  2  0
 17 25  1  0
 18 26  1  0
M  RAD  1   3   2
M  END
>  <reaction>  (5) 
rxn_1447

>  <mol_properties>  (5) 
{"1": {"label": "*0", "atom_type": "Ct"}, "2": {"label": "*1", "atom_type": "Cs"}, "11": {"label": "*3", "atom_type": "Cd"}, "12": {"label": "*4", "atom_type": "Cd"}, "18": {"label": "*2", "atom_type": "H0"}}

>  <type>  (5) 
unop_1

>  <geom_source>  (5) 
Heuristics

$$$$

     RDKit          3D

 26 25  0  0  0  0  0  0  0  0999 V2000
   -0.4323   -2.8766    0.0045 C   0  0  0  0  0  0  0  0  0  0  0  0
   -0.5651   -1.9959    0.8029 C   0  0  0  0  0  0  0  0  0  0  0  0
   -0.7669   -0.9141    1.7732 C   0  0  0  0  0  3  0  0  0  0  0  0
   -2.2151   -0.8943    2.2925 C   0  0  0  0  0  0  0  0  0  0  0  0
    0.1930   -1.0049    2.8789 C   0  0  0  0  0  0  0  0  0  0  0  0
    0.9537   -1.0647    3.8001 C   0  0  0  0  0  0  0  0  0  0  0  0
   -0.3143   -3.6596   -0.7054 H   0  0  0  0  0  0  0  0  0  0  0  0
   -2.9065   -0.7868    1.4574 H   0  0  0  0  0  0  0  0  0  0  0  0
   -2.4396   -1.8219    2.8173 H   0  0  0  0  0  0  0  0  0  0  0  0
   -2.3505   -0.0600    2.9800 H   0  0  0  0  0  0  0  0  0  0  0  0
    1.6300   -1.1178    4.6191 H   0  0  0  0  0  0  0  0  0  0  0  0
    0.4154    1.2238    0.8190 C   0  0  0  0  0  0  0  0  0  0  0  0
    0.4154    1.2238   -0.6847 C   0  0  0  0  0  0  0  0  0  0  0  0
    0.4154    2.4181   -1.3988 C   0  0  0  0  0  0  0  0  0  0  0  0
    0.4458    2.4215   -2.7847 C   0  0  0  0  0  0  0  0  0  0  0  0
    0.4754    1.2244   -3.4838 C   0  0  0  0  0  0  0  0  0  0  0  0
    0.4722    0.0271   -2.7847 C   0  0  0  0  0  0  0  0  0  0  0  0
    0.4417    0.0298   -1.3988 C   0  0  0  0  0  0  0  0  0  0  0  0
   -0.1745    0.1571    1.2951 H   0  0  0  0  0  0  0  0  0  0  0  0
    1.4376    1.2350    1.2058 H   0  0  0  0  0  0  0  0  0  0  0  0
   -0.0957    2.1017    1.2158 H   0  0  0  0  0  0  0  0  0  0  0  0
    0.3887    3.3592   -0.8609 H   0  0  0  0  0  0  0  0  0  0  0  0
    0.4432    3.3627   -3.3205 H   0  0  0  0  0  0  0  0  0  0  0  0
    0.4965    1.2247   -4.5661 H   0  0  0  0  0  0  0  0  0  0  0  0
    0.4903   -0.9140   -3.3205 H   0  0  0  0  0  0  0  0  0  0  0  0
    0.4358   -0.9117   -0.8609 H   0  0  0  0  0  0  0  0  0  0  0  0
  1  2  3  0
  1  7  1  0
  2  3  1  0
  3  4  1  0
  3  5  1  0
  4  8  1  0
  4  9  1  0
  4 10  1  0
  5  6  3  0
  6 11  1  0
 12 13  1  0
 12 19  1  0
 12 20  1  0
 12 21  1  0
 13 14  2  0
 13 18  1  0
 14 15  1  0
 14 22  1  0
 15 16  2  0
 15 23  1  0
 16 17  1  0
 16 24  1  0
 17 18  2  0
 17 25  1  0
 18 26  1  0
M  RAD  1   3   2
M  END
>  <reaction>  (6) 
rxn_1447

>  <mol_properties>  (6) 
{"1": {"label": "*0", "atom_type": "Ct"}, "2": {"label": "*1", "atom_type": "Cs"}, "11": {"label": "*3", "atom_type": "Cd"}, "12": {"label": "*4", "atom_type": "Cd"}, "18": {"label": "*2", "atom_type": "H0"}}

>  <type>  (6) 
unop_2

>  <geom_source>  (6) 
Heuristics

$$$$

     RDKit          3D

 26 25  0  0  0  0  0  0  0  0999 V2000
    0.6441   -1.7562    3.9386 C   0  0  0  0  0  0  0  0  0  0  0  0
    0.1219   -1.4749    2.8999 C   0  0  0  0  0  0  0  0  0  0  0  0
   -0.5069   -1.1652    1.6111 C   0  0  0  0  0  3  0  0  0  0  0  0
   -0.9029   -2.4492    0.8613 C   0  0  0  0  0  0  0  0  0  0  0  0
   -1.6588   -0.2727    1.7816 C   0  0  0  0  0  0  0  0  0  0  0  0
   -2.6115    0.4418    1.8939 C   0  0  0  0  0  0  0  0  0  0  0  0
    1.1085   -2.0063    4.8621 H   0  0  0  0  0  0  0  0  0  0  0  0
   -0.0248   -3.0767    0.7124 H   0  0  0  0  0  0  0  0  0  0  0  0
   -1.6408   -3.0080    1.4354 H   0  0  0  0  0  0  0  0  0  0  0  0
   -1.3308   -2.1950   -0.1079 H   0  0  0  0  0  0  0  0  0  0  0  0
   -3.4585    1.0771    1.9937 H   0  0  0  0  0  0  0  0  0  0  0  0
    0.6753    0.9727    0.6570 C   0  0  0  0  0  0  0  0  0  0  0  0
    0.6753    0.9727   -0.8468 C   0  0  0  0  0  0  0  0  0  0  0  0
    0.6753    2.1670   -1.5608 C   0  0  0  0  0  0  0  0  0  0  0  0
    0.7058    2.1704   -2.9468 C   0  0  0  0  0  0  0  0  0  0  0  0
    0.7353    0.9734   -3.6458 C   0  0  0  0  0  0  0  0  0  0  0  0
    0.7322   -0.2240   -2.9468 C   0  0  0  0  0  0  0  0  0  0  0  0
    0.7017   -0.2213   -1.5608 C   0  0  0  0  0  0  0  0  0  0  0  0
    0.0854   -0.0940    1.1330 H   0  0  0  0  0  0  0  0  0  0  0  0
    1.6976    0.9840    1.0437 H   0  0  0  0  0  0  0  0  0  0  0  0
    0.1643    1.8506    1.0537 H   0  0  0  0  0  0  0  0  0  0  0  0
    0.6487    3.1081   -1.0230 H   0  0  0  0  0  0  0  0  0  0  0  0
    0.7031    3.1116   -3.4825 H   0  0  0  0  0  0  0  0  0  0  0  0
    0.7565    0.9736   -4.7282 H   0  0  0  0  0  0  0  0  0  0  0  0
    0.7503   -1.1650   -3.4825 H   0  0  0  0  0  0  0  0  0  0  0  0
    0.6958   -1.1628   -1.0230 H   0  0  0  0  0  0  0  0  0  0  0  0
  1  2  3  0
  1  7  1  0
  2  3  1  0
  3  4  1  0
  3  5  1  0
  4  8  1  0
  4  9  1  0
  4 10  1  0
  5  6  3  0
  6 11  1  0
 12 13  1  0
 12 19  1  0
 12 20  1  0
 12 21  1  0
 13 14  2  0
 13 18  1  0
 14 15  1  0
 14 22  1  0
 15 16  2  0
 15 23  1  0
 16 17  1  0
 16 24  1  0
 17 18  2  0
 17 25  1  0
 18 26  1  0
M  RAD  1   3   2
M  END
>  <reaction>  (7) 
rxn_1447

>  <mol_properties>  (7) 
{"1": {"label": "*0", "atom_type": "Ct"}, "2": {"label": "*1", "atom_type": "Cs"}, "11": {"label": "*3", "atom_type": "Cd"}, "12": {"label": "*4", "atom_type": "Cd"}, "18": {"label": "*2", "atom_type": "H0"}}

>  <type>  (7) 
unop_3

>  <geom_source>  (7) 
Heuristics

$$$$

     RDKit          3D

 26 25  0  0  0  0  0  0  0  0999 V2000
   -2.9927   -0.9080    0.9155 C   0  0  0  0  0  0  0  0  0  0  0  0
   -1.8613   -0.9422    1.3022 C   0  0  0  0  0  0  0  0  0  0  0  0
   -0.4794   -0.9492    1.7951 C   0  0  0  0  0  3  0  0  0  0  0  0
   -0.3470   -0.1353    3.0941 C   0  0  0  0  0  0  0  0  0  0  0  0
    0.0152   -2.3188    1.9734 C   0  0  0  0  0  0  0  0  0  0  0  0
    0.4382   -3.4248    2.1425 C   0  0  0  0  0  0  0  0  0  0  0  0
   -3.9985   -0.8775    0.5716 H   0  0  0  0  0  0  0  0  0  0  0  0
   -0.6832    0.8874    2.9262 H   0  0  0  0  0  0  0  0  0  0  0  0
   -0.9547   -0.5802    3.8809 H   0  0  0  0  0  0  0  0  0  0  0  0
    0.6931   -0.1223    3.4184 H   0  0  0  0  0  0  0  0  0  0  0  0
    0.8143   -4.4081    2.2929 H   0  0  0  0  0  0  0  0  0  0  0  0
    0.7028    1.1887    0.8409 C   0  0  0  0  0  0  0  0  0  0  0  0
    0.7028    1.1887   -0.6628 C   0  0  0  0  0  0  0  0  0  0  0  0
    0.7028    2.3830   -1.3769 C   0  0  0  0  0  0  0  0  0  0  0  0
    0.7332    2.3864   -2.7628 C   0  0  0  0  0  0  0  0  0  0  0  0
    0.7628    1.1894   -3.4619 C   0  0  0  0  0  0  0  0  0  0  0  0
    0.7596   -0.0080   -2.7628 C   0  0  0  0  0  0  0  0  0  0  0  0
    0.7291   -0.0053   -1.3769 C   0  0  0  0  0  0  0  0  0  0  0  0
    0.1129    0.1220    1.3170 H   0  0  0  0  0  0  0  0  0  0  0  0
    1.7250    1.2000    1.2277 H   0  0  0  0  0  0  0  0  0  0  0  0
    0.1918    2.0666    1.2377 H   0  0  0  0  0  0  0  0  0  0  0  0
    0.6762    3.3241   -0.8390 H   0  0  0  0  0  0  0  0  0  0  0  0
    0.7306    3.3276   -3.2986 H   0  0  0  0  0  0  0  0  0  0  0  0
    0.7839    1.1896   -4.5442 H   0  0  0  0  0  0  0  0  0  0  0  0
    0.7777   -0.9491   -3.2986 H   0  0  0  0  0  0  0  0  0  0  0  0
    0.7233   -0.9468   -0.8390 H   0  0  0  0  0  0  0  0  0  0  0  0
  1  2  3  0
  1  7  1  0
  2  3  1  0
  3  4  1  0
  3  5  1  0
  4  8  1  0
  4  9  1  0
  4 10  1  0
  5  6  3  0
  6 11  1  0
 12 13  1  0
 12 19  1  0
 12 20  1  0
 12 21  1  0
 13 14  2  0
 13 18  1  0
 14 15  1  0
 14 22  1  0
 15 16  2  0
 15 23  1  0
 16 17  1  0
 16 24  1  0
 17 18  2  0
 17 25  1  0
 18 26  1  0
M  RAD  1   3   2
M  END
>  <reaction>  (8) 
rxn_1447

>  <mol_properties>  (8) 
{"1": {"label": "*0", "atom_type": "Ct"}, "2": {"label": "*1", "atom_type": "Cs"}, "11": {"label": "*3", "atom_type": "Cd"}, "12": {"label": "*4", "atom_type": "Cd"}, "18": {"label": "*2", "atom_type": "H0"}}

>  <type>  (8) 
unop_4

>  <geom_source>  (8) 
Heuristics

$$$$

     RDKit          3D

 26 25  0  0  0  0  0  0  0  0999 V2000
   -0.3265   -0.9217    4.3480 C   0  0  0  0  0  0  0  0  0  0  0  0
   -0.3946   -0.9774    3.1551 C   0  0  0  0  0  0  0  0  0  0  0  0
   -0.4437   -1.0662    1.6916 C   0  0  0  0  0  3  0  0  0  0  0  0
    0.3176   -2.3026    1.1824 C   0  0  0  0  0  0  0  0  0  0  0  0
   -1.8273   -1.0561    1.2038 C   0  0  0  0  0  0  0  0  0  0  0  0
   -2.9460   -1.0655    0.7803 C   0  0  0  0  0  0  0  0  0  0  0  0
   -0.2659   -0.8722    5.4086 H   0  0  0  0  0  0  0  0  0  0  0  0
    1.3514   -2.2677    1.5245 H   0  0  0  0  0  0  0  0  0  0  0  0
   -0.1468   -3.2127    1.5600 H   0  0  0  0  0  0  0  0  0  0  0  0
    0.3006   -2.3253    0.0932 H   0  0  0  0  0  0  0  0  0  0  0  0
   -3.9405   -1.0739    0.4038 H   0  0  0  0  0  0  0  0  0  0  0  0
    0.7385    1.0716    0.7374 C   0  0  0  0  0  0  0  0  0  0  0  0
    0.7385    1.0716   -0.7663 C   0  0  0  0  0  0  0  0  0  0  0  0
    0.7385    2.2660   -1.4804 C   0  0  0  0  0  0  0  0  0  0  0  0
    0.7689    2.2693   -2.8664 C   0  0  0  0  0  0  0  0  0  0  0  0
    0.7985    1.0723   -3.5654 C   0  0  0  0  0  0  0  0  0  0  0  0
    0.7953   -0.1251   -2.8664 C   0  0  0  0  0  0  0  0  0  0  0  0
    0.7648   -0.1224   -1.4804 C   0  0  0  0  0  0  0  0  0  0  0  0
    0.1486    0.0049    1.2135 H   0  0  0  0  0  0  0  0  0  0  0  0
    1.7607    1.0829    1.1242 H   0  0  0  0  0  0  0  0  0  0  0  0
    0.2275    1.9495    1.1342 H   0  0  0  0  0  0  0  0  0  0  0  0
    0.7119    3.2071   -0.9425 H   0  0  0  0  0  0  0  0  0  0  0  0
    0.7663    3.2105   -3.4021 H   0  0  0  0  0  0  0  0  0  0  0  0
    0.8196    1.0725   -4.6477 H   0  0  0  0  0  0  0  0  0  0  0  0
    0.8134   -1.0661   -3.4021 H   0  0  0  0  0  0  0  0  0  0  0  0
    0.7590   -1.0638   -0.9425 H   0  0  0  0  0  0  0  0  0  0  0  0
  1  2  3  0
  1  7  1  0
  2  3  1  0
  3  4  1  0
  3  5  1  0
  4  8  1  0
  4  9  1  0
  4 10  1  0
  5  6  3  0
  6 11  1  0
 12 13  1  0
 12 19  1  0
 12 20  1  0
 12 21  1  0
 13 14  2  0
 13 18  1  0
 14 15  1  0
 14 22  1  0
 15 16  2  0
 15 23  1  0
 16 17  1  0
 16 24  1  0
 17 18  2  0
 17 25  1  0
 18 26  1  0
M  RAD  1   3   2
M  END
>  <reaction>  (9) 
rxn_1447

>  <mol_properties>  (9) 
{"1": {"label": "*0", "atom_type": "Ct"}, "2": {"label": "*1", "atom_type": "Cs"}, "11": {"label": "*3", "atom_type": "Cd"}, "12": {"label": "*4", "atom_type": "Cd"}, "18": {"label": "*2", "atom_type": "H0"}}

>  <type>  (9) 
unop_5

>  <geom_source>  (9) 
Heuristics

$$$$

     RDKit          3D

 26 25  0  0  0  0  0  0  0  0999 V2000
   -3.0503   -0.3682    2.0449 C   0  0  0  0  0  0  0  0  0  0  0  0
   -1.8986   -0.6559    1.8974 C   0  0  0  0  0  0  0  0  0  0  0  0
   -0.4759   -0.9766    1.7381 C   0  0  0  0  0  3  0  0  0  0  0  0
    0.3567   -0.4101    2.9015 C   0  0  0  0  0  0  0  0  0  0  0  0
   -0.2691   -2.4215    1.5910 C   0  0  0  0  0  0  0  0  0  0  0  0
   -0.0709   -3.5963    1.4845 C   0  0  0  0  0  0  0  0  0  0  0  0
   -4.0742   -0.1125    2.1759 H   0  0  0  0  0  0  0  0  0  0  0  0
    0.2172    0.6686    2.9658 H   0  0  0  0  0  0  0  0  0  0  0  0
    0.0448   -0.8613    3.8425 H   0  0  0  0  0  0  0  0  0  0  0  0
    1.4124   -0.6264    2.7410 H   0  0  0  0  0  0  0  0  0  0  0  0
    0.1053   -4.6408    1.3898 H   0  0  0  0  0  0  0  0  0  0  0  0
    0.7063    1.1613    0.7840 C   0  0  0  0  0  0  0  0  0  0  0  0
    0.7063    1.1613   -0.7197 C   0  0  0  0  0  0  0  0  0  0  0  0
    0.7063    2.3556   -1.4338 C   0  0  0  0  0  0  0  0  0  0  0  0
    0.7368    2.3590   -2.8198 C   0  0  0  0  0  0  0  0  0  0  0  0
    0.7663    1.1620   -3.5188 C   0  0  0  0  0  0  0  0  0  0  0  0
    0.7632   -0.0354   -2.8198 C   0  0  0  0  0  0  0  0  0  0  0  0
    0.7327   -0.0327   -1.4338 C   0  0  0  0  0  0  0  0  0  0  0  0
    0.1164    0.0946    1.2601 H   0  0  0  0  0  0  0  0  0  0  0  0
    1.7286    1.1726    1.1708 H   0  0  0  0  0  0  0  0  0  0  0  0
    0.1953    2.0392    1.1807 H   0  0  0  0  0  0  0  0  0  0  0  0
    0.6797    3.2967   -0.8960 H   0  0  0  0  0  0  0  0  0  0  0  0
    0.7341    3.3002   -3.3555 H   0  0  0  0  0  0  0  0  0  0  0  0
    0.7875    1.1622   -4.6012 H   0  0  0  0  0  0  0  0  0  0  0  0
    0.7813   -0.9764   -3.3555 H   0  0  0  0  0  0  0  0  0  0  0  0
    0.7268   -0.9742   -0.8960 H   0  0  0  0  0  0  0  0  0  0  0  0
  1  2  3  0
  1  7  1  0
  2  3  1  0
  3  4  1  0
  3  5  1  0
  4  8  1  0
  4  9  1  0
  4 10  1  0
  5  6  3  0
  6 11  1  0
 12 13  1  0
 12 19  1  0
 12 20  1  0
 12 21  1  0
 13 14  2  0
 13 18  1  0
 14 15  1  0
 14 22  1  0
 15 16  2  0
 15 23  1  0
 16 17  1  0
 16 24  1  0
 17 18  2  0
 17 25  1  0
 18 26  1  0
M  RAD  1   3   2
M  END
>  <reaction>  (10) 
rxn_1447

>  <mol_properties>  (10) 
{"1": {"label": "*0", "atom_type": "Ct"}, "2": {"label": "*1", "atom_type": "Cs"}, "11": {"label": "*3", "atom_type": "Cd"}, "12": {"label": "*4", "atom_type": "Cd"}, "18": {"label": "*2", "atom_type": "H0"}}

>  <type>  (10) 
unop_6

>  <geom_source>  (10) 
Heuristics

$$$$

     RDKit          3D

 26 25  0  0  0  0  0  0  0  0999 V2000
   -2.5353   -0.1376    3.1999 C   0  0  0  0  0  0  0  0  0  0  0  0
   -1.6300   -0.5259    2.5214 C   0  0  0  0  0  0  0  0  0  0  0  0
   -0.4947   -0.9786    1.7100 C   0  0  0  0  0  3  0  0  0  0  0  0
    0.8271   -0.8676    2.4898 C   0  0  0  0  0  0  0  0  0  0  0  0
   -0.7057   -2.3429    1.2134 C   0  0  0  0  0  0  0  0  0  0  0  0
   -0.8454   -3.4598    0.8085 C   0  0  0  0  0  0  0  0  0  0  0  0
   -3.3402    0.2076    3.8032 H   0  0  0  0  0  0  0  0  0  0  0  0
    0.9805    0.1612    2.8138 H   0  0  0  0  0  0  0  0  0  0  0  0
    0.8018   -1.5122    3.3674 H   0  0  0  0  0  0  0  0  0  0  0  0
    1.6585   -1.1715    1.8545 H   0  0  0  0  0  0  0  0  0  0  0  0
   -0.9696   -4.4527    0.4486 H   0  0  0  0  0  0  0  0  0  0  0  0
    0.6876    1.1593    0.7558 C   0  0  0  0  0  0  0  0  0  0  0  0
    0.6876    1.1593   -0.7479 C   0  0  0  0  0  0  0  0  0  0  0  0
    0.6876    2.3536   -1.4620 C   0  0  0  0  0  0  0  0  0  0  0  0
    0.7180    2.3569   -2.8479 C   0  0  0  0  0  0  0  0  0  0  0  0
    0.7476    1.1599   -3.5470 C   0  0  0  0  0  0  0  0  0  0  0  0
    0.7444   -0.0375   -2.8479 C   0  0  0  0  0  0  0  0  0  0  0  0
    0.7139   -0.0348   -1.4620 C   0  0  0  0  0  0  0  0  0  0  0  0
    0.0977    0.0925    1.2319 H   0  0  0  0  0  0  0  0  0  0  0  0
    1.7098    1.1705    1.1426 H   0  0  0  0  0  0  0  0  0  0  0  0
    0.1765    2.0372    1.1526 H   0  0  0  0  0  0  0  0  0  0  0  0
    0.6609    3.2947   -0.9241 H   0  0  0  0  0  0  0  0  0  0  0  0
    0.7154    3.2981   -3.3837 H   0  0  0  0  0  0  0  0  0  0  0  0
    0.7687    1.1602   -4.6293 H   0  0  0  0  0  0  0  0  0  0  0  0
    0.7625   -0.9785   -3.3837 H   0  0  0  0  0  0  0  0  0  0  0  0
    0.7080   -0.9762   -0.9241 H   0  0  0  0  0  0  0  0  0  0  0  0
  1  2  3  0
  1  7  1  0
  2  3  1  0
  3  4  1  0
  3  5  1  0
  4  8  1  0
  4  9  1  0
  4 10  1  0
  5  6  3  0
  6 11  1  0
 12 13  1  0
 12 19  1  0
 12 20  1  0
 12 21  1  0
 13 14  2  0
 13 18  1  0
 14 15  1  0
 14 22  1  0
 15 16  2  0
 15 23  1  0
 16 17  1  0
 16 24  1  0
 17 18  2  0
 17 25  1  0
 18 26  1  0
M  RAD  1   3   2
M  END
>  <reaction>  (11) 
rxn_1447

>  <mol_properties>  (11) 
{"1": {"label": "*0", "atom_type": "Ct"}, "2": {"label": "*1", "atom_type": "Cs"}, "11": {"label": "*3", "atom_type": "Cd"}, "12": {"label": "*4", "atom_type": "Cd"}, "18": {"label": "*2", "atom_type": "H0"}}

>  <type>  (11) 
unop_7

>  <geom_source>  (11) 
Heuristics

$$$$

     RDKit          3D

 26 25  0  0  0  0  0  0  0  0999 V2000
    1.0935   -2.9895    1.8687 C   0  0  0  0  0  0  0  0  0  0  0  0
    0.2747   -2.1250    1.7547 C   0  0  0  0  0  0  0  0  0  0  0  0
   -0.7532   -1.0904    1.5954 C   0  0  0  0  0  3  0  0  0  0  0  0
   -2.1544   -1.7125    1.4643 C   0  0  0  0  0  0  0  0  0  0  0  0
   -0.7042   -0.1179    2.6928 C   0  0  0  0  0  0  0  0  0  0  0  0
   -0.6964    0.6802    3.5838 C   0  0  0  0  0  0  0  0  0  0  0  0
    1.8215   -3.7581    1.9700 H   0  0  0  0  0  0  0  0  0  0  0  0
   -2.1765   -2.4005    0.6197 H   0  0  0  0  0  0  0  0  0  0  0  0
   -2.4094   -2.2604    2.3704 H   0  0  0  0  0  0  0  0  0  0  0  0
   -2.8945   -0.9284    1.3077 H   0  0  0  0  0  0  0  0  0  0  0  0
   -0.6893    1.3897    4.3759 H   0  0  0  0  0  0  0  0  0  0  0  0
    0.4290    1.0475    0.6413 C   0  0  0  0  0  0  0  0  0  0  0  0
    0.4290    1.0475   -0.8624 C   0  0  0  0  0  0  0  0  0  0  0  0
    0.4290    2.2418   -1.5765 C   0  0  0  0  0  0  0  0  0  0  0  0
    0.4594    2.2452   -2.9625 C   0  0  0  0  0  0  0  0  0  0  0  0
    0.4890    1.0482   -3.6615 C   0  0  0  0  0  0  0  0  0  0  0  0
    0.4859   -0.1492   -2.9625 C   0  0  0  0  0  0  0  0  0  0  0  0
    0.4553   -0.1465   -1.5765 C   0  0  0  0  0  0  0  0  0  0  0  0
   -0.1609   -0.0192    1.1174 H   0  0  0  0  0  0  0  0  0  0  0  0
    1.4512    1.0587    1.0281 H   0  0  0  0  0  0  0  0  0  0  0  0
   -0.0820    1.9254    1.0380 H   0  0  0  0  0  0  0  0  0  0  0  0
    0.4024    3.1829   -1.0387 H   0  0  0  0  0  0  0  0  0  0  0  0
    0.4568    3.1864   -3.4982 H   0  0  0  0  0  0  0  0  0  0  0  0
    0.5101    1.0484   -4.7439 H   0  0  0  0  0  0  0  0  0  0  0  0
    0.5040   -1.0903   -3.4982 H   0  0  0  0  0  0  0  0  0  0  0  0
    0.4495   -1.0880   -1.0387 H   0  0  0  0  0  0  0  0  0  0  0  0
  1  2  3  0
  1  7  1  0
  2  3  1  0
  3  4  1  0
  3  5  1  0
  4  8  1  0
  4  9  1  0
  4 10  1  0
  5  6  3  0
  6 11  1  0
 12 13  1  0
 12 19  1  0
 12 20  1  0
 12 21  1  0
 13 14  2  0
 13 18  1  0
 14 15  1  0
 14 22  1  0
 15 16  2  0
 15 23  1  0
 16 17  1  0
 16 24  1  0
 17 18  2  0
 17 25  1  0
 18 26  1  0
M  RAD  1   3   2
M  END
>  <reaction>  (12) 
rxn_1447

>  <mol_properties>  (12) 
{"1": {"label": "*0", "atom_type": "Ct"}, "2": {"label": "*1", "atom_type": "Cs"}, "11": {"label": "*3", "atom_type": "Cd"}, "12": {"label": "*4", "atom_type": "Cd"}, "18": {"label": "*2", "atom_type": "H0"}}

>  <type>  (12) 
unop_8

>  <geom_source>  (12) 
Heuristics

$$$$

     RDKit          3D

 26 25  0  0  0  0  0  0  0  0999 V2000
   -2.4185   -1.6123    0.0931 C   0  0  0  0  0  0  0  0  0  0  0  0
   -1.5657   -1.3081    0.8748 C   0  0  0  0  0  0  0  0  0  0  0  0
   -0.5422   -0.9038    1.8450 C   0  0  0  0  0  3  0  0  0  0  0  0
   -1.1623   -0.1218    3.0160 C   0  0  0  0  0  0  0  0  0  0  0  0
    0.2231   -2.0601    2.3243 C   0  0  0  0  0  0  0  0  0  0  0  0
    0.8521   -2.9873    2.7433 C   0  0  0  0  0  0  0  0  0  0  0  0
   -3.1768   -1.8827   -0.6018 H   0  0  0  0  0  0  0  0  0  0  0  0
   -1.6914    0.7526    2.6384 H   0  0  0  0  0  0  0  0  0  0  0  0
   -1.8664   -0.7514    3.5584 H   0  0  0  0  0  0  0  0  0  0  0  0
   -0.3793    0.2010    3.7015 H   0  0  0  0  0  0  0  0  0  0  0  0
    1.4113   -3.8115    3.1159 H   0  0  0  0  0  0  0  0  0  0  0  0
    0.6401    1.2340    0.8909 C   0  0  0  0  0  0  0  0  0  0  0  0
    0.6401    1.2340   -0.6129 C   0  0  0  0  0  0  0  0  0  0  0  0
    0.6401    2.4284   -1.3269 C   0  0  0  0  0  0  0  0  0  0  0  0
    0.6705    2.4317   -2.7129 C   0  0  0  0  0  0  0  0  0  0  0  0
    0.7000    1.2347   -3.4119 C   0  0  0  0  0  0  0  0  0  0  0  0
    0.6969    0.0373   -2.7129 C   0  0  0  0  0  0  0  0  0  0  0  0
    0.6664    0.0400   -1.3269 C   0  0  0  0  0  0  0  0  0  0  0  0
    0.0502    0.1673    1.3669 H   0  0  0  0  0  0  0  0  0  0  0  0
    1.6623    1.2453    1.2776 H   0  0  0  0  0  0  0  0  0  0  0  0
    0.1290    2.1119    1.2876 H   0  0  0  0  0  0  0  0  0  0  0  0
    0.6134    3.3695   -0.7891 H   0  0  0  0  0  0  0  0  0  0  0  0
    0.6679    3.3729   -3.2486 H   0  0  0  0  0  0  0  0  0  0  0  0
    0.7212    1.2349   -4.4943 H   0  0  0  0  0  0  0  0  0  0  0  0
    0.7150   -0.9037   -3.2486 H   0  0  0  0  0  0  0  0  0  0  0  0
    0.6605   -0.9014   -0.7891 H   0  0  0  0  0  0  0  0  0  0  0  0
  1  2  3  0
  1  7  1  0
  2  3  1  0
  3  4  1  0
  3  5  1  0
  4  8  1  0
  4  9  1  0
  4 10  1  0
  5  6  3  0
  6 11  1  0
 12 13  1  0
 12 19  1  0
 12 20  1  0
 12 21  1  0
 13 14  2  0
 13 18  1  0
 14 15  1  0
 14 22  1  0
 15 16  2  0
 15 23  1  0
 16 17  1  0
 16 24  1  0
 17 18  2  0
 17 25  1  0
 18 26  1  0
M  RAD  1   3   2
M  END
>  <reaction>  (13) 
rxn_1447

>  <mol_properties>  (13) 
{"1": {"label": "*0", "atom_type": "Ct"}, "2": {"label": "*1", "atom_type": "Cs"}, "11": {"label": "*3", "atom_type": "Cd"}, "12": {"label": "*4", "atom_type": "Cd"}, "18": {"label": "*2", "atom_type": "H0"}}

>  <type>  (13) 
unop_9

>  <geom_source>  (13) 
Heuristics

$$$$

     RDKit          3D

 26 25  0  0  0  0  0  0  0  0999 V2000
    0.5148   -3.1253    0.7671 C   0  0  0  0  0  0  0  0  0  0  0  0
   -0.0613   -2.1626    1.1820 C   0  0  0  0  0  0  0  0  0  0  0  0
   -0.8019   -0.9960    1.6748 C   0  0  0  0  0  3  0  0  0  0  0  0
   -2.2898   -1.3277    1.8834 C   0  0  0  0  0  0  0  0  0  0  0  0
   -0.1994   -0.4623    2.9015 C   0  0  0  0  0  0  0  0  0  0  0  0
    0.2624   -0.0166    3.9109 C   0  0  0  0  0  0  0  0  0  0  0  0
    1.0270   -3.9812    0.3982 H   0  0  0  0  0  0  0  0  0  0  0  0
   -2.7240   -1.6843    0.9500 H   0  0  0  0  0  0  0  0  0  0  0  0
   -2.4002   -2.1027    2.6409 H   0  0  0  0  0  0  0  0  0  0  0  0
   -2.8253   -0.4373    2.2111 H   0  0  0  0  0  0  0  0  0  0  0  0
    0.6729    0.3798    4.8083 H   0  0  0  0  0  0  0  0  0  0  0  0
    0.3804    1.1419    0.7207 C   0  0  0  0  0  0  0  0  0  0  0  0
    0.3804    1.1419   -0.7830 C   0  0  0  0  0  0  0  0  0  0  0  0
    0.3804    2.3362   -1.4971 C   0  0  0  0  0  0  0  0  0  0  0  0
    0.4108    2.3396   -2.8831 C   0  0  0  0  0  0  0  0  0  0  0  0
    0.4404    1.1426   -3.5821 C   0  0  0  0  0  0  0  0  0  0  0  0
    0.4372   -0.0548   -2.8831 C   0  0  0  0  0  0  0  0  0  0  0  0
    0.4067   -0.0521   -1.4971 C   0  0  0  0  0  0  0  0  0  0  0  0
   -0.2095    0.0752    1.1968 H   0  0  0  0  0  0  0  0  0  0  0  0
    1.4026    1.1532    1.1075 H   0  0  0  0  0  0  0  0  0  0  0  0
   -0.1307    2.0198    1.1174 H   0  0  0  0  0  0  0  0  0  0  0  0
    0.3538    3.2773   -0.9592 H   0  0  0  0  0  0  0  0  0  0  0  0
    0.4082    3.2808   -3.4188 H   0  0  0  0  0  0  0  0  0  0  0  0
    0.4615    1.1428   -4.6644 H   0  0  0  0  0  0  0  0  0  0  0  0
    0.4553   -0.9958   -3.4188 H   0  0  0  0  0  0  0  0  0  0  0  0
    0.4009   -0.9936   -0.9592 H   0  0  0  0  0  0  0  0  0  0  0  0
  1  2  3  0
  1  7  1  0
  2  3  1  0
  3  4  1  0
  3  5  1  0
  4  8  1  0
  4  9  1  0
  4 10  1  0
  5  6  3  0
  6 11  1  0
 12 13  1  0
 12 19  1  0
 12 20  1  0
 12 21  1  0
 13 14  2  0
 13 18  1  0
 14 15  1  0
 14 22  1  0
 15 16  2  0
 15 23  1  0
 16 17  1  0
 16 24  1  0
 17 18  2  0
 17 25  1  0
 18 26  1  0
M  RAD  1   3   2
M  END
>  <reaction>  (14) 
rxn_1447

>  <mol_properties>  (14) 
{"1": {"label": "*0", "atom_type": "Ct"}, "2": {"label": "*1", "atom_type": "Cs"}, "11": {"label": "*3", "atom_type": "Cd"}, "12": {"label": "*4", "atom_type": "Cd"}, "18": {"label": "*2", "atom_type": "H0"}}

>  <type>  (14) 
unop_10

>  <geom_source>  (14) 
Heuristics

$$$$

     RDKit          3D

 26 25  0  0  0  0  0  0  0  0999 V2000
   -1.5370   -0.3127    4.0654 C   0  0  0  0  0  0  0  0  0  0  0  0
   -1.0806   -0.6176    3.0027 C   0  0  0  0  0  0  0  0  0  0  0  0
   -0.4840   -0.9855    1.7138 C   0  0  0  0  0  3  0  0  0  0  0  0
    0.9426   -1.5325    1.8959 C   0  0  0  0  0  0  0  0  0  0  0  0
   -1.3303   -1.9394    0.9884 C   0  0  0  0  0  0  0  0  0  0  0  0
   -1.9936   -2.7293    0.3827 C   0  0  0  0  0  0  0  0  0  0  0  0
   -1.9428   -0.0415    5.0103 H   0  0  0  0  0  0  0  0  0  0  0  0
    1.5615   -0.7918    2.4012 H   0  0  0  0  0  0  0  0  0  0  0  0
    0.9235   -2.4420    2.4951 H   0  0  0  0  0  0  0  0  0  0  0  0
    1.3783   -1.7612    0.9239 H   0  0  0  0  0  0  0  0  0  0  0  0
   -2.5832   -3.4316   -0.1558 H   0  0  0  0  0  0  0  0  0  0  0  0
    0.6982    1.1524    0.7597 C   0  0  0  0  0  0  0  0  0  0  0  0
    0.6982    1.1524   -0.7441 C   0  0  0  0  0  0  0  0  0  0  0  0
    0.6982    2.3467   -1.4581 C   0  0  0  0  0  0  0  0  0  0  0  0
    0.7287    2.3501   -2.8441 C   0  0  0  0  0  0  0  0  0  0  0  0
    0.7582    1.1531   -3.5431 C   0  0  0  0  0  0  0  0  0  0  0  0
    0.7551   -0.0443   -2.8441 C   0  0  0  0  0  0  0  0  0  0  0  0
    0.7245   -0.0416   -1.4581 C   0  0  0  0  0  0  0  0  0  0  0  0
    0.1083    0.0857    1.2358 H   0  0  0  0  0  0  0  0  0  0  0  0
    1.7204    1.1636    1.1464 H   0  0  0  0  0  0  0  0  0  0  0  0
    0.1872    2.0303    1.1564 H   0  0  0  0  0  0  0  0  0  0  0  0
    0.6716    3.2878   -0.9203 H   0  0  0  0  0  0  0  0  0  0  0  0
    0.7260    3.2913   -3.3798 H   0  0  0  0  0  0  0  0  0  0  0  0
    0.7794    1.1533   -4.6255 H   0  0  0  0  0  0  0  0  0  0  0  0
    0.7732   -0.9854   -3.3798 H   0  0  0  0  0  0  0  0  0  0  0  0
    0.7187   -0.9831   -0.9203 H   0  0  0  0  0  0  0  0  0  0  0  0
  1  2  3  0
  1  7  1  0
  2  3  1  0
  3  4  1  0
  3  5  1  0
  4  8  1  0
  4  9  1  0
  4 10  1  0
  5  6  3  0
  6 11  1  0
 12 13  1  0
 12 19  1  0
 12 20  1  0
 12 21  1  0
 13 14  2  0
 13 18  1  0
 14 15  1  0
 14 22  1  0
 15 16  2  0
 15 23  1  0
 16 17  1  0
 16 24  1  0
 17 18  2  0
 17 25  1  0
 18 26  1  0
M  RAD  1   3   2
M  END
>  <reaction>  (15) 
rxn_1447

>  <mol_properties>  (15) 
{"1": {"label": "*0", "atom_type": "Ct"}, "2": {"label": "*1", "atom_type": "Cs"}, "11": {"label": "*3", "atom_type": "Cd"}, "12": {"label": "*4", "atom_type": "Cd"}, "18": {"label": "*2", "atom_type": "H0"}}

>  <type>  (15) 
unop_11

>  <geom_source>  (15) 
Heuristics

$$$$

     RDKit          3D

 26 25  0  0  0  0  0  0  0  0999 V2000
   -1.4939   -2.3217   -0.2352 C   0  0  0  0  0  0  0  0  0  0  0  0
   -1.1031   -1.6826    0.6973 C   0  0  0  0  0  0  0  0  0  0  0  0
   -0.6592   -0.8798    1.8423 C   0  0  0  0  0  3  0  0  0  0  0  0
   -1.8528   -0.4250    2.7002 C   0  0  0  0  0  0  0  0  0  0  0  0
    0.3296   -1.6039    2.6487 C   0  0  0  0  0  0  0  0  0  0  0  0
    1.1256   -2.1779    3.3325 C   0  0  0  0  0  0  0  0  0  0  0  0
   -1.8413   -2.8899   -1.0643 H   0  0  0  0  0  0  0  0  0  0  0  0
   -2.5530    0.1433    2.0889 H   0  0  0  0  0  0  0  0  0  0  0  0
   -2.3697   -1.2896    3.1146 H   0  0  0  0  0  0  0  0  0  0  0  0
   -1.5022    0.2010    3.5201 H   0  0  0  0  0  0  0  0  0  0  0  0
    1.8333   -2.6883    3.9405 H   0  0  0  0  0  0  0  0  0  0  0  0
    0.5230    1.2581    0.8881 C   0  0  0  0  0  0  0  0  0  0  0  0
    0.5230    1.2581   -0.6156 C   0  0  0  0  0  0  0  0  0  0  0  0
    0.5230    2.4524   -1.3297 C   0  0  0  0  0  0  0  0  0  0  0  0
    0.5534    2.4557   -2.7156 C   0  0  0  0  0  0  0  0  0  0  0  0
    0.5830    1.2587   -3.4147 C   0  0  0  0  0  0  0  0  0  0  0  0
    0.5798    0.0614   -2.7156 C   0  0  0  0  0  0  0  0  0  0  0  0
    0.5493    0.0640   -1.3297 C   0  0  0  0  0  0  0  0  0  0  0  0
   -0.0669    0.1913    1.3642 H   0  0  0  0  0  0  0  0  0  0  0  0
    1.5452    1.2693    1.2749 H   0  0  0  0  0  0  0  0  0  0  0  0
    0.0120    2.1360    1.2849 H   0  0  0  0  0  0  0  0  0  0  0  0
    0.4964    3.3935   -0.7918 H   0  0  0  0  0  0  0  0  0  0  0  0
    0.5508    3.3969   -3.2514 H   0  0  0  0  0  0  0  0  0  0  0  0
    0.6041    1.2590   -4.4970 H   0  0  0  0  0  0  0  0  0  0  0  0
    0.5979   -0.8797   -3.2514 H   0  0  0  0  0  0  0  0  0  0  0  0
    0.5435   -0.8774   -0.7918 H   0  0  0  0  0  0  0  0  0  0  0  0
  1  2  3  0
  1  7  1  0
  2  3  1  0
  3  4  1  0
  3  5  1  0
  4  8  1  0
  4  9  1  0
  4 10  1  0
  5  6  3  0
  6 11  1  0
 12 13  1  0
 12 19  1  0
 12 20  1  0
 12 21  1  0
 13 14  2  0
 13 18  1  0
 14 15  1  0
 14 22  1  0
 15 16  2  0
 15 23  1  0
 16 17  1  0
 16 24  1  0
 17 18  2  0
 17 25  1  0
 18 26  1  0
M  RAD  1   3   2
M  END
>  <reaction>  (16) 
rxn_1447

>  <mol_properties>  (16) 
{"1": {"label": "*0", "atom_type": "Ct"}, "2": {"label": "*1", "atom_type": "Cs"}, "11": {"label": "*3", "atom_type": "Cd"}, "12": {"label": "*4", "atom_type": "Cd"}, "18": {"label": "*2", "atom_type": "H0"}}

>  <type>  (16) 
unop_12

>  <geom_source>  (16) 
Heuristics

$$$$

     RDKit          3D

 26 25  0  0  0  0  0  0  0  0999 V2000
   -2.0515   -0.2852   -0.2609 C   0  0  0  0  0  3  0  0  0  0  0  0
   -1.7456   -1.7265   -0.6616 C   0  0  0  0  0  0  0  0  0  0  0  0
    1.2805    0.4216    0.6753 C   0  0  0  0  0  0  0  0  0  0  0  0
    1.4471    0.0605   -0.6685 C   0  0  0  0  0  0  0  0  0  0  0  0
    2.4061    0.6927    1.4677 C   0  0  0  0  0  0  0  0  0  0  0  0
    2.7312   -0.0289   -1.2163 C   0  0  0  0  0  0  0  0  0  0  0  0
    3.8512    0.2418   -0.4241 C   0  0  0  0  0  0  0  0  0  0  0  0
    3.6888    0.6024    0.9171 C   0  0  0  0  0  0  0  0  0  0  0  0
   -0.0926    0.5153    1.2539 C   0  0  0  0  0  0  0  0  0  0  0  0
   -2.4712    0.4935   -1.4324 C   0  0  0  0  0  0  0  0  0  0  0  0
   -3.1130   -0.2503    0.7526 C   0  0  0  0  0  0  0  0  0  0  0  0
   -2.8142    1.1336   -2.3951 C   0  0  0  0  0  0  0  0  0  0  0  0
   -3.9836   -0.2216    1.5865 C   0  0  0  0  0  0  0  0  0  0  0  0
   -0.9270    0.2784    0.2612 H   0  0  0  0  0  0  0  0  0  0  0  0
   -1.4103   -2.3041    0.2263 H   0  0  0  0  0  0  0  0  0  0  0  0
   -0.9285   -1.7457   -1.4142 H   0  0  0  0  0  0  0  0  0  0  0  0
   -2.6451   -2.2183   -1.0932 H   0  0  0  0  0  0  0  0  0  0  0  0
    0.5854   -0.1510   -1.2897 H   0  0  0  0  0  0  0  0  0  0  0  0
    2.8579   -0.3080   -2.2544 H   0  0  0  0  0  0  0  0  0  0  0  0
    2.2894    0.9727    2.5075 H   0  0  0  0  0  0  0  0  0  0  0  0
    4.8442    0.1722   -0.8492 H   0  0  0  0  0  0  0  0  0  0  0  0
    4.5562    0.8117    1.5296 H   0  0  0  0  0  0  0  0  0  0  0  0
   -0.2878    1.5482    1.6113 H   0  0  0  0  0  0  0  0  0  0  0  0
   -0.2047   -0.2037    2.0924 H   0  0  0  0  0  0  0  0  0  0  0  0
   -3.1153    1.6953   -3.2400 H   0  0  0  0  0  0  0  0  0  0  0  0
   -4.7477   -0.1966    2.3182 H   0  0  0  0  0  0  0  0  0  0  0  0
  1  2  1  0
  1 10  1  0
  1 11  1  0
  2 15  1  0
  2 16  1  0
  2 17  1  0
  3  9  1  0
  3  4  2  0
  3  5  1  0
  4  6  1  0
  4 18  1  0
  5  8  2  0
  5 20  1  0
  6  7  2  0
  6 19  1  0
  7  8  1  0
  7 21  1  0
  8 22  1  0
  9 14  1  0
  9 23  1  0
  9 24  1  0
 10 12  3  0
 11 13  3  0
 12 25  1  0
 13 26  1  0
M  RAD  1   1   2
M  END
>  <reaction>  (17) 
rxn_1447

>  <mol_properties>  (17) 
{"1": {"label": "*0", "atom_type": "Ct"}, "2": {"label": "*1", "atom_type": "Cs"}, "11": {"label": "*3", "atom_type": "Cd"}, "12": {"label": "*4", "atom_type": "Cd"}, "18": {"label": "*2", "atom_type": "H0"}}

>  <type>  (17) 
unop_13

>  <geom_source>  (17) 
AutoTST

$$$$

     RDKit          3D

 26 25  0  0  0  0  0  0  0  0999 V2000
   -0.4323   -2.8766    0.0045 C   0  0  0  0  0  0  0  0  0  0  0  0
   -0.5651   -1.9959    0.8029 C   0  0  0  0  0  0  0  0  0  0  0  0
   -0.7669   -0.9141    1.7732 C   0  0  0  0  0  3  0  0  0  0  0  0
   -2.2151   -0.8943    2.2925 C   0  0  0  0  0  0  0  0  0  0  0  0
    0.1930   -1.0049    2.8790 C   0  0  0  0  0  0  0  0  0  0  0  0
    0.9537   -1.0647    3.8001 C   0  0  0  0  0  0  0  0  0  0  0  0
   -0.3143   -3.6596   -0.7054 H   0  0  0  0  0  0  0  0  0  0  0  0
   -2.9065   -0.7868    1.4574 H   0  0  0  0  0  0  0  0  0  0  0  0
   -2.4396   -1.8219    2.8173 H   0  0  0  0  0  0  0  0  0  0  0  0
   -2.3505   -0.0600    2.9800 H   0  0  0  0  0  0  0  0  0  0  0  0
    1.6300   -1.1178    4.6191 H   0  0  0  0  0  0  0  0  0  0  0  0
    0.4154    1.2238    0.8190 C   0  0  0  0  0  0  0  0  0  0  0  0
    0.4154    1.2238   -0.6847 C   0  0  0  0  0  0  0  0  0  0  0  0
    0.4154    2.4181   -1.3988 C   0  0  0  0  0  0  0  0  0  0  0  0
    0.4458    2.4215   -2.7847 C   0  0  0  0  0  0  0  0  0  0  0  0
    0.4753    1.2244   -3.4838 C   0  0  0  0  0  0  0  0  0  0  0  0
    0.4722    0.0271   -2.7847 C   0  0  0  0  0  0  0  0  0  0  0  0
    0.4417    0.0297   -1.3988 C   0  0  0  0  0  0  0  0  0  0  0  0
   -0.1745    0.1571    1.2951 H   0  0  0  0  0  0  0  0  0  0  0  0
    1.4376    1.2350    1.2058 H   0  0  0  0  0  0  0  0  0  0  0  0
   -0.0957    2.1017    1.2158 H   0  0  0  0  0  0  0  0  0  0  0  0
    0.3887    3.3592   -0.8609 H   0  0  0  0  0  0  0  0  0  0  0  0
    0.4432    3.3627   -3.3205 H   0  0  0  0  0  0  0  0  0  0  0  0
    0.4965    1.2247   -4.5661 H   0  0  0  0  0  0  0  0  0  0  0  0
    0.4903   -0.9140   -3.3205 H   0  0  0  0  0  0  0  0  0  0  0  0
    0.4359   -0.9117   -0.8609 H   0  0  0  0  0  0  0  0  0  0  0  0
  1  2  3  0
  1  7  1  0
  2  3  1  0
  3  4  1  0
  3  5  1  0
  4  8  1  0
  4  9  1  0
  4 10  1  0
  5  6  3  0
  6 11  1  0
 12 13  1  0
 12 19  1  0
 12 20  1  0
 12 21  1  0
 13 14  2  0
 13 18  1  0
 14 15  1  0
 14 22  1  0
 15 16  2  0
 15 23  1  0
 16 17  1  0
 16 24  1  0
 17 18  2  0
 17 25  1  0
 18 26  1  0
M  RAD  1   3   2
M  END
>  <reaction>  (18) 
rxn_1447

>  <mol_properties>  (18) 
{"1": {"label": "*0", "atom_type": "Ct"}, "2": {"label": "*1", "atom_type": "Cs"}, "11": {"label": "*3", "atom_type": "Cd"}, "12": {"label": "*4", "atom_type": "Cd"}, "18": {"label": "*2", "atom_type": "H0"}}

>  <type>  (18) 
unop_14

>  <geom_source>  (18) 
gaussian_log

$$$$
