
     RDKit          3D

  7  6  0  0  0  0  0  0  0  0999 V2000
    1.2985   -0.0065   -0.2721 C   0  0  0  0  0  0  0  0  0  0  0  0
    0.0000    0.0000   -0.2926 C   0  0  0  0  0  0  0  0  0  0  0  0
   -1.2985    0.0065   -0.3130 C   0  0  0  0  0  0  0  0  0  0  0  0
    1.8444   -0.7551    0.2895 H   0  0  0  0  0  0  0  0  0  0  0  0
    1.8693    0.7364   -0.8162 H   0  0  0  0  0  0  0  0  0  0  0  0
   -1.8658    0.5623    0.4239 H   0  0  0  0  0  0  0  0  0  0  0  0
   -1.8479   -0.5437   -1.0675 H   0  0  0  0  0  0  0  0  0  0  0  0
  1  2  2  0
  1  4  1  0
  1  5  1  0
  2  3  2  0
  3  6  1  0
  3  7  1  0
M  END
>  <reaction>  (1) 
rxn_59

>  <mol_properties>  (1) 
{"0": {"label": "donator", "atom_type": "Cd"}, "3": {"label": "d_hydrogen", "atom_type": "H0"}}

>  <type>  (1) 
r1h

$$$$

     RDKit          3D

  2  1  0  0  0  0  0  0  0  0999 V2000
    0.0000    0.0000    0.6715 S   0  0  0  0  0  1  0  0  0  0  0  0
    0.0000    0.0000   -0.6715 H   0  0  0  0  0  0  0  0  0  0  0  0
  1  2  1  0
M  RAD  1   1   2
M  END
>  <reaction>  (2) 
rxn_59

>  <mol_properties>  (2) 
{"0": {"label": "acceptor", "atom_type": "S2s"}}

>  <type>  (2) 
r2

$$$$

     RDKit          3D

  3  2  0  0  0  0  0  0  0  0999 V2000
   -0.0007    0.6157    0.0000 S   0  0  0  0  0  0  0  0  0  0  0  0
   -0.9686   -0.3090    0.0000 H   0  0  0  0  0  0  0  0  0  0  0  0
    0.9693   -0.3067    0.0000 H   0  0  0  0  0  0  0  0  0  0  0  0
  1  2  1  0
  1  3  1  0
M  END
>  <reaction>  (3) 
rxn_59

>  <mol_properties>  (3) 
{"0": {"label": "a_hydrogen", "atom_type": "H0"}, "1": {"label": "acceptor", "atom_type": "S2s"}}

>  <type>  (3) 
r2h

$$$$

     RDKit          3D

  9  7  0  0  0  0  0  0  0  0999 V2000
    0.6259    0.9632   -0.0180 C   0  0  0  0  0  0  0  0  0  0  0  0
    0.7081    0.9851   -1.2766 C   0  0  0  0  0  0  0  0  0  0  0  0
    0.7585    0.9012   -2.5946 C   0  0  0  0  0  0  0  0  0  0  0  0
    0.1763   -0.2656    0.4901 H   0  0  0  0  0  0  0  0  0  0  0  0
    0.8122    1.6154    0.8164 H   0  0  0  0  0  0  0  0  0  0  0  0
   -0.0874    1.1965   -3.2023 H   0  0  0  0  0  0  0  0  0  0  0  0
    1.6535    0.5527   -3.0942 H   0  0  0  0  0  0  0  0  0  0  0  0
   -0.4189   -1.4966    1.1594 S   0  0  0  0  0  1  0  0  0  0  0  0
   -1.6492   -0.9739    1.0668 H   0  0  0  0  0  0  0  0  0  0  0  0
  1  2  2  0
  1  4  1  0
  1  5  1  0
  2  3  2  0
  3  6  1  0
  3  7  1  0
  8  9  1  0
M  RAD  1   8   2
M  END
>  <reaction>  (4) 
rxn_59

>  <mol_properties>  (4) 
{"0": {"label": "*1", "atom_type": "Cd"}, "1": {"label": "*0", "atom_type": "Cdd"}, "3": {"label": "*2", "atom_type": "H0"}, "7": {"label": "*3", "atom_type": "S2s"}, "8": {"label": "*4", "atom_type": "H0"}}

>  <type>  (4) 
ts

$$$$

     RDKit          3D

  9  7  0  0  0  0  0  0  0  0999 V2000
    0.6564    0.9121    0.0255 C   0  0  0  0  0  0  0  0  0  0  0  0
    0.6564    0.9121   -1.2732 C   0  0  0  0  0  0  0  0  0  0  0  0
    0.6564    0.9121   -2.5719 C   0  0  0  0  0  0  0  0  0  0  0  0
   -0.0072    0.0172    0.6956 H   0  0  0  0  0  0  0  0  0  0  0  0
    1.2094    1.6578    0.5839 H   0  0  0  0  0  0  0  0  0  0  0  0
   -0.0893    1.4651   -3.1303 H   0  0  0  0  0  0  0  0  0  0  0  0
    1.4022    0.3591   -3.1303 H   0  0  0  0  0  0  0  0  0  0  0  0
   -0.8271   -1.0886    1.5235 S   0  0  0  0  0  1  0  0  0  0  0  0
    0.2755   -1.5457    2.1295 H   0  0  0  0  0  0  0  0  0  0  0  0
  1  2  2  0
  1  4  1  0
  1  5  1  0
  2  3  2  0
  3  6  1  0
  3  7  1  0
  8  9  1  0
M  RAD  1   8   2
M  END
>  <reaction>  (5) 
rxn_59

>  <mol_properties>  (5) 
{"0": {"label": "*1", "atom_type": "Cd"}, "1": {"label": "*0", "atom_type": "Cdd"}, "3": {"label": "*2", "atom_type": "H0"}, "7": {"label": "*3", "atom_type": "S2s"}, "8": {"label": "*4", "atom_type": "H0"}}

>  <type>  (5) 
unop_1

>  <geom_source>  (5) 
Heuristics

$$$$

     RDKit          3D

  9  7  0  0  0  0  0  0  0  0999 V2000
    0.6696    0.9185    0.0471 C   0  0  0  0  0  0  0  0  0  0  0  0
    0.6696    0.9185   -1.2516 C   0  0  0  0  0  0  0  0  0  0  0  0
    0.6696    0.9185   -2.5503 C   0  0  0  0  0  0  0  0  0  0  0  0
    0.0060    0.0236    0.7172 H   0  0  0  0  0  0  0  0  0  0  0  0
    1.2226    1.6642    0.6055 H   0  0  0  0  0  0  0  0  0  0  0  0
   -0.0762    1.4715   -3.1087 H   0  0  0  0  0  0  0  0  0  0  0  0
    1.4154    0.3655   -3.1087 H   0  0  0  0  0  0  0  0  0  0  0  0
   -0.8139   -1.0821    1.5451 S   0  0  0  0  0  1  0  0  0  0  0  0
   -0.6652   -2.0040    0.5859 H   0  0  0  0  0  0  0  0  0  0  0  0
  1  2  2  0
  1  4  1  0
  1  5  1  0
  2  3  2  0
  3  6  1  0
  3  7  1  0
  8  9  1  0
M  RAD  1   8   2
M  END
>  <reaction>  (6) 
rxn_59

>  <mol_properties>  (6) 
{"0": {"label": "*1", "atom_type": "Cd"}, "1": {"label": "*0", "atom_type": "Cdd"}, "3": {"label": "*2", "atom_type": "H0"}, "7": {"label": "*3", "atom_type": "S2s"}, "8": {"label": "*4", "atom_type": "H0"}}

>  <type>  (6) 
unop_2

>  <geom_source>  (6) 
Heuristics

$$$$

     RDKit          3D

  9  7  0  0  0  0  0  0  0  0999 V2000
    0.6598    0.9052    0.0197 C   0  0  0  0  0  0  0  0  0  0  0  0
    0.6598    0.9052   -1.2790 C   0  0  0  0  0  0  0  0  0  0  0  0
    0.6598    0.9052   -2.5777 C   0  0  0  0  0  0  0  0  0  0  0  0
   -0.0038    0.0103    0.6898 H   0  0  0  0  0  0  0  0  0  0  0  0
    1.2128    1.6510    0.5781 H   0  0  0  0  0  0  0  0  0  0  0  0
   -0.0860    1.4583   -3.1361 H   0  0  0  0  0  0  0  0  0  0  0  0
    1.4056    0.3522   -3.1361 H   0  0  0  0  0  0  0  0  0  0  0  0
   -0.8237   -1.0954    1.5177 S   0  0  0  0  0  1  0  0  0  0  0  0
    0.0360   -1.0584    2.5431 H   0  0  0  0  0  0  0  0  0  0  0  0
  1  2  2  0
  1  4  1  0
  1  5  1  0
  2  3  2  0
  3  6  1  0
  3  7  1  0
  8  9  1  0
M  RAD  1   8   2
M  END
>  <reaction>  (7) 
rxn_59

>  <mol_properties>  (7) 
{"0": {"label": "*1", "atom_type": "Cd"}, "1": {"label": "*0", "atom_type": "Cdd"}, "3": {"label": "*2", "atom_type": "H0"}, "7": {"label": "*3", "atom_type": "S2s"}, "8": {"label": "*4", "atom_type": "H0"}}

>  <type>  (7) 
unop_3

>  <geom_source>  (7) 
Heuristics

$$$$

     RDKit          3D

  9  7  0  0  0  0  0  0  0  0999 V2000
    0.6878    0.9007    0.0413 C   0  0  0  0  0  0  0  0  0  0  0  0
    0.6878    0.9007   -1.2574 C   0  0  0  0  0  0  0  0  0  0  0  0
    0.6878    0.9007   -2.5561 C   0  0  0  0  0  0  0  0  0  0  0  0
    0.0242    0.0058    0.7114 H   0  0  0  0  0  0  0  0  0  0  0  0
    1.2408    1.6464    0.5997 H   0  0  0  0  0  0  0  0  0  0  0  0
   -0.0580    1.4537   -3.1145 H   0  0  0  0  0  0  0  0  0  0  0  0
    1.4335    0.3477   -3.1145 H   0  0  0  0  0  0  0  0  0  0  0  0
   -0.7958   -1.1000    1.5393 S   0  0  0  0  0  1  0  0  0  0  0  0
   -1.9639   -0.7312    0.9995 H   0  0  0  0  0  0  0  0  0  0  0  0
  1  2  2  0
  1  4  1  0
  1  5  1  0
  2  3  2  0
  3  6  1  0
  3  7  1  0
  8  9  1  0
M  RAD  1   8   2
M  END
>  <reaction>  (8) 
rxn_59

>  <mol_properties>  (8) 
{"0": {"label": "*1", "atom_type": "Cd"}, "1": {"label": "*0", "atom_type": "Cdd"}, "3": {"label": "*2", "atom_type": "H0"}, "7": {"label": "*3", "atom_type": "S2s"}, "8": {"label": "*4", "atom_type": "H0"}}

>  <type>  (8) 
unop_4

>  <geom_source>  (8) 
Heuristics

$$$$

     RDKit          3D

  9  7  0  0  0  0  0  0  0  0999 V2000
    0.6664    0.8987    0.0175 C   0  0  0  0  0  0  0  0  0  0  0  0
    0.6664    0.8987   -1.2811 C   0  0  0  0  0  0  0  0  0  0  0  0
    0.6664    0.8987   -2.5798 C   0  0  0  0  0  0  0  0  0  0  0  0
    0.0028    0.0038    0.6877 H   0  0  0  0  0  0  0  0  0  0  0  0
    1.2195    1.6445    0.5760 H   0  0  0  0  0  0  0  0  0  0  0  0
   -0.0793    1.4517   -3.1382 H   0  0  0  0  0  0  0  0  0  0  0  0
    1.4122    0.3457   -3.1382 H   0  0  0  0  0  0  0  0  0  0  0  0
   -0.8171   -1.1019    1.5156 S   0  0  0  0  0  1  0  0  0  0  0  0
   -0.4394   -0.5925    2.6945 H   0  0  0  0  0  0  0  0  0  0  0  0
  1  2  2  0
  1  4  1  0
  1  5  1  0
  2  3  2  0
  3  6  1  0
  3  7  1  0
  8  9  1  0
M  RAD  1   8   2
M  END
>  <reaction>  (9) 
rxn_59

>  <mol_properties>  (9) 
{"0": {"label": "*1", "atom_type": "Cd"}, "1": {"label": "*0", "atom_type": "Cdd"}, "3": {"label": "*2", "atom_type": "H0"}, "7": {"label": "*3", "atom_type": "S2s"}, "8": {"label": "*4", "atom_type": "H0"}}

>  <type>  (9) 
unop_5

>  <geom_source>  (9) 
Heuristics

$$$$

     RDKit          3D

  9  7  0  0  0  0  0  0  0  0999 V2000
    0.6869    0.8954    0.0334 C   0  0  0  0  0  0  0  0  0  0  0  0
    0.6869    0.8954   -1.2653 C   0  0  0  0  0  0  0  0  0  0  0  0
    0.6869    0.8954   -2.5640 C   0  0  0  0  0  0  0  0  0  0  0  0
    0.0233    0.0005    0.7035 H   0  0  0  0  0  0  0  0  0  0  0  0
    1.2399    1.6411    0.5918 H   0  0  0  0  0  0  0  0  0  0  0  0
   -0.0588    1.4484   -3.1224 H   0  0  0  0  0  0  0  0  0  0  0  0
    1.4327    0.3424   -3.1224 H   0  0  0  0  0  0  0  0  0  0  0  0
   -0.7966   -1.1052    1.5314 S   0  0  0  0  0  1  0  0  0  0  0  0
   -1.9034   -0.3530    1.5645 H   0  0  0  0  0  0  0  0  0  0  0  0
  1  2  2  0
  1  4  1  0
  1  5  1  0
  2  3  2  0
  3  6  1  0
  3  7  1  0
  8  9  1  0
M  RAD  1   8   2
M  END
>  <reaction>  (10) 
rxn_59

>  <mol_properties>  (10) 
{"0": {"label": "*1", "atom_type": "Cd"}, "1": {"label": "*0", "atom_type": "Cdd"}, "3": {"label": "*2", "atom_type": "H0"}, "7": {"label": "*3", "atom_type": "S2s"}, "8": {"label": "*4", "atom_type": "H0"}}

>  <type>  (10) 
unop_6

>  <geom_source>  (10) 
Heuristics

$$$$

     RDKit          3D

  9  7  0  0  0  0  0  0  0  0999 V2000
    0.6821    0.8930    0.0255 C   0  0  0  0  0  0  0  0  0  0  0  0
    0.6821    0.8930   -1.2732 C   0  0  0  0  0  0  0  0  0  0  0  0
    0.6821    0.8930   -2.5719 C   0  0  0  0  0  0  0  0  0  0  0  0
    0.0185   -0.0019    0.6956 H   0  0  0  0  0  0  0  0  0  0  0  0
    1.2351    1.6388    0.5839 H   0  0  0  0  0  0  0  0  0  0  0  0
   -0.0636    1.4460   -3.1303 H   0  0  0  0  0  0  0  0  0  0  0  0
    1.4279    0.3400   -3.1303 H   0  0  0  0  0  0  0  0  0  0  0  0
   -0.8014   -1.1076    1.5235 S   0  0  0  0  0  1  0  0  0  0  0  0
   -1.5591   -0.1853    2.1295 H   0  0  0  0  0  0  0  0  0  0  0  0
  1  2  2  0
  1  4  1  0
  1  5  1  0
  2  3  2  0
  3  6  1  0
  3  7  1  0
  8  9  1  0
M  RAD  1   8   2
M  END
>  <reaction>  (11) 
rxn_59

>  <mol_properties>  (11) 
{"0": {"label": "*1", "atom_type": "Cd"}, "1": {"label": "*0", "atom_type": "Cdd"}, "3": {"label": "*2", "atom_type": "H0"}, "7": {"label": "*3", "atom_type": "S2s"}, "8": {"label": "*4", "atom_type": "H0"}}

>  <type>  (11) 
unop_7

>  <geom_source>  (11) 
Heuristics

$$$$

     RDKit          3D

  9  7  0  0  0  0  0  0  0  0999 V2000
    0.6573    0.9174    0.0334 C   0  0  0  0  0  0  0  0  0  0  0  0
    0.6573    0.9174   -1.2653 C   0  0  0  0  0  0  0  0  0  0  0  0
    0.6573    0.9174   -2.5640 C   0  0  0  0  0  0  0  0  0  0  0  0
   -0.0063    0.0224    0.7035 H   0  0  0  0  0  0  0  0  0  0  0  0
    1.2103    1.6631    0.5918 H   0  0  0  0  0  0  0  0  0  0  0  0
   -0.0885    1.4704   -3.1224 H   0  0  0  0  0  0  0  0  0  0  0  0
    1.4030    0.3644   -3.1224 H   0  0  0  0  0  0  0  0  0  0  0  0
   -0.8263   -1.0833    1.5314 S   0  0  0  0  0  1  0  0  0  0  0  0
    0.2150   -1.9239    1.5645 H   0  0  0  0  0  0  0  0  0  0  0  0
  1  2  2  0
  1  4  1  0
  1  5  1  0
  2  3  2  0
  3  6  1  0
  3  7  1  0
  8  9  1  0
M  RAD  1   8   2
M  END
>  <reaction>  (12) 
rxn_59

>  <mol_properties>  (12) 
{"0": {"label": "*1", "atom_type": "Cd"}, "1": {"label": "*0", "atom_type": "Cdd"}, "3": {"label": "*2", "atom_type": "H0"}, "7": {"label": "*3", "atom_type": "S2s"}, "8": {"label": "*4", "atom_type": "H0"}}

>  <type>  (12) 
unop_8

>  <geom_source>  (12) 
Heuristics

$$$$

     RDKit          3D

  9  7  0  0  0  0  0  0  0  0999 V2000
    0.6844    0.9075    0.0471 C   0  0  0  0  0  0  0  0  0  0  0  0
    0.6844    0.9075   -1.2516 C   0  0  0  0  0  0  0  0  0  0  0  0
    0.6844    0.9075   -2.5503 C   0  0  0  0  0  0  0  0  0  0  0  0
    0.0208    0.0126    0.7172 H   0  0  0  0  0  0  0  0  0  0  0  0
    1.2374    1.6533    0.6055 H   0  0  0  0  0  0  0  0  0  0  0  0
   -0.0613    1.4605   -3.1087 H   0  0  0  0  0  0  0  0  0  0  0  0
    1.4302    0.3545   -3.1087 H   0  0  0  0  0  0  0  0  0  0  0  0
   -0.7991   -1.0931    1.5451 S   0  0  0  0  0  1  0  0  0  0  0  0
   -1.7244   -1.2185    0.5859 H   0  0  0  0  0  0  0  0  0  0  0  0
  1  2  2  0
  1  4  1  0
  1  5  1  0
  2  3  2  0
  3  6  1  0
  3  7  1  0
  8  9  1  0
M  RAD  1   8   2
M  END
>  <reaction>  (13) 
rxn_59

>  <mol_properties>  (13) 
{"0": {"label": "*1", "atom_type": "Cd"}, "1": {"label": "*0", "atom_type": "Cdd"}, "3": {"label": "*2", "atom_type": "H0"}, "7": {"label": "*3", "atom_type": "S2s"}, "8": {"label": "*4", "atom_type": "H0"}}

>  <type>  (13) 
unop_9

>  <geom_source>  (13) 
Heuristics

$$$$

     RDKit          3D

  9  7  0  0  0  0  0  0  0  0999 V2000
    0.6621    0.9197    0.0413 C   0  0  0  0  0  0  0  0  0  0  0  0
    0.6621    0.9197   -1.2574 C   0  0  0  0  0  0  0  0  0  0  0  0
    0.6621    0.9197   -2.5561 C   0  0  0  0  0  0  0  0  0  0  0  0
   -0.0015    0.0248    0.7114 H   0  0  0  0  0  0  0  0  0  0  0  0
    1.2151    1.6655    0.5997 H   0  0  0  0  0  0  0  0  0  0  0  0
   -0.0837    1.4727   -3.1145 H   0  0  0  0  0  0  0  0  0  0  0  0
    1.4079    0.3667   -3.1145 H   0  0  0  0  0  0  0  0  0  0  0  0
   -0.8214   -1.0809    1.5393 S   0  0  0  0  0  1  0  0  0  0  0  0
   -0.1293   -2.0916    0.9995 H   0  0  0  0  0  0  0  0  0  0  0  0
  1  2  2  0
  1  4  1  0
  1  5  1  0
  2  3  2  0
  3  6  1  0
  3  7  1  0
  8  9  1  0
M  RAD  1   8   2
M  END
>  <reaction>  (14) 
rxn_59

>  <mol_properties>  (14) 
{"0": {"label": "*1", "atom_type": "Cd"}, "1": {"label": "*0", "atom_type": "Cdd"}, "3": {"label": "*2", "atom_type": "H0"}, "7": {"label": "*3", "atom_type": "S2s"}, "8": {"label": "*4", "atom_type": "H0"}}

>  <type>  (14) 
unop_10

>  <geom_source>  (14) 
Heuristics

$$$$

     RDKit          3D

  9  7  0  0  0  0  0  0  0  0999 V2000
    0.6746    0.8943    0.0197 C   0  0  0  0  0  0  0  0  0  0  0  0
    0.6746    0.8943   -1.2790 C   0  0  0  0  0  0  0  0  0  0  0  0
    0.6746    0.8943   -2.5777 C   0  0  0  0  0  0  0  0  0  0  0  0
    0.0110   -0.0007    0.6898 H   0  0  0  0  0  0  0  0  0  0  0  0
    1.2276    1.6400    0.5781 H   0  0  0  0  0  0  0  0  0  0  0  0
   -0.0711    1.4473   -3.1361 H   0  0  0  0  0  0  0  0  0  0  0  0
    1.4204    0.3412   -3.1361 H   0  0  0  0  0  0  0  0  0  0  0  0
   -0.8089   -1.1064    1.5177 S   0  0  0  0  0  1  0  0  0  0  0  0
   -1.0232   -0.2730    2.5431 H   0  0  0  0  0  0  0  0  0  0  0  0
  1  2  2  0
  1  4  1  0
  1  5  1  0
  2  3  2  0
  3  6  1  0
  3  7  1  0
  8  9  1  0
M  RAD  1   8   2
M  END
>  <reaction>  (15) 
rxn_59

>  <mol_properties>  (15) 
{"0": {"label": "*1", "atom_type": "Cd"}, "1": {"label": "*0", "atom_type": "Cdd"}, "3": {"label": "*2", "atom_type": "H0"}, "7": {"label": "*3", "atom_type": "S2s"}, "8": {"label": "*4", "atom_type": "H0"}}

>  <type>  (15) 
unop_11

>  <geom_source>  (15) 
Heuristics

$$$$

     RDKit          3D

  9  7  0  0  0  0  0  0  0  0999 V2000
    0.6778    0.9140    0.0492 C   0  0  0  0  0  0  0  0  0  0  0  0
    0.6778    0.9140   -1.2495 C   0  0  0  0  0  0  0  0  0  0  0  0
    0.6778    0.9140   -2.5482 C   0  0  0  0  0  0  0  0  0  0  0  0
    0.0142    0.0191    0.7193 H   0  0  0  0  0  0  0  0  0  0  0  0
    1.2308    1.6598    0.6076 H   0  0  0  0  0  0  0  0  0  0  0  0
   -0.0680    1.4670   -3.1066 H   0  0  0  0  0  0  0  0  0  0  0  0
    1.4235    0.3610   -3.1066 H   0  0  0  0  0  0  0  0  0  0  0  0
   -0.8058   -1.0866    1.5472 S   0  0  0  0  0  1  0  0  0  0  0  0
   -1.2490   -1.6844    0.4345 H   0  0  0  0  0  0  0  0  0  0  0  0
  1  2  2  0
  1  4  1  0
  1  5  1  0
  2  3  2  0
  3  6  1  0
  3  7  1  0
  8  9  1  0
M  RAD  1   8   2
M  END
>  <reaction>  (16) 
rxn_59

>  <mol_properties>  (16) 
{"0": {"label": "*1", "atom_type": "Cd"}, "1": {"label": "*0", "atom_type": "Cdd"}, "3": {"label": "*2", "atom_type": "H0"}, "7": {"label": "*3", "atom_type": "S2s"}, "8": {"label": "*4", "atom_type": "H0"}}

>  <type>  (16) 
unop_12

>  <geom_source>  (16) 
Heuristics

$$$$
