
     RDKit          3D

 12 11  0  0  0  0  0  0  0  0999 V2000
    1.2394   -0.3763   -0.3020 C   0  0  0  0  0  0  0  0  0  0  0  0
    0.1007    0.3023    0.4464 C   0  0  0  0  0  0  0  0  0  0  0  0
   -0.1187    2.0399   -0.0725 S   0  0  0  0  0  0  0  0  0  0  0  0
   -1.1974   -0.4877    0.3552 C   0  0  0  0  0  0  0  0  0  0  0  0
    2.1681    0.1849   -0.2048 H   0  0  0  0  0  0  0  0  0  0  0  0
    1.0031   -0.4606   -1.3656 H   0  0  0  0  0  0  0  0  0  0  0  0
    1.3994   -1.3856    0.0860 H   0  0  0  0  0  0  0  0  0  0  0  0
    0.3796    0.4050    1.4981 H   0  0  0  0  0  0  0  0  0  0  0  0
   -0.4500    1.7779   -1.3452 H   0  0  0  0  0  0  0  0  0  0  0  0
   -1.0545   -1.4978    0.7479 H   0  0  0  0  0  0  0  0  0  0  0  0
   -1.5206   -0.5759   -0.6849 H   0  0  0  0  0  0  0  0  0  0  0  0
   -1.9957   -0.0054    0.9183 H   0  0  0  0  0  0  0  0  0  0  0  0
  1  2  1  0
  1  5  1  0
  1  6  1  0
  1  7  1  0
  2  4  1  0
  2  3  1  0
  2  8  1  0
  3  9  1  0
  4 10  1  0
  4 11  1  0
  4 12  1  0
M  END
>  <reaction>  (1) 
rxn_1946

>  <mol_properties>  (1) 
{"1": {"label": "donator", "atom_type": "Cs"}, "7": {"label": "d_hydrogen", "atom_type": "H0"}}

>  <type>  (1) 
r1h

$$$$

     RDKit          3D

  6  5  0  0  0  0  0  0  0  0999 V2000
   -0.5118    0.0769    0.0368 C   0  0  0  0  0  0  0  0  0  0  0  0
    0.8160   -0.5497    0.0389 C   0  0  0  0  0  3  0  0  0  0  0  0
    2.3066   -0.1661   -0.2071 S   0  0  0  0  0  0  0  0  0  0  0  0
   -1.1526   -0.4457   -0.6778 H   0  0  0  0  0  0  0  0  0  0  0  0
   -0.4858    1.1429   -0.2095 H   0  0  0  0  0  0  0  0  0  0  0  0
   -0.9724   -0.0582    1.0186 H   0  0  0  0  0  0  0  0  0  0  0  0
  1  2  1  0
  1  4  1  0
  1  5  1  0
  1  6  1  0
  2  3  2  0
M  RAD  1   2   2
M  END
>  <reaction>  (2) 
rxn_1946

>  <mol_properties>  (2) 
{"1": {"label": "acceptor", "atom_type": "CS"}}

>  <type>  (2) 
r2

$$$$

     RDKit          3D

  7  6  0  0  0  0  0  0  0  0999 V2000
   -0.6782    0.0507    0.0301 C   0  0  0  0  0  0  0  0  0  0  0  0
    0.8092    0.0996    0.0213 C   0  0  0  0  0  0  0  0  0  0  0  0
    1.7473    0.7521    1.1507 S   0  0  0  0  0  0  0  0  0  0  0  0
   -1.0667    0.5456   -0.8653 H   0  0  0  0  0  0  0  0  0  0  0  0
   -1.0112   -0.9904   -0.0239 H   0  0  0  0  0  0  0  0  0  0  0  0
   -1.0920    0.5225    0.9188 H   0  0  0  0  0  0  0  0  0  0  0  0
    1.2740   -0.3620   -0.8520 H   0  0  0  0  0  0  0  0  0  0  0  0
  1  2  1  0
  1  4  1  0
  1  5  1  0
  1  6  1  0
  2  3  2  0
  2  7  1  0
M  END
>  <reaction>  (3) 
rxn_1946

>  <mol_properties>  (3) 
{"0": {"label": "a_hydrogen", "atom_type": "H0"}, "2": {"label": "acceptor", "atom_type": "CS"}}

>  <type>  (3) 
r2h

$$$$

     RDKit          3D

 18 16  0  0  0  0  0  0  0  0999 V2000
    1.1110    0.6651   -2.0376 C   0  0  0  0  0  0  0  0  0  0  0  0
    0.6457    1.1093   -0.6748 C   0  0  0  0  0  0  0  0  0  0  0  0
    1.6659    0.5864    0.7002 S   0  0  0  0  0  0  0  0  0  0  0  0
    0.3046    2.5755   -0.5589 C   0  0  0  0  0  0  0  0  0  0  0  0
    1.2232   -0.4192   -2.0881 H   0  0  0  0  0  0  0  0  0  0  0  0
    2.0725    1.1213   -2.2941 H   0  0  0  0  0  0  0  0  0  0  0  0
    0.3788    0.9572   -2.7939 H   0  0  0  0  0  0  0  0  0  0  0  0
   -0.5269    0.4713   -0.5224 H   0  0  0  0  0  0  0  0  0  0  0  0
    1.8105   -0.6906    0.3204 H   0  0  0  0  0  0  0  0  0  0  0  0
   -0.4580    2.8349   -1.2965 H   0  0  0  0  0  0  0  0  0  0  0  0
    1.1795    3.2057   -0.7489 H   0  0  0  0  0  0  0  0  0  0  0  0
   -0.0798    2.8235    0.4322 H   0  0  0  0  0  0  0  0  0  0  0  0
   -2.2804    0.1940    0.9660 C   0  0  0  0  0  0  0  0  0  0  0  0
   -1.6873   -0.1990   -0.3324 C   0  0  0  0  0  3  0  0  0  0  0  0
   -2.1462   -1.2704   -1.4109 S   0  0  0  0  0  0  0  0  0  0  0  0
   -1.5192    0.0998    1.7460 H   0  0  0  0  0  0  0  0  0  0  0  0
   -3.1602   -0.3959    1.2251 H   0  0  0  0  0  0  0  0  0  0  0  0
   -2.5486    1.2542    0.9268 H   0  0  0  0  0  0  0  0  0  0  0  0
  1  2  1  0
  1  5  1  0
  1  6  1  0
  1  7  1  0
  2  4  1  0
  2  3  1  0
  2  8  1  0
  3  9  1  0
  4 10  1  0
  4 11  1  0
  4 12  1  0
 13 14  1  0
 13 16  1  0
 13 17  1  0
 13 18  1  0
 14 15  2  0
M  RAD  1  14   2
M  END
>  <reaction>  (4) 
rxn_1946

>  <mol_properties>  (4) 
{"1": {"label": "*1", "atom_type": "Cs"}, "2": {"label": "*0", "atom_type": "S2s"}, "7": {"label": "*2", "atom_type": "H0"}, "13": {"label": "*3", "atom_type": "CS"}, "14": {"label": "*4", "atom_type": "S2d"}}

>  <type>  (4) 
ts

$$$$

     RDKit          3D

 18 16  0  0  0  0  0  0  0  0999 V2000
    0.8397    0.5142   -2.1078 C   0  0  0  0  0  0  0  0  0  0  0  0
    0.8397    0.5142   -0.5855 C   0  0  0  0  0  3  0  0  0  0  0  0
    2.1947   -0.5023    0.0981 S   0  0  0  0  0  0  0  0  0  0  0  0
    0.8397    1.9241   -0.0114 C   0  0  0  0  0  0  0  0  0  0  0  0
    0.8111   -0.5001   -2.5045 H   0  0  0  0  0  0  0  0  0  0  0  0
    1.7381    1.0039   -2.4914 H   0  0  0  0  0  0  0  0  0  0  0  0
   -0.0273    1.0616   -2.4866 H   0  0  0  0  0  0  0  0  0  0  0  0
   -0.2282   -0.1177   -0.1605 H   0  0  0  0  0  0  0  0  0  0  0  0
    3.2010    0.2332   -0.3965 H   0  0  0  0  0  0  0  0  0  0  0  0
   -0.0273    2.4814   -0.3756 H   0  0  0  0  0  0  0  0  0  0  0  0
    1.7381    2.4641   -0.3204 H   0  0  0  0  0  0  0  0  0  0  0  0
    0.8111    1.9090    1.0775 H   0  0  0  0  0  0  0  0  0  0  0  0
   -1.0138   -1.9442    1.1047 C   0  0  0  0  0  0  0  0  0  0  0  0
   -1.2948   -0.7489    0.2640 C   0  0  0  0  0  0  0  0  0  0  0  0
   -2.4391    0.3491    0.5215 S   0  0  0  0  0  0  0  0  0  0  0  0
   -1.0995   -2.8493    0.4957 H   0  0  0  0  0  0  0  0  0  0  0  0
   -1.6909   -2.0081    1.9539 H   0  0  0  0  0  0  0  0  0  0  0  0
    0.0207   -1.9079    1.4597 H   0  0  0  0  0  0  0  0  0  0  0  0
  1  2  1  0
  1  5  1  0
  1  6  1  0
  1  7  1  0
  2  4  1  0
  2  3  1  0
  3  9  1  0
  4 10  1  0
  4 11  1  0
  4 12  1  0
  8 14  1  0
 13 14  1  0
 13 16  1  0
 13 17  1  0
 13 18  1  0
 14 15  2  0
M  RAD  1   2   2
M  END
>  <reaction>  (5) 
rxn_1946

>  <mol_properties>  (5) 
{"1": {"label": "*1", "atom_type": "Cs"}, "2": {"label": "*0", "atom_type": "S2s"}, "7": {"label": "*2", "atom_type": "H0"}, "13": {"label": "*3", "atom_type": "CS"}, "14": {"label": "*4", "atom_type": "S2d"}}

>  <type>  (5) 
unop_1

>  <geom_source>  (5) 
Heuristics

$$$$

     RDKit          3D

 18 16  0  0  0  0  0  0  0  0999 V2000
    0.7478    0.7172   -2.2097 C   0  0  0  0  0  0  0  0  0  0  0  0
    0.7478    0.7172   -0.6873 C   0  0  0  0  0  3  0  0  0  0  0  0
    2.1028   -0.2992   -0.0037 S   0  0  0  0  0  0  0  0  0  0  0  0
    0.7478    2.1272   -0.1133 C   0  0  0  0  0  0  0  0  0  0  0  0
    0.7192   -0.2970   -2.6063 H   0  0  0  0  0  0  0  0  0  0  0  0
    1.6462    1.2070   -2.5933 H   0  0  0  0  0  0  0  0  0  0  0  0
   -0.1192    1.2646   -2.5885 H   0  0  0  0  0  0  0  0  0  0  0  0
   -0.3201    0.0854   -0.2623 H   0  0  0  0  0  0  0  0  0  0  0  0
    3.1091    0.4363   -0.4984 H   0  0  0  0  0  0  0  0  0  0  0  0
   -0.1192    2.6845   -0.4774 H   0  0  0  0  0  0  0  0  0  0  0  0
    1.6462    2.6671   -0.4222 H   0  0  0  0  0  0  0  0  0  0  0  0
    0.7192    2.1121    0.9757 H   0  0  0  0  0  0  0  0  0  0  0  0
   -1.8733   -1.6198   -0.7457 C   0  0  0  0  0  0  0  0  0  0  0  0
   -1.3867   -0.5458    0.1621 C   0  0  0  0  0  0  0  0  0  0  0  0
   -1.7632   -0.3670    1.7138 S   0  0  0  0  0  0  0  0  0  0  0  0
   -2.3886   -1.1717   -1.6008 H   0  0  0  0  0  0  0  0  0  0  0  0
   -2.5426   -2.3081   -0.2337 H   0  0  0  0  0  0  0  0  0  0  0  0
   -1.0198   -2.1700   -1.1536 H   0  0  0  0  0  0  0  0  0  0  0  0
  1  2  1  0
  1  5  1  0
  1  6  1  0
  1  7  1  0
  2  4  1  0
  2  3  1  0
  3  9  1  0
  4 10  1  0
  4 11  1  0
  4 12  1  0
  8 14  1  0
 13 14  1  0
 13 16  1  0
 13 17  1  0
 13 18  1  0
 14 15  2  0
M  RAD  1   2   2
M  END
>  <reaction>  (6) 
rxn_1946

>  <mol_properties>  (6) 
{"1": {"label": "*1", "atom_type": "Cs"}, "2": {"label": "*0", "atom_type": "S2s"}, "7": {"label": "*2", "atom_type": "H0"}, "13": {"label": "*3", "atom_type": "CS"}, "14": {"label": "*4", "atom_type": "S2d"}}

>  <type>  (6) 
unop_2

>  <geom_source>  (6) 
Heuristics

$$$$

     RDKit          3D

 18 16  0  0  0  0  0  0  0  0999 V2000
    0.9034    0.5633   -1.9660 C   0  0  0  0  0  0  0  0  0  0  0  0
    0.9034    0.5633   -0.4437 C   0  0  0  0  0  3  0  0  0  0  0  0
    2.2584   -0.4532    0.2399 S   0  0  0  0  0  0  0  0  0  0  0  0
    0.9034    1.9732    0.1304 C   0  0  0  0  0  0  0  0  0  0  0  0
    0.8748   -0.4510   -2.3627 H   0  0  0  0  0  0  0  0  0  0  0  0
    1.8018    1.0530   -2.3496 H   0  0  0  0  0  0  0  0  0  0  0  0
    0.0365    1.1107   -2.3448 H   0  0  0  0  0  0  0  0  0  0  0  0
   -0.1645   -0.0686   -0.0187 H   0  0  0  0  0  0  0  0  0  0  0  0
    3.2647    0.2823   -0.2547 H   0  0  0  0  0  0  0  0  0  0  0  0
    0.0365    2.5305   -0.2338 H   0  0  0  0  0  0  0  0  0  0  0  0
    1.8018    2.5132   -0.1786 H   0  0  0  0  0  0  0  0  0  0  0  0
    0.8748    1.9581    1.2193 H   0  0  0  0  0  0  0  0  0  0  0  0
   -1.0642   -1.3871    1.7151 C   0  0  0  0  0  0  0  0  0  0  0  0
   -1.2311   -0.6998    0.4058 C   0  0  0  0  0  0  0  0  0  0  0  0
   -2.5887   -0.0603   -0.1681 S   0  0  0  0  0  0  0  0  0  0  0  0
   -0.6990   -2.4056    1.5507 H   0  0  0  0  0  0  0  0  0  0  0  0
   -1.9958   -1.4176    2.2762 H   0  0  0  0  0  0  0  0  0  0  0  0
   -0.2961   -0.8751    2.3029 H   0  0  0  0  0  0  0  0  0  0  0  0
  1  2  1  0
  1  5  1  0
  1  6  1  0
  1  7  1  0
  2  4  1  0
  2  3  1  0
  3  9  1  0
  4 10  1  0
  4 11  1  0
  4 12  1  0
  8 14  1  0
 13 14  1  0
 13 16  1  0
 13 17  1  0
 13 18  1  0
 14 15  2  0
M  RAD  1   2   2
M  END
>  <reaction>  (7) 
rxn_1946

>  <mol_properties>  (7) 
{"1": {"label": "*1", "atom_type": "Cs"}, "2": {"label": "*0", "atom_type": "S2s"}, "7": {"label": "*2", "atom_type": "H0"}, "13": {"label": "*3", "atom_type": "CS"}, "14": {"label": "*4", "atom_type": "S2d"}}

>  <type>  (7) 
unop_3

>  <geom_source>  (7) 
Heuristics

$$$$

     RDKit          3D

 18 16  0  0  0  0  0  0  0  0999 V2000
    0.6892    0.7483   -2.2237 C   0  0  0  0  0  0  0  0  0  0  0  0
    0.6892    0.7483   -0.7014 C   0  0  0  0  0  3  0  0  0  0  0  0
    2.0442   -0.2682   -0.0178 S   0  0  0  0  0  0  0  0  0  0  0  0
    0.6892    2.1582   -0.1273 C   0  0  0  0  0  0  0  0  0  0  0  0
    0.6606   -0.2660   -2.6204 H   0  0  0  0  0  0  0  0  0  0  0  0
    1.5876    1.2380   -2.6073 H   0  0  0  0  0  0  0  0  0  0  0  0
   -0.1778    1.2957   -2.6025 H   0  0  0  0  0  0  0  0  0  0  0  0
   -0.3787    0.1164   -0.2764 H   0  0  0  0  0  0  0  0  0  0  0  0
    3.0505    0.4673   -0.5124 H   0  0  0  0  0  0  0  0  0  0  0  0
   -0.1778    2.7155   -0.4915 H   0  0  0  0  0  0  0  0  0  0  0  0
    1.5876    2.6982   -0.4363 H   0  0  0  0  0  0  0  0  0  0  0  0
    0.6606    2.1431    0.9616 H   0  0  0  0  0  0  0  0  0  0  0  0
   -2.7351    0.0836   -0.2912 C   0  0  0  0  0  0  0  0  0  0  0  0
   -1.4453   -0.5147    0.1481 C   0  0  0  0  0  0  0  0  0  0  0  0
   -1.1773   -1.2929    1.5279 S   0  0  0  0  0  0  0  0  0  0  0  0
   -2.5986    1.1534   -0.4774 H   0  0  0  0  0  0  0  0  0  0  0  0
   -3.5200   -0.0628    0.4478 H   0  0  0  0  0  0  0  0  0  0  0  0
   -3.0389   -0.3591   -1.2448 H   0  0  0  0  0  0  0  0  0  0  0  0
  1  2  1  0
  1  5  1  0
  1  6  1  0
  1  7  1  0
  2  4  1  0
  2  3  1  0
  3  9  1  0
  4 10  1  0
  4 11  1  0
  4 12  1  0
  8 14  1  0
 13 14  1  0
 13 16  1  0
 13 17  1  0
 13 18  1  0
 14 15  2  0
M  RAD  1   2   2
M  END
>  <reaction>  (8) 
rxn_1946

>  <mol_properties>  (8) 
{"1": {"label": "*1", "atom_type": "Cs"}, "2": {"label": "*0", "atom_type": "S2s"}, "7": {"label": "*2", "atom_type": "H0"}, "13": {"label": "*3", "atom_type": "CS"}, "14": {"label": "*4", "atom_type": "S2d"}}

>  <type>  (8) 
unop_4

>  <geom_source>  (8) 
Heuristics

$$$$

     RDKit          3D

 18 16  0  0  0  0  0  0  0  0999 V2000
    0.8595    0.7865   -1.8673 C   0  0  0  0  0  0  0  0  0  0  0  0
    0.8595    0.7865   -0.3450 C   0  0  0  0  0  3  0  0  0  0  0  0
    2.2145   -0.2299    0.3387 S   0  0  0  0  0  0  0  0  0  0  0  0
    0.8595    2.1965    0.2291 C   0  0  0  0  0  0  0  0  0  0  0  0
    0.8309   -0.2277   -2.2640 H   0  0  0  0  0  0  0  0  0  0  0  0
    1.7579    1.2762   -2.2509 H   0  0  0  0  0  0  0  0  0  0  0  0
   -0.0075    1.3339   -2.2461 H   0  0  0  0  0  0  0  0  0  0  0  0
   -0.2084    0.1546    0.0800 H   0  0  0  0  0  0  0  0  0  0  0  0
    3.2208    0.5056   -0.1560 H   0  0  0  0  0  0  0  0  0  0  0  0
   -0.0075    2.7537   -0.1351 H   0  0  0  0  0  0  0  0  0  0  0  0
    1.7579    2.7364   -0.0798 H   0  0  0  0  0  0  0  0  0  0  0  0
    0.8309    2.1814    1.3180 H   0  0  0  0  0  0  0  0  0  0  0  0
   -1.4021   -0.5517    1.9853 C   0  0  0  0  0  0  0  0  0  0  0  0
   -1.2750   -0.4765    0.5045 C   0  0  0  0  0  0  0  0  0  0  0  0
   -2.3017   -1.0840   -0.5717 S   0  0  0  0  0  0  0  0  0  0  0  0
   -0.5217   -1.0488    2.4042 H   0  0  0  0  0  0  0  0  0  0  0  0
   -2.3019   -1.0841    2.2863 H   0  0  0  0  0  0  0  0  0  0  0  0
   -1.4141    0.4593    2.4042 H   0  0  0  0  0  0  0  0  0  0  0  0
  1  2  1  0
  1  5  1  0
  1  6  1  0
  1  7  1  0
  2  4  1  0
  2  3  1  0
  3  9  1  0
  4 10  1  0
  4 11  1  0
  4 12  1  0
  8 14  1  0
 13 14  1  0
 13 16  1  0
 13 17  1  0
 13 18  1  0
 14 15  2  0
M  RAD  1   2   2
M  END
>  <reaction>  (9) 
rxn_1946

>  <mol_properties>  (9) 
{"1": {"label": "*1", "atom_type": "Cs"}, "2": {"label": "*0", "atom_type": "S2s"}, "7": {"label": "*2", "atom_type": "H0"}, "13": {"label": "*3", "atom_type": "CS"}, "14": {"label": "*4", "atom_type": "S2d"}}

>  <type>  (9) 
unop_5

>  <geom_source>  (9) 
Heuristics

$$$$

     RDKit          3D

 18 16  0  0  0  0  0  0  0  0999 V2000
    0.6297    0.8182   -2.1969 C   0  0  0  0  0  0  0  0  0  0  0  0
    0.6297    0.8182   -0.6746 C   0  0  0  0  0  3  0  0  0  0  0  0
    1.9847   -0.1983    0.0090 S   0  0  0  0  0  0  0  0  0  0  0  0
    0.6297    2.2281   -0.1006 C   0  0  0  0  0  0  0  0  0  0  0  0
    0.6011   -0.1961   -2.5936 H   0  0  0  0  0  0  0  0  0  0  0  0
    1.5281    1.3079   -2.5805 H   0  0  0  0  0  0  0  0  0  0  0  0
   -0.2373    1.3656   -2.5757 H   0  0  0  0  0  0  0  0  0  0  0  0
   -0.4382    0.1863   -0.2496 H   0  0  0  0  0  0  0  0  0  0  0  0
    2.9909    0.5372   -0.4857 H   0  0  0  0  0  0  0  0  0  0  0  0
   -0.2373    2.7854   -0.4647 H   0  0  0  0  0  0  0  0  0  0  0  0
    1.5281    2.7681   -0.4095 H   0  0  0  0  0  0  0  0  0  0  0  0
    0.6011    2.2131    0.9884 H   0  0  0  0  0  0  0  0  0  0  0  0
   -2.6983    0.4212    0.3756 C   0  0  0  0  0  0  0  0  0  0  0  0
   -1.5048   -0.4448    0.1749 C   0  0  0  0  0  0  0  0  0  0  0  0
   -1.0325   -1.6509    1.1254 S   0  0  0  0  0  0  0  0  0  0  0  0
   -2.3852    1.4678    0.4406 H   0  0  0  0  0  0  0  0  0  0  0  0
   -3.2494    0.1468    1.2727 H   0  0  0  0  0  0  0  0  0  0  0  0
   -3.3547    0.3491   -0.4971 H   0  0  0  0  0  0  0  0  0  0  0  0
  1  2  1  0
  1  5  1  0
  1  6  1  0
  1  7  1  0
  2  4  1  0
  2  3  1  0
  3  9  1  0
  4 10  1  0
  4 11  1  0
  4 12  1  0
  8 14  1  0
 13 14  1  0
 13 16  1  0
 13 17  1  0
 13 18  1  0
 14 15  2  0
M  RAD  1   2   2
M  END
>  <reaction>  (10) 
rxn_1946

>  <mol_properties>  (10) 
{"1": {"label": "*1", "atom_type": "Cs"}, "2": {"label": "*0", "atom_type": "S2s"}, "7": {"label": "*2", "atom_type": "H0"}, "13": {"label": "*3", "atom_type": "CS"}, "14": {"label": "*4", "atom_type": "S2d"}}

>  <type>  (10) 
unop_6

>  <geom_source>  (10) 
Heuristics

$$$$

     RDKit          3D

 18 16  0  0  0  0  0  0  0  0999 V2000
    0.6112    0.9003   -2.1078 C   0  0  0  0  0  0  0  0  0  0  0  0
    0.6112    0.9003   -0.5855 C   0  0  0  0  0  3  0  0  0  0  0  0
    1.9663   -0.1162    0.0981 S   0  0  0  0  0  0  0  0  0  0  0  0
    0.6112    2.3102   -0.0114 C   0  0  0  0  0  0  0  0  0  0  0  0
    0.5826   -0.1140   -2.5045 H   0  0  0  0  0  0  0  0  0  0  0  0
    1.5097    1.3900   -2.4914 H   0  0  0  0  0  0  0  0  0  0  0  0
   -0.2557    1.4477   -2.4866 H   0  0  0  0  0  0  0  0  0  0  0  0
   -0.4567    0.2684   -0.1605 H   0  0  0  0  0  0  0  0  0  0  0  0
    2.9725    0.6193   -0.3965 H   0  0  0  0  0  0  0  0  0  0  0  0
   -0.2557    2.8675   -0.3756 H   0  0  0  0  0  0  0  0  0  0  0  0
    1.5097    2.8502   -0.3204 H   0  0  0  0  0  0  0  0  0  0  0  0
    0.5826    2.2951    1.0775 H   0  0  0  0  0  0  0  0  0  0  0  0
   -2.4357    0.4589    1.1047 C   0  0  0  0  0  0  0  0  0  0  0  0
   -1.5233   -0.3627    0.2640 C   0  0  0  0  0  0  0  0  0  0  0  0
   -1.1117   -1.8943    0.5215 S   0  0  0  0  0  0  0  0  0  0  0  0
   -1.9060    1.3483    1.4597 H   0  0  0  0  0  0  0  0  0  0  0  0
   -2.8177   -0.1038    1.9539 H   0  0  0  0  0  0  0  0  0  0  0  0
   -3.2704    0.8195    0.4957 H   0  0  0  0  0  0  0  0  0  0  0  0
  1  2  1  0
  1  5  1  0
  1  6  1  0
  1  7  1  0
  2  4  1  0
  2  3  1  0
  3  9  1  0
  4 10  1  0
  4 11  1  0
  4 12  1  0
  8 14  1  0
 13 14  1  0
 13 16  1  0
 13 17  1  0
 13 18  1  0
 14 15  2  0
M  RAD  1   2   2
M  END
>  <reaction>  (11) 
rxn_1946

>  <mol_properties>  (11) 
{"1": {"label": "*1", "atom_type": "Cs"}, "2": {"label": "*0", "atom_type": "S2s"}, "7": {"label": "*2", "atom_type": "H0"}, "13": {"label": "*3", "atom_type": "CS"}, "14": {"label": "*4", "atom_type": "S2d"}}

>  <type>  (11) 
unop_7

>  <geom_source>  (11) 
Heuristics

$$$$

     RDKit          3D

 18 16  0  0  0  0  0  0  0  0999 V2000
    0.7766    0.5698   -2.1969 C   0  0  0  0  0  0  0  0  0  0  0  0
    0.7766    0.5698   -0.6746 C   0  0  0  0  0  3  0  0  0  0  0  0
    2.1316   -0.4466    0.0090 S   0  0  0  0  0  0  0  0  0  0  0  0
    0.7766    1.9798   -0.1006 C   0  0  0  0  0  0  0  0  0  0  0  0
    0.7480   -0.4444   -2.5936 H   0  0  0  0  0  0  0  0  0  0  0  0
    1.6750    1.0595   -2.5805 H   0  0  0  0  0  0  0  0  0  0  0  0
   -0.0904    1.1172   -2.5757 H   0  0  0  0  0  0  0  0  0  0  0  0
   -0.2913   -0.0621   -0.2496 H   0  0  0  0  0  0  0  0  0  0  0  0
    3.1379    0.2889   -0.4857 H   0  0  0  0  0  0  0  0  0  0  0  0
   -0.0904    2.5370   -0.4647 H   0  0  0  0  0  0  0  0  0  0  0  0
    1.6750    2.5197   -0.4095 H   0  0  0  0  0  0  0  0  0  0  0  0
    0.7480    1.9647    0.9884 H   0  0  0  0  0  0  0  0  0  0  0  0
   -1.1733   -2.1561    0.3756 C   0  0  0  0  0  0  0  0  0  0  0  0
   -1.3579   -0.6932    0.1749 C   0  0  0  0  0  0  0  0  0  0  0  0
   -2.1877    0.3014    1.1254 S   0  0  0  0  0  0  0  0  0  0  0  0
   -1.5524   -2.6968   -0.4971 H   0  0  0  0  0  0  0  0  0  0  0  0
   -1.6790   -2.5071    1.2727 H   0  0  0  0  0  0  0  0  0  0  0  0
   -0.1052   -2.3855    0.4406 H   0  0  0  0  0  0  0  0  0  0  0  0
  1  2  1  0
  1  5  1  0
  1  6  1  0
  1  7  1  0
  2  4  1  0
  2  3  1  0
  3  9  1  0
  4 10  1  0
  4 11  1  0
  4 12  1  0
  8 14  1  0
 13 14  1  0
 13 16  1  0
 13 17  1  0
 13 18  1  0
 14 15  2  0
M  RAD  1   2   2
M  END
>  <reaction>  (12) 
rxn_1946

>  <mol_properties>  (12) 
{"1": {"label": "*1", "atom_type": "Cs"}, "2": {"label": "*0", "atom_type": "S2s"}, "7": {"label": "*2", "atom_type": "H0"}, "13": {"label": "*3", "atom_type": "CS"}, "14": {"label": "*4", "atom_type": "S2d"}}

>  <type>  (12) 
unop_8

>  <geom_source>  (12) 
Heuristics

$$$$

     RDKit          3D

 18 16  0  0  0  0  0  0  0  0999 V2000
    0.7450    0.7220   -2.2096 C   0  0  0  0  0  0  0  0  0  0  0  0
    0.7450    0.7220   -0.6873 C   0  0  0  0  0  3  0  0  0  0  0  0
    2.1000   -0.2945   -0.0037 S   0  0  0  0  0  0  0  0  0  0  0  0
    0.7450    2.1319   -0.1133 C   0  0  0  0  0  0  0  0  0  0  0  0
    0.7164   -0.2923   -2.6063 H   0  0  0  0  0  0  0  0  0  0  0  0
    1.6434    1.2117   -2.5933 H   0  0  0  0  0  0  0  0  0  0  0  0
   -0.1220    1.2694   -2.5885 H   0  0  0  0  0  0  0  0  0  0  0  0
   -0.3229    0.0901   -0.2623 H   0  0  0  0  0  0  0  0  0  0  0  0
    3.1063    0.4410   -0.4984 H   0  0  0  0  0  0  0  0  0  0  0  0
   -0.1220    2.6892   -0.4774 H   0  0  0  0  0  0  0  0  0  0  0  0
    1.6434    2.6719   -0.4222 H   0  0  0  0  0  0  0  0  0  0  0  0
    0.7164    2.1169    0.9757 H   0  0  0  0  0  0  0  0  0  0  0  0
   -2.5652   -0.4506   -0.7457 C   0  0  0  0  0  0  0  0  0  0  0  0
   -1.3895   -0.5410    0.1621 C   0  0  0  0  0  0  0  0  0  0  0  0
   -1.4140   -0.9572    1.7138 S   0  0  0  0  0  0  0  0  0  0  0  0
   -2.6366    0.5624   -1.1536 H   0  0  0  0  0  0  0  0  0  0  0  0
   -3.4906   -0.7059   -0.2337 H   0  0  0  0  0  0  0  0  0  0  0  0
   -2.4204   -1.1180   -1.6008 H   0  0  0  0  0  0  0  0  0  0  0  0
  1  2  1  0
  1  5  1  0
  1  6  1  0
  1  7  1  0
  2  4  1  0
  2  3  1  0
  3  9  1  0
  4 10  1  0
  4 11  1  0
  4 12  1  0
  8 14  1  0
 13 14  1  0
 13 16  1  0
 13 17  1  0
 13 18  1  0
 14 15  2  0
M  RAD  1   2   2
M  END
>  <reaction>  (13) 
rxn_1946

>  <mol_properties>  (13) 
{"1": {"label": "*1", "atom_type": "Cs"}, "2": {"label": "*0", "atom_type": "S2s"}, "7": {"label": "*2", "atom_type": "H0"}, "13": {"label": "*3", "atom_type": "CS"}, "14": {"label": "*4", "atom_type": "S2d"}}

>  <type>  (13) 
unop_9

>  <geom_source>  (13) 
Heuristics

$$$$

     RDKit          3D

 18 16  0  0  0  0  0  0  0  0999 V2000
    0.7440    0.6557   -2.2237 C   0  0  0  0  0  0  0  0  0  0  0  0
    0.7440    0.6557   -0.7014 C   0  0  0  0  0  3  0  0  0  0  0  0
    2.0990   -0.3608   -0.0178 S   0  0  0  0  0  0  0  0  0  0  0  0
    0.7440    2.0656   -0.1273 C   0  0  0  0  0  0  0  0  0  0  0  0
    0.7154   -0.3586   -2.6204 H   0  0  0  0  0  0  0  0  0  0  0  0
    1.6424    1.1454   -2.6073 H   0  0  0  0  0  0  0  0  0  0  0  0
   -0.1230    1.2031   -2.6025 H   0  0  0  0  0  0  0  0  0  0  0  0
   -0.3239    0.0238   -0.2764 H   0  0  0  0  0  0  0  0  0  0  0  0
    3.1053    0.3747   -0.5124 H   0  0  0  0  0  0  0  0  0  0  0  0
   -0.1230    2.6229   -0.4915 H   0  0  0  0  0  0  0  0  0  0  0  0
    1.6424    2.6056   -0.4363 H   0  0  0  0  0  0  0  0  0  0  0  0
    0.7154    2.0505    0.9616 H   0  0  0  0  0  0  0  0  0  0  0  0
   -1.4869   -2.0259   -0.2912 C   0  0  0  0  0  0  0  0  0  0  0  0
   -1.3905   -0.6073    0.1481 C   0  0  0  0  0  0  0  0  0  0  0  0
   -1.9436    0.0021    1.5279 S   0  0  0  0  0  0  0  0  0  0  0  0
   -2.0211   -2.0791   -1.2448 H   0  0  0  0  0  0  0  0  0  0  0  0
   -1.9931   -2.6434    0.4478 H   0  0  0  0  0  0  0  0  0  0  0  0
   -0.4835   -2.4212   -0.4773 H   0  0  0  0  0  0  0  0  0  0  0  0
  1  2  1  0
  1  5  1  0
  1  6  1  0
  1  7  1  0
  2  4  1  0
  2  3  1  0
  3  9  1  0
  4 10  1  0
  4 11  1  0
  4 12  1  0
  8 14  1  0
 13 14  1  0
 13 16  1  0
 13 17  1  0
 13 18  1  0
 14 15  2  0
M  RAD  1   2   2
M  END
>  <reaction>  (14) 
rxn_1946

>  <mol_properties>  (14) 
{"1": {"label": "*1", "atom_type": "Cs"}, "2": {"label": "*0", "atom_type": "S2s"}, "7": {"label": "*2", "atom_type": "H0"}, "13": {"label": "*3", "atom_type": "CS"}, "14": {"label": "*4", "atom_type": "S2d"}}

>  <type>  (14) 
unop_10

>  <geom_source>  (14) 
Heuristics

$$$$

     RDKit          3D

 18 16  0  0  0  0  0  0  0  0999 V2000
    0.6849    0.9325   -1.9660 C   0  0  0  0  0  0  0  0  0  0  0  0
    0.6849    0.9325   -0.4437 C   0  0  0  0  0  3  0  0  0  0  0  0
    2.0400   -0.0839    0.2399 S   0  0  0  0  0  0  0  0  0  0  0  0
    0.6849    2.3425    0.1304 C   0  0  0  0  0  0  0  0  0  0  0  0
    0.6564   -0.0818   -2.3627 H   0  0  0  0  0  0  0  0  0  0  0  0
    1.5834    1.4222   -2.3496 H   0  0  0  0  0  0  0  0  0  0  0  0
   -0.1820    1.4799   -2.3448 H   0  0  0  0  0  0  0  0  0  0  0  0
   -0.3829    0.3006   -0.0187 H   0  0  0  0  0  0  0  0  0  0  0  0
    3.0462    0.6516   -0.2547 H   0  0  0  0  0  0  0  0  0  0  0  0
   -0.1820    2.8997   -0.2338 H   0  0  0  0  0  0  0  0  0  0  0  0
    1.5834    2.8824   -0.1786 H   0  0  0  0  0  0  0  0  0  0  0  0
    0.6564    2.3274    1.2193 H   0  0  0  0  0  0  0  0  0  0  0  0
   -1.9717    0.1466    1.7151 C   0  0  0  0  0  0  0  0  0  0  0  0
   -1.4495   -0.3305    0.4058 C   0  0  0  0  0  0  0  0  0  0  0  0
   -1.5425   -1.8283   -0.1681 S   0  0  0  0  0  0  0  0  0  0  0  0
   -1.1532    0.5734    2.3029 H   0  0  0  0  0  0  0  0  0  0  0  0
   -2.4468   -0.6553    2.2762 H   0  0  0  0  0  0  0  0  0  0  0  0
   -2.6887    0.9569    1.5507 H   0  0  0  0  0  0  0  0  0  0  0  0
  1  2  1  0
  1  5  1  0
  1  6  1  0
  1  7  1  0
  2  4  1  0
  2  3  1  0
  3  9  1  0
  4 10  1  0
  4 11  1  0
  4 12  1  0
  8 14  1  0
 13 14  1  0
 13 16  1  0
 13 17  1  0
 13 18  1  0
 14 15  2  0
M  RAD  1   2   2
M  END
>  <reaction>  (15) 
rxn_1946

>  <mol_properties>  (15) 
{"1": {"label": "*1", "atom_type": "Cs"}, "2": {"label": "*0", "atom_type": "S2s"}, "7": {"label": "*2", "atom_type": "H0"}, "13": {"label": "*3", "atom_type": "CS"}, "14": {"label": "*4", "atom_type": "S2d"}}

>  <type>  (15) 
unop_11

>  <geom_source>  (15) 
Heuristics

$$$$

     RDKit          3D

 18 16  0  0  0  0  0  0  0  0999 V2000
    0.7624    0.7291   -2.1967 C   0  0  0  0  0  0  0  0  0  0  0  0
    0.7624    0.7291   -0.6744 C   0  0  0  0  0  3  0  0  0  0  0  0
    2.1174   -0.2874    0.0092 S   0  0  0  0  0  0  0  0  0  0  0  0
    0.7624    2.1390   -0.1003 C   0  0  0  0  0  0  0  0  0  0  0  0
    0.7338   -0.2852   -2.5934 H   0  0  0  0  0  0  0  0  0  0  0  0
    1.6608    1.2188   -2.5803 H   0  0  0  0  0  0  0  0  0  0  0  0
   -0.1046    1.2765   -2.5755 H   0  0  0  0  0  0  0  0  0  0  0  0
   -0.3055    0.0972   -0.2494 H   0  0  0  0  0  0  0  0  0  0  0  0
    3.1237    0.4481   -0.4854 H   0  0  0  0  0  0  0  0  0  0  0  0
   -0.1046    2.6963   -0.4645 H   0  0  0  0  0  0  0  0  0  0  0  0
    1.6608    2.6790   -0.4093 H   0  0  0  0  0  0  0  0  0  0  0  0
    0.7338    2.1240    0.9886 H   0  0  0  0  0  0  0  0  0  0  0  0
   -2.2538   -1.0557   -0.9042 C   0  0  0  0  0  0  0  0  0  0  0  0
   -1.3721   -0.5339    0.1751 C   0  0  0  0  0  0  0  0  0  0  0  0
   -1.6154   -0.6779    1.7567 S   0  0  0  0  0  0  0  0  0  0  0  0
   -2.5780   -0.2294   -1.5445 H   0  0  0  0  0  0  0  0  0  0  0  0
   -3.1235   -1.5702   -0.5011 H   0  0  0  0  0  0  0  0  0  0  0  0
   -1.6856   -1.7375   -1.5445 H   0  0  0  0  0  0  0  0  0  0  0  0
  1  2  1  0
  1  5  1  0
  1  6  1  0
  1  7  1  0
  2  4  1  0
  2  3  1  0
  3  9  1  0
  4 10  1  0
  4 11  1  0
  4 12  1  0
  8 14  1  0
 13 14  1  0
 13 16  1  0
 13 17  1  0
 13 18  1  0
 14 15  2  0
M  RAD  1   2   2
M  END
>  <reaction>  (16) 
rxn_1946

>  <mol_properties>  (16) 
{"1": {"label": "*1", "atom_type": "Cs"}, "2": {"label": "*0", "atom_type": "S2s"}, "7": {"label": "*2", "atom_type": "H0"}, "13": {"label": "*3", "atom_type": "CS"}, "14": {"label": "*4", "atom_type": "S2d"}}

>  <type>  (16) 
unop_12

>  <geom_source>  (16) 
Heuristics

$$$$

     RDKit          3D

 18 16  0  0  0  0  0  0  0  0999 V2000
   -1.5666   -1.6946    0.2936 S   0  0  0  0  0  0  0  0  0  0  0  0
    1.9586   -2.2418   -0.8743 S   0  0  0  0  0  0  0  0  0  0  0  0
   -0.7886    0.7463    1.2931 C   0  0  0  0  0  0  0  0  0  0  0  0
   -1.7253    0.7075   -1.0486 C   0  0  0  0  0  0  0  0  0  0  0  0
    2.4543    0.0045    0.2235 C   0  0  0  0  0  0  0  0  0  0  0  0
   -0.8821   -0.0343   -0.0144 C   0  0  0  0  0  3  0  0  0  0  0  0
    1.5048   -0.9593   -0.4147 C   0  0  0  0  0  0  0  0  0  0  0  0
    3.2652    0.2741   -0.4866 H   0  0  0  0  0  0  0  0  0  0  0  0
    2.8960   -0.4399    1.1411 H   0  0  0  0  0  0  0  0  0  0  0  0
    1.9060    0.9275    0.5040 H   0  0  0  0  0  0  0  0  0  0  0  0
   -0.1444    0.1968    2.0111 H   0  0  0  0  0  0  0  0  0  0  0  0
   -1.7965    0.8827    1.7404 H   0  0  0  0  0  0  0  0  0  0  0  0
   -0.3332    1.7421    1.1088 H   0  0  0  0  0  0  0  0  0  0  0  0
   -1.7407    0.1365   -2.0004 H   0  0  0  0  0  0  0  0  0  0  0  0
   -2.7674    0.8346   -0.6847 H   0  0  0  0  0  0  0  0  0  0  0  0
   -1.2851    1.7067   -1.2508 H   0  0  0  0  0  0  0  0  0  0  0  0
    0.2474   -0.6318   -0.5562 H   0  0  0  0  0  0  0  0  0  0  0  0
   -1.2023   -2.1576   -0.9849 H   0  0  0  0  0  0  0  0  0  0  0  0
  1  6  1  0
  1 18  1  0
  2  7  2  0
  3  6  1  0
  3 11  1  0
  3 12  1  0
  3 13  1  0
  4  6  1  0
  4 14  1  0
  4 15  1  0
  4 16  1  0
  5  7  1  0
  5  8  1  0
  5  9  1  0
  5 10  1  0
  7 17  1  0
M  RAD  1   6   2
M  END
>  <reaction>  (17) 
rxn_1946

>  <mol_properties>  (17) 
{"1": {"label": "*1", "atom_type": "Cs"}, "2": {"label": "*0", "atom_type": "S2s"}, "7": {"label": "*2", "atom_type": "H0"}, "13": {"label": "*3", "atom_type": "CS"}, "14": {"label": "*4", "atom_type": "S2d"}}

>  <type>  (17) 
unop_13

>  <geom_source>  (17) 
AutoTST

$$$$
